HYA.pdb
     RDKit          3D

 28 29  0  0  1  0  0  0  0  0999 V2000
   20.3185  -11.7819  -18.0450 N   0  0  0  0  0  0  0  0  0  0  0  0
   20.2516  -10.3601  -18.2266 C   0  0  1  0  0  0  0  0  0  0  0  0
   19.2296  -10.0240  -19.2929 C   0  0  0  0  0  0  0  0  0  0  0  0
   19.6393  -10.6314  -20.5969 C   0  0  0  0  0  0  0  0  0  0  0  0
   20.2115   -9.9469  -21.6469 C   0  0  0  0  0  0  0  0  0  0  0  0
   20.4422  -10.8154  -22.6461 N   0  0  0  0  0  0  0  0  0  0  0  0
   20.0262  -12.0041  -22.2304 C   0  0  0  0  0  0  0  0  0  0  0  0
   19.5356  -11.9081  -20.9866 N   0  0  0  0  0  0  0  0  0  0  0  0
   19.9457   -9.6832  -16.9446 C   0  0  0  0  0  0  0  0  0  0  0  0
   18.9324  -10.0484  -16.2691 O   0  0  0  0  0  0  0  0  0  0  0  0
   20.6046   -6.0828   -9.1342 O   0  0  0  0  0  0  0  0  0  0  0  0
   20.8753   -6.5088  -10.4231 C   0  0  0  0  0  0  0  0  0  0  0  0
   21.3223   -5.6746  -11.4241 C   0  0  0  0  0  0  0  0  0  0  0  0
   21.5734   -6.1635  -12.6883 C   0  0  0  0  0  0  0  0  0  0  0  0
   21.3825   -7.4994  -12.9786 C   0  0  0  0  0  0  0  0  0  0  0  0
   21.6602   -8.0021  -14.3488 C   0  0  0  0  0  0  0  0  0  0  0  0
   20.4905   -7.8927  -15.2589 C   0  0  2  0  0  0  0  0  0  0  0  0
   20.7845   -8.6284  -16.4731 N   0  0  0  0  0  0  0  0  0  0  0  0
   20.0375   -6.5471  -15.5643 C   0  0  0  0  0  0  0  0  0  0  0  0
   20.7714   -5.8048  -16.2630 O   0  0  0  0  0  0  0  0  0  0  0  0
   20.9404   -8.3291  -11.9921 C   0  0  0  0  0  0  0  0  0  0  0  0
   20.6897   -7.8381  -10.7277 C   0  0  0  0  0  0  0  0  0  0  0  0
   16.8018   -4.7499  -15.6995 C   0  0  0  0  0  0  0  0  0  0  0  0
   18.2818   -4.7413  -15.3881 C   0  0  2  0  0  0  0  0  0  0  0  0
   18.8059   -6.0364  -15.1089 N   0  0  0  0  0  0  0  0  0  0  0  0
   18.4772   -3.8661  -14.2088 C   0  0  0  0  0  0  0  0  0  0  0  0
   18.8015   -4.3645  -13.1042 O   0  0  0  0  0  0  0  0  0  0  0  0
   18.3139   -2.4909  -14.2731 O   0  0  0  0  0  0  0  0  0  0  0  0
  2  1  1  1
  3  2  1  0
  4  3  1  0
  5  4  2  0
  6  5  1  0
  7  6  1  0
  7  8  2  0
  8  4  1  0
  9 18  1  0
  9  2  1  0
 10  9  2  0
 12 11  1  0
 13 12  2  0
 14 13  1  0
 15 21  1  0
 15 14  2  0
 17 16  1  1
 16 15  1  0
 17 18  1  0
 19 25  1  0
 19 17  1  0
 20 19  2  0
 21 22  2  0
 22 12  1  0
 24 23  1  1
 24 26  1  0
 24 25  1  0
 26 28  1  0
 27 26  2  0
M  END
$$$$
