HYA.pdb
     RDKit          3D

 28 29  0  0  1  0  0  0  0  0999 V2000
   24.1342  -19.8747  -16.4639 N   0  0  0  0  0  0  0  0  0  0  0  0
   24.6551  -18.8735  -15.5778 C   0  0  1  0  0  0  0  0  0  0  0  0
   24.7719  -17.5506  -16.3062 C   0  0  0  0  0  0  0  0  0  0  0  0
   25.7053  -17.6916  -17.4664 C   0  0  0  0  0  0  0  0  0  0  0  0
   27.0461  -17.9955  -17.3746 C   0  0  0  0  0  0  0  0  0  0  0  0
   27.5590  -18.0382  -18.6159 N   0  0  0  0  0  0  0  0  0  0  0  0
   26.5675  -17.7690  -19.4546 C   0  0  0  0  0  0  0  0  0  0  0  0
   25.4345  -17.5560  -18.7706 N   0  0  0  0  0  0  0  0  0  0  0  0
   23.8100  -18.7569  -14.3664 C   0  0  0  0  0  0  0  0  0  0  0  0
   24.0344  -17.8232  -13.5331 O   0  0  0  0  0  0  0  0  0  0  0  0
   18.9825  -14.5023  -15.4862 O   0  0  0  0  0  0  0  0  0  0  0  0
   19.3427  -15.7229  -14.9419 C   0  0  0  0  0  0  0  0  0  0  0  0
   19.3948  -15.9685  -13.5874 C   0  0  0  0  0  0  0  0  0  0  0  0
   19.7621  -17.2086  -13.1103 C   0  0  0  0  0  0  0  0  0  0  0  0
   20.0856  -18.2310  -13.9794 C   0  0  0  0  0  0  0  0  0  0  0  0
   20.4783  -19.5588  -13.4406 C   0  0  0  0  0  0  0  0  0  0  0  0
   21.8891  -19.6060  -12.9760 C   0  0  2  0  0  0  0  0  0  0  0  0
   22.7517  -19.6877  -14.1385 N   0  0  0  0  0  0  0  0  0  0  0  0
   22.2146  -20.6446  -12.0144 C   0  0  0  0  0  0  0  0  0  0  0  0
   22.0404  -21.8458  -12.3379 O   0  0  0  0  0  0  0  0  0  0  0  0
   20.0358  -17.9936  -15.3203 C   0  0  0  0  0  0  0  0  0  0  0  0
   19.6681  -16.7521  -15.7958 C   0  0  0  0  0  0  0  0  0  0  0  0
   23.6617  -20.7575   -8.4991 C   0  0  0  0  0  0  0  0  0  0  0  0
   22.8506  -21.2920   -9.6584 C   0  0  2  0  0  0  0  0  0  0  0  0
   22.7191  -20.3620  -10.7297 N   0  0  0  0  0  0  0  0  0  0  0  0
   21.5076  -21.6330   -9.1343 C   0  0  0  0  0  0  0  0  0  0  0  0
   20.5199  -20.9162   -9.4248 O   0  0  0  0  0  0  0  0  0  0  0  0
   21.2889  -22.7330   -8.3192 O   0  0  0  0  0  0  0  0  0  0  0  0
  2  1  1  6
  3  2  1  0
  4  3  1  0
  5  4  2  0
  6  5  1  0
  7  6  1  0
  7  8  2  0
  8  4  1  0
  9 18  1  0
  9  2  1  0
 10  9  2  0
 12 11  1  0
 13 12  2  0
 14 13  1  0
 15 21  1  0
 15 14  2  0
 17 16  1  6
 16 15  1  0
 17 18  1  0
 19 25  1  0
 19 17  1  0
 20 19  2  0
 21 22  2  0
 22 12  1  0
 24 23  1  1
 24 26  1  0
 24 25  1  0
 26 28  1  0
 27 26  2  0
M  END
$$$$
