HYA.pdb
     RDKit          3D

 28 29  0  0  1  0  0  0  0  0999 V2000
   27.6936  -20.4167  -19.3132 N   0  0  0  0  0  0  0  0  0  0  0  0
   27.1655  -19.4529  -18.3907 C   0  0  1  0  0  0  0  0  0  0  0  0
   26.0851  -18.6324  -19.0644 C   0  0  0  0  0  0  0  0  0  0  0  0
   26.7093  -17.6142  -19.9649 C   0  0  0  0  0  0  0  0  0  0  0  0
   27.5720  -16.6189  -19.5605 C   0  0  0  0  0  0  0  0  0  0  0  0
   27.9266  -15.8989  -20.6383 N   0  0  0  0  0  0  0  0  0  0  0  0
   27.3035  -16.4301  -21.6816 C   0  0  0  0  0  0  0  0  0  0  0  0
   26.5598  -17.4736  -21.2879 N   0  0  0  0  0  0  0  0  0  0  0  0
   26.6612  -20.1210  -17.1682 C   0  0  0  0  0  0  0  0  0  0  0  0
   25.8682  -21.1090  -17.2755 O   0  0  0  0  0  0  0  0  0  0  0  0
   25.2291  -21.1947   -8.4770 O   0  0  0  0  0  0  0  0  0  0  0  0
   25.7669  -20.8963   -9.7170 C   0  0  0  0  0  0  0  0  0  0  0  0
   26.4021  -21.8218  -10.5157 C   0  0  0  0  0  0  0  0  0  0  0  0
   26.9164  -21.4584  -11.7420 C   0  0  0  0  0  0  0  0  0  0  0  0
   26.8062  -20.1597  -12.1962 C   0  0  0  0  0  0  0  0  0  0  0  0
   27.3686  -19.7930  -13.5215 C   0  0  0  0  0  0  0  0  0  0  0  0
   26.4911  -20.1822  -14.6559 C   0  0  2  0  0  0  0  0  0  0  0  0
   27.0642  -19.6567  -15.8796 N   0  0  0  0  0  0  0  0  0  0  0  0
   25.0905  -19.8161  -14.5399 C   0  0  0  0  0  0  0  0  0  0  0  0
   24.7617  -18.6161  -14.7126 O   0  0  0  0  0  0  0  0  0  0  0  0
   26.1788  -19.2401  -11.4102 C   0  0  0  0  0  0  0  0  0  0  0  0
   25.6648  -19.6055  -10.1834 C   0  0  0  0  0  0  0  0  0  0  0  0
   21.7874  -21.3570  -14.8688 C   0  0  0  0  0  0  0  0  0  0  0  0
   22.6980  -20.4624  -14.0576 C   0  0  2  0  0  0  0  0  0  0  0  0
   24.0809  -20.7522  -14.2409 N   0  0  0  0  0  0  0  0  0  0  0  0
   22.3403  -20.6488  -12.6322 C   0  0  0  0  0  0  0  0  0  0  0  0
   22.9823  -21.4624  -11.9251 O   0  0  0  0  0  0  0  0  0  0  0  0
   21.3051  -19.9490  -12.0316 O   0  0  0  0  0  0  0  0  0  0  0  0
  2  1  1  6
  3  2  1  0
  4  3  1  0
  5  4  2  0
  6  5  1  0
  7  6  1  0
  7  8  2  0
  8  4  1  0
  9 18  1  0
  9  2  1  0
 10  9  2  0
 12 11  1  0
 13 12  2  0
 14 13  1  0
 15 21  1  0
 15 14  2  0
 17 16  1  1
 16 15  1  0
 17 18  1  0
 19 25  1  0
 19 17  1  0
 20 19  2  0
 21 22  2  0
 22 12  1  0
 24 23  1  6
 24 26  1  0
 24 25  1  0
 26 28  1  0
 27 26  2  0
M  END
$$$$
