HYA.pdb
     RDKit          3D

 28 29  0  0  1  0  0  0  0  0999 V2000
   35.7173  -31.4199  -17.9120 N   0  0  0  0  0  0  0  0  0  0  0  0
   35.7859  -31.8147  -16.5342 C   0  0  1  0  0  0  0  0  0  0  0  0
   36.4177  -30.7103  -15.7122 C   0  0  0  0  0  0  0  0  0  0  0  0
   37.8548  -30.5522  -16.0955 C   0  0  0  0  0  0  0  0  0  0  0  0
   38.5360  -31.3645  -16.9757 C   0  0  0  0  0  0  0  0  0  0  0  0
   39.8006  -30.9206  -17.0731 N   0  0  0  0  0  0  0  0  0  0  0  0
   39.9032  -29.8643  -16.2778 C   0  0  0  0  0  0  0  0  0  0  0  0
   38.7285  -29.6281  -15.6768 N   0  0  0  0  0  0  0  0  0  0  0  0
   34.4411  -32.1728  -16.0255 C   0  0  0  0  0  0  0  0  0  0  0  0
   34.3081  -32.5538  -14.8198 O   0  0  0  0  0  0  0  0  0  0  0  0
   25.6852  -32.8470  -15.4936 O   0  0  0  0  0  0  0  0  0  0  0  0
   27.0047  -32.4964  -15.7215 C   0  0  0  0  0  0  0  0  0  0  0  0
   27.9398  -32.3531  -14.7201 C   0  0  0  0  0  0  0  0  0  0  0  0
   29.2395  -32.0013  -15.0157 C   0  0  0  0  0  0  0  0  0  0  0  0
   29.6321  -31.7851  -16.3212 C   0  0  0  0  0  0  0  0  0  0  0  0
   31.0388  -31.4069  -16.6140 C   0  0  0  0  0  0  0  0  0  0  0  0
   31.9896  -32.5401  -16.4714 C   0  0  2  0  0  0  0  0  0  0  0  0
   33.3042  -32.0897  -16.8850 N   0  0  0  0  0  0  0  0  0  0  0  0
   31.6266  -33.7726  -17.1485 C   0  0  0  0  0  0  0  0  0  0  0  0
   31.7635  -33.8419  -18.3952 O   0  0  0  0  0  0  0  0  0  0  0  0
   28.7112  -31.9255  -17.3157 C   0  0  0  0  0  0  0  0  0  0  0  0
   27.4111  -32.2775  -17.0181 C   0  0  0  0  0  0  0  0  0  0  0  0
   30.3186  -37.1775  -16.0489 C   0  0  0  0  0  0  0  0  0  0  0  0
   30.7133  -36.1247  -17.0605 C   0  0  2  0  0  0  0  0  0  0  0  0
   31.1256  -34.8980  -16.4647 N   0  0  0  0  0  0  0  0  0  0  0  0
   29.5340  -35.8814  -17.9235 C   0  0  0  0  0  0  0  0  0  0  0  0
   28.8554  -34.8362  -17.7789 O   0  0  0  0  0  0  0  0  0  0  0  0
   29.1383  -36.7768  -18.9052 O   0  0  0  0  0  0  0  0  0  0  0  0
  2  1  1  6
  3  2  1  0
  4  3  1  0
  5  4  2  0
  6  5  1  0
  7  6  1  0
  7  8  2  0
  8  4  1  0
  9 18  1  0
  9  2  1  0
 10  9  2  0
 12 11  1  0
 13 12  2  0
 14 13  1  0
 15 21  1  0
 15 14  2  0
 17 16  1  6
 16 15  1  0
 17 18  1  0
 19 25  1  0
 19 17  1  0
 20 19  2  0
 21 22  2  0
 22 12  1  0
 24 23  1  1
 24 26  1  0
 24 25  1  0
 26 28  1  0
 27 26  2  0
M  END
$$$$
