HYA.pdb
     RDKit          3D

 28 29  0  0  1  0  0  0  0  0999 V2000
   29.7259   -0.5687    6.2185 N   0  0  0  0  0  0  0  0  0  0  0  0
   30.1552   -1.7099    6.9750 C   0  0  1  0  0  0  0  0  0  0  0  0
   31.0780   -1.2702    8.0928 C   0  0  0  0  0  0  0  0  0  0  0  0
   32.3276   -0.6835    7.5171 C   0  0  0  0  0  0  0  0  0  0  0  0
   32.6866    0.6449    7.5871 C   0  0  0  0  0  0  0  0  0  0  0  0
   33.8664    0.8006    6.9628 N   0  0  0  0  0  0  0  0  0  0  0  0
   34.2304   -0.3947    6.5180 C   0  0  0  0  0  0  0  0  0  0  0  0
   33.3050   -1.3069    6.8473 N   0  0  0  0  0  0  0  0  0  0  0  0
   28.9888   -2.4620    7.4939 C   0  0  0  0  0  0  0  0  0  0  0  0
   28.0500   -1.8363    8.0802 O   0  0  0  0  0  0  0  0  0  0  0  0
   22.6863   -8.4908    7.9781 O   0  0  0  0  0  0  0  0  0  0  0  0
   23.7645   -7.6903    7.6424 C   0  0  0  0  0  0  0  0  0  0  0  0
   25.0088   -8.1838    7.3169 C   0  0  0  0  0  0  0  0  0  0  0  0
   26.0415   -7.3305    6.9916 C   0  0  0  0  0  0  0  0  0  0  0  0
   25.8513   -5.9635    6.9850 C   0  0  0  0  0  0  0  0  0  0  0  0
   26.9801   -5.0647    6.6308 C   0  0  0  0  0  0  0  0  0  0  0  0
   27.7917   -4.6559    7.8067 C   0  0  2  0  0  0  0  0  0  0  0  0
   28.9218   -3.8793    7.3356 N   0  0  0  0  0  0  0  0  0  0  0  0
   28.2276   -5.7237    8.6892 C   0  0  0  0  0  0  0  0  0  0  0  0
   29.1592   -6.4778    8.3134 O   0  0  0  0  0  0  0  0  0  0  0  0
   24.6224   -5.4698    7.3061 C   0  0  0  0  0  0  0  0  0  0  0  0
   23.5902   -6.3251    7.6313 C   0  0  0  0  0  0  0  0  0  0  0  0
   27.9339   -6.5331   12.3198 C   0  0  0  0  0  0  0  0  0  0  0  0
   28.0236   -6.9709   10.8749 C   0  0  2  0  0  0  0  0  0  0  0  0
   27.6487   -5.9510    9.9534 N   0  0  0  0  0  0  0  0  0  0  0  0
   27.1237   -8.1365   10.7128 C   0  0  0  0  0  0  0  0  0  0  0  0
   25.8848   -7.9643   10.6156 O   0  0  0  0  0  0  0  0  0  0  0  0
   27.6000   -9.4375   10.6626 O   0  0  0  0  0  0  0  0  0  0  0  0
  2  1  1  1
  3  2  1  0
  4  3  1  0
  5  4  2  0
  6  5  1  0
  7  6  1  0
  7  8  2  0
  8  4  1  0
  9 18  1  0
  9  2  1  0
 10  9  2  0
 12 11  1  0
 13 12  2  0
 14 13  1  0
 15 21  1  0
 15 14  2  0
 17 16  1  6
 16 15  1  0
 17 18  1  0
 19 25  1  0
 19 17  1  0
 20 19  2  0
 21 22  2  0
 22 12  1  0
 24 23  1  1
 24 26  1  0
 24 25  1  0
 26 28  1  0
 27 26  2  0
M  END
$$$$
