HYA.pdb
     RDKit          3D

 28 29  0  0  1  0  0  0  0  0999 V2000
   16.8409  -11.4486  -17.9414 N   0  0  0  0  0  0  0  0  0  0  0  0
   17.0454  -10.1332  -17.4058 C   0  0  1  0  0  0  0  0  0  0  0  0
   16.1387   -9.9159  -16.2120 C   0  0  0  0  0  0  0  0  0  0  0  0
   14.7088   -9.9445  -16.6499 C   0  0  0  0  0  0  0  0  0  0  0  0
   13.9101   -8.8358  -16.8269 C   0  0  0  0  0  0  0  0  0  0  0  0
   12.6933   -9.2464  -17.2227 N   0  0  0  0  0  0  0  0  0  0  0  0
   12.7336  -10.5703  -17.2898 C   0  0  0  0  0  0  0  0  0  0  0  0
   13.9523  -11.0091  -16.9445 N   0  0  0  0  0  0  0  0  0  0  0  0
   18.4699   -9.9277  -17.0540 C   0  0  0  0  0  0  0  0  0  0  0  0
   19.1271  -10.8765  -16.5207 O   0  0  0  0  0  0  0  0  0  0  0  0
   19.0170   -2.4106  -18.5135 O   0  0  0  0  0  0  0  0  0  0  0  0
   19.5525   -3.6828  -18.4103 C   0  0  0  0  0  0  0  0  0  0  0  0
   20.6677   -3.9825  -17.6590 C   0  0  0  0  0  0  0  0  0  0  0  0
   21.1502   -5.2723  -17.5987 C   0  0  0  0  0  0  0  0  0  0  0  0
   20.5266   -6.2916  -18.2897 C   0  0  0  0  0  0  0  0  0  0  0  0
   21.0659   -7.6736  -18.2087 C   0  0  0  0  0  0  0  0  0  0  0  0
   20.5104   -8.4511  -17.0706 C   0  0  2  0  0  0  0  0  0  0  0  0
   19.0981   -8.6719  -17.3128 N   0  0  0  0  0  0  0  0  0  0  0  0
   20.7292   -7.8970  -15.7462 C   0  0  0  0  0  0  0  0  0  0  0  0
   19.8683   -7.1191  -15.2650 O   0  0  0  0  0  0  0  0  0  0  0  0
   19.4231   -6.0009  -19.0345 C   0  0  0  0  0  0  0  0  0  0  0  0
   18.9417   -4.7096  -19.0936 C   0  0  0  0  0  0  0  0  0  0  0  0
   23.0547   -8.6466  -12.8741 C   0  0  0  0  0  0  0  0  0  0  0  0
   22.1283   -7.7375  -13.6505 C   0  0  2  0  0  0  0  0  0  0  0  0
   21.8698   -8.1954  -14.9747 N   0  0  0  0  0  0  0  0  0  0  0  0
   22.7688   -6.4028  -13.7069 C   0  0  0  0  0  0  0  0  0  0  0  0
   23.2327   -5.9746  -14.7910 O   0  0  0  0  0  0  0  0  0  0  0  0
   22.8807   -5.5883  -12.5907 O   0  0  0  0  0  0  0  0  0  0  0  0
  2  1  1  1
  3  2  1  0
  4  3  1  0
  5  4  2  0
  6  5  1  0
  7  6  1  0
  7  8  2  0
  8  4  1  0
  9 18  1  0
  9  2  1  0
 10  9  2  0
 12 11  1  0
 13 12  2  0
 14 13  1  0
 15 21  1  0
 15 14  2  0
 17 16  1  6
 16 15  1  0
 17 18  1  0
 19 25  1  0
 19 17  1  0
 20 19  2  0
 21 22  2  0
 22 12  1  0
 24 23  1  6
 24 26  1  0
 24 25  1  0
 26 28  1  0
 27 26  2  0
M  END
$$$$
