HYA.pdb
     RDKit          3D

 28 29  0  0  1  0  0  0  0  0999 V2000
   22.6824  -12.7663  -17.3390 N   0  0  0  0  0  0  0  0  0  0  0  0
   23.2420  -11.5433  -16.8391 C   0  0  1  0  0  0  0  0  0  0  0  0
   24.4501  -11.1534  -17.6656 C   0  0  0  0  0  0  0  0  0  0  0  0
   25.5103  -12.2008  -17.5388 C   0  0  0  0  0  0  0  0  0  0  0  0
   26.0171  -12.6779  -16.3497 C   0  0  0  0  0  0  0  0  0  0  0  0
   26.9486  -13.6062  -16.6258 N   0  0  0  0  0  0  0  0  0  0  0  0
   27.0193  -13.7037  -17.9466 C   0  0  0  0  0  0  0  0  0  0  0  0
   26.1509  -12.8555  -18.5152 N   0  0  0  0  0  0  0  0  0  0  0  0
   22.2215  -10.4693  -16.8236 C   0  0  0  0  0  0  0  0  0  0  0  0
   21.5020  -10.2733  -17.8534 O   0  0  0  0  0  0  0  0  0  0  0  0
   16.4301  -12.9868  -16.5084 O   0  0  0  0  0  0  0  0  0  0  0  0
   17.3333  -12.0635  -16.0107 C   0  0  0  0  0  0  0  0  0  0  0  0
   18.4213  -12.4018  -15.2363 C   0  0  0  0  0  0  0  0  0  0  0  0
   19.2837  -11.4318  -14.7718 C   0  0  0  0  0  0  0  0  0  0  0  0
   19.0758  -10.1008  -15.0723 C   0  0  0  0  0  0  0  0  0  0  0  0
   20.0196   -9.0742  -14.5598 C   0  0  0  0  0  0  0  0  0  0  0  0
   21.0197   -8.6440  -15.5713 C   0  0  2  0  0  0  0  0  0  0  0  0
   22.0490   -9.6613  -15.6592 N   0  0  0  0  0  0  0  0  0  0  0  0
   21.6050   -7.3291  -15.3775 C   0  0  0  0  0  0  0  0  0  0  0  0
   22.4721   -7.1781  -14.4813 O   0  0  0  0  0  0  0  0  0  0  0  0
   18.0012   -9.7605  -15.8380 C   0  0  0  0  0  0  0  0  0  0  0  0
   17.1393  -10.7325  -16.3019 C   0  0  0  0  0  0  0  0  0  0  0  0
   21.1472   -3.9047  -16.9852 C   0  0  0  0  0  0  0  0  0  0  0  0
   21.7716   -4.8952  -16.0279 C   0  0  2  0  0  0  0  0  0  0  0  0
   21.2409   -6.2114  -16.1542 N   0  0  0  0  0  0  0  0  0  0  0  0
   21.5254   -4.3943  -14.6556 C   0  0  0  0  0  0  0  0  0  0  0  0
   20.5954   -4.8797  -13.9677 O   0  0  0  0  0  0  0  0  0  0  0  0
   22.2938   -3.3911  -14.0853 O   0  0  0  0  0  0  0  0  0  0  0  0
  2  1  1  6
  3  2  1  0
  4  3  1  0
  5  4  2  0
  6  5  1  0
  7  6  1  0
  7  8  2  0
  8  4  1  0
  9 18  1  0
  9  2  1  0
 10  9  2  0
 12 11  1  0
 13 12  2  0
 14 13  1  0
 15 21  1  0
 15 14  2  0
 17 16  1  1
 16 15  1  0
 17 18  1  0
 19 25  1  0
 19 17  1  0
 20 19  2  0
 21 22  2  0
 22 12  1  0
 24 23  1  6
 24 26  1  0
 24 25  1  0
 26 28  1  0
 27 26  2  0
M  END
$$$$
