HYA.pdb
     RDKit          3D

 28 29  0  0  1  0  0  0  0  0999 V2000
   25.3126  -24.7121  -15.9870 N   0  0  0  0  0  0  0  0  0  0  0  0
   25.9369  -24.0755  -17.1111 C   0  0  1  0  0  0  0  0  0  0  0  0
   25.1514  -22.8424  -17.5072 C   0  0  0  0  0  0  0  0  0  0  0  0
   23.7598  -23.2307  -17.8943 C   0  0  0  0  0  0  0  0  0  0  0  0
   22.6310  -22.9965  -17.1397 C   0  0  0  0  0  0  0  0  0  0  0  0
   21.5675  -23.4818  -17.8025 N   0  0  0  0  0  0  0  0  0  0  0  0
   22.0208  -24.0020  -18.9351 C   0  0  0  0  0  0  0  0  0  0  0  0
   23.3516  -23.8569  -19.0050 N   0  0  0  0  0  0  0  0  0  0  0  0
   27.3501  -23.7486  -16.8085 C   0  0  0  0  0  0  0  0  0  0  0  0
   27.6404  -23.1804  -15.7088 O   0  0  0  0  0  0  0  0  0  0  0  0
   29.3933  -30.2721  -17.0055 O   0  0  0  0  0  0  0  0  0  0  0  0
   29.5218  -28.9103  -16.7933 C   0  0  0  0  0  0  0  0  0  0  0  0
   28.5637  -28.1417  -16.1695 C   0  0  0  0  0  0  0  0  0  0  0  0
   28.7543  -26.7884  -15.9894 C   0  0  0  0  0  0  0  0  0  0  0  0
   29.9092  -26.1741  -16.4300 C   0  0  0  0  0  0  0  0  0  0  0  0
   30.0912  -24.7140  -16.2240 C   0  0  0  0  0  0  0  0  0  0  0  0
   29.7840  -23.9108  -17.4360 C   0  0  2  0  0  0  0  0  0  0  0  0
   28.3769  -24.0705  -17.7468 N   0  0  0  0  0  0  0  0  0  0  0  0
   30.6062  -24.1707  -18.6045 C   0  0  0  0  0  0  0  0  0  0  0  0
   30.2060  -25.0056  -19.4534 O   0  0  0  0  0  0  0  0  0  0  0  0
   30.8603  -26.9295  -17.0477 C   0  0  0  0  0  0  0  0  0  0  0  0
   30.6678  -28.2836  -17.2271 C   0  0  0  0  0  0  0  0  0  0  0  0
   33.3250  -22.2171  -20.2772 C   0  0  0  0  0  0  0  0  0  0  0  0
   32.5628  -23.5043  -20.0545 C   0  0  2  0  0  0  0  0  0  0  0  0
   31.8380  -23.5244  -18.8280 N   0  0  0  0  0  0  0  0  0  0  0  0
   33.5522  -24.6069  -20.0603 C   0  0  0  0  0  0  0  0  0  0  0  0
   34.0322  -25.0251  -18.9793 O   0  0  0  0  0  0  0  0  0  0  0  0
   33.9805  -25.2103  -21.2327 O   0  0  0  0  0  0  0  0  0  0  0  0
  2  1  1  1
  3  2  1  0
  4  3  1  0
  5  4  2  0
  6  5  1  0
  7  6  1  0
  7  8  2  0
  8  4  1  0
  9 18  1  0
  9  2  1  0
 10  9  2  0
 12 11  1  0
 13 12  2  0
 14 13  1  0
 15 21  1  0
 15 14  2  0
 17 16  1  1
 16 15  1  0
 17 18  1  0
 19 25  1  0
 19 17  1  0
 20 19  2  0
 21 22  2  0
 22 12  1  0
 24 23  1  1
 24 26  1  0
 24 25  1  0
 26 28  1  0
 27 26  2  0
M  END
$$$$
