HYA.pdb
     RDKit          3D

 28 29  0  0  1  0  0  0  0  0999 V2000
   28.8545  -22.7285  -17.6044 N   0  0  0  0  0  0  0  0  0  0  0  0
   28.1163  -21.5410  -17.2824 C   0  0  1  0  0  0  0  0  0  0  0  0
   27.3115  -21.0924  -18.4847 C   0  0  0  0  0  0  0  0  0  0  0  0
   28.2318  -20.5935  -19.5531 C   0  0  0  0  0  0  0  0  0  0  0  0
   28.2419  -21.0301  -20.8599 C   0  0  0  0  0  0  0  0  0  0  0  0
   29.1980  -20.3600  -21.5252 N   0  0  0  0  0  0  0  0  0  0  0  0
   29.7655  -19.5317  -20.6587 C   0  0  0  0  0  0  0  0  0  0  0  0
   29.1887  -19.6623  -19.4557 N   0  0  0  0  0  0  0  0  0  0  0  0
   27.2520  -21.7671  -16.1004 C   0  0  0  0  0  0  0  0  0  0  0  0
   26.6215  -22.8653  -15.9858 O   0  0  0  0  0  0  0  0  0  0  0  0
   24.1609  -20.5314   -7.9058 O   0  0  0  0  0  0  0  0  0  0  0  0
   24.8870  -20.4833   -9.0833 C   0  0  0  0  0  0  0  0  0  0  0  0
   26.0221  -21.2300   -9.3106 C   0  0  0  0  0  0  0  0  0  0  0  0
   26.6994  -21.1350  -10.5075 C   0  0  0  0  0  0  0  0  0  0  0  0
   26.2550  -20.2898  -11.5041 C   0  0  0  0  0  0  0  0  0  0  0  0
   27.0024  -20.2051  -12.7853 C   0  0  0  0  0  0  0  0  0  0  0  0
   26.3548  -20.9597  -13.8897 C   0  0  2  0  0  0  0  0  0  0  0  0
   27.1295  -20.7575  -15.0985 N   0  0  0  0  0  0  0  0  0  0  0  0
   24.9488  -20.6795  -14.1215 C   0  0  0  0  0  0  0  0  0  0  0  0
   24.6274  -19.5813  -14.6398 O   0  0  0  0  0  0  0  0  0  0  0  0
   25.1326  -19.5488  -11.2847 C   0  0  0  0  0  0  0  0  0  0  0  0
   24.4562  -19.6452  -10.0864 C   0  0  0  0  0  0  0  0  0  0  0  0
   21.7763  -22.7345  -14.0856 C   0  0  0  0  0  0  0  0  0  0  0  0
   22.5382  -21.4281  -14.0681 C   0  0  2  0  0  0  0  0  0  0  0  0
   23.9260  -21.5895  -13.7889 N   0  0  0  0  0  0  0  0  0  0  0  0
   21.9219  -20.5745  -13.0258 C   0  0  0  0  0  0  0  0  0  0  0  0
   21.0497  -19.7298  -13.3412 O   0  0  0  0  0  0  0  0  0  0  0  0
   22.2738  -20.6699  -11.6882 O   0  0  0  0  0  0  0  0  0  0  0  0
  2  1  1  6
  3  2  1  0
  4  3  1  0
  5  4  2  0
  6  5  1  0
  7  6  1  0
  7  8  2  0
  8  4  1  0
  9 18  1  0
  9  2  1  0
 10  9  2  0
 12 11  1  0
 13 12  2  0
 14 13  1  0
 15 21  1  0
 15 14  2  0
 17 16  1  1
 16 15  1  0
 17 18  1  0
 19 25  1  0
 19 17  1  0
 20 19  2  0
 21 22  2  0
 22 12  1  0
 24 23  1  1
 24 26  1  0
 24 25  1  0
 26 28  1  0
 27 26  2  0
M  END
$$$$
