HYA.pdb
     RDKit          3D

 28 29  0  0  1  0  0  0  0  0999 V2000
   27.8725  -19.2428  -19.5778 N   0  0  0  0  0  0  0  0  0  0  0  0
   27.1771  -18.4608  -18.5960 C   0  0  1  0  0  0  0  0  0  0  0  0
   25.9629  -17.8073  -19.2229 C   0  0  0  0  0  0  0  0  0  0  0  0
   26.3851  -16.6167  -20.0240 C   0  0  0  0  0  0  0  0  0  0  0  0
   27.3286  -15.6913  -19.6342 C   0  0  0  0  0  0  0  0  0  0  0  0
   27.4448  -14.7677  -20.6033 N   0  0  0  0  0  0  0  0  0  0  0  0
   26.5993  -15.1080  -21.5668 C   0  0  0  0  0  0  0  0  0  0  0  0
   25.9480  -16.2299  -21.2289 N   0  0  0  0  0  0  0  0  0  0  0  0
   26.8065  -19.2957  -17.4294 C   0  0  0  0  0  0  0  0  0  0  0  0
   26.3083  -20.4502  -17.6178 O   0  0  0  0  0  0  0  0  0  0  0  0
   25.5707  -21.3767   -8.9008 O   0  0  0  0  0  0  0  0  0  0  0  0
   25.9909  -20.7905  -10.0821 C   0  0  0  0  0  0  0  0  0  0  0  0
   25.7019  -19.4901  -10.4334 C   0  0  0  0  0  0  0  0  0  0  0  0
   26.1517  -18.9667  -11.6267 C   0  0  0  0  0  0  0  0  0  0  0  0
   26.9012  -19.7339  -12.4954 C   0  0  0  0  0  0  0  0  0  0  0  0
   27.3744  -19.1468  -13.7756 C   0  0  0  0  0  0  0  0  0  0  0  0
   26.5221  -19.5138  -14.9363 C   0  0  2  0  0  0  0  0  0  0  0  0
   27.0083  -18.8051  -16.1039 N   0  0  0  0  0  0  0  0  0  0  0  0
   25.0923  -19.3207  -14.7703 C   0  0  0  0  0  0  0  0  0  0  0  0
   24.6374  -18.1500  -14.7498 O   0  0  0  0  0  0  0  0  0  0  0  0
   27.1901  -21.0208  -12.1530 C   0  0  0  0  0  0  0  0  0  0  0  0
   26.7392  -21.5430  -10.9585 C   0  0  0  0  0  0  0  0  0  0  0  0
   22.0024  -21.2893  -15.2882 C   0  0  0  0  0  0  0  0  0  0  0  0
   22.7790  -20.2854  -14.4657 C   0  0  2  0  0  0  0  0  0  0  0  0
   24.1900  -20.3938  -14.6305 N   0  0  0  0  0  0  0  0  0  0  0  0
   22.4297  -20.5178  -13.0449 C   0  0  0  0  0  0  0  0  0  0  0  0
   21.5594  -21.3698  -12.7438 O   0  0  0  0  0  0  0  0  0  0  0  0
   23.0348  -19.8206  -12.0106 O   0  0  0  0  0  0  0  0  0  0  0  0
  2  1  1  6
  3  2  1  0
  4  3  1  0
  5  4  2  0
  6  5  1  0
  7  6  1  0
  7  8  2  0
  8  4  1  0
  9 18  1  0
  9  2  1  0
 10  9  2  0
 12 11  1  0
 13 12  2  0
 14 13  1  0
 15 21  1  0
 15 14  2  0
 17 16  1  1
 16 15  1  0
 17 18  1  0
 19 25  1  0
 19 17  1  0
 20 19  2  0
 21 22  2  0
 22 12  1  0
 24 23  1  6
 24 26  1  0
 24 25  1  0
 26 28  1  0
 27 26  2  0
M  END
$$$$
