EDC.pdb
     RDKit          3D

 24 23  0  0  1  0  0  0  0  0999 V2000
    8.9888  -12.6319   19.3248 N   0  0  0  0  0  0  0  0  0  0  0  0
    7.7060  -13.3771   19.4122 C   0  0  1  0  0  0  0  0  0  0  0  0
    7.5182  -14.0918   18.1148 C   0  0  0  0  0  0  0  0  0  0  0  0
    8.6061  -14.9701   17.6455 C   0  0  0  0  0  0  0  0  0  0  0  0
    8.3124  -15.7544   16.4296 C   0  0  0  0  0  0  0  0  0  0  0  0
    9.2352  -16.3646   15.8398 O   0  0  0  0  0  0  0  0  0  0  0  0
    7.8313  -14.2482   20.5879 C   0  0  0  0  0  0  0  0  0  0  0  0
    6.8316  -14.8199   21.0643 O   0  0  0  0  0  0  0  0  0  0  0  0
    7.0353  -15.8309   15.9255 O   0  0  0  0  0  0  0  0  0  0  0  0
    9.0816  -14.4592   21.2013 N   0  0  0  0  0  0  0  0  0  0  0  0
    9.2114  -15.3988   22.3801 C   0  0  1  0  0  0  0  0  0  0  0  0
   10.6461  -15.8616   22.2401 C   0  0  0  0  0  0  0  0  0  0  0  0
   11.2082  -16.6853   23.2723 C   0  0  0  0  0  0  0  0  0  0  0  0
   10.5936  -17.1201   24.2496 O   0  0  0  0  0  0  0  0  0  0  0  0
    8.9827  -14.5694   23.5814 C   0  0  0  0  0  0  0  0  0  0  0  0
    9.5468  -13.4216   23.6346 O   0  0  0  0  0  0  0  0  0  0  0  0
   12.5751  -17.0596   23.2146 O   0  0  0  0  0  0  0  0  0  0  0  0
    8.1936  -14.9004   24.7002 N   0  0  0  0  0  0  0  0  0  0  0  0
    8.0135  -13.9601   25.8016 C   0  0  1  0  0  0  0  0  0  0  0  0
    6.7156  -13.1935   25.6962 C   0  0  0  0  0  0  0  0  0  0  0  0
    6.4189  -12.1321   27.1213 S   0  0  0  0  0  0  0  0  0  0  0  0
    7.9936  -14.6993   27.0987 C   0  0  0  0  0  0  0  0  0  0  0  0
    7.9723  -16.0820   27.1407 O   0  0  0  0  0  0  0  0  0  0  0  0
    7.9959  -14.0774   28.1829 O   0  0  0  0  0  0  0  0  0  0  0  0
  2  1  1  6
  2  3  1  0
  3  4  1  0
  4  5  1  0
  5  9  1  0
  5  6  2  0
  7  2  1  0
  8  7  2  0
 10  7  1  0
 11 10  1  0
 12 13  1  0
 11 12  1  1
 13 17  1  0
 14 13  2  0
 15 11  1  0
 15 18  1  0
 16 15  2  0
 19 18  1  0
 19 20  1  6
 19 22  1  0
 20 21  1  0
 22 23  1  0
 24 22  2  0
M  END
$$$$
