EDC.pdb
     RDKit          3D

 24 23  0  0  1  0  0  0  0  0999 V2000
    9.4951  -15.4512   19.0017 N   0  0  0  0  0  0  0  0  0  0  0  0
    8.5794  -16.0925   19.9809 C   0  0  1  0  0  0  0  0  0  0  0  0
    8.4783  -17.5365   19.6147 C   0  0  0  0  0  0  0  0  0  0  0  0
    9.7058  -18.3521   19.6727 C   0  0  0  0  0  0  0  0  0  0  0  0
    9.5357  -19.7832   19.3523 C   0  0  0  0  0  0  0  0  0  0  0  0
    9.1645  -20.1285   18.2057 O   0  0  0  0  0  0  0  0  0  0  0  0
    9.1615  -15.8270   21.3028 C   0  0  0  0  0  0  0  0  0  0  0  0
   10.3655  -15.5267   21.4181 O   0  0  0  0  0  0  0  0  0  0  0  0
    9.7787  -20.7552   20.2941 O   0  0  0  0  0  0  0  0  0  0  0  0
    8.3737  -15.9032   22.4681 N   0  0  0  0  0  0  0  0  0  0  0  0
    8.9503  -15.5183   23.8129 C   0  0  1  0  0  0  0  0  0  0  0  0
    7.7143  -15.0403   24.5451 C   0  0  0  0  0  0  0  0  0  0  0  0
    7.2961  -13.6781   24.3743 C   0  0  0  0  0  0  0  0  0  0  0  0
    7.8936  -12.8282   23.7090 O   0  0  0  0  0  0  0  0  0  0  0  0
    9.5161  -16.7611   24.3775 C   0  0  0  0  0  0  0  0  0  0  0  0
    8.9151  -17.8629   24.1255 O   0  0  0  0  0  0  0  0  0  0  0  0
    6.1083  -13.2179   24.9983 O   0  0  0  0  0  0  0  0  0  0  0  0
   10.6702  -16.8786   25.1763 N   0  0  0  0  0  0  0  0  0  0  0  0
   11.1574  -18.1836   25.6115 C   0  0  1  0  0  0  0  0  0  0  0  0
   12.5367  -18.4898   25.0759 C   0  0  0  0  0  0  0  0  0  0  0  0
   13.5798  -17.0250   24.9671 S   0  0  0  0  0  0  0  0  0  0  0  0
   11.2363  -18.2219   27.1020 C   0  0  0  0  0  0  0  0  0  0  0  0
   11.5922  -19.3765   27.7760 O   0  0  0  0  0  0  0  0  0  0  0  0
   10.9800  -17.2016   27.7768 O   0  0  0  0  0  0  0  0  0  0  0  0
  2  1  1  6
  2  3  1  0
  3  4  1  0
  4  5  1  0
  5  9  1  0
  5  6  2  0
  7  2  1  0
  8  7  2  0
 10  7  1  0
 11 10  1  0
 12 13  1  0
 11 12  1  1
 13 17  1  0
 14 13  2  0
 15 11  1  0
 15 18  1  0
 16 15  2  0
 19 18  1  0
 19 20  1  6
 19 22  1  0
 20 21  1  0
 22 23  1  0
 24 22  2  0
M  END
$$$$
