EDC.pdb
     RDKit          3D

 24 23  0  0  1  0  0  0  0  0999 V2000
    9.0951  -12.6569   18.2442 N   0  0  0  0  0  0  0  0  0  0  0  0
    8.0417  -13.7043   18.2848 C   0  0  1  0  0  0  0  0  0  0  0  0
    7.7191  -14.0647   16.8722 C   0  0  0  0  0  0  0  0  0  0  0  0
    8.8033  -14.6068   16.0320 C   0  0  0  0  0  0  0  0  0  0  0  0
    8.4170  -14.9830   14.6576 C   0  0  0  0  0  0  0  0  0  0  0  0
    7.2215  -14.8836   14.2936 O   0  0  0  0  0  0  0  0  0  0  0  0
    8.5985  -14.7974   19.0921 C   0  0  0  0  0  0  0  0  0  0  0  0
    7.9589  -15.8540   19.2584 O   0  0  0  0  0  0  0  0  0  0  0  0
    9.3502  -15.4442   13.7591 O   0  0  0  0  0  0  0  0  0  0  0  0
    9.8665  -14.6783   19.6939 N   0  0  0  0  0  0  0  0  0  0  0  0
   10.4812  -15.8478   20.4311 C   0  0  1  0  0  0  0  0  0  0  0  0
   11.9067  -15.8091   19.9228 C   0  0  0  0  0  0  0  0  0  0  0  0
   12.2646  -16.6429   18.8109 C   0  0  0  0  0  0  0  0  0  0  0  0
   12.8230  -16.2554   17.7813 O   0  0  0  0  0  0  0  0  0  0  0  0
   10.3672  -15.5213   21.8678 C   0  0  0  0  0  0  0  0  0  0  0  0
   11.1896  -14.6711   22.3571 O   0  0  0  0  0  0  0  0  0  0  0  0
   11.9764  -18.0314   18.8447 O   0  0  0  0  0  0  0  0  0  0  0  0
    9.4338  -16.0455   22.7830 N   0  0  0  0  0  0  0  0  0  0  0  0
    9.4749  -15.6809   24.1955 C   0  0  1  0  0  0  0  0  0  0  0  0
    8.1514  -15.1445   24.6892 C   0  0  0  0  0  0  0  0  0  0  0  0
    7.6115  -13.6856   23.7805 S   0  0  0  0  0  0  0  0  0  0  0  0
    9.8069  -16.8821   25.0178 C   0  0  0  0  0  0  0  0  0  0  0  0
   10.1005  -16.7748   26.3655 O   0  0  0  0  0  0  0  0  0  0  0  0
    9.8262  -18.0193   24.4998 O   0  0  0  0  0  0  0  0  0  0  0  0
  2  1  1  6
  2  3  1  0
  3  4  1  0
  4  5  1  0
  5  9  1  0
  5  6  2  0
  7  2  1  0
  8  7  2  0
 10  7  1  0
 11 10  1  0
 12 13  1  0
 11 12  1  6
 13 17  1  0
 14 13  2  0
 15 11  1  0
 15 18  1  0
 16 15  2  0
 19 18  1  0
 19 20  1  1
 19 22  1  0
 20 21  1  0
 22 23  1  0
 24 22  2  0
M  END
$$$$
