EDC.pdb
     RDKit          3D

 24 23  0  0  1  0  0  0  0  0999 V2000
   10.6862  -20.4871   17.9410 N   0  0  0  0  0  0  0  0  0  0  0  0
   10.7392  -19.0045   18.0277 C   0  0  1  0  0  0  0  0  0  0  0  0
    9.3368  -18.5030   17.9224 C   0  0  0  0  0  0  0  0  0  0  0  0
    8.3234  -19.0899   18.8189 C   0  0  0  0  0  0  0  0  0  0  0  0
    6.9707  -18.5066   18.7202 C   0  0  0  0  0  0  0  0  0  0  0  0
    6.7148  -17.6662   17.8258 O   0  0  0  0  0  0  0  0  0  0  0  0
   11.4116  -18.7041   19.2983 C   0  0  0  0  0  0  0  0  0  0  0  0
   11.4373  -19.5450   20.2177 O   0  0  0  0  0  0  0  0  0  0  0  0
    5.9755  -18.8694   19.5971 O   0  0  0  0  0  0  0  0  0  0  0  0
   12.0437  -17.4625   19.5058 N   0  0  0  0  0  0  0  0  0  0  0  0
   12.8027  -17.1901   20.7860 C   0  0  1  0  0  0  0  0  0  0  0  0
   13.9297  -16.3110   20.2871 C   0  0  0  0  0  0  0  0  0  0  0  0
   15.0542  -16.0775   21.1478 C   0  0  0  0  0  0  0  0  0  0  0  0
   16.2214  -15.9405   20.7726 O   0  0  0  0  0  0  0  0  0  0  0  0
   11.8567  -16.4771   21.6694 C   0  0  0  0  0  0  0  0  0  0  0  0
   11.1743  -15.5172   21.1678 O   0  0  0  0  0  0  0  0  0  0  0  0
   14.8660  -15.9882   22.5509 O   0  0  0  0  0  0  0  0  0  0  0  0
   11.6087  -16.7395   23.0308 N   0  0  0  0  0  0  0  0  0  0  0  0
   10.5654  -16.0252   23.7594 C   0  0  1  0  0  0  0  0  0  0  0  0
    9.1869  -16.2983   23.2041 C   0  0  0  0  0  0  0  0  0  0  0  0
    7.8818  -15.5241   24.1751 S   0  0  0  0  0  0  0  0  0  0  0  0
   10.5654  -16.4525   25.1901 C   0  0  0  0  0  0  0  0  0  0  0  0
   11.3635  -17.4924   25.6322 O   0  0  0  0  0  0  0  0  0  0  0  0
    9.8372  -15.8733   26.0246 O   0  0  0  0  0  0  0  0  0  0  0  0
  2  1  1  1
  2  3  1  0
  3  4  1  0
  4  5  1  0
  5  9  1  0
  5  6  2  0
  7  2  1  0
  8  7  2  0
 10  7  1  0
 11 10  1  0
 12 13  1  0
 11 12  1  6
 13 17  1  0
 14 13  2  0
 15 11  1  0
 15 18  1  0
 16 15  2  0
 19 18  1  0
 19 20  1  6
 19 22  1  0
 20 21  1  0
 22 23  1  0
 24 22  2  0
M  END
$$$$
