EDC.pdb
     RDKit          3D

 24 23  0  0  1  0  0  0  0  0999 V2000
    8.5891  -18.2121   18.7608 N   0  0  0  0  0  0  0  0  0  0  0  0
    9.1883  -17.0428   19.4552 C   0  0  1  0  0  0  0  0  0  0  0  0
    8.7715  -15.8201   18.7063 C   0  0  0  0  0  0  0  0  0  0  0  0
    8.4396  -14.6122   19.4846 C   0  0  0  0  0  0  0  0  0  0  0  0
    8.1568  -13.4001   18.6905 C   0  0  0  0  0  0  0  0  0  0  0  0
    7.3544  -13.4545   17.7288 O   0  0  0  0  0  0  0  0  0  0  0  0
    8.7087  -17.1147   20.8414 C   0  0  0  0  0  0  0  0  0  0  0  0
    7.5076  -17.3384   21.0873 O   0  0  0  0  0  0  0  0  0  0  0  0
    8.7606  -12.2006   18.9865 O   0  0  0  0  0  0  0  0  0  0  0  0
    9.5935  -16.9354   21.9227 N   0  0  0  0  0  0  0  0  0  0  0  0
    9.1521  -17.2419   23.3370 C   0  0  1  0  0  0  0  0  0  0  0  0
   10.2628  -18.1565   23.8079 C   0  0  0  0  0  0  0  0  0  0  0  0
   10.2876  -18.5575   25.1858 C   0  0  0  0  0  0  0  0  0  0  0  0
    9.3003  -18.8819   25.8505 O   0  0  0  0  0  0  0  0  0  0  0  0
    9.1308  -15.9430   24.0411 C   0  0  0  0  0  0  0  0  0  0  0  0
   10.1170  -15.1468   23.8619 O   0  0  0  0  0  0  0  0  0  0  0  0
   11.5188  -18.6019   25.8889 O   0  0  0  0  0  0  0  0  0  0  0  0
    8.1255  -15.4648   24.9040 N   0  0  0  0  0  0  0  0  0  0  0  0
    8.3180  -14.2479   25.6862 C   0  0  1  0  0  0  0  0  0  0  0  0
    7.0114  -13.5657   26.0183 C   0  0  0  0  0  0  0  0  0  0  0  0
    6.2446  -12.7974   24.5804 S   0  0  0  0  0  0  0  0  0  0  0  0
    8.9922  -14.5783   26.9768 C   0  0  0  0  0  0  0  0  0  0  0  0
    9.3904  -13.5878   27.8568 O   0  0  0  0  0  0  0  0  0  0  0  0
    9.2122  -15.7679   27.2907 O   0  0  0  0  0  0  0  0  0  0  0  0
  2  1  1  6
  2  3  1  0
  3  4  1  0
  4  5  1  0
  5  9  1  0
  5  6  2  0
  7  2  1  0
  8  7  2  0
 10  7  1  0
 11 10  1  0
 12 13  1  0
 11 12  1  1
 13 17  1  0
 14 13  2  0
 15 11  1  0
 15 18  1  0
 16 15  2  0
 19 18  1  0
 19 20  1  1
 19 22  1  0
 20 21  1  0
 22 23  1  0
 24 22  2  0
M  END
$$$$
