EDC.pdb
     RDKit          3D

 24 23  0  0  1  0  0  0  0  0999 V2000
   10.3813  -15.2846   18.7651 N   0  0  0  0  0  0  0  0  0  0  0  0
   11.0729  -16.3409   19.5489 C   0  0  1  0  0  0  0  0  0  0  0  0
   12.5076  -15.9429   19.6615 C   0  0  0  0  0  0  0  0  0  0  0  0
   12.8115  -14.5716   20.1113 C   0  0  0  0  0  0  0  0  0  0  0  0
   14.2441  -14.2170   20.1519 C   0  0  0  0  0  0  0  0  0  0  0  0
   14.6198  -13.1996   20.7807 O   0  0  0  0  0  0  0  0  0  0  0  0
   10.3509  -16.4264   20.8249 C   0  0  0  0  0  0  0  0  0  0  0  0
    9.5453  -15.5366   21.1598 O   0  0  0  0  0  0  0  0  0  0  0  0
   15.1844  -14.9869   19.5086 O   0  0  0  0  0  0  0  0  0  0  0  0
   10.5500  -17.5148   21.6966 N   0  0  0  0  0  0  0  0  0  0  0  0
    9.6678  -17.6985   22.9120 C   0  0  1  0  0  0  0  0  0  0  0  0
    9.9544  -19.1394   23.2777 C   0  0  0  0  0  0  0  0  0  0  0  0
    9.1165  -19.7836   24.2485 C   0  0  0  0  0  0  0  0  0  0  0  0
    7.9207  -20.0453   24.0949 O   0  0  0  0  0  0  0  0  0  0  0  0
   10.1626  -16.7343   23.9165 C   0  0  0  0  0  0  0  0  0  0  0  0
   11.4242  -16.5260   23.9780 O   0  0  0  0  0  0  0  0  0  0  0  0
    9.6541  -20.1720   25.5024 O   0  0  0  0  0  0  0  0  0  0  0  0
    9.3893  -15.9962   24.8335 N   0  0  0  0  0  0  0  0  0  0  0  0
   10.0168  -15.2283   25.9041 C   0  0  1  0  0  0  0  0  0  0  0  0
    9.1012  -14.1622   26.4592 C   0  0  0  0  0  0  0  0  0  0  0  0
    9.7833  -13.3519   27.9166 S   0  0  0  0  0  0  0  0  0  0  0  0
   10.3817  -16.1374   27.0309 C   0  0  0  0  0  0  0  0  0  0  0  0
   11.4000  -15.8209   27.9123 O   0  0  0  0  0  0  0  0  0  0  0  0
    9.7682  -17.2129   27.2019 O   0  0  0  0  0  0  0  0  0  0  0  0
  2  1  1  6
  2  3  1  0
  3  4  1  0
  4  5  1  0
  5  9  1  0
  5  6  2  0
  7  2  1  0
  8  7  2  0
 10  7  1  0
 11 10  1  0
 12 13  1  0
 11 12  1  1
 13 17  1  0
 14 13  2  0
 15 11  1  0
 15 18  1  0
 16 15  2  0
 19 18  1  0
 19 20  1  1
 19 22  1  0
 20 21  1  0
 22 23  1  0
 24 22  2  0
M  END
$$$$
