EDC.pdb
     RDKit          3D

 24 23  0  0  1  0  0  0  0  0999 V2000
   11.2058  -17.9491   17.6594 N   0  0  0  0  0  0  0  0  0  0  0  0
   10.2854  -16.9519   18.2651 C   0  0  1  0  0  0  0  0  0  0  0  0
    9.0551  -16.9123   17.4199 C   0  0  0  0  0  0  0  0  0  0  0  0
    9.2199  -16.7154   15.9676 C   0  0  0  0  0  0  0  0  0  0  0  0
    7.9683  -16.6496   15.1873 C   0  0  0  0  0  0  0  0  0  0  0  0
    7.4627  -17.6994   14.7248 O   0  0  0  0  0  0  0  0  0  0  0  0
   10.0733  -17.3953   19.6489 C   0  0  0  0  0  0  0  0  0  0  0  0
    9.0554  -18.0438   19.9593 O   0  0  0  0  0  0  0  0  0  0  0  0
    7.3389  -15.4493   14.9550 O   0  0  0  0  0  0  0  0  0  0  0  0
   11.0144  -17.1006   20.6547 N   0  0  0  0  0  0  0  0  0  0  0  0
   10.7782  -17.5420   22.0825 C   0  0  1  0  0  0  0  0  0  0  0  0
   12.1140  -18.1637   22.4308 C   0  0  0  0  0  0  0  0  0  0  0  0
   12.5002  -19.3798   21.7737 C   0  0  0  0  0  0  0  0  0  0  0  0
   13.6312  -19.6317   21.3502 O   0  0  0  0  0  0  0  0  0  0  0  0
   10.4959  -16.3068   22.8429 C   0  0  0  0  0  0  0  0  0  0  0  0
   11.4412  -15.4538   22.9745 O   0  0  0  0  0  0  0  0  0  0  0  0
   11.5452  -20.4083   21.5680 O   0  0  0  0  0  0  0  0  0  0  0  0
    9.2773  -15.9476   23.4509 N   0  0  0  0  0  0  0  0  0  0  0  0
    9.2453  -15.0731   24.6188 C   0  0  1  0  0  0  0  0  0  0  0  0
    7.8854  -14.4504   24.8332 C   0  0  0  0  0  0  0  0  0  0  0  0
    7.3585  -13.4376   23.4396 S   0  0  0  0  0  0  0  0  0  0  0  0
    9.5784  -15.8563   25.8456 C   0  0  0  0  0  0  0  0  0  0  0  0
    9.8321  -15.2314   27.0535 O   0  0  0  0  0  0  0  0  0  0  0  0
    9.6352  -17.1042   25.8049 O   0  0  0  0  0  0  0  0  0  0  0  0
  2  1  1  6
  2  3  1  0
  3  4  1  0
  4  5  1  0
  5  9  1  0
  5  6  2  0
  7  2  1  0
  8  7  2  0
 10  7  1  0
 11 10  1  0
 12 13  1  0
 11 12  1  1
 13 17  1  0
 14 13  2  0
 15 11  1  0
 15 18  1  0
 16 15  2  0
 19 18  1  0
 19 20  1  1
 19 22  1  0
 20 21  1  0
 22 23  1  0
 24 22  2  0
M  END
$$$$
