EDC.pdb
     RDKit          3D

 24 23  0  0  1  0  0  0  0  0999 V2000
    6.6680  -18.7886   20.5344 N   0  0  0  0  0  0  0  0  0  0  0  0
    7.9180  -18.6874   21.3317 C   0  0  1  0  0  0  0  0  0  0  0  0
    8.8609  -17.8152   20.5703 C   0  0  0  0  0  0  0  0  0  0  0  0
    8.7050  -16.3539   20.6952 C   0  0  0  0  0  0  0  0  0  0  0  0
    9.6778  -15.5421   19.9372 C   0  0  0  0  0  0  0  0  0  0  0  0
    9.5159  -15.3569   18.7079 O   0  0  0  0  0  0  0  0  0  0  0  0
    7.5122  -18.1658   22.6432 C   0  0  0  0  0  0  0  0  0  0  0  0
    6.3541  -17.7445   22.8286 O   0  0  0  0  0  0  0  0  0  0  0  0
   10.7682  -14.9788   20.5573 O   0  0  0  0  0  0  0  0  0  0  0  0
    8.4197  -18.1318   23.7200 N   0  0  0  0  0  0  0  0  0  0  0  0
    7.9522  -17.7537   25.1084 C   0  0  1  0  0  0  0  0  0  0  0  0
    9.0079  -18.4115   25.9714 C   0  0  0  0  0  0  0  0  0  0  0  0
    9.0135  -18.1394   27.3806 C   0  0  0  0  0  0  0  0  0  0  0  0
   10.0230  -17.9618   28.0672 O   0  0  0  0  0  0  0  0  0  0  0  0
    7.9972  -16.2776   25.1588 C   0  0  0  0  0  0  0  0  0  0  0  0
    9.0241  -15.6912   24.6688 O   0  0  0  0  0  0  0  0  0  0  0  0
    7.7887  -18.0576   28.0914 O   0  0  0  0  0  0  0  0  0  0  0  0
    7.0161  -15.4191   25.6921 N   0  0  0  0  0  0  0  0  0  0  0  0
    7.2482  -13.9823   25.7998 C   0  0  1  0  0  0  0  0  0  0  0  0
    5.9789  -13.2155   26.0897 C   0  0  0  0  0  0  0  0  0  0  0  0
    6.2748  -11.4579   26.3527 S   0  0  0  0  0  0  0  0  0  0  0  0
    8.2030  -13.7071   26.9143 C   0  0  0  0  0  0  0  0  0  0  0  0
    8.8342  -12.4822   27.0372 O   0  0  0  0  0  0  0  0  0  0  0  0
    8.4531  -14.5864   27.7665 O   0  0  0  0  0  0  0  0  0  0  0  0
  2  1  1  6
  2  3  1  0
  3  4  1  0
  4  5  1  0
  5  9  1  0
  5  6  2  0
  7  2  1  0
  8  7  2  0
 10  7  1  0
 11 10  1  0
 12 13  1  0
 11 12  1  1
 13 17  1  0
 14 13  2  0
 15 11  1  0
 15 18  1  0
 16 15  2  0
 19 18  1  0
 19 20  1  1
 19 22  1  0
 20 21  1  0
 22 23  1  0
 24 22  2  0
M  END
$$$$
