EDC.pdb
     RDKit          3D

 24 23  0  0  1  0  0  0  0  0999 V2000
   10.8532  -15.0641   19.1178 N   0  0  0  0  0  0  0  0  0  0  0  0
   11.5394  -16.0953   19.9389 C   0  0  1  0  0  0  0  0  0  0  0  0
   12.9847  -15.7254   19.9993 C   0  0  0  0  0  0  0  0  0  0  0  0
   13.3317  -14.3621   20.4422 C   0  0  0  0  0  0  0  0  0  0  0  0
   14.7733  -14.0434   20.4542 C   0  0  0  0  0  0  0  0  0  0  0  0
   15.3483  -13.7036   19.3933 O   0  0  0  0  0  0  0  0  0  0  0  0
   10.8456  -16.0995   21.2333 C   0  0  0  0  0  0  0  0  0  0  0  0
    9.9984  -15.2262   21.5028 O   0  0  0  0  0  0  0  0  0  0  0  0
   15.5057  -14.1117   21.6159 O   0  0  0  0  0  0  0  0  0  0  0  0
   11.1192  -17.0898   22.1970 N   0  0  0  0  0  0  0  0  0  0  0  0
   10.1613  -17.3343   23.3422 C   0  0  1  0  0  0  0  0  0  0  0  0
   10.3325  -18.8218   23.5661 C   0  0  0  0  0  0  0  0  0  0  0  0
    9.6157  -19.4435   24.6429 C   0  0  0  0  0  0  0  0  0  0  0  0
    8.8648  -18.8598   25.4287 O   0  0  0  0  0  0  0  0  0  0  0  0
   10.6621  -16.5158   24.4660 C   0  0  0  0  0  0  0  0  0  0  0  0
   11.9292  -16.4136   24.6161 O   0  0  0  0  0  0  0  0  0  0  0  0
    9.7441  -20.8381   24.8676 O   0  0  0  0  0  0  0  0  0  0  0  0
    9.8893  -15.8142   25.4117 N   0  0  0  0  0  0  0  0  0  0  0  0
   10.5152  -15.1218   26.5336 C   0  0  1  0  0  0  0  0  0  0  0  0
    9.6290  -14.0414   27.1086 C   0  0  0  0  0  0  0  0  0  0  0  0
   10.3524  -13.2474   28.5549 S   0  0  0  0  0  0  0  0  0  0  0  0
   10.8052  -16.0942   27.6290 C   0  0  0  0  0  0  0  0  0  0  0  0
   11.8341  -15.8810   28.5289 O   0  0  0  0  0  0  0  0  0  0  0  0
   10.1172  -17.1299   27.7558 O   0  0  0  0  0  0  0  0  0  0  0  0
  2  1  1  6
  2  3  1  0
  3  4  1  0
  4  5  1  0
  5  9  1  0
  5  6  2  0
  7  2  1  0
  8  7  2  0
 10  7  1  0
 11 10  1  0
 12 13  1  0
 11 12  1  1
 13 17  1  0
 14 13  2  0
 15 11  1  0
 15 18  1  0
 16 15  2  0
 19 18  1  0
 19 20  1  1
 19 22  1  0
 20 21  1  0
 22 23  1  0
 24 22  2  0
M  END
$$$$
