EDC.pdb
     RDKit          3D

 24 23  0  0  1  0  0  0  0  0999 V2000
   15.7849  -19.6474   13.8068 N   0  0  0  0  0  0  0  0  0  0  0  0
   15.6418  -18.6194   14.8703 C   0  0  1  0  0  0  0  0  0  0  0  0
   14.1908  -18.2812   14.9686 C   0  0  0  0  0  0  0  0  0  0  0  0
   13.2401  -19.0741   14.1670 C   0  0  0  0  0  0  0  0  0  0  0  0
   11.8133  -18.7523   14.3682 C   0  0  0  0  0  0  0  0  0  0  0  0
   11.3810  -18.5167   15.5211 O   0  0  0  0  0  0  0  0  0  0  0  0
   16.2232  -19.2151   16.0802 C   0  0  0  0  0  0  0  0  0  0  0  0
   16.0428  -20.4195   16.3450 O   0  0  0  0  0  0  0  0  0  0  0  0
   10.9400  -18.7045   13.3071 O   0  0  0  0  0  0  0  0  0  0  0  0
   16.9983  -18.4416   16.9662 N   0  0  0  0  0  0  0  0  0  0  0  0
   17.6131  -19.0681   18.1985 C   0  0  1  0  0  0  0  0  0  0  0  0
   18.8182  -18.1786   18.4195 C   0  0  0  0  0  0  0  0  0  0  0  0
   20.0322  -18.4753   17.7140 C   0  0  0  0  0  0  0  0  0  0  0  0
   20.9330  -17.6666   17.4761 O   0  0  0  0  0  0  0  0  0  0  0  0
   16.5954  -18.9432   19.2625 C   0  0  0  0  0  0  0  0  0  0  0  0
   16.0060  -17.8152   19.3999 O   0  0  0  0  0  0  0  0  0  0  0  0
   20.2673  -19.7873   17.2288 O   0  0  0  0  0  0  0  0  0  0  0  0
   16.1846  -19.9460   20.1621 N   0  0  0  0  0  0  0  0  0  0  0  0
   15.1241  -19.6999   21.1340 C   0  0  1  0  0  0  0  0  0  0  0  0
   13.9488  -20.6316   20.9500 C   0  0  0  0  0  0  0  0  0  0  0  0
   13.1036  -20.3806   19.3790 S   0  0  0  0  0  0  0  0  0  0  0  0
   15.6482  -19.9066   22.5167 C   0  0  0  0  0  0  0  0  0  0  0  0
   14.8809  -19.6139   23.6301 O   0  0  0  0  0  0  0  0  0  0  0  0
   16.8017  -20.3526   22.6974 O   0  0  0  0  0  0  0  0  0  0  0  0
  2  1  1  6
  2  3  1  0
  3  4  1  0
  4  5  1  0
  5  9  1  0
  5  6  2  0
  7  2  1  0
  8  7  2  0
 10  7  1  0
 11 10  1  0
 12 13  1  0
 11 12  1  1
 13 17  1  0
 14 13  2  0
 15 11  1  0
 15 18  1  0
 16 15  2  0
 19 18  1  0
 19 20  1  6
 19 22  1  0
 20 21  1  0
 22 23  1  0
 24 22  2  0
M  END
$$$$
