EDC.pdb
     RDKit          3D

 24 23  0  0  1  0  0  0  0  0999 V2000
    8.6741  -16.0995   18.6317 N   0  0  0  0  0  0  0  0  0  0  0  0
    9.4775  -16.1048   19.8819 C   0  0  1  0  0  0  0  0  0  0  0  0
   10.5877  -15.1229   19.7005 C   0  0  0  0  0  0  0  0  0  0  0  0
   11.9530  -15.5488   20.0604 C   0  0  0  0  0  0  0  0  0  0  0  0
   13.0067  -14.5305   19.8797 C   0  0  0  0  0  0  0  0  0  0  0  0
   12.9383  -13.7212   18.9246 O   0  0  0  0  0  0  0  0  0  0  0  0
    8.5353  -15.7835   20.9615 C   0  0  0  0  0  0  0  0  0  0  0  0
    7.4818  -15.1625   20.7214 O   0  0  0  0  0  0  0  0  0  0  0  0
   14.0719  -14.4498   20.7455 O   0  0  0  0  0  0  0  0  0  0  0  0
    8.7987  -16.1707   22.2900 N   0  0  0  0  0  0  0  0  0  0  0  0
    7.7283  -16.0518   23.3527 C   0  0  1  0  0  0  0  0  0  0  0  0
    7.5334  -17.5004   23.7475 C   0  0  0  0  0  0  0  0  0  0  0  0
    6.7441  -17.7978   24.9087 C   0  0  0  0  0  0  0  0  0  0  0  0
    5.7828  -17.1339   25.3050 O   0  0  0  0  0  0  0  0  0  0  0  0
    8.3206  -15.2306   24.4288 C   0  0  0  0  0  0  0  0  0  0  0  0
    9.5740  -15.3541   24.6575 O   0  0  0  0  0  0  0  0  0  0  0  0
    7.0496  -18.9338   25.7012 O   0  0  0  0  0  0  0  0  0  0  0  0
    7.6518  -14.3016   25.2496 N   0  0  0  0  0  0  0  0  0  0  0  0
    8.3522  -13.5976   26.3189 C   0  0  1  0  0  0  0  0  0  0  0  0
    7.4591  -12.6165   27.0421 C   0  0  0  0  0  0  0  0  0  0  0  0
    6.5165  -11.5747   25.9144 S   0  0  0  0  0  0  0  0  0  0  0  0
    8.8503  -14.5788   27.3281 C   0  0  0  0  0  0  0  0  0  0  0  0
    9.6579  -14.1846   28.3799 O   0  0  0  0  0  0  0  0  0  0  0  0
    8.5443  -15.7876   27.2417 O   0  0  0  0  0  0  0  0  0  0  0  0
  2  1  1  6
  2  3  1  0
  3  4  1  0
  4  5  1  0
  5  9  1  0
  5  6  2  0
  7  2  1  0
  8  7  2  0
 10  7  1  0
 11 10  1  0
 12 13  1  0
 11 12  1  1
 13 17  1  0
 14 13  2  0
 15 11  1  0
 15 18  1  0
 16 15  2  0
 19 18  1  0
 19 20  1  1
 19 22  1  0
 20 21  1  0
 22 23  1  0
 24 22  2  0
M  END
$$$$
