EDC.pdb
     RDKit          3D

 24 23  0  0  1  0  0  0  0  0999 V2000
   10.6183  -20.1843   25.4084 N   0  0  0  0  0  0  0  0  0  0  0  0
   12.0787  -20.3025   25.1602 C   0  0  1  0  0  0  0  0  0  0  0  0
   12.2654  -21.3223   24.0857 C   0  0  0  0  0  0  0  0  0  0  0  0
   11.2314  -21.4208   23.0386 C   0  0  0  0  0  0  0  0  0  0  0  0
   11.5157  -22.3769   21.9501 C   0  0  0  0  0  0  0  0  0  0  0  0
   10.6919  -22.5266   21.0171 O   0  0  0  0  0  0  0  0  0  0  0  0
   12.5347  -18.9493   24.8171 C   0  0  0  0  0  0  0  0  0  0  0  0
   13.7415  -18.6475   24.8922 O   0  0  0  0  0  0  0  0  0  0  0  0
   12.6766  -23.1137   21.9378 O   0  0  0  0  0  0  0  0  0  0  0  0
   11.6211  -17.9641   24.3940 N   0  0  0  0  0  0  0  0  0  0  0  0
   12.0984  -16.5714   24.0452 C   0  0  1  0  0  0  0  0  0  0  0  0
   11.2204  -16.2407   22.8569 C   0  0  0  0  0  0  0  0  0  0  0  0
   11.4158  -16.9646   21.6332 C   0  0  0  0  0  0  0  0  0  0  0  0
   12.4115  -16.8833   20.9094 O   0  0  0  0  0  0  0  0  0  0  0  0
   11.8089  -15.7391   25.2314 C   0  0  0  0  0  0  0  0  0  0  0  0
   12.0152  -14.4787   25.1451 O   0  0  0  0  0  0  0  0  0  0  0  0
   10.4162  -17.8588   21.1714 O   0  0  0  0  0  0  0  0  0  0  0  0
   11.3163  -16.1807   26.4748 N   0  0  0  0  0  0  0  0  0  0  0  0
   11.1828  -15.2641   27.6025 C   0  0  1  0  0  0  0  0  0  0  0  0
    9.9577  -14.3871   27.4882 C   0  0  0  0  0  0  0  0  0  0  0  0
    9.7178  -13.3383   28.9332 S   0  0  0  0  0  0  0  0  0  0  0  0
   11.0620  -16.0400   28.8725 C   0  0  0  0  0  0  0  0  0  0  0  0
   10.8449  -17.4062   28.8651 O   0  0  0  0  0  0  0  0  0  0  0  0
   11.1558  -15.4647   29.9781 O   0  0  0  0  0  0  0  0  0  0  0  0
  2  1  1  6
  2  3  1  0
  3  4  1  0
  4  5  1  0
  5  9  1  0
  5  6  2  0
  7  2  1  0
  8  7  2  0
 10  7  1  0
 11 10  1  0
 12 13  1  0
 11 12  1  6
 13 17  1  0
 14 13  2  0
 15 11  1  0
 15 18  1  0
 16 15  2  0
 19 18  1  0
 19 20  1  6
 19 22  1  0
 20 21  1  0
 22 23  1  0
 24 22  2  0
M  END
$$$$
