EDC.pdb
     RDKit          3D

 24 23  0  0  1  0  0  0  0  0999 V2000
   10.2148  -18.0733   19.7600 N   0  0  0  0  0  0  0  0  0  0  0  0
    9.7998  -16.6798   20.0675 C   0  0  1  0  0  0  0  0  0  0  0  0
    9.1673  -16.1227   18.8350 C   0  0  0  0  0  0  0  0  0  0  0  0
    8.5758  -17.0707   17.8723 C   0  0  0  0  0  0  0  0  0  0  0  0
    7.9747  -16.4641   16.6680 C   0  0  0  0  0  0  0  0  0  0  0  0
    8.6784  -16.2635   15.6501 O   0  0  0  0  0  0  0  0  0  0  0  0
    8.9100  -16.7774   21.2316 C   0  0  0  0  0  0  0  0  0  0  0  0
    7.7578  -17.2375   21.1137 O   0  0  0  0  0  0  0  0  0  0  0  0
    6.6459  -16.1115   16.6387 O   0  0  0  0  0  0  0  0  0  0  0  0
    9.3379  -16.3564   22.5059 N   0  0  0  0  0  0  0  0  0  0  0  0
    8.4371  -16.5150   23.7112 C   0  0  1  0  0  0  0  0  0  0  0  0
    9.1973  -17.5426   24.5225 C   0  0  0  0  0  0  0  0  0  0  0  0
    8.6616  -17.9543   25.7887 C   0  0  0  0  0  0  0  0  0  0  0  0
    8.2662  -17.1933   26.6755 O   0  0  0  0  0  0  0  0  0  0  0  0
    8.3899  -15.1856   24.3546 C   0  0  0  0  0  0  0  0  0  0  0  0
    9.5000  -14.5954   24.5952 O   0  0  0  0  0  0  0  0  0  0  0  0
    8.5557  -19.3345   26.0984 O   0  0  0  0  0  0  0  0  0  0  0  0
    7.2379  -14.4725   24.7394 N   0  0  0  0  0  0  0  0  0  0  0  0
    7.3374  -13.2329   25.5032 C   0  0  1  0  0  0  0  0  0  0  0  0
    5.9837  -12.6315   25.8013 C   0  0  0  0  0  0  0  0  0  0  0  0
    6.0909  -11.1584   26.8329 S   0  0  0  0  0  0  0  0  0  0  0  0
    8.0084  -13.4976   26.8105 C   0  0  0  0  0  0  0  0  0  0  0  0
    8.6837  -12.4993   27.4897 O   0  0  0  0  0  0  0  0  0  0  0  0
    7.9727  -14.6374   27.3220 O   0  0  0  0  0  0  0  0  0  0  0  0
  2  1  1  6
  2  3  1  0
  3  4  1  0
  4  5  1  0
  5  9  1  0
  5  6  2  0
  7  2  1  0
  8  7  2  0
 10  7  1  0
 11 10  1  0
 12 13  1  0
 11 12  1  1
 13 17  1  0
 14 13  2  0
 15 11  1  0
 15 18  1  0
 16 15  2  0
 19 18  1  0
 19 20  1  1
 19 22  1  0
 20 21  1  0
 22 23  1  0
 24 22  2  0
M  END
$$$$
