LDM.pdb
     RDKit          3D

 25 24  0  0  1  0  0  0  0  0999 V2000
    7.7151  -11.7894   19.8323 C   0  0  0  0  0  0  0  0  0  0  0  0
    7.8854  -13.2794   19.6437 C   0  0  1  0  0  0  0  0  0  0  0  0
    9.0274  -13.4343   18.6286 C   0  0  0  0  0  0  0  0  0  0  0  0
    8.2958  -13.9876   20.8841 C   0  0  0  0  0  0  0  0  0  0  0  0
    8.4807  -15.4650   20.7722 C   0  0  2  0  0  0  0  0  0  0  0  0
    7.3581  -16.1549   20.1879 N   0  0  0  0  0  0  0  0  0  0  0  0
    9.0237  -16.1143   21.9836 C   0  0  0  0  0  0  0  0  0  0  0  0
    8.2317  -16.5052   22.8782 O   0  0  0  0  0  0  0  0  0  0  0  0
   10.4103  -16.3332   22.2159 N   0  0  0  0  0  0  0  0  0  0  0  0
   10.9142  -16.9504   23.4056 C   0  0  1  0  0  0  0  0  0  0  0  0
   12.3167  -17.4425   23.2430 C   0  0  0  0  0  0  0  0  0  0  0  0
   12.5067  -18.3944   22.1305 C   0  0  0  0  0  0  0  0  0  0  0  0
   11.8087  -19.4353   22.0666 O   0  0  0  0  0  0  0  0  0  0  0  0
   10.9187  -15.9961   24.5670 C   0  0  0  0  0  0  0  0  0  0  0  0
   10.9354  -14.7594   24.4345 O   0  0  0  0  0  0  0  0  0  0  0  0
   13.4314  -18.2100   21.1220 O   0  0  0  0  0  0  0  0  0  0  0  0
    6.3759  -13.9267   26.6270 C   0  0  0  0  0  0  0  0  0  0  0  0
    7.6422  -12.9848   27.5110 S   0  0  0  0  0  0  0  0  0  0  0  0
    9.2953  -13.6062   27.1962 C   0  0  0  0  0  0  0  0  0  0  0  0
    9.2324  -15.0998   26.9507 C   0  0  0  0  0  0  0  0  0  0  0  0
   10.6050  -15.7333   27.0528 C   0  0  2  0  0  0  0  0  0  0  0  0
   10.9028  -16.5366   25.8793 N   0  0  0  0  0  0  0  0  0  0  0  0
   10.6155  -16.6003   28.2497 C   0  0  0  0  0  0  0  0  0  0  0  0
   10.9418  -16.1055   29.5197 O   0  0  0  0  0  0  0  0  0  0  0  0
   10.3281  -17.8125   28.1477 O   0  0  0  0  0  0  0  0  0  0  0  0
  2  1  1  1
  3  2  1  0
  4  5  1  0
  4  2  1  0
  5  6  1  1
  7  5  1  0
  7  9  1  0
  8  7  2  0
 10  9  1  0
 10 11  1  6
 12 11  1  0
 12 13  2  0
 14 10  1  0
 15 14  2  0
 16 12  1  0
 17 18  1  0
 18 19  1  0
 20 19  1  0
 21 20  1  6
 21 22  1  0
 22 14  1  0
 23 21  1  0
 24 23  1  0
 25 23  2  0
M  END
$$$$
