LDM.pdb
     RDKit          3D

 25 24  0  0  1  0  0  0  0  0999 V2000
    6.4396  -12.3342   26.2655 C   0  0  0  0  0  0  0  0  0  0  0  0
    6.3835  -13.2564   25.0692 C   0  0  1  0  0  0  0  0  0  0  0  0
    6.6318  -12.3576   23.8490 C   0  0  0  0  0  0  0  0  0  0  0  0
    7.4448  -14.2968   25.0766 C   0  0  0  0  0  0  0  0  0  0  0  0
    7.1801  -15.5178   24.2589 C   0  0  2  0  0  0  0  0  0  0  0  0
    5.9343  -16.1733   24.5683 N   0  0  0  0  0  0  0  0  0  0  0  0
    8.3298  -16.4373   24.1298 C   0  0  0  0  0  0  0  0  0  0  0  0
    8.4439  -17.3948   24.9363 O   0  0  0  0  0  0  0  0  0  0  0  0
    9.3405  -16.3134   23.1360 N   0  0  0  0  0  0  0  0  0  0  0  0
   10.5763  -17.0352   23.1857 C   0  0  1  0  0  0  0  0  0  0  0  0
   11.4594  -16.7355   22.0170 C   0  0  0  0  0  0  0  0  0  0  0  0
   12.6364  -17.6186   21.8964 C   0  0  0  0  0  0  0  0  0  0  0  0
   12.6135  -18.7696   22.3957 O   0  0  0  0  0  0  0  0  0  0  0  0
   11.3630  -16.7043   24.4231 C   0  0  0  0  0  0  0  0  0  0  0  0
   12.0730  -15.6886   24.5296 O   0  0  0  0  0  0  0  0  0  0  0  0
   13.7992  -17.2508   21.2493 O   0  0  0  0  0  0  0  0  0  0  0  0
   10.4310  -13.1473   28.8526 C   0  0  0  0  0  0  0  0  0  0  0  0
   10.3733  -14.7390   29.7101 S   0  0  0  0  0  0  0  0  0  0  0  0
   11.4340  -15.9643   28.9410 C   0  0  0  0  0  0  0  0  0  0  0  0
   10.9003  -16.2971   27.5628 C   0  0  0  0  0  0  0  0  0  0  0  0
   11.8125  -17.2654   26.8376 C   0  0  2  0  0  0  0  0  0  0  0  0
   11.2895  -17.5979   25.5234 N   0  0  0  0  0  0  0  0  0  0  0  0
   11.9025  -18.4970   27.6498 C   0  0  0  0  0  0  0  0  0  0  0  0
   12.5663  -18.5234   28.8838 O   0  0  0  0  0  0  0  0  0  0  0  0
   11.3782  -19.5560   27.2422 O   0  0  0  0  0  0  0  0  0  0  0  0
  2  1  1  1
  3  2  1  0
  4  5  1  0
  4  2  1  0
  5  6  1  1
  7  5  1  0
  7  9  1  0
  8  7  2  0
 10  9  1  0
 10 11  1  6
 12 11  1  0
 12 13  2  0
 14 10  1  0
 15 14  2  0
 16 12  1  0
 17 18  1  0
 18 19  1  0
 20 19  1  0
 21 20  1  1
 21 22  1  0
 22 14  1  0
 23 21  1  0
 24 23  1  0
 25 23  2  0
M  END
$$$$
