LDM.pdb
     RDKit          3D

 25 24  0  0  1  0  0  0  0  0999 V2000
    7.2123  -11.9806   24.9671 C   0  0  0  0  0  0  0  0  0  0  0  0
    7.0409  -13.4502   25.2763 C   0  0  1  0  0  0  0  0  0  0  0  0
    5.9146  -13.5194   26.3181 C   0  0  0  0  0  0  0  0  0  0  0  0
    6.6089  -14.2530   24.1026 C   0  0  0  0  0  0  0  0  0  0  0  0
    6.6437  -15.7367   24.2669 C   0  0  2  0  0  0  0  0  0  0  0  0
    5.8113  -16.2291   25.3356 N   0  0  0  0  0  0  0  0  0  0  0  0
    7.9962  -16.3315   24.2327 C   0  0  0  0  0  0  0  0  0  0  0  0
    8.3538  -17.0976   25.1631 O   0  0  0  0  0  0  0  0  0  0  0  0
    8.9446  -16.0935   23.1992 N   0  0  0  0  0  0  0  0  0  0  0  0
   10.2112  -16.7583   23.1342 C   0  0  1  0  0  0  0  0  0  0  0  0
   11.0331  -16.3074   21.9694 C   0  0  0  0  0  0  0  0  0  0  0  0
   12.2183  -17.1442   21.6956 C   0  0  0  0  0  0  0  0  0  0  0  0
   12.0762  -18.3297   21.3095 O   0  0  0  0  0  0  0  0  0  0  0  0
   11.0319  -16.5110   24.3691 C   0  0  0  0  0  0  0  0  0  0  0  0
   11.4932  -15.3959   24.6704 O   0  0  0  0  0  0  0  0  0  0  0  0
   13.5157  -16.6948   21.8404 O   0  0  0  0  0  0  0  0  0  0  0  0
   10.0010  -12.9144   29.0703 C   0  0  0  0  0  0  0  0  0  0  0  0
    9.8602  -14.7063   28.8674 S   0  0  0  0  0  0  0  0  0  0  0  0
   11.0776  -15.3586   27.7227 C   0  0  0  0  0  0  0  0  0  0  0  0
   10.8271  -16.8377   27.5116 C   0  0  0  0  0  0  0  0  0  0  0  0
   11.8457  -17.4395   26.5651 C   0  0  2  0  0  0  0  0  0  0  0  0
   11.2915  -17.6073   25.2324 N   0  0  0  0  0  0  0  0  0  0  0  0
   12.2339  -18.7618   27.0991 C   0  0  0  0  0  0  0  0  0  0  0  0
   11.2859  -19.6693   27.5908 O   0  0  0  0  0  0  0  0  0  0  0  0
   13.4372  -19.0996   27.1218 O   0  0  0  0  0  0  0  0  0  0  0  0
  2  1  1  6
  3  2  1  0
  4  5  1  0
  4  2  1  0
  5  6  1  1
  7  5  1  0
  7  9  1  0
  8  7  2  0
 10  9  1  0
 10 11  1  6
 12 11  1  0
 12 13  2  0
 14 10  1  0
 15 14  2  0
 16 12  1  0
 17 18  1  0
 18 19  1  0
 20 19  1  0
 21 20  1  1
 21 22  1  0
 22 14  1  0
 23 21  1  0
 24 23  1  0
 25 23  2  0
M  END
$$$$
