LDM.pdb
     RDKit          3D

 25 24  0  0  1  0  0  0  0  0999 V2000
    6.9342  -12.1282   18.9724 C   0  0  0  0  0  0  0  0  0  0  0  0
    7.8512  -13.3160   18.7915 C   0  0  1  0  0  0  0  0  0  0  0  0
    9.2348  -12.7213   18.4904 C   0  0  0  0  0  0  0  0  0  0  0  0
    7.9839  -14.1501   20.0144 C   0  0  0  0  0  0  0  0  0  0  0  0
    8.9892  -15.2526   19.9575 C   0  0  2  0  0  0  0  0  0  0  0  0
    8.8588  -16.1076   18.8045 N   0  0  0  0  0  0  0  0  0  0  0  0
    9.1825  -15.9802   21.2292 C   0  0  0  0  0  0  0  0  0  0  0  0
    8.2020  -16.1420   21.9992 O   0  0  0  0  0  0  0  0  0  0  0  0
   10.4271  -16.5225   21.6550 N   0  0  0  0  0  0  0  0  0  0  0  0
   10.5938  -17.2095   22.9002 C   0  0  1  0  0  0  0  0  0  0  0  0
   11.8899  -17.9514   22.9734 C   0  0  0  0  0  0  0  0  0  0  0  0
   12.0267  -19.0437   21.9896 C   0  0  0  0  0  0  0  0  0  0  0  0
   12.9023  -18.9774   21.0931 O   0  0  0  0  0  0  0  0  0  0  0  0
   10.5680  -16.2604   24.0656 C   0  0  0  0  0  0  0  0  0  0  0  0
   11.3151  -15.2701   24.1565 O   0  0  0  0  0  0  0  0  0  0  0  0
   11.2296  -20.1710   21.9899 O   0  0  0  0  0  0  0  0  0  0  0  0
    6.0093  -12.2853   26.2750 C   0  0  0  0  0  0  0  0  0  0  0  0
    7.6178  -12.4647   27.0830 S   0  0  0  0  0  0  0  0  0  0  0  0
    7.9531  -14.1611   27.5604 C   0  0  0  0  0  0  0  0  0  0  0  0
    8.1268  -15.0083   26.3166 C   0  0  0  0  0  0  0  0  0  0  0  0
    9.5070  -15.6308   26.2621 C   0  0  2  0  0  0  0  0  0  0  0  0
    9.6433  -16.5098   25.1132 N   0  0  0  0  0  0  0  0  0  0  0  0
    9.6983  -16.4164   27.4994 C   0  0  0  0  0  0  0  0  0  0  0  0
   10.0299  -15.8093   28.7182 O   0  0  0  0  0  0  0  0  0  0  0  0
    9.5652  -17.6591   27.4793 O   0  0  0  0  0  0  0  0  0  0  0  0
  2  1  1  1
  3  2  1  0
  4  5  1  0
  4  2  1  0
  5  6  1  6
  7  5  1  0
  7  9  1  0
  8  7  2  0
 10  9  1  0
 10 11  1  6
 12 11  1  0
 12 13  2  0
 14 10  1  0
 15 14  2  0
 16 12  1  0
 17 18  1  0
 18 19  1  0
 20 19  1  0
 21 20  1  1
 21 22  1  0
 22 14  1  0
 23 21  1  0
 24 23  1  0
 25 23  2  0
M  END
$$$$
