LDM.pdb
     RDKit          3D

 25 24  0  0  1  0  0  0  0  0999 V2000
    7.1684  -14.0434   17.4254 C   0  0  0  0  0  0  0  0  0  0  0  0
    8.2209  -13.2596   18.1755 C   0  0  1  0  0  0  0  0  0  0  0  0
    7.6921  -11.8190   18.2343 C   0  0  0  0  0  0  0  0  0  0  0  0
    8.4117  -13.7193   19.5759 C   0  0  0  0  0  0  0  0  0  0  0  0
    9.5355  -14.6737   19.8116 C   0  0  2  0  0  0  0  0  0  0  0  0
    9.9986  -15.3416   18.6212 N   0  0  0  0  0  0  0  0  0  0  0  0
    9.3538  -15.5688   20.9735 C   0  0  0  0  0  0  0  0  0  0  0  0
    8.4416  -15.3214   21.8024 O   0  0  0  0  0  0  0  0  0  0  0  0
   10.1559  -16.7162   21.2276 N   0  0  0  0  0  0  0  0  0  0  0  0
   10.1290  -17.4273   22.4702 C   0  0  1  0  0  0  0  0  0  0  0  0
   11.1759  -18.4925   22.5407 C   0  0  0  0  0  0  0  0  0  0  0  0
   11.1634  -19.2820   23.7882 C   0  0  0  0  0  0  0  0  0  0  0  0
   12.2361  -19.5166   24.3955 O   0  0  0  0  0  0  0  0  0  0  0  0
   10.3596  -16.5110   23.6393 C   0  0  0  0  0  0  0  0  0  0  0  0
   11.3472  -15.7608   23.7345 O   0  0  0  0  0  0  0  0  0  0  0  0
   10.0121  -19.7966   24.3502 O   0  0  0  0  0  0  0  0  0  0  0  0
    6.4718  -11.5524   28.1641 C   0  0  0  0  0  0  0  0  0  0  0  0
    6.5260  -12.8546   26.9099 S   0  0  0  0  0  0  0  0  0  0  0  0
    8.0743  -13.7603   26.9368 C   0  0  0  0  0  0  0  0  0  0  0  0
    8.1217  -14.7098   25.7572 C   0  0  0  0  0  0  0  0  0  0  0  0
    9.4072  -15.5115   25.7466 C   0  0  2  0  0  0  0  0  0  0  0  0
    9.4002  -16.5038   24.6852 N   0  0  0  0  0  0  0  0  0  0  0  0
    9.5239  -16.1970   27.0508 C   0  0  0  0  0  0  0  0  0  0  0  0
    9.8243  -15.5004   28.2292 O   0  0  0  0  0  0  0  0  0  0  0  0
    9.3535  -17.4330   27.1265 O   0  0  0  0  0  0  0  0  0  0  0  0
  2  1  1  1
  3  2  1  0
  4  5  1  0
  4  2  1  0
  5  6  1  6
  7  5  1  0
  7  9  1  0
  8  7  2  0
 10  9  1  0
 10 11  1  6
 12 11  1  0
 12 13  2  0
 14 10  1  0
 15 14  2  0
 16 12  1  0
 17 18  1  0
 18 19  1  0
 20 19  1  0
 21 20  1  1
 21 22  1  0
 22 14  1  0
 23 21  1  0
 24 23  1  0
 25 23  2  0
M  END
$$$$
