LDM.pdb
     RDKit          3D

 25 24  0  0  1  0  0  0  0  0999 V2000
    7.5578  -11.9321   19.4855 C   0  0  0  0  0  0  0  0  0  0  0  0
    7.9799  -13.3622   19.2382 C   0  0  1  0  0  0  0  0  0  0  0  0
    9.4477  -13.2834   18.7936 C   0  0  0  0  0  0  0  0  0  0  0  0
    7.9310  -14.2106   20.4575 C   0  0  0  0  0  0  0  0  0  0  0  0
    8.2990  -15.6467   20.2795 C   0  0  2  0  0  0  0  0  0  0  0  0
    7.4017  -16.3814   19.4236 N   0  0  0  0  0  0  0  0  0  0  0  0
    8.6562  -16.3532   21.5274 C   0  0  0  0  0  0  0  0  0  0  0  0
    7.7421  -16.8340   22.2441 O   0  0  0  0  0  0  0  0  0  0  0  0
    9.9909  -16.5319   21.9870 N   0  0  0  0  0  0  0  0  0  0  0  0
   10.3096  -17.1687   23.2293 C   0  0  1  0  0  0  0  0  0  0  0  0
   11.5892  -17.9394   23.1635 C   0  0  0  0  0  0  0  0  0  0  0  0
   11.8146  -18.8507   24.3030 C   0  0  0  0  0  0  0  0  0  0  0  0
   11.6432  -18.4440   25.4777 O   0  0  0  0  0  0  0  0  0  0  0  0
   10.4587  -16.1700   24.3429 C   0  0  0  0  0  0  0  0  0  0  0  0
   11.4875  -15.4938   24.5205 O   0  0  0  0  0  0  0  0  0  0  0  0
   12.2146  -20.1641   24.1582 O   0  0  0  0  0  0  0  0  0  0  0  0
    6.6205  -11.1220   26.4517 C   0  0  0  0  0  0  0  0  0  0  0  0
    6.1245  -12.7844   25.9394 S   0  0  0  0  0  0  0  0  0  0  0  0
    7.5271  -13.7945   25.4592 C   0  0  0  0  0  0  0  0  0  0  0  0
    8.0917  -14.4852   26.6837 C   0  0  0  0  0  0  0  0  0  0  0  0
    9.4385  -15.1138   26.3899 C   0  0  2  0  0  0  0  0  0  0  0  0
    9.3688  -15.9922   25.2345 N   0  0  0  0  0  0  0  0  0  0  0  0
    9.8385  -15.9015   27.5748 C   0  0  0  0  0  0  0  0  0  0  0  0
    9.8762  -17.3023   27.5545 O   0  0  0  0  0  0  0  0  0  0  0  0
   10.1559  -15.3208   28.6352 O   0  0  0  0  0  0  0  0  0  0  0  0
  2  1  1  1
  3  2  1  0
  4  5  1  0
  4  2  1  0
  5  6  1  1
  7  5  1  0
  7  9  1  0
  8  7  2  0
 10  9  1  0
 10 11  1  6
 12 11  1  0
 12 13  2  0
 14 10  1  0
 15 14  2  0
 16 12  1  0
 17 18  1  0
 18 19  1  0
 20 19  1  0
 21 20  1  1
 21 22  1  0
 22 14  1  0
 23 21  1  0
 24 23  1  0
 25 23  2  0
M  END
$$$$
