LDM.pdb
     RDKit          3D

 25 24  0  0  1  0  0  0  0  0999 V2000
    7.0898  -11.9971   19.8818 C   0  0  0  0  0  0  0  0  0  0  0  0
    7.8971  -13.2328   19.5562 C   0  0  1  0  0  0  0  0  0  0  0  0
    9.3453  -12.7454   19.4026 C   0  0  0  0  0  0  0  0  0  0  0  0
    7.8840  -14.2484   20.6412 C   0  0  0  0  0  0  0  0  0  0  0  0
    8.6669  -15.4948   20.3903 C   0  0  2  0  0  0  0  0  0  0  0  0
    8.1541  -16.3039   19.3133 N   0  0  0  0  0  0  0  0  0  0  0  0
    9.0186  -16.2598   21.6049 C   0  0  0  0  0  0  0  0  0  0  0  0
    8.1007  -16.6675   22.3609 O   0  0  0  0  0  0  0  0  0  0  0  0
   10.3518  -16.5746   21.9892 N   0  0  0  0  0  0  0  0  0  0  0  0
   10.6762  -17.2133   23.2291 C   0  0  1  0  0  0  0  0  0  0  0  0
   11.9859  -17.9326   23.1747 C   0  0  0  0  0  0  0  0  0  0  0  0
   12.0772  -18.9597   22.1180 C   0  0  0  0  0  0  0  0  0  0  0  0
   11.2303  -19.8841   22.0638 O   0  0  0  0  0  0  0  0  0  0  0  0
   10.7689  -16.2230   24.3561 C   0  0  0  0  0  0  0  0  0  0  0  0
   11.8296  -15.6657   24.6899 O   0  0  0  0  0  0  0  0  0  0  0  0
   13.0647  -18.9716   21.1532 O   0  0  0  0  0  0  0  0  0  0  0  0
    5.9644  -12.2416   25.8634 C   0  0  0  0  0  0  0  0  0  0  0  0
    7.2228  -11.8835   27.1125 S   0  0  0  0  0  0  0  0  0  0  0  0
    8.2373  -13.3152   27.4853 C   0  0  0  0  0  0  0  0  0  0  0  0
    8.2661  -14.2374   26.2837 C   0  0  0  0  0  0  0  0  0  0  0  0
    9.5729  -15.0001   26.2057 C   0  0  2  0  0  0  0  0  0  0  0  0
    9.5846  -15.9104   25.0732 N   0  0  0  0  0  0  0  0  0  0  0  0
    9.7186  -15.7773   27.4544 C   0  0  0  0  0  0  0  0  0  0  0  0
    9.4531  -17.1524   27.5060 O   0  0  0  0  0  0  0  0  0  0  0  0
   10.0879  -15.2106   28.5056 O   0  0  0  0  0  0  0  0  0  0  0  0
  2  1  1  1
  3  2  1  0
  4  5  1  0
  4  2  1  0
  5  6  1  6
  7  5  1  0
  7  9  1  0
  8  7  2  0
 10  9  1  0
 10 11  1  6
 12 11  1  0
 12 13  2  0
 14 10  1  0
 15 14  2  0
 16 12  1  0
 17 18  1  0
 18 19  1  0
 20 19  1  0
 21 20  1  1
 21 22  1  0
 22 14  1  0
 23 21  1  0
 24 23  1  0
 25 23  2  0
M  END
$$$$
