LDM.pdb
     RDKit          3D

 25 24  0  0  1  0  0  0  0  0999 V2000
    7.3289  -12.1299   19.3728 C   0  0  0  0  0  0  0  0  0  0  0  0
    7.8301  -13.5230   19.0682 C   0  0  1  0  0  0  0  0  0  0  0  0
    9.1990  -13.3272   18.4003 C   0  0  0  0  0  0  0  0  0  0  0  0
    8.0443  -14.3513   20.2835 C   0  0  0  0  0  0  0  0  0  0  0  0
    8.5239  -15.7470   20.0568 C   0  0  2  0  0  0  0  0  0  0  0  0
    7.6634  -16.5335   19.2090 N   0  0  0  0  0  0  0  0  0  0  0  0
    8.9779  -16.4508   21.2744 C   0  0  0  0  0  0  0  0  0  0  0  0
    8.1257  -16.9836   22.0296 O   0  0  0  0  0  0  0  0  0  0  0  0
   10.3414  -16.5708   21.6628 N   0  0  0  0  0  0  0  0  0  0  0  0
   10.7489  -17.1187   22.9215 C   0  0  1  0  0  0  0  0  0  0  0  0
   12.1446  -17.6538   22.8858 C   0  0  0  0  0  0  0  0  0  0  0  0
   12.5795  -18.3139   24.1327 C   0  0  0  0  0  0  0  0  0  0  0  0
   11.7809  -19.0407   24.7719 O   0  0  0  0  0  0  0  0  0  0  0  0
   10.7043  -16.0890   24.0157 C   0  0  0  0  0  0  0  0  0  0  0  0
   11.0967  -14.9180   23.8677 O   0  0  0  0  0  0  0  0  0  0  0  0
   13.8485  -18.1809   24.6602 O   0  0  0  0  0  0  0  0  0  0  0  0
    6.4025  -11.4068   27.5432 C   0  0  0  0  0  0  0  0  0  0  0  0
    6.7728  -12.8013   26.4522 S   0  0  0  0  0  0  0  0  0  0  0  0
    8.2407  -13.6953   26.9661 C   0  0  0  0  0  0  0  0  0  0  0  0
    8.5799  -14.7442   25.9270 C   0  0  0  0  0  0  0  0  0  0  0  0
    9.8295  -15.5121   26.3066 C   0  0  2  0  0  0  0  0  0  0  0  0
   10.1878  -16.4757   25.2799 N   0  0  0  0  0  0  0  0  0  0  0  0
    9.5542  -16.2287   27.5697 C   0  0  0  0  0  0  0  0  0  0  0  0
    9.3667  -17.6170   27.6077 O   0  0  0  0  0  0  0  0  0  0  0  0
    9.4824  -15.5967   28.6457 O   0  0  0  0  0  0  0  0  0  0  0  0
  2  1  1  1
  3  2  1  0
  4  5  1  0
  4  2  1  0
  5  6  1  1
  7  5  1  0
  7  9  1  0
  8  7  2  0
 10  9  1  0
 10 11  1  6
 12 11  1  0
 12 13  2  0
 14 10  1  0
 15 14  2  0
 16 12  1  0
 17 18  1  0
 18 19  1  0
 20 19  1  0
 21 20  1  6
 21 22  1  0
 22 14  1  0
 23 21  1  0
 24 23  1  0
 25 23  2  0
M  END
$$$$
