LDM.pdb
     RDKit          3D

 25 24  0  0  1  0  0  0  0  0999 V2000
    7.5151  -11.7650   19.7815 C   0  0  0  0  0  0  0  0  0  0  0  0
    7.8694  -13.1941   19.4393 C   0  0  1  0  0  0  0  0  0  0  0  0
    9.2689  -13.1282   18.8103 C   0  0  0  0  0  0  0  0  0  0  0  0
    7.9594  -14.0802   20.6290 C   0  0  0  0  0  0  0  0  0  0  0  0
    8.3456  -15.4990   20.3695 C   0  0  2  0  0  0  0  0  0  0  0  0
    7.4121  -16.2198   19.5410 N   0  0  0  0  0  0  0  0  0  0  0  0
    8.7949  -16.2461   21.5628 C   0  0  0  0  0  0  0  0  0  0  0  0
    7.9393  -16.6663   22.3824 O   0  0  0  0  0  0  0  0  0  0  0  0
   10.1576  -16.5300   21.8579 N   0  0  0  0  0  0  0  0  0  0  0  0
   10.5745  -17.1936   23.0564 C   0  0  1  0  0  0  0  0  0  0  0  0
   11.9239  -17.8229   22.9201 C   0  0  0  0  0  0  0  0  0  0  0  0
   12.3583  -18.6014   24.0970 C   0  0  0  0  0  0  0  0  0  0  0  0
   11.5243  -19.2757   24.7485 O   0  0  0  0  0  0  0  0  0  0  0  0
   10.6515  -16.2436   24.2188 C   0  0  0  0  0  0  0  0  0  0  0  0
   11.4714  -15.3106   24.2850 O   0  0  0  0  0  0  0  0  0  0  0  0
   13.6642  -18.6388   24.5436 O   0  0  0  0  0  0  0  0  0  0  0  0
    6.2860  -11.6089   25.0726 C   0  0  0  0  0  0  0  0  0  0  0  0
    6.6302  -13.0154   26.1567 S   0  0  0  0  0  0  0  0  0  0  0  0
    8.2014  -13.7951   25.7806 C   0  0  0  0  0  0  0  0  0  0  0  0
    8.4372  -14.9406   26.7435 C   0  0  0  0  0  0  0  0  0  0  0  0
    9.7760  -15.6044   26.4929 C   0  0  2  0  0  0  0  0  0  0  0  0
    9.7414  -16.4232   25.2930 N   0  0  0  0  0  0  0  0  0  0  0  0
   10.0807  -16.4624   27.6571 C   0  0  0  0  0  0  0  0  0  0  0  0
   10.0937  -17.8606   27.5634 O   0  0  0  0  0  0  0  0  0  0  0  0
   10.3368  -15.9457   28.7662 O   0  0  0  0  0  0  0  0  0  0  0  0
  2  1  1  1
  3  2  1  0
  4  5  1  0
  4  2  1  0
  5  6  1  1
  7  5  1  0
  7  9  1  0
  8  7  2  0
 10  9  1  0
 10 11  1  6
 12 11  1  0
 12 13  2  0
 14 10  1  0
 15 14  2  0
 16 12  1  0
 17 18  1  0
 18 19  1  0
 20 19  1  0
 21 20  1  1
 21 22  1  0
 22 14  1  0
 23 21  1  0
 24 23  1  0
 25 23  2  0
M  END
$$$$
