LDM.pdb
     RDKit          3D

 25 24  0  0  1  0  0  0  0  0999 V2000
    7.5829  -11.8101   19.4560 C   0  0  0  0  0  0  0  0  0  0  0  0
    7.9336  -13.2335   19.0876 C   0  0  1  0  0  0  0  0  0  0  0  0
    9.2491  -13.1391   18.3008 C   0  0  0  0  0  0  0  0  0  0  0  0
    8.1838  -14.1030   20.2667 C   0  0  0  0  0  0  0  0  0  0  0  0
    8.5531  -15.5204   19.9769 C   0  0  2  0  0  0  0  0  0  0  0  0
    7.6100  -16.2129   19.1351 N   0  0  0  0  0  0  0  0  0  0  0  0
    8.9954  -16.2976   21.1536 C   0  0  0  0  0  0  0  0  0  0  0  0
    8.1331  -16.8311   21.8966 O   0  0  0  0  0  0  0  0  0  0  0  0
   10.3583  -16.4891   21.5146 N   0  0  0  0  0  0  0  0  0  0  0  0
   10.7619  -17.2189   22.6786 C   0  0  1  0  0  0  0  0  0  0  0  0
   12.1701  -17.7124   22.5826 C   0  0  0  0  0  0  0  0  0  0  0  0
   12.5793  -18.6134   23.6783 C   0  0  0  0  0  0  0  0  0  0  0  0
   13.0909  -18.1423   24.7228 O   0  0  0  0  0  0  0  0  0  0  0  0
   10.6792  -16.3746   23.9195 C   0  0  0  0  0  0  0  0  0  0  0  0
   11.3539  -15.3436   24.0901 O   0  0  0  0  0  0  0  0  0  0  0  0
   12.4318  -19.9853   23.6292 O   0  0  0  0  0  0  0  0  0  0  0  0
    6.3402  -11.6677   26.0043 C   0  0  0  0  0  0  0  0  0  0  0  0
    6.5032  -13.4400   26.3274 S   0  0  0  0  0  0  0  0  0  0  0  0
    8.1823  -14.0234   26.0861 C   0  0  0  0  0  0  0  0  0  0  0  0
    8.2428  -15.5108   26.3673 C   0  0  0  0  0  0  0  0  0  0  0  0
    9.6492  -16.0473   26.1951 C   0  0  2  0  0  0  0  0  0  0  0  0
    9.7853  -16.7768   24.9460 N   0  0  0  0  0  0  0  0  0  0  0  0
    9.9263  -16.9611   27.3233 C   0  0  0  0  0  0  0  0  0  0  0  0
   10.1257  -16.4883   28.6275 O   0  0  0  0  0  0  0  0  0  0  0  0
    9.9887  -18.1944   27.1298 O   0  0  0  0  0  0  0  0  0  0  0  0
  2  1  1  1
  3  2  1  0
  4  5  1  0
  4  2  1  0
  5  6  1  1
  7  5  1  0
  7  9  1  0
  8  7  2  0
 10  9  1  0
 10 11  1  6
 12 11  1  0
 12 13  2  0
 14 10  1  0
 15 14  2  0
 16 12  1  0
 17 18  1  0
 18 19  1  0
 20 19  1  0
 21 20  1  1
 21 22  1  0
 22 14  1  0
 23 21  1  0
 24 23  1  0
 25 23  2  0
M  END
$$$$
