LDM.pdb
     RDKit          3D

 25 24  0  0  1  0  0  0  0  0999 V2000
    7.1794  -11.9336   19.8496 C   0  0  0  0  0  0  0  0  0  0  0  0
    7.5703  -13.3247   19.4059 C   0  0  1  0  0  0  0  0  0  0  0  0
    8.8199  -13.1385   18.5328 C   0  0  0  0  0  0  0  0  0  0  0  0
    7.9456  -14.2189   20.5320 C   0  0  0  0  0  0  0  0  0  0  0  0
    8.3496  -15.6092   20.1666 C   0  0  2  0  0  0  0  0  0  0  0  0
    7.3648  -16.3230   19.3931 N   0  0  0  0  0  0  0  0  0  0  0  0
    8.9329  -16.3954   21.2737 C   0  0  0  0  0  0  0  0  0  0  0  0
    8.1696  -17.0326   22.0429 O   0  0  0  0  0  0  0  0  0  0  0  0
   10.3281  -16.4844   21.5381 N   0  0  0  0  0  0  0  0  0  0  0  0
   10.8651  -17.1794   22.6689 C   0  0  1  0  0  0  0  0  0  0  0  0
   12.3224  -17.4772   22.5162 C   0  0  0  0  0  0  0  0  0  0  0  0
   12.8803  -18.3580   23.5615 C   0  0  0  0  0  0  0  0  0  0  0  0
   12.1132  -19.0003   24.3189 O   0  0  0  0  0  0  0  0  0  0  0  0
   10.7131  -16.3820   23.9341 C   0  0  0  0  0  0  0  0  0  0  0  0
   11.4477  -15.4226   24.2290 O   0  0  0  0  0  0  0  0  0  0  0  0
   14.2347  -18.5282   23.7684 O   0  0  0  0  0  0  0  0  0  0  0  0
    6.7903  -11.2802   26.4820 C   0  0  0  0  0  0  0  0  0  0  0  0
    6.6787  -13.0717   26.2579 S   0  0  0  0  0  0  0  0  0  0  0  0
    8.2935  -13.8502   26.1904 C   0  0  0  0  0  0  0  0  0  0  0  0
    8.1239  -15.3540   26.1206 C   0  0  0  0  0  0  0  0  0  0  0  0
    9.4647  -16.0592   26.0983 C   0  0  2  0  0  0  0  0  0  0  0  0
    9.6781  -16.7448   24.8351 N   0  0  0  0  0  0  0  0  0  0  0  0
    9.4734  -17.0496   27.1954 C   0  0  0  0  0  0  0  0  0  0  0  0
    9.5808  -18.4253   26.9503 O   0  0  0  0  0  0  0  0  0  0  0  0
    9.3833  -16.6699   28.3829 O   0  0  0  0  0  0  0  0  0  0  0  0
  2  1  1  1
  3  2  1  0
  4  5  1  0
  4  2  1  0
  5  6  1  1
  7  5  1  0
  7  9  1  0
  8  7  2  0
 10  9  1  0
 10 11  1  6
 12 11  1  0
 12 13  2  0
 14 10  1  0
 15 14  2  0
 16 12  1  0
 17 18  1  0
 18 19  1  0
 20 19  1  0
 21 20  1  6
 21 22  1  0
 22 14  1  0
 23 21  1  0
 24 23  1  0
 25 23  2  0
M  END
$$$$
