LDM.pdb
     RDKit          3D

 25 24  0  0  1  0  0  0  0  0999 V2000
    7.1490  -12.2662   21.0373 C   0  0  0  0  0  0  0  0  0  0  0  0
    7.2708  -13.7427   20.7377 C   0  0  1  0  0  0  0  0  0  0  0  0
    7.9160  -13.8250   19.3465 C   0  0  0  0  0  0  0  0  0  0  0  0
    8.1621  -14.4645   21.6829 C   0  0  0  0  0  0  0  0  0  0  0  0
    8.2820  -15.9395   21.4839 C   0  0  2  0  0  0  0  0  0  0  0  0
    7.0173  -16.6258   21.4009 N   0  0  0  0  0  0  0  0  0  0  0  0
    9.2725  -16.6032   22.3571 C   0  0  0  0  0  0  0  0  0  0  0  0
    8.8949  -17.5253   23.1236 O   0  0  0  0  0  0  0  0  0  0  0  0
   10.6542  -16.2655   22.3939 N   0  0  0  0  0  0  0  0  0  0  0  0
   11.5816  -16.8718   23.3009 C   0  0  1  0  0  0  0  0  0  0  0  0
   13.0040  -16.6039   22.9260 C   0  0  0  0  0  0  0  0  0  0  0  0
   14.0006  -17.2225   23.8227 C   0  0  0  0  0  0  0  0  0  0  0  0
   13.8641  -18.4153   24.1880 O   0  0  0  0  0  0  0  0  0  0  0  0
   11.3975  -16.3652   24.7042 C   0  0  0  0  0  0  0  0  0  0  0  0
   12.0278  -16.8113   25.6793 O   0  0  0  0  0  0  0  0  0  0  0  0
   15.1098  -16.5546   24.3019 O   0  0  0  0  0  0  0  0  0  0  0  0
    7.0418  -11.6095   25.7144 C   0  0  0  0  0  0  0  0  0  0  0  0
    7.4737  -11.9655   27.4345 S   0  0  0  0  0  0  0  0  0  0  0  0
    8.7647  -13.2038   27.5688 C   0  0  0  0  0  0  0  0  0  0  0  0
    9.0034  -13.8303   26.2103 C   0  0  0  0  0  0  0  0  0  0  0  0
   10.1707  -14.7956   26.2461 C   0  0  2  0  0  0  0  0  0  0  0  0
   10.4565  -15.3256   24.9238 N   0  0  0  0  0  0  0  0  0  0  0  0
    9.8093  -15.9096   27.1477 C   0  0  0  0  0  0  0  0  0  0  0  0
    9.9996  -15.8319   28.5340 O   0  0  0  0  0  0  0  0  0  0  0  0
    9.3186  -16.9599   26.6802 O   0  0  0  0  0  0  0  0  0  0  0  0
  2  1  1  1
  3  2  1  0
  4  5  1  0
  4  2  1  0
  5  6  1  1
  7  5  1  0
  7  9  1  0
  8  7  2  0
 10  9  1  0
 10 11  1  6
 12 11  1  0
 12 13  2  0
 14 10  1  0
 15 14  2  0
 16 12  1  0
 17 18  1  0
 18 19  1  0
 20 19  1  0
 21 20  1  6
 21 22  1  0
 22 14  1  0
 23 21  1  0
 24 23  1  0
 25 23  2  0
M  END
$$$$
