LDM.pdb
     RDKit          3D

 25 24  0  0  1  0  0  0  0  0999 V2000
    7.4665  -11.7495   19.6767 C   0  0  0  0  0  0  0  0  0  0  0  0
    7.9784  -13.1160   19.2824 C   0  0  1  0  0  0  0  0  0  0  0  0
    9.4285  -12.8933   18.8287 C   0  0  0  0  0  0  0  0  0  0  0  0
    8.0106  -14.0818   20.4115 C   0  0  0  0  0  0  0  0  0  0  0  0
    8.5650  -15.4348   20.1093 C   0  0  2  0  0  0  0  0  0  0  0  0
    7.8398  -16.1529   19.0914 N   0  0  0  0  0  0  0  0  0  0  0  0
    8.8989  -16.2466   21.2982 C   0  0  0  0  0  0  0  0  0  0  0  0
    7.9830  -16.8677   21.8947 O   0  0  0  0  0  0  0  0  0  0  0  0
   10.2124  -16.3780   21.8291 N   0  0  0  0  0  0  0  0  0  0  0  0
   10.5074  -17.1481   22.9997 C   0  0  1  0  0  0  0  0  0  0  0  0
   11.7870  -17.9111   22.8732 C   0  0  0  0  0  0  0  0  0  0  0  0
   12.0951  -18.7851   24.0225 C   0  0  0  0  0  0  0  0  0  0  0  0
   13.1329  -18.5908   24.7007 O   0  0  0  0  0  0  0  0  0  0  0  0
   10.6372  -16.2778   24.2185 C   0  0  0  0  0  0  0  0  0  0  0  0
   11.5763  -15.4808   24.3916 O   0  0  0  0  0  0  0  0  0  0  0  0
   11.2912  -19.8369   24.4144 O   0  0  0  0  0  0  0  0  0  0  0  0
    6.2223  -11.4784   25.9456 C   0  0  0  0  0  0  0  0  0  0  0  0
    6.5780  -13.0734   26.7211 S   0  0  0  0  0  0  0  0  0  0  0  0
    8.1142  -13.7882   26.1320 C   0  0  0  0  0  0  0  0  0  0  0  0
    8.3907  -15.0744   26.8833 C   0  0  0  0  0  0  0  0  0  0  0  0
    9.7274  -15.6675   26.4871 C   0  0  2  0  0  0  0  0  0  0  0  0
    9.6359  -16.3726   25.2199 N   0  0  0  0  0  0  0  0  0  0  0  0
   10.1315  -16.6189   27.5436 C   0  0  0  0  0  0  0  0  0  0  0  0
   10.5741  -16.1854   28.8007 O   0  0  0  0  0  0  0  0  0  0  0  0
   10.0844  -17.8496   27.3298 O   0  0  0  0  0  0  0  0  0  0  0  0
  2  1  1  1
  3  2  1  0
  4  5  1  0
  4  2  1  0
  5  6  1  1
  7  5  1  0
  7  9  1  0
  8  7  2  0
 10  9  1  0
 10 11  1  6
 12 11  1  0
 12 13  2  0
 14 10  1  0
 15 14  2  0
 16 12  1  0
 17 18  1  0
 18 19  1  0
 20 19  1  0
 21 20  1  1
 21 22  1  0
 22 14  1  0
 23 21  1  0
 24 23  1  0
 25 23  2  0
M  END
$$$$
