SYP.pdb
     RDKit          3D

 26 27  0  0  1  0  0  0  0  0999 V2000
   18.0409   -9.4907  -17.7966 O   0  0  0  0  0  0  0  0  0  0  0  0
   17.6903   -9.4936  -16.4654 C   0  0  0  0  0  0  0  0  0  0  0  0
   18.9195   -9.6525  -15.6079 C   0  0  2  0  0  0  0  0  0  0  0  0
   19.3181  -11.0546  -15.6448 N   0  0  0  0  0  0  0  0  0  0  0  0
   18.7060   -9.2826  -14.1879 C   0  0  0  0  0  0  0  0  0  0  0  0
   18.1168  -10.0878  -13.4001 O   0  0  0  0  0  0  0  0  0  0  0  0
   22.0758   -2.5545  -14.3972 O   0  0  0  0  0  0  0  0  0  0  0  0
   21.5955   -3.6934  -13.7201 C   0  0  0  0  0  0  0  0  0  0  0  0
   20.7067   -3.5795  -12.6757 C   0  0  0  0  0  0  0  0  0  0  0  0
   20.2410   -4.7232  -12.0161 C   0  0  0  0  0  0  0  0  0  0  0  0
   20.6635   -5.9804  -12.4007 C   0  0  0  0  0  0  0  0  0  0  0  0
   20.1852   -7.1617  -11.7051 C   0  0  0  0  0  0  0  0  0  0  0  0
   18.8700   -7.7376  -12.2570 C   0  0  2  0  0  0  0  0  0  0  0  0
   19.1287   -8.0511  -13.6214 N   0  0  0  0  0  0  0  0  0  0  0  0
   17.7045   -6.9258  -11.9575 C   0  0  0  0  0  0  0  0  0  0  0  0
   17.4430   -6.0258  -12.8338 O   0  0  0  0  0  0  0  0  0  0  0  0
   21.5545   -6.1049  -13.4465 C   0  0  0  0  0  0  0  0  0  0  0  0
   22.0126   -4.9529  -14.0976 C   0  0  0  0  0  0  0  0  0  0  0  0
   16.8543   -7.0595  -10.7874 N   0  0  0  0  0  0  0  0  0  0  0  0
   17.0074   -7.9327   -9.6812 C   0  0  0  0  0  0  0  0  0  0  0  0
   16.1090   -7.3281   -8.6050 C   0  0  0  0  0  0  0  0  0  0  0  0
   14.9978   -6.6865   -9.4047 C   0  0  0  0  0  0  0  0  0  0  0  0
   15.6925   -6.2400  -10.6287 C   0  0  1  0  0  0  0  0  0  0  0  0
   16.0483   -4.7904  -10.5968 C   0  0  0  0  0  0  0  0  0  0  0  0
   15.0858   -3.8198  -10.6999 O   0  0  0  0  0  0  0  0  0  0  0  0
   17.2465   -4.4848  -10.4740 O   0  0  0  0  0  0  0  0  0  0  0  0
  1  2  1  0
  3  2  1  0
  3  4  1  1
  5  3  1  0
  5  6  2  0
  7  8  1  0
  8 18  2  0
  9  8  1  0
  9 10  2  0
 10 11  1  0
 11 17  2  0
 11 12  1  0
 13 12  1  6
 13 14  1  0
 14  5  1  0
 15 13  1  0
 16 15  2  0
 18 17  1  0
 19 23  1  0
 19 15  1  0
 20 21  1  0
 20 19  1  0
 21 22  1  0
 23 22  1  0
 23 24  1  1
 25 24  1  0
 26 24  2  0
M  END
$$$$
