SYP.pdb
     RDKit          3D

 26 27  0  0  1  0  0  0  0  0999 V2000
   21.1959  -21.4633  -15.2495 O   0  0  0  0  0  0  0  0  0  0  0  0
   21.3783  -22.3538  -14.2158 C   0  0  0  0  0  0  0  0  0  0  0  0
   21.8875  -21.6310  -12.9951 C   0  0  2  0  0  0  0  0  0  0  0  0
   20.8461  -20.7151  -12.5450 N   0  0  0  0  0  0  0  0  0  0  0  0
   23.1120  -20.8328  -13.2441 C   0  0  0  0  0  0  0  0  0  0  0  0
   23.0453  -19.5651  -13.3099 O   0  0  0  0  0  0  0  0  0  0  0  0
   25.6985  -19.8986   -7.1873 O   0  0  0  0  0  0  0  0  0  0  0  0
   25.9329  -20.1953   -8.5449 C   0  0  0  0  0  0  0  0  0  0  0  0
   26.3787  -19.2301   -9.4186 C   0  0  0  0  0  0  0  0  0  0  0  0
   26.6059  -19.5451  -10.7636 C   0  0  0  0  0  0  0  0  0  0  0  0
   26.3877  -20.8246  -11.2351 C   0  0  0  0  0  0  0  0  0  0  0  0
   26.6146  -21.1418  -12.6336 C   0  0  0  0  0  0  0  0  0  0  0  0
   25.5525  -20.5810  -13.5947 C   0  0  2  0  0  0  0  0  0  0  0  0
   24.4018  -21.4005  -13.4186 N   0  0  0  0  0  0  0  0  0  0  0  0
   26.0375  -20.3755  -14.9473 C   0  0  0  0  0  0  0  0  0  0  0  0
   25.8785  -21.3809  -15.7285 O   0  0  0  0  0  0  0  0  0  0  0  0
   25.9405  -21.7990  -10.3669 C   0  0  0  0  0  0  0  0  0  0  0  0
   25.7172  -21.4706   -9.0241 C   0  0  0  0  0  0  0  0  0  0  0  0
   26.6602  -19.1639  -15.4514 N   0  0  0  0  0  0  0  0  0  0  0  0
   26.9183  -17.9524  -14.7620 C   0  0  0  0  0  0  0  0  0  0  0  0
   27.9519  -17.2432  -15.6335 C   0  0  0  0  0  0  0  0  0  0  0  0
   27.6021  -17.7075  -17.0292 C   0  0  0  0  0  0  0  0  0  0  0  0
   27.1201  -19.0849  -16.8037 C   0  0  1  0  0  0  0  0  0  0  0  0
   28.1615  -20.1166  -17.0865 C   0  0  0  0  0  0  0  0  0  0  0  0
   28.5436  -20.4079  -18.3702 O   0  0  0  0  0  0  0  0  0  0  0  0
   28.6758  -20.7081  -16.1221 O   0  0  0  0  0  0  0  0  0  0  0  0
  1  2  1  0
  3  2  1  0
  3  4  1  6
  5  3  1  0
  5  6  2  0
  7  8  1  0
  8 18  2  0
  9  8  1  0
  9 10  2  0
 10 11  1  0
 11 17  2  0
 11 12  1  0
 13 12  1  1
 13 14  1  0
 14  5  1  0
 15 13  1  0
 16 15  2  0
 18 17  1  0
 19 23  1  0
 19 15  1  0
 20 21  1  0
 20 19  1  0
 21 22  1  0
 23 22  1  0
 23 24  1  1
 25 24  1  0
 26 24  2  0
M  END
$$$$
