SYP.pdb
     RDKit          3D

 26 27  0  0  1  0  0  0  0  0999 V2000
   27.2961  -22.0711  -17.8810 O   0  0  0  0  0  0  0  0  0  0  0  0
   26.2467  -22.8214  -18.3613 C   0  0  0  0  0  0  0  0  0  0  0  0
   25.0059  -21.9713  -18.4588 C   0  0  2  0  0  0  0  0  0  0  0  0
   25.2376  -20.9480  -19.4714 N   0  0  0  0  0  0  0  0  0  0  0  0
   24.6565  -21.2815  -17.1936 C   0  0  0  0  0  0  0  0  0  0  0  0
   24.8805  -20.0371  -17.0621 O   0  0  0  0  0  0  0  0  0  0  0  0
   19.0684  -18.5461  -18.2165 O   0  0  0  0  0  0  0  0  0  0  0  0
   19.8831  -19.2362  -17.2966 C   0  0  0  0  0  0  0  0  0  0  0  0
   20.3027  -18.6403  -16.1293 C   0  0  0  0  0  0  0  0  0  0  0  0
   21.1114  -19.3430  -15.2282 C   0  0  0  0  0  0  0  0  0  0  0  0
   21.5005  -20.6411  -15.4938 C   0  0  0  0  0  0  0  0  0  0  0  0
   22.3486  -21.3603  -14.5602 C   0  0  0  0  0  0  0  0  0  0  0  0
   23.8552  -21.2448  -14.8487 C   0  0  2  0  0  0  0  0  0  0  0  0
   24.0664  -21.9316  -16.0777 N   0  0  0  0  0  0  0  0  0  0  0  0
   24.6960  -21.6008  -13.7204 C   0  0  0  0  0  0  0  0  0  0  0  0
   24.3626  -22.6904  -13.1307 O   0  0  0  0  0  0  0  0  0  0  0  0
   21.0852  -21.2470  -16.6615 C   0  0  0  0  0  0  0  0  0  0  0  0
   20.2765  -20.5330  -17.5542 C   0  0  0  0  0  0  0  0  0  0  0  0
   25.8367  -20.8415  -13.2383 N   0  0  0  0  0  0  0  0  0  0  0  0
   26.4360  -19.6912  -13.8105 C   0  0  0  0  0  0  0  0  0  0  0  0
   27.2642  -19.1001  -12.6724 C   0  0  0  0  0  0  0  0  0  0  0  0
   27.6697  -20.3178  -11.8732 C   0  0  0  0  0  0  0  0  0  0  0  0
   26.5061  -21.2133  -12.0299 C   0  0  1  0  0  0  0  0  0  0  0  0
   25.5808  -21.1712  -10.8590 C   0  0  0  0  0  0  0  0  0  0  0  0
   25.9095  -21.7714   -9.6713 O   0  0  0  0  0  0  0  0  0  0  0  0
   24.4986  -20.5747  -10.9900 O   0  0  0  0  0  0  0  0  0  0  0  0
  1  2  1  0
  3  2  1  0
  3  4  1  6
  5  3  1  0
  5  6  2  0
  7  8  1  0
  8 18  2  0
  9  8  1  0
  9 10  2  0
 10 11  1  0
 11 17  2  0
 11 12  1  0
 13 12  1  1
 13 14  1  0
 14  5  1  0
 15 13  1  0
 16 15  2  0
 18 17  1  0
 19 23  1  0
 19 15  1  0
 20 21  1  0
 20 19  1  0
 21 22  1  0
 23 22  1  0
 23 24  1  1
 25 24  1  0
 26 24  2  0
M  END
$$$$
