SYP.pdb
     RDKit          3D

 26 27  0  0  1  0  0  0  0  0999 V2000
   22.3614  -18.8084  -19.3370 O   0  0  0  0  0  0  0  0  0  0  0  0
   21.1746  -19.0746  -18.6924 C   0  0  0  0  0  0  0  0  0  0  0  0
   21.0641  -18.2347  -17.4457 C   0  0  2  0  0  0  0  0  0  0  0  0
   21.0684  -16.8321  -17.8439 N   0  0  0  0  0  0  0  0  0  0  0  0
   22.1820  -18.4353  -16.4924 C   0  0  0  0  0  0  0  0  0  0  0  0
   23.0328  -17.5100  -16.3025 O   0  0  0  0  0  0  0  0  0  0  0  0
   26.3973  -20.9720   -9.2182 O   0  0  0  0  0  0  0  0  0  0  0  0
   25.5393  -20.8903  -10.3333 C   0  0  0  0  0  0  0  0  0  0  0  0
   24.3897  -20.1350  -10.2941 C   0  0  0  0  0  0  0  0  0  0  0  0
   23.5506  -20.0665  -11.4126 C   0  0  0  0  0  0  0  0  0  0  0  0
   23.8608  -20.7527  -12.5701 C   0  0  0  0  0  0  0  0  0  0  0  0
   22.9804  -20.6863  -13.7228 C   0  0  0  0  0  0  0  0  0  0  0  0
   23.4769  -19.7672  -14.8518 C   0  0  2  0  0  0  0  0  0  0  0  0
   22.3786  -19.6276  -15.7467 N   0  0  0  0  0  0  0  0  0  0  0  0
   24.7579  -20.1630  -15.4079 C   0  0  0  0  0  0  0  0  0  0  0  0
   24.7030  -21.1579  -16.2162 O   0  0  0  0  0  0  0  0  0  0  0  0
   25.0110  -21.5128  -12.6191 C   0  0  0  0  0  0  0  0  0  0  0  0
   25.8415  -21.5728  -11.4933 C   0  0  0  0  0  0  0  0  0  0  0  0
   26.0372  -19.5360  -15.1241 N   0  0  0  0  0  0  0  0  0  0  0  0
   26.3207  -18.4791  -14.2230 C   0  0  0  0  0  0  0  0  0  0  0  0
   27.8328  -18.5552  -14.0267 C   0  0  0  0  0  0  0  0  0  0  0  0
   28.3261  -19.0832  -15.3548 C   0  0  0  0  0  0  0  0  0  0  0  0
   27.2305  -19.9784  -15.7774 C   0  0  1  0  0  0  0  0  0  0  0  0
   27.5112  -21.4153  -15.4853 C   0  0  0  0  0  0  0  0  0  0  0  0
   28.4780  -22.1044  -16.1705 O   0  0  0  0  0  0  0  0  0  0  0  0
   26.8415  -21.9739  -14.6000 O   0  0  0  0  0  0  0  0  0  0  0  0
  1  2  1  0
  3  2  1  0
  3  4  1  6
  5  3  1  0
  5  6  2  0
  7  8  1  0
  8 18  2  0
  9  8  1  0
  9 10  2  0
 10 11  1  0
 11 17  2  0
 11 12  1  0
 13 12  1  1
 13 14  1  0
 14  5  1  0
 15 13  1  0
 16 15  2  0
 18 17  1  0
 19 23  1  0
 19 15  1  0
 20 21  1  0
 20 19  1  0
 21 22  1  0
 23 22  1  0
 23 24  1  1
 25 24  1  0
 26 24  2  0
M  END
$$$$
