SYP.pdb
     RDKit          3D

 26 27  0  0  1  0  0  0  0  0999 V2000
   28.0051  -17.6612  -20.5016 O   0  0  0  0  0  0  0  0  0  0  0  0
   26.6510  -17.4203  -20.5580 C   0  0  0  0  0  0  0  0  0  0  0  0
   26.0530  -18.1108  -21.7569 C   0  0  2  0  0  0  0  0  0  0  0  0
   26.4761  -17.3897  -22.9515 N   0  0  0  0  0  0  0  0  0  0  0  0
   24.5705  -18.1384  -21.7493 C   0  0  0  0  0  0  0  0  0  0  0  0
   23.9112  -17.1274  -22.1483 O   0  0  0  0  0  0  0  0  0  0  0  0
   16.3037  -20.9062  -22.6193 O   0  0  0  0  0  0  0  0  0  0  0  0
   17.7026  -20.7940  -22.4901 C   0  0  0  0  0  0  0  0  0  0  0  0
   18.3680  -21.3615  -21.4277 C   0  0  0  0  0  0  0  0  0  0  0  0
   19.7582  -21.2392  -21.3176 C   0  0  0  0  0  0  0  0  0  0  0  0
   20.4832  -20.5499  -22.2696 C   0  0  0  0  0  0  0  0  0  0  0  0
   21.9236  -20.4172  -22.1435 C   0  0  0  0  0  0  0  0  0  0  0  0
   22.3815  -19.2119  -21.3046 C   0  0  2  0  0  0  0  0  0  0  0  0
   23.8044  -19.2525  -21.3156 N   0  0  0  0  0  0  0  0  0  0  0  0
   21.7166  -19.1077  -20.0185 C   0  0  0  0  0  0  0  0  0  0  0  0
   22.1463  -19.9263  -19.1290 O   0  0  0  0  0  0  0  0  0  0  0  0
   19.8251  -19.9772  -23.3384 C   0  0  0  0  0  0  0  0  0  0  0  0
   18.4343  -20.1070  -23.4364 C   0  0  0  0  0  0  0  0  0  0  0  0
   20.6482  -18.1809  -19.6874 N   0  0  0  0  0  0  0  0  0  0  0  0
   19.9909  -17.2536  -20.5346 C   0  0  0  0  0  0  0  0  0  0  0  0
   18.7125  -16.9020  -19.7778 C   0  0  0  0  0  0  0  0  0  0  0  0
   19.1250  -17.0272  -18.3286 C   0  0  0  0  0  0  0  0  0  0  0  0
   20.1093  -18.1272  -18.3633 C   0  0  1  0  0  0  0  0  0  0  0  0
   19.5251  -19.4403  -17.9590 C   0  0  0  0  0  0  0  0  0  0  0  0
   19.3612  -20.4549  -18.8660 O   0  0  0  0  0  0  0  0  0  0  0  0
   19.1891  -19.5904  -16.7720 O   0  0  0  0  0  0  0  0  0  0  0  0
  1  2  1  0
  3  2  1  0
  3  4  1  6
  5  3  1  0
  5  6  2  0
  7  8  1  0
  8 18  2  0
  9  8  1  0
  9 10  2  0
 10 11  1  0
 11 17  2  0
 11 12  1  0
 13 12  1  1
 13 14  1  0
 14  5  1  0
 15 13  1  0
 16 15  2  0
 18 17  1  0
 19 23  1  0
 19 15  1  0
 20 21  1  0
 20 19  1  0
 21 22  1  0
 23 22  1  0
 23 24  1  6
 25 24  1  0
 26 24  2  0
M  END
$$$$
