SYP.pdb
     RDKit          3D

 26 27  0  0  1  0  0  0  0  0999 V2000
   16.3101  -11.0021  -17.5606 O   0  0  0  0  0  0  0  0  0  0  0  0
   17.3478  -10.3138  -16.9739 C   0  0  0  0  0  0  0  0  0  0  0  0
   18.5948  -10.4481  -17.8098 C   0  0  2  0  0  0  0  0  0  0  0  0
   19.0637  -11.8247  -17.7040 N   0  0  0  0  0  0  0  0  0  0  0  0
   19.7007   -9.5613  -17.3750 C   0  0  0  0  0  0  0  0  0  0  0  0
   20.5287   -9.9577  -16.4956 O   0  0  0  0  0  0  0  0  0  0  0  0
   26.4191   -3.9867  -17.5069 O   0  0  0  0  0  0  0  0  0  0  0  0
   25.2939   -4.7866  -17.7902 C   0  0  0  0  0  0  0  0  0  0  0  0
   24.2057   -4.2745  -18.4589 C   0  0  0  0  0  0  0  0  0  0  0  0
   23.0976   -5.0856  -18.7311 C   0  0  0  0  0  0  0  0  0  0  0  0
   23.0775   -6.4084  -18.3352 C   0  0  0  0  0  0  0  0  0  0  0  0
   21.9204   -7.2411  -18.6108 C   0  0  0  0  0  0  0  0  0  0  0  0
   20.9759   -7.4365  -17.4125 C   0  0  2  0  0  0  0  0  0  0  0  0
   19.9127   -8.2547  -17.8888 N   0  0  0  0  0  0  0  0  0  0  0  0
   20.6286   -6.2013  -16.7338 C   0  0  0  0  0  0  0  0  0  0  0  0
   19.7854   -5.4669  -17.3630 O   0  0  0  0  0  0  0  0  0  0  0  0
   24.1636   -6.9310  -17.6640 C   0  0  0  0  0  0  0  0  0  0  0  0
   25.2655   -6.1087  -17.3980 C   0  0  0  0  0  0  0  0  0  0  0  0
   21.1470   -5.7632  -15.4496 N   0  0  0  0  0  0  0  0  0  0  0  0
   22.0761   -6.4192  -14.6033 C   0  0  0  0  0  0  0  0  0  0  0  0
   22.5599   -5.3193  -13.6615 C   0  0  0  0  0  0  0  0  0  0  0  0
   21.3563   -4.4118  -13.5450 C   0  0  0  0  0  0  0  0  0  0  0  0
   20.7393   -4.5147  -14.8825 C   0  0  1  0  0  0  0  0  0  0  0  0
   21.0931   -3.3700  -15.7733 C   0  0  0  0  0  0  0  0  0  0  0  0
   20.5667   -2.1210  -15.5689 O   0  0  0  0  0  0  0  0  0  0  0  0
   21.8816   -3.5802  -16.7106 O   0  0  0  0  0  0  0  0  0  0  0  0
  1  2  1  0
  3  2  1  0
  3  4  1  1
  5  3  1  0
  5  6  2  0
  7  8  1  0
  8 18  2  0
  9  8  1  0
  9 10  2  0
 10 11  1  0
 11 17  2  0
 11 12  1  0
 13 12  1  6
 13 14  1  0
 14  5  1  0
 15 13  1  0
 16 15  2  0
 18 17  1  0
 19 23  1  0
 19 15  1  0
 20 21  1  0
 20 19  1  0
 21 22  1  0
 23 22  1  0
 23 24  1  6
 25 24  1  0
 26 24  2  0
M  END
$$$$
