SYP.pdb
     RDKit          3D

 26 27  0  0  1  0  0  0  0  0999 V2000
   23.0891  -18.9530  -14.7814 O   0  0  0  0  0  0  0  0  0  0  0  0
   24.2560  -19.5799  -14.4068 C   0  0  0  0  0  0  0  0  0  0  0  0
   25.2581  -18.5618  -13.9262 C   0  0  2  0  0  0  0  0  0  0  0  0
   26.1576  -18.2559  -15.0323 N   0  0  0  0  0  0  0  0  0  0  0  0
   26.0861  -19.0326  -12.7898 C   0  0  0  0  0  0  0  0  0  0  0  0
   27.2678  -19.4549  -12.9929 O   0  0  0  0  0  0  0  0  0  0  0  0
   28.9699  -20.1808   -4.4873 O   0  0  0  0  0  0  0  0  0  0  0  0
   28.2142  -19.8779   -5.6376 C   0  0  0  0  0  0  0  0  0  0  0  0
   28.4958  -18.7702   -6.4041 C   0  0  0  0  0  0  0  0  0  0  0  0
   27.7334  -18.4869   -7.5435 C   0  0  0  0  0  0  0  0  0  0  0  0
   26.6899  -19.3107   -7.9169 C   0  0  0  0  0  0  0  0  0  0  0  0
   25.8961  -19.0048   -9.0935 C   0  0  0  0  0  0  0  0  0  0  0  0
   26.4436  -19.5971  -10.4033 C   0  0  2  0  0  0  0  0  0  0  0  0
   25.6411  -19.0451  -11.4414 N   0  0  0  0  0  0  0  0  0  0  0  0
   26.6098  -21.0387  -10.3691 C   0  0  0  0  0  0  0  0  0  0  0  0
   25.5145  -21.7028  -10.4433 O   0  0  0  0  0  0  0  0  0  0  0  0
   26.3997  -20.4234   -7.1548 C   0  0  0  0  0  0  0  0  0  0  0  0
   27.1700  -20.6953   -6.0175 C   0  0  0  0  0  0  0  0  0  0  0  0
   27.8743  -21.7456  -10.2628 N   0  0  0  0  0  0  0  0  0  0  0  0
   29.1679  -21.2104  -10.0395 C   0  0  0  0  0  0  0  0  0  0  0  0
   29.9937  -22.4130   -9.5894 C   0  0  0  0  0  0  0  0  0  0  0  0
   29.3494  -23.5671  -10.3235 C   0  0  0  0  0  0  0  0  0  0  0  0
   27.9277  -23.1712  -10.3704 C   0  0  1  0  0  0  0  0  0  0  0  0
   27.1078  -23.8290   -9.3103 C   0  0  0  0  0  0  0  0  0  0  0  0
   26.5557  -25.0684   -9.5053 O   0  0  0  0  0  0  0  0  0  0  0  0
   26.9376  -23.2201   -8.2405 O   0  0  0  0  0  0  0  0  0  0  0  0
  1  2  1  0
  3  2  1  0
  3  4  1  6
  5  3  1  0
  5  6  2  0
  7  8  1  0
  8 18  2  0
  9  8  1  0
  9 10  2  0
 10 11  1  0
 11 17  2  0
 11 12  1  0
 13 12  1  1
 13 14  1  0
 14  5  1  0
 15 13  1  0
 16 15  2  0
 18 17  1  0
 19 23  1  0
 19 15  1  0
 20 21  1  0
 20 19  1  0
 21 22  1  0
 23 22  1  0
 23 24  1  1
 25 24  1  0
 26 24  2  0
M  END
$$$$
