SYP.pdb
     RDKit          3D

 26 27  0  0  1  0  0  0  0  0999 V2000
   19.7251  -21.0409  -16.6666 O   0  0  0  0  0  0  0  0  0  0  0  0
   20.6343  -20.2036  -16.0605 C   0  0  0  0  0  0  0  0  0  0  0  0
   21.1283  -20.8199  -14.7769 C   0  0  2  0  0  0  0  0  0  0  0  0
   20.2781  -20.3456  -13.6913 N   0  0  0  0  0  0  0  0  0  0  0  0
   22.5272  -20.4587  -14.4434 C   0  0  0  0  0  0  0  0  0  0  0  0
   22.8064  -19.2826  -14.0499 O   0  0  0  0  0  0  0  0  0  0  0  0
   23.8344  -20.2240   -7.9498 O   0  0  0  0  0  0  0  0  0  0  0  0
   24.2500  -20.6282   -9.2344 C   0  0  0  0  0  0  0  0  0  0  0  0
   25.5445  -20.4336   -9.6587 C   0  0  0  0  0  0  0  0  0  0  0  0
   25.9378  -20.8426  -10.9385 C   0  0  0  0  0  0  0  0  0  0  0  0
   25.0373  -21.4462  -11.7939 C   0  0  0  0  0  0  0  0  0  0  0  0
   25.4489  -21.8579  -13.1240 C   0  0  0  0  0  0  0  0  0  0  0  0
   24.9504  -20.9442  -14.2566 C   0  0  2  0  0  0  0  0  0  0  0  0
   23.6181  -21.3634  -14.5323 N   0  0  0  0  0  0  0  0  0  0  0  0
   25.8725  -20.8396  -15.3728 C   0  0  0  0  0  0  0  0  0  0  0  0
   25.7451  -21.7608  -16.2568 O   0  0  0  0  0  0  0  0  0  0  0  0
   23.7372  -21.6456  -11.3777 C   0  0  0  0  0  0  0  0  0  0  0  0
   23.3569  -21.2317  -10.0951 C   0  0  0  0  0  0  0  0  0  0  0  0
   26.8812  -19.8091  -15.5474 N   0  0  0  0  0  0  0  0  0  0  0  0
   27.2010  -18.7325  -14.6824 C   0  0  0  0  0  0  0  0  0  0  0  0
   28.5810  -18.2781  -15.1512 C   0  0  0  0  0  0  0  0  0  0  0  0
   28.5587  -18.5816  -16.6322 C   0  0  0  0  0  0  0  0  0  0  0  0
   27.7236  -19.7973  -16.7035 C   0  0  1  0  0  0  0  0  0  0  0  0
   28.5305  -21.0494  -16.8029 C   0  0  0  0  0  0  0  0  0  0  0  0
   29.0679  -21.4560  -17.9966 O   0  0  0  0  0  0  0  0  0  0  0  0
   28.7032  -21.7176  -15.7694 O   0  0  0  0  0  0  0  0  0  0  0  0
  1  2  1  0
  3  2  1  0
  3  4  1  1
  5  3  1  0
  5  6  2  0
  7  8  1  0
  8 18  2  0
  9  8  1  0
  9 10  2  0
 10 11  1  0
 11 17  2  0
 11 12  1  0
 13 12  1  1
 13 14  1  0
 14  5  1  0
 15 13  1  0
 16 15  2  0
 18 17  1  0
 19 23  1  0
 19 15  1  0
 20 21  1  0
 20 19  1  0
 21 22  1  0
 23 22  1  0
 23 24  1  1
 25 24  1  0
 26 24  2  0
M  END
$$$$
