SYP.pdb
     RDKit          3D

 26 27  0  0  1  0  0  0  0  0999 V2000
   29.7365  -26.0629  -16.1771 O   0  0  0  0  0  0  0  0  0  0  0  0
   28.3784  -26.1708  -15.9802 C   0  0  0  0  0  0  0  0  0  0  0  0
   27.6424  -25.7981  -17.2416 C   0  0  2  0  0  0  0  0  0  0  0  0
   28.3200  -24.6534  -17.8388 N   0  0  0  0  0  0  0  0  0  0  0  0
   26.2281  -25.4153  -17.0140 C   0  0  0  0  0  0  0  0  0  0  0  0
   25.8600  -24.2087  -17.1712 O   0  0  0  0  0  0  0  0  0  0  0  0
   18.2308  -23.2678  -18.2435 O   0  0  0  0  0  0  0  0  0  0  0  0
   19.5359  -23.7920  -18.1542 C   0  0  0  0  0  0  0  0  0  0  0  0
   20.6117  -22.9814  -17.8727 C   0  0  0  0  0  0  0  0  0  0  0  0
   21.9005  -23.5215  -17.7880 C   0  0  0  0  0  0  0  0  0  0  0  0
   22.1138  -24.8716  -17.9844 C   0  0  0  0  0  0  0  0  0  0  0  0
   23.4545  -25.4235  -17.9062 C   0  0  0  0  0  0  0  0  0  0  0  0
   23.8561  -25.9265  -16.5091 C   0  0  2  0  0  0  0  0  0  0  0  0
   25.2164  -26.3310  -16.6211 N   0  0  0  0  0  0  0  0  0  0  0  0
   22.9142  -26.8689  -15.9334 C   0  0  0  0  0  0  0  0  0  0  0  0
   22.8520  -27.9976  -16.5401 O   0  0  0  0  0  0  0  0  0  0  0  0
   21.0417  -25.6924  -18.2673 C   0  0  0  0  0  0  0  0  0  0  0  0
   19.7578  -25.1393  -18.3493 C   0  0  0  0  0  0  0  0  0  0  0  0
   22.0777  -26.6301  -14.7700 N   0  0  0  0  0  0  0  0  0  0  0  0
   21.8628  -25.4147  -14.0727 C   0  0  0  0  0  0  0  0  0  0  0  0
   20.5951  -25.6721  -13.2618 C   0  0  0  0  0  0  0  0  0  0  0  0
   20.6667  -27.1543  -12.9723 C   0  0  0  0  0  0  0  0  0  0  0  0
   21.3204  -27.6920  -14.1821 C   0  0  1  0  0  0  0  0  0  0  0  0
   20.3491  -28.2727  -15.1559 C   0  0  0  0  0  0  0  0  0  0  0  0
   19.8550  -29.5413  -14.9964 O   0  0  0  0  0  0  0  0  0  0  0  0
   19.9984  -27.5722  -16.1205 O   0  0  0  0  0  0  0  0  0  0  0  0
  1  2  1  0
  3  2  1  0
  3  4  1  1
  5  3  1  0
  5  6  2  0
  7  8  1  0
  8 18  2  0
  9  8  1  0
  9 10  2  0
 10 11  1  0
 11 17  2  0
 11 12  1  0
 13 12  1  6
 13 14  1  0
 14  5  1  0
 15 13  1  0
 16 15  2  0
 18 17  1  0
 19 23  1  0
 19 15  1  0
 20 21  1  0
 20 19  1  0
 21 22  1  0
 23 22  1  0
 23 24  1  6
 25 24  1  0
 26 24  2  0
M  END
$$$$
