SYP.pdb
     RDKit          3D

 26 27  0  0  1  0  0  0  0  0999 V2000
   19.1701  -12.3813    7.0590 O   0  0  0  0  0  0  0  0  0  0  0  0
   19.7774  -12.5670    5.8377 C   0  0  0  0  0  0  0  0  0  0  0  0
   18.7951  -13.1529    4.8561 C   0  0  2  0  0  0  0  0  0  0  0  0
   17.6648  -12.2382    4.7473 N   0  0  0  0  0  0  0  0  0  0  0  0
   18.2653  -14.4766    5.2631 C   0  0  0  0  0  0  0  0  0  0  0  0
   17.0770  -14.5809    5.7026 O   0  0  0  0  0  0  0  0  0  0  0  0
   14.8284  -17.1286    0.3400 O   0  0  0  0  0  0  0  0  0  0  0  0
   15.7630  -17.3296    1.3755 C   0  0  0  0  0  0  0  0  0  0  0  0
   15.4473  -18.0805    2.4846 C   0  0  0  0  0  0  0  0  0  0  0  0
   16.3899  -18.2687    3.5024 C   0  0  0  0  0  0  0  0  0  0  0  0
   17.6479  -17.7066    3.4114 C   0  0  0  0  0  0  0  0  0  0  0  0
   18.6171  -17.8964    4.4757 C   0  0  0  0  0  0  0  0  0  0  0  0
   18.4723  -16.9155    5.6518 C   0  0  2  0  0  0  0  0  0  0  0  0
   19.0138  -15.6812    5.1936 N   0  0  0  0  0  0  0  0  0  0  0  0
   18.9573  -17.4408    6.9150 C   0  0  0  0  0  0  0  0  0  0  0  0
   20.2163  -17.2861    7.1079 O   0  0  0  0  0  0  0  0  0  0  0  0
   17.9739  -16.9520    2.3034 C   0  0  0  0  0  0  0  0  0  0  0  0
   17.0217  -16.7715    1.2926 C   0  0  0  0  0  0  0  0  0  0  0  0
   18.1495  -18.0980    7.9278 N   0  0  0  0  0  0  0  0  0  0  0  0
   16.7485  -18.3141    7.9350 C   0  0  0  0  0  0  0  0  0  0  0  0
   16.5472  -19.4037    8.9852 C   0  0  0  0  0  0  0  0  0  0  0  0
   17.6649  -19.1437    9.9696 C   0  0  0  0  0  0  0  0  0  0  0  0
   18.7523  -18.6446    9.1044 C   0  0  1  0  0  0  0  0  0  0  0  0
   19.7527  -19.6995    8.7645 C   0  0  0  0  0  0  0  0  0  0  0  0
   20.6779  -20.1239    9.6825 O   0  0  0  0  0  0  0  0  0  0  0  0
   19.7248  -20.1854    7.6211 O   0  0  0  0  0  0  0  0  0  0  0  0
  1  2  1  0
  3  2  1  0
  3  4  1  1
  5  3  1  0
  5  6  2  0
  7  8  1  0
  8 18  2  0
  9  8  1  0
  9 10  2  0
 10 11  1  0
 11 17  2  0
 11 12  1  0
 13 12  1  6
 13 14  1  0
 14  5  1  0
 15 13  1  0
 16 15  2  0
 18 17  1  0
 19 23  1  0
 19 15  1  0
 20 21  1  0
 20 19  1  0
 21 22  1  0
 23 22  1  0
 23 24  1  6
 25 24  1  0
 26 24  2  0
M  END
$$$$
