LCP.pdb
     RDKit          3D

 22 22  0  0  1  0  0  0  0  0999 V2000
   18.1883  -12.1785  -20.3451 C   0  0  0  0  0  0  0  0  0  0  0  0
   17.3717  -12.4546  -19.0934 C   0  0  2  0  0  0  0  0  0  0  0  0
   16.0385  -11.7304  -19.2898 C   0  0  0  0  0  0  0  0  0  0  0  0
   18.0113  -11.8453  -17.8682 C   0  0  0  0  0  0  0  0  0  0  0  0
   19.3494  -12.4906  -17.6717 C   0  0  2  0  0  0  0  0  0  0  0  0
   19.1653  -13.8560  -17.2663 N   0  0  0  0  0  0  0  0  0  0  0  0
   20.1651  -11.7807  -16.6486 C   0  0  0  0  0  0  0  0  0  0  0  0
   19.9414  -11.9238  -15.4127 O   0  0  0  0  0  0  0  0  0  0  0  0
   21.2105  -10.9285  -17.0276 N   0  0  0  0  0  0  0  0  0  0  0  0
   22.0596  -10.2214  -16.0333 C   0  0  1  0  0  0  0  0  0  0  0  0
   23.4296  -10.8587  -16.2595 C   0  0  0  0  0  0  0  0  0  0  0  0
   24.6822  -10.0464  -15.2228 S   0  0  0  0  0  0  0  0  0  0  0  0
   22.1077   -8.7890  -16.3369 C   0  0  0  0  0  0  0  0  0  0  0  0
   22.6867   -8.5592  -17.4953 O   0  0  0  0  0  0  0  0  0  0  0  0
   21.6459   -7.6925  -15.5983 N   0  0  0  0  0  0  0  0  0  0  0  0
   20.7156   -7.9649  -14.4409 C   0  0  0  0  0  0  0  0  0  0  0  0
   21.5066   -7.2745  -13.3545 C   0  0  0  0  0  0  0  0  0  0  0  0
   22.2070   -6.1227  -14.0287 C   0  0  0  0  0  0  0  0  0  0  0  0
   21.7191   -6.2946  -15.4859 C   0  0  1  0  0  0  0  0  0  0  0  0
   22.4497   -5.4526  -16.3702 C   0  0  0  0  0  0  0  0  0  0  0  0
   22.0343   -4.4510  -16.9288 O   0  0  0  0  0  0  0  0  0  0  0  0
   23.7960   -5.7897  -16.6456 O   0  0  0  0  0  0  0  0  0  0  0  0
  2  1  1  6
  2  3  1  0
  4  2  1  0
  5  4  1  0
  5  7  1  0
  5  6  1  1
  7  8  2  0
  7  9  1  0
  9 10  1  0
 10 11  1  6
 11 12  1  0
 13 10  1  0
 13 15  1  0
 14 13  2  0
 15 16  1  0
 17 16  1  0
 18 17  1  0
 19 18  1  0
 19 15  1  0
 19 20  1  6
 20 22  1  0
 21 20  2  0
M  END
$$$$
