LCP.pdb
     RDKit          3D

 22 22  0  0  1  0  0  0  0  0999 V2000
   24.2794  -22.4313  -12.9998 C   0  0  0  0  0  0  0  0  0  0  0  0
   24.9043  -21.0480  -13.0762 C   0  0  2  0  0  0  0  0  0  0  0  0
   25.2357  -20.8144  -14.5513 C   0  0  0  0  0  0  0  0  0  0  0  0
   26.2164  -20.9901  -12.3302 C   0  0  0  0  0  0  0  0  0  0  0  0
   25.9361  -21.2209  -10.8763 C   0  0  2  0  0  0  0  0  0  0  0  0
   24.6221  -20.7343  -10.5611 N   0  0  0  0  0  0  0  0  0  0  0  0
   26.9329  -20.5433  -10.0026 C   0  0  0  0  0  0  0  0  0  0  0  0
   28.0391  -20.1355  -10.4587 O   0  0  0  0  0  0  0  0  0  0  0  0
   26.6728  -20.3366   -8.6415 N   0  0  0  0  0  0  0  0  0  0  0  0
   27.6426  -19.6599   -7.7409 C   0  0  1  0  0  0  0  0  0  0  0  0
   26.9717  -18.3101   -7.4911 C   0  0  0  0  0  0  0  0  0  0  0  0
   27.6528  -17.5343   -5.9952 S   0  0  0  0  0  0  0  0  0  0  0  0
   27.7720  -20.4045   -6.4859 C   0  0  0  0  0  0  0  0  0  0  0  0
   26.6053  -20.8318   -6.0545 O   0  0  0  0  0  0  0  0  0  0  0  0
   28.9094  -20.7042   -5.7259 N   0  0  0  0  0  0  0  0  0  0  0  0
   30.1711  -21.0796   -6.4651 C   0  0  0  0  0  0  0  0  0  0  0  0
   31.0941  -20.0439   -5.8667 C   0  0  0  0  0  0  0  0  0  0  0  0
   30.6008  -19.8217   -4.4600 C   0  0  0  0  0  0  0  0  0  0  0  0
   29.3994  -20.7939   -4.4129 C   0  0  1  0  0  0  0  0  0  0  0  0
   28.6160  -20.5793   -3.2445 C   0  0  0  0  0  0  0  0  0  0  0  0
   27.5923  -19.9204   -3.1671 O   0  0  0  0  0  0  0  0  0  0  0  0
   29.0465  -21.1800   -2.0381 O   0  0  0  0  0  0  0  0  0  0  0  0
  2  1  1  6
  2  3  1  0
  4  2  1  0
  5  4  1  0
  5  7  1  0
  5  6  1  1
  7  8  2  0
  7  9  1  0
  9 10  1  0
 10 11  1  1
 11 12  1  0
 13 10  1  0
 13 15  1  0
 14 13  2  0
 15 16  1  0
 17 16  1  0
 18 17  1  0
 19 18  1  0
 19 15  1  0
 19 20  1  1
 20 22  1  0
 21 20  2  0
M  END
$$$$
