LCP.pdb
     RDKit          3D

 22 22  0  0  1  0  0  0  0  0999 V2000
   19.3235  -20.3697  -16.2963 C   0  0  0  0  0  0  0  0  0  0  0  0
   19.9784  -21.0496  -17.4874 C   0  0  2  0  0  0  0  0  0  0  0  0
   19.3666  -22.4496  -17.5644 C   0  0  0  0  0  0  0  0  0  0  0  0
   21.4605  -21.2435  -17.2697 C   0  0  0  0  0  0  0  0  0  0  0  0
   22.0924  -19.8912  -17.1365 C   0  0  2  0  0  0  0  0  0  0  0  0
   22.1750  -19.2741  -18.4306 N   0  0  0  0  0  0  0  0  0  0  0  0
   23.4551  -19.9695  -16.5424 C   0  0  0  0  0  0  0  0  0  0  0  0
   24.3495  -20.7107  -17.0412 O   0  0  0  0  0  0  0  0  0  0  0  0
   23.7883  -19.2199  -15.4067 N   0  0  0  0  0  0  0  0  0  0  0  0
   25.1120  -19.3330  -14.7399 C   0  0  1  0  0  0  0  0  0  0  0  0
   25.6062  -17.8874  -14.7442 C   0  0  0  0  0  0  0  0  0  0  0  0
   27.0072  -17.6962  -13.6022 S   0  0  0  0  0  0  0  0  0  0  0  0
   24.9465  -19.8107  -13.3649 C   0  0  0  0  0  0  0  0  0  0  0  0
   24.0014  -19.1491  -12.7334 O   0  0  0  0  0  0  0  0  0  0  0  0
   25.6240  -20.8213  -12.6715 N   0  0  0  0  0  0  0  0  0  0  0  0
   26.4778  -21.7743  -13.4728 C   0  0  0  0  0  0  0  0  0  0  0  0
   27.7815  -21.5760  -12.7355 C   0  0  0  0  0  0  0  0  0  0  0  0
   27.4020  -21.2864  -11.3059 C   0  0  0  0  0  0  0  0  0  0  0  0
   25.8595  -21.3513  -11.3925 C   0  0  1  0  0  0  0  0  0  0  0  0
   25.2614  -20.8650  -10.1965 C   0  0  0  0  0  0  0  0  0  0  0  0
   24.9759  -19.7057   -9.9463 O   0  0  0  0  0  0  0  0  0  0  0  0
   24.9571  -21.8004   -9.1796 O   0  0  0  0  0  0  0  0  0  0  0  0
  2  1  1  1
  2  3  1  0
  4  2  1  0
  5  4  1  0
  5  7  1  0
  5  6  1  6
  7  8  2  0
  7  9  1  0
  9 10  1  0
 10 11  1  1
 11 12  1  0
 13 10  1  0
 13 15  1  0
 14 13  2  0
 15 16  1  0
 17 16  1  0
 18 17  1  0
 19 18  1  0
 19 15  1  0
 19 20  1  1
 20 22  1  0
 21 20  2  0
M  END
$$$$
