LCP.pdb
     RDKit          3D

 22 22  0  0  1  0  0  0  0  0999 V2000
   27.1870  -21.8390  -13.4897 C   0  0  0  0  0  0  0  0  0  0  0  0
   26.6302  -20.4339  -13.6503 C   0  0  2  0  0  0  0  0  0  0  0  0
   27.7164  -19.6276  -14.3647 C   0  0  0  0  0  0  0  0  0  0  0  0
   26.4144  -19.7666  -12.3125 C   0  0  0  0  0  0  0  0  0  0  0  0
   25.4392  -20.5939  -11.5314 C   0  0  2  0  0  0  0  0  0  0  0  0
   24.1410  -20.5002  -12.1383 N   0  0  0  0  0  0  0  0  0  0  0  0
   25.3496  -20.1561  -10.1114 C   0  0  0  0  0  0  0  0  0  0  0  0
   24.9749  -18.9884   -9.8045 O   0  0  0  0  0  0  0  0  0  0  0  0
   25.6798  -21.0303   -9.0675 N   0  0  0  0  0  0  0  0  0  0  0  0
   25.8061  -20.5738   -7.6585 C   0  0  1  0  0  0  0  0  0  0  0  0
   24.9028  -21.5553   -6.9135 C   0  0  0  0  0  0  0  0  0  0  0  0
   24.7684  -21.0848   -5.1630 S   0  0  0  0  0  0  0  0  0  0  0  0
   27.1921  -20.7118   -7.2044 C   0  0  0  0  0  0  0  0  0  0  0  0
   27.6979  -21.8780   -7.5420 O   0  0  0  0  0  0  0  0  0  0  0  0
   28.0047  -19.8172   -6.4970 N   0  0  0  0  0  0  0  0  0  0  0  0
   28.1276  -18.4085   -7.0259 C   0  0  0  0  0  0  0  0  0  0  0  0
   27.6977  -17.6671   -5.7818 C   0  0  0  0  0  0  0  0  0  0  0  0
   28.1614  -18.5114   -4.6227 C   0  0  0  0  0  0  0  0  0  0  0  0
   28.8289  -19.6910   -5.3669 C   0  0  1  0  0  0  0  0  0  0  0  0
   29.1333  -20.7526   -4.4696 C   0  0  0  0  0  0  0  0  0  0  0  0
   29.9226  -20.7146   -3.5403 O   0  0  0  0  0  0  0  0  0  0  0  0
   28.4666  -21.9870   -4.6525 O   0  0  0  0  0  0  0  0  0  0  0  0
  2  1  1  1
  2  3  1  0
  4  2  1  0
  5  4  1  0
  5  7  1  0
  5  6  1  6
  7  8  2  0
  7  9  1  0
  9 10  1  0
 10 11  1  1
 11 12  1  0
 13 10  1  0
 13 15  1  0
 14 13  2  0
 15 16  1  0
 17 16  1  0
 18 17  1  0
 19 18  1  0
 19 15  1  0
 19 20  1  1
 20 22  1  0
 21 20  2  0
M  END
$$$$
