LCP.pdb
     RDKit          3D

 22 22  0  0  1  0  0  0  0  0999 V2000
   16.4762  -13.0171  -19.2323 C   0  0  0  0  0  0  0  0  0  0  0  0
   17.3714  -14.1862  -18.8559 C   0  0  2  0  0  0  0  0  0  0  0  0
   16.4328  -15.3265  -18.4572 C   0  0  0  0  0  0  0  0  0  0  0  0
   18.2064  -13.8753  -17.6362 C   0  0  0  0  0  0  0  0  0  0  0  0
   19.0883  -12.7080  -17.9609 C   0  0  2  0  0  0  0  0  0  0  0  0
   20.0184  -13.0844  -18.9884 N   0  0  0  0  0  0  0  0  0  0  0  0
   19.8411  -12.2304  -16.7687 C   0  0  0  0  0  0  0  0  0  0  0  0
   19.5657  -12.6445  -15.6065 O   0  0  0  0  0  0  0  0  0  0  0  0
   20.8826  -11.3026  -16.9005 N   0  0  0  0  0  0  0  0  0  0  0  0
   21.7123  -10.8699  -15.7456 C   0  0  1  0  0  0  0  0  0  0  0  0
   23.1307  -11.1622  -16.2327 C   0  0  0  0  0  0  0  0  0  0  0  0
   24.3500  -10.4951  -15.0616 S   0  0  0  0  0  0  0  0  0  0  0  0
   21.5407   -9.4343  -15.5092 C   0  0  0  0  0  0  0  0  0  0  0  0
   22.0041   -8.7201  -16.5118 O   0  0  0  0  0  0  0  0  0  0  0  0
   20.9809   -8.7586  -14.4178 N   0  0  0  0  0  0  0  0  0  0  0  0
   20.1751   -9.5653  -13.4284 C   0  0  0  0  0  0  0  0  0  0  0  0
   20.9323   -9.1968  -12.1741 C   0  0  0  0  0  0  0  0  0  0  0  0
   21.4209   -7.7877  -12.3914 C   0  0  0  0  0  0  0  0  0  0  0  0
   20.8671   -7.4996  -13.8060 C   0  0  1  0  0  0  0  0  0  0  0  0
   21.4147   -6.2962  -14.3320 C   0  0  0  0  0  0  0  0  0  0  0  0
   20.8239   -5.2427  -14.5023 O   0  0  0  0  0  0  0  0  0  0  0  0
   22.7802   -6.2956  -14.7024 O   0  0  0  0  0  0  0  0  0  0  0  0
  2  1  1  1
  2  3  1  0
  4  2  1  0
  5  4  1  0
  5  7  1  0
  5  6  1  6
  7  8  2  0
  7  9  1  0
  9 10  1  0
 10 11  1  6
 11 12  1  0
 13 10  1  0
 13 15  1  0
 14 13  2  0
 15 16  1  0
 17 16  1  0
 18 17  1  0
 19 18  1  0
 19 15  1  0
 19 20  1  6
 20 22  1  0
 21 20  2  0
M  END
$$$$
