LCP.pdb
     RDKit          3D

 22 22  0  0  1  0  0  0  0  0999 V2000
   17.7746  -11.0395  -19.7829 C   0  0  0  0  0  0  0  0  0  0  0  0
   17.3948  -11.8440  -18.5506 C   0  0  2  0  0  0  0  0  0  0  0  0
   15.9678  -11.4233  -18.1939 C   0  0  0  0  0  0  0  0  0  0  0  0
   18.2555  -11.4806  -17.3638 C   0  0  0  0  0  0  0  0  0  0  0  0
   19.6828  -11.7686  -17.7181 C   0  0  2  0  0  0  0  0  0  0  0  0
   19.9435  -13.1702  -17.5446 N   0  0  0  0  0  0  0  0  0  0  0  0
   20.6331  -10.9855  -16.8815 C   0  0  0  0  0  0  0  0  0  0  0  0
   20.9940  -11.3911  -15.7399 O   0  0  0  0  0  0  0  0  0  0  0  0
   21.1583   -9.7693  -17.3375 N   0  0  0  0  0  0  0  0  0  0  0  0
   22.0843   -8.9459  -16.5165 C   0  0  1  0  0  0  0  0  0  0  0  0
   23.3839   -9.0173  -17.3166 C   0  0  0  0  0  0  0  0  0  0  0  0
   24.6046   -7.8516  -16.6426 S   0  0  0  0  0  0  0  0  0  0  0  0
   21.6046   -7.5635  -16.4462 C   0  0  0  0  0  0  0  0  0  0  0  0
   21.4592   -7.0404  -17.6442 O   0  0  0  0  0  0  0  0  0  0  0  0
   21.2985   -6.7684  -15.3348 N   0  0  0  0  0  0  0  0  0  0  0  0
   21.0260   -7.4659  -14.0239 C   0  0  0  0  0  0  0  0  0  0  0  0
   22.0536   -6.7529  -13.1765 C   0  0  0  0  0  0  0  0  0  0  0  0
   22.1577   -5.3613  -13.7461 C   0  0  0  0  0  0  0  0  0  0  0  0
   21.1375   -5.4411  -14.9052 C   0  0  1  0  0  0  0  0  0  0  0  0
   21.2390   -4.3024  -15.7524 C   0  0  0  0  0  0  0  0  0  0  0  0
   21.7753   -4.2569  -16.8471 O   0  0  0  0  0  0  0  0  0  0  0  0
   20.6683   -3.0884  -15.3027 O   0  0  0  0  0  0  0  0  0  0  0  0
  2  1  1  6
  2  3  1  0
  4  2  1  0
  5  4  1  0
  5  7  1  0
  5  6  1  1
  7  8  2  0
  7  9  1  0
  9 10  1  0
 10 11  1  6
 11 12  1  0
 13 10  1  0
 13 15  1  0
 14 13  2  0
 15 16  1  0
 17 16  1  0
 18 17  1  0
 19 18  1  0
 19 15  1  0
 19 20  1  6
 20 22  1  0
 21 20  2  0
M  END
$$$$
