LCP.pdb
     RDKit          3D

 22 22  0  0  1  0  0  0  0  0999 V2000
   25.2906  -23.4934  -13.1589 C   0  0  0  0  0  0  0  0  0  0  0  0
   25.2626  -22.1557  -13.8798 C   0  0  2  0  0  0  0  0  0  0  0  0
   26.0428  -22.3593  -15.1799 C   0  0  0  0  0  0  0  0  0  0  0  0
   26.0001  -21.0911  -13.1024 C   0  0  0  0  0  0  0  0  0  0  0  0
   25.5870  -21.1934  -11.6656 C   0  0  2  0  0  0  0  0  0  0  0  0
   24.2460  -20.7009  -11.5188 N   0  0  0  0  0  0  0  0  0  0  0  0
   26.4931  -20.4239  -10.7695 C   0  0  0  0  0  0  0  0  0  0  0  0
   27.1489  -19.4294  -11.1926 O   0  0  0  0  0  0  0  0  0  0  0  0
   26.6465  -20.7812   -9.4235 N   0  0  0  0  0  0  0  0  0  0  0  0
   27.2382  -19.8592   -8.4190 C   0  0  1  0  0  0  0  0  0  0  0  0
   26.2202  -18.7206   -8.3788 C   0  0  0  0  0  0  0  0  0  0  0  0
   26.6048  -17.5780   -7.0186 S   0  0  0  0  0  0  0  0  0  0  0  0
   27.3177  -20.5178   -7.1128 C   0  0  0  0  0  0  0  0  0  0  0  0
   26.1487  -20.9891   -6.7368 O   0  0  0  0  0  0  0  0  0  0  0  0
   28.4117  -20.7012   -6.2581 N   0  0  0  0  0  0  0  0  0  0  0  0
   29.7904  -20.7186   -6.8731 C   0  0  0  0  0  0  0  0  0  0  0  0
   30.4166  -19.6230   -6.0424 C   0  0  0  0  0  0  0  0  0  0  0  0
   29.7517  -19.7038   -4.6922 C   0  0  0  0  0  0  0  0  0  0  0  0
   28.7776  -20.8839   -4.9146 C   0  0  1  0  0  0  0  0  0  0  0  0
   27.8554  -20.9931   -3.8364 C   0  0  0  0  0  0  0  0  0  0  0  0
   26.6541  -20.7867   -3.8842 O   0  0  0  0  0  0  0  0  0  0  0  0
   28.3574  -21.3785   -2.5711 O   0  0  0  0  0  0  0  0  0  0  0  0
  2  1  1  1
  2  3  1  0
  4  2  1  0
  5  4  1  0
  5  7  1  0
  5  6  1  6
  7  8  2  0
  7  9  1  0
  9 10  1  0
 10 11  1  1
 11 12  1  0
 13 10  1  0
 13 15  1  0
 14 13  2  0
 15 16  1  0
 17 16  1  0
 18 17  1  0
 19 18  1  0
 19 15  1  0
 19 20  1  1
 20 22  1  0
 21 20  2  0
M  END
$$$$
