LCP.pdb
     RDKit          3D

 22 22  0  0  1  0  0  0  0  0999 V2000
   11.0674  -16.3032   -0.1433 C   0  0  0  0  0  0  0  0  0  0  0  0
   10.5500  -16.1611    1.2788 C   0  0  2  0  0  0  0  0  0  0  0  0
   11.5794  -15.3059    2.0199 C   0  0  0  0  0  0  0  0  0  0  0  0
   10.5106  -17.4929    1.9904 C   0  0  0  0  0  0  0  0  0  0  0  0
   10.9661  -18.5482    1.0291 C   0  0  2  0  0  0  0  0  0  0  0  0
    9.8215  -19.1506    0.4049 N   0  0  0  0  0  0  0  0  0  0  0  0
   11.7706  -19.6046    1.7020 C   0  0  0  0  0  0  0  0  0  0  0  0
   11.2246  -20.6265    2.2077 O   0  0  0  0  0  0  0  0  0  0  0  0
   13.1644  -19.4967    1.7952 N   0  0  0  0  0  0  0  0  0  0  0  0
   13.9967  -20.5203    2.4800 C   0  0  1  0  0  0  0  0  0  0  0  0
   15.0358  -20.8648    1.4142 C   0  0  0  0  0  0  0  0  0  0  0  0
   16.4555  -21.7130    2.1682 S   0  0  0  0  0  0  0  0  0  0  0  0
   14.6474  -19.9386    3.6566 C   0  0  0  0  0  0  0  0  0  0  0  0
   15.5168  -19.0110    3.3195 O   0  0  0  0  0  0  0  0  0  0  0  0
   14.4771  -20.2237    5.0171 N   0  0  0  0  0  0  0  0  0  0  0  0
   13.1685  -20.8404    5.4487 C   0  0  0  0  0  0  0  0  0  0  0  0
   13.7190  -22.0667    6.1383 C   0  0  0  0  0  0  0  0  0  0  0  0
   15.0465  -21.6483    6.7167 C   0  0  0  0  0  0  0  0  0  0  0  0
   15.1084  -20.1692    6.2704 C   0  0  1  0  0  0  0  0  0  0  0  0
   16.4024  -19.6224    6.4973 C   0  0  0  0  0  0  0  0  0  0  0  0
   17.3000  -19.5161    5.6783 O   0  0  0  0  0  0  0  0  0  0  0  0
   16.7028  -19.1471    7.7956 O   0  0  0  0  0  0  0  0  0  0  0  0
  2  1  1  6
  2  3  1  0
  4  2  1  0
  5  4  1  0
  5  7  1  0
  5  6  1  1
  7  8  2  0
  7  9  1  0
  9 10  1  0
 10 11  1  6
 11 12  1  0
 13 10  1  0
 13 15  1  0
 14 13  2  0
 15 16  1  0
 17 16  1  0
 18 17  1  0
 19 18  1  0
 19 15  1  0
 19 20  1  6
 20 22  1  0
 21 20  2  0
M  END
$$$$
