LCP.pdb
     RDKit          3D

 22 22  0  0  1  0  0  0  0  0999 V2000
   23.4522  -19.0444  -19.7225 C   0  0  0  0  0  0  0  0  0  0  0  0
   22.8208  -17.6938  -19.4270 C   0  0  2  0  0  0  0  0  0  0  0  0
   23.8184  -16.6437  -19.9193 C   0  0  0  0  0  0  0  0  0  0  0  0
   22.6628  -17.4684  -17.9418 C   0  0  0  0  0  0  0  0  0  0  0  0
   22.2801  -18.7726  -17.3110 C   0  0  2  0  0  0  0  0  0  0  0  0
   20.8521  -18.9205  -17.3506 N   0  0  0  0  0  0  0  0  0  0  0  0
   22.7440  -18.8659  -15.8995 C   0  0  0  0  0  0  0  0  0  0  0  0
   23.7340  -18.1972  -15.4862 O   0  0  0  0  0  0  0  0  0  0  0  0
   22.0934  -19.7020  -14.9828 N   0  0  0  0  0  0  0  0  0  0  0  0
   22.5488  -19.8445  -13.5750 C   0  0  1  0  0  0  0  0  0  0  0  0
   21.2289  -19.9095  -12.8082 C   0  0  0  0  0  0  0  0  0  0  0  0
   21.5073  -20.5371  -11.1253 S   0  0  0  0  0  0  0  0  0  0  0  0
   23.2963  -21.0935  -13.4092 C   0  0  0  0  0  0  0  0  0  0  0  0
   22.5715  -22.1390  -13.7431 O   0  0  0  0  0  0  0  0  0  0  0  0
   24.6068  -21.3105  -12.9659 N   0  0  0  0  0  0  0  0  0  0  0  0
   25.5329  -20.1202  -12.8973 C   0  0  0  0  0  0  0  0  0  0  0  0
   25.9338  -20.2357  -11.4453 C   0  0  0  0  0  0  0  0  0  0  0  0
   25.9214  -21.7104  -11.1345 C   0  0  0  0  0  0  0  0  0  0  0  0
   25.4936  -22.2950  -12.5005 C   0  0  1  0  0  0  0  0  0  0  0  0
   25.1745  -23.6770  -12.3857 C   0  0  0  0  0  0  0  0  0  0  0  0
   25.9392  -24.6145  -12.5414 O   0  0  0  0  0  0  0  0  0  0  0  0
   23.8427  -24.0248  -12.0587 O   0  0  0  0  0  0  0  0  0  0  0  0
  2  1  1  1
  2  3  1  0
  4  2  1  0
  5  4  1  0
  5  7  1  0
  5  6  1  1
  7  8  2  0
  7  9  1  0
  9 10  1  0
 10 11  1  1
 11 12  1  0
 13 10  1  0
 13 15  1  0
 14 13  2  0
 15 16  1  0
 17 16  1  0
 18 17  1  0
 19 18  1  0
 19 15  1  0
 19 20  1  1
 20 22  1  0
 21 20  2  0
M  END
$$$$
