LCP.pdb
     RDKit          3D

 22 22  0  0  1  0  0  0  0  0999 V2000
   27.1643  -20.7994  -14.3846 C   0  0  0  0  0  0  0  0  0  0  0  0
   25.7356  -20.4540  -13.9980 C   0  0  2  0  0  0  0  0  0  0  0  0
   25.2501  -19.4397  -15.0352 C   0  0  0  0  0  0  0  0  0  0  0  0
   25.6761  -19.7567  -12.6595 C   0  0  0  0  0  0  0  0  0  0  0  0
   26.2637  -20.6737  -11.6302 C   0  0  2  0  0  0  0  0  0  0  0  0
   25.5700  -21.9308  -11.6600 N   0  0  0  0  0  0  0  0  0  0  0  0
   26.1793  -20.0991  -10.2595 C   0  0  0  0  0  0  0  0  0  0  0  0
   26.0773  -18.8530  -10.0728 O   0  0  0  0  0  0  0  0  0  0  0  0
   26.2105  -20.9272   -9.1298 N   0  0  0  0  0  0  0  0  0  0  0  0
   26.1298  -20.3883   -7.7469 C   0  0  1  0  0  0  0  0  0  0  0  0
   24.9122  -21.1175   -7.1811 C   0  0  0  0  0  0  0  0  0  0  0  0
   24.7322  -20.7627   -5.4076 S   0  0  0  0  0  0  0  0  0  0  0  0
   27.3339  -20.7466   -6.9932 C   0  0  0  0  0  0  0  0  0  0  0  0
   27.5538  -22.0431   -7.0207 O   0  0  0  0  0  0  0  0  0  0  0  0
   28.2315  -19.9375   -6.2857 N   0  0  0  0  0  0  0  0  0  0  0  0
   28.6792  -18.6494   -6.9334 C   0  0  0  0  0  0  0  0  0  0  0  0
   28.2814  -17.6973   -5.8299 C   0  0  0  0  0  0  0  0  0  0  0  0
   28.4540  -18.4665   -4.5452 C   0  0  0  0  0  0  0  0  0  0  0  0
   28.9484  -19.8293   -5.0829 C   0  0  1  0  0  0  0  0  0  0  0  0
   28.9491  -20.8127   -4.0545 C   0  0  0  0  0  0  0  0  0  0  0  0
   28.1576  -21.7322   -3.9281 O   0  0  0  0  0  0  0  0  0  0  0  0
   29.9594  -20.7383   -3.0668 O   0  0  0  0  0  0  0  0  0  0  0  0
  2  1  1  6
  2  3  1  0
  4  2  1  0
  5  4  1  0
  5  7  1  0
  5  6  1  1
  7  8  2  0
  7  9  1  0
  9 10  1  0
 10 11  1  1
 11 12  1  0
 13 10  1  0
 13 15  1  0
 14 13  2  0
 15 16  1  0
 17 16  1  0
 18 17  1  0
 19 18  1  0
 19 15  1  0
 19 20  1  1
 20 22  1  0
 21 20  2  0
M  END
$$$$
