GTV.pdb
     RDKit          3D

 19 18  0  0  1  0  0  0  0  0999 V2000
   24.4261  -20.8146   -9.1561 N   0  0  0  0  0  0  0  0  0  0  0  0
   24.3405  -21.4593  -10.4489 C   0  0  0  0  0  0  0  0  0  0  0  0
   24.7987  -20.5464  -11.5106 C   0  0  0  0  0  0  0  0  0  0  0  0
   25.1432  -19.3776  -11.2118 O   0  0  0  0  0  0  0  0  0  0  0  0
   27.7928  -20.6608  -13.1330 C   0  0  0  0  0  0  0  0  0  0  0  0
   26.8181  -20.6734  -14.2754 C   0  0  1  0  0  0  0  0  0  0  0  0
   26.7607  -21.9275  -14.8276 O   0  0  0  0  0  0  0  0  0  0  0  0
   25.4485  -20.1620  -13.8891 C   0  0  2  0  0  0  0  0  0  0  0  0
   24.8563  -20.9665  -12.8612 N   0  0  0  0  0  0  0  0  0  0  0  0
   24.5206  -20.0263  -15.0315 C   0  0  0  0  0  0  0  0  0  0  0  0
   23.6959  -20.9486  -15.2410 O   0  0  0  0  0  0  0  0  0  0  0  0
   23.4241  -16.4595  -16.5041 C   0  0  0  0  0  0  0  0  0  0  0  0
   22.6710  -17.6786  -16.9894 C   0  0  2  0  0  0  0  0  0  0  0  0
   21.5128  -17.9986  -16.0851 C   0  0  0  0  0  0  0  0  0  0  0  0
   23.5920  -18.8942  -17.0616 C   0  0  2  0  0  0  0  0  0  0  0  0
   24.4917  -18.9196  -15.9176 N   0  0  0  0  0  0  0  0  0  0  0  0
   24.3713  -18.7698  -18.3108 C   0  0  0  0  0  0  0  0  0  0  0  0
   25.7218  -18.4956  -18.2268 O   0  0  0  0  0  0  0  0  0  0  0  0
   23.8525  -18.9039  -19.4428 O   0  0  0  0  0  0  0  0  0  0  0  0
  2  1  1  0
  3  2  1  0
  3  4  2  0
  6  5  1  1
  6  8  1  0
  7  6  1  0
  8  9  1  1
  9  3  1  0
 10  8  1  0
 11 10  2  0
 13 12  1  1
 13 14  1  0
 15 13  1  0
 15 16  1  1
 16 10  1  0
 17 15  1  0
 18 17  1  0
 19 17  2  0
M  END
$$$$
