GTV.pdb
     RDKit          3D

 19 18  0  0  1  0  0  0  0  0999 V2000
   16.4492  -12.5684  -16.9818 N   0  0  0  0  0  0  0  0  0  0  0  0
   16.4853  -11.2249  -16.4453 C   0  0  0  0  0  0  0  0  0  0  0  0
   17.8454  -10.6674  -16.5447 C   0  0  0  0  0  0  0  0  0  0  0  0
   18.8312  -11.4435  -16.5388 O   0  0  0  0  0  0  0  0  0  0  0  0
   19.3899   -8.6543  -19.2388 C   0  0  0  0  0  0  0  0  0  0  0  0
   19.5354   -7.8600  -17.9726 C   0  0  1  0  0  0  0  0  0  0  0  0
   18.6763   -6.7912  -17.9893 O   0  0  0  0  0  0  0  0  0  0  0  0
   19.3696   -8.6999  -16.7260 C   0  0  2  0  0  0  0  0  0  0  0  0
   18.0576   -9.2715  -16.6467 N   0  0  0  0  0  0  0  0  0  0  0  0
   19.6904   -7.9788  -15.4764 C   0  0  0  0  0  0  0  0  0  0  0  0
   18.7581   -7.4009  -14.8667 O   0  0  0  0  0  0  0  0  0  0  0  0
   23.0381   -8.7977  -13.1834 C   0  0  0  0  0  0  0  0  0  0  0  0
   21.8474   -8.0535  -12.6200 C   0  0  2  0  0  0  0  0  0  0  0  0
   20.8003   -9.0062  -12.1126 C   0  0  0  0  0  0  0  0  0  0  0  0
   21.2209   -7.1486  -13.6782 C   0  0  2  0  0  0  0  0  0  0  0  0
   20.9867   -7.8906  -14.9083 N   0  0  0  0  0  0  0  0  0  0  0  0
   22.1788   -6.0516  -13.9279 C   0  0  0  0  0  0  0  0  0  0  0  0
   22.7732   -5.9587  -15.1706 O   0  0  0  0  0  0  0  0  0  0  0  0
   22.4716   -5.2031  -13.0546 O   0  0  0  0  0  0  0  0  0  0  0  0
  2  1  1  0
  3  2  1  0
  3  4  2  0
  6  5  1  6
  6  8  1  0
  7  6  1  0
  8  9  1  1
  9  3  1  0
 10  8  1  0
 11 10  2  0
 13 12  1  6
 13 14  1  0
 15 13  1  0
 15 16  1  6
 16 10  1  0
 17 15  1  0
 18 17  1  0
 19 17  2  0
M  END
$$$$
