GTV.pdb
     RDKit          3D

 19 18  0  0  1  0  0  0  0  0999 V2000
   19.3881  -15.4818  -18.1337 N   0  0  0  0  0  0  0  0  0  0  0  0
   19.3562  -14.0521  -18.3553 C   0  0  0  0  0  0  0  0  0  0  0  0
   20.0209  -13.3446  -17.2470 C   0  0  0  0  0  0  0  0  0  0  0  0
   19.7069  -13.6201  -16.0640 O   0  0  0  0  0  0  0  0  0  0  0  0
   23.8060  -11.5376  -17.6692 C   0  0  0  0  0  0  0  0  0  0  0  0
   23.1057  -11.8363  -16.3747 C   0  0  1  0  0  0  0  0  0  0  0  0
   23.6909  -11.1330  -15.3530 O   0  0  0  0  0  0  0  0  0  0  0  0
   21.6136  -11.6003  -16.4420 C   0  0  2  0  0  0  0  0  0  0  0  0
   21.0071  -12.3600  -17.4954 N   0  0  0  0  0  0  0  0  0  0  0  0
   21.2419  -10.1747  -16.5594 C   0  0  0  0  0  0  0  0  0  0  0  0
   21.3208   -9.6300  -17.6872 O   0  0  0  0  0  0  0  0  0  0  0  0
   18.4671   -8.2197  -14.2124 C   0  0  0  0  0  0  0  0  0  0  0  0
   18.9785   -7.7273  -15.5484 C   0  0  2  0  0  0  0  0  0  0  0  0
   18.2815   -8.4199  -16.6869 C   0  0  0  0  0  0  0  0  0  0  0  0
   20.4822   -7.9599  -15.6748 C   0  0  2  0  0  0  0  0  0  0  0  0
   20.7973   -9.3676  -15.4815 N   0  0  0  0  0  0  0  0  0  0  0  0
   21.1325   -7.1504  -14.6235 C   0  0  0  0  0  0  0  0  0  0  0  0
   21.7287   -7.7983  -13.5599 O   0  0  0  0  0  0  0  0  0  0  0  0
   21.1631   -5.8990  -14.6612 O   0  0  0  0  0  0  0  0  0  0  0  0
  2  1  1  0
  3  2  1  0
  3  4  2  0
  6  5  1  6
  6  8  1  0
  7  6  1  0
  8  9  1  6
  9  3  1  0
 10  8  1  0
 11 10  2  0
 13 12  1  1
 13 14  1  0
 15 13  1  0
 15 16  1  1
 16 10  1  0
 17 15  1  0
 18 17  1  0
 19 17  2  0
M  END
$$$$
