GTV.pdb
     RDKit          3D

 19 18  0  0  1  0  0  0  0  0999 V2000
   19.2972  -20.8671  -14.5560 N   0  0  0  0  0  0  0  0  0  0  0  0
   19.9177  -20.3251  -15.7457 C   0  0  0  0  0  0  0  0  0  0  0  0
   21.3388  -20.0280  -15.4951 C   0  0  0  0  0  0  0  0  0  0  0  0
   22.0290  -20.8367  -14.8290 O   0  0  0  0  0  0  0  0  0  0  0  0
   23.4420  -19.8900  -18.2917 C   0  0  0  0  0  0  0  0  0  0  0  0
   23.9901  -19.7975  -16.8966 C   0  0  1  0  0  0  0  0  0  0  0  0
   25.3567  -19.6901  -16.9369 O   0  0  0  0  0  0  0  0  0  0  0  0
   23.3589  -18.6876  -16.0863 C   0  0  2  0  0  0  0  0  0  0  0  0
   21.9374  -18.8460  -15.9935 N   0  0  0  0  0  0  0  0  0  0  0  0
   23.6924  -17.3325  -16.5733 C   0  0  0  0  0  0  0  0  0  0  0  0
   22.9676  -16.8248  -17.4631 O   0  0  0  0  0  0  0  0  0  0  0  0
   25.6309  -12.8752  -15.8151 C   0  0  0  0  0  0  0  0  0  0  0  0
   25.4173  -14.3052  -15.3699 C   0  0  2  0  0  0  0  0  0  0  0  0
   26.6753  -14.8875  -14.7868 C   0  0  0  0  0  0  0  0  0  0  0  0
   24.9647  -15.1773  -16.5386 C   0  0  2  0  0  0  0  0  0  0  0  0
   24.7814  -16.5545  -16.1048 N   0  0  0  0  0  0  0  0  0  0  0  0
   26.0281  -15.1103  -17.5623 C   0  0  0  0  0  0  0  0  0  0  0  0
   26.0951  -13.9990  -18.3788 O   0  0  0  0  0  0  0  0  0  0  0  0
   26.8708  -16.0237  -17.7168 O   0  0  0  0  0  0  0  0  0  0  0  0
  2  1  1  0
  3  2  1  0
  3  4  2  0
  6  5  1  6
  6  8  1  0
  7  6  1  0
  8  9  1  6
  9  3  1  0
 10  8  1  0
 11 10  2  0
 13 12  1  6
 13 14  1  0
 15 13  1  0
 15 16  1  1
 16 10  1  0
 17 15  1  0
 18 17  1  0
 19 17  2  0
M  END
$$$$
