GTV.pdb
     RDKit          3D

 19 18  0  0  1  0  0  0  0  0999 V2000
   16.1124  -12.2306  -17.8233 N   0  0  0  0  0  0  0  0  0  0  0  0
   16.4059  -11.2813  -16.7712 C   0  0  0  0  0  0  0  0  0  0  0  0
   17.7275  -10.6669  -16.9864 C   0  0  0  0  0  0  0  0  0  0  0  0
   18.6879  -11.3849  -17.3555 O   0  0  0  0  0  0  0  0  0  0  0  0
   18.8692   -8.1933  -19.4009 C   0  0  0  0  0  0  0  0  0  0  0  0
   19.1824   -7.6178  -18.0496 C   0  0  1  0  0  0  0  0  0  0  0  0
   18.3121   -6.5975  -17.7624 O   0  0  0  0  0  0  0  0  0  0  0  0
   19.2120   -8.6612  -16.9555 C   0  0  2  0  0  0  0  0  0  0  0  0
   17.9309   -9.2807  -16.7836 N   0  0  0  0  0  0  0  0  0  0  0  0
   19.7121   -8.1516  -15.6614 C   0  0  0  0  0  0  0  0  0  0  0  0
   18.8749   -7.8566  -14.7744 O   0  0  0  0  0  0  0  0  0  0  0  0
   23.4774   -8.9348  -14.1323 C   0  0  0  0  0  0  0  0  0  0  0  0
   22.3322   -8.4241  -13.2858 C   0  0  2  0  0  0  0  0  0  0  0  0
   21.4455   -9.5511  -12.8327 C   0  0  0  0  0  0  0  0  0  0  0  0
   21.4902   -7.4140  -14.0616 C   0  0  2  0  0  0  0  0  0  0  0  0
   21.0820   -7.9698  -15.3434 N   0  0  0  0  0  0  0  0  0  0  0  0
   22.3377   -6.2231  -14.2773 C   0  0  0  0  0  0  0  0  0  0  0  0
   22.7186   -5.9033  -15.5654 O   0  0  0  0  0  0  0  0  0  0  0  0
   22.7233   -5.4930  -13.3357 O   0  0  0  0  0  0  0  0  0  0  0  0
  2  1  1  0
  3  2  1  0
  3  4  2  0
  6  5  1  6
  6  8  1  0
  7  6  1  0
  8  9  1  1
  9  3  1  0
 10  8  1  0
 11 10  2  0
 13 12  1  6
 13 14  1  0
 15 13  1  0
 15 16  1  6
 16 10  1  0
 17 15  1  0
 18 17  1  0
 19 17  2  0
M  END
$$$$
