GTV.pdb
     RDKit          3D

 19 18  0  0  1  0  0  0  0  0999 V2000
   21.9738  -13.2453  -17.7061 N   0  0  0  0  0  0  0  0  0  0  0  0
   21.3590  -12.0084  -18.1377 C   0  0  0  0  0  0  0  0  0  0  0  0
   20.8835  -11.2373  -16.9758 C   0  0  0  0  0  0  0  0  0  0  0  0
   20.0500  -11.7536  -16.1931 O   0  0  0  0  0  0  0  0  0  0  0  0
   22.4670   -9.9446  -13.9500 C   0  0  0  0  0  0  0  0  0  0  0  0
   21.9067   -8.7503  -14.6677 C   0  0  1  0  0  0  0  0  0  0  0  0
   22.9226   -8.0316  -15.2440 O   0  0  0  0  0  0  0  0  0  0  0  0
   20.8319   -9.1127  -15.6678 C   0  0  2  0  0  0  0  0  0  0  0  0
   21.3516   -9.9244  -16.7288 N   0  0  0  0  0  0  0  0  0  0  0  0
   20.1160   -7.9439  -16.2209 C   0  0  0  0  0  0  0  0  0  0  0  0
   20.4438   -7.5292  -17.3590 O   0  0  0  0  0  0  0  0  0  0  0  0
   16.3253   -5.0283  -16.9129 C   0  0  0  0  0  0  0  0  0  0  0  0
   16.9815   -6.2868  -16.3892 C   0  0  2  0  0  0  0  0  0  0  0  0
   16.3360   -6.7459  -15.1109 C   0  0  0  0  0  0  0  0  0  0  0  0
   18.4702   -6.0599  -16.1372 C   0  0  2  0  0  0  0  0  0  0  0  0
   19.0747   -7.2490  -15.5548 N   0  0  0  0  0  0  0  0  0  0  0  0
   18.5791   -4.9277  -15.1941 C   0  0  0  0  0  0  0  0  0  0  0  0
   18.8760   -5.1909  -13.8717 O   0  0  0  0  0  0  0  0  0  0  0  0
   18.4121   -3.7385  -15.5494 O   0  0  0  0  0  0  0  0  0  0  0  0
  2  1  1  0
  3  2  1  0
  3  4  2  0
  6  5  1  6
  6  8  1  0
  7  6  1  0
  8  9  1  6
  9  3  1  0
 10  8  1  0
 11 10  2  0
 13 12  1  1
 13 14  1  0
 15 13  1  0
 15 16  1  1
 16 10  1  0
 17 15  1  0
 18 17  1  0
 19 17  2  0
M  END
$$$$
