GTV.pdb
     RDKit          3D

 19 18  0  0  1  0  0  0  0  0999 V2000
   17.2066  -15.6480  -17.2853 N   0  0  0  0  0  0  0  0  0  0  0  0
   16.9199  -14.3335  -16.7522 C   0  0  0  0  0  0  0  0  0  0  0  0
   18.0455  -13.4179  -17.0075 C   0  0  0  0  0  0  0  0  0  0  0  0
   19.1124  -13.8719  -17.4868 O   0  0  0  0  0  0  0  0  0  0  0  0
   18.0301  -10.7651  -19.4313 C   0  0  0  0  0  0  0  0  0  0  0  0
   18.4219  -10.1120  -18.1370 C   0  0  1  0  0  0  0  0  0  0  0  0
   17.3730   -9.3763  -17.6478 O   0  0  0  0  0  0  0  0  0  0  0  0
   18.9493  -11.0943  -17.1155 C   0  0  2  0  0  0  0  0  0  0  0  0
   17.9426  -12.0354  -16.7210 N   0  0  0  0  0  0  0  0  0  0  0  0
   19.5443  -10.4518  -15.9248 C   0  0  0  0  0  0  0  0  0  0  0  0
   18.8491  -10.3689  -14.8834 O   0  0  0  0  0  0  0  0  0  0  0  0
   23.7060   -9.4426  -15.5683 C   0  0  0  0  0  0  0  0  0  0  0  0
   22.8141   -9.8046  -14.4012 C   0  0  2  0  0  0  0  0  0  0  0  0
   22.8051  -11.2895  -14.1631 C   0  0  0  0  0  0  0  0  0  0  0  0
   21.3820   -9.3345  -14.6443 C   0  0  2  0  0  0  0  0  0  0  0  0
   20.8565   -9.9169  -15.8704 N   0  0  0  0  0  0  0  0  0  0  0  0
   21.4273   -7.8626  -14.7666 C   0  0  0  0  0  0  0  0  0  0  0  0
   21.6212   -7.1072  -13.6273 O   0  0  0  0  0  0  0  0  0  0  0  0
   21.2965   -7.2750  -15.8647 O   0  0  0  0  0  0  0  0  0  0  0  0
  2  1  1  0
  3  2  1  0
  3  4  2  0
  6  5  1  6
  6  8  1  0
  7  6  1  0
  8  9  1  1
  9  3  1  0
 10  8  1  0
 11 10  2  0
 13 12  1  6
 13 14  1  0
 15 13  1  0
 15 16  1  6
 16 10  1  0
 17 15  1  0
 18 17  1  0
 19 17  2  0
M  END
$$$$
