GTV.pdb
     RDKit          3D

 19 18  0  0  1  0  0  0  0  0999 V2000
   21.4282  -15.6825  -19.6603 N   0  0  0  0  0  0  0  0  0  0  0  0
   20.6690  -14.4925  -19.3413 C   0  0  0  0  0  0  0  0  0  0  0  0
   21.5618  -13.4295  -18.8478 C   0  0  0  0  0  0  0  0  0  0  0  0
   22.6957  -13.7335  -18.4053 O   0  0  0  0  0  0  0  0  0  0  0  0
   23.1187  -10.7385  -20.6791 C   0  0  0  0  0  0  0  0  0  0  0  0
   22.3600  -10.0713  -19.5681 C   0  0  1  0  0  0  0  0  0  0  0  0
   21.2429   -9.4537  -20.0695 O   0  0  0  0  0  0  0  0  0  0  0  0
   22.0248  -11.0127  -18.4331 C   0  0  2  0  0  0  0  0  0  0  0  0
   21.1610  -12.0719  -18.8649 N   0  0  0  0  0  0  0  0  0  0  0  0
   21.4538  -10.3369  -17.2492 C   0  0  0  0  0  0  0  0  0  0  0  0
   20.2108  -10.3784  -17.0820 O   0  0  0  0  0  0  0  0  0  0  0  0
   23.5031   -9.7620  -13.7825 C   0  0  0  0  0  0  0  0  0  0  0  0
   22.0003   -9.5960  -13.8366 C   0  0  2  0  0  0  0  0  0  0  0  0
   21.3006  -10.9176  -13.6771 C   0  0  0  0  0  0  0  0  0  0  0  0
   21.5696   -8.9653  -15.1586 C   0  0  2  0  0  0  0  0  0  0  0  0
   22.2138   -9.6380  -16.2771 N   0  0  0  0  0  0  0  0  0  0  0  0
   21.9881   -7.5488  -15.1159 C   0  0  0  0  0  0  0  0  0  0  0  0
   22.9916   -7.1267  -15.9651 O   0  0  0  0  0  0  0  0  0  0  0  0
   21.4666   -6.7170  -14.3383 O   0  0  0  0  0  0  0  0  0  0  0  0
  2  1  1  0
  3  2  1  0
  3  4  2  0
  6  5  1  6
  6  8  1  0
  7  6  1  0
  8  9  1  6
  9  3  1  0
 10  8  1  0
 11 10  2  0
 13 12  1  6
 13 14  1  0
 15 13  1  0
 15 16  1  6
 16 10  1  0
 17 15  1  0
 18 17  1  0
 19 17  2  0
M  END
$$$$
