GVD.pdb
     RDKit          3D

 20 19  0  0  1  0  0  0  0  0999 V2000
    7.2986  -14.4944   20.2298 N   0  0  0  0  0  0  0  0  0  0  0  0
    6.4196  -14.4874   21.3635 C   0  0  0  0  0  0  0  0  0  0  0  0
    7.2008  -14.2182   22.5882 C   0  0  0  0  0  0  0  0  0  0  0  0
    8.4509  -14.2608   22.5170 O   0  0  0  0  0  0  0  0  0  0  0  0
    7.7299  -12.6622   27.2540 C   0  0  0  0  0  0  0  0  0  0  0  0
    6.7713  -12.9067   26.0957 C   0  0  1  0  0  0  0  0  0  0  0  0
    6.1185  -11.6400   25.6242 C   0  0  0  0  0  0  0  0  0  0  0  0
    7.4374  -13.6786   24.9851 C   0  0  2  0  0  0  0  0  0  0  0  0
    6.6332  -13.9125   23.8486 N   0  0  0  0  0  0  0  0  0  0  0  0
    7.9582  -14.9539   25.5220 C   0  0  0  0  0  0  0  0  0  0  0  0
    7.1647  -15.8877   25.7526 O   0  0  0  0  0  0  0  0  0  0  0  0
    9.3382  -15.1251   25.7752 N   0  0  0  0  0  0  0  0  0  0  0  0
    9.9522  -16.3916   26.0804 C   0  0  1  0  0  0  0  0  0  0  0  0
   11.2124  -16.6606   25.2942 C   0  0  0  0  0  0  0  0  0  0  0  0
   11.8405  -17.9566   25.5975 C   0  0  0  0  0  0  0  0  0  0  0  0
   11.1467  -18.9963   25.5889 O   0  0  0  0  0  0  0  0  0  0  0  0
   10.2192  -16.5661   27.5179 C   0  0  0  0  0  0  0  0  0  0  0  0
   10.1981  -17.8514   28.0348 O   0  0  0  0  0  0  0  0  0  0  0  0
   13.1866  -18.0433   25.8919 O   0  0  0  0  0  0  0  0  0  0  0  0
   10.4588  -15.5713   28.2487 O   0  0  0  0  0  0  0  0  0  0  0  0
  2  1  1  0
  3  2  1  0
  4  3  2  0
  6  8  1  0
  6  5  1  1
  7  6  1  0
  8  9  1  6
  9  3  1  0
 10  8  1  0
 10 12  1  0
 11 10  2  0
 13 17  1  0
 13 12  1  0
 13 14  1  6
 15 14  1  0
 15 19  1  0
 16 15  2  0
 17 18  1  0
 20 17  2  0
M  END
$$$$
