GVD.pdb
     RDKit          3D

 20 19  0  0  1  0  0  0  0  0999 V2000
    7.4103  -15.3221   20.6400 N   0  0  0  0  0  0  0  0  0  0  0  0
    6.5639  -15.2217   21.7939 C   0  0  0  0  0  0  0  0  0  0  0  0
    7.3481  -14.7040   22.9339 C   0  0  0  0  0  0  0  0  0  0  0  0
    8.5928  -14.6284   22.8134 O   0  0  0  0  0  0  0  0  0  0  0  0
    7.9447  -12.5281   27.3173 C   0  0  0  0  0  0  0  0  0  0  0  0
    6.9624  -12.9524   26.2332 C   0  0  1  0  0  0  0  0  0  0  0  0
    6.3104  -11.7753   25.5681 C   0  0  0  0  0  0  0  0  0  0  0  0
    7.6015  -13.9059   25.2558 C   0  0  2  0  0  0  0  0  0  0  0  0
    6.7891  -14.2831   24.1645 N   0  0  0  0  0  0  0  0  0  0  0  0
    8.0796  -15.1013   25.9825 C   0  0  0  0  0  0  0  0  0  0  0  0
    7.2481  -15.9133   26.4343 O   0  0  0  0  0  0  0  0  0  0  0  0
    9.4614  -15.3324   26.1697 N   0  0  0  0  0  0  0  0  0  0  0  0
   10.0112  -16.5512   26.7050 C   0  0  1  0  0  0  0  0  0  0  0  0
   11.2557  -17.0208   25.9914 C   0  0  0  0  0  0  0  0  0  0  0  0
   11.8344  -18.2539   26.5485 C   0  0  0  0  0  0  0  0  0  0  0  0
   11.1068  -19.0433   27.1888 O   0  0  0  0  0  0  0  0  0  0  0  0
   10.2702  -16.4744   28.1525 C   0  0  0  0  0  0  0  0  0  0  0  0
   10.2987  -17.6567   28.8744 O   0  0  0  0  0  0  0  0  0  0  0  0
   13.1709  -18.5541   26.3754 O   0  0  0  0  0  0  0  0  0  0  0  0
   10.4591  -15.3632   28.7098 O   0  0  0  0  0  0  0  0  0  0  0  0
  2  1  1  0
  3  2  1  0
  4  3  2  0
  6  8  1  0
  6  5  1  1
  7  6  1  0
  8  9  1  6
  9  3  1  0
 10  8  1  0
 10 12  1  0
 11 10  2  0
 13 17  1  0
 13 12  1  0
 13 14  1  6
 15 14  1  0
 15 19  1  0
 16 15  2  0
 17 18  1  0
 20 17  2  0
M  END
$$$$
