GVD.pdb
     RDKit          3D

 20 19  0  0  1  0  0  0  0  0999 V2000
    7.8620  -15.4834   20.9930 N   0  0  0  0  0  0  0  0  0  0  0  0
    6.9834  -15.4494   22.1265 C   0  0  0  0  0  0  0  0  0  0  0  0
    7.6489  -14.7457   23.2421 C   0  0  0  0  0  0  0  0  0  0  0  0
    8.8484  -14.4120   23.1030 O   0  0  0  0  0  0  0  0  0  0  0  0
    7.8158  -12.6077   27.7023 C   0  0  0  0  0  0  0  0  0  0  0  0
    6.9549  -13.0755   26.5360 C   0  0  1  0  0  0  0  0  0  0  0  0
    6.2153  -11.9415   25.8878 C   0  0  0  0  0  0  0  0  0  0  0  0
    7.7554  -13.8968   25.5573 C   0  0  2  0  0  0  0  0  0  0  0  0
    7.0229  -14.4181   24.4689 N   0  0  0  0  0  0  0  0  0  0  0  0
    8.4470  -14.9831   26.2835 C   0  0  0  0  0  0  0  0  0  0  0  0
    7.7902  -15.9662   26.6797 O   0  0  0  0  0  0  0  0  0  0  0  0
    9.8369  -14.9196   26.5321 N   0  0  0  0  0  0  0  0  0  0  0  0
   10.5880  -15.9579   27.1894 C   0  0  1  0  0  0  0  0  0  0  0  0
   12.0198  -16.0602   26.7222 C   0  0  0  0  0  0  0  0  0  0  0  0
   12.1974  -16.8863   25.5172 C   0  0  0  0  0  0  0  0  0  0  0  0
   11.2134  -17.4787   25.0239 O   0  0  0  0  0  0  0  0  0  0  0  0
   10.5534  -15.8471   28.6573 C   0  0  0  0  0  0  0  0  0  0  0  0
   10.7783  -16.9923   29.4041 O   0  0  0  0  0  0  0  0  0  0  0  0
   13.4357  -17.0182   24.9211 O   0  0  0  0  0  0  0  0  0  0  0  0
   10.3256  -14.7406   29.2094 O   0  0  0  0  0  0  0  0  0  0  0  0
  2  1  1  0
  3  2  1  0
  4  3  2  0
  6  8  1  0
  6  5  1  1
  7  6  1  0
  8  9  1  6
  9  3  1  0
 10  8  1  0
 10 12  1  0
 11 10  2  0
 13 17  1  0
 13 12  1  0
 13 14  1  6
 15 14  1  0
 15 19  1  0
 16 15  2  0
 17 18  1  0
 20 17  2  0
M  END
$$$$
