GVD.pdb
     RDKit          3D

 20 19  0  0  1  0  0  0  0  0999 V2000
    4.5670  -18.6421   23.1969 N   0  0  0  0  0  0  0  0  0  0  0  0
    4.9536  -18.1727   24.4962 C   0  0  0  0  0  0  0  0  0  0  0  0
    5.8822  -17.0330   24.3496 C   0  0  0  0  0  0  0  0  0  0  0  0
    6.3877  -16.8193   23.2235 O   0  0  0  0  0  0  0  0  0  0  0  0
    8.3255  -13.0317   25.9216 C   0  0  0  0  0  0  0  0  0  0  0  0
    7.2175  -14.0379   26.2049 C   0  0  1  0  0  0  0  0  0  0  0  0
    5.8661  -13.3879   26.2714 C   0  0  0  0  0  0  0  0  0  0  0  0
    7.2701  -15.1979   25.2433 C   0  0  2  0  0  0  0  0  0  0  0  0
    6.2455  -16.1564   25.4003 N   0  0  0  0  0  0  0  0  0  0  0  0
    8.5983  -15.8415   25.3279 C   0  0  0  0  0  0  0  0  0  0  0  0
    9.0220  -16.2219   26.4372 O   0  0  0  0  0  0  0  0  0  0  0  0
    9.3888  -16.0291   24.1713 N   0  0  0  0  0  0  0  0  0  0  0  0
   10.7746  -16.4207   24.1950 C   0  0  1  0  0  0  0  0  0  0  0  0
   11.6938  -15.4426   23.5043 C   0  0  0  0  0  0  0  0  0  0  0  0
   13.0246  -15.9898   23.1950 C   0  0  0  0  0  0  0  0  0  0  0  0
   13.9203  -15.9652   24.0665 O   0  0  0  0  0  0  0  0  0  0  0  0
   11.2700  -16.6889   25.5554 C   0  0  0  0  0  0  0  0  0  0  0  0
   11.5856  -17.9960   25.8897 O   0  0  0  0  0  0  0  0  0  0  0  0
   13.3008  -16.5311   21.9553 O   0  0  0  0  0  0  0  0  0  0  0  0
   11.4001  -15.7524   26.3843 O   0  0  0  0  0  0  0  0  0  0  0  0
  2  1  1  0
  3  2  1  0
  4  3  2  0
  6  8  1  0
  6  5  1  6
  7  6  1  0
  8  9  1  1
  9  3  1  0
 10  8  1  0
 10 12  1  0
 11 10  2  0
 13 17  1  0
 13 12  1  0
 13 14  1  1
 15 14  1  0
 15 19  1  0
 16 15  2  0
 17 18  1  0
 20 17  2  0
M  END
$$$$
