GVD.pdb
     RDKit          3D

 20 19  0  0  1  0  0  0  0  0999 V2000
    8.5639  -16.6322   15.7312 N   0  0  0  0  0  0  0  0  0  0  0  0
    7.8987  -16.9189   16.9694 C   0  0  0  0  0  0  0  0  0  0  0  0
    8.6382  -16.2868   18.0813 C   0  0  0  0  0  0  0  0  0  0  0  0
    9.8663  -16.5125   18.1824 O   0  0  0  0  0  0  0  0  0  0  0  0
    7.9058  -12.6602   20.0513 C   0  0  0  0  0  0  0  0  0  0  0  0
    8.1437  -13.8669   20.9500 C   0  0  1  0  0  0  0  0  0  0  0  0
    6.9050  -14.2700   21.6959 C   0  0  0  0  0  0  0  0  0  0  0  0
    8.7719  -15.0050   20.1864 C   0  0  2  0  0  0  0  0  0  0  0  0
    8.0534  -15.4363   19.0502 N   0  0  0  0  0  0  0  0  0  0  0  0
    9.0117  -16.1364   21.1073 C   0  0  0  0  0  0  0  0  0  0  0  0
    8.5653  -17.2639   20.8172 O   0  0  0  0  0  0  0  0  0  0  0  0
    9.7375  -15.9547   22.3065 N   0  0  0  0  0  0  0  0  0  0  0  0
   10.8603  -16.7656   22.7016 C   0  0  1  0  0  0  0  0  0  0  0  0
   11.9846  -16.7781   21.6943 C   0  0  0  0  0  0  0  0  0  0  0  0
   12.4970  -18.1232   21.3876 C   0  0  0  0  0  0  0  0  0  0  0  0
   12.1415  -19.0945   22.0896 O   0  0  0  0  0  0  0  0  0  0  0  0
   11.3884  -16.4042   24.0277 C   0  0  0  0  0  0  0  0  0  0  0  0
   11.5930  -15.0624   24.3057 O   0  0  0  0  0  0  0  0  0  0  0  0
   13.3659  -18.3307   20.3349 O   0  0  0  0  0  0  0  0  0  0  0  0
   11.6436  -17.2945   24.8781 O   0  0  0  0  0  0  0  0  0  0  0  0
  2  1  1  0
  3  2  1  0
  4  3  2  0
  6  8  1  0
  6  5  1  6
  7  6  1  0
  8  9  1  6
  9  3  1  0
 10  8  1  0
 10 12  1  0
 11 10  2  0
 13 17  1  0
 13 12  1  0
 13 14  1  6
 15 14  1  0
 15 19  1  0
 16 15  2  0
 17 18  1  0
 20 17  2  0
M  END
$$$$
