GVD.pdb
     RDKit          3D

 20 19  0  0  1  0  0  0  0  0999 V2000
    9.3483  -17.6739   16.7949 N   0  0  0  0  0  0  0  0  0  0  0  0
    8.2433  -17.4364   17.6783 C   0  0  0  0  0  0  0  0  0  0  0  0
    8.6631  -16.5119   18.7515 C   0  0  0  0  0  0  0  0  0  0  0  0
    9.8786  -16.4616   19.0507 O   0  0  0  0  0  0  0  0  0  0  0  0
    8.0056  -12.8770   22.0243 C   0  0  0  0  0  0  0  0  0  0  0  0
    7.4241  -13.6593   20.8537 C   0  0  1  0  0  0  0  0  0  0  0  0
    7.2275  -12.7985   19.6398 C   0  0  0  0  0  0  0  0  0  0  0  0
    8.2259  -14.9047   20.5731 C   0  0  2  0  0  0  0  0  0  0  0  0
    7.7824  -15.6708   19.4733 N   0  0  0  0  0  0  0  0  0  0  0  0
    8.2794  -15.7357   21.7947 C   0  0  0  0  0  0  0  0  0  0  0  0
    7.3655  -16.5548   22.0154 O   0  0  0  0  0  0  0  0  0  0  0  0
    9.3494  -15.6125   22.7100 N   0  0  0  0  0  0  0  0  0  0  0  0
    9.9476  -16.7217   23.4071 C   0  0  1  0  0  0  0  0  0  0  0  0
   10.4395  -17.8186   22.4941 C   0  0  0  0  0  0  0  0  0  0  0  0
   11.0403  -18.9605   23.2020 C   0  0  0  0  0  0  0  0  0  0  0  0
   10.4682  -19.4345   24.2073 O   0  0  0  0  0  0  0  0  0  0  0  0
   11.0319  -16.3097   24.3141 C   0  0  0  0  0  0  0  0  0  0  0  0
   12.0539  -15.5293   23.7980 O   0  0  0  0  0  0  0  0  0  0  0  0
   12.2283  -19.5183   22.7733 O   0  0  0  0  0  0  0  0  0  0  0  0
   11.0230  -16.6604   25.5215 O   0  0  0  0  0  0  0  0  0  0  0  0
  2  1  1  0
  3  2  1  0
  4  3  2  0
  6  8  1  0
  6  5  1  1
  7  6  1  0
  8  9  1  6
  9  3  1  0
 10  8  1  0
 10 12  1  0
 11 10  2  0
 13 17  1  0
 13 12  1  0
 13 14  1  6
 15 14  1  0
 15 19  1  0
 16 15  2  0
 17 18  1  0
 20 17  2  0
M  END
$$$$
