GVD.pdb
     RDKit          3D

 20 19  0  0  1  0  0  0  0  0999 V2000
    9.0116  -17.4876   16.2130 N   0  0  0  0  0  0  0  0  0  0  0  0
    8.0437  -17.3540   17.2633 C   0  0  0  0  0  0  0  0  0  0  0  0
    8.6071  -16.5224   18.3466 C   0  0  0  0  0  0  0  0  0  0  0  0
    9.8491  -16.5217   18.5106 O   0  0  0  0  0  0  0  0  0  0  0  0
    8.2639  -13.1815   22.0026 C   0  0  0  0  0  0  0  0  0  0  0  0
    7.5779  -13.8646   20.8265 C   0  0  1  0  0  0  0  0  0  0  0  0
    7.1102  -12.8801   19.7944 C   0  0  0  0  0  0  0  0  0  0  0  0
    8.4370  -14.9621   20.2516 C   0  0  2  0  0  0  0  0  0  0  0  0
    7.8373  -15.7184   19.2214 N   0  0  0  0  0  0  0  0  0  0  0  0
    8.8935  -15.8469   21.3445 C   0  0  0  0  0  0  0  0  0  0  0  0
    8.1478  -16.7660   21.7368 O   0  0  0  0  0  0  0  0  0  0  0  0
   10.1592  -15.6632   21.9462 N   0  0  0  0  0  0  0  0  0  0  0  0
   10.6555  -16.4559   23.0415 C   0  0  1  0  0  0  0  0  0  0  0  0
   12.1597  -16.4441   23.1669 C   0  0  0  0  0  0  0  0  0  0  0  0
   12.8601  -17.0271   22.0113 C   0  0  0  0  0  0  0  0  0  0  0  0
   12.3950  -18.0463   21.4569 O   0  0  0  0  0  0  0  0  0  0  0  0
   10.0486  -16.0913   24.3325 C   0  0  0  0  0  0  0  0  0  0  0  0
   10.1827  -16.9760   25.3903 O   0  0  0  0  0  0  0  0  0  0  0  0
   14.0253  -16.4658   21.5281 O   0  0  0  0  0  0  0  0  0  0  0  0
    9.4279  -15.0056   24.4628 O   0  0  0  0  0  0  0  0  0  0  0  0
  2  1  1  0
  3  2  1  0
  4  3  2  0
  6  8  1  0
  6  5  1  1
  7  6  1  0
  8  9  1  6
  9  3  1  0
 10  8  1  0
 10 12  1  0
 11 10  2  0
 13 17  1  0
 13 12  1  0
 13 14  1  1
 15 14  1  0
 15 19  1  0
 16 15  2  0
 17 18  1  0
 20 17  2  0
M  END
$$$$
