GVD.pdb
     RDKit          3D

 20 19  0  0  1  0  0  0  0  0999 V2000
    8.8251  -17.7650   16.9978 N   0  0  0  0  0  0  0  0  0  0  0  0
    7.9481  -17.6703   18.1291 C   0  0  0  0  0  0  0  0  0  0  0  0
    8.5509  -16.7818   19.1440 C   0  0  0  0  0  0  0  0  0  0  0  0
    9.7973  -16.7828   19.2696 O   0  0  0  0  0  0  0  0  0  0  0  0
    8.3404  -13.2888   22.6631 C   0  0  0  0  0  0  0  0  0  0  0  0
    7.6700  -13.9476   21.4643 C   0  0  1  0  0  0  0  0  0  0  0  0
    7.3836  -12.9657   20.3657 C   0  0  0  0  0  0  0  0  0  0  0  0
    8.4455  -15.1522   20.9948 C   0  0  2  0  0  0  0  0  0  0  0  0
    7.8144  -15.9211   19.9931 N   0  0  0  0  0  0  0  0  0  0  0  0
    8.7852  -15.9976   22.1591 C   0  0  0  0  0  0  0  0  0  0  0  0
    7.9092  -16.7340   22.6541 O   0  0  0  0  0  0  0  0  0  0  0  0
   10.0850  -15.9801   22.7141 N   0  0  0  0  0  0  0  0  0  0  0  0
   10.5518  -16.9131   23.7071 C   0  0  1  0  0  0  0  0  0  0  0  0
   12.0215  -17.2375   23.5920 C   0  0  0  0  0  0  0  0  0  0  0  0
   12.5117  -18.1633   24.6258 C   0  0  0  0  0  0  0  0  0  0  0  0
   13.1491  -17.7159   25.6036 O   0  0  0  0  0  0  0  0  0  0  0  0
   10.2459  -16.4854   25.0824 C   0  0  0  0  0  0  0  0  0  0  0  0
   10.3259  -15.1345   25.3793 O   0  0  0  0  0  0  0  0  0  0  0  0
   12.2787  -19.5210   24.5333 O   0  0  0  0  0  0  0  0  0  0  0  0
    9.9219  -17.3290   25.9567 O   0  0  0  0  0  0  0  0  0  0  0  0
  2  1  1  0
  3  2  1  0
  4  3  2  0
  6  8  1  0
  6  5  1  1
  7  6  1  0
  8  9  1  6
  9  3  1  0
 10  8  1  0
 10 12  1  0
 11 10  2  0
 13 17  1  0
 13 12  1  0
 13 14  1  1
 15 14  1  0
 15 19  1  0
 16 15  2  0
 17 18  1  0
 20 17  2  0
M  END
$$$$
