GVD.pdb
     RDKit          3D

 20 19  0  0  1  0  0  0  0  0999 V2000
    7.6844  -14.9464   20.5065 N   0  0  0  0  0  0  0  0  0  0  0  0
    6.7379  -14.7827   21.5719 C   0  0  0  0  0  0  0  0  0  0  0  0
    7.4605  -14.5289   22.8353 C   0  0  0  0  0  0  0  0  0  0  0  0
    8.7076  -14.6478   22.8408 O   0  0  0  0  0  0  0  0  0  0  0  0
    7.7748  -12.9373   27.5162 C   0  0  0  0  0  0  0  0  0  0  0  0
    6.8889  -13.1270   26.2916 C   0  0  1  0  0  0  0  0  0  0  0  0
    6.3425  -11.8254   25.7813 C   0  0  0  0  0  0  0  0  0  0  0  0
    7.5886  -13.9336   25.2273 C   0  0  2  0  0  0  0  0  0  0  0  0
    6.8392  -14.1574   24.0520 N   0  0  0  0  0  0  0  0  0  0  0  0
    8.0395  -15.2172   25.8059 C   0  0  0  0  0  0  0  0  0  0  0  0
    7.1998  -16.1085   26.0408 O   0  0  0  0  0  0  0  0  0  0  0  0
    9.4047  -15.4437   26.0939 N   0  0  0  0  0  0  0  0  0  0  0  0
    9.9334  -16.6978   26.5652 C   0  0  1  0  0  0  0  0  0  0  0  0
   11.1112  -17.1991   25.7652 C   0  0  0  0  0  0  0  0  0  0  0  0
   10.8566  -18.4627   25.0550 C   0  0  0  0  0  0  0  0  0  0  0  0
   10.5803  -19.4929   25.7069 O   0  0  0  0  0  0  0  0  0  0  0  0
   10.2826  -16.6700   27.9953 C   0  0  0  0  0  0  0  0  0  0  0  0
   10.1864  -17.8505   28.7142 O   0  0  0  0  0  0  0  0  0  0  0  0
   10.9178  -18.5294   23.6773 O   0  0  0  0  0  0  0  0  0  0  0  0
   10.6566  -15.6007   28.5411 O   0  0  0  0  0  0  0  0  0  0  0  0
  2  1  1  0
  3  2  1  0
  4  3  2  0
  6  8  1  0
  6  5  1  1
  7  6  1  0
  8  9  1  6
  9  3  1  0
 10  8  1  0
 10 12  1  0
 11 10  2  0
 13 17  1  0
 13 12  1  0
 13 14  1  6
 15 14  1  0
 15 19  1  0
 16 15  2  0
 17 18  1  0
 20 17  2  0
M  END
$$$$
