GVD.pdb
     RDKit          3D

 20 19  0  0  1  0  0  0  0  0999 V2000
    8.8039  -17.7478   16.4113 N   0  0  0  0  0  0  0  0  0  0  0  0
    7.9068  -17.5464   17.5125 C   0  0  0  0  0  0  0  0  0  0  0  0
    8.4568  -16.5094   18.4097 C   0  0  0  0  0  0  0  0  0  0  0  0
    9.6265  -16.1086   18.2081 O   0  0  0  0  0  0  0  0  0  0  0  0
    8.2164  -13.3239   22.1979 C   0  0  0  0  0  0  0  0  0  0  0  0
    7.4822  -14.0783   21.0969 C   0  0  1  0  0  0  0  0  0  0  0  0
    6.7977  -13.1511   20.1351 C   0  0  0  0  0  0  0  0  0  0  0  0
    8.3863  -15.0750   20.4171 C   0  0  2  0  0  0  0  0  0  0  0  0
    7.7504  -15.9304   19.4914 N   0  0  0  0  0  0  0  0  0  0  0  0
    9.1020  -15.8630   21.4430 C   0  0  0  0  0  0  0  0  0  0  0  0
    8.5300  -16.8358   21.9734 O   0  0  0  0  0  0  0  0  0  0  0  0
   10.4203  -15.5275   21.8269 N   0  0  0  0  0  0  0  0  0  0  0  0
   11.2377  -16.3330   22.6971 C   0  0  1  0  0  0  0  0  0  0  0  0
   12.7154  -16.0492   22.5766 C   0  0  0  0  0  0  0  0  0  0  0  0
   13.5571  -16.8839   23.4488 C   0  0  0  0  0  0  0  0  0  0  0  0
   13.2644  -18.0867   23.6224 O   0  0  0  0  0  0  0  0  0  0  0  0
   10.8304  -16.2433   24.1093 C   0  0  0  0  0  0  0  0  0  0  0  0
   11.0451  -17.3446   24.9221 O   0  0  0  0  0  0  0  0  0  0  0  0
   14.6673  -16.3594   24.0800 O   0  0  0  0  0  0  0  0  0  0  0  0
   10.3033  -15.1931   24.5568 O   0  0  0  0  0  0  0  0  0  0  0  0
  2  1  1  0
  3  2  1  0
  4  3  2  0
  6  8  1  0
  6  5  1  1
  7  6  1  0
  8  9  1  1
  9  3  1  0
 10  8  1  0
 10 12  1  0
 11 10  2  0
 13 17  1  0
 13 12  1  0
 13 14  1  1
 15 14  1  0
 15 19  1  0
 16 15  2  0
 17 18  1  0
 20 17  2  0
M  END
$$$$
