GVD.pdb
     RDKit          3D

 20 19  0  0  1  0  0  0  0  0999 V2000
    5.7896  -18.9971   18.9718 N   0  0  0  0  0  0  0  0  0  0  0  0
    5.3625  -17.8684   19.7473 C   0  0  0  0  0  0  0  0  0  0  0  0
    6.5125  -16.9712   19.9821 C   0  0  0  0  0  0  0  0  0  0  0  0
    7.6505  -17.3592   19.6301 O   0  0  0  0  0  0  0  0  0  0  0  0
    8.6693  -12.7315   21.3179 C   0  0  0  0  0  0  0  0  0  0  0  0
    7.3794  -13.4492   20.9419 C   0  0  1  0  0  0  0  0  0  0  0  0
    6.7764  -12.9052   19.6795 C   0  0  0  0  0  0  0  0  0  0  0  0
    7.5719  -14.9441   20.9100 C   0  0  2  0  0  0  0  0  0  0  0  0
    6.4205  -15.6922   20.5820 N   0  0  0  0  0  0  0  0  0  0  0  0
    8.1286  -15.3917   22.2044 C   0  0  0  0  0  0  0  0  0  0  0  0
    7.4117  -15.3493   23.2237 O   0  0  0  0  0  0  0  0  0  0  0  0
    9.4573  -15.8646   22.2983 N   0  0  0  0  0  0  0  0  0  0  0  0
   10.0388  -16.4059   23.4996 C   0  0  1  0  0  0  0  0  0  0  0  0
    9.8660  -17.8991   23.6384 C   0  0  0  0  0  0  0  0  0  0  0  0
   10.4599  -18.4579   24.8635 C   0  0  0  0  0  0  0  0  0  0  0  0
   10.5771  -17.7365   25.8777 O   0  0  0  0  0  0  0  0  0  0  0  0
   11.4606  -16.0560   23.6548 C   0  0  0  0  0  0  0  0  0  0  0  0
   12.0363  -16.2020   24.9065 O   0  0  0  0  0  0  0  0  0  0  0  0
   10.8907  -19.7687   24.9115 O   0  0  0  0  0  0  0  0  0  0  0  0
   12.1263  -15.6372   22.6737 O   0  0  0  0  0  0  0  0  0  0  0  0
  2  1  1  0
  3  2  1  0
  4  3  2  0
  6  8  1  0
  6  5  1  6
  7  6  1  0
  8  9  1  1
  9  3  1  0
 10  8  1  0
 10 12  1  0
 11 10  2  0
 13 17  1  0
 13 12  1  0
 13 14  1  6
 15 14  1  0
 15 19  1  0
 16 15  2  0
 17 18  1  0
 20 17  2  0
M  END
$$$$
