GVD.pdb
     RDKit          3D

 20 19  0  0  1  0  0  0  0  0999 V2000
    8.5872  -17.7241   16.3869 N   0  0  0  0  0  0  0  0  0  0  0  0
    7.6473  -17.4012   17.4214 C   0  0  0  0  0  0  0  0  0  0  0  0
    8.3036  -16.5447   18.4305 C   0  0  0  0  0  0  0  0  0  0  0  0
    9.5556  -16.5288   18.4728 O   0  0  0  0  0  0  0  0  0  0  0  0
    8.3140  -13.0838   21.9797 C   0  0  0  0  0  0  0  0  0  0  0  0
    7.5208  -13.8059   20.8981 C   0  0  1  0  0  0  0  0  0  0  0  0
    7.0053  -12.8633   19.8498 C   0  0  0  0  0  0  0  0  0  0  0  0
    8.3008  -14.9612   20.3239 C   0  0  2  0  0  0  0  0  0  0  0  0
    7.6131  -15.7327   19.3622 N   0  0  0  0  0  0  0  0  0  0  0  0
    8.7840  -15.8193   21.4266 C   0  0  0  0  0  0  0  0  0  0  0  0
    7.9786  -16.5686   22.0138 O   0  0  0  0  0  0  0  0  0  0  0  0
   10.1414  -15.7997   21.8201 N   0  0  0  0  0  0  0  0  0  0  0  0
   10.6940  -16.6336   22.8562 C   0  0  1  0  0  0  0  0  0  0  0  0
   12.2032  -16.6509   22.8813 C   0  0  0  0  0  0  0  0  0  0  0  0
   12.7733  -17.4861   23.9506 C   0  0  0  0  0  0  0  0  0  0  0  0
   12.4846  -18.7011   24.0058 O   0  0  0  0  0  0  0  0  0  0  0  0
   10.1808  -16.2982   24.1949 C   0  0  0  0  0  0  0  0  0  0  0  0
   10.2785  -14.9835   24.6213 O   0  0  0  0  0  0  0  0  0  0  0  0
   13.6237  -16.9487   24.8963 O   0  0  0  0  0  0  0  0  0  0  0  0
    9.6697  -17.1859   24.9242 O   0  0  0  0  0  0  0  0  0  0  0  0
  2  1  1  0
  3  2  1  0
  4  3  2  0
  6  8  1  0
  6  5  1  1
  7  6  1  0
  8  9  1  6
  9  3  1  0
 10  8  1  0
 10 12  1  0
 11 10  2  0
 13 17  1  0
 13 12  1  0
 13 14  1  1
 15 14  1  0
 15 19  1  0
 16 15  2  0
 17 18  1  0
 20 17  2  0
M  END
$$$$
