GVD.pdb
     RDKit          3D

 20 19  0  0  1  0  0  0  0  0999 V2000
    7.6173  -14.2759   20.1630 N   0  0  0  0  0  0  0  0  0  0  0  0
    6.6728  -14.3836   21.2374 C   0  0  0  0  0  0  0  0  0  0  0  0
    7.3674  -14.1724   22.5241 C   0  0  0  0  0  0  0  0  0  0  0  0
    8.6096  -14.3298   22.5617 O   0  0  0  0  0  0  0  0  0  0  0  0
    7.6492  -12.7497   27.2501 C   0  0  0  0  0  0  0  0  0  0  0  0
    6.7705  -12.8684   26.0114 C   0  0  1  0  0  0  0  0  0  0  0  0
    6.3165  -11.5287   25.5092 C   0  0  0  0  0  0  0  0  0  0  0  0
    7.4320  -13.7067   24.9472 C   0  0  2  0  0  0  0  0  0  0  0  0
    6.7241  -13.8014   23.7294 N   0  0  0  0  0  0  0  0  0  0  0  0
    7.7101  -15.0534   25.4902 C   0  0  0  0  0  0  0  0  0  0  0  0
    6.8739  -15.9630   25.3227 O   0  0  0  0  0  0  0  0  0  0  0  0
    8.9070  -15.3194   26.1933 N   0  0  0  0  0  0  0  0  0  0  0  0
    9.6091  -16.5761   26.1462 C   0  0  1  0  0  0  0  0  0  0  0  0
   10.4671  -16.7465   24.9160 C   0  0  0  0  0  0  0  0  0  0  0  0
   11.1945  -18.0250   24.8674 C   0  0  0  0  0  0  0  0  0  0  0  0
   12.4059  -18.0585   25.1740 O   0  0  0  0  0  0  0  0  0  0  0  0
   10.4173  -16.8253   27.3515 C   0  0  0  0  0  0  0  0  0  0  0  0
   10.7466  -15.7436   28.1522 O   0  0  0  0  0  0  0  0  0  0  0  0
   10.5596  -19.1908   24.4879 O   0  0  0  0  0  0  0  0  0  0  0  0
   10.7940  -17.9901   27.6387 O   0  0  0  0  0  0  0  0  0  0  0  0
  2  1  1  0
  3  2  1  0
  4  3  2  0
  6  8  1  0
  6  5  1  1
  7  6  1  0
  8  9  1  6
  9  3  1  0
 10  8  1  0
 10 12  1  0
 11 10  2  0
 13 17  1  0
 13 12  1  0
 13 14  1  6
 15 14  1  0
 15 19  1  0
 16 15  2  0
 17 18  1  0
 20 17  2  0
M  END
$$$$
