GVD.pdb
     RDKit          3D

 20 19  0  0  1  0  0  0  0  0999 V2000
    8.7002  -17.7191   16.7021 N   0  0  0  0  0  0  0  0  0  0  0  0
    7.9577  -17.6784   17.9289 C   0  0  0  0  0  0  0  0  0  0  0  0
    8.4820  -16.5936   18.7838 C   0  0  0  0  0  0  0  0  0  0  0  0
    9.7110  -16.3529   18.7516 O   0  0  0  0  0  0  0  0  0  0  0  0
    8.0881  -12.9711   22.1341 C   0  0  0  0  0  0  0  0  0  0  0  0
    7.4409  -13.7516   20.9973 C   0  0  1  0  0  0  0  0  0  0  0  0
    7.1022  -12.8728   19.8284 C   0  0  0  0  0  0  0  0  0  0  0  0
    8.2680  -14.9527   20.6152 C   0  0  2  0  0  0  0  0  0  0  0  0
    7.6880  -15.7987   19.6452 N   0  0  0  0  0  0  0  0  0  0  0  0
    8.6073  -15.7185   21.8335 C   0  0  0  0  0  0  0  0  0  0  0  0
    7.7545  -16.4787   22.3331 O   0  0  0  0  0  0  0  0  0  0  0  0
    9.8810  -15.5990   22.4346 N   0  0  0  0  0  0  0  0  0  0  0  0
   10.2822  -16.3053   23.6239 C   0  0  1  0  0  0  0  0  0  0  0  0
   11.7776  -16.3588   23.8229 C   0  0  0  0  0  0  0  0  0  0  0  0
   12.5172  -16.8719   22.6586 C   0  0  0  0  0  0  0  0  0  0  0  0
   12.1148  -17.9022   22.0762 O   0  0  0  0  0  0  0  0  0  0  0  0
    9.6393  -15.7853   24.8422 C   0  0  0  0  0  0  0  0  0  0  0  0
    9.6917  -16.5600   25.9898 O   0  0  0  0  0  0  0  0  0  0  0  0
   13.6509  -16.2327   22.1977 O   0  0  0  0  0  0  0  0  0  0  0  0
    9.0613  -14.6687   24.8329 O   0  0  0  0  0  0  0  0  0  0  0  0
  2  1  1  0
  3  2  1  0
  4  3  2  0
  6  8  1  0
  6  5  1  1
  7  6  1  0
  8  9  1  6
  9  3  1  0
 10  8  1  0
 10 12  1  0
 11 10  2  0
 13 17  1  0
 13 12  1  0
 13 14  1  1
 15 14  1  0
 15 19  1  0
 16 15  2  0
 17 18  1  0
 20 17  2  0
M  END
$$$$
