GVD.pdb
     RDKit          3D

 20 19  0  0  1  0  0  0  0  0999 V2000
    8.9871  -17.7275   16.3724 N   0  0  0  0  0  0  0  0  0  0  0  0
    7.9780  -17.3241   17.3088 C   0  0  0  0  0  0  0  0  0  0  0  0
    8.5532  -16.3527   18.2617 C   0  0  0  0  0  0  0  0  0  0  0  0
    9.7817  -16.1153   18.1994 O   0  0  0  0  0  0  0  0  0  0  0  0
    8.2907  -13.1034   21.9971 C   0  0  0  0  0  0  0  0  0  0  0  0
    7.5904  -13.7805   20.8260 C   0  0  1  0  0  0  0  0  0  0  0  0
    7.1133  -12.7910   19.8031 C   0  0  0  0  0  0  0  0  0  0  0  0
    8.4408  -14.8775   20.2374 C   0  0  2  0  0  0  0  0  0  0  0  0
    7.8091  -15.6640   19.2497 N   0  0  0  0  0  0  0  0  0  0  0  0
    8.9572  -15.7321   21.3276 C   0  0  0  0  0  0  0  0  0  0  0  0
    8.2327  -16.6359   21.7891 O   0  0  0  0  0  0  0  0  0  0  0  0
   10.2562  -15.5369   21.8494 N   0  0  0  0  0  0  0  0  0  0  0  0
   10.8842  -16.4154   22.8024 C   0  0  1  0  0  0  0  0  0  0  0  0
   12.3839  -16.2599   22.8752 C   0  0  0  0  0  0  0  0  0  0  0  0
   13.0325  -17.1660   23.8366 C   0  0  0  0  0  0  0  0  0  0  0  0
   13.2544  -16.7735   25.0025 O   0  0  0  0  0  0  0  0  0  0  0  0
   10.3087  -16.2994   24.1528 C   0  0  0  0  0  0  0  0  0  0  0  0
   10.2262  -17.4447   24.9281 O   0  0  0  0  0  0  0  0  0  0  0  0
   13.4008  -18.4455   23.4713 O   0  0  0  0  0  0  0  0  0  0  0  0
    9.9060  -15.1885   24.5825 O   0  0  0  0  0  0  0  0  0  0  0  0
  2  1  1  0
  3  2  1  0
  4  3  2  0
  6  8  1  0
  6  5  1  1
  7  6  1  0
  8  9  1  6
  9  3  1  0
 10  8  1  0
 10 12  1  0
 11 10  2  0
 13 17  1  0
 13 12  1  0
 13 14  1  1
 15 14  1  0
 15 19  1  0
 16 15  2  0
 17 18  1  0
 20 17  2  0
M  END
$$$$
