YKN.pdb
     RDKit          3D

 30 30  0  0  1  0  0  0  0  0999 V2000
   28.3149  -19.3012   -5.5202 O   0  0  0  0  0  0  0  0  0  0  0  0
   27.9543  -19.5142   -6.8462 C   0  0  0  0  0  0  0  0  0  0  0  0
   28.8681  -19.9073   -7.8059 C   0  0  0  0  0  0  0  0  0  0  0  0
   28.5434  -20.1248   -9.1198 C   0  0  0  0  0  0  0  0  0  0  0  0
   27.2237  -19.9384   -9.5002 C   0  0  0  0  0  0  0  0  0  0  0  0
   26.7971  -20.1572  -10.9126 C   0  0  0  0  0  0  0  0  0  0  0  0
   26.1217  -21.4876  -11.0506 C   0  0  2  0  0  0  0  0  0  0  0  0
   27.0798  -22.5469  -10.9923 N   0  0  0  0  0  0  0  0  0  0  0  0
   25.3667  -21.4877  -12.3510 C   0  0  0  0  0  0  0  0  0  0  0  0
   25.9726  -21.5919  -13.4407 O   0  0  0  0  0  0  0  0  0  0  0  0
   26.2755  -19.5444   -8.5685 C   0  0  0  0  0  0  0  0  0  0  0  0
   26.6498  -19.3376   -7.2579 C   0  0  0  0  0  0  0  0  0  0  0  0
   23.9623  -21.3700  -12.3570 N   0  0  0  0  0  0  0  0  0  0  0  0
   23.0602  -21.4019  -13.4437 C   0  0  1  0  0  0  0  0  0  0  0  0
   21.7478  -22.1382  -13.2169 C   0  0  0  0  0  0  0  0  0  0  0  0
   21.7044  -23.5358  -13.7015 C   0  0  0  0  0  0  0  0  0  0  0  0
   22.9072  -23.9416  -14.5389 C   0  0  0  0  0  0  0  0  0  0  0  0
   22.5929  -25.3304  -15.1265 C   0  0  0  0  0  0  0  0  0  0  0  0
   23.6391  -25.7582  -16.0020 N   0  0  0  0  0  0  0  0  0  0  0  0
   22.8023  -20.1484  -14.1426 C   0  0  0  0  0  0  0  0  0  0  0  0
   22.5730  -19.0877  -13.4814 O   0  0  0  0  0  0  0  0  0  0  0  0
   23.8695  -16.5425  -18.5521 N   0  0  0  0  0  0  0  0  0  0  0  0
   22.7876  -17.3991  -18.2408 C   0  0  0  0  0  0  0  0  0  0  0  0
   21.5885  -17.0622  -18.4504 O   0  0  0  0  0  0  0  0  0  0  0  0
   23.0528  -18.7323  -17.6513 C   0  0  0  0  0  0  0  0  0  0  0  0
   22.6108  -18.7095  -16.2072 C   0  0  2  0  0  0  0  0  0  0  0  0
   22.7810  -19.9894  -15.5591 N   0  0  0  0  0  0  0  0  0  0  0  0
   21.1779  -18.3373  -16.1009 C   0  0  0  0  0  0  0  0  0  0  0  0
   20.2591  -19.1530  -16.3641 O   0  0  0  0  0  0  0  0  0  0  0  0
   20.7729  -17.0599  -15.7022 O   0  0  0  0  0  0  0  0  0  0  0  0
  2  1  1  0
  3  2  2  0
  4  3  1  0
  5 11  1  0
  5  4  2  0
  6  5  1  0
  7  6  1  0
  7  9  1  0
  7  8  1  6
  9 10  2  0
 11 12  2  0
 12  2  1  0
 13  9  1  0
 13 14  1  0
 14 15  1  1
 15 16  1  0
 16 17  1  0
 17 18  1  0
 18 19  1  0
 20 14  1  0
 20 21  2  0
 22 23  1  0
 23 25  1  0
 24 23  2  0
 26 25  1  6
 26 27  1  0
 27 20  1  0
 28 30  1  0
 28 26  1  0
 29 28  2  0
M  END
$$$$
