YKN.pdb
     RDKit          3D

 30 30  0  0  1  0  0  0  0  0999 V2000
   18.0246  -16.3322  -19.4713 O   0  0  0  0  0  0  0  0  0  0  0  0
   18.8213  -17.1355  -18.6628 C   0  0  0  0  0  0  0  0  0  0  0  0
   18.5240  -18.4633  -18.4191 C   0  0  0  0  0  0  0  0  0  0  0  0
   19.2891  -19.2798  -17.6273 C   0  0  0  0  0  0  0  0  0  0  0  0
   20.4222  -18.7375  -17.0417 C   0  0  0  0  0  0  0  0  0  0  0  0
   21.3027  -19.5664  -16.1686 C   0  0  0  0  0  0  0  0  0  0  0  0
   22.6186  -19.8117  -16.8417 C   0  0  2  0  0  0  0  0  0  0  0  0
   22.4501  -20.6533  -17.9849 N   0  0  0  0  0  0  0  0  0  0  0  0
   23.5466  -20.4236  -15.8290 C   0  0  0  0  0  0  0  0  0  0  0  0
   23.3641  -21.5918  -15.4201 O   0  0  0  0  0  0  0  0  0  0  0  0
   20.7562  -17.4097  -17.2605 C   0  0  0  0  0  0  0  0  0  0  0  0
   19.9556  -16.6272  -18.0650 C   0  0  0  0  0  0  0  0  0  0  0  0
   24.6370  -19.6849  -15.3272 N   0  0  0  0  0  0  0  0  0  0  0  0
   25.6146  -20.0548  -14.3769 C   0  0  1  0  0  0  0  0  0  0  0  0
   26.9825  -19.4031  -14.5193 C   0  0  0  0  0  0  0  0  0  0  0  0
   27.6399  -19.5725  -15.8342 C   0  0  0  0  0  0  0  0  0  0  0  0
   27.6457  -18.3176  -16.6933 C   0  0  0  0  0  0  0  0  0  0  0  0
   28.2602  -18.7095  -18.0503 C   0  0  0  0  0  0  0  0  0  0  0  0
   28.1999  -17.6151  -18.9682 N   0  0  0  0  0  0  0  0  0  0  0  0
   25.2211  -20.0621  -12.9728 C   0  0  0  0  0  0  0  0  0  0  0  0
   24.5156  -19.1141  -12.5057 O   0  0  0  0  0  0  0  0  0  0  0  0
   24.1618  -22.1534   -7.9284 N   0  0  0  0  0  0  0  0  0  0  0  0
   25.4769  -21.9444   -8.4056 C   0  0  0  0  0  0  0  0  0  0  0  0
   26.4123  -21.5735   -7.6422 O   0  0  0  0  0  0  0  0  0  0  0  0
   25.7812  -22.1625   -9.8392 C   0  0  0  0  0  0  0  0  0  0  0  0
   25.3049  -20.9569  -10.6144 C   0  0  2  0  0  0  0  0  0  0  0  0
   25.5662  -21.0745  -12.0304 N   0  0  0  0  0  0  0  0  0  0  0  0
   25.9749  -19.7230  -10.1332 C   0  0  0  0  0  0  0  0  0  0  0  0
   27.1450  -19.4247  -10.4806 O   0  0  0  0  0  0  0  0  0  0  0  0
   25.3409  -18.8262   -9.2682 O   0  0  0  0  0  0  0  0  0  0  0  0
  2  1  1  0
  3  2  2  0
  4  3  1  0
  5 11  1  0
  5  4  2  0
  6  5  1  0
  7  6  1  0
  7  9  1  0
  7  8  1  6
  9 10  2  0
 11 12  2  0
 12  2  1  0
 13  9  1  0
 13 14  1  0
 14 15  1  1
 15 16  1  0
 16 17  1  0
 17 18  1  0
 18 19  1  0
 20 14  1  0
 20 21  2  0
 22 23  1  0
 23 25  1  0
 24 23  2  0
 26 25  1  1
 26 27  1  0
 27 20  1  0
 28 30  1  0
 28 26  1  0
 29 28  2  0
M  END
$$$$
