YKN.pdb
     RDKit          3D

 30 30  0  0  1  0  0  0  0  0999 V2000
   24.4280  -20.3519   -8.4577 O   0  0  0  0  0  0  0  0  0  0  0  0
   24.7804  -20.4982   -9.7949 C   0  0  0  0  0  0  0  0  0  0  0  0
   26.0826  -20.3535  -10.2354 C   0  0  0  0  0  0  0  0  0  0  0  0
   26.4606  -20.4913  -11.5458 C   0  0  0  0  0  0  0  0  0  0  0  0
   25.4777  -20.7926  -12.4752 C   0  0  0  0  0  0  0  0  0  0  0  0
   25.8153  -20.9580  -13.9187 C   0  0  0  0  0  0  0  0  0  0  0  0
   27.1141  -20.2785  -14.2291 C   0  0  2  0  0  0  0  0  0  0  0  0
   26.9953  -18.8641  -14.0596 N   0  0  0  0  0  0  0  0  0  0  0  0
   27.4992  -20.6425  -15.6363 C   0  0  0  0  0  0  0  0  0  0  0  0
   27.0680  -19.9816  -16.6071 O   0  0  0  0  0  0  0  0  0  0  0  0
   24.1591  -20.9461  -12.0750 C   0  0  0  0  0  0  0  0  0  0  0  0
   23.8267  -20.7979  -10.7453 C   0  0  0  0  0  0  0  0  0  0  0  0
   28.3537  -21.7368  -15.8785 N   0  0  0  0  0  0  0  0  0  0  0  0
   28.8006  -22.2766  -17.1050 C   0  0  1  0  0  0  0  0  0  0  0  0
   30.1249  -23.0259  -17.0762 C   0  0  0  0  0  0  0  0  0  0  0  0
   30.6826  -23.3937  -18.3967 C   0  0  0  0  0  0  0  0  0  0  0  0
   31.9916  -24.1646  -18.3265 C   0  0  0  0  0  0  0  0  0  0  0  0
   32.4601  -24.3801  -19.7780 C   0  0  0  0  0  0  0  0  0  0  0  0
   33.6856  -25.1157  -19.8103 N   0  0  0  0  0  0  0  0  0  0  0  0
   27.8356  -23.0215  -17.9051 C   0  0  0  0  0  0  0  0  0  0  0  0
   27.1129  -23.9138  -17.3608 O   0  0  0  0  0  0  0  0  0  0  0  0
   23.2739  -23.1816  -19.8511 N   0  0  0  0  0  0  0  0  0  0  0  0
   23.9845  -22.0103  -19.4992 C   0  0  0  0  0  0  0  0  0  0  0  0
   23.5233  -20.8567  -19.7268 O   0  0  0  0  0  0  0  0  0  0  0  0
   25.3089  -22.1238  -18.8447 C   0  0  0  0  0  0  0  0  0  0  0  0
   26.3048  -22.6124  -19.8696 C   0  0  2  0  0  0  0  0  0  0  0  0
   27.6137  -22.8384  -19.3013 N   0  0  0  0  0  0  0  0  0  0  0  0
   26.4549  -21.6273  -20.9696 C   0  0  0  0  0  0  0  0  0  0  0  0
   26.7046  -20.4162  -20.7462 O   0  0  0  0  0  0  0  0  0  0  0  0
   26.3268  -21.9929  -22.3129 O   0  0  0  0  0  0  0  0  0  0  0  0
  2  1  1  0
  3  2  2  0
  4  3  1  0
  5 11  1  0
  5  4  2  0
  6  5  1  0
  7  6  1  0
  7  9  1  0
  7  8  1  6
  9 10  2  0
 11 12  2  0
 12  2  1  0
 13  9  1  0
 13 14  1  0
 14 15  1  1
 15 16  1  0
 16 17  1  0
 17 18  1  0
 18 19  1  0
 20 14  1  0
 20 21  2  0
 22 23  1  0
 23 25  1  0
 24 23  2  0
 26 25  1  1
 26 27  1  0
 27 20  1  0
 28 30  1  0
 28 26  1  0
 29 28  2  0
M  END
$$$$
