YKN.pdb
     RDKit          3D

 30 30  0  0  1  0  0  0  0  0999 V2000
   29.6208  -20.1847   -3.2930 O   0  0  0  0  0  0  0  0  0  0  0  0
   28.9037  -19.9786   -4.4664 C   0  0  0  0  0  0  0  0  0  0  0  0
   29.1276  -18.8890   -5.2869 C   0  0  0  0  0  0  0  0  0  0  0  0
   28.4375  -18.6586   -6.4487 C   0  0  0  0  0  0  0  0  0  0  0  0
   27.4626  -19.5731   -6.8151 C   0  0  0  0  0  0  0  0  0  0  0  0
   26.6723  -19.3878   -8.0664 C   0  0  0  0  0  0  0  0  0  0  0  0
   26.6391  -20.6626   -8.8529 C   0  0  2  0  0  0  0  0  0  0  0  0
   27.9653  -21.1028   -9.1543 N   0  0  0  0  0  0  0  0  0  0  0  0
   25.8359  -20.4136  -10.0995 C   0  0  0  0  0  0  0  0  0  0  0  0
   25.5519  -19.2476  -10.4533 O   0  0  0  0  0  0  0  0  0  0  0  0
   27.2067  -20.6798   -6.0201 C   0  0  0  0  0  0  0  0  0  0  0  0
   27.9268  -20.8693   -4.8599 C   0  0  0  0  0  0  0  0  0  0  0  0
   25.3921  -21.4952  -10.8865 N   0  0  0  0  0  0  0  0  0  0  0  0
   24.8572  -21.4981  -12.1940 C   0  0  1  0  0  0  0  0  0  0  0  0
   25.2288  -22.6796  -13.0784 C   0  0  0  0  0  0  0  0  0  0  0  0
   24.7452  -22.6121  -14.4754 C   0  0  0  0  0  0  0  0  0  0  0  0
   25.0847  -23.8364  -15.3111 C   0  0  0  0  0  0  0  0  0  0  0  0
   24.5819  -23.5542  -16.7395 C   0  0  0  0  0  0  0  0  0  0  0  0
   24.9090  -24.6365  -17.6145 N   0  0  0  0  0  0  0  0  0  0  0  0
   23.4362  -21.2059  -12.3415 C   0  0  0  0  0  0  0  0  0  0  0  0
   22.5954  -21.7181  -11.5382 O   0  0  0  0  0  0  0  0  0  0  0  0
   18.8893  -19.3663  -13.5404 N   0  0  0  0  0  0  0  0  0  0  0  0
   19.7933  -18.3190  -13.8349 C   0  0  0  0  0  0  0  0  0  0  0  0
   19.3956  -17.1519  -14.1089 O   0  0  0  0  0  0  0  0  0  0  0  0
   21.2512  -18.5833  -13.8258 C   0  0  0  0  0  0  0  0  0  0  0  0
   21.4724  -20.0100  -13.3824 C   0  0  2  0  0  0  0  0  0  0  0  0
   22.8727  -20.3639  -13.3443 N   0  0  0  0  0  0  0  0  0  0  0  0
   20.7926  -20.9581  -14.3000 C   0  0  0  0  0  0  0  0  0  0  0  0
   21.3196  -21.3318  -15.3778 O   0  0  0  0  0  0  0  0  0  0  0  0
   19.5301  -21.4867  -14.0152 O   0  0  0  0  0  0  0  0  0  0  0  0
  2  1  1  0
  3  2  2  0
  4  3  1  0
  5 11  1  0
  5  4  2  0
  6  5  1  0
  7  6  1  0
  7  9  1  0
  7  8  1  6
  9 10  2  0
 11 12  2  0
 12  2  1  0
 13  9  1  0
 13 14  1  0
 14 15  1  1
 15 16  1  0
 16 17  1  0
 17 18  1  0
 18 19  1  0
 20 14  1  0
 20 21  2  0
 22 23  1  0
 23 25  1  0
 24 23  2  0
 26 25  1  6
 26 27  1  0
 27 20  1  0
 28 30  1  0
 28 26  1  0
 29 28  2  0
M  END
$$$$
