YKN.pdb
     RDKit          3D

 30 30  0  0  1  0  0  0  0  0999 V2000
   18.8761  -23.0586   -6.0499 O   0  0  0  0  0  0  0  0  0  0  0  0
   19.6567  -22.4792   -7.0442 C   0  0  0  0  0  0  0  0  0  0  0  0
   19.4282  -21.1979   -7.5097 C   0  0  0  0  0  0  0  0  0  0  0  0
   20.1795  -20.6001   -8.4881 C   0  0  0  0  0  0  0  0  0  0  0  0
   21.2248  -21.3264   -9.0365 C   0  0  0  0  0  0  0  0  0  0  0  0
   22.0852  -20.7402  -10.1046 C   0  0  0  0  0  0  0  0  0  0  0  0
   23.5271  -21.0467   -9.8360 C   0  0  2  0  0  0  0  0  0  0  0  0
   23.9483  -20.4495   -8.6075 N   0  0  0  0  0  0  0  0  0  0  0  0
   24.3296  -20.5460  -11.0050 C   0  0  0  0  0  0  0  0  0  0  0  0
   24.6031  -19.3303  -11.1173 O   0  0  0  0  0  0  0  0  0  0  0  0
   21.4879  -22.6151   -8.5978 C   0  0  0  0  0  0  0  0  0  0  0  0
   20.7044  -23.1745   -7.6110 C   0  0  0  0  0  0  0  0  0  0  0  0
   24.7844  -21.4441  -11.9913 N   0  0  0  0  0  0  0  0  0  0  0  0
   25.0888  -21.2106  -13.3508 C   0  0  1  0  0  0  0  0  0  0  0  0
   26.2082  -22.0489  -13.9510 C   0  0  0  0  0  0  0  0  0  0  0  0
   26.6271  -21.6738  -15.3199 C   0  0  0  0  0  0  0  0  0  0  0  0
   27.7516  -22.5290  -15.8828 C   0  0  0  0  0  0  0  0  0  0  0  0
   28.1590  -21.8998  -17.2285 C   0  0  0  0  0  0  0  0  0  0  0  0
   29.2897  -22.5772  -17.7824 N   0  0  0  0  0  0  0  0  0  0  0  0
   23.9744  -21.1410  -14.2887 C   0  0  0  0  0  0  0  0  0  0  0  0
   22.8596  -21.6735  -13.9916 O   0  0  0  0  0  0  0  0  0  0  0  0
   20.7395  -18.5954  -17.1481 N   0  0  0  0  0  0  0  0  0  0  0  0
   21.1797  -18.1073  -15.8956 C   0  0  0  0  0  0  0  0  0  0  0  0
   20.5892  -17.1606  -15.3037 O   0  0  0  0  0  0  0  0  0  0  0  0
   22.3661  -18.7135  -15.2472 C   0  0  0  0  0  0  0  0  0  0  0  0
   22.8831  -19.8170  -16.1396 C   0  0  2  0  0  0  0  0  0  0  0  0
   24.0153  -20.5054  -15.5641 N   0  0  0  0  0  0  0  0  0  0  0  0
   23.3057  -19.2757  -17.4554 C   0  0  0  0  0  0  0  0  0  0  0  0
   24.1396  -18.3407  -17.5515 O   0  0  0  0  0  0  0  0  0  0  0  0
   22.7993  -19.7765  -18.6585 O   0  0  0  0  0  0  0  0  0  0  0  0
  2  1  1  0
  3  2  2  0
  4  3  1  0
  5 11  1  0
  5  4  2  0
  6  5  1  0
  7  6  1  0
  7  9  1  0
  7  8  1  1
  9 10  2  0
 11 12  2  0
 12  2  1  0
 13  9  1  0
 13 14  1  0
 14 15  1  6
 15 16  1  0
 16 17  1  0
 17 18  1  0
 18 19  1  0
 20 14  1  0
 20 21  2  0
 22 23  1  0
 23 25  1  0
 24 23  2  0
 26 25  1  1
 26 27  1  0
 27 20  1  0
 28 30  1  0
 28 26  1  0
 29 28  2  0
M  END
$$$$
