YKN.pdb
     RDKit          3D

 30 30  0  0  1  0  0  0  0  0999 V2000
   21.0282  -19.7233  -15.1894 O   0  0  0  0  0  0  0  0  0  0  0  0
   20.7670  -18.3820  -15.4466 C   0  0  0  0  0  0  0  0  0  0  0  0
   21.6197  -17.5942  -16.1969 C   0  0  0  0  0  0  0  0  0  0  0  0
   21.3898  -16.2702  -16.4672 C   0  0  0  0  0  0  0  0  0  0  0  0
   20.2364  -15.6958  -15.9567 C   0  0  0  0  0  0  0  0  0  0  0  0
   19.9202  -14.2604  -16.2108 C   0  0  0  0  0  0  0  0  0  0  0  0
   18.9143  -14.1380  -17.3145 C   0  0  2  0  0  0  0  0  0  0  0  0
   19.4684  -14.5891  -18.5527 N   0  0  0  0  0  0  0  0  0  0  0  0
   18.4828  -12.6993  -17.3864 C   0  0  0  0  0  0  0  0  0  0  0  0
   19.1392  -11.8688  -18.0532 O   0  0  0  0  0  0  0  0  0  0  0  0
   19.3543  -16.4510  -15.1991 C   0  0  0  0  0  0  0  0  0  0  0  0
   19.6283  -17.7796  -14.9536 C   0  0  0  0  0  0  0  0  0  0  0  0
   17.3293  -12.2686  -16.7008 N   0  0  0  0  0  0  0  0  0  0  0  0
   16.7115  -10.9983  -16.6863 C   0  0  1  0  0  0  0  0  0  0  0  0
   15.2126  -10.9677  -16.9479 C   0  0  0  0  0  0  0  0  0  0  0  0
   14.6073   -9.6214  -17.0536 C   0  0  0  0  0  0  0  0  0  0  0  0
   13.1042   -9.6314  -17.2842 C   0  0  0  0  0  0  0  0  0  0  0  0
   12.4408   -9.4465  -15.9063 C   0  0  0  0  0  0  0  0  0  0  0  0
   11.0161   -9.4639  -16.0240 N   0  0  0  0  0  0  0  0  0  0  0  0
   17.0321  -10.1054  -15.5789 C   0  0  0  0  0  0  0  0  0  0  0  0
   16.3003  -10.0934  -14.5401 O   0  0  0  0  0  0  0  0  0  0  0  0
   19.4395   -6.2859  -18.7773 N   0  0  0  0  0  0  0  0  0  0  0  0
   18.6980   -6.2989  -17.5727 C   0  0  0  0  0  0  0  0  0  0  0  0
   18.7443   -5.3410  -16.7507 O   0  0  0  0  0  0  0  0  0  0  0  0
   17.8384   -7.4623  -17.2522 C   0  0  0  0  0  0  0  0  0  0  0  0
   18.0037   -7.7853  -15.7860 C   0  0  2  0  0  0  0  0  0  0  0  0
   18.1358   -9.2039  -15.5463 N   0  0  0  0  0  0  0  0  0  0  0  0
   16.8370   -7.3029  -15.0056 C   0  0  0  0  0  0  0  0  0  0  0  0
   15.7086   -7.8488  -15.0931 O   0  0  0  0  0  0  0  0  0  0  0  0
   16.9301   -6.2159  -14.1314 O   0  0  0  0  0  0  0  0  0  0  0  0
  2  1  1  0
  3  2  2  0
  4  3  1  0
  5 11  1  0
  5  4  2  0
  6  5  1  0
  7  6  1  0
  7  9  1  0
  7  8  1  6
  9 10  2  0
 11 12  2  0
 12  2  1  0
 13  9  1  0
 13 14  1  0
 14 15  1  1
 15 16  1  0
 16 17  1  0
 17 18  1  0
 18 19  1  0
 20 14  1  0
 20 21  2  0
 22 23  1  0
 23 25  1  0
 24 23  2  0
 26 25  1  6
 26 27  1  0
 27 20  1  0
 28 30  1  0
 28 26  1  0
 29 28  2  0
M  END
$$$$
