YKN.pdb
     RDKit          3D

 30 30  0  0  1  0  0  0  0  0999 V2000
   17.7665  -21.4046  -19.7790 O   0  0  0  0  0  0  0  0  0  0  0  0
   18.2882  -20.1198  -19.6759 C   0  0  0  0  0  0  0  0  0  0  0  0
   18.3679  -19.4498  -18.4696 C   0  0  0  0  0  0  0  0  0  0  0  0
   18.8764  -18.1838  -18.3362 C   0  0  0  0  0  0  0  0  0  0  0  0
   19.3343  -17.5461  -19.4783 C   0  0  0  0  0  0  0  0  0  0  0  0
   19.9012  -16.1682  -19.4094 C   0  0  0  0  0  0  0  0  0  0  0  0
   21.3653  -16.1929  -19.7272 C   0  0  2  0  0  0  0  0  0  0  0  0
   22.0777  -16.9660  -18.7586 N   0  0  0  0  0  0  0  0  0  0  0  0
   21.8502  -14.7703  -19.7734 C   0  0  0  0  0  0  0  0  0  0  0  0
   22.0361  -14.1249  -18.7178 O   0  0  0  0  0  0  0  0  0  0  0  0
   19.2724  -18.1831  -20.7083 C   0  0  0  0  0  0  0  0  0  0  0  0
   18.7524  -19.4570  -20.7930 C   0  0  0  0  0  0  0  0  0  0  0  0
   22.1018  -14.1454  -21.0113 N   0  0  0  0  0  0  0  0  0  0  0  0
   22.5938  -12.8493  -21.2827 C   0  0  1  0  0  0  0  0  0  0  0  0
   23.3150  -12.6593  -22.6093 C   0  0  0  0  0  0  0  0  0  0  0  0
   24.6064  -13.3693  -22.7446 C   0  0  0  0  0  0  0  0  0  0  0  0
   25.2541  -13.2272  -24.1131 C   0  0  0  0  0  0  0  0  0  0  0  0
   26.5302  -14.0897  -24.0938 C   0  0  0  0  0  0  0  0  0  0  0  0
   26.2075  -15.4745  -24.2429 N   0  0  0  0  0  0  0  0  0  0  0  0
   21.6949  -11.7248  -21.0504 C   0  0  0  0  0  0  0  0  0  0  0  0
   20.4676  -11.8166  -21.3666 O   0  0  0  0  0  0  0  0  0  0  0  0
   19.4229   -7.5814  -18.2488 N   0  0  0  0  0  0  0  0  0  0  0  0
   20.5967   -7.3827  -19.0127 C   0  0  0  0  0  0  0  0  0  0  0  0
   20.8327   -6.2902  -19.6010 O   0  0  0  0  0  0  0  0  0  0  0  0
   21.5868   -8.4781  -19.1357 C   0  0  0  0  0  0  0  0  0  0  0  0
   21.1447   -9.3947  -20.2519 C   0  0  2  0  0  0  0  0  0  0  0  0
   22.0756  -10.4762  -20.4775 N   0  0  0  0  0  0  0  0  0  0  0  0
   21.0071   -8.6451  -21.5255 C   0  0  0  0  0  0  0  0  0  0  0  0
   19.8870   -8.2814  -21.9639 O   0  0  0  0  0  0  0  0  0  0  0  0
   22.1154   -8.3032  -22.3062 O   0  0  0  0  0  0  0  0  0  0  0  0
  2  1  1  0
  3  2  2  0
  4  3  1  0
  5 11  1  0
  5  4  2  0
  6  5  1  0
  7  6  1  0
  7  9  1  0
  7  8  1  1
  9 10  2  0
 11 12  2  0
 12  2  1  0
 13  9  1  0
 13 14  1  0
 14 15  1  6
 15 16  1  0
 16 17  1  0
 17 18  1  0
 18 19  1  0
 20 14  1  0
 20 21  2  0
 22 23  1  0
 23 25  1  0
 24 23  2  0
 26 25  1  1
 26 27  1  0
 27 20  1  0
 28 30  1  0
 28 26  1  0
 29 28  2  0
M  END
$$$$
