YKN.pdb
     RDKit          3D

 30 30  0  0  1  0  0  0  0  0999 V2000
   29.5419  -12.4908  -23.6420 O   0  0  0  0  0  0  0  0  0  0  0  0
   28.3517  -11.8939  -23.2409 C   0  0  0  0  0  0  0  0  0  0  0  0
   28.0240  -11.7220  -21.9091 C   0  0  0  0  0  0  0  0  0  0  0  0
   26.8594  -11.1379  -21.4829 C   0  0  0  0  0  0  0  0  0  0  0  0
   25.9654  -10.6977  -22.4462 C   0  0  0  0  0  0  0  0  0  0  0  0
   24.6785  -10.0520  -22.0566 C   0  0  0  0  0  0  0  0  0  0  0  0
   23.6753  -11.0919  -21.6599 C   0  0  2  0  0  0  0  0  0  0  0  0
   23.3010  -11.8863  -22.7879 N   0  0  0  0  0  0  0  0  0  0  0  0
   22.4930  -10.3845  -21.0573 C   0  0  0  0  0  0  0  0  0  0  0  0
   21.8727   -9.5126  -21.7055 O   0  0  0  0  0  0  0  0  0  0  0  0
   26.2558  -10.8511  -23.7932 C   0  0  0  0  0  0  0  0  0  0  0  0
   27.4404  -11.4448  -24.1738 C   0  0  0  0  0  0  0  0  0  0  0  0
   22.0687  -10.6972  -19.7502 N   0  0  0  0  0  0  0  0  0  0  0  0
   21.0050  -10.1558  -18.9947 C   0  0  1  0  0  0  0  0  0  0  0  0
   20.5001  -10.9966  -17.8311 C   0  0  0  0  0  0  0  0  0  0  0  0
   19.8281  -12.2628  -18.1988 C   0  0  0  0  0  0  0  0  0  0  0  0
   19.2919  -13.0498  -17.0131 C   0  0  0  0  0  0  0  0  0  0  0  0
   18.4814  -14.2263  -17.5891 C   0  0  0  0  0  0  0  0  0  0  0  0
   17.9668  -15.0487  -16.5389 N   0  0  0  0  0  0  0  0  0  0  0  0
   21.1144   -8.7624  -18.5788 C   0  0  0  0  0  0  0  0  0  0  0  0
   22.1495   -8.3638  -17.9589 O   0  0  0  0  0  0  0  0  0  0  0  0
   20.1596   -3.1621  -19.8261 N   0  0  0  0  0  0  0  0  0  0  0  0
   20.9681   -4.1481  -19.2138 C   0  0  0  0  0  0  0  0  0  0  0  0
   21.7975   -3.8608  -18.3055 O   0  0  0  0  0  0  0  0  0  0  0  0
   20.8504   -5.5624  -19.6396 C   0  0  0  0  0  0  0  0  0  0  0  0
   20.3259   -6.3672  -18.4741 C   0  0  2  0  0  0  0  0  0  0  0  0
   20.1291   -7.7585  -18.8100 N   0  0  0  0  0  0  0  0  0  0  0  0
   19.0250   -5.8283  -18.0049 C   0  0  0  0  0  0  0  0  0  0  0  0
   17.9311   -6.3442  -18.3459 O   0  0  0  0  0  0  0  0  0  0  0  0
   18.9459   -4.7183  -17.1586 O   0  0  0  0  0  0  0  0  0  0  0  0
  2  1  1  0
  3  2  2  0
  4  3  1  0
  5 11  1  0
  5  4  2  0
  6  5  1  0
  7  6  1  0
  7  9  1  0
  7  8  1  6
  9 10  2  0
 11 12  2  0
 12  2  1  0
 13  9  1  0
 13 14  1  0
 14 15  1  1
 15 16  1  0
 16 17  1  0
 17 18  1  0
 18 19  1  0
 20 14  1  0
 20 21  2  0
 22 23  1  0
 23 25  1  0
 24 23  2  0
 26 25  1  6
 26 27  1  0
 27 20  1  0
 28 30  1  0
 28 26  1  0
 29 28  2  0
M  END
$$$$
