YKN.pdb
     RDKit          3D

 30 30  0  0  1  0  0  0  0  0999 V2000
   25.1286  -15.3751  -20.0431 O   0  0  0  0  0  0  0  0  0  0  0  0
   24.3561  -16.2255  -19.2598 C   0  0  0  0  0  0  0  0  0  0  0  0
   24.1896  -17.5633  -19.5656 C   0  0  0  0  0  0  0  0  0  0  0  0
   23.4348  -18.4259  -18.8137 C   0  0  0  0  0  0  0  0  0  0  0  0
   22.8066  -17.9222  -17.6857 C   0  0  0  0  0  0  0  0  0  0  0  0
   21.9699  -18.8022  -16.8195 C   0  0  0  0  0  0  0  0  0  0  0  0
   22.8349  -19.5548  -15.8549 C   0  0  2  0  0  0  0  0  0  0  0  0
   23.6741  -20.4812  -16.5484 N   0  0  0  0  0  0  0  0  0  0  0  0
   21.9326  -20.2464  -14.8706 C   0  0  0  0  0  0  0  0  0  0  0  0
   21.3083  -21.2810  -15.1950 O   0  0  0  0  0  0  0  0  0  0  0  0
   22.9478  -16.5860  -17.3435 C   0  0  0  0  0  0  0  0  0  0  0  0
   23.7175  -15.7564  -18.1308 C   0  0  0  0  0  0  0  0  0  0  0  0
   21.7797  -19.7350  -13.5663 N   0  0  0  0  0  0  0  0  0  0  0  0
   20.9156  -20.1536  -12.5301 C   0  0  1  0  0  0  0  0  0  0  0  0
   21.1500  -19.5377  -11.1583 C   0  0  0  0  0  0  0  0  0  0  0  0
   20.2617  -20.0210  -10.0779 C   0  0  0  0  0  0  0  0  0  0  0  0
   20.5730  -21.4309   -9.6004 C   0  0  0  0  0  0  0  0  0  0  0  0
   19.5278  -21.7773   -8.5232 C   0  0  0  0  0  0  0  0  0  0  0  0
   19.6991  -23.1209   -8.0653 N   0  0  0  0  0  0  0  0  0  0  0  0
   19.4857  -20.1814  -12.8148 C   0  0  0  0  0  0  0  0  0  0  0  0
   18.8718  -19.1038  -13.0914 O   0  0  0  0  0  0  0  0  0  0  0  0
   18.4795  -23.9024  -15.3246 N   0  0  0  0  0  0  0  0  0  0  0  0
   17.6593  -23.4534  -14.2631 C   0  0  0  0  0  0  0  0  0  0  0  0
   17.5029  -24.1309  -13.2086 O   0  0  0  0  0  0  0  0  0  0  0  0
   16.9571  -22.1537  -14.3770 C   0  0  0  0  0  0  0  0  0  0  0  0
   17.2664  -21.3372  -13.1446 C   0  0  2  0  0  0  0  0  0  0  0  0
   18.6725  -21.3522  -12.8128 N   0  0  0  0  0  0  0  0  0  0  0  0
   16.5205  -21.8535  -11.9699 C   0  0  0  0  0  0  0  0  0  0  0  0
   17.1093  -22.3160  -10.9608 O   0  0  0  0  0  0  0  0  0  0  0  0
   15.1232  -21.8532  -11.9223 O   0  0  0  0  0  0  0  0  0  0  0  0
  2  1  1  0
  3  2  2  0
  4  3  1  0
  5 11  1  0
  5  4  2  0
  6  5  1  0
  7  6  1  0
  7  9  1  0
  7  8  1  6
  9 10  2  0
 11 12  2  0
 12  2  1  0
 13  9  1  0
 13 14  1  0
 14 15  1  1
 15 16  1  0
 16 17  1  0
 17 18  1  0
 18 19  1  0
 20 14  1  0
 20 21  2  0
 22 23  1  0
 23 25  1  0
 24 23  2  0
 26 25  1  6
 26 27  1  0
 27 20  1  0
 28 30  1  0
 28 26  1  0
 29 28  2  0
M  END
$$$$
