YKN.pdb
     RDKit          3D

 30 30  0  0  1  0  0  0  0  0999 V2000
   16.6821  -24.5076   -7.2863 O   0  0  0  0  0  0  0  0  0  0  0  0
   17.5270  -24.0191   -8.2767 C   0  0  0  0  0  0  0  0  0  0  0  0
   18.7043  -24.6554   -8.6230 C   0  0  0  0  0  0  0  0  0  0  0  0
   19.5573  -24.1986   -9.5940 C   0  0  0  0  0  0  0  0  0  0  0  0
   19.2141  -23.0336  -10.2617 C   0  0  0  0  0  0  0  0  0  0  0  0
   20.0935  -22.4777  -11.3305 C   0  0  0  0  0  0  0  0  0  0  0  0
   19.4187  -22.5819  -12.6642 C   0  0  2  0  0  0  0  0  0  0  0  0
   19.0656  -23.9383  -12.9451 N   0  0  0  0  0  0  0  0  0  0  0  0
   20.3554  -22.0223  -13.6989 C   0  0  0  0  0  0  0  0  0  0  0  0
   21.4660  -22.5582  -13.9106 O   0  0  0  0  0  0  0  0  0  0  0  0
   18.0418  -22.3644   -9.9448 C   0  0  0  0  0  0  0  0  0  0  0  0
   17.2151  -22.8624   -8.9604 C   0  0  0  0  0  0  0  0  0  0  0  0
   19.9914  -20.8834  -14.4450 N   0  0  0  0  0  0  0  0  0  0  0  0
   20.6790  -20.2377  -15.4966 C   0  0  1  0  0  0  0  0  0  0  0  0
   19.8979  -19.1919  -16.2790 C   0  0  0  0  0  0  0  0  0  0  0  0
   20.5579  -18.6795  -17.5004 C   0  0  0  0  0  0  0  0  0  0  0  0
   19.7421  -17.6462  -18.2616 C   0  0  0  0  0  0  0  0  0  0  0  0
   20.5556  -17.2712  -19.5147 C   0  0  0  0  0  0  0  0  0  0  0  0
   19.8520  -16.3110  -20.3065 N   0  0  0  0  0  0  0  0  0  0  0  0
   22.0203  -19.7379  -15.2181 C   0  0  0  0  0  0  0  0  0  0  0  0
   22.2207  -18.9781  -14.2195 O   0  0  0  0  0  0  0  0  0  0  0  0
   27.9275  -20.7226  -15.0099 N   0  0  0  0  0  0  0  0  0  0  0  0
   26.7488  -19.9469  -14.9108 C   0  0  0  0  0  0  0  0  0  0  0  0
   26.7800  -18.7228  -14.6010 O   0  0  0  0  0  0  0  0  0  0  0  0
   25.4327  -20.5742  -15.1747 C   0  0  0  0  0  0  0  0  0  0  0  0
   24.4908  -19.5072  -15.6801 C   0  0  2  0  0  0  0  0  0  0  0  0
   23.1811  -20.0316  -15.9917 N   0  0  0  0  0  0  0  0  0  0  0  0
   25.0262  -18.8716  -16.9098 C   0  0  0  0  0  0  0  0  0  0  0  0
   24.9443  -17.6332  -17.1063 O   0  0  0  0  0  0  0  0  0  0  0  0
   25.6504  -19.6155  -17.9155 O   0  0  0  0  0  0  0  0  0  0  0  0
  2  1  1  0
  3  2  2  0
  4  3  1  0
  5 11  1  0
  5  4  2  0
  6  5  1  0
  7  6  1  0
  7  9  1  0
  7  8  1  6
  9 10  2  0
 11 12  2  0
 12  2  1  0
 13  9  1  0
 13 14  1  0
 14 15  1  1
 15 16  1  0
 16 17  1  0
 17 18  1  0
 18 19  1  0
 20 14  1  0
 20 21  2  0
 22 23  1  0
 23 25  1  0
 24 23  2  0
 26 25  1  6
 26 27  1  0
 27 20  1  0
 28 30  1  0
 28 26  1  0
 29 28  2  0
M  END
$$$$
