YKN.pdb
     RDKit          3D

 30 30  0  0  1  0  0  0  0  0999 V2000
   28.7755  -20.0527   -3.4058 O   0  0  0  0  0  0  0  0  0  0  0  0
   28.3410  -19.9576   -4.7233 C   0  0  0  0  0  0  0  0  0  0  0  0
   27.2416  -20.6534   -5.1902 C   0  0  0  0  0  0  0  0  0  0  0  0
   26.7894  -20.5805   -6.4823 C   0  0  0  0  0  0  0  0  0  0  0  0
   27.4774  -19.7619   -7.3639 C   0  0  0  0  0  0  0  0  0  0  0  0
   27.0425  -19.6326   -8.7849 C   0  0  0  0  0  0  0  0  0  0  0  0
   27.1353  -20.9575   -9.4786 C   0  0  2  0  0  0  0  0  0  0  0  0
   28.4919  -21.4053   -9.5291 N   0  0  0  0  0  0  0  0  0  0  0  0
   26.5474  -20.7992  -10.8535 C   0  0  0  0  0  0  0  0  0  0  0  0
   27.2037  -20.2554  -11.7694 O   0  0  0  0  0  0  0  0  0  0  0  0
   28.5855  -19.0467   -6.9359 C   0  0  0  0  0  0  0  0  0  0  0  0
   29.0029  -19.1521   -5.6263 C   0  0  0  0  0  0  0  0  0  0  0  0
   25.2451  -21.2635  -11.1270 N   0  0  0  0  0  0  0  0  0  0  0  0
   24.5319  -21.2794  -12.3463 C   0  0  1  0  0  0  0  0  0  0  0  0
   23.4638  -22.3531  -12.4957 C   0  0  0  0  0  0  0  0  0  0  0  0
   22.8468  -22.4618  -13.8364 C   0  0  0  0  0  0  0  0  0  0  0  0
   21.8537  -23.6054  -13.9735 C   0  0  0  0  0  0  0  0  0  0  0  0
   21.3871  -23.6167  -15.4414 C   0  0  0  0  0  0  0  0  0  0  0  0
   20.4074  -24.6362  -15.6533 N   0  0  0  0  0  0  0  0  0  0  0  0
   24.0191  -20.0082  -12.8438 C   0  0  0  0  0  0  0  0  0  0  0  0
   23.4176  -19.2134  -12.0556 O   0  0  0  0  0  0  0  0  0  0  0  0
   24.9164  -15.0709  -15.2172 N   0  0  0  0  0  0  0  0  0  0  0  0
   24.3739  -16.2170  -15.8442 C   0  0  0  0  0  0  0  0  0  0  0  0
   23.4903  -16.1305  -16.7425 O   0  0  0  0  0  0  0  0  0  0  0  0
   24.8454  -17.5640  -15.4461 C   0  0  0  0  0  0  0  0  0  0  0  0
   23.7754  -18.2104  -14.5983 C   0  0  2  0  0  0  0  0  0  0  0  0
   24.1316  -19.5493  -14.1888 N   0  0  0  0  0  0  0  0  0  0  0  0
   22.4930  -18.2922  -15.3410 C   0  0  0  0  0  0  0  0  0  0  0  0
   22.2430  -19.2364  -16.1315 O   0  0  0  0  0  0  0  0  0  0  0  0
   21.4942  -17.3240  -15.2014 O   0  0  0  0  0  0  0  0  0  0  0  0
  2  1  1  0
  3  2  2  0
  4  3  1  0
  5 11  1  0
  5  4  2  0
  6  5  1  0
  7  6  1  0
  7  9  1  0
  7  8  1  6
  9 10  2  0
 11 12  2  0
 12  2  1  0
 13  9  1  0
 13 14  1  0
 14 15  1  1
 15 16  1  0
 16 17  1  0
 17 18  1  0
 18 19  1  0
 20 14  1  0
 20 21  2  0
 22 23  1  0
 23 25  1  0
 24 23  2  0
 26 25  1  6
 26 27  1  0
 27 20  1  0
 28 30  1  0
 28 26  1  0
 29 28  2  0
M  END
$$$$
