YKN.pdb
     RDKit          3D

 30 30  0  0  1  0  0  0  0  0999 V2000
   25.8172  -14.3886  -21.3760 O   0  0  0  0  0  0  0  0  0  0  0  0
   24.9604  -15.2217  -20.6650 C   0  0  0  0  0  0  0  0  0  0  0  0
   24.5252  -16.4342  -21.1661 C   0  0  0  0  0  0  0  0  0  0  0  0
   23.6811  -17.2764  -20.4898 C   0  0  0  0  0  0  0  0  0  0  0  0
   23.2437  -16.8842  -19.2346 C   0  0  0  0  0  0  0  0  0  0  0  0
   22.3246  -17.7499  -18.4404 C   0  0  0  0  0  0  0  0  0  0  0  0
   23.0834  -18.4585  -17.3600 C   0  0  2  0  0  0  0  0  0  0  0  0
   24.1175  -19.2705  -17.9208 N   0  0  0  0  0  0  0  0  0  0  0  0
   22.1004  -19.2742  -16.5665 C   0  0  0  0  0  0  0  0  0  0  0  0
   21.5257  -20.2590  -17.0815 O   0  0  0  0  0  0  0  0  0  0  0  0
   23.6565  -15.6754  -18.6954 C   0  0  0  0  0  0  0  0  0  0  0  0
   24.5064  -14.8614  -19.4134 C   0  0  0  0  0  0  0  0  0  0  0  0
   21.8144  -18.9372  -15.2282 N   0  0  0  0  0  0  0  0  0  0  0  0
   20.9183  -19.5417  -14.3188 C   0  0  1  0  0  0  0  0  0  0  0  0
   21.2903  -19.4658  -12.8451 C   0  0  0  0  0  0  0  0  0  0  0  0
   20.4084  -20.2139  -11.9217 C   0  0  0  0  0  0  0  0  0  0  0  0
   20.8059  -20.1063  -10.4577 C   0  0  0  0  0  0  0  0  0  0  0  0
   19.8542  -21.0254   -9.6689 C   0  0  0  0  0  0  0  0  0  0  0  0
   19.9824  -20.7999   -8.2629 N   0  0  0  0  0  0  0  0  0  0  0  0
   19.4980  -19.2527  -14.4793 C   0  0  0  0  0  0  0  0  0  0  0  0
   19.0761  -18.0591  -14.3694 O   0  0  0  0  0  0  0  0  0  0  0  0
   17.1116  -21.4103  -18.2113 N   0  0  0  0  0  0  0  0  0  0  0  0
   16.7959  -20.4083  -17.2641 C   0  0  0  0  0  0  0  0  0  0  0  0
   16.8498  -19.1792  -17.5503 O   0  0  0  0  0  0  0  0  0  0  0  0
   16.3893  -20.7959  -15.8931 C   0  0  0  0  0  0  0  0  0  0  0  0
   17.0942  -19.8873  -14.9139 C   0  0  2  0  0  0  0  0  0  0  0  0
   18.4912  -20.2221  -14.7598 N   0  0  0  0  0  0  0  0  0  0  0  0
   16.4614  -19.9653  -13.5737 C   0  0  0  0  0  0  0  0  0  0  0  0
   16.7558  -20.8696  -12.7524 O   0  0  0  0  0  0  0  0  0  0  0  0
   15.5042  -19.0375  -13.1524 O   0  0  0  0  0  0  0  0  0  0  0  0
  2  1  1  0
  3  2  2  0
  4  3  1  0
  5 11  1  0
  5  4  2  0
  6  5  1  0
  7  6  1  0
  7  9  1  0
  7  8  1  6
  9 10  2  0
 11 12  2  0
 12  2  1  0
 13  9  1  0
 13 14  1  0
 14 15  1  1
 15 16  1  0
 16 17  1  0
 17 18  1  0
 18 19  1  0
 20 14  1  0
 20 21  2  0
 22 23  1  0
 23 25  1  0
 24 23  2  0
 26 25  1  6
 26 27  1  0
 27 20  1  0
 28 30  1  0
 28 26  1  0
 29 28  2  0
M  END
$$$$
