YKN.pdb
     RDKit          3D

 30 30  0  0  1  0  0  0  0  0999 V2000
   18.6471  -25.1213   -8.6823 O   0  0  0  0  0  0  0  0  0  0  0  0
   19.2338  -24.4549   -9.7524 C   0  0  0  0  0  0  0  0  0  0  0  0
   19.6022  -25.1054  -10.9150 C   0  0  0  0  0  0  0  0  0  0  0  0
   20.1822  -24.4764  -11.9860 C   0  0  0  0  0  0  0  0  0  0  0  0
   20.4089  -23.1124  -11.8911 C   0  0  0  0  0  0  0  0  0  0  0  0
   21.0354  -22.3614  -13.0173 C   0  0  0  0  0  0  0  0  0  0  0  0
   20.9680  -20.8870  -12.7591 C   0  0  2  0  0  0  0  0  0  0  0  0
   19.6146  -20.4725  -12.5591 N   0  0  0  0  0  0  0  0  0  0  0  0
   21.6004  -20.1854  -13.9291 C   0  0  0  0  0  0  0  0  0  0  0  0
   20.9023  -19.7881  -14.8883 O   0  0  0  0  0  0  0  0  0  0  0  0
   20.0541  -22.4220  -10.7423 C   0  0  0  0  0  0  0  0  0  0  0  0
   19.4731  -23.0979   -9.6906 C   0  0  0  0  0  0  0  0  0  0  0  0
   22.9923  -19.9666  -13.9585 N   0  0  0  0  0  0  0  0  0  0  0  0
   23.8108  -19.5125  -15.0165 C   0  0  1  0  0  0  0  0  0  0  0  0
   25.2902  -19.3376  -14.7053 C   0  0  0  0  0  0  0  0  0  0  0  0
   26.1085  -18.7500  -15.7894 C   0  0  0  0  0  0  0  0  0  0  0  0
   26.7260  -17.4041  -15.4432 C   0  0  0  0  0  0  0  0  0  0  0  0
   27.4568  -16.9111  -16.7063 C   0  0  0  0  0  0  0  0  0  0  0  0
   28.2990  -15.7967  -16.4014 N   0  0  0  0  0  0  0  0  0  0  0  0
   23.6582  -20.1618  -16.3132 C   0  0  0  0  0  0  0  0  0  0  0  0
   23.4704  -21.4170  -16.3772 O   0  0  0  0  0  0  0  0  0  0  0  0
   20.5337  -22.3119  -17.2215 N   0  0  0  0  0  0  0  0  0  0  0  0
   21.2490  -21.6113  -18.2207 C   0  0  0  0  0  0  0  0  0  0  0  0
   21.7734  -22.2041  -19.2051 O   0  0  0  0  0  0  0  0  0  0  0  0
   21.3960  -20.1402  -18.1234 C   0  0  0  0  0  0  0  0  0  0  0  0
   22.7646  -19.7645  -18.6399 C   0  0  2  0  0  0  0  0  0  0  0  0
   23.7012  -19.4962  -17.5731 N   0  0  0  0  0  0  0  0  0  0  0  0
   22.6914  -18.5510  -19.4914 C   0  0  0  0  0  0  0  0  0  0  0  0
   23.2626  -18.4890  -20.6089 O   0  0  0  0  0  0  0  0  0  0  0  0
   21.9833  -17.4119  -19.0967 O   0  0  0  0  0  0  0  0  0  0  0  0
  2  1  1  0
  3  2  2  0
  4  3  1  0
  5 11  1  0
  5  4  2  0
  6  5  1  0
  7  6  1  0
  7  9  1  0
  7  8  1  6
  9 10  2  0
 11 12  2  0
 12  2  1  0
 13  9  1  0
 13 14  1  0
 14 15  1  1
 15 16  1  0
 16 17  1  0
 17 18  1  0
 18 19  1  0
 20 14  1  0
 20 21  2  0
 22 23  1  0
 23 25  1  0
 24 23  2  0
 26 25  1  1
 26 27  1  0
 27 20  1  0
 28 30  1  0
 28 26  1  0
 29 28  2  0
M  END
$$$$
