YKN.pdb
     RDKit          3D

 30 30  0  0  1  0  0  0  0  0999 V2000
   20.0508  -11.3278    3.4032 O   0  0  0  0  0  0  0  0  0  0  0  0
   19.4706  -12.4939    3.8903 C   0  0  0  0  0  0  0  0  0  0  0  0
   18.9730  -12.5897    5.1763 C   0  0  0  0  0  0  0  0  0  0  0  0
   18.3962  -13.7246    5.6848 C   0  0  0  0  0  0  0  0  0  0  0  0
   18.3104  -14.8336    4.8581 C   0  0  0  0  0  0  0  0  0  0  0  0
   17.6947  -16.1027    5.3431 C   0  0  0  0  0  0  0  0  0  0  0  0
   16.2980  -16.2361    4.8173 C   0  0  2  0  0  0  0  0  0  0  0  0
   15.4795  -15.1613    5.2845 N   0  0  0  0  0  0  0  0  0  0  0  0
   15.7675  -17.5736    5.2543 C   0  0  0  0  0  0  0  0  0  0  0  0
   15.1595  -17.6948    6.3410 O   0  0  0  0  0  0  0  0  0  0  0  0
   18.7974  -14.7795    3.5611 C   0  0  0  0  0  0  0  0  0  0  0  0
   19.3695  -13.6155    3.0939 C   0  0  0  0  0  0  0  0  0  0  0  0
   15.9499  -18.7102    4.4412 N   0  0  0  0  0  0  0  0  0  0  0  0
   15.9128  -20.0797    4.7858 C   0  0  1  0  0  0  0  0  0  0  0  0
   16.1360  -21.0722    3.6540 C   0  0  0  0  0  0  0  0  0  0  0  0
   15.9228  -22.4958    3.9980 C   0  0  0  0  0  0  0  0  0  0  0  0
   16.1329  -23.4547    2.8366 C   0  0  0  0  0  0  0  0  0  0  0  0
   15.9860  -24.8796    3.4031 C   0  0  0  0  0  0  0  0  0  0  0  0
   16.1164  -25.8533    2.3644 N   0  0  0  0  0  0  0  0  0  0  0  0
   16.6685  -20.5000    5.9599 C   0  0  0  0  0  0  0  0  0  0  0  0
   17.9038  -20.2177    6.0550 O   0  0  0  0  0  0  0  0  0  0  0  0
   18.2455  -22.0625   10.4872 N   0  0  0  0  0  0  0  0  0  0  0  0
   17.0474  -21.3340   10.6743 C   0  0  0  0  0  0  0  0  0  0  0  0
   16.6483  -20.9902   11.8223 O   0  0  0  0  0  0  0  0  0  0  0  0
   16.2266  -20.9567    9.5000 C   0  0  0  0  0  0  0  0  0  0  0  0
   16.8860  -21.5143    8.2608 C   0  0  2  0  0  0  0  0  0  0  0  0
   16.1329  -21.2299    7.0611 N   0  0  0  0  0  0  0  0  0  0  0  0
   17.0349  -22.9876    8.3610 C   0  0  0  0  0  0  0  0  0  0  0  0
   16.1446  -23.7740    7.9514 O   0  0  0  0  0  0  0  0  0  0  0  0
   18.1731  -23.5801    8.9160 O   0  0  0  0  0  0  0  0  0  0  0  0
  2  1  1  0
  3  2  2  0
  4  3  1  0
  5 11  1  0
  5  4  2  0
  6  5  1  0
  7  6  1  0
  7  9  1  0
  7  8  1  1
  9 10  2  0
 11 12  2  0
 12  2  1  0
 13  9  1  0
 13 14  1  0
 14 15  1  6
 15 16  1  0
 16 17  1  0
 17 18  1  0
 18 19  1  0
 20 14  1  0
 20 21  2  0
 22 23  1  0
 23 25  1  0
 24 23  2  0
 26 25  1  1
 26 27  1  0
 27 20  1  0
 28 30  1  0
 28 26  1  0
 29 28  2  0
M  END
$$$$
