YKN.pdb
     RDKit          3D

 30 30  0  0  1  0  0  0  0  0999 V2000
   28.4606  -19.3188   -5.9311 O   0  0  0  0  0  0  0  0  0  0  0  0
   27.9021  -19.8162   -7.1034 C   0  0  0  0  0  0  0  0  0  0  0  0
   26.5420  -20.0176   -7.2459 C   0  0  0  0  0  0  0  0  0  0  0  0
   25.9622  -20.5063   -8.3879 C   0  0  0  0  0  0  0  0  0  0  0  0
   26.7916  -20.8134   -9.4549 C   0  0  0  0  0  0  0  0  0  0  0  0
   26.2312  -21.3485  -10.7294 C   0  0  0  0  0  0  0  0  0  0  0  0
   26.0932  -20.2490  -11.7379 C   0  0  2  0  0  0  0  0  0  0  0  0
   25.0736  -19.3284  -11.3424 N   0  0  0  0  0  0  0  0  0  0  0  0
   25.7907  -20.8803  -13.0687 C   0  0  0  0  0  0  0  0  0  0  0  0
   24.6340  -21.2718  -13.3410 O   0  0  0  0  0  0  0  0  0  0  0  0
   28.1617  -20.6261   -9.3533 C   0  0  0  0  0  0  0  0  0  0  0  0
   28.6991  -20.1319   -8.1840 C   0  0  0  0  0  0  0  0  0  0  0  0
   26.8108  -21.0388  -14.0280 N   0  0  0  0  0  0  0  0  0  0  0  0
   26.7376  -21.5410  -15.3464 C   0  0  1  0  0  0  0  0  0  0  0  0
   28.0573  -21.7036  -16.0866 C   0  0  0  0  0  0  0  0  0  0  0  0
   27.9557  -22.1999  -17.4771 C   0  0  0  0  0  0  0  0  0  0  0  0
   28.5914  -21.2851  -18.5123 C   0  0  0  0  0  0  0  0  0  0  0  0
   28.3263  -21.9198  -19.8906 C   0  0  0  0  0  0  0  0  0  0  0  0
   28.8843  -21.1167  -20.9335 N   0  0  0  0  0  0  0  0  0  0  0  0
   25.9017  -22.7136  -15.5755 C   0  0  0  0  0  0  0  0  0  0  0  0
   25.8890  -23.6604  -14.7280 O   0  0  0  0  0  0  0  0  0  0  0  0
   20.8858  -22.7776  -14.8085 N   0  0  0  0  0  0  0  0  0  0  0  0
   21.4579  -22.2601  -15.9941 C   0  0  0  0  0  0  0  0  0  0  0  0
   20.7693  -22.0562  -17.0331 O   0  0  0  0  0  0  0  0  0  0  0  0
   22.9049  -21.9439  -16.0337 C   0  0  0  0  0  0  0  0  0  0  0  0
   23.6361  -23.1360  -16.6044 C   0  0  2  0  0  0  0  0  0  0  0  0
   25.0593  -22.9107  -16.7085 N   0  0  0  0  0  0  0  0  0  0  0  0
   23.1310  -23.4636  -17.9610 C   0  0  0  0  0  0  0  0  0  0  0  0
   22.3905  -24.4568  -18.1715 O   0  0  0  0  0  0  0  0  0  0  0  0
   23.4512  -22.6856  -19.0776 O   0  0  0  0  0  0  0  0  0  0  0  0
  2  1  1  0
  3  2  2  0
  4  3  1  0
  5 11  1  0
  5  4  2  0
  6  5  1  0
  7  6  1  0
  7  9  1  0
  7  8  1  1
  9 10  2  0
 11 12  2  0
 12  2  1  0
 13  9  1  0
 13 14  1  0
 14 15  1  1
 15 16  1  0
 16 17  1  0
 17 18  1  0
 18 19  1  0
 20 14  1  0
 20 21  2  0
 22 23  1  0
 23 25  1  0
 24 23  2  0
 26 25  1  6
 26 27  1  0
 27 20  1  0
 28 30  1  0
 28 26  1  0
 29 28  2  0
M  END
$$$$
