YKN.pdb
     RDKit          3D

 30 30  0  0  1  0  0  0  0  0999 V2000
   28.5408  -30.5477  -18.7634 O   0  0  0  0  0  0  0  0  0  0  0  0
   28.0530  -29.4186  -18.1147 C   0  0  0  0  0  0  0  0  0  0  0  0
   28.3279  -29.1537  -16.7862 C   0  0  0  0  0  0  0  0  0  0  0  0
   27.8618  -28.0503  -16.1196 C   0  0  0  0  0  0  0  0  0  0  0  0
   27.0715  -27.1548  -16.8227 C   0  0  0  0  0  0  0  0  0  0  0  0
   26.5296  -25.9318  -16.1628 C   0  0  0  0  0  0  0  0  0  0  0  0
   27.2458  -24.7132  -16.6599 C   0  0  2  0  0  0  0  0  0  0  0  0
   28.6136  -24.7289  -16.2449 N   0  0  0  0  0  0  0  0  0  0  0  0
   26.5169  -23.5060  -16.1378 C   0  0  0  0  0  0  0  0  0  0  0  0
   26.7736  -23.0473  -15.0024 O   0  0  0  0  0  0  0  0  0  0  0  0
   26.7720  -27.3833  -18.1571 C   0  0  0  0  0  0  0  0  0  0  0  0
   27.2638  -28.5075  -18.7853 C   0  0  0  0  0  0  0  0  0  0  0  0
   25.5326  -22.8751  -16.9247 N   0  0  0  0  0  0  0  0  0  0  0  0
   24.7790  -21.7097  -16.6611 C   0  0  1  0  0  0  0  0  0  0  0  0
   24.7882  -20.6354  -17.7389 C   0  0  0  0  0  0  0  0  0  0  0  0
   24.0760  -19.3827  -17.4019 C   0  0  0  0  0  0  0  0  0  0  0  0
   24.0559  -18.3570  -18.5246 C   0  0  0  0  0  0  0  0  0  0  0  0
   23.3469  -17.1059  -17.9724 C   0  0  0  0  0  0  0  0  0  0  0  0
   23.3418  -16.0569  -18.9438 N   0  0  0  0  0  0  0  0  0  0  0  0
   23.4217  -21.8843  -16.1574 C   0  0  0  0  0  0  0  0  0  0  0  0
   22.5691  -22.5334  -16.8404 O   0  0  0  0  0  0  0  0  0  0  0  0
   19.5353  -21.3132  -11.3747 N   0  0  0  0  0  0  0  0  0  0  0  0
   20.1255  -21.8855  -12.5258 C   0  0  0  0  0  0  0  0  0  0  0  0
   19.5250  -22.7505  -13.2233 O   0  0  0  0  0  0  0  0  0  0  0  0
   21.4864  -21.4686  -12.9375 C   0  0  0  0  0  0  0  0  0  0  0  0
   21.5950  -21.6155  -14.4368 C   0  0  2  0  0  0  0  0  0  0  0  0
   22.9358  -21.3748  -14.9179 N   0  0  0  0  0  0  0  0  0  0  0  0
   20.6906  -20.6617  -15.1262 C   0  0  0  0  0  0  0  0  0  0  0  0
   20.9583  -19.4370  -15.2118 O   0  0  0  0  0  0  0  0  0  0  0  0
   19.4926  -21.0738  -15.7176 O   0  0  0  0  0  0  0  0  0  0  0  0
  2  1  1  0
  3  2  2  0
  4  3  1  0
  5 11  1  0
  5  4  2  0
  6  5  1  0
  7  6  1  0
  7  9  1  0
  7  8  1  1
  9 10  2  0
 11 12  2  0
 12  2  1  0
 13  9  1  0
 13 14  1  0
 14 15  1  6
 15 16  1  0
 16 17  1  0
 17 18  1  0
 18 19  1  0
 20 14  1  0
 20 21  2  0
 22 23  1  0
 23 25  1  0
 24 23  2  0
 26 25  1  1
 26 27  1  0
 27 20  1  0
 28 30  1  0
 28 26  1  0
 29 28  2  0
M  END
$$$$
