NCH.pdb
     RDKit          3D

 25 25  0  0  1  0  0  0  0  0999 V2000
    9.3138  -18.6223   16.2451 N   0  0  0  0  0  0  0  0  0  0  0  0
    8.5434  -18.3916   17.4099 C   0  0  0  0  0  0  0  0  0  0  0  0
    7.7912  -19.2966   17.8549 O   0  0  0  0  0  0  0  0  0  0  0  0
    8.6278  -17.0963   18.0915 C   0  0  0  0  0  0  0  0  0  0  0  0
    9.5764  -17.1595   19.2496 C   0  0  2  0  0  0  0  0  0  0  0  0
    9.5930  -18.4580   19.8528 N   0  0  0  0  0  0  0  0  0  0  0  0
    9.3317  -16.0633   20.2135 C   0  0  0  0  0  0  0  0  0  0  0  0
    9.3069  -14.8946   19.7692 O   0  0  0  0  0  0  0  0  0  0  0  0
    9.1269  -16.2798   21.6019 N   0  0  0  0  0  0  0  0  0  0  0  0
    8.9427  -15.1483   22.4556 C   0  0  1  0  0  0  0  0  0  0  0  0
    7.8872  -14.2215   21.8883 C   0  0  0  0  0  0  0  0  0  0  0  0
    7.4264  -12.9451   23.0825 S   0  0  0  0  0  0  0  0  0  0  0  0
    8.6120  -15.5435   23.8569 C   0  0  0  0  0  0  0  0  0  0  0  0
    7.5340  -16.1243   24.1435 O   0  0  0  0  0  0  0  0  0  0  0  0
    9.4923  -15.2885   24.9502 N   0  0  0  0  0  0  0  0  0  0  0  0
    9.2613  -15.7552   26.2828 C   0  0  1  0  0  0  0  0  0  0  0  0
    7.8128  -15.6633   26.6976 C   0  0  0  0  0  0  0  0  0  0  0  0
    7.3250  -14.2866   26.7851 C   0  0  0  0  0  0  0  0  0  0  0  0
    8.0936  -13.1449   26.8061 C   0  0  0  0  0  0  0  0  0  0  0  0
    7.2766  -12.0701   26.8936 N   0  0  0  0  0  0  0  0  0  0  0  0
    6.0189  -12.5182   26.9274 C   0  0  0  0  0  0  0  0  0  0  0  0
    6.0520  -13.8696   26.8611 N   0  0  0  0  0  0  0  0  0  0  0  0
    9.8375  -17.0901   26.5420 C   0  0  0  0  0  0  0  0  0  0  0  0
   10.7522  -17.3109   27.5476 O   0  0  0  0  0  0  0  0  0  0  0  0
    9.4826  -18.0489   25.8249 O   0  0  0  0  0  0  0  0  0  0  0  0
  2  3  2  0
  2  1  1  0
  4  2  1  0
  5  4  1  0
  5  7  1  0
  5  6  1  1
  7  9  1  0
  7  8  2  0
  9 10  1  0
 10 13  1  0
 10 11  1  6
 11 12  1  0
 13 14  2  0
 15 13  1  0
 15 16  1  0
 16 23  1  0
 16 17  1  6
 18 17  1  0
 19 18  2  0
 20 21  1  0
 20 19  1  0
 21 22  2  0
 22 18  1  0
 23 24  1  0
 25 23  2  0
M  END
$$$$
