NCH.pdb
     RDKit          3D

 25 25  0  0  1  0  0  0  0  0999 V2000
   10.7803  -20.0941   20.0971 N   0  0  0  0  0  0  0  0  0  0  0  0
   11.1897  -18.7549   19.8908 C   0  0  0  0  0  0  0  0  0  0  0  0
   11.4622  -18.3532   18.7301 O   0  0  0  0  0  0  0  0  0  0  0  0
   11.2935  -17.8431   21.0341 C   0  0  0  0  0  0  0  0  0  0  0  0
    9.9939  -17.1388   21.2792 C   0  0  2  0  0  0  0  0  0  0  0  0
    9.5335  -16.4511   20.1106 N   0  0  0  0  0  0  0  0  0  0  0  0
   10.0592  -16.2800   22.4829 C   0  0  0  0  0  0  0  0  0  0  0  0
   10.3913  -15.0846   22.3256 O   0  0  0  0  0  0  0  0  0  0  0  0
    9.7648  -16.7498   23.7902 N   0  0  0  0  0  0  0  0  0  0  0  0
    9.1287  -15.8634   24.7135 C   0  0  1  0  0  0  0  0  0  0  0  0
    7.8509  -15.3063   24.1203 C   0  0  0  0  0  0  0  0  0  0  0  0
    7.1305  -14.0392   25.1895 S   0  0  0  0  0  0  0  0  0  0  0  0
    8.8690  -16.5109   26.0336 C   0  0  0  0  0  0  0  0  0  0  0  0
    8.3503  -15.8794   26.9895 O   0  0  0  0  0  0  0  0  0  0  0  0
    9.1911  -17.8767   26.2907 N   0  0  0  0  0  0  0  0  0  0  0  0
    9.0224  -18.5075   27.5637 C   0  0  1  0  0  0  0  0  0  0  0  0
    8.5845  -19.9481   27.4552 C   0  0  0  0  0  0  0  0  0  0  0  0
    7.6267  -20.1789   26.3733 C   0  0  0  0  0  0  0  0  0  0  0  0
    6.8272  -19.2338   25.7714 C   0  0  0  0  0  0  0  0  0  0  0  0
    6.0815  -19.8366   24.8170 N   0  0  0  0  0  0  0  0  0  0  0  0
    6.3995  -21.1337   24.8126 C   0  0  0  0  0  0  0  0  0  0  0  0
    7.3416  -21.3389   25.7624 N   0  0  0  0  0  0  0  0  0  0  0  0
   10.1857  -18.3387   28.4577 C   0  0  0  0  0  0  0  0  0  0  0  0
   10.2008  -18.8347   29.7424 O   0  0  0  0  0  0  0  0  0  0  0  0
   11.1876  -17.7260   28.0333 O   0  0  0  0  0  0  0  0  0  0  0  0
  2  3  2  0
  2  1  1  0
  4  2  1  0
  5  4  1  0
  5  7  1  0
  5  6  1  6
  7  9  1  0
  7  8  2  0
  9 10  1  0
 10 13  1  0
 10 11  1  6
 11 12  1  0
 13 14  2  0
 15 13  1  0
 15 16  1  0
 16 23  1  0
 16 17  1  6
 18 17  1  0
 19 18  2  0
 20 21  1  0
 20 19  1  0
 21 22  2  0
 22 18  1  0
 23 24  1  0
 25 23  2  0
M  END
$$$$
