NCH.pdb
     RDKit          3D

 25 25  0  0  1  0  0  0  0  0999 V2000
   11.5707  -17.7278   14.3215 N   0  0  0  0  0  0  0  0  0  0  0  0
   12.4222  -16.5972   14.3210 C   0  0  0  0  0  0  0  0  0  0  0  0
   12.9628  -16.2185   13.2499 O   0  0  0  0  0  0  0  0  0  0  0  0
   12.6688  -15.8734   15.5719 C   0  0  0  0  0  0  0  0  0  0  0  0
   11.3809  -15.5287   16.2559 C   0  0  2  0  0  0  0  0  0  0  0  0
   10.5415  -14.7147   15.4294 N   0  0  0  0  0  0  0  0  0  0  0  0
   11.6154  -14.9597   17.6020 C   0  0  0  0  0  0  0  0  0  0  0  0
   11.9890  -13.7683   17.6714 O   0  0  0  0  0  0  0  0  0  0  0  0
   11.4364  -15.6994   18.8009 N   0  0  0  0  0  0  0  0  0  0  0  0
   11.7373  -15.0712   20.0490 C   0  0  1  0  0  0  0  0  0  0  0  0
   10.5411  -15.1330   20.9765 C   0  0  0  0  0  0  0  0  0  0  0  0
    9.9209  -16.8237   21.1336 S   0  0  0  0  0  0  0  0  0  0  0  0
   12.9496  -15.6526   20.6983 C   0  0  0  0  0  0  0  0  0  0  0  0
   13.2139  -16.8801   20.6270 O   0  0  0  0  0  0  0  0  0  0  0  0
   13.8770  -14.8572   21.4349 N   0  0  0  0  0  0  0  0  0  0  0  0
   15.0709  -15.3742   22.0302 C   0  0  1  0  0  0  0  0  0  0  0  0
   16.2586  -14.4576   21.8629 C   0  0  0  0  0  0  0  0  0  0  0  0
   16.5433  -14.1334   20.4647 C   0  0  0  0  0  0  0  0  0  0  0  0
   15.8502  -14.5801   19.3626 C   0  0  0  0  0  0  0  0  0  0  0  0
   16.4179  -14.0609   18.2498 N   0  0  0  0  0  0  0  0  0  0  0  0
   17.4472  -13.3023   18.6356 C   0  0  0  0  0  0  0  0  0  0  0  0
   17.5208  -13.3487   19.9862 N   0  0  0  0  0  0  0  0  0  0  0  0
   14.8855  -15.8053   23.4305 C   0  0  0  0  0  0  0  0  0  0  0  0
   13.6832  -15.6652   24.0876 O   0  0  0  0  0  0  0  0  0  0  0  0
   15.8515  -16.3134   24.0373 O   0  0  0  0  0  0  0  0  0  0  0  0
  2  3  2  0
  2  1  1  0
  4  2  1  0
  5  4  1  0
  5  7  1  0
  5  6  1  6
  7  9  1  0
  7  8  2  0
  9 10  1  0
 10 13  1  0
 10 11  1  1
 11 12  1  0
 13 14  2  0
 15 13  1  0
 15 16  1  0
 16 23  1  0
 16 17  1  1
 18 17  1  0
 19 18  2  0
 20 21  1  0
 20 19  1  0
 21 22  2  0
 22 18  1  0
 23 24  1  0
 25 23  2  0
M  END
$$$$
