NCH.pdb
     RDKit          3D

 25 25  0  0  1  0  0  0  0  0999 V2000
    7.0145  -12.9059   19.0033 N   0  0  0  0  0  0  0  0  0  0  0  0
    7.9569  -13.4103   18.0754 C   0  0  0  0  0  0  0  0  0  0  0  0
    7.7929  -13.2132   16.8436 O   0  0  0  0  0  0  0  0  0  0  0  0
    9.1204  -14.1607   18.5575 C   0  0  0  0  0  0  0  0  0  0  0  0
    9.9874  -14.5989   17.4167 C   0  0  2  0  0  0  0  0  0  0  0  0
    9.2752  -15.4360   16.4989 N   0  0  0  0  0  0  0  0  0  0  0  0
   11.2565  -15.1917   17.8945 C   0  0  0  0  0  0  0  0  0  0  0  0
   11.2660  -16.4164   18.1474 O   0  0  0  0  0  0  0  0  0  0  0  0
   12.4470  -14.4390   18.0753 N   0  0  0  0  0  0  0  0  0  0  0  0
   13.6274  -15.1128   18.5174 C   0  0  1  0  0  0  0  0  0  0  0  0
   14.8311  -14.6535   17.7205 C   0  0  0  0  0  0  0  0  0  0  0  0
   14.7636  -15.2656   16.0210 S   0  0  0  0  0  0  0  0  0  0  0  0
   13.8596  -14.9465   19.9830 C   0  0  0  0  0  0  0  0  0  0  0  0
   14.0076  -13.8118   20.5047 O   0  0  0  0  0  0  0  0  0  0  0  0
   13.9275  -16.0568   20.8762 N   0  0  0  0  0  0  0  0  0  0  0  0
   14.2214  -15.9382   22.2714 C   0  0  1  0  0  0  0  0  0  0  0  0
   13.3830  -16.8530   23.1310 C   0  0  0  0  0  0  0  0  0  0  0  0
   11.9697  -16.4754   23.1658 C   0  0  0  0  0  0  0  0  0  0  0  0
   11.4039  -15.3647   22.5819 C   0  0  0  0  0  0  0  0  0  0  0  0
   10.0753  -15.3665   22.8369 N   0  0  0  0  0  0  0  0  0  0  0  0
    9.8033  -16.4524   23.5653 C   0  0  0  0  0  0  0  0  0  0  0  0
   10.9603  -17.1260   23.7640 N   0  0  0  0  0  0  0  0  0  0  0  0
   15.6626  -16.0445   22.5756 C   0  0  0  0  0  0  0  0  0  0  0  0
   16.1690  -15.7774   23.8282 O   0  0  0  0  0  0  0  0  0  0  0  0
   16.4465  -16.3879   21.6662 O   0  0  0  0  0  0  0  0  0  0  0  0
  2  3  2  0
  2  1  1  0
  4  2  1  0
  5  4  1  0
  5  7  1  0
  5  6  1  1
  7  9  1  0
  7  8  2  0
  9 10  1  0
 10 13  1  0
 10 11  1  6
 11 12  1  0
 13 14  2  0
 15 13  1  0
 15 16  1  0
 16 23  1  0
 16 17  1  1
 18 17  1  0
 19 18  2  0
 20 21  1  0
 20 19  1  0
 21 22  2  0
 22 18  1  0
 23 24  1  0
 25 23  2  0
M  END
$$$$
