NCH.pdb
     RDKit          3D

 25 25  0  0  1  0  0  0  0  0999 V2000
    8.0066  -17.1139   18.5804 N   0  0  0  0  0  0  0  0  0  0  0  0
    7.1867  -17.0114   19.7297 C   0  0  0  0  0  0  0  0  0  0  0  0
    5.9403  -17.1484   19.6262 O   0  0  0  0  0  0  0  0  0  0  0  0
    7.7973  -16.7456   21.0357 C   0  0  0  0  0  0  0  0  0  0  0  0
    7.7932  -15.2789   21.3422 C   0  0  2  0  0  0  0  0  0  0  0  0
    8.3939  -14.5146   20.2908 N   0  0  0  0  0  0  0  0  0  0  0  0
    8.3677  -15.0007   22.6775 C   0  0  0  0  0  0  0  0  0  0  0  0
    9.6127  -14.9259   22.7695 O   0  0  0  0  0  0  0  0  0  0  0  0
    7.5759  -14.8177   23.8420 N   0  0  0  0  0  0  0  0  0  0  0  0
    8.2267  -14.7414   25.1123 C   0  0  1  0  0  0  0  0  0  0  0  0
    7.3885  -13.9453   26.0914 C   0  0  0  0  0  0  0  0  0  0  0  0
    6.2490  -12.8384   25.2289 S   0  0  0  0  0  0  0  0  0  0  0  0
    8.5567  -16.0899   25.6619 C   0  0  0  0  0  0  0  0  0  0  0  0
    7.6886  -16.9944   25.7607 O   0  0  0  0  0  0  0  0  0  0  0  0
    9.8682  -16.4335   26.1059 N   0  0  0  0  0  0  0  0  0  0  0  0
   10.1964  -17.6797   26.7272 C   0  0  1  0  0  0  0  0  0  0  0  0
   11.3845  -18.3610   26.0923 C   0  0  0  0  0  0  0  0  0  0  0  0
   11.2235  -18.5775   24.6542 C   0  0  0  0  0  0  0  0  0  0  0  0
   10.1071  -18.2898   23.9023 C   0  0  0  0  0  0  0  0  0  0  0  0
   10.3469  -18.6325   22.6157 N   0  0  0  0  0  0  0  0  0  0  0  0
   11.5863  -19.1261   22.5516 C   0  0  0  0  0  0  0  0  0  0  0  0
   12.1177  -19.0911   23.7958 N   0  0  0  0  0  0  0  0  0  0  0  0
   10.3203  -17.5852   28.1958 C   0  0  0  0  0  0  0  0  0  0  0  0
   10.2066  -16.3870   28.8654 O   0  0  0  0  0  0  0  0  0  0  0  0
   10.5351  -18.6267   28.8505 O   0  0  0  0  0  0  0  0  0  0  0  0
  2  3  2  0
  2  1  1  0
  4  2  1  0
  5  4  1  0
  5  7  1  0
  5  6  1  6
  7  9  1  0
  7  8  2  0
  9 10  1  0
 10 13  1  0
 10 11  1  1
 11 12  1  0
 13 14  2  0
 15 13  1  0
 15 16  1  0
 16 23  1  0
 16 17  1  6
 18 17  1  0
 19 18  2  0
 20 21  1  0
 20 19  1  0
 21 22  2  0
 22 18  1  0
 23 24  1  0
 25 23  2  0
M  END
$$$$
