NCH.pdb
     RDKit          3D

 25 25  0  0  1  0  0  0  0  0999 V2000
   16.0601  -12.5676   17.5434 N   0  0  0  0  0  0  0  0  0  0  0  0
   16.1554  -13.8792   17.0197 C   0  0  0  0  0  0  0  0  0  0  0  0
   16.8826  -14.7322   17.5911 O   0  0  0  0  0  0  0  0  0  0  0  0
   15.4042  -14.2352   15.8122 C   0  0  0  0  0  0  0  0  0  0  0  0
   15.4048  -15.7180   15.5968 C   0  0  2  0  0  0  0  0  0  0  0  0
   15.4020  -16.0528   14.2046 N   0  0  0  0  0  0  0  0  0  0  0  0
   14.3272  -16.3798   16.3658 C   0  0  0  0  0  0  0  0  0  0  0  0
   13.8477  -17.4371   15.9010 O   0  0  0  0  0  0  0  0  0  0  0  0
   13.8221  -15.8718   17.5919 N   0  0  0  0  0  0  0  0  0  0  0  0
   12.8447  -16.6347   18.3030 C   0  0  1  0  0  0  0  0  0  0  0  0
   13.3301  -18.0540   18.5147 C   0  0  0  0  0  0  0  0  0  0  0  0
   14.9037  -18.0821   19.4039 S   0  0  0  0  0  0  0  0  0  0  0  0
   12.4633  -15.9996   19.5993 C   0  0  0  0  0  0  0  0  0  0  0  0
   13.3133  -15.4364   20.3354 O   0  0  0  0  0  0  0  0  0  0  0  0
   11.1201  -15.9924   20.0801 N   0  0  0  0  0  0  0  0  0  0  0  0
   10.7290  -15.4358   21.3387 C   0  0  1  0  0  0  0  0  0  0  0  0
    9.2663  -15.0665   21.3918 C   0  0  0  0  0  0  0  0  0  0  0  0
    8.8810  -14.0921   20.3705 C   0  0  0  0  0  0  0  0  0  0  0  0
    9.7284  -13.4142   19.5237 C   0  0  0  0  0  0  0  0  0  0  0  0
    8.9937  -12.6052   18.7263 N   0  0  0  0  0  0  0  0  0  0  0  0
    7.7100  -12.7651   19.0584 C   0  0  0  0  0  0  0  0  0  0  0  0
    7.6449  -13.6721   20.0609 N   0  0  0  0  0  0  0  0  0  0  0  0
   11.1446  -16.2562   22.4943 C   0  0  0  0  0  0  0  0  0  0  0  0
   11.7335  -17.4919   22.3420 O   0  0  0  0  0  0  0  0  0  0  0  0
   10.9553  -15.8136   23.6465 O   0  0  0  0  0  0  0  0  0  0  0  0
  2  3  2  0
  2  1  1  0
  4  2  1  0
  5  4  1  0
  5  7  1  0
  5  6  1  6
  7  9  1  0
  7  8  2  0
  9 10  1  0
 10 13  1  0
 10 11  1  1
 11 12  1  0
 13 14  2  0
 15 13  1  0
 15 16  1  0
 16 23  1  0
 16 17  1  6
 18 17  1  0
 19 18  2  0
 20 21  1  0
 20 19  1  0
 21 22  2  0
 22 18  1  0
 23 24  1  0
 25 23  2  0
M  END
$$$$
