NCH.pdb
     RDKit          3D

 25 25  0  0  1  0  0  0  0  0999 V2000
   16.5647  -17.9801   17.6940 N   0  0  0  0  0  0  0  0  0  0  0  0
   15.6616  -18.7407   18.4747 C   0  0  0  0  0  0  0  0  0  0  0  0
   15.4586  -19.9514   18.1989 O   0  0  0  0  0  0  0  0  0  0  0  0
   14.9674  -18.1108   19.6019 C   0  0  0  0  0  0  0  0  0  0  0  0
   13.9494  -19.0385   20.1920 C   0  0  2  0  0  0  0  0  0  0  0  0
   12.9202  -19.3657   19.2517 N   0  0  0  0  0  0  0  0  0  0  0  0
   13.4314  -18.5284   21.4813 C   0  0  0  0  0  0  0  0  0  0  0  0
   14.2173  -17.8805   22.2068 O   0  0  0  0  0  0  0  0  0  0  0  0
   12.0985  -18.7409   21.9226 N   0  0  0  0  0  0  0  0  0  0  0  0
   11.7312  -18.3120   23.2356 C   0  0  1  0  0  0  0  0  0  0  0  0
   10.2295  -18.1408   23.3375 C   0  0  0  0  0  0  0  0  0  0  0  0
    9.3663  -19.2288   22.1804 S   0  0  0  0  0  0  0  0  0  0  0  0
   12.2389  -19.2330   24.2955 C   0  0  0  0  0  0  0  0  0  0  0  0
   12.9524  -20.2309   24.0184 O   0  0  0  0  0  0  0  0  0  0  0  0
   11.9481  -19.0395   25.6787 N   0  0  0  0  0  0  0  0  0  0  0  0
   12.4927  -19.8474   26.7264 C   0  0  1  0  0  0  0  0  0  0  0  0
   13.9965  -19.7560   26.8211 C   0  0  0  0  0  0  0  0  0  0  0  0
   14.6874  -20.6157   25.8595 C   0  0  0  0  0  0  0  0  0  0  0  0
   14.0993  -21.4357   24.9234 C   0  0  0  0  0  0  0  0  0  0  0  0
   15.0703  -22.0670   24.2243 N   0  0  0  0  0  0  0  0  0  0  0  0
   16.2474  -21.6579   24.7046 C   0  0  0  0  0  0  0  0  0  0  0  0
   16.0103  -20.7733   25.7012 N   0  0  0  0  0  0  0  0  0  0  0  0
   11.8327  -19.6351   28.0303 C   0  0  0  0  0  0  0  0  0  0  0  0
   12.1831  -20.3500   29.1542 O   0  0  0  0  0  0  0  0  0  0  0  0
   10.9274  -18.7791   28.1151 O   0  0  0  0  0  0  0  0  0  0  0  0
  2  3  2  0
  2  1  1  0
  4  2  1  0
  5  4  1  0
  5  7  1  0
  5  6  1  6
  7  9  1  0
  7  8  2  0
  9 10  1  0
 10 13  1  0
 10 11  1  6
 11 12  1  0
 13 14  2  0
 15 13  1  0
 15 16  1  0
 16 23  1  0
 16 17  1  1
 18 17  1  0
 19 18  2  0
 20 21  1  0
 20 19  1  0
 21 22  2  0
 22 18  1  0
 23 24  1  0
 25 23  2  0
M  END
$$$$
