NCH.pdb
     RDKit          3D

 25 25  0  0  1  0  0  0  0  0999 V2000
    9.3412  -18.1810   14.5651 N   0  0  0  0  0  0  0  0  0  0  0  0
    8.9145  -16.8432   14.3871 C   0  0  0  0  0  0  0  0  0  0  0  0
    8.8863  -16.3412   13.2338 O   0  0  0  0  0  0  0  0  0  0  0  0
    8.5074  -16.0500   15.5509 C   0  0  0  0  0  0  0  0  0  0  0  0
    8.6442  -16.8421   16.8153 C   0  0  2  0  0  0  0  0  0  0  0  0
    7.4910  -17.6546   17.0610 N   0  0  0  0  0  0  0  0  0  0  0  0
    9.0142  -15.9799   17.9600 C   0  0  0  0  0  0  0  0  0  0  0  0
   10.1359  -15.4278   17.9319 O   0  0  0  0  0  0  0  0  0  0  0  0
    8.1610  -15.7563   19.0729 N   0  0  0  0  0  0  0  0  0  0  0  0
    8.7375  -15.3206   20.3061 C   0  0  1  0  0  0  0  0  0  0  0  0
    7.6568  -15.0656   21.3366 C   0  0  0  0  0  0  0  0  0  0  0  0
    6.6557  -16.5447   21.6154 S   0  0  0  0  0  0  0  0  0  0  0  0
    9.7574  -16.2797   20.8250 C   0  0  0  0  0  0  0  0  0  0  0  0
   10.3530  -17.0866   20.0663 O   0  0  0  0  0  0  0  0  0  0  0  0
   10.1170  -16.3399   22.2043 N   0  0  0  0  0  0  0  0  0  0  0  0
   11.4485  -16.1406   22.6883 C   0  0  1  0  0  0  0  0  0  0  0  0
   12.0654  -14.8504   22.2051 C   0  0  0  0  0  0  0  0  0  0  0  0
   12.9064  -15.0225   21.0202 C   0  0  0  0  0  0  0  0  0  0  0  0
   13.1618  -16.2037   20.3614 C   0  0  0  0  0  0  0  0  0  0  0  0
   13.9828  -15.9520   19.3160 N   0  0  0  0  0  0  0  0  0  0  0  0
   14.2429  -14.6420   19.3107 C   0  0  0  0  0  0  0  0  0  0  0  0
   13.5853  -14.0785   20.3507 N   0  0  0  0  0  0  0  0  0  0  0  0
   11.5695  -16.3094   24.1505 C   0  0  0  0  0  0  0  0  0  0  0  0
   12.7486  -16.6951   24.7487 O   0  0  0  0  0  0  0  0  0  0  0  0
   10.5691  -16.0949   24.8665 O   0  0  0  0  0  0  0  0  0  0  0  0
  2  3  2  0
  2  1  1  0
  4  2  1  0
  5  4  1  0
  5  7  1  0
  5  6  1  1
  7  9  1  0
  7  8  2  0
  9 10  1  0
 10 13  1  0
 10 11  1  1
 11 12  1  0
 13 14  2  0
 15 13  1  0
 15 16  1  0
 16 23  1  0
 16 17  1  1
 18 17  1  0
 19 18  2  0
 20 21  1  0
 20 19  1  0
 21 22  2  0
 22 18  1  0
 23 24  1  0
 25 23  2  0
M  END
$$$$
