NCH.pdb
     RDKit          3D

 25 25  0  0  1  0  0  0  0  0999 V2000
   13.2067  -18.6876   17.1079 N   0  0  0  0  0  0  0  0  0  0  0  0
   12.1645  -17.7614   17.3517 C   0  0  0  0  0  0  0  0  0  0  0  0
   11.2963  -17.5458   16.4671 O   0  0  0  0  0  0  0  0  0  0  0  0
   12.1040  -17.0581   18.6367 C   0  0  0  0  0  0  0  0  0  0  0  0
   11.0378  -17.6369   19.5161 C   0  0  2  0  0  0  0  0  0  0  0  0
    9.7667  -17.6714   18.8579 N   0  0  0  0  0  0  0  0  0  0  0  0
   11.0013  -16.9703   20.8371 C   0  0  0  0  0  0  0  0  0  0  0  0
   12.0609  -16.9382   21.5005 O   0  0  0  0  0  0  0  0  0  0  0  0
    9.8301  -16.3741   21.3752 N   0  0  0  0  0  0  0  0  0  0  0  0
    9.8695  -15.8593   22.7080 C   0  0  1  0  0  0  0  0  0  0  0  0
    8.7263  -14.8923   22.9377 C   0  0  0  0  0  0  0  0  0  0  0  0
    8.6351  -14.3858   24.6705 S   0  0  0  0  0  0  0  0  0  0  0  0
    9.8689  -16.9435   23.7345 C   0  0  0  0  0  0  0  0  0  0  0  0
    8.9056  -17.7436   23.8511 O   0  0  0  0  0  0  0  0  0  0  0  0
   10.9537  -17.1379   24.6406 N   0  0  0  0  0  0  0  0  0  0  0  0
   11.0007  -18.1879   25.6113 C   0  0  1  0  0  0  0  0  0  0  0  0
   12.1860  -19.1052   25.4315 C   0  0  0  0  0  0  0  0  0  0  0  0
   12.1864  -19.8000   24.1438 C   0  0  0  0  0  0  0  0  0  0  0  0
   11.2435  -19.6808   23.1482 C   0  0  0  0  0  0  0  0  0  0  0  0
   11.5945  -20.4818   22.1161 N   0  0  0  0  0  0  0  0  0  0  0  0
   12.7334  -21.0955   22.4479 C   0  0  0  0  0  0  0  0  0  0  0  0
   13.0914  -20.6776   23.6845 N   0  0  0  0  0  0  0  0  0  0  0  0
   10.8683  -17.7049   27.0006 C   0  0  0  0  0  0  0  0  0  0  0  0
   10.8234  -18.5658   28.0747 O   0  0  0  0  0  0  0  0  0  0  0  0
   10.7947  -16.4755   27.2066 O   0  0  0  0  0  0  0  0  0  0  0  0
  2  3  2  0
  2  1  1  0
  4  2  1  0
  5  4  1  0
  5  7  1  0
  5  6  1  6
  7  9  1  0
  7  8  2  0
  9 10  1  0
 10 13  1  0
 10 11  1  1
 11 12  1  0
 13 14  2  0
 15 13  1  0
 15 16  1  0
 16 23  1  0
 16 17  1  1
 18 17  1  0
 19 18  2  0
 20 21  1  0
 20 19  1  0
 21 22  2  0
 22 18  1  0
 23 24  1  0
 25 23  2  0
M  END
$$$$
