NCH.pdb
     RDKit          3D

 25 25  0  0  1  0  0  0  0  0999 V2000
   11.3300  -19.0563   19.9120 N   0  0  0  0  0  0  0  0  0  0  0  0
   11.1050  -17.6815   19.6612 C   0  0  0  0  0  0  0  0  0  0  0  0
   11.3643  -17.1991   18.5285 O   0  0  0  0  0  0  0  0  0  0  0  0
   10.5701  -16.8273   20.7259 C   0  0  0  0  0  0  0  0  0  0  0  0
   10.4487  -17.5853   22.0127 C   0  0  2  0  0  0  0  0  0  0  0  0
    9.4340  -18.5932   21.9422 N   0  0  0  0  0  0  0  0  0  0  0  0
   10.2965  -16.6735   23.1687 C   0  0  0  0  0  0  0  0  0  0  0  0
   11.2633  -15.9340   23.4556 O   0  0  0  0  0  0  0  0  0  0  0  0
    9.1157  -16.6043   23.9544 N   0  0  0  0  0  0  0  0  0  0  0  0
    9.1139  -15.7825   25.1238 C   0  0  1  0  0  0  0  0  0  0  0  0
    7.7559  -15.1400   25.3191 C   0  0  0  0  0  0  0  0  0  0  0  0
    6.4425  -16.3817   25.3507 S   0  0  0  0  0  0  0  0  0  0  0  0
    9.5323  -16.5331   26.3447 C   0  0  0  0  0  0  0  0  0  0  0  0
    9.5256  -16.0000   27.4837 O   0  0  0  0  0  0  0  0  0  0  0  0
    9.9627  -17.8924   26.2953 N   0  0  0  0  0  0  0  0  0  0  0  0
   10.5065  -18.5956   27.4164 C   0  0  1  0  0  0  0  0  0  0  0  0
   10.1558  -20.0638   27.4188 C   0  0  0  0  0  0  0  0  0  0  0  0
    8.7137  -20.3114   27.4193 C   0  0  0  0  0  0  0  0  0  0  0  0
    7.7467  -19.5194   27.9956 C   0  0  0  0  0  0  0  0  0  0  0  0
    6.5358  -20.0835   27.7819 N   0  0  0  0  0  0  0  0  0  0  0  0
    6.7288  -21.2073   27.0865 C   0  0  0  0  0  0  0  0  0  0  0  0
    8.0574  -21.3432   26.8672 N   0  0  0  0  0  0  0  0  0  0  0  0
   11.9522  -18.3619   27.6068 C   0  0  0  0  0  0  0  0  0  0  0  0
   12.6922  -17.5959   26.7335 O   0  0  0  0  0  0  0  0  0  0  0  0
   12.5210  -18.8764   28.5924 O   0  0  0  0  0  0  0  0  0  0  0  0
  2  3  2  0
  2  1  1  0
  4  2  1  0
  5  4  1  0
  5  7  1  0
  5  6  1  6
  7  9  1  0
  7  8  2  0
  9 10  1  0
 10 13  1  0
 10 11  1  1
 11 12  1  0
 13 14  2  0
 15 13  1  0
 15 16  1  0
 16 23  1  0
 16 17  1  6
 18 17  1  0
 19 18  2  0
 20 21  1  0
 20 19  1  0
 21 22  2  0
 22 18  1  0
 23 24  1  0
 25 23  2  0
M  END
$$$$
