NCH.pdb
     RDKit          3D

 25 25  0  0  1  0  0  0  0  0999 V2000
   10.3296  -16.7137   18.4359 N   0  0  0  0  0  0  0  0  0  0  0  0
    9.1314  -16.2390   19.0212 C   0  0  0  0  0  0  0  0  0  0  0  0
    8.0194  -16.6084   18.5631 O   0  0  0  0  0  0  0  0  0  0  0  0
    9.1949  -15.3178   20.1599 C   0  0  0  0  0  0  0  0  0  0  0  0
    8.7980  -16.0061   21.4303 C   0  0  2  0  0  0  0  0  0  0  0  0
    7.4903  -16.5818   21.3368 N   0  0  0  0  0  0  0  0  0  0  0  0
    8.9720  -15.1224   22.6049 C   0  0  0  0  0  0  0  0  0  0  0  0
   10.1040  -14.6261   22.7951 O   0  0  0  0  0  0  0  0  0  0  0  0
    7.9225  -14.8189   23.5120 N   0  0  0  0  0  0  0  0  0  0  0  0
    8.2401  -14.1468   24.7327 C   0  0  1  0  0  0  0  0  0  0  0  0
    7.0807  -13.2799   25.1788 C   0  0  0  0  0  0  0  0  0  0  0  0
    7.3848  -12.5696   26.8130 S   0  0  0  0  0  0  0  0  0  0  0  0
    8.6471  -15.0946   25.8122 C   0  0  0  0  0  0  0  0  0  0  0  0
    7.8524  -15.9540   26.2722 O   0  0  0  0  0  0  0  0  0  0  0  0
    9.9537  -15.0844   26.3849 N   0  0  0  0  0  0  0  0  0  0  0  0
   10.3568  -15.9360   27.4616 C   0  0  1  0  0  0  0  0  0  0  0  0
   11.6254  -16.6993   27.1671 C   0  0  0  0  0  0  0  0  0  0  0  0
   11.4809  -17.6543   26.0679 C   0  0  0  0  0  0  0  0  0  0  0  0
   10.3019  -18.0600   25.4848 C   0  0  0  0  0  0  0  0  0  0  0  0
   10.5829  -18.9491   24.5046 N   0  0  0  0  0  0  0  0  0  0  0  0
   11.9088  -19.1047   24.4658 C   0  0  0  0  0  0  0  0  0  0  0  0
   12.4530  -18.3141   25.4200 N   0  0  0  0  0  0  0  0  0  0  0  0
   10.4056  -15.2448   28.7658 C   0  0  0  0  0  0  0  0  0  0  0  0
   10.6745  -15.9130   29.9397 O   0  0  0  0  0  0  0  0  0  0  0  0
   10.1961  -14.0144   28.8037 O   0  0  0  0  0  0  0  0  0  0  0  0
  2  3  2  0
  2  1  1  0
  4  2  1  0
  5  4  1  0
  5  7  1  0
  5  6  1  6
  7  9  1  0
  7  8  2  0
  9 10  1  0
 10 13  1  0
 10 11  1  1
 11 12  1  0
 13 14  2  0
 15 13  1  0
 15 16  1  0
 16 23  1  0
 16 17  1  6
 18 17  1  0
 19 18  2  0
 20 21  1  0
 20 19  1  0
 21 22  2  0
 22 18  1  0
 23 24  1  0
 25 23  2  0
M  END
$$$$
