NCH.pdb
     RDKit          3D

 25 25  0  0  1  0  0  0  0  0999 V2000
    9.3393  -21.3487   17.9203 N   0  0  0  0  0  0  0  0  0  0  0  0
    8.4233  -20.3975   18.4297 C   0  0  0  0  0  0  0  0  0  0  0  0
    7.2304  -20.3973   18.0296 O   0  0  0  0  0  0  0  0  0  0  0  0
    8.8721  -19.4167   19.4227 C   0  0  0  0  0  0  0  0  0  0  0  0
    8.7826  -18.0230   18.8796 C   0  0  2  0  0  0  0  0  0  0  0  0
    9.4973  -17.8862   17.6464 N   0  0  0  0  0  0  0  0  0  0  0  0
    9.1620  -17.0174   19.8972 C   0  0  0  0  0  0  0  0  0  0  0  0
   10.3793  -16.7721   20.0450 O   0  0  0  0  0  0  0  0  0  0  0  0
    8.2151  -16.3292   20.7012 N   0  0  0  0  0  0  0  0  0  0  0  0
    8.6865  -15.3783   21.6586 C   0  0  1  0  0  0  0  0  0  0  0  0
    8.0522  -14.0237   21.4180 C   0  0  0  0  0  0  0  0  0  0  0  0
    6.2881  -14.0474   21.8116 S   0  0  0  0  0  0  0  0  0  0  0  0
    8.4654  -15.8316   23.0639 C   0  0  0  0  0  0  0  0  0  0  0  0
    7.3416  -16.2334   23.4603 O   0  0  0  0  0  0  0  0  0  0  0  0
    9.5082  -15.8371   24.0375 N   0  0  0  0  0  0  0  0  0  0  0  0
    9.7177  -16.8996   24.9724 C   0  0  1  0  0  0  0  0  0  0  0  0
    9.6451  -18.2673   24.3377 C   0  0  0  0  0  0  0  0  0  0  0  0
    8.2849  -18.8034   24.2788 C   0  0  0  0  0  0  0  0  0  0  0  0
    7.1413  -18.1882   24.7353 C   0  0  0  0  0  0  0  0  0  0  0  0
    6.0853  -19.0008   24.5014 N   0  0  0  0  0  0  0  0  0  0  0  0
    6.5468  -20.1060   23.9104 C   0  0  0  0  0  0  0  0  0  0  0  0
    7.8878  -19.9823   23.7762 N   0  0  0  0  0  0  0  0  0  0  0  0
   10.9327  -16.7239   25.7933 C   0  0  0  0  0  0  0  0  0  0  0  0
   11.8780  -15.7640   25.5072 O   0  0  0  0  0  0  0  0  0  0  0  0
   11.1071  -17.4708   26.7788 O   0  0  0  0  0  0  0  0  0  0  0  0
  2  3  2  0
  2  1  1  0
  4  2  1  0
  5  4  1  0
  5  7  1  0
  5  6  1  6
  7  9  1  0
  7  8  2  0
  9 10  1  0
 10 13  1  0
 10 11  1  1
 11 12  1  0
 13 14  2  0
 15 13  1  0
 15 16  1  0
 16 23  1  0
 16 17  1  6
 18 17  1  0
 19 18  2  0
 20 21  1  0
 20 19  1  0
 21 22  2  0
 22 18  1  0
 23 24  1  0
 25 23  2  0
M  END
$$$$
