NCH.pdb
     RDKit          3D

 25 25  0  0  1  0  0  0  0  0999 V2000
    5.0571  -17.2071   20.0049 N   0  0  0  0  0  0  0  0  0  0  0  0
    6.4590  -17.0129   20.0292 C   0  0  0  0  0  0  0  0  0  0  0  0
    7.1153  -17.0388   18.9561 O   0  0  0  0  0  0  0  0  0  0  0  0
    7.1380  -16.7824   21.3079 C   0  0  0  0  0  0  0  0  0  0  0  0
    7.6064  -15.3635   21.4193 C   0  0  2  0  0  0  0  0  0  0  0  0
    8.4989  -15.0134   20.3557 N   0  0  0  0  0  0  0  0  0  0  0  0
    8.1491  -15.0740   22.7655 C   0  0  0  0  0  0  0  0  0  0  0  0
    9.3263  -15.4222   23.0038 O   0  0  0  0  0  0  0  0  0  0  0  0
    7.3998  -14.4267   23.7833 N   0  0  0  0  0  0  0  0  0  0  0  0
    7.9438  -14.3621   25.1035 C   0  0  1  0  0  0  0  0  0  0  0  0
    7.2955  -13.2418   25.8907 C   0  0  0  0  0  0  0  0  0  0  0  0
    5.4931  -13.3762   25.8578 S   0  0  0  0  0  0  0  0  0  0  0  0
    7.8289  -15.6625   25.8281 C   0  0  0  0  0  0  0  0  0  0  0  0
    6.9333  -16.4995   25.5471 O   0  0  0  0  0  0  0  0  0  0  0  0
    8.7219  -16.0338   26.8769 N   0  0  0  0  0  0  0  0  0  0  0  0
    9.1814  -17.3712   27.0940 C   0  0  1  0  0  0  0  0  0  0  0  0
    9.7747  -17.9996   25.8563 C   0  0  0  0  0  0  0  0  0  0  0  0
    8.8431  -18.8848   25.1568 C   0  0  0  0  0  0  0  0  0  0  0  0
    7.5681  -19.2140   25.5577 C   0  0  0  0  0  0  0  0  0  0  0  0
    7.0276  -20.0556   24.6468 N   0  0  0  0  0  0  0  0  0  0  0  0
    7.9373  -20.2564   23.6899 C   0  0  0  0  0  0  0  0  0  0  0  0
    9.0427  -19.5413   24.0038 N   0  0  0  0  0  0  0  0  0  0  0  0
   10.0651  -17.5012   28.2701 C   0  0  0  0  0  0  0  0  0  0  0  0
   10.2545  -18.7031   28.9153 O   0  0  0  0  0  0  0  0  0  0  0  0
   10.6593  -16.4872   28.6922 O   0  0  0  0  0  0  0  0  0  0  0  0
  2  3  2  0
  2  1  1  0
  4  2  1  0
  5  4  1  0
  5  7  1  0
  5  6  1  6
  7  9  1  0
  7  8  2  0
  9 10  1  0
 10 13  1  0
 10 11  1  1
 11 12  1  0
 13 14  2  0
 15 13  1  0
 15 16  1  0
 16 23  1  0
 16 17  1  6
 18 17  1  0
 19 18  2  0
 20 21  1  0
 20 19  1  0
 21 22  2  0
 22 18  1  0
 23 24  1  0
 25 23  2  0
M  END
$$$$
