NCH.pdb
     RDKit          3D

 25 25  0  0  1  0  0  0  0  0999 V2000
   12.0405  -17.2560   16.9256 N   0  0  0  0  0  0  0  0  0  0  0  0
   10.7722  -17.0885   17.5314 C   0  0  0  0  0  0  0  0  0  0  0  0
    9.7478  -17.5784   16.9896 O   0  0  0  0  0  0  0  0  0  0  0  0
   10.6611  -16.3435   18.7891 C   0  0  0  0  0  0  0  0  0  0  0  0
   10.5681  -17.2752   19.9589 C   0  0  2  0  0  0  0  0  0  0  0  0
    9.5199  -18.2362   19.7909 N   0  0  0  0  0  0  0  0  0  0  0  0
   10.4920  -16.5355   21.2387 C   0  0  0  0  0  0  0  0  0  0  0  0
   11.5684  -16.2304   21.7974 O   0  0  0  0  0  0  0  0  0  0  0  0
    9.2656  -16.1632   21.8499 N   0  0  0  0  0  0  0  0  0  0  0  0
    9.2940  -15.5981   23.1625 C   0  0  1  0  0  0  0  0  0  0  0  0
    8.0353  -14.7964   23.4228 C   0  0  0  0  0  0  0  0  0  0  0  0
    7.9674  -14.2215   25.1353 S   0  0  0  0  0  0  0  0  0  0  0  0
    9.4995  -16.6317   24.2202 C   0  0  0  0  0  0  0  0  0  0  0  0
    8.7121  -17.6026   24.3581 O   0  0  0  0  0  0  0  0  0  0  0  0
   10.5942  -16.5824   25.1337 N   0  0  0  0  0  0  0  0  0  0  0  0
   10.8159  -17.5519   26.1622 C   0  0  1  0  0  0  0  0  0  0  0  0
   12.2355  -18.0643   26.1943 C   0  0  0  0  0  0  0  0  0  0  0  0
   12.5995  -18.8271   24.9999 C   0  0  0  0  0  0  0  0  0  0  0  0
   11.8068  -19.0498   23.8969 C   0  0  0  0  0  0  0  0  0  0  0  0
   12.4980  -19.7978   23.0063 N   0  0  0  0  0  0  0  0  0  0  0  0
   13.7012  -20.0444   23.5309 C   0  0  0  0  0  0  0  0  0  0  0  0
   13.7597  -19.4513   24.7460 N   0  0  0  0  0  0  0  0  0  0  0  0
   10.3466  -17.1108   27.4912 C   0  0  0  0  0  0  0  0  0  0  0  0
   10.4149  -17.9249   28.6000 O   0  0  0  0  0  0  0  0  0  0  0  0
    9.8725  -15.9619   27.6119 O   0  0  0  0  0  0  0  0  0  0  0  0
  2  3  2  0
  2  1  1  0
  4  2  1  0
  5  4  1  0
  5  7  1  0
  5  6  1  6
  7  9  1  0
  7  8  2  0
  9 10  1  0
 10 13  1  0
 10 11  1  1
 11 12  1  0
 13 14  2  0
 15 13  1  0
 15 16  1  0
 16 23  1  0
 16 17  1  1
 18 17  1  0
 19 18  2  0
 20 21  1  0
 20 19  1  0
 21 22  2  0
 22 18  1  0
 23 24  1  0
 25 23  2  0
M  END
$$$$
