NCH.pdb
     RDKit          3D

 25 25  0  0  1  0  0  0  0  0999 V2000
    8.4236  -19.6186   17.0694 N   0  0  0  0  0  0  0  0  0  0  0  0
    7.5034  -19.7437   18.1376 C   0  0  0  0  0  0  0  0  0  0  0  0
    6.9591  -20.8538   18.3708 O   0  0  0  0  0  0  0  0  0  0  0  0
    7.1903  -18.5759   18.9667 C   0  0  0  0  0  0  0  0  0  0  0  0
    7.9225  -17.3616   18.4826 C   0  0  2  0  0  0  0  0  0  0  0  0
    8.7934  -17.6673   17.3878 N   0  0  0  0  0  0  0  0  0  0  0  0
    8.5967  -16.6539   19.5941 C   0  0  0  0  0  0  0  0  0  0  0  0
    9.8438  -16.7234   19.6547 O   0  0  0  0  0  0  0  0  0  0  0  0
    7.8967  -15.9099   20.5805 N   0  0  0  0  0  0  0  0  0  0  0  0
    8.6381  -15.3078   21.6439 C   0  0  1  0  0  0  0  0  0  0  0  0
    8.4488  -13.8048   21.6384 C   0  0  0  0  0  0  0  0  0  0  0  0
    7.2338  -13.3023   20.3979 S   0  0  0  0  0  0  0  0  0  0  0  0
    8.2911  -15.8869   22.9756 C   0  0  0  0  0  0  0  0  0  0  0  0
    7.1540  -16.3696   23.2110 O   0  0  0  0  0  0  0  0  0  0  0  0
    9.2217  -15.9283   24.0562 N   0  0  0  0  0  0  0  0  0  0  0  0
    9.2790  -16.9876   25.0161 C   0  0  1  0  0  0  0  0  0  0  0  0
    9.1986  -18.3581   24.3882 C   0  0  0  0  0  0  0  0  0  0  0  0
    7.8268  -18.7848   24.1107 C   0  0  0  0  0  0  0  0  0  0  0  0
    6.6766  -18.0897   24.4080 C   0  0  0  0  0  0  0  0  0  0  0  0
    5.6103  -18.8128   23.9951 N   0  0  0  0  0  0  0  0  0  0  0  0
    6.0720  -19.9405   23.4485 C   0  0  0  0  0  0  0  0  0  0  0  0
    7.4234  -19.9202   23.5205 N   0  0  0  0  0  0  0  0  0  0  0  0
   10.4124  -16.8642   25.9548 C   0  0  0  0  0  0  0  0  0  0  0  0
   11.4116  -15.9328   25.7790 O   0  0  0  0  0  0  0  0  0  0  0  0
   10.4650  -17.6301   26.9397 O   0  0  0  0  0  0  0  0  0  0  0  0
  2  3  2  0
  2  1  1  0
  4  2  1  0
  5  4  1  0
  5  7  1  0
  5  6  1  6
  7  9  1  0
  7  8  2  0
  9 10  1  0
 10 13  1  0
 10 11  1  1
 11 12  1  0
 13 14  2  0
 15 13  1  0
 15 16  1  0
 16 23  1  0
 16 17  1  6
 18 17  1  0
 19 18  2  0
 20 21  1  0
 20 19  1  0
 21 22  2  0
 22 18  1  0
 23 24  1  0
 25 23  2  0
M  END
$$$$
