HTT.pdb
     RDKit          3D

 25 25  0  0  1  0  0  0  0  0999 V2000
   19.7566  -12.6228  -17.2341 N   0  0  0  0  0  0  0  0  0  0  0  0
   19.0237  -11.4578  -16.8479 C   0  0  1  0  0  0  0  0  0  0  0  0
   17.6990  -11.9285  -16.2461 C   0  0  0  0  0  0  0  0  0  0  0  0
   16.8661  -12.6165  -17.2805 C   0  0  0  0  0  0  0  0  0  0  0  0
   16.1449  -13.7835  -17.0454 C   0  0  0  0  0  0  0  0  0  0  0  0
   15.5115  -14.1412  -18.1586 N   0  0  0  0  0  0  0  0  0  0  0  0
   15.8250  -13.2181  -19.0831 C   0  0  0  0  0  0  0  0  0  0  0  0
   16.6456  -12.2931  -18.5537 N   0  0  0  0  0  0  0  0  0  0  0  0
   19.7093  -10.6706  -15.7918 C   0  0  0  0  0  0  0  0  0  0  0  0
   19.4124  -10.8043  -14.5735 O   0  0  0  0  0  0  0  0  0  0  0  0
   22.7691  -10.9687  -14.3158 C   0  0  0  0  0  0  0  0  0  0  0  0
   22.7873   -9.5166  -14.7526 C   0  0  1  0  0  0  0  0  0  0  0  0
   23.5204   -9.4556  -15.9236 O   0  0  0  0  0  0  0  0  0  0  0  0
   21.4133   -8.9814  -15.0134 C   0  0  2  0  0  0  0  0  0  0  0  0
   20.7297   -9.7263  -16.0609 N   0  0  0  0  0  0  0  0  0  0  0  0
   21.4843   -7.5503  -15.3263 C   0  0  0  0  0  0  0  0  0  0  0  0
   21.5588   -7.1112  -16.5165 O   0  0  0  0  0  0  0  0  0  0  0  0
   19.4658   -5.0290  -15.7769 C   0  0  0  0  0  0  0  0  0  0  0  0
   20.3047   -4.3952  -14.6834 C   0  0  1  0  0  0  0  0  0  0  0  0
   19.5886   -4.5702  -13.4872 O   0  0  0  0  0  0  0  0  0  0  0  0
   21.6124   -5.1292  -14.6475 C   0  0  2  0  0  0  0  0  0  0  0  0
   21.4739   -6.5328  -14.3442 N   0  0  0  0  0  0  0  0  0  0  0  0
   22.5075   -4.4811  -13.6791 C   0  0  0  0  0  0  0  0  0  0  0  0
   22.9795   -5.0945  -12.5439 O   0  0  0  0  0  0  0  0  0  0  0  0
   22.8841   -3.2836  -13.8763 O   0  0  0  0  0  0  0  0  0  0  0  0
  2  9  1  0
  2  1  1  1
  3  2  1  0
  4  3  1  0
  5  4  2  0
  6  5  1  0
  7  6  1  0
  7  8  2  0
  8  4  1  0
  9 10  2  0
 12 11  1  6
 12 13  1  0
 12 14  1  0
 14 15  1  6
 15  9  1  0
 16 14  1  0
 16 17  2  0
 19 18  1  6
 19 21  1  0
 20 19  1  0
 21 22  1  1
 21 23  1  0
 22 16  1  0
 23 24  1  0
 25 23  2  0
M  END
$$$$
