HTT.pdb
     RDKit          3D

 25 25  0  0  1  0  0  0  0  0999 V2000
   24.5798  -20.7846  -15.7428 N   0  0  0  0  0  0  0  0  0  0  0  0
   23.4360  -20.4210  -14.9663 C   0  0  1  0  0  0  0  0  0  0  0  0
   23.9397  -19.6750  -13.7301 C   0  0  0  0  0  0  0  0  0  0  0  0
   24.7083  -20.5959  -12.8366 C   0  0  0  0  0  0  0  0  0  0  0  0
   24.9895  -21.9231  -13.1478 C   0  0  0  0  0  0  0  0  0  0  0  0
   25.6850  -22.4699  -12.1551 N   0  0  0  0  0  0  0  0  0  0  0  0
   25.8423  -21.5075  -11.2308 C   0  0  0  0  0  0  0  0  0  0  0  0
   25.2514  -20.3710  -11.6413 N   0  0  0  0  0  0  0  0  0  0  0  0
   22.5290  -19.4870  -15.6805 C   0  0  0  0  0  0  0  0  0  0  0  0
   22.9781  -18.5411  -16.3833 O   0  0  0  0  0  0  0  0  0  0  0  0
   20.7710  -19.8840  -18.5674 C   0  0  0  0  0  0  0  0  0  0  0  0
   19.6859  -19.4278  -17.6112 C   0  0  1  0  0  0  0  0  0  0  0  0
   19.0153  -20.5615  -17.1898 O   0  0  0  0  0  0  0  0  0  0  0  0
   20.2405  -18.7203  -16.4137 C   0  0  2  0  0  0  0  0  0  0  0  0
   21.1168  -19.5805  -15.6317 N   0  0  0  0  0  0  0  0  0  0  0  0
   19.1462  -18.1804  -15.5998 C   0  0  0  0  0  0  0  0  0  0  0  0
   18.6801  -18.7893  -14.5865 O   0  0  0  0  0  0  0  0  0  0  0  0
   18.8369  -15.1651  -13.4991 C   0  0  0  0  0  0  0  0  0  0  0  0
   17.7282  -15.0312  -14.5257 C   0  0  1  0  0  0  0  0  0  0  0  0
   18.2265  -14.1906  -15.5354 O   0  0  0  0  0  0  0  0  0  0  0  0
   17.4451  -16.4068  -15.0529 C   0  0  2  0  0  0  0  0  0  0  0  0
   18.5140  -16.9426  -15.8603 N   0  0  0  0  0  0  0  0  0  0  0  0
   16.1881  -16.3869  -15.8138 C   0  0  0  0  0  0  0  0  0  0  0  0
   14.9643  -16.0953  -15.2618 O   0  0  0  0  0  0  0  0  0  0  0  0
   16.2027  -16.6508  -17.0567 O   0  0  0  0  0  0  0  0  0  0  0  0
  2  9  1  0
  2  1  1  6
  3  2  1  0
  4  3  1  0
  5  4  2  0
  6  5  1  0
  7  6  1  0
  7  8  2  0
  8  4  1  0
  9 10  2  0
 12 11  1  6
 12 13  1  0
 12 14  1  0
 14 15  1  1
 15  9  1  0
 16 14  1  0
 16 17  2  0
 19 18  1  1
 19 21  1  0
 20 19  1  0
 21 22  1  6
 21 23  1  0
 22 16  1  0
 23 24  1  0
 25 23  2  0
M  END
$$$$
