HTT.pdb
     RDKit          3D

 25 25  0  0  1  0  0  0  0  0999 V2000
   27.2996  -21.2769  -14.8169 N   0  0  0  0  0  0  0  0  0  0  0  0
   26.5908  -20.3132  -14.0344 C   0  0  1  0  0  0  0  0  0  0  0  0
   27.6114  -19.2916  -13.5311 C   0  0  0  0  0  0  0  0  0  0  0  0
   28.5734  -19.9326  -12.5820 C   0  0  0  0  0  0  0  0  0  0  0  0
   28.5232  -21.2741  -12.2146 C   0  0  0  0  0  0  0  0  0  0  0  0
   29.5100  -21.5340  -11.3620 N   0  0  0  0  0  0  0  0  0  0  0  0
   30.1743  -20.3786  -11.1915 C   0  0  0  0  0  0  0  0  0  0  0  0
   29.6088  -19.4067  -11.9296 N   0  0  0  0  0  0  0  0  0  0  0  0
   25.5901  -19.5531  -14.8257 C   0  0  0  0  0  0  0  0  0  0  0  0
   25.9051  -18.9667  -15.8967 O   0  0  0  0  0  0  0  0  0  0  0  0
   23.6802  -20.5519  -17.0936 C   0  0  0  0  0  0  0  0  0  0  0  0
   22.6289  -19.8570  -16.2501 C   0  0  1  0  0  0  0  0  0  0  0  0
   21.9991  -20.8349  -15.5021 O   0  0  0  0  0  0  0  0  0  0  0  0
   23.2209  -18.8430  -15.3209 C   0  0  2  0  0  0  0  0  0  0  0  0
   24.2304  -19.4278  -14.4502 N   0  0  0  0  0  0  0  0  0  0  0  0
   22.1578  -18.1876  -14.5517 C   0  0  0  0  0  0  0  0  0  0  0  0
   21.9380  -18.4463  -13.3271 O   0  0  0  0  0  0  0  0  0  0  0  0
   19.3941  -15.4190  -16.3039 C   0  0  0  0  0  0  0  0  0  0  0  0
   19.8308  -15.2443  -14.8617 C   0  0  1  0  0  0  0  0  0  0  0  0
   18.7176  -14.7338  -14.1728 O   0  0  0  0  0  0  0  0  0  0  0  0
   20.2140  -16.6006  -14.3482 C   0  0  2  0  0  0  0  0  0  0  0  0
   21.2869  -17.2136  -15.0927 N   0  0  0  0  0  0  0  0  0  0  0  0
   19.0302  -17.4713  -14.3438 C   0  0  0  0  0  0  0  0  0  0  0  0
   18.9546  -18.6632  -15.0227 O   0  0  0  0  0  0  0  0  0  0  0  0
   18.0010  -17.1278  -13.6822 O   0  0  0  0  0  0  0  0  0  0  0  0
  2  9  1  0
  2  1  1  6
  3  2  1  0
  4  3  1  0
  5  4  2  0
  6  5  1  0
  7  6  1  0
  7  8  2  0
  8  4  1  0
  9 10  2  0
 12 11  1  1
 12 13  1  0
 12 14  1  0
 14 15  1  1
 15  9  1  0
 16 14  1  0
 16 17  2  0
 19 18  1  6
 19 21  1  0
 20 19  1  0
 21 22  1  6
 21 23  1  0
 22 16  1  0
 23 24  1  0
 25 23  2  0
M  END
$$$$
