HTT.pdb
     RDKit          3D

 25 25  0  0  1  0  0  0  0  0999 V2000
   23.8204  -14.7771  -19.8986 N   0  0  0  0  0  0  0  0  0  0  0  0
   23.9813  -13.4055  -19.5297 C   0  0  1  0  0  0  0  0  0  0  0  0
   23.6763  -13.2941  -18.0353 C   0  0  0  0  0  0  0  0  0  0  0  0
   22.2620  -13.6926  -17.7559 C   0  0  0  0  0  0  0  0  0  0  0  0
   21.3562  -14.0794  -18.7394 C   0  0  0  0  0  0  0  0  0  0  0  0
   20.1890  -14.3705  -18.1726 N   0  0  0  0  0  0  0  0  0  0  0  0
   20.3511  -14.1720  -16.8537 C   0  0  0  0  0  0  0  0  0  0  0  0
   21.6062  -13.7613  -16.5985 N   0  0  0  0  0  0  0  0  0  0  0  0
   25.3727  -12.9199  -19.7122 C   0  0  0  0  0  0  0  0  0  0  0  0
   26.3643  -13.6751  -19.5202 O   0  0  0  0  0  0  0  0  0  0  0  0
   26.5281  -11.4492  -22.9223 C   0  0  0  0  0  0  0  0  0  0  0  0
   27.0696  -10.5428  -21.8339 C   0  0  1  0  0  0  0  0  0  0  0  0
   26.2671   -9.4168  -21.8087 O   0  0  0  0  0  0  0  0  0  0  0  0
   27.0382  -11.1898  -20.4838 C   0  0  2  0  0  0  0  0  0  0  0  0
   25.6924  -11.5984  -20.1081 N   0  0  0  0  0  0  0  0  0  0  0  0
   27.6295  -10.2932  -19.4849 C   0  0  0  0  0  0  0  0  0  0  0  0
   26.9381   -9.7083  -18.5934 O   0  0  0  0  0  0  0  0  0  0  0  0
   30.4154  -11.0479  -17.0342 C   0  0  0  0  0  0  0  0  0  0  0  0
   30.8440   -9.8034  -17.7882 C   0  0  1  0  0  0  0  0  0  0  0  0
   31.7272  -10.2361  -18.7917 O   0  0  0  0  0  0  0  0  0  0  0  0
   29.6060   -9.1950  -18.3777 C   0  0  2  0  0  0  0  0  0  0  0  0
   29.0111   -9.9992  -19.4172 N   0  0  0  0  0  0  0  0  0  0  0  0
   29.9180   -7.8513  -18.8840 C   0  0  0  0  0  0  0  0  0  0  0  0
   30.4146   -6.8357  -18.1032 O   0  0  0  0  0  0  0  0  0  0  0  0
   29.7278   -7.5833  -20.1115 O   0  0  0  0  0  0  0  0  0  0  0  0
  2  9  1  0
  2  1  1  1
  3  2  1  0
  4  3  1  0
  5  4  2  0
  6  5  1  0
  7  6  1  0
  7  8  2  0
  8  4  1  0
  9 10  2  0
 12 11  1  6
 12 13  1  0
 12 14  1  0
 14 15  1  1
 15  9  1  0
 16 14  1  0
 16 17  2  0
 19 18  1  6
 19 21  1  0
 20 19  1  0
 21 22  1  6
 21 23  1  0
 22 16  1  0
 23 24  1  0
 25 23  2  0
M  END
$$$$
