HTT.pdb
     RDKit          3D

 25 25  0  0  1  0  0  0  0  0999 V2000
   25.5087  -19.9237  -18.2512 N   0  0  0  0  0  0  0  0  0  0  0  0
   24.2364  -20.5752  -18.2486 C   0  0  1  0  0  0  0  0  0  0  0  0
   24.4849  -22.0671  -18.4744 C   0  0  0  0  0  0  0  0  0  0  0  0
   24.9932  -22.3121  -19.8596 C   0  0  0  0  0  0  0  0  0  0  0  0
   24.2347  -22.8905  -20.8733 C   0  0  0  0  0  0  0  0  0  0  0  0
   24.9675  -22.9706  -21.9800 N   0  0  0  0  0  0  0  0  0  0  0  0
   26.1689  -22.4526  -21.6743 C   0  0  0  0  0  0  0  0  0  0  0  0
   26.1871  -22.0529  -20.3901 N   0  0  0  0  0  0  0  0  0  0  0  0
   23.5328  -20.4585  -16.9461 C   0  0  0  0  0  0  0  0  0  0  0  0
   24.1655  -20.4376  -15.8554 O   0  0  0  0  0  0  0  0  0  0  0  0
   20.2361  -18.4750  -14.1332 C   0  0  0  0  0  0  0  0  0  0  0  0
   21.1369  -18.6940  -15.3332 C   0  0  1  0  0  0  0  0  0  0  0  0
   22.3135  -18.0107  -15.0858 O   0  0  0  0  0  0  0  0  0  0  0  0
   21.4544  -20.1409  -15.5525 C   0  0  2  0  0  0  0  0  0  0  0  0
   22.1251  -20.3633  -16.8253 N   0  0  0  0  0  0  0  0  0  0  0  0
   20.2329  -20.9446  -15.4375 C   0  0  0  0  0  0  0  0  0  0  0  0
   19.3650  -21.0098  -16.3633 O   0  0  0  0  0  0  0  0  0  0  0  0
   19.9867  -24.5565  -14.0198 C   0  0  0  0  0  0  0  0  0  0  0  0
   18.8799  -23.7494  -13.3682 C   0  0  1  0  0  0  0  0  0  0  0  0
   19.3233  -23.4514  -12.0686 O   0  0  0  0  0  0  0  0  0  0  0  0
   18.7037  -22.5021  -14.1828 C   0  0  2  0  0  0  0  0  0  0  0  0
   19.9091  -21.7179  -14.2986 N   0  0  0  0  0  0  0  0  0  0  0  0
   17.6197  -21.6943  -13.6070 C   0  0  0  0  0  0  0  0  0  0  0  0
   16.3040  -22.0890  -13.5777 O   0  0  0  0  0  0  0  0  0  0  0  0
   17.8840  -20.5598  -13.0993 O   0  0  0  0  0  0  0  0  0  0  0  0
  2  9  1  0
  2  1  1  1
  3  2  1  0
  4  3  1  0
  5  4  2  0
  6  5  1  0
  7  6  1  0
  7  8  2  0
  8  4  1  0
  9 10  2  0
 12 11  1  1
 12 13  1  0
 12 14  1  0
 14 15  1  6
 15  9  1  0
 16 14  1  0
 16 17  2  0
 19 18  1  6
 19 21  1  0
 20 19  1  0
 21 22  1  1
 21 23  1  0
 22 16  1  0
 23 24  1  0
 25 23  2  0
M  END
$$$$
