HTT.pdb
     RDKit          3D

 25 25  0  0  1  0  0  0  0  0999 V2000
   17.6563  -12.4428  -16.6225 N   0  0  0  0  0  0  0  0  0  0  0  0
   17.3104  -11.0891  -16.3205 C   0  0  1  0  0  0  0  0  0  0  0  0
   16.8656  -11.0451  -14.8580 C   0  0  0  0  0  0  0  0  0  0  0  0
   15.4954  -11.6258  -14.7072 C   0  0  0  0  0  0  0  0  0  0  0  0
   15.2183  -12.9881  -14.7760 C   0  0  0  0  0  0  0  0  0  0  0  0
   13.9140  -13.1810  -14.6035 N   0  0  0  0  0  0  0  0  0  0  0  0
   13.3733  -11.9635  -14.4283 C   0  0  0  0  0  0  0  0  0  0  0  0
   14.3294  -11.0195  -14.4907 N   0  0  0  0  0  0  0  0  0  0  0  0
   18.4636  -10.1608  -16.4373 C   0  0  0  0  0  0  0  0  0  0  0  0
   19.6522  -10.5728  -16.3492 O   0  0  0  0  0  0  0  0  0  0  0  0
   20.5110   -6.0823  -18.2156 C   0  0  0  0  0  0  0  0  0  0  0  0
   19.3564   -7.0533  -18.0617 C   0  0  1  0  0  0  0  0  0  0  0  0
   19.3874   -7.8955  -19.1581 O   0  0  0  0  0  0  0  0  0  0  0  0
   19.4649   -7.8767  -16.8157 C   0  0  2  0  0  0  0  0  0  0  0  0
   18.3254   -8.7679  -16.6523 N   0  0  0  0  0  0  0  0  0  0  0  0
   19.6385   -7.0022  -15.6511 C   0  0  0  0  0  0  0  0  0  0  0  0
   18.6841   -6.3284  -15.1510 O   0  0  0  0  0  0  0  0  0  0  0  0
   20.3025   -7.7827  -12.3260 C   0  0  0  0  0  0  0  0  0  0  0  0
   21.4092   -6.7766  -12.5790 C   0  0  1  0  0  0  0  0  0  0  0  0
   22.5804   -7.5244  -12.7875 O   0  0  0  0  0  0  0  0  0  0  0  0
   21.0312   -6.0028  -13.8072 C   0  0  2  0  0  0  0  0  0  0  0  0
   20.8705   -6.8293  -14.9787 N   0  0  0  0  0  0  0  0  0  0  0  0
   22.0344   -4.9571  -14.0511 C   0  0  0  0  0  0  0  0  0  0  0  0
   22.2879   -3.9227  -13.1832 O   0  0  0  0  0  0  0  0  0  0  0  0
   22.7231   -4.9848  -15.1187 O   0  0  0  0  0  0  0  0  0  0  0  0
  2  9  1  0
  2  1  1  1
  3  2  1  0
  4  3  1  0
  5  4  2  0
  6  5  1  0
  7  6  1  0
  7  8  2  0
  8  4  1  0
  9 10  2  0
 12 11  1  6
 12 13  1  0
 12 14  1  0
 14 15  1  1
 15  9  1  0
 16 14  1  0
 16 17  2  0
 19 18  1  6
 19 21  1  0
 20 19  1  0
 21 22  1  6
 21 23  1  0
 22 16  1  0
 23 24  1  0
 25 23  2  0
M  END
$$$$
