HTT.pdb
     RDKit          3D

 25 25  0  0  1  0  0  0  0  0999 V2000
   19.8185  -11.6581  -16.8255 N   0  0  0  0  0  0  0  0  0  0  0  0
   20.6248  -10.5676  -17.2771 C   0  0  1  0  0  0  0  0  0  0  0  0
   20.2618  -10.3040  -18.7391 C   0  0  0  0  0  0  0  0  0  0  0  0
   20.6732  -11.4563  -19.5993 C   0  0  0  0  0  0  0  0  0  0  0  0
   21.8876  -11.5246  -20.2760 C   0  0  0  0  0  0  0  0  0  0  0  0
   21.9524  -12.6694  -20.9494 N   0  0  0  0  0  0  0  0  0  0  0  0
   20.8002  -13.3158  -20.7045 C   0  0  0  0  0  0  0  0  0  0  0  0
   20.0234  -12.5830  -19.8868 N   0  0  0  0  0  0  0  0  0  0  0  0
   20.3512   -9.3066  -16.5420 C   0  0  0  0  0  0  0  0  0  0  0  0
   19.2143   -9.0623  -16.0539 O   0  0  0  0  0  0  0  0  0  0  0  0
   21.5383   -5.8853  -13.4133 C   0  0  0  0  0  0  0  0  0  0  0  0
   21.6276   -7.1966  -14.1697 C   0  0  1  0  0  0  0  0  0  0  0  0
   20.8975   -8.1273  -13.4534 O   0  0  0  0  0  0  0  0  0  0  0  0
   21.0617   -7.0978  -15.5526 C   0  0  2  0  0  0  0  0  0  0  0  0
   21.3232   -8.2981  -16.3338 N   0  0  0  0  0  0  0  0  0  0  0  0
   21.5752   -5.8965  -16.2192 C   0  0  0  0  0  0  0  0  0  0  0  0
   22.8038   -5.7430  -16.5053 O   0  0  0  0  0  0  0  0  0  0  0  0
   20.2327   -4.0897  -19.3906 C   0  0  0  0  0  0  0  0  0  0  0  0
   20.3417   -3.0579  -18.2840 C   0  0  1  0  0  0  0  0  0  0  0  0
   19.0437   -2.8917  -17.7721 O   0  0  0  0  0  0  0  0  0  0  0  0
   21.2686   -3.6185  -17.2464 C   0  0  2  0  0  0  0  0  0  0  0  0
   20.7606   -4.8071  -16.6058 N   0  0  0  0  0  0  0  0  0  0  0  0
   21.5625   -2.5827  -16.2463 C   0  0  0  0  0  0  0  0  0  0  0  0
   22.2545   -1.4281  -16.5213 O   0  0  0  0  0  0  0  0  0  0  0  0
   21.1662   -2.7361  -15.0488 O   0  0  0  0  0  0  0  0  0  0  0  0
  2  9  1  0
  2  1  1  1
  3  2  1  0
  4  3  1  0
  5  4  2  0
  6  5  1  0
  7  6  1  0
  7  8  2  0
  8  4  1  0
  9 10  2  0
 12 11  1  1
 12 13  1  0
 12 14  1  0
 14 15  1  6
 15  9  1  0
 16 14  1  0
 16 17  2  0
 19 18  1  6
 19 21  1  0
 20 19  1  0
 21 22  1  1
 21 23  1  0
 22 16  1  0
 23 24  1  0
 25 23  2  0
M  END
$$$$
