HTT.pdb
     RDKit          3D

 25 25  0  0  1  0  0  0  0  0999 V2000
   29.0287  -31.3877  -15.5151 N   0  0  0  0  0  0  0  0  0  0  0  0
   29.8693  -30.6657  -16.4182 C   0  0  1  0  0  0  0  0  0  0  0  0
   29.3003  -30.8555  -17.8249 C   0  0  0  0  0  0  0  0  0  0  0  0
   29.4740  -32.2709  -18.2761 C   0  0  0  0  0  0  0  0  0  0  0  0
   30.7115  -32.8866  -18.4398 C   0  0  0  0  0  0  0  0  0  0  0  0
   30.5293  -34.1389  -18.8482 N   0  0  0  0  0  0  0  0  0  0  0  0
   29.2006  -34.3147  -18.9420 C   0  0  0  0  0  0  0  0  0  0  0  0
   28.5589  -33.1844  -18.5959 N   0  0  0  0  0  0  0  0  0  0  0  0
   29.8705  -29.2035  -16.1589 C   0  0  0  0  0  0  0  0  0  0  0  0
   28.9548  -28.6527  -15.4893 O   0  0  0  0  0  0  0  0  0  0  0  0
   32.3384  -24.8690  -16.0500 C   0  0  0  0  0  0  0  0  0  0  0  0
   32.2953  -26.3494  -16.3759 C   0  0  1  0  0  0  0  0  0  0  0  0
   33.0839  -26.9929  -15.4396 O   0  0  0  0  0  0  0  0  0  0  0  0
   30.9081  -26.9092  -16.3071 C   0  0  2  0  0  0  0  0  0  0  0  0
   30.8779  -28.3279  -16.6321 N   0  0  0  0  0  0  0  0  0  0  0  0
   30.0128  -26.1367  -17.1749 C   0  0  0  0  0  0  0  0  0  0  0  0
   29.9173  -26.3486  -18.4242 O   0  0  0  0  0  0  0  0  0  0  0  0
   26.5056  -25.9296  -17.5539 C   0  0  0  0  0  0  0  0  0  0  0  0
   26.8599  -24.4836  -17.2630 C   0  0  1  0  0  0  0  0  0  0  0  0
   26.5971  -24.2813  -15.8976 O   0  0  0  0  0  0  0  0  0  0  0  0
   28.3191  -24.3159  -17.5674 C   0  0  2  0  0  0  0  0  0  0  0  0
   29.1772  -25.0954  -16.7088 N   0  0  0  0  0  0  0  0  0  0  0  0
   28.6718  -22.8916  -17.4884 C   0  0  0  0  0  0  0  0  0  0  0  0
   28.1591  -21.9289  -18.3239 O   0  0  0  0  0  0  0  0  0  0  0  0
   29.4968  -22.4973  -16.6059 O   0  0  0  0  0  0  0  0  0  0  0  0
  2  9  1  0
  2  1  1  1
  3  2  1  0
  4  3  1  0
  5  4  2  0
  6  5  1  0
  7  6  1  0
  7  8  2  0
  8  4  1  0
  9 10  2  0
 12 11  1  1
 12 13  1  0
 12 14  1  0
 14 15  1  6
 15  9  1  0
 16 14  1  0
 16 17  2  0
 19 18  1  1
 19 21  1  0
 20 19  1  0
 21 22  1  1
 21 23  1  0
 22 16  1  0
 23 24  1  0
 25 23  2  0
M  END
$$$$
