HTT.pdb
     RDKit          3D

 25 25  0  0  1  0  0  0  0  0999 V2000
   22.4390  -18.6799  -18.5522 N   0  0  0  0  0  0  0  0  0  0  0  0
   22.9780  -18.0755  -17.3742 C   0  0  1  0  0  0  0  0  0  0  0  0
   21.8038  -17.7338  -16.4561 C   0  0  0  0  0  0  0  0  0  0  0  0
   21.2809  -16.3654  -16.7579 C   0  0  0  0  0  0  0  0  0  0  0  0
   20.5796  -16.0407  -17.9155 C   0  0  0  0  0  0  0  0  0  0  0  0
   20.2537  -14.7518  -17.8856 N   0  0  0  0  0  0  0  0  0  0  0  0
   20.7393  -14.2674  -16.7303 C   0  0  0  0  0  0  0  0  0  0  0  0
   21.3621  -15.2430  -16.0451 N   0  0  0  0  0  0  0  0  0  0  0  0
   23.8579  -18.9938  -16.6076 C   0  0  0  0  0  0  0  0  0  0  0  0
   23.6520  -20.2377  -16.5855 O   0  0  0  0  0  0  0  0  0  0  0  0
   28.2205  -20.1747  -14.7206 C   0  0  0  0  0  0  0  0  0  0  0  0
   27.2953  -19.2301  -15.4631 C   0  0  1  0  0  0  0  0  0  0  0  0
   27.4937  -19.4484  -16.8142 O   0  0  0  0  0  0  0  0  0  0  0  0
   25.8532  -19.4721  -15.1404 C   0  0  2  0  0  0  0  0  0  0  0  0
   24.9754  -18.5569  -15.8553 N   0  0  0  0  0  0  0  0  0  0  0  0
   25.6454  -19.3984  -13.6903 C   0  0  0  0  0  0  0  0  0  0  0  0
   25.6709  -18.3019  -13.0486 O   0  0  0  0  0  0  0  0  0  0  0  0
   22.7837  -20.3463  -11.5831 C   0  0  0  0  0  0  0  0  0  0  0  0
   23.9426  -21.1193  -10.9826 C   0  0  1  0  0  0  0  0  0  0  0  0
   23.8408  -22.4297  -11.4795 O   0  0  0  0  0  0  0  0  0  0  0  0
   25.2050  -20.4567  -11.4488 C   0  0  2  0  0  0  0  0  0  0  0  0
   25.3965  -20.5281  -12.8769 N   0  0  0  0  0  0  0  0  0  0  0  0
   26.3526  -21.0485  -10.7472 C   0  0  0  0  0  0  0  0  0  0  0  0
   26.5225  -21.0035   -9.3847 O   0  0  0  0  0  0  0  0  0  0  0  0
   27.2567  -21.6433  -11.4133 O   0  0  0  0  0  0  0  0  0  0  0  0
  2  9  1  0
  2  1  1  6
  3  2  1  0
  4  3  1  0
  5  4  2  0
  6  5  1  0
  7  6  1  0
  7  8  2  0
  8  4  1  0
  9 10  2  0
 12 11  1  1
 12 13  1  0
 12 14  1  0
 14 15  1  6
 15  9  1  0
 16 14  1  0
 16 17  2  0
 19 18  1  6
 19 21  1  0
 20 19  1  0
 21 22  1  6
 21 23  1  0
 22 16  1  0
 23 24  1  0
 25 23  2  0
M  END
$$$$
