HTT.pdb
     RDKit          3D

 25 25  0  0  1  0  0  0  0  0999 V2000
   18.2144  -11.4133  -18.0090 N   0  0  0  0  0  0  0  0  0  0  0  0
   18.1869  -10.5867  -16.8431 C   0  0  1  0  0  0  0  0  0  0  0  0
   18.9083  -11.3439  -15.7274 C   0  0  0  0  0  0  0  0  0  0  0  0
   18.1941  -12.6192  -15.4100 C   0  0  0  0  0  0  0  0  0  0  0  0
   16.9722  -12.6797  -14.7463 C   0  0  0  0  0  0  0  0  0  0  0  0
   16.6037  -13.9509  -14.6178 N   0  0  0  0  0  0  0  0  0  0  0  0
   17.5740  -14.6837  -15.1893 C   0  0  0  0  0  0  0  0  0  0  0  0
   18.5388  -13.8793  -15.6702 N   0  0  0  0  0  0  0  0  0  0  0  0
   18.9205   -9.3086  -17.0264 C   0  0  0  0  0  0  0  0  0  0  0  0
   20.0070   -9.2587  -17.6645 O   0  0  0  0  0  0  0  0  0  0  0  0
   17.9183   -6.7127  -19.0883 C   0  0  0  0  0  0  0  0  0  0  0  0
   18.2013   -5.9955  -17.7825 C   0  0  1  0  0  0  0  0  0  0  0  0
   16.9826   -5.7870  -17.1631 O   0  0  0  0  0  0  0  0  0  0  0  0
   19.0776   -6.7960  -16.8695 C   0  0  2  0  0  0  0  0  0  0  0  0
   18.4695   -8.0692  -16.5109 N   0  0  0  0  0  0  0  0  0  0  0  0
   19.4175   -6.0058  -15.6815 C   0  0  0  0  0  0  0  0  0  0  0  0
   18.7547   -6.0743  -14.5994 O   0  0  0  0  0  0  0  0  0  0  0  0
   22.2543   -6.0752  -13.4309 C   0  0  0  0  0  0  0  0  0  0  0  0
   22.2548   -4.6524  -13.9569 C   0  0  1  0  0  0  0  0  0  0  0  0
   23.1821   -4.6236  -15.0122 O   0  0  0  0  0  0  0  0  0  0  0  0
   20.8664   -4.3604  -14.4439 C   0  0  2  0  0  0  0  0  0  0  0  0
   20.5053   -5.1038  -15.6263 N   0  0  0  0  0  0  0  0  0  0  0  0
   20.7286   -2.9171  -14.6835 C   0  0  0  0  0  0  0  0  0  0  0  0
   20.8400   -1.9642  -13.7001 O   0  0  0  0  0  0  0  0  0  0  0  0
   20.4923   -2.4959  -15.8589 O   0  0  0  0  0  0  0  0  0  0  0  0
  2  9  1  0
  2  1  1  6
  3  2  1  0
  4  3  1  0
  5  4  2  0
  6  5  1  0
  7  6  1  0
  7  8  2  0
  8  4  1  0
  9 10  2  0
 12 11  1  6
 12 13  1  0
 12 14  1  0
 14 15  1  1
 15  9  1  0
 16 14  1  0
 16 17  2  0
 19 18  1  6
 19 21  1  0
 20 19  1  0
 21 22  1  6
 21 23  1  0
 22 16  1  0
 23 24  1  0
 25 23  2  0
M  END
$$$$
