HTT.pdb
     RDKit          3D

 25 25  0  0  1  0  0  0  0  0999 V2000
   28.8696  -20.8368  -14.6054 N   0  0  0  0  0  0  0  0  0  0  0  0
   27.7178  -20.8379  -13.7588 C   0  0  1  0  0  0  0  0  0  0  0  0
   28.0971  -20.1112  -12.4679 C   0  0  0  0  0  0  0  0  0  0  0  0
   29.1968  -20.8365  -11.7595 C   0  0  0  0  0  0  0  0  0  0  0  0
   29.7704  -22.0176  -12.2212 C   0  0  0  0  0  0  0  0  0  0  0  0
   30.7159  -22.4089  -11.3720 N   0  0  0  0  0  0  0  0  0  0  0  0
   30.7418  -21.4930  -10.3893 C   0  0  0  0  0  0  0  0  0  0  0  0
   29.8223  -20.5392  -10.6217 N   0  0  0  0  0  0  0  0  0  0  0  0
   26.5746  -20.0905  -14.3417 C   0  0  0  0  0  0  0  0  0  0  0  0
   26.7442  -19.0043  -14.9595 O   0  0  0  0  0  0  0  0  0  0  0  0
   25.7263  -19.2716  -16.8651 C   0  0  0  0  0  0  0  0  0  0  0  0
   24.4343  -19.9772  -16.5011 C   0  0  1  0  0  0  0  0  0  0  0  0
   24.5711  -21.2973  -16.8895 O   0  0  0  0  0  0  0  0  0  0  0  0
   24.1534  -19.9317  -15.0310 C   0  0  2  0  0  0  0  0  0  0  0  0
   25.2303  -20.5271  -14.2533 N   0  0  0  0  0  0  0  0  0  0  0  0
   22.8644  -20.5715  -14.7475 C   0  0  0  0  0  0  0  0  0  0  0  0
   22.7658  -21.7868  -14.3895 O   0  0  0  0  0  0  0  0  0  0  0  0
   20.2877  -18.8614  -12.5235 C   0  0  0  0  0  0  0  0  0  0  0  0
   20.2209  -20.3376  -12.8663 C   0  0  1  0  0  0  0  0  0  0  0  0
   18.9529  -20.7803  -12.4532 O   0  0  0  0  0  0  0  0  0  0  0  0
   20.3806  -20.4541  -14.3533 C   0  0  2  0  0  0  0  0  0  0  0  0
   21.6215  -19.9036  -14.8416 N   0  0  0  0  0  0  0  0  0  0  0  0
   19.2380  -19.8112  -15.0170 C   0  0  0  0  0  0  0  0  0  0  0  0
   17.9410  -20.2497  -14.9029 O   0  0  0  0  0  0  0  0  0  0  0  0
   19.4298  -18.7879  -15.7455 O   0  0  0  0  0  0  0  0  0  0  0  0
  2  9  1  0
  2  1  1  6
  3  2  1  0
  4  3  1  0
  5  4  2  0
  6  5  1  0
  7  6  1  0
  7  8  2  0
  8  4  1  0
  9 10  2  0
 12 11  1  1
 12 13  1  0
 12 14  1  0
 14 15  1  1
 15  9  1  0
 16 14  1  0
 16 17  2  0
 19 18  1  6
 19 21  1  0
 20 19  1  0
 21 22  1  6
 21 23  1  0
 22 16  1  0
 23 24  1  0
 25 23  2  0
M  END
$$$$
