HTT.pdb
     RDKit          3D

 25 25  0  0  1  0  0  0  0  0999 V2000
   24.6216  -22.0500  -13.4793 N   0  0  0  0  0  0  0  0  0  0  0  0
   24.2108  -20.6914  -13.3096 C   0  0  1  0  0  0  0  0  0  0  0  0
   25.1900  -20.0348  -12.3357 C   0  0  0  0  0  0  0  0  0  0  0  0
   24.8248  -20.3610  -10.9224 C   0  0  0  0  0  0  0  0  0  0  0  0
   23.7308  -21.1436  -10.5647 C   0  0  0  0  0  0  0  0  0  0  0  0
   23.6782  -21.2471   -9.2400 N   0  0  0  0  0  0  0  0  0  0  0  0
   24.7196  -20.5431   -8.7658 C   0  0  0  0  0  0  0  0  0  0  0  0
   25.4159  -20.0051   -9.7831 N   0  0  0  0  0  0  0  0  0  0  0  0
   24.2809  -19.9076  -14.5689 C   0  0  0  0  0  0  0  0  0  0  0  0
   25.2172  -20.0743  -15.3971 O   0  0  0  0  0  0  0  0  0  0  0  0
   22.0534  -17.9244  -18.3710 C   0  0  0  0  0  0  0  0  0  0  0  0
   22.0728  -18.5951  -17.0111 C   0  0  1  0  0  0  0  0  0  0  0  0
   22.0177  -19.9592  -17.2320 O   0  0  0  0  0  0  0  0  0  0  0  0
   23.3152  -18.2801  -16.2366 C   0  0  2  0  0  0  0  0  0  0  0  0
   23.3232  -18.9305  -14.9343 N   0  0  0  0  0  0  0  0  0  0  0  0
   23.4753  -16.8272  -16.1162 C   0  0  0  0  0  0  0  0  0  0  0  0
   22.6922  -16.1060  -15.4223 O   0  0  0  0  0  0  0  0  0  0  0  0
   26.7268  -14.8434  -15.3478 C   0  0  0  0  0  0  0  0  0  0  0  0
   26.1047  -14.2345  -16.5901 C   0  0  1  0  0  0  0  0  0  0  0  0
   26.8215  -14.7513  -17.6826 O   0  0  0  0  0  0  0  0  0  0  0  0
   24.6698  -14.6702  -16.6252 C   0  0  2  0  0  0  0  0  0  0  0  0
   24.5070  -16.0980  -16.7517 N   0  0  0  0  0  0  0  0  0  0  0  0
   23.9774  -13.9761  -17.7198 C   0  0  0  0  0  0  0  0  0  0  0  0
   23.6504  -12.6420  -17.6942 O   0  0  0  0  0  0  0  0  0  0  0  0
   23.6492  -14.6216  -18.7640 O   0  0  0  0  0  0  0  0  0  0  0  0
  2  9  1  0
  2  1  1  6
  3  2  1  0
  4  3  1  0
  5  4  2  0
  6  5  1  0
  7  6  1  0
  7  8  2  0
  8  4  1  0
  9 10  2  0
 12 11  1  6
 12 13  1  0
 12 14  1  0
 14 15  1  1
 15  9  1  0
 16 14  1  0
 16 17  2  0
 19 18  1  1
 19 21  1  0
 20 19  1  0
 21 22  1  6
 21 23  1  0
 22 16  1  0
 23 24  1  0
 25 23  2  0
M  END
$$$$
