HTT.pdb
     RDKit          3D

 25 25  0  0  1  0  0  0  0  0999 V2000
   18.9373  -12.8232  -16.6340 N   0  0  0  0  0  0  0  0  0  0  0  0
   19.1335  -11.4402  -16.9373 C   0  0  1  0  0  0  0  0  0  0  0  0
   17.7517  -10.7932  -17.0405 C   0  0  0  0  0  0  0  0  0  0  0  0
   17.0431  -11.2595  -18.2725 C   0  0  0  0  0  0  0  0  0  0  0  0
   16.0143  -12.1968  -18.2679 C   0  0  0  0  0  0  0  0  0  0  0  0
   15.5956  -12.3968  -19.5140 N   0  0  0  0  0  0  0  0  0  0  0  0
   16.3450  -11.6009  -20.2952 C   0  0  0  0  0  0  0  0  0  0  0  0
   17.2228  -10.9107  -19.5454 N   0  0  0  0  0  0  0  0  0  0  0  0
   19.8591  -10.7132  -15.8648 C   0  0  0  0  0  0  0  0  0  0  0  0
   19.5755  -10.8807  -14.6475 O   0  0  0  0  0  0  0  0  0  0  0  0
   23.0247  -11.0623  -14.4707 C   0  0  0  0  0  0  0  0  0  0  0  0
   22.9983   -9.5976  -14.8627 C   0  0  1  0  0  0  0  0  0  0  0  0
   23.6852   -9.4863  -16.0578 O   0  0  0  0  0  0  0  0  0  0  0  0
   21.6054   -9.0829  -15.0553 C   0  0  2  0  0  0  0  0  0  0  0  0
   20.9056   -9.7928  -16.1162 N   0  0  0  0  0  0  0  0  0  0  0  0
   21.6351   -7.6372  -15.3007 C   0  0  0  0  0  0  0  0  0  0  0  0
   21.9349   -7.1393  -16.4307 O   0  0  0  0  0  0  0  0  0  0  0  0
   19.4634   -5.0523  -15.8655 C   0  0  0  0  0  0  0  0  0  0  0  0
   20.1637   -4.5280  -14.6262 C   0  0  1  0  0  0  0  0  0  0  0  0
   19.3249   -4.8341  -13.5413 O   0  0  0  0  0  0  0  0  0  0  0  0
   21.4751   -5.2487  -14.5209 C   0  0  2  0  0  0  0  0  0  0  0  0
   21.3336   -6.6695  -14.3145 N   0  0  0  0  0  0  0  0  0  0  0  0
   22.2734   -4.6507  -13.4419 C   0  0  0  0  0  0  0  0  0  0  0  0
   22.7471   -3.3613  -13.4650 O   0  0  0  0  0  0  0  0  0  0  0  0
   22.5581   -5.3424  -12.4146 O   0  0  0  0  0  0  0  0  0  0  0  0
  2  9  1  0
  2  1  1  1
  3  2  1  0
  4  3  1  0
  5  4  2  0
  6  5  1  0
  7  6  1  0
  7  8  2  0
  8  4  1  0
  9 10  2  0
 12 11  1  6
 12 13  1  0
 12 14  1  0
 14 15  1  6
 15  9  1  0
 16 14  1  0
 16 17  2  0
 19 18  1  6
 19 21  1  0
 20 19  1  0
 21 22  1  1
 21 23  1  0
 22 16  1  0
 23 24  1  0
 25 23  2  0
M  END
$$$$
