HTT.pdb
     RDKit          3D

 25 25  0  0  1  0  0  0  0  0999 V2000
   25.0258  -19.6937   -9.8815 N   0  0  0  0  0  0  0  0  0  0  0  0
   24.9129  -20.6400  -10.9470 C   0  0  1  0  0  0  0  0  0  0  0  0
   23.4254  -20.9383  -11.1393 C   0  0  0  0  0  0  0  0  0  0  0  0
   22.7758  -21.2422   -9.8267 C   0  0  0  0  0  0  0  0  0  0  0  0
   23.3220  -22.0918   -8.8690 C   0  0  0  0  0  0  0  0  0  0  0  0
   22.5078  -22.1530   -7.8195 N   0  0  0  0  0  0  0  0  0  0  0  0
   21.4640  -21.3570   -8.1059 C   0  0  0  0  0  0  0  0  0  0  0  0
   21.6239  -20.8039   -9.3215 N   0  0  0  0  0  0  0  0  0  0  0  0
   25.4062  -20.1087  -12.2430 C   0  0  0  0  0  0  0  0  0  0  0  0
   25.1102  -18.9469  -12.6340 O   0  0  0  0  0  0  0  0  0  0  0  0
   28.8256  -19.4714  -12.9023 C   0  0  0  0  0  0  0  0  0  0  0  0
   28.3752  -20.2335  -14.1336 C   0  0  1  0  0  0  0  0  0  0  0  0
   28.8250  -21.5335  -13.9917 O   0  0  0  0  0  0  0  0  0  0  0  0
   26.8852  -20.2504  -14.2814 C   0  0  2  0  0  0  0  0  0  0  0  0
   26.2311  -20.8472  -13.1259 N   0  0  0  0  0  0  0  0  0  0  0  0
   26.5131  -20.9327  -15.5253 C   0  0  0  0  0  0  0  0  0  0  0  0
   26.7311  -22.1692  -15.7211 O   0  0  0  0  0  0  0  0  0  0  0  0
   23.1672  -21.4694  -17.1933 C   0  0  0  0  0  0  0  0  0  0  0  0
   24.0309  -20.7067  -18.1799 C   0  0  1  0  0  0  0  0  0  0  0  0
   23.7055  -19.3491  -18.0200 O   0  0  0  0  0  0  0  0  0  0  0  0
   25.4610  -20.9708  -17.8123 C   0  0  2  0  0  0  0  0  0  0  0  0
   25.8804  -20.2873  -16.6130 N   0  0  0  0  0  0  0  0  0  0  0  0
   26.3286  -20.6058  -18.9406 C   0  0  0  0  0  0  0  0  0  0  0  0
   26.2605  -21.1948  -20.1800 O   0  0  0  0  0  0  0  0  0  0  0  0
   27.2026  -19.6955  -18.7914 O   0  0  0  0  0  0  0  0  0  0  0  0
  2  9  1  0
  2  1  1  1
  3  2  1  0
  4  3  1  0
  5  4  2  0
  6  5  1  0
  7  6  1  0
  7  8  2  0
  8  4  1  0
  9 10  2  0
 12 11  1  1
 12 13  1  0
 12 14  1  0
 14 15  1  1
 15  9  1  0
 16 14  1  0
 16 17  2  0
 19 18  1  1
 19 21  1  0
 20 19  1  0
 21 22  1  1
 21 23  1  0
 22 16  1  0
 23 24  1  0
 25 23  2  0
M  END
$$$$
