HTT.pdb
     RDKit          3D

 25 25  0  0  1  0  0  0  0  0999 V2000
   22.6256  -19.5477  -15.0837 N   0  0  0  0  0  0  0  0  0  0  0  0
   22.3859  -19.1761  -16.4430 C   0  0  1  0  0  0  0  0  0  0  0  0
   22.8195  -20.3498  -17.3222 C   0  0  0  0  0  0  0  0  0  0  0  0
   24.2456  -20.7110  -17.0518 C   0  0  0  0  0  0  0  0  0  0  0  0
   25.3237  -20.2074  -17.7739 C   0  0  0  0  0  0  0  0  0  0  0  0
   26.4530  -20.7177  -17.2918 N   0  0  0  0  0  0  0  0  0  0  0  0
   26.0982  -21.5303  -16.2823 C   0  0  0  0  0  0  0  0  0  0  0  0
   24.7612  -21.5280  -16.1348 N   0  0  0  0  0  0  0  0  0  0  0  0
   20.9478  -18.9438  -16.7311 C   0  0  0  0  0  0  0  0  0  0  0  0
   20.5203  -18.8468  -17.9135 O   0  0  0  0  0  0  0  0  0  0  0  0
   17.8572  -20.8720  -16.0426 C   0  0  0  0  0  0  0  0  0  0  0  0
   17.6227  -19.4894  -15.4655 C   0  0  1  0  0  0  0  0  0  0  0  0
   17.8078  -19.5849  -14.0984 O   0  0  0  0  0  0  0  0  0  0  0  0
   18.5760  -18.4727  -16.0131 C   0  0  2  0  0  0  0  0  0  0  0  0
   19.9610  -18.8151  -15.7235 N   0  0  0  0  0  0  0  0  0  0  0  0
   18.2317  -17.1397  -15.5073 C   0  0  0  0  0  0  0  0  0  0  0  0
   18.6310  -16.7095  -14.3802 O   0  0  0  0  0  0  0  0  0  0  0  0
   16.0711  -14.1613  -17.8009 C   0  0  0  0  0  0  0  0  0  0  0  0
   17.1811  -13.8419  -16.8176 C   0  0  1  0  0  0  0  0  0  0  0  0
   16.8953  -12.5662  -16.3026 O   0  0  0  0  0  0  0  0  0  0  0  0
   17.1334  -14.8865  -15.7421 C   0  0  2  0  0  0  0  0  0  0  0  0
   17.4333  -16.2146  -16.2190 N   0  0  0  0  0  0  0  0  0  0  0  0
   15.8139  -14.8594  -15.0959 C   0  0  0  0  0  0  0  0  0  0  0  0
   15.3270  -13.7824  -14.3954 O   0  0  0  0  0  0  0  0  0  0  0  0
   15.0566  -15.8769  -15.1725 O   0  0  0  0  0  0  0  0  0  0  0  0
  2  9  1  0
  2  1  1  1
  3  2  1  0
  4  3  1  0
  5  4  2  0
  6  5  1  0
  7  6  1  0
  7  8  2  0
  8  4  1  0
  9 10  2  0
 12 11  1  6
 12 13  1  0
 12 14  1  0
 14 15  1  1
 15  9  1  0
 16 14  1  0
 16 17  2  0
 19 18  1  6
 19 21  1  0
 20 19  1  0
 21 22  1  6
 21 23  1  0
 22 16  1  0
 23 24  1  0
 25 23  2  0
M  END
$$$$
