HTT.pdb
     RDKit          3D

 25 25  0  0  1  0  0  0  0  0999 V2000
   20.2770  -12.8881  -17.0120 N   0  0  0  0  0  0  0  0  0  0  0  0
   19.6816  -11.6038  -16.8132 C   0  0  1  0  0  0  0  0  0  0  0  0
   18.8413  -11.6808  -15.5379 C   0  0  0  0  0  0  0  0  0  0  0  0
   17.6470  -12.5566  -15.7468 C   0  0  0  0  0  0  0  0  0  0  0  0
   17.4816  -13.7999  -15.1432 C   0  0  0  0  0  0  0  0  0  0  0  0
   16.3225  -14.3254  -15.5286 N   0  0  0  0  0  0  0  0  0  0  0  0
   15.7625  -13.4320  -16.3614 C   0  0  0  0  0  0  0  0  0  0  0  0
   16.5630  -12.3594  -16.4953 N   0  0  0  0  0  0  0  0  0  0  0  0
   20.6856  -10.5323  -16.5913 C   0  0  0  0  0  0  0  0  0  0  0  0
   21.7361  -10.7417  -15.9259 O   0  0  0  0  0  0  0  0  0  0  0  0
   23.1584   -6.6650  -18.1506 C   0  0  0  0  0  0  0  0  0  0  0  0
   22.0877   -7.7305  -18.2846 C   0  0  1  0  0  0  0  0  0  0  0  0
   22.6608   -8.7982  -18.9510 O   0  0  0  0  0  0  0  0  0  0  0  0
   21.5833   -8.2035  -16.9564 C   0  0  2  0  0  0  0  0  0  0  0  0
   20.5479   -9.2170  -17.0978 N   0  0  0  0  0  0  0  0  0  0  0  0
   21.1172   -7.0618  -16.1623 C   0  0  0  0  0  0  0  0  0  0  0  0
   20.0908   -6.3814  -16.4761 O   0  0  0  0  0  0  0  0  0  0  0  0
   19.8855   -7.0001  -12.8359 C   0  0  0  0  0  0  0  0  0  0  0  0
   20.9493   -5.9210  -12.7651 C   0  0  1  0  0  0  0  0  0  0  0  0
   22.0607   -6.5053  -12.1344 O   0  0  0  0  0  0  0  0  0  0  0  0
   21.2703   -5.5232  -14.1754 C   0  0  2  0  0  0  0  0  0  0  0  0
   21.7567   -6.6155  -14.9826 N   0  0  0  0  0  0  0  0  0  0  0  0
   22.2443   -4.4230  -14.1606 C   0  0  0  0  0  0  0  0  0  0  0  0
   22.0034   -3.1956  -13.5924 O   0  0  0  0  0  0  0  0  0  0  0  0
   23.3845   -4.5869  -14.6971 O   0  0  0  0  0  0  0  0  0  0  0  0
  2  9  1  0
  2  1  1  1
  3  2  1  0
  4  3  1  0
  5  4  2  0
  6  5  1  0
  7  6  1  0
  7  8  2  0
  8  4  1  0
  9 10  2  0
 12 11  1  1
 12 13  1  0
 12 14  1  0
 14 15  1  6
 15  9  1  0
 16 14  1  0
 16 17  2  0
 19 18  1  6
 19 21  1  0
 20 19  1  0
 21 22  1  6
 21 23  1  0
 22 16  1  0
 23 24  1  0
 25 23  2  0
M  END
$$$$
