ACL.pdb
     RDKit          3D

 20 19  0  0  1  0  0  0  0  0999 V2000
   28.9089  -20.4804  -17.4288 C   0  0  0  0  0  0  0  0  0  0  0  0
   28.3403  -21.3532  -16.3266 C   0  0  2  0  0  0  0  0  0  0  0  0
   27.3836  -22.2798  -16.8490 N   0  0  0  0  0  0  0  0  0  0  0  0
   27.7618  -20.4712  -15.2963 C   0  0  0  0  0  0  0  0  0  0  0  0
   28.2468  -19.3082  -15.1605 O   0  0  0  0  0  0  0  0  0  0  0  0
   26.6894  -20.8723  -14.4564 N   0  0  0  0  0  0  0  0  0  0  0  0
   25.9662  -19.9789  -13.5853 C   0  0  1  0  0  0  0  0  0  0  0  0
   24.6260  -19.5809  -14.1787 C   0  0  0  0  0  0  0  0  0  0  0  0
   24.7768  -18.9175  -15.8374 S   0  0  0  0  0  0  0  0  0  0  0  0
   25.6562  -20.7242  -12.3132 C   0  0  0  0  0  0  0  0  0  0  0  0
   25.2822  -21.9255  -12.3445 O   0  0  0  0  0  0  0  0  0  0  0  0
   27.7233  -18.9771   -7.4349 C   0  0  0  0  0  0  0  0  0  0  0  0
   27.4772  -19.8360   -8.7182 C   0  0  1  0  0  0  0  0  0  0  0  0
   28.3072  -21.0930   -8.4626 C   0  0  0  0  0  0  0  0  0  0  0  0
   26.0258  -20.1210   -8.6963 C   0  0  0  0  0  0  0  0  0  0  0  0
   25.3860  -20.8519   -9.8119 C   0  0  2  0  0  0  0  0  0  0  0  0
   25.7753  -20.0999  -11.0498 N   0  0  0  0  0  0  0  0  0  0  0  0
   23.9250  -20.8959   -9.7558 C   0  0  0  0  0  0  0  0  0  0  0  0
   23.3240  -21.7349   -8.7925 O   0  0  0  0  0  0  0  0  0  0  0  0
   23.1213  -20.2664  -10.4740 O   0  0  0  0  0  0  0  0  0  0  0  0
  2  3  1  0
  2  1  1  6
  4  2  1  0
  5  4  2  0
  6  4  1  0
  7 10  1  0
  7  6  1  0
  7  8  1  6
  9  8  1  0
 10 11  2  0
 13 12  1  1
 13 14  1  0
 15 13  1  0
 16 15  1  1
 17 16  1  0
 17 10  1  0
 18 16  1  0
 19 18  1  0
 20 18  2  0
M  END
$$$$
