ACL.pdb
     RDKit          3D

 20 19  0  0  1  0  0  0  0  0999 V2000
   13.6481  -10.1014  -18.2197 C   0  0  0  0  0  0  0  0  0  0  0  0
   14.9272  -10.7839  -17.7746 C   0  0  2  0  0  0  0  0  0  0  0  0
   14.6520  -12.0683  -17.2077 N   0  0  0  0  0  0  0  0  0  0  0  0
   15.6181   -9.8895  -16.8276 C   0  0  0  0  0  0  0  0  0  0  0  0
   14.9452   -9.3824  -15.8809 O   0  0  0  0  0  0  0  0  0  0  0  0
   16.9991   -9.5768  -16.9352 N   0  0  0  0  0  0  0  0  0  0  0  0
   17.7243   -8.7766  -15.9794 C   0  0  1  0  0  0  0  0  0  0  0  0
   19.1993   -9.1372  -15.9514 C   0  0  0  0  0  0  0  0  0  0  0  0
   19.5053  -10.7269  -15.1809 S   0  0  0  0  0  0  0  0  0  0  0  0
   17.6527   -7.3407  -16.4298 C   0  0  0  0  0  0  0  0  0  0  0  0
   17.5736   -7.0516  -17.6522 O   0  0  0  0  0  0  0  0  0  0  0  0
   13.8941   -3.9122  -17.0405 C   0  0  0  0  0  0  0  0  0  0  0  0
   15.4026   -3.5611  -16.8253 C   0  0  1  0  0  0  0  0  0  0  0  0
   15.3587   -2.4648  -15.7620 C   0  0  0  0  0  0  0  0  0  0  0  0
   15.9994   -4.8101  -16.3036 C   0  0  0  0  0  0  0  0  0  0  0  0
   17.4389   -4.8733  -15.9693 C   0  0  2  0  0  0  0  0  0  0  0  0
   17.6722   -6.2777  -15.4973 N   0  0  0  0  0  0  0  0  0  0  0  0
   17.8588   -3.9666  -14.9011 C   0  0  0  0  0  0  0  0  0  0  0  0
   18.4038   -2.7172  -15.2687 O   0  0  0  0  0  0  0  0  0  0  0  0
   17.7934   -4.1660  -13.6707 O   0  0  0  0  0  0  0  0  0  0  0  0
  2  3  1  0
  2  1  1  1
  4  2  1  0
  5  4  2  0
  6  4  1  0
  7 10  1  0
  7  6  1  0
  7  8  1  6
  9  8  1  0
 10 11  2  0
 13 12  1  1
 13 14  1  0
 15 13  1  0
 16 15  1  1
 17 16  1  0
 17 10  1  0
 18 16  1  0
 19 18  1  0
 20 18  2  0
M  END
$$$$
