ACL.pdb
     RDKit          3D

 20 19  0  0  1  0  0  0  0  0999 V2000
   27.4395  -21.3098  -16.8988 C   0  0  0  0  0  0  0  0  0  0  0  0
   28.0057  -21.3574  -15.4927 C   0  0  2  0  0  0  0  0  0  0  0  0
   29.0149  -22.3652  -15.3807 N   0  0  0  0  0  0  0  0  0  0  0  0
   26.8882  -21.5765  -14.5560 C   0  0  0  0  0  0  0  0  0  0  0  0
   25.8628  -22.1903  -14.9780 O   0  0  0  0  0  0  0  0  0  0  0  0
   26.9169  -21.1291  -13.2086 N   0  0  0  0  0  0  0  0  0  0  0  0
   25.8649  -21.3727  -12.2526 C   0  0  1  0  0  0  0  0  0  0  0  0
   26.2679  -20.9397  -10.8538 C   0  0  0  0  0  0  0  0  0  0  0  0
   24.8812  -20.9021   -9.7180 S   0  0  0  0  0  0  0  0  0  0  0  0
   24.6866  -20.5147  -12.6335 C   0  0  0  0  0  0  0  0  0  0  0  0
   24.8076  -19.2671  -12.7478 O   0  0  0  0  0  0  0  0  0  0  0  0
   19.9619  -21.3127  -15.5456 C   0  0  0  0  0  0  0  0  0  0  0  0
   21.4217  -21.6855  -15.1270 C   0  0  1  0  0  0  0  0  0  0  0  0
   22.0550  -22.1469  -16.4386 C   0  0  0  0  0  0  0  0  0  0  0  0
   22.0043  -20.4111  -14.6528 C   0  0  0  0  0  0  0  0  0  0  0  0
   22.2566  -20.1895  -13.2123 C   0  0  2  0  0  0  0  0  0  0  0  0
   23.4135  -21.0818  -12.8733 N   0  0  0  0  0  0  0  0  0  0  0  0
   21.1428  -20.5479  -12.3344 C   0  0  0  0  0  0  0  0  0  0  0  0
   21.2077  -21.7823  -11.6522 O   0  0  0  0  0  0  0  0  0  0  0  0
   20.1134  -19.8795  -12.1074 O   0  0  0  0  0  0  0  0  0  0  0  0
  2  3  1  0
  2  1  1  6
  4  2  1  0
  5  4  2  0
  6  4  1  0
  7 10  1  0
  7  6  1  0
  7  8  1  1
  9  8  1  0
 10 11  2  0
 13 12  1  6
 13 14  1  0
 15 13  1  0
 16 15  1  6
 17 16  1  0
 17 10  1  0
 18 16  1  0
 19 18  1  0
 20 18  2  0
M  END
$$$$
