ACL.pdb
     RDKit          3D

 20 19  0  0  1  0  0  0  0  0999 V2000
   19.2852  -12.2481  -19.6848 C   0  0  0  0  0  0  0  0  0  0  0  0
   20.6310  -12.7330  -19.1813 C   0  0  2  0  0  0  0  0  0  0  0  0
   20.5899  -14.1295  -18.8733 N   0  0  0  0  0  0  0  0  0  0  0  0
   21.0065  -11.9125  -18.0150 C   0  0  0  0  0  0  0  0  0  0  0  0
   20.1445  -11.7358  -17.1029 O   0  0  0  0  0  0  0  0  0  0  0  0
   22.2881  -11.3171  -17.8760 N   0  0  0  0  0  0  0  0  0  0  0  0
   22.7070  -10.5587  -16.7230 C   0  0  1  0  0  0  0  0  0  0  0  0
   24.2204  -10.4722  -16.6292 C   0  0  0  0  0  0  0  0  0  0  0  0
   24.9579  -11.9750  -15.9875 S   0  0  0  0  0  0  0  0  0  0  0  0
   22.2167   -9.1448  -16.8967 C   0  0  0  0  0  0  0  0  0  0  0  0
   22.1770   -8.6115  -18.0361 O   0  0  0  0  0  0  0  0  0  0  0  0
   19.6773   -5.5131  -18.4665 C   0  0  0  0  0  0  0  0  0  0  0  0
   19.0647   -6.1542  -17.1786 C   0  0  1  0  0  0  0  0  0  0  0  0
   17.7064   -6.6666  -17.6547 C   0  0  0  0  0  0  0  0  0  0  0  0
   19.9858   -7.2632  -16.8469 C   0  0  0  0  0  0  0  0  0  0  0  0
   21.1861   -7.0212  -16.0171 C   0  0  2  0  0  0  0  0  0  0  0  0
   21.7876   -8.3762  -15.7899 N   0  0  0  0  0  0  0  0  0  0  0  0
   20.9148   -6.4269  -14.7083 C   0  0  0  0  0  0  0  0  0  0  0  0
   20.8890   -5.0185  -14.6128 O   0  0  0  0  0  0  0  0  0  0  0  0
   20.6974   -7.0270  -13.6357 O   0  0  0  0  0  0  0  0  0  0  0  0
  2  3  1  0
  2  1  1  1
  4  2  1  0
  5  4  2  0
  6  4  1  0
  7 10  1  0
  7  6  1  0
  7  8  1  6
  9  8  1  0
 10 11  2  0
 13 12  1  6
 13 14  1  0
 15 13  1  0
 16 15  1  6
 17 16  1  0
 17 10  1  0
 18 16  1  0
 19 18  1  0
 20 18  2  0
M  END
$$$$
