ACL.pdb
     RDKit          3D

 20 19  0  0  1  0  0  0  0  0999 V2000
   18.3823  -14.0960  -16.7049 C   0  0  0  0  0  0  0  0  0  0  0  0
   18.7209  -13.7097  -18.1318 C   0  0  2  0  0  0  0  0  0  0  0  0
   19.1876  -14.8415  -18.8720 N   0  0  0  0  0  0  0  0  0  0  0  0
   19.7136  -12.6202  -18.0882 C   0  0  0  0  0  0  0  0  0  0  0  0
   20.8200  -12.8392  -17.5102 O   0  0  0  0  0  0  0  0  0  0  0  0
   19.4788  -11.3441  -18.6650 N   0  0  0  0  0  0  0  0  0  0  0  0
   20.4358  -10.2652  -18.6593 C   0  0  1  0  0  0  0  0  0  0  0  0
   20.1734   -9.2777  -19.7830 C   0  0  0  0  0  0  0  0  0  0  0  0
   21.2880   -7.8742  -19.7410 S   0  0  0  0  0  0  0  0  0  0  0  0
   20.2577   -9.4963  -17.3760 C   0  0  0  0  0  0  0  0  0  0  0  0
   19.1128   -9.3188  -16.8842 O   0  0  0  0  0  0  0  0  0  0  0  0
   23.1820  -10.2909  -12.9301 C   0  0  0  0  0  0  0  0  0  0  0  0
   21.8630  -10.0046  -13.7198 C   0  0  1  0  0  0  0  0  0  0  0  0
   20.8315   -9.7918  -12.6130 C   0  0  0  0  0  0  0  0  0  0  0  0
   22.1422   -8.7545  -14.4597 C   0  0  0  0  0  0  0  0  0  0  0  0
   21.1484   -8.2030  -15.4063 C   0  0  2  0  0  0  0  0  0  0  0  0
   21.3665   -8.9523  -16.6871 N   0  0  0  0  0  0  0  0  0  0  0  0
   21.3013   -6.7763  -15.6909 C   0  0  0  0  0  0  0  0  0  0  0  0
   20.8053   -5.8549  -14.7432 O   0  0  0  0  0  0  0  0  0  0  0  0
   21.8303   -6.2580  -16.6956 O   0  0  0  0  0  0  0  0  0  0  0  0
  2  3  1  0
  2  1  1  1
  4  2  1  0
  5  4  2  0
  6  4  1  0
  7 10  1  0
  7  6  1  0
  7  8  1  6
  9  8  1  0
 10 11  2  0
 13 12  1  1
 13 14  1  0
 15 13  1  0
 16 15  1  1
 17 16  1  0
 17 10  1  0
 18 16  1  0
 19 18  1  0
 20 18  2  0
M  END
$$$$
