ACL.pdb
     RDKit          3D

 20 19  0  0  1  0  0  0  0  0999 V2000
   18.0731  -12.6136  -18.1238 C   0  0  0  0  0  0  0  0  0  0  0  0
   19.4844  -12.5502  -17.5723 C   0  0  2  0  0  0  0  0  0  0  0  0
   19.8197  -13.7580  -16.8827 N   0  0  0  0  0  0  0  0  0  0  0  0
   19.5839  -11.3627  -16.7039 C   0  0  0  0  0  0  0  0  0  0  0  0
   18.6149  -11.1022  -15.9297 O   0  0  0  0  0  0  0  0  0  0  0  0
   20.7162  -10.5058  -16.7020 N   0  0  0  0  0  0  0  0  0  0  0  0
   20.8321   -9.3199  -15.8895 C   0  0  1  0  0  0  0  0  0  0  0  0
   22.2512   -9.1223  -15.3858 C   0  0  0  0  0  0  0  0  0  0  0  0
   22.6291  -10.1537  -13.9689 S   0  0  0  0  0  0  0  0  0  0  0  0
   20.5281   -8.1301  -16.7623 C   0  0  0  0  0  0  0  0  0  0  0  0
   20.9849   -8.0556  -17.9327 O   0  0  0  0  0  0  0  0  0  0  0  0
   17.0386   -3.9468  -17.6989 C   0  0  0  0  0  0  0  0  0  0  0  0
   17.3844   -5.1819  -18.5932 C   0  0  1  0  0  0  0  0  0  0  0  0
   18.3749   -4.6131  -19.6079 C   0  0  0  0  0  0  0  0  0  0  0  0
   18.0324   -6.1360  -17.6668 C   0  0  0  0  0  0  0  0  0  0  0  0
   19.4199   -5.9118  -17.2057 C   0  0  2  0  0  0  0  0  0  0  0  0
   19.7235   -7.0648  -16.2958 N   0  0  0  0  0  0  0  0  0  0  0  0
   19.6198   -4.6777  -16.4463 C   0  0  0  0  0  0  0  0  0  0  0  0
   19.5263   -4.7433  -15.0390 O   0  0  0  0  0  0  0  0  0  0  0  0
   19.8695   -3.5423  -16.9005 O   0  0  0  0  0  0  0  0  0  0  0  0
  2  3  1  0
  2  1  1  1
  4  2  1  0
  5  4  2  0
  6  4  1  0
  7 10  1  0
  7  6  1  0
  7  8  1  6
  9  8  1  0
 10 11  2  0
 13 12  1  1
 13 14  1  0
 15 13  1  0
 16 15  1  1
 17 16  1  0
 17 10  1  0
 18 16  1  0
 19 18  1  0
 20 18  2  0
M  END
$$$$
