ACL.pdb
     RDKit          3D

 20 19  0  0  1  0  0  0  0  0999 V2000
   14.5470  -12.8084  -13.2662 C   0  0  0  0  0  0  0  0  0  0  0  0
   15.4390  -12.1309  -14.2887 C   0  0  2  0  0  0  0  0  0  0  0  0
   16.2288  -13.0915  -14.9961 N   0  0  0  0  0  0  0  0  0  0  0  0
   16.2666  -11.1335  -13.5853 C   0  0  0  0  0  0  0  0  0  0  0  0
   17.1775  -11.5496  -12.8087 O   0  0  0  0  0  0  0  0  0  0  0  0
   16.0830   -9.7344  -13.7440 N   0  0  0  0  0  0  0  0  0  0  0  0
   16.9660   -8.7351  -13.1946 C   0  0  1  0  0  0  0  0  0  0  0  0
   17.7456   -8.0174  -14.2827 C   0  0  0  0  0  0  0  0  0  0  0  0
   18.7689   -6.6940  -13.6380 S   0  0  0  0  0  0  0  0  0  0  0  0
   16.1170   -7.6855  -12.5260 C   0  0  0  0  0  0  0  0  0  0  0  0
   15.0783   -7.2448  -13.0837 O   0  0  0  0  0  0  0  0  0  0  0  0
   15.1672   -7.0409   -7.0602 C   0  0  0  0  0  0  0  0  0  0  0  0
   14.8071   -7.1385   -8.5788 C   0  0  1  0  0  0  0  0  0  0  0  0
   13.3556   -6.6639   -8.6256 C   0  0  0  0  0  0  0  0  0  0  0  0
   15.7214   -6.1785   -9.2352 C   0  0  0  0  0  0  0  0  0  0  0  0
   15.6953   -5.9987  -10.7032 C   0  0  2  0  0  0  0  0  0  0  0  0
   16.4591   -7.1650  -11.2564 N   0  0  0  0  0  0  0  0  0  0  0  0
   16.3391   -4.7751  -11.1807 C   0  0  0  0  0  0  0  0  0  0  0  0
   15.6017   -3.5726  -11.1226 O   0  0  0  0  0  0  0  0  0  0  0  0
   17.4914   -4.6590  -11.6462 O   0  0  0  0  0  0  0  0  0  0  0  0
  2  3  1  0
  2  1  1  1
  4  2  1  0
  5  4  2  0
  6  4  1  0
  7 10  1  0
  7  6  1  0
  7  8  1  6
  9  8  1  0
 10 11  2  0
 13 12  1  1
 13 14  1  0
 15 13  1  0
 16 15  1  1
 17 16  1  0
 17 10  1  0
 18 16  1  0
 19 18  1  0
 20 18  2  0
M  END
$$$$
