ACL.pdb
     RDKit          3D

 20 19  0  0  1  0  0  0  0  0999 V2000
   18.5851  -14.5360  -16.1233 C   0  0  0  0  0  0  0  0  0  0  0  0
   18.0804  -13.8920  -17.4001 C   0  0  2  0  0  0  0  0  0  0  0  0
   18.3176  -14.7380  -18.5291 N   0  0  0  0  0  0  0  0  0  0  0  0
   18.7322  -12.5766  -17.5384 C   0  0  0  0  0  0  0  0  0  0  0  0
   19.9682  -12.5455  -17.8169 O   0  0  0  0  0  0  0  0  0  0  0  0
   18.0327  -11.3520  -17.3727 N   0  0  0  0  0  0  0  0  0  0  0  0
   18.6225  -10.0505  -17.5684 C   0  0  1  0  0  0  0  0  0  0  0  0
   17.5693   -8.9970  -17.8641 C   0  0  0  0  0  0  0  0  0  0  0  0
   16.6382   -9.3530  -19.3543 S   0  0  0  0  0  0  0  0  0  0  0  0
   19.2744   -9.6391  -16.2740 C   0  0  0  0  0  0  0  0  0  0  0  0
   18.6912   -9.8179  -15.1730 O   0  0  0  0  0  0  0  0  0  0  0  0
   24.4158  -10.6947  -15.1165 C   0  0  0  0  0  0  0  0  0  0  0  0
   22.8590  -10.6058  -14.9996 C   0  0  1  0  0  0  0  0  0  0  0  0
   22.5750  -11.2225  -13.6309 C   0  0  0  0  0  0  0  0  0  0  0  0
   22.5716   -9.1549  -15.0198 C   0  0  0  0  0  0  0  0  0  0  0  0
   21.1786   -8.6630  -14.9448 C   0  0  2  0  0  0  0  0  0  0  0  0
   20.5562   -9.0420  -16.2556 N   0  0  0  0  0  0  0  0  0  0  0  0
   21.0493   -7.2142  -14.7902 C   0  0  0  0  0  0  0  0  0  0  0  0
   20.6835   -6.4571  -15.9243 O   0  0  0  0  0  0  0  0  0  0  0  0
   21.2274   -6.5456  -13.7514 O   0  0  0  0  0  0  0  0  0  0  0  0
  2  3  1  0
  2  1  1  1
  4  2  1  0
  5  4  2  0
  6  4  1  0
  7 10  1  0
  7  6  1  0
  7  8  1  1
  9  8  1  0
 10 11  2  0
 13 12  1  1
 13 14  1  0
 15 13  1  0
 16 15  1  6
 17 16  1  0
 17 10  1  0
 18 16  1  0
 19 18  1  0
 20 18  2  0
M  END
$$$$
