ACL.pdb
     RDKit          3D

 20 19  0  0  1  0  0  0  0  0999 V2000
   26.5790  -33.6013  -10.3877 C   0  0  0  0  0  0  0  0  0  0  0  0
   25.4507  -33.3005   -9.4201 C   0  0  2  0  0  0  0  0  0  0  0  0
   24.5579  -32.3228   -9.9621 N   0  0  0  0  0  0  0  0  0  0  0  0
   26.0461  -32.8686   -8.1421 C   0  0  0  0  0  0  0  0  0  0  0  0
   26.5329  -31.7007   -8.0710 O   0  0  0  0  0  0  0  0  0  0  0  0
   26.0945  -33.7056   -6.9960 N   0  0  0  0  0  0  0  0  0  0  0  0
   26.6569  -33.3099   -5.7283 C   0  0  1  0  0  0  0  0  0  0  0  0
   25.6243  -33.3645   -4.6159 C   0  0  0  0  0  0  0  0  0  0  0  0
   26.2554  -32.7392   -3.0587 S   0  0  0  0  0  0  0  0  0  0  0  0
   27.7207  -34.3116   -5.3617 C   0  0  0  0  0  0  0  0  0  0  0  0
   27.5719  -35.5342   -5.6209 O   0  0  0  0  0  0  0  0  0  0  0  0
   33.0656  -33.1155   -5.5257 C   0  0  0  0  0  0  0  0  0  0  0  0
   31.7027  -33.8273   -5.8103 C   0  0  1  0  0  0  0  0  0  0  0  0
   32.1006  -35.0011   -6.7036 C   0  0  0  0  0  0  0  0  0  0  0  0
   31.2403  -34.2801   -4.4800 C   0  0  0  0  0  0  0  0  0  0  0  0
   29.9280  -34.9450   -4.3262 C   0  0  2  0  0  0  0  0  0  0  0  0
   28.9145  -33.9112   -4.7179 N   0  0  0  0  0  0  0  0  0  0  0  0
   29.6194  -35.3809   -2.9645 C   0  0  0  0  0  0  0  0  0  0  0  0
   30.3305  -36.4844   -2.4450 O   0  0  0  0  0  0  0  0  0  0  0  0
   28.7821  -34.8847   -2.1830 O   0  0  0  0  0  0  0  0  0  0  0  0
  2  3  1  0
  2  1  1  6
  4  2  1  0
  5  4  2  0
  6  4  1  0
  7 10  1  0
  7  6  1  0
  7  8  1  1
  9  8  1  0
 10 11  2  0
 13 12  1  1
 13 14  1  0
 15 13  1  0
 16 15  1  1
 17 16  1  0
 17 10  1  0
 18 16  1  0
 19 18  1  0
 20 18  2  0
M  END
$$$$
