ACL.pdb
     RDKit          3D

 20 19  0  0  1  0  0  0  0  0999 V2000
   19.0293  -15.6380  -19.4250 C   0  0  0  0  0  0  0  0  0  0  0  0
   18.4911  -14.9899  -18.1639 C   0  0  2  0  0  0  0  0  0  0  0  0
   17.1133  -15.3206  -17.9659 N   0  0  0  0  0  0  0  0  0  0  0  0
   18.7093  -13.5353  -18.2673 C   0  0  0  0  0  0  0  0  0  0  0  0
   19.2527  -13.0832  -19.3192 O   0  0  0  0  0  0  0  0  0  0  0  0
   18.3364  -12.6282  -17.2405 N   0  0  0  0  0  0  0  0  0  0  0  0
   18.4742  -11.1958  -17.3370 C   0  0  1  0  0  0  0  0  0  0  0  0
   17.1310  -10.4953  -17.2291 C   0  0  0  0  0  0  0  0  0  0  0  0
   16.1519  -11.0915  -15.8506 S   0  0  0  0  0  0  0  0  0  0  0  0
   19.2860  -10.7291  -16.1568 C   0  0  0  0  0  0  0  0  0  0  0  0
   19.4901  -11.4883  -15.1739 O   0  0  0  0  0  0  0  0  0  0  0  0
   22.8155  -10.5795  -13.1228 C   0  0  0  0  0  0  0  0  0  0  0  0
   23.2162   -9.9347  -14.4898 C   0  0  1  0  0  0  0  0  0  0  0  0
   24.3094  -10.8668  -15.0096 C   0  0  0  0  0  0  0  0  0  0  0  0
   21.9871  -10.0174  -15.3089 C   0  0  0  0  0  0  0  0  0  0  0  0
   20.8597   -9.0903  -15.0690 C   0  0  2  0  0  0  0  0  0  0  0  0
   19.8414   -9.4292  -16.1167 N   0  0  0  0  0  0  0  0  0  0  0  0
   21.1930   -7.6731  -15.2107 C   0  0  0  0  0  0  0  0  0  0  0  0
   21.3574   -6.9103  -14.0341 O   0  0  0  0  0  0  0  0  0  0  0  0
   21.3542   -7.0366  -16.2722 O   0  0  0  0  0  0  0  0  0  0  0  0
  2  3  1  0
  2  1  1  6
  4  2  1  0
  5  4  2  0
  6  4  1  0
  7 10  1  0
  7  6  1  0
  7  8  1  1
  9  8  1  0
 10 11  2  0
 13 12  1  1
 13 14  1  0
 15 13  1  0
 16 15  1  6
 17 16  1  0
 17 10  1  0
 18 16  1  0
 19 18  1  0
 20 18  2  0
M  END
$$$$
