ACL.pdb
     RDKit          3D

 20 19  0  0  1  0  0  0  0  0999 V2000
   26.9430  -20.3216  -15.0866 C   0  0  0  0  0  0  0  0  0  0  0  0
   26.6322  -21.2799  -13.9530 C   0  0  2  0  0  0  0  0  0  0  0  0
   25.5189  -22.1167  -14.2803 N   0  0  0  0  0  0  0  0  0  0  0  0
   26.3971  -20.4857  -12.7331 C   0  0  0  0  0  0  0  0  0  0  0  0
   26.9628  -19.3560  -12.6341 O   0  0  0  0  0  0  0  0  0  0  0  0
   25.5668  -20.9353  -11.6725 N   0  0  0  0  0  0  0  0  0  0  0  0
   25.2407  -20.1462  -10.5102 C   0  0  1  0  0  0  0  0  0  0  0  0
   23.7539  -20.1889  -10.2033 C   0  0  0  0  0  0  0  0  0  0  0  0
   22.8820  -21.4076  -11.1876 S   0  0  0  0  0  0  0  0  0  0  0  0
   25.9313  -20.7652   -9.3229 C   0  0  0  0  0  0  0  0  0  0  0  0
   26.1714  -22.0002   -9.2881 O   0  0  0  0  0  0  0  0  0  0  0  0
   29.6287  -18.4495   -5.2120 C   0  0  0  0  0  0  0  0  0  0  0  0
   28.8778  -19.8040   -5.4281 C   0  0  1  0  0  0  0  0  0  0  0  0
   28.0930  -19.9803   -4.1291 C   0  0  0  0  0  0  0  0  0  0  0  0
   27.9853  -19.5490   -6.5800 C   0  0  0  0  0  0  0  0  0  0  0  0
   27.1011  -20.6163   -7.0969 C   0  0  2  0  0  0  0  0  0  0  0  0
   26.3295  -19.9813   -8.2152 N   0  0  0  0  0  0  0  0  0  0  0  0
   26.1373  -21.1351   -6.1264 C   0  0  0  0  0  0  0  0  0  0  0  0
   24.8241  -20.6174   -6.1553 O   0  0  0  0  0  0  0  0  0  0  0  0
   26.3374  -22.0025   -5.2515 O   0  0  0  0  0  0  0  0  0  0  0  0
  2  3  1  0
  2  1  1  6
  4  2  1  0
  5  4  2  0
  6  4  1  0
  7 10  1  0
  7  6  1  0
  7  8  1  1
  9  8  1  0
 10 11  2  0
 13 12  1  1
 13 14  1  0
 15 13  1  0
 16 15  1  1
 17 16  1  0
 17 10  1  0
 18 16  1  0
 19 18  1  0
 20 18  2  0
M  END
$$$$
