ACL.pdb
     RDKit          3D

 20 19  0  0  1  0  0  0  0  0999 V2000
   19.3873  -15.5596  -17.4895 C   0  0  0  0  0  0  0  0  0  0  0  0
   19.4894  -14.1268  -17.9761 C   0  0  2  0  0  0  0  0  0  0  0  0
   20.1621  -14.0606  -19.2370 N   0  0  0  0  0  0  0  0  0  0  0  0
   20.1717  -13.3369  -16.9345 C   0  0  0  0  0  0  0  0  0  0  0  0
   19.6496  -13.2867  -15.7808 O   0  0  0  0  0  0  0  0  0  0  0  0
   21.3828  -12.6351  -17.1733 N   0  0  0  0  0  0  0  0  0  0  0  0
   22.0482  -11.8127  -16.1930 C   0  0  1  0  0  0  0  0  0  0  0  0
   23.5590  -11.8992  -16.3217 C   0  0  0  0  0  0  0  0  0  0  0  0
   24.4099  -10.7637  -15.2260 S   0  0  0  0  0  0  0  0  0  0  0  0
   21.6856  -10.3772  -16.4714 C   0  0  0  0  0  0  0  0  0  0  0  0
   21.6722   -9.9322  -17.6487 O   0  0  0  0  0  0  0  0  0  0  0  0
   17.6988   -7.3791  -17.5328 C   0  0  0  0  0  0  0  0  0  0  0  0
   19.0113   -6.8807  -16.8442 C   0  0  1  0  0  0  0  0  0  0  0  0
   18.4968   -6.0314  -15.6831 C   0  0  0  0  0  0  0  0  0  0  0  0
   19.6703   -8.1178  -16.3715 C   0  0  0  0  0  0  0  0  0  0  0  0
   21.0072   -8.0638  -15.7408 C   0  0  2  0  0  0  0  0  0  0  0  0
   21.3507   -9.4888  -15.4233 N   0  0  0  0  0  0  0  0  0  0  0  0
   21.0645   -7.3012  -14.4939 C   0  0  0  0  0  0  0  0  0  0  0  0
   21.1989   -5.8985  -14.5808 O   0  0  0  0  0  0  0  0  0  0  0  0
   21.0081   -7.7491  -13.3302 O   0  0  0  0  0  0  0  0  0  0  0  0
  2  3  1  0
  2  1  1  1
  4  2  1  0
  5  4  2  0
  6  4  1  0
  7 10  1  0
  7  6  1  0
  7  8  1  6
  9  8  1  0
 10 11  2  0
 13 12  1  6
 13 14  1  0
 15 13  1  0
 16 15  1  1
 17 16  1  0
 17 10  1  0
 18 16  1  0
 19 18  1  0
 20 18  2  0
M  END
$$$$
