ACL.pdb
     RDKit          3D

 20 19  0  0  1  0  0  0  0  0999 V2000
   21.8980  -19.0349  -17.1943 C   0  0  0  0  0  0  0  0  0  0  0  0
   23.3008  -18.6638  -16.7534 C   0  0  2  0  0  0  0  0  0  0  0  0
   23.8084  -19.6110  -15.8090 N   0  0  0  0  0  0  0  0  0  0  0  0
   23.2624  -17.2943  -16.2084 C   0  0  0  0  0  0  0  0  0  0  0  0
   22.1791  -16.8824  -15.6957 O   0  0  0  0  0  0  0  0  0  0  0  0
   24.3852  -16.4253  -16.2361 N   0  0  0  0  0  0  0  0  0  0  0  0
   24.3539  -15.0491  -15.8059 C   0  0  1  0  0  0  0  0  0  0  0  0
   25.7178  -14.5797  -15.3306 C   0  0  0  0  0  0  0  0  0  0  0  0
   25.7539  -12.8246  -14.9661 S   0  0  0  0  0  0  0  0  0  0  0  0
   24.0117  -14.1988  -17.0016 C   0  0  0  0  0  0  0  0  0  0  0  0
   24.5061  -14.4471  -18.1321 O   0  0  0  0  0  0  0  0  0  0  0  0
   20.3094  -11.3838  -19.7507 C   0  0  0  0  0  0  0  0  0  0  0  0
   21.3191  -12.5062  -20.1578 C   0  0  1  0  0  0  0  0  0  0  0  0
   22.3940  -11.7459  -20.9328 C   0  0  0  0  0  0  0  0  0  0  0  0
   21.8313  -13.0237  -18.8701 C   0  0  0  0  0  0  0  0  0  0  0  0
   22.8363  -12.2598  -18.0990 C   0  0  2  0  0  0  0  0  0  0  0  0
   23.1281  -13.1001  -16.8915 N   0  0  0  0  0  0  0  0  0  0  0  0
   22.3826  -10.9495  -17.6332 C   0  0  0  0  0  0  0  0  0  0  0  0
   21.8983  -10.8476  -16.3110 O   0  0  0  0  0  0  0  0  0  0  0  0
   22.3700   -9.8806  -18.2776 O   0  0  0  0  0  0  0  0  0  0  0  0
  2  3  1  0
  2  1  1  1
  4  2  1  0
  5  4  2  0
  6  4  1  0
  7 10  1  0
  7  6  1  0
  7  8  1  6
  9  8  1  0
 10 11  2  0
 13 12  1  1
 13 14  1  0
 15 13  1  0
 16 15  1  1
 17 16  1  0
 17 10  1  0
 18 16  1  0
 19 18  1  0
 20 18  2  0
M  END
$$$$
