ACL.pdb
     RDKit          3D

 20 19  0  0  1  0  0  0  0  0999 V2000
   19.5977  -11.6193  -18.2037 C   0  0  0  0  0  0  0  0  0  0  0  0
   20.5998  -10.4811  -18.2208 C   0  0  2  0  0  0  0  0  0  0  0  0
   21.9120  -10.9488  -17.8952 N   0  0  0  0  0  0  0  0  0  0  0  0
   20.1278   -9.4411  -17.2880 C   0  0  0  0  0  0  0  0  0  0  0  0
   19.0275   -8.8645  -17.5388 O   0  0  0  0  0  0  0  0  0  0  0  0
   20.8541   -9.0638  -16.1276 N   0  0  0  0  0  0  0  0  0  0  0  0
   20.4319   -8.0369  -15.2073 C   0  0  1  0  0  0  0  0  0  0  0  0
   21.1399   -8.1584  -13.8691 C   0  0  0  0  0  0  0  0  0  0  0  0
   19.9984   -8.3636  -12.5019 S   0  0  0  0  0  0  0  0  0  0  0  0
   20.8438   -6.7055  -15.7796 C   0  0  0  0  0  0  0  0  0  0  0  0
   21.9426   -6.5735  -16.3789 O   0  0  0  0  0  0  0  0  0  0  0  0
   20.8054   -4.1991  -20.1009 C   0  0  0  0  0  0  0  0  0  0  0  0
   20.7653   -3.4720  -18.7171 C   0  0  1  0  0  0  0  0  0  0  0  0
   19.6512   -2.4418  -18.8951 C   0  0  0  0  0  0  0  0  0  0  0  0
   20.3870   -4.5315  -17.7566 C   0  0  0  0  0  0  0  0  0  0  0  0
   20.4287   -4.2761  -16.3002 C   0  0  2  0  0  0  0  0  0  0  0  0
   20.0122   -5.5677  -15.6618 N   0  0  0  0  0  0  0  0  0  0  0  0
   19.5148   -3.2325  -15.8362 C   0  0  0  0  0  0  0  0  0  0  0  0
   18.2168   -3.6182  -15.4366 O   0  0  0  0  0  0  0  0  0  0  0  0
   19.7464   -2.0092  -15.7474 O   0  0  0  0  0  0  0  0  0  0  0  0
  2  3  1  0
  2  1  1  1
  4  2  1  0
  5  4  2  0
  6  4  1  0
  7 10  1  0
  7  6  1  0
  7  8  1  1
  9  8  1  0
 10 11  2  0
 13 12  1  6
 13 14  1  0
 15 13  1  0
 16 15  1  6
 17 16  1  0
 17 10  1  0
 18 16  1  0
 19 18  1  0
 20 18  2  0
M  END
$$$$
