EWC.pdb
     RDKit          3D

 30 31  0  0  1  0  0  0  0  0999 V2000
   28.6444  -23.3434  -17.5630 N   0  0  0  0  0  0  0  0  0  0  0  0
   27.2656  -23.6624  -17.9237 C   0  0  1  0  0  0  0  0  0  0  0  0
   27.2919  -25.1223  -18.3705 C   0  0  0  0  0  0  0  0  0  0  0  0
   28.1471  -25.1515  -19.6320 C   0  0  0  0  0  0  0  0  0  0  0  0
   27.3218  -24.7962  -20.8144 C   0  0  0  0  0  0  0  0  0  0  0  0
   26.6636  -25.6528  -21.4571 O   0  0  0  0  0  0  0  0  0  0  0  0
   26.3917  -23.4800  -16.7370 C   0  0  0  0  0  0  0  0  0  0  0  0
   25.2338  -23.9548  -16.7314 O   0  0  0  0  0  0  0  0  0  0  0  0
   27.2728  -23.4780  -21.2257 O   0  0  0  0  0  0  0  0  0  0  0  0
   26.8601  -22.7778  -15.6241 N   0  0  0  0  0  0  0  0  0  0  0  0
   26.0663  -22.5420  -14.4041 C   0  0  1  0  0  0  0  0  0  0  0  0
   27.0048  -22.1052  -13.3417 C   0  0  0  0  0  0  0  0  0  0  0  0
   26.3923  -21.6887  -12.0661 C   0  0  0  0  0  0  0  0  0  0  0  0
   25.6710  -22.4462  -11.1464 C   0  0  0  0  0  0  0  0  0  0  0  0
   25.2723  -21.6790  -10.1173 N   0  0  0  0  0  0  0  0  0  0  0  0
   25.7019  -20.4197  -10.3102 C   0  0  0  0  0  0  0  0  0  0  0  0
   25.5568  -19.2773   -9.5562 C   0  0  0  0  0  0  0  0  0  0  0  0
   26.1223  -18.1140  -10.0267 C   0  0  0  0  0  0  0  0  0  0  0  0
   26.8176  -18.0910  -11.2239 C   0  0  0  0  0  0  0  0  0  0  0  0
   26.9530  -19.2443  -11.9658 C   0  0  0  0  0  0  0  0  0  0  0  0
   26.3988  -20.4092  -11.5157 C   0  0  0  0  0  0  0  0  0  0  0  0
   24.9714  -21.6527  -14.7514 C   0  0  0  0  0  0  0  0  0  0  0  0
   25.2366  -20.5924  -15.4192 O   0  0  0  0  0  0  0  0  0  0  0  0
   23.6129  -21.8322  -14.4285 N   0  0  0  0  0  0  0  0  0  0  0  0
   22.6636  -20.7943  -14.6640 C   0  0  1  0  0  0  0  0  0  0  0  0
   21.4958  -21.2314  -15.5175 C   0  0  0  0  0  0  0  0  0  0  0  0
   22.2045  -21.9219  -17.0542 S   0  0  0  0  0  0  0  0  0  0  0  0
   22.0906  -20.3510  -13.3654 C   0  0  0  0  0  0  0  0  0  0  0  0
   21.2785  -19.2043  -13.3298 O   0  0  0  0  0  0  0  0  0  0  0  0
   22.2790  -20.9313  -12.2796 O   0  0  0  0  0  0  0  0  0  0  0  0
  2  1  1  1
  2  7  1  0
  3  2  1  0
  3  4  1  0
  4  5  1  0
  5  6  2  0
  7  8  2  0
  9  5  1  0
 10 11  1  0
 10  7  1  0
 12 13  1  0
 11 12  1  1
 13 14  2  0
 15 14  1  0
 16 15  1  0
 17 16  2  0
 18 17  1  0
 19 20  1  0
 19 18  2  0
 20 21  2  0
 21 16  1  0
 21 13  1  0
 22 11  1  0
 22 24  1  0
 23 22  2  0
 25 24  1  0
 25 26  1  6
 27 26  1  0
 28 25  1  0
 29 28  1  0
 30 28  2  0
M  END
$$$$
