EWC.pdb
     RDKit          3D

 30 31  0  0  1  0  0  0  0  0999 V2000
   27.3833  -24.4455  -15.9313 N   0  0  0  0  0  0  0  0  0  0  0  0
   26.5310  -23.4005  -16.4920 C   0  0  1  0  0  0  0  0  0  0  0  0
   25.9018  -24.0175  -17.7389 C   0  0  0  0  0  0  0  0  0  0  0  0
   26.1459  -25.5177  -17.6240 C   0  0  0  0  0  0  0  0  0  0  0  0
   24.8525  -26.2344  -17.4857 C   0  0  0  0  0  0  0  0  0  0  0  0
   24.5348  -26.8526  -16.4384 O   0  0  0  0  0  0  0  0  0  0  0  0
   25.4943  -23.0246  -15.4974 C   0  0  0  0  0  0  0  0  0  0  0  0
   25.0915  -23.8653  -14.6625 O   0  0  0  0  0  0  0  0  0  0  0  0
   23.9639  -26.2234  -18.5437 O   0  0  0  0  0  0  0  0  0  0  0  0
   24.9662  -21.7314  -15.4916 N   0  0  0  0  0  0  0  0  0  0  0  0
   24.0708  -21.2114  -14.4418 C   0  0  1  0  0  0  0  0  0  0  0  0
   24.6983  -19.9855  -13.8909 C   0  0  0  0  0  0  0  0  0  0  0  0
   25.5684  -20.1744  -12.7149 C   0  0  0  0  0  0  0  0  0  0  0  0
   26.9558  -20.2806  -12.6536 C   0  0  0  0  0  0  0  0  0  0  0  0
   27.3565  -20.4618  -11.3835 N   0  0  0  0  0  0  0  0  0  0  0  0
   26.2805  -20.4820  -10.5775 C   0  0  0  0  0  0  0  0  0  0  0  0
   26.1601  -20.6370   -9.2151 C   0  0  0  0  0  0  0  0  0  0  0  0
   24.8968  -20.6123   -8.6692 C   0  0  0  0  0  0  0  0  0  0  0  0
   23.7778  -20.4370   -9.4656 C   0  0  0  0  0  0  0  0  0  0  0  0
   23.9171  -20.2834  -10.8279 C   0  0  0  0  0  0  0  0  0  0  0  0
   25.1627  -20.3049  -11.3888 C   0  0  0  0  0  0  0  0  0  0  0  0
   22.7391  -21.0965  -15.0106 C   0  0  0  0  0  0  0  0  0  0  0  0
   22.6008  -20.4595  -16.1132 O   0  0  0  0  0  0  0  0  0  0  0  0
   21.5503  -21.6235  -14.4710 N   0  0  0  0  0  0  0  0  0  0  0  0
   20.3150  -21.5059  -15.1738 C   0  0  1  0  0  0  0  0  0  0  0  0
   19.4446  -22.7365  -15.0678 C   0  0  0  0  0  0  0  0  0  0  0  0
   20.4913  -24.1564  -15.5461 S   0  0  0  0  0  0  0  0  0  0  0  0
   19.5275  -20.3848  -14.5956 C   0  0  0  0  0  0  0  0  0  0  0  0
   18.2757  -20.0681  -15.1507 O   0  0  0  0  0  0  0  0  0  0  0  0
   19.9003  -19.6871  -13.6335 O   0  0  0  0  0  0  0  0  0  0  0  0
  2  1  1  1
  2  7  1  0
  3  2  1  0
  3  4  1  0
  4  5  1  0
  5  6  2  0
  7  8  2  0
  9  5  1  0
 10 11  1  0
 10  7  1  0
 12 13  1  0
 11 12  1  6
 13 14  2  0
 15 14  1  0
 16 15  1  0
 17 16  2  0
 18 17  1  0
 19 20  1  0
 19 18  2  0
 20 21  2  0
 21 16  1  0
 21 13  1  0
 22 11  1  0
 22 24  1  0
 23 22  2  0
 25 24  1  0
 25 26  1  1
 27 26  1  0
 28 25  1  0
 29 28  1  0
 30 28  2  0
M  END
$$$$
