EWC.pdb
     RDKit          3D

 30 31  0  0  1  0  0  0  0  0999 V2000
   27.1773  -22.5260  -13.8190 N   0  0  0  0  0  0  0  0  0  0  0  0
   26.1888  -21.5206  -13.4386 C   0  0  1  0  0  0  0  0  0  0  0  0
   25.0291  -21.7039  -14.4148 C   0  0  0  0  0  0  0  0  0  0  0  0
   25.5327  -21.1815  -15.7552 C   0  0  0  0  0  0  0  0  0  0  0  0
   25.8550  -19.7357  -15.6491 C   0  0  0  0  0  0  0  0  0  0  0  0
   24.9693  -18.8597  -15.4809 O   0  0  0  0  0  0  0  0  0  0  0  0
   25.7553  -21.7615  -12.0388 C   0  0  0  0  0  0  0  0  0  0  0  0
   25.5325  -22.9275  -11.6427 O   0  0  0  0  0  0  0  0  0  0  0  0
   27.1743  -19.3350  -15.7377 O   0  0  0  0  0  0  0  0  0  0  0  0
   25.5954  -20.6869  -11.1609 N   0  0  0  0  0  0  0  0  0  0  0  0
   25.1930  -20.8285   -9.7494 C   0  0  1  0  0  0  0  0  0  0  0  0
   25.8962  -19.7734   -8.9796 C   0  0  0  0  0  0  0  0  0  0  0  0
   27.2613  -20.1012   -8.5272 C   0  0  0  0  0  0  0  0  0  0  0  0
   28.3214  -20.6458   -9.2480 C   0  0  0  0  0  0  0  0  0  0  0  0
   29.3955  -20.8029   -8.4555 N   0  0  0  0  0  0  0  0  0  0  0  0
   29.0969  -20.3804   -7.2146 C   0  0  0  0  0  0  0  0  0  0  0  0
   29.8437  -20.3327   -6.0593 C   0  0  0  0  0  0  0  0  0  0  0  0
   29.2476  -19.8365   -4.9222 C   0  0  0  0  0  0  0  0  0  0  0  0
   27.9345  -19.3975   -4.9376 C   0  0  0  0  0  0  0  0  0  0  0  0
   27.2017  -19.4526   -6.1033 C   0  0  0  0  0  0  0  0  0  0  0  0
   27.7756  -19.9418   -7.2425 C   0  0  0  0  0  0  0  0  0  0  0  0
   23.7414  -20.8515   -9.7014 C   0  0  0  0  0  0  0  0  0  0  0  0
   23.0930  -20.1292  -10.5372 O   0  0  0  0  0  0  0  0  0  0  0  0
   22.9450  -21.6015   -8.8151 N   0  0  0  0  0  0  0  0  0  0  0  0
   21.5255  -21.6229   -8.9495 C   0  0  1  0  0  0  0  0  0  0  0  0
   20.8381  -22.4892   -7.9198 C   0  0  0  0  0  0  0  0  0  0  0  0
   19.0562  -22.4645   -8.3255 S   0  0  0  0  0  0  0  0  0  0  0  0
   20.9950  -20.2466   -8.7605 C   0  0  0  0  0  0  0  0  0  0  0  0
   19.9520  -19.7941   -9.5868 O   0  0  0  0  0  0  0  0  0  0  0  0
   21.4135  -19.4436   -7.9053 O   0  0  0  0  0  0  0  0  0  0  0  0
  2  1  1  6
  2  7  1  0
  3  2  1  0
  3  4  1  0
  4  5  1  0
  5  6  2  0
  7  8  2  0
  9  5  1  0
 10 11  1  0
 10  7  1  0
 12 13  1  0
 11 12  1  1
 13 14  2  0
 15 14  1  0
 16 15  1  0
 17 16  2  0
 18 17  1  0
 19 20  1  0
 19 18  2  0
 20 21  2  0
 21 16  1  0
 21 13  1  0
 22 11  1  0
 22 24  1  0
 23 22  2  0
 25 24  1  0
 25 26  1  1
 27 26  1  0
 28 25  1  0
 29 28  1  0
 30 28  2  0
M  END
$$$$
