EWC.pdb
     RDKit          3D

 30 31  0  0  1  0  0  0  0  0999 V2000
   30.6804  -37.4673   -7.7880 N   0  0  0  0  0  0  0  0  0  0  0  0
   29.4694  -37.9832   -7.1553 C   0  0  1  0  0  0  0  0  0  0  0  0
   29.9451  -39.0814   -6.2070 C   0  0  0  0  0  0  0  0  0  0  0  0
   30.2270  -40.2928   -7.0881 C   0  0  0  0  0  0  0  0  0  0  0  0
   28.9775  -41.0654   -7.3058 C   0  0  0  0  0  0  0  0  0  0  0  0
   28.7558  -41.7004   -8.3677 O   0  0  0  0  0  0  0  0  0  0  0  0
   28.7966  -36.8871   -6.4130 C   0  0  0  0  0  0  0  0  0  0  0  0
   29.4764  -36.0473   -5.7815 O   0  0  0  0  0  0  0  0  0  0  0  0
   28.0223  -41.0899   -6.3077 O   0  0  0  0  0  0  0  0  0  0  0  0
   27.4032  -36.7909   -6.4179 N   0  0  0  0  0  0  0  0  0  0  0  0
   26.6446  -35.7720   -5.6691 C   0  0  1  0  0  0  0  0  0  0  0  0
   25.5760  -35.2670   -6.5654 C   0  0  0  0  0  0  0  0  0  0  0  0
   26.0023  -34.3231   -7.6156 C   0  0  0  0  0  0  0  0  0  0  0  0
   27.0279  -34.4489   -8.5496 C   0  0  0  0  0  0  0  0  0  0  0  0
   27.0959  -33.3511   -9.3220 N   0  0  0  0  0  0  0  0  0  0  0  0
   26.1451  -32.4805   -8.9402 C   0  0  0  0  0  0  0  0  0  0  0  0
   25.8066  -31.2311   -9.4082 C   0  0  0  0  0  0  0  0  0  0  0  0
   24.7631  -30.5717   -8.7994 C   0  0  0  0  0  0  0  0  0  0  0  0
   24.0721  -31.1466   -7.7463 C   0  0  0  0  0  0  0  0  0  0  0  0
   24.4246  -32.3984   -7.2907 C   0  0  0  0  0  0  0  0  0  0  0  0
   25.4576  -33.0691   -7.8819 C   0  0  0  0  0  0  0  0  0  0  0  0
   26.2472  -36.3573   -4.4004 C   0  0  0  0  0  0  0  0  0  0  0  0
   25.4577  -37.3658   -4.4157 O   0  0  0  0  0  0  0  0  0  0  0  0
   26.6458  -35.9291   -3.1198 N   0  0  0  0  0  0  0  0  0  0  0  0
   26.2422  -36.6430   -1.9532 C   0  0  1  0  0  0  0  0  0  0  0  0
   27.3226  -36.7329   -0.9007 C   0  0  0  0  0  0  0  0  0  0  0  0
   28.0668  -35.0683   -0.7759 S   0  0  0  0  0  0  0  0  0  0  0  0
   25.0972  -35.9373   -1.3189 C   0  0  0  0  0  0  0  0  0  0  0  0
   24.4177  -36.5524   -0.2533 O   0  0  0  0  0  0  0  0  0  0  0  0
   24.6832  -34.8155   -1.6672 O   0  0  0  0  0  0  0  0  0  0  0  0
  2  1  1  1
  2  7  1  0
  3  2  1  0
  3  4  1  0
  4  5  1  0
  5  6  2  0
  7  8  2  0
  9  5  1  0
 10 11  1  0
 10  7  1  0
 12 13  1  0
 11 12  1  6
 13 14  2  0
 15 14  1  0
 16 15  1  0
 17 16  2  0
 18 17  1  0
 19 20  1  0
 19 18  2  0
 20 21  2  0
 21 16  1  0
 21 13  1  0
 22 11  1  0
 22 24  1  0
 23 22  2  0
 25 24  1  0
 25 26  1  1
 27 26  1  0
 28 25  1  0
 29 28  1  0
 30 28  2  0
M  END
$$$$
