EWC.pdb
     RDKit          3D

 30 31  0  0  1  0  0  0  0  0999 V2000
   25.7613  -24.2346  -15.6704 N   0  0  0  0  0  0  0  0  0  0  0  0
   24.7667  -23.2128  -15.9861 C   0  0  1  0  0  0  0  0  0  0  0  0
   24.0405  -23.7253  -17.2277 C   0  0  0  0  0  0  0  0  0  0  0  0
   25.1095  -23.8523  -18.3069 C   0  0  0  0  0  0  0  0  0  0  0  0
   24.8996  -25.0987  -19.0866 C   0  0  0  0  0  0  0  0  0  0  0  0
   23.9316  -25.8713  -18.8721 O   0  0  0  0  0  0  0  0  0  0  0  0
   23.8329  -23.0645  -14.8410 C   0  0  0  0  0  0  0  0  0  0  0  0
   23.7211  -23.9838  -13.9993 O   0  0  0  0  0  0  0  0  0  0  0  0
   25.7982  -25.4241  -20.0846 O   0  0  0  0  0  0  0  0  0  0  0  0
   23.0772  -21.8981  -14.7007 N   0  0  0  0  0  0  0  0  0  0  0  0
   22.2384  -21.5957  -13.5263 C   0  0  1  0  0  0  0  0  0  0  0  0
   22.6812  -20.2853  -12.9906 C   0  0  0  0  0  0  0  0  0  0  0  0
   23.9560  -20.2850  -12.2486 C   0  0  0  0  0  0  0  0  0  0  0  0
   25.2518  -20.0968  -12.7236 C   0  0  0  0  0  0  0  0  0  0  0  0
   26.1379  -20.1877  -11.7171 N   0  0  0  0  0  0  0  0  0  0  0  0
   25.4819  -20.4326  -10.5693 C   0  0  0  0  0  0  0  0  0  0  0  0
   25.9284  -20.6073   -9.2790 C   0  0  0  0  0  0  0  0  0  0  0  0
   24.9946  -20.8482   -8.2970 C   0  0  0  0  0  0  0  0  0  0  0  0
   23.6442  -20.9134   -8.5960 C   0  0  0  0  0  0  0  0  0  0  0  0
   23.2150  -20.7361   -9.8934 C   0  0  0  0  0  0  0  0  0  0  0  0
   24.1266  -20.4959  -10.8823 C   0  0  0  0  0  0  0  0  0  0  0  0
   20.8485  -21.7319  -13.9261 C   0  0  0  0  0  0  0  0  0  0  0  0
   20.4787  -21.2037  -15.0329 O   0  0  0  0  0  0  0  0  0  0  0  0
   19.8344  -22.4000  -13.2138 N   0  0  0  0  0  0  0  0  0  0  0  0
   18.5249  -22.5344  -13.7621 C   0  0  1  0  0  0  0  0  0  0  0  0
   18.0244  -23.9601  -13.7782 C   0  0  0  0  0  0  0  0  0  0  0  0
   18.5519  -24.7143  -12.1992 S   0  0  0  0  0  0  0  0  0  0  0  0
   17.5641  -21.7625  -12.9300 C   0  0  0  0  0  0  0  0  0  0  0  0
   16.2125  -21.7113  -13.3124 O   0  0  0  0  0  0  0  0  0  0  0  0
   17.8716  -21.1424  -11.8946 O   0  0  0  0  0  0  0  0  0  0  0  0
  2  1  1  1
  2  7  1  0
  3  2  1  0
  3  4  1  0
  4  5  1  0
  5  6  2  0
  7  8  2  0
  9  5  1  0
 10 11  1  0
 10  7  1  0
 12 13  1  0
 11 12  1  6
 13 14  2  0
 15 14  1  0
 16 15  1  0
 17 16  2  0
 18 17  1  0
 19 20  1  0
 19 18  2  0
 20 21  2  0
 21 16  1  0
 21 13  1  0
 22 11  1  0
 22 24  1  0
 23 22  2  0
 25 24  1  0
 25 26  1  1
 27 26  1  0
 28 25  1  0
 29 28  1  0
 30 28  2  0
M  END
$$$$
