EWC.pdb
     RDKit          3D

 30 31  0  0  1  0  0  0  0  0999 V2000
   27.4828  -24.7514  -16.3460 N   0  0  0  0  0  0  0  0  0  0  0  0
   26.9333  -23.3987  -16.3814 C   0  0  1  0  0  0  0  0  0  0  0  0
   25.9050  -23.4094  -17.5101 C   0  0  0  0  0  0  0  0  0  0  0  0
   26.6935  -23.1481  -18.7881 C   0  0  0  0  0  0  0  0  0  0  0  0
   27.1577  -21.7377  -18.8200 C   0  0  0  0  0  0  0  0  0  0  0  0
   26.3715  -20.7675  -18.6770 O   0  0  0  0  0  0  0  0  0  0  0  0
   26.2946  -23.0926  -15.0762 C   0  0  0  0  0  0  0  0  0  0  0  0
   25.7769  -24.0099  -14.4004 O   0  0  0  0  0  0  0  0  0  0  0  0
   28.5010  -21.4787  -19.0133 O   0  0  0  0  0  0  0  0  0  0  0  0
   26.2705  -21.7798  -14.5996 N   0  0  0  0  0  0  0  0  0  0  0  0
   25.6812  -21.3826  -13.3076 C   0  0  1  0  0  0  0  0  0  0  0  0
   26.4807  -20.2475  -12.7857 C   0  0  0  0  0  0  0  0  0  0  0  0
   27.4685  -20.5760  -11.7407 C   0  0  0  0  0  0  0  0  0  0  0  0
   28.8110  -20.9220  -11.8750 C   0  0  0  0  0  0  0  0  0  0  0  0
   29.3565  -21.1605  -10.6700 N   0  0  0  0  0  0  0  0  0  0  0  0
   28.4230  -20.9865   -9.7182 C   0  0  0  0  0  0  0  0  0  0  0  0
   28.4789  -21.1075   -8.3481 C   0  0  0  0  0  0  0  0  0  0  0  0
   27.3324  -20.8588   -7.6283 C   0  0  0  0  0  0  0  0  0  0  0  0
   26.1555  -20.4972   -8.2617 C   0  0  0  0  0  0  0  0  0  0  0  0
   26.1178  -20.3809   -9.6343 C   0  0  0  0  0  0  0  0  0  0  0  0
   27.2454  -20.6236  -10.3666 C   0  0  0  0  0  0  0  0  0  0  0  0
   24.2584  -21.1738  -13.5137 C   0  0  0  0  0  0  0  0  0  0  0  0
   23.8871  -20.4278  -14.4865 O   0  0  0  0  0  0  0  0  0  0  0  0
   23.2126  -21.7166  -12.7431 N   0  0  0  0  0  0  0  0  0  0  0  0
   21.8553  -21.3666  -13.0054 C   0  0  1  0  0  0  0  0  0  0  0  0
   20.8591  -22.2403  -12.2793 C   0  0  0  0  0  0  0  0  0  0  0  0
   19.1990  -21.6342  -12.7453 S   0  0  0  0  0  0  0  0  0  0  0  0
   21.6097  -19.9756  -12.5405 C   0  0  0  0  0  0  0  0  0  0  0  0
   20.8854  -19.0954  -13.3628 O   0  0  0  0  0  0  0  0  0  0  0  0
   22.0058  -19.5185  -11.4517 O   0  0  0  0  0  0  0  0  0  0  0  0
  2  1  1  1
  2  7  1  0
  3  2  1  0
  3  4  1  0
  4  5  1  0
  5  6  2  0
  7  8  2  0
  9  5  1  0
 10 11  1  0
 10  7  1  0
 12 13  1  0
 11 12  1  6
 13 14  2  0
 15 14  1  0
 16 15  1  0
 17 16  2  0
 18 17  1  0
 19 20  1  0
 19 18  2  0
 20 21  2  0
 21 16  1  0
 21 13  1  0
 22 11  1  0
 22 24  1  0
 23 22  2  0
 25 24  1  0
 25 26  1  1
 27 26  1  0
 28 25  1  0
 29 28  1  0
 30 28  2  0
M  END
$$$$
