EWC.pdb
     RDKit          3D

 30 31  0  0  1  0  0  0  0  0999 V2000
   28.1455  -20.8852  -17.3152 N   0  0  0  0  0  0  0  0  0  0  0  0
   27.4961  -22.1928  -17.2773 C   0  0  1  0  0  0  0  0  0  0  0  0
   28.6012  -23.2020  -17.5804 C   0  0  0  0  0  0  0  0  0  0  0  0
   28.9628  -22.9890  -19.0458 C   0  0  0  0  0  0  0  0  0  0  0  0
   30.2924  -22.3360  -19.1519 C   0  0  0  0  0  0  0  0  0  0  0  0
   31.3087  -22.7794  -18.5598 O   0  0  0  0  0  0  0  0  0  0  0  0
   26.9198  -22.4172  -15.9273 C   0  0  0  0  0  0  0  0  0  0  0  0
   26.4146  -23.5247  -15.6367 O   0  0  0  0  0  0  0  0  0  0  0  0
   30.4211  -21.2004  -19.9284 O   0  0  0  0  0  0  0  0  0  0  0  0
   26.9403  -21.3924  -14.9784 N   0  0  0  0  0  0  0  0  0  0  0  0
   26.4147  -21.5278  -13.6073 C   0  0  1  0  0  0  0  0  0  0  0  0
   27.1507  -20.5642  -12.7529 C   0  0  0  0  0  0  0  0  0  0  0  0
   26.6365  -20.3887  -11.3816 C   0  0  0  0  0  0  0  0  0  0  0  0
   25.3487  -20.0695  -10.9577 C   0  0  0  0  0  0  0  0  0  0  0  0
   25.3030  -19.9889   -9.6169 N   0  0  0  0  0  0  0  0  0  0  0  0
   26.5239  -20.2444   -9.1152 C   0  0  0  0  0  0  0  0  0  0  0  0
   26.9919  -20.2851   -7.8213 C   0  0  0  0  0  0  0  0  0  0  0  0
   28.3210  -20.5815   -7.6219 C   0  0  0  0  0  0  0  0  0  0  0  0
   29.1652  -20.8320   -8.6904 C   0  0  0  0  0  0  0  0  0  0  0  0
   28.6796  -20.7870   -9.9792 C   0  0  0  0  0  0  0  0  0  0  0  0
   27.3631  -20.4945  -10.1979 C   0  0  0  0  0  0  0  0  0  0  0  0
   24.9682  -21.4114  -13.6725 C   0  0  0  0  0  0  0  0  0  0  0  0
   24.4651  -20.4267  -14.3191 O   0  0  0  0  0  0  0  0  0  0  0  0
   24.0311  -22.2855  -13.0896 N   0  0  0  0  0  0  0  0  0  0  0  0
   22.6580  -22.2439  -13.4724 C   0  0  1  0  0  0  0  0  0  0  0  0
   21.9820  -23.5947  -13.4304 C   0  0  0  0  0  0  0  0  0  0  0  0
   20.1846  -23.2744  -13.3477 S   0  0  0  0  0  0  0  0  0  0  0  0
   21.9120  -21.3727  -12.5259 C   0  0  0  0  0  0  0  0  0  0  0  0
   22.4295  -21.1595  -11.2367 O   0  0  0  0  0  0  0  0  0  0  0  0
   20.8373  -20.8028  -12.7936 O   0  0  0  0  0  0  0  0  0  0  0  0
  2  1  1  1
  2  7  1  0
  3  2  1  0
  3  4  1  0
  4  5  1  0
  5  6  2  0
  7  8  2  0
  9  5  1  0
 10 11  1  0
 10  7  1  0
 12 13  1  0
 11 12  1  1
 13 14  2  0
 15 14  1  0
 16 15  1  0
 17 16  2  0
 18 17  1  0
 19 20  1  0
 19 18  2  0
 20 21  2  0
 21 16  1  0
 21 13  1  0
 22 11  1  0
 22 24  1  0
 23 22  2  0
 25 24  1  0
 25 26  1  1
 27 26  1  0
 28 25  1  0
 29 28  1  0
 30 28  2  0
M  END
$$$$
