EWC.pdb
     RDKit          3D

 30 31  0  0  1  0  0  0  0  0999 V2000
   29.0901  -31.6686  -16.0277 N   0  0  0  0  0  0  0  0  0  0  0  0
   27.8837  -32.2810  -16.5775 C   0  0  1  0  0  0  0  0  0  0  0  0
   28.1657  -33.7815  -16.5993 C   0  0  0  0  0  0  0  0  0  0  0  0
   28.6644  -34.0864  -18.0070 C   0  0  0  0  0  0  0  0  0  0  0  0
   29.5446  -35.2824  -17.9869 C   0  0  0  0  0  0  0  0  0  0  0  0
   29.7896  -35.9196  -16.9315 O   0  0  0  0  0  0  0  0  0  0  0  0
   26.7276  -31.9647  -15.7007 C   0  0  0  0  0  0  0  0  0  0  0  0
   26.9152  -31.4422  -14.5791 O   0  0  0  0  0  0  0  0  0  0  0  0
   30.1164  -35.7135  -19.1686 O   0  0  0  0  0  0  0  0  0  0  0  0
   25.4280  -32.2496  -16.1260 N   0  0  0  0  0  0  0  0  0  0  0  0
   24.2180  -31.9425  -15.3414 C   0  0  1  0  0  0  0  0  0  0  0  0
   23.1687  -31.5083  -16.2957 C   0  0  0  0  0  0  0  0  0  0  0  0
   23.3222  -30.1525  -16.8559 C   0  0  0  0  0  0  0  0  0  0  0  0
   24.4744  -29.5077  -17.2994 C   0  0  0  0  0  0  0  0  0  0  0  0
   24.1830  -28.2663  -17.7242 N   0  0  0  0  0  0  0  0  0  0  0  0
   22.8641  -28.0472  -17.5827 C   0  0  0  0  0  0  0  0  0  0  0  0
   22.0823  -26.9509  -17.8685 C   0  0  0  0  0  0  0  0  0  0  0  0
   20.7333  -27.0311  -17.6076 C   0  0  0  0  0  0  0  0  0  0  0  0
   20.1762  -28.1804  -17.0728 C   0  0  0  0  0  0  0  0  0  0  0  0
   20.9740  -29.2685  -16.7928 C   0  0  0  0  0  0  0  0  0  0  0  0
   22.3155  -29.2085  -17.0448 C   0  0  0  0  0  0  0  0  0  0  0  0
   23.9346  -33.0886  -14.4949 C   0  0  0  0  0  0  0  0  0  0  0  0
   23.6848  -34.2128  -15.0558 O   0  0  0  0  0  0  0  0  0  0  0  0
   23.9049  -33.1026  -13.0875 N   0  0  0  0  0  0  0  0  0  0  0  0
   23.6664  -34.3145  -12.3746 C   0  0  1  0  0  0  0  0  0  0  0  0
   24.3892  -34.3836  -11.0495 C   0  0  0  0  0  0  0  0  0  0  0  0
   26.1265  -33.9221  -11.3801 S   0  0  0  0  0  0  0  0  0  0  0  0
   22.2157  -34.4240  -12.0667 C   0  0  0  0  0  0  0  0  0  0  0  0
   21.3769  -33.3239  -12.3150 O   0  0  0  0  0  0  0  0  0  0  0  0
   21.6725  -35.4403  -11.5940 O   0  0  0  0  0  0  0  0  0  0  0  0
  2  1  1  1
  2  7  1  0
  3  2  1  0
  3  4  1  0
  4  5  1  0
  5  6  2  0
  7  8  2  0
  9  5  1  0
 10 11  1  0
 10  7  1  0
 12 13  1  0
 11 12  1  6
 13 14  2  0
 15 14  1  0
 16 15  1  0
 17 16  2  0
 18 17  1  0
 19 20  1  0
 19 18  2  0
 20 21  2  0
 21 16  1  0
 21 13  1  0
 22 11  1  0
 22 24  1  0
 23 22  2  0
 25 24  1  0
 25 26  1  1
 27 26  1  0
 28 25  1  0
 29 28  1  0
 30 28  2  0
M  END
$$$$
