EWC.pdb
     RDKit          3D

 30 31  0  0  1  0  0  0  0  0999 V2000
   27.8081  -21.7256  -15.2329 N   0  0  0  0  0  0  0  0  0  0  0  0
   27.9630  -20.7201  -14.1851 C   0  0  1  0  0  0  0  0  0  0  0  0
   27.4316  -19.4220  -14.7885 C   0  0  0  0  0  0  0  0  0  0  0  0
   28.4475  -19.0149  -15.8495 C   0  0  0  0  0  0  0  0  0  0  0  0
   27.9859  -17.7912  -16.5529 C   0  0  0  0  0  0  0  0  0  0  0  0
   26.8835  -17.2439  -16.2973 O   0  0  0  0  0  0  0  0  0  0  0  0
   27.1706  -21.1229  -12.9955 C   0  0  0  0  0  0  0  0  0  0  0  0
   26.1266  -21.7984  -13.1362 O   0  0  0  0  0  0  0  0  0  0  0  0
   28.7941  -17.2309  -17.5234 O   0  0  0  0  0  0  0  0  0  0  0  0
   27.5890  -20.7486  -11.7165 N   0  0  0  0  0  0  0  0  0  0  0  0
   26.7943  -20.9640  -10.4932 C   0  0  1  0  0  0  0  0  0  0  0  0
   27.6806  -20.6936   -9.3350 C   0  0  0  0  0  0  0  0  0  0  0  0
   27.0254  -20.6431   -8.0145 C   0  0  0  0  0  0  0  0  0  0  0  0
   25.7087  -20.9420   -7.6723 C   0  0  0  0  0  0  0  0  0  0  0  0
   25.5114  -20.7512   -6.3566 N   0  0  0  0  0  0  0  0  0  0  0  0
   26.6570  -20.3305   -5.7926 C   0  0  0  0  0  0  0  0  0  0  0  0
   26.9711  -20.0022   -4.4933 C   0  0  0  0  0  0  0  0  0  0  0  0
   28.2579  -19.5970   -4.2201 C   0  0  0  0  0  0  0  0  0  0  0  0
   29.2108  -19.5212   -5.2218 C   0  0  0  0  0  0  0  0  0  0  0  0
   28.8786  -19.8537   -6.5172 C   0  0  0  0  0  0  0  0  0  0  0  0
   27.6066  -20.2582   -6.8085 C   0  0  0  0  0  0  0  0  0  0  0  0
   25.5748  -20.1838  -10.6125 C   0  0  0  0  0  0  0  0  0  0  0  0
   25.6682  -18.9603  -10.9800 O   0  0  0  0  0  0  0  0  0  0  0  0
   24.2646  -20.6354  -10.3643 N   0  0  0  0  0  0  0  0  0  0  0  0
   23.1771  -20.2033  -11.1792 C   0  0  1  0  0  0  0  0  0  0  0  0
   23.1374  -20.8745  -12.5324 C   0  0  0  0  0  0  0  0  0  0  0  0
   21.6562  -20.2315  -13.3885 S   0  0  0  0  0  0  0  0  0  0  0  0
   21.8955  -20.5424  -10.5056 C   0  0  0  0  0  0  0  0  0  0  0  0
   21.6542  -21.8723  -10.1201 O   0  0  0  0  0  0  0  0  0  0  0  0
   20.9967  -19.7189  -10.2499 O   0  0  0  0  0  0  0  0  0  0  0  0
  2  1  1  6
  2  7  1  0
  3  2  1  0
  3  4  1  0
  4  5  1  0
  5  6  2  0
  7  8  2  0
  9  5  1  0
 10 11  1  0
 10  7  1  0
 12 13  1  0
 11 12  1  1
 13 14  2  0
 15 14  1  0
 16 15  1  0
 17 16  2  0
 18 17  1  0
 19 20  1  0
 19 18  2  0
 20 21  2  0
 21 16  1  0
 21 13  1  0
 22 11  1  0
 22 24  1  0
 23 22  2  0
 25 24  1  0
 25 26  1  6
 27 26  1  0
 28 25  1  0
 29 28  1  0
 30 28  2  0
M  END
$$$$
