EWC.pdb
     RDKit          3D

 30 31  0  0  1  0  0  0  0  0999 V2000
   28.3184  -21.0727  -15.1310 N   0  0  0  0  0  0  0  0  0  0  0  0
   28.1104  -20.0453  -14.1141 C   0  0  1  0  0  0  0  0  0  0  0  0
   27.3403  -18.9301  -14.8176 C   0  0  0  0  0  0  0  0  0  0  0  0
   28.3563  -18.2287  -15.7116 C   0  0  0  0  0  0  0  0  0  0  0  0
   27.9789  -18.3950  -17.1383 C   0  0  0  0  0  0  0  0  0  0  0  0
   26.7844  -18.3525  -17.5274 O   0  0  0  0  0  0  0  0  0  0  0  0
   27.3230  -20.6160  -12.9918 C   0  0  0  0  0  0  0  0  0  0  0  0
   26.4572  -21.4917  -13.2142 O   0  0  0  0  0  0  0  0  0  0  0  0
   28.9733  -18.6038  -18.0745 O   0  0  0  0  0  0  0  0  0  0  0  0
   27.5472  -20.1765  -11.6850 N   0  0  0  0  0  0  0  0  0  0  0  0
   26.7976  -20.6623  -10.5119 C   0  0  1  0  0  0  0  0  0  0  0  0
   27.4864  -20.1504   -9.3021 C   0  0  0  0  0  0  0  0  0  0  0  0
   26.8443  -20.4588   -8.0105 C   0  0  0  0  0  0  0  0  0  0  0  0
   25.6285  -21.0904   -7.7596 C   0  0  0  0  0  0  0  0  0  0  0  0
   25.4018  -21.1626   -6.4368 N   0  0  0  0  0  0  0  0  0  0  0  0
   26.4295  -20.5978   -5.7792 C   0  0  0  0  0  0  0  0  0  0  0  0
   26.6711  -20.4229   -4.4354 C   0  0  0  0  0  0  0  0  0  0  0  0
   27.8379  -19.7951   -4.0630 C   0  0  0  0  0  0  0  0  0  0  0  0
   28.7443  -19.3514   -5.0110 C   0  0  0  0  0  0  0  0  0  0  0  0
   28.4861  -19.5349   -6.3521 C   0  0  0  0  0  0  0  0  0  0  0  0
   27.3333  -20.1559   -6.7419 C   0  0  0  0  0  0  0  0  0  0  0  0
   25.4011  -20.3091  -10.6995 C   0  0  0  0  0  0  0  0  0  0  0  0
   25.0845  -19.0681  -10.7207 O   0  0  0  0  0  0  0  0  0  0  0  0
   24.3268  -21.2034  -10.8672 N   0  0  0  0  0  0  0  0  0  0  0  0
   23.0290  -20.7275  -11.2178 C   0  0  1  0  0  0  0  0  0  0  0  0
   22.3035  -21.6254  -12.1927 C   0  0  0  0  0  0  0  0  0  0  0  0
   23.2128  -21.5177  -13.7745 S   0  0  0  0  0  0  0  0  0  0  0  0
   22.1835  -20.6660   -9.9960 C   0  0  0  0  0  0  0  0  0  0  0  0
   20.9055  -20.0864  -10.0748 O   0  0  0  0  0  0  0  0  0  0  0  0
   22.5284  -21.0990   -8.8803 O   0  0  0  0  0  0  0  0  0  0  0  0
  2  1  1  6
  2  7  1  0
  3  2  1  0
  3  4  1  0
  4  5  1  0
  5  6  2  0
  7  8  2  0
  9  5  1  0
 10 11  1  0
 10  7  1  0
 12 13  1  0
 11 12  1  1
 13 14  2  0
 15 14  1  0
 16 15  1  0
 17 16  2  0
 18 17  1  0
 19 20  1  0
 19 18  2  0
 20 21  2  0
 21 16  1  0
 21 13  1  0
 22 11  1  0
 22 24  1  0
 23 22  2  0
 25 24  1  0
 25 26  1  6
 27 26  1  0
 28 25  1  0
 29 28  1  0
 30 28  2  0
M  END
$$$$
