PYH.pdb
     RDKit          3D

 30 32  0  0  1  0  0  0  0  0999 V2000
    7.4743  -15.8098   19.3949 N   0  0  0  0  0  0  0  0  0  0  0  0
    7.3123  -15.7820   17.9325 C   0  0  0  0  0  0  0  0  0  0  0  0
    7.4239  -14.2941   17.6725 C   0  0  0  0  0  0  0  0  0  0  0  0
    8.4453  -13.8176   18.7088 C   0  0  0  0  0  0  0  0  0  0  0  0
    8.7135  -15.0695   19.5234 C   0  0  1  0  0  0  0  0  0  0  0  0
    9.0360  -14.7229   20.9279 C   0  0  0  0  0  0  0  0  0  0  0  0
   10.1005  -14.1121   21.2061 O   0  0  0  0  0  0  0  0  0  0  0  0
    6.9582  -11.9161   28.9848 O   0  0  0  0  0  0  0  0  0  0  0  0
    6.9044  -12.5070   27.7202 C   0  0  0  0  0  0  0  0  0  0  0  0
    7.4303  -13.7760   27.5080 C   0  0  0  0  0  0  0  0  0  0  0  0
    7.3785  -14.3603   26.2636 C   0  0  0  0  0  0  0  0  0  0  0  0
    6.8108  -13.7254   25.1806 C   0  0  0  0  0  0  0  0  0  0  0  0
    6.7649  -14.3757   23.8452 C   0  0  0  0  0  0  0  0  0  0  0  0
    8.1457  -14.5180   23.2467 C   0  0  2  0  0  0  0  0  0  0  0  0
    8.1131  -15.1006   21.9259 N   0  0  0  0  0  0  0  0  0  0  0  0
    8.9539  -15.3618   24.1621 C   0  0  0  0  0  0  0  0  0  0  0  0
    9.1621  -14.9560   25.3311 O   0  0  0  0  0  0  0  0  0  0  0  0
    6.2893  -12.4685   25.3879 C   0  0  0  0  0  0  0  0  0  0  0  0
    6.3354  -11.8639   26.6471 C   0  0  0  0  0  0  0  0  0  0  0  0
    9.5060  -16.6021   23.7938 N   0  0  0  0  0  0  0  0  0  0  0  0
   10.3733  -17.4136   24.6238 C   0  0  1  0  0  0  0  0  0  0  0  0
   11.5773  -16.6028   25.0960 C   0  0  0  0  0  0  0  0  0  0  0  0
   12.4717  -16.3754   23.9221 C   0  0  0  0  0  0  0  0  0  0  0  0
   12.2692  -16.7122   22.6066 C   0  0  0  0  0  0  0  0  0  0  0  0
   13.3272  -16.3301   21.8473 N   0  0  0  0  0  0  0  0  0  0  0  0
   14.1875  -15.7531   22.7062 C   0  0  0  0  0  0  0  0  0  0  0  0
   13.6897  -15.7715   23.9575 N   0  0  0  0  0  0  0  0  0  0  0  0
    9.5710  -17.7953   25.8317 C   0  0  0  0  0  0  0  0  0  0  0  0
    8.2388  -17.4194   25.9256 O   0  0  0  0  0  0  0  0  0  0  0  0
   10.0526  -18.4546   26.7883 O   0  0  0  0  0  0  0  0  0  0  0  0
  1  5  1  0
  2  3  1  0
  2  1  1  0
  3  4  1  0
  4  5  1  0
  5  6  1  1
  6  7  2  0
  8  9  1  0
  9 10  2  0
  9 19  1  0
 10 11  1  0
 11 12  2  0
 12 13  1  0
 14 13  1  1
 14 16  1  0
 15  6  1  0
 15 14  1  0
 16 17  2  0
 18 12  1  0
 19 18  2  0
 20 21  1  0
 20 16  1  0
 21 28  1  0
 21 22  1  1
 23 24  2  0
 23 22  1  0
 25 24  1  0
 26 27  2  0
 26 25  1  0
 27 23  1  0
 28 30  2  0
 28 29  1  0
M  END
$$$$
