PYH.pdb
     RDKit          3D

 30 32  0  0  1  0  0  0  0  0999 V2000
    7.5642  -15.3777   18.7904 N   0  0  0  0  0  0  0  0  0  0  0  0
    7.5239  -15.1435   17.3382 C   0  0  0  0  0  0  0  0  0  0  0  0
    7.7045  -13.6403   17.2977 C   0  0  0  0  0  0  0  0  0  0  0  0
    8.6520  -13.3543   18.4660 C   0  0  0  0  0  0  0  0  0  0  0  0
    8.8118  -14.7162   19.1160 C   0  0  1  0  0  0  0  0  0  0  0  0
    9.0287  -14.5789   20.5758 C   0  0  0  0  0  0  0  0  0  0  0  0
   10.1745  -14.3238   21.0294 O   0  0  0  0  0  0  0  0  0  0  0  0
    7.3309  -12.3786   28.8572 O   0  0  0  0  0  0  0  0  0  0  0  0
    7.1724  -12.7800   27.5286 C   0  0  0  0  0  0  0  0  0  0  0  0
    7.5850  -11.9584   26.4861 C   0  0  0  0  0  0  0  0  0  0  0  0
    7.4301  -12.3514   25.1768 C   0  0  0  0  0  0  0  0  0  0  0  0
    6.8661  -13.5620   24.8384 C   0  0  0  0  0  0  0  0  0  0  0  0
    6.7093  -13.9669   23.4171 C   0  0  0  0  0  0  0  0  0  0  0  0
    8.0009  -14.5050   22.8451 C   0  0  2  0  0  0  0  0  0  0  0  0
    7.9132  -14.7437   21.4237 N   0  0  0  0  0  0  0  0  0  0  0  0
    8.3256  -15.7646   23.5599 C   0  0  0  0  0  0  0  0  0  0  0  0
    7.5471  -16.7420   23.4447 O   0  0  0  0  0  0  0  0  0  0  0  0
    6.4566  -14.3776   25.8689 C   0  0  0  0  0  0  0  0  0  0  0  0
    6.6083  -13.9902   27.2032 C   0  0  0  0  0  0  0  0  0  0  0  0
    9.4658  -15.9301   24.3671 N   0  0  0  0  0  0  0  0  0  0  0  0
    9.8552  -17.1603   25.0262 C   0  0  1  0  0  0  0  0  0  0  0  0
   11.3453  -17.4265   24.8298 C   0  0  0  0  0  0  0  0  0  0  0  0
   11.5504  -17.8992   23.4283 C   0  0  0  0  0  0  0  0  0  0  0  0
   10.6103  -18.2418   22.4882 C   0  0  0  0  0  0  0  0  0  0  0  0
   11.2085  -18.6225   21.3310 N   0  0  0  0  0  0  0  0  0  0  0  0
   12.5291  -18.5122   21.5639 C   0  0  0  0  0  0  0  0  0  0  0  0
   12.7531  -18.0788   22.8193 N   0  0  0  0  0  0  0  0  0  0  0  0
    9.6122  -16.9533   26.4914 C   0  0  0  0  0  0  0  0  0  0  0  0
    9.2374  -15.7030   26.9615 O   0  0  0  0  0  0  0  0  0  0  0  0
    9.7327  -17.8752   27.3383 O   0  0  0  0  0  0  0  0  0  0  0  0
  1  5  1  0
  2  3  1  0
  2  1  1  0
  3  4  1  0
  4  5  1  0
  5  6  1  1
  6  7  2  0
  8  9  1  0
  9 10  2  0
  9 19  1  0
 10 11  1  0
 11 12  2  0
 12 13  1  0
 14 13  1  1
 14 16  1  0
 15  6  1  0
 15 14  1  0
 16 17  2  0
 18 12  1  0
 19 18  2  0
 20 21  1  0
 20 16  1  0
 21 28  1  0
 21 22  1  1
 23 24  2  0
 23 22  1  0
 25 24  1  0
 26 27  2  0
 26 25  1  0
 27 23  1  0
 28 30  2  0
 28 29  1  0
M  END
$$$$
