PYH.pdb
     RDKit          3D

 30 32  0  0  1  0  0  0  0  0999 V2000
    7.7007  -15.5072   19.2481 N   0  0  0  0  0  0  0  0  0  0  0  0
    7.8065  -15.3908   17.7849 C   0  0  0  0  0  0  0  0  0  0  0  0
    8.1615  -13.9245   17.6514 C   0  0  0  0  0  0  0  0  0  0  0  0
    9.0369  -13.6473   18.8766 C   0  0  0  0  0  0  0  0  0  0  0  0
    8.9853  -14.9601   19.6361 C   0  0  1  0  0  0  0  0  0  0  0  0
    9.0965  -14.7269   21.0956 C   0  0  0  0  0  0  0  0  0  0  0  0
   10.2156  -14.4915   21.6207 O   0  0  0  0  0  0  0  0  0  0  0  0
    6.7730  -11.9674   29.0854 O   0  0  0  0  0  0  0  0  0  0  0  0
    6.8079  -12.2990   27.7289 C   0  0  0  0  0  0  0  0  0  0  0  0
    5.7487  -12.9777   27.1378 C   0  0  0  0  0  0  0  0  0  0  0  0
    5.7805  -13.3054   25.8021 C   0  0  0  0  0  0  0  0  0  0  0  0
    6.8491  -12.9816   24.9949 C   0  0  0  0  0  0  0  0  0  0  0  0
    6.8621  -13.3446   23.5539 C   0  0  0  0  0  0  0  0  0  0  0  0
    7.8957  -14.4067   23.2559 C   0  0  2  0  0  0  0  0  0  0  0  0
    7.9123  -14.7790   21.8609 N   0  0  0  0  0  0  0  0  0  0  0  0
    7.5909  -15.5884   24.1008 C   0  0  0  0  0  0  0  0  0  0  0  0
    6.4231  -16.0476   24.0977 O   0  0  0  0  0  0  0  0  0  0  0  0
    7.8995  -12.3094   25.5777 C   0  0  0  0  0  0  0  0  0  0  0  0
    7.8795  -11.9707   26.9335 C   0  0  0  0  0  0  0  0  0  0  0  0
    8.5427  -16.2311   24.9131 N   0  0  0  0  0  0  0  0  0  0  0  0
    8.2561  -17.2787   25.8723 C   0  0  1  0  0  0  0  0  0  0  0  0
    7.7326  -18.5259   25.1649 C   0  0  0  0  0  0  0  0  0  0  0  0
    8.7023  -18.8895   24.0891 C   0  0  0  0  0  0  0  0  0  0  0  0
    9.8698  -18.2609   23.7330 C   0  0  0  0  0  0  0  0  0  0  0  0
   10.4646  -18.9081   22.6989 N   0  0  0  0  0  0  0  0  0  0  0  0
    9.6534  -19.9442   22.4181 C   0  0  0  0  0  0  0  0  0  0  0  0
    8.5893  -19.9487   23.2437 N   0  0  0  0  0  0  0  0  0  0  0  0
    9.5614  -17.6296   26.5217 C   0  0  0  0  0  0  0  0  0  0  0  0
   10.7109  -16.9268   26.1907 O   0  0  0  0  0  0  0  0  0  0  0  0
    9.6731  -18.5496   27.3718 O   0  0  0  0  0  0  0  0  0  0  0  0
  1  5  1  0
  2  3  1  0
  2  1  1  0
  3  4  1  0
  4  5  1  0
  5  6  1  1
  6  7  2  0
  8  9  1  0
  9 10  2  0
  9 19  1  0
 10 11  1  0
 11 12  2  0
 12 13  1  0
 14 13  1  6
 14 16  1  0
 15  6  1  0
 15 14  1  0
 16 17  2  0
 18 12  1  0
 19 18  2  0
 20 21  1  0
 20 16  1  0
 21 28  1  0
 21 22  1  6
 23 24  2  0
 23 22  1  0
 25 24  1  0
 26 27  2  0
 26 25  1  0
 27 23  1  0
 28 30  2  0
 28 29  1  0
M  END
$$$$
