PYH.pdb
     RDKit          3D

 30 32  0  0  1  0  0  0  0  0999 V2000
    7.6535  -15.3523   18.9354 N   0  0  0  0  0  0  0  0  0  0  0  0
    7.6142  -15.0517   17.4954 C   0  0  0  0  0  0  0  0  0  0  0  0
    7.7910  -13.5477   17.5243 C   0  0  0  0  0  0  0  0  0  0  0  0
    8.7366  -13.3135   18.7055 C   0  0  0  0  0  0  0  0  0  0  0  0
    8.8992  -14.7034   19.2925 C   0  0  1  0  0  0  0  0  0  0  0  0
    9.1142  -14.6329   20.7572 C   0  0  0  0  0  0  0  0  0  0  0  0
   10.2703  -14.4647   21.2250 O   0  0  0  0  0  0  0  0  0  0  0  0
    7.2185  -12.1862   28.9415 O   0  0  0  0  0  0  0  0  0  0  0  0
    7.1033  -12.6324   27.6228 C   0  0  0  0  0  0  0  0  0  0  0  0
    6.5712  -13.8855   27.3427 C   0  0  0  0  0  0  0  0  0  0  0  0
    6.4565  -14.3273   26.0448 C   0  0  0  0  0  0  0  0  0  0  0  0
    6.8578  -13.5602   24.9730 C   0  0  0  0  0  0  0  0  0  0  0  0
    6.7238  -14.0570   23.5788 C   0  0  0  0  0  0  0  0  0  0  0  0
    8.0569  -14.4854   23.0093 C   0  0  2  0  0  0  0  0  0  0  0  0
    7.9851  -14.7601   21.5935 N   0  0  0  0  0  0  0  0  0  0  0  0
    8.4996  -15.6951   23.7468 C   0  0  0  0  0  0  0  0  0  0  0  0
    7.8595  -16.7634   23.5936 O   0  0  0  0  0  0  0  0  0  0  0  0
    7.3852  -12.3188   25.2476 C   0  0  0  0  0  0  0  0  0  0  0  0
    7.5071  -11.8581   26.5615 C   0  0  0  0  0  0  0  0  0  0  0  0
    9.6053  -15.7157   24.6162 N   0  0  0  0  0  0  0  0  0  0  0  0
   10.1481  -16.8977   25.2548 C   0  0  1  0  0  0  0  0  0  0  0  0
   11.6708  -16.9131   25.1506 C   0  0  0  0  0  0  0  0  0  0  0  0
   12.0359  -17.3220   23.7617 C   0  0  0  0  0  0  0  0  0  0  0  0
   11.2105  -17.6625   22.7187 C   0  0  0  0  0  0  0  0  0  0  0  0
   11.9377  -17.9742   21.6160 N   0  0  0  0  0  0  0  0  0  0  0  0
   13.2224  -17.8232   21.9867 C   0  0  0  0  0  0  0  0  0  0  0  0
   13.3003  -17.4316   23.2730 N   0  0  0  0  0  0  0  0  0  0  0  0
    9.7854  -16.8015   26.7066 C   0  0  0  0  0  0  0  0  0  0  0  0
    9.0788  -15.7022   27.1727 O   0  0  0  0  0  0  0  0  0  0  0  0
   10.0946  -17.6859   27.5456 O   0  0  0  0  0  0  0  0  0  0  0  0
  1  5  1  0
  2  3  1  0
  2  1  1  0
  3  4  1  0
  4  5  1  0
  5  6  1  1
  6  7  2  0
  8  9  1  0
  9 10  2  0
  9 19  1  0
 10 11  1  0
 11 12  2  0
 12 13  1  0
 14 13  1  1
 14 16  1  0
 15  6  1  0
 15 14  1  0
 16 17  2  0
 18 12  1  0
 19 18  2  0
 20 21  1  0
 20 16  1  0
 21 28  1  0
 21 22  1  1
 23 24  2  0
 23 22  1  0
 25 24  1  0
 26 27  2  0
 26 25  1  0
 27 23  1  0
 28 30  2  0
 28 29  1  0
M  END
$$$$
