PYH.pdb
     RDKit          3D

 30 32  0  0  1  0  0  0  0  0999 V2000
    7.6250  -15.3886   18.9049 N   0  0  0  0  0  0  0  0  0  0  0  0
    7.5571  -15.1517   17.4541 C   0  0  0  0  0  0  0  0  0  0  0  0
    7.7152  -13.6459   17.4144 C   0  0  0  0  0  0  0  0  0  0  0  0
    8.6779  -13.3490   18.5675 C   0  0  0  0  0  0  0  0  0  0  0  0
    8.8682  -14.7099   19.2114 C   0  0  1  0  0  0  0  0  0  0  0  0
    9.1073  -14.5728   20.6677 C   0  0  0  0  0  0  0  0  0  0  0  0
   10.2092  -14.1408   21.0954 O   0  0  0  0  0  0  0  0  0  0  0  0
    7.2145  -12.2130   28.8244 O   0  0  0  0  0  0  0  0  0  0  0  0
    7.1036  -12.6866   27.5150 C   0  0  0  0  0  0  0  0  0  0  0  0
    7.5065  -11.9016   26.4410 C   0  0  0  0  0  0  0  0  0  0  0  0
    7.3985  -12.3657   25.1504 C   0  0  0  0  0  0  0  0  0  0  0  0
    6.8926  -13.6144   24.8621 C   0  0  0  0  0  0  0  0  0  0  0  0
    6.7858  -14.0960   23.4603 C   0  0  0  0  0  0  0  0  0  0  0  0
    8.1073  -14.6234   22.9499 C   0  0  2  0  0  0  0  0  0  0  0  0
    8.0633  -14.9414   21.5421 N   0  0  0  0  0  0  0  0  0  0  0  0
    8.4512  -15.8317   23.7404 C   0  0  0  0  0  0  0  0  0  0  0  0
    7.7088  -16.8398   23.6560 O   0  0  0  0  0  0  0  0  0  0  0  0
    6.4928  -14.3939   25.9239 C   0  0  0  0  0  0  0  0  0  0  0  0
    6.5973  -13.9343   27.2396 C   0  0  0  0  0  0  0  0  0  0  0  0
    9.5713  -15.9152   24.5873 N   0  0  0  0  0  0  0  0  0  0  0  0
    9.9516  -17.0789   25.3625 C   0  0  1  0  0  0  0  0  0  0  0  0
   11.4551  -17.3227   25.2627 C   0  0  0  0  0  0  0  0  0  0  0  0
   11.7658  -17.7317   23.8606 C   0  0  0  0  0  0  0  0  0  0  0  0
   11.0179  -18.4971   23.0005 C   0  0  0  0  0  0  0  0  0  0  0  0
   11.6552  -18.6398   21.8108 N   0  0  0  0  0  0  0  0  0  0  0  0
   12.8058  -17.9549   21.9428 C   0  0  0  0  0  0  0  0  0  0  0  0
   12.8891  -17.4025   23.1683 N   0  0  0  0  0  0  0  0  0  0  0  0
    9.6290  -16.7617   26.7921 C   0  0  0  0  0  0  0  0  0  0  0  0
    9.8263  -17.7199   27.7759 O   0  0  0  0  0  0  0  0  0  0  0  0
    9.1781  -15.6457   27.1568 O   0  0  0  0  0  0  0  0  0  0  0  0
  1  5  1  0
  2  3  1  0
  2  1  1  0
  3  4  1  0
  4  5  1  0
  5  6  1  1
  6  7  2  0
  8  9  1  0
  9 10  2  0
  9 19  1  0
 10 11  1  0
 11 12  2  0
 12 13  1  0
 14 13  1  1
 14 16  1  0
 15  6  1  0
 15 14  1  0
 16 17  2  0
 18 12  1  0
 19 18  2  0
 20 21  1  0
 20 16  1  0
 21 28  1  0
 21 22  1  1
 23 24  2  0
 23 22  1  0
 25 24  1  0
 26 27  2  0
 26 25  1  0
 27 23  1  0
 28 30  2  0
 28 29  1  0
M  END
$$$$
