PYH.pdb
     RDKit          3D

 30 32  0  0  1  0  0  0  0  0999 V2000
    6.9574  -14.7051   20.4678 N   0  0  0  0  0  0  0  0  0  0  0  0
    6.4803  -14.2178   19.1638 C   0  0  0  0  0  0  0  0  0  0  0  0
    6.9532  -12.7800   19.2186 C   0  0  0  0  0  0  0  0  0  0  0  0
    8.2773  -12.8596   19.9834 C   0  0  0  0  0  0  0  0  0  0  0  0
    8.3524  -14.3216   20.3831 C   0  0  1  0  0  0  0  0  0  0  0  0
    9.0733  -14.4780   21.6686 C   0  0  0  0  0  0  0  0  0  0  0  0
   10.3243  -14.3512   21.7181 O   0  0  0  0  0  0  0  0  0  0  0  0
   10.5428  -14.7411   30.3183 O   0  0  0  0  0  0  0  0  0  0  0  0
    9.9025  -14.7472   29.0768 C   0  0  0  0  0  0  0  0  0  0  0  0
    9.8191  -13.5865   28.3168 C   0  0  0  0  0  0  0  0  0  0  0  0
    9.1892  -13.5898   27.0938 C   0  0  0  0  0  0  0  0  0  0  0  0
    8.6175  -14.7280   26.5687 C   0  0  0  0  0  0  0  0  0  0  0  0
    7.9426  -14.7091   25.2448 C   0  0  0  0  0  0  0  0  0  0  0  0
    8.9240  -14.9262   24.1157 C   0  0  2  0  0  0  0  0  0  0  0  0
    8.3096  -14.7708   22.8183 N   0  0  0  0  0  0  0  0  0  0  0  0
    9.4874  -16.2920   24.2585 C   0  0  0  0  0  0  0  0  0  0  0  0
    8.7285  -17.2781   24.0965 O   0  0  0  0  0  0  0  0  0  0  0  0
    8.6986  -15.8790   27.3193 C   0  0  0  0  0  0  0  0  0  0  0  0
    9.3357  -15.8891   28.5632 C   0  0  0  0  0  0  0  0  0  0  0  0
   10.8353  -16.5497   24.5678 N   0  0  0  0  0  0  0  0  0  0  0  0
   11.4512  -17.8608   24.6056 C   0  0  1  0  0  0  0  0  0  0  0  0
   12.8515  -17.8141   24.0000 C   0  0  0  0  0  0  0  0  0  0  0  0
   13.4028  -19.2018   24.0007 C   0  0  0  0  0  0  0  0  0  0  0  0
   14.2099  -19.8079   24.9314 C   0  0  0  0  0  0  0  0  0  0  0  0
   14.4915  -21.0830   24.5617 N   0  0  0  0  0  0  0  0  0  0  0  0
   13.8505  -21.2606   23.3920 C   0  0  0  0  0  0  0  0  0  0  0  0
   13.1910  -20.1404   23.0396 N   0  0  0  0  0  0  0  0  0  0  0  0
   11.5861  -18.2257   26.0538 C   0  0  0  0  0  0  0  0  0  0  0  0
   11.2982  -19.5167   26.4726 O   0  0  0  0  0  0  0  0  0  0  0  0
   11.9558  -17.4041   26.9313 O   0  0  0  0  0  0  0  0  0  0  0  0
  1  5  1  0
  2  3  1  0
  2  1  1  0
  3  4  1  0
  4  5  1  0
  5  6  1  1
  6  7  2  0
  8  9  1  0
  9 10  2  0
  9 19  1  0
 10 11  1  0
 11 12  2  0
 12 13  1  0
 14 13  1  1
 14 16  1  0
 15  6  1  0
 15 14  1  0
 16 17  2  0
 18 12  1  0
 19 18  2  0
 20 21  1  0
 20 16  1  0
 21 28  1  0
 21 22  1  1
 23 24  2  0
 23 22  1  0
 25 24  1  0
 26 27  2  0
 26 25  1  0
 27 23  1  0
 28 30  2  0
 28 29  1  0
M  END
$$$$
