PYH.pdb
     RDKit          3D

 30 32  0  0  1  0  0  0  0  0999 V2000
    7.3055  -15.2741   19.0980 N   0  0  0  0  0  0  0  0  0  0  0  0
    7.3295  -15.0660   17.6414 C   0  0  0  0  0  0  0  0  0  0  0  0
    7.8050  -13.6294   17.5774 C   0  0  0  0  0  0  0  0  0  0  0  0
    8.7766  -13.5132   18.7551 C   0  0  0  0  0  0  0  0  0  0  0  0
    8.6556  -14.8663   19.4314 C   0  0  1  0  0  0  0  0  0  0  0  0
    8.8781  -14.7451   20.8917 C   0  0  0  0  0  0  0  0  0  0  0  0
   10.0414  -14.6022   21.3501 O   0  0  0  0  0  0  0  0  0  0  0  0
    7.3613  -11.8256   28.9734 O   0  0  0  0  0  0  0  0  0  0  0  0
    7.2478  -12.1923   27.6303 C   0  0  0  0  0  0  0  0  0  0  0  0
    6.1990  -12.9974   27.2017 C   0  0  0  0  0  0  0  0  0  0  0  0
    6.0847  -13.3599   25.8795 C   0  0  0  0  0  0  0  0  0  0  0  0
    6.9917  -12.9486   24.9275 C   0  0  0  0  0  0  0  0  0  0  0  0
    6.8486  -13.3514   23.5042 C   0  0  0  0  0  0  0  0  0  0  0  0
    7.8290  -14.4400   23.1317 C   0  0  2  0  0  0  0  0  0  0  0  0
    7.7479  -14.7958   21.7346 N   0  0  0  0  0  0  0  0  0  0  0  0
    7.5413  -15.6222   23.9818 C   0  0  0  0  0  0  0  0  0  0  0  0
    6.4851  -16.2687   23.7794 O   0  0  0  0  0  0  0  0  0  0  0  0
    8.0315  -12.1512   25.3491 C   0  0  0  0  0  0  0  0  0  0  0  0
    8.1589  -11.7758   26.6893 C   0  0  0  0  0  0  0  0  0  0  0  0
    8.3909  -16.0660   25.0115 N   0  0  0  0  0  0  0  0  0  0  0  0
    8.5286  -17.4397   25.4514 C   0  0  1  0  0  0  0  0  0  0  0  0
    9.1676  -18.2922   24.3583 C   0  0  0  0  0  0  0  0  0  0  0  0
    8.0856  -19.0736   23.6886 C   0  0  0  0  0  0  0  0  0  0  0  0
    6.7484  -19.1309   23.9948 C   0  0  0  0  0  0  0  0  0  0  0  0
    6.0981  -19.9622   23.1415 N   0  0  0  0  0  0  0  0  0  0  0  0
    7.0465  -20.4194   22.3035 C   0  0  0  0  0  0  0  0  0  0  0  0
    8.2470  -19.8958   22.6175 N   0  0  0  0  0  0  0  0  0  0  0  0
    9.4613  -17.4189   26.6253 C   0  0  0  0  0  0  0  0  0  0  0  0
   10.6730  -16.7492   26.5357 O   0  0  0  0  0  0  0  0  0  0  0  0
    9.1978  -17.9901   27.7144 O   0  0  0  0  0  0  0  0  0  0  0  0
  1  5  1  0
  2  3  1  0
  2  1  1  0
  3  4  1  0
  4  5  1  0
  5  6  1  1
  6  7  2  0
  8  9  1  0
  9 10  2  0
  9 19  1  0
 10 11  1  0
 11 12  2  0
 12 13  1  0
 14 13  1  6
 14 16  1  0
 15  6  1  0
 15 14  1  0
 16 17  2  0
 18 12  1  0
 19 18  2  0
 20 21  1  0
 20 16  1  0
 21 28  1  0
 21 22  1  6
 23 24  2  0
 23 22  1  0
 25 24  1  0
 26 27  2  0
 26 25  1  0
 27 23  1  0
 28 30  2  0
 28 29  1  0
M  END
$$$$
