PYH.pdb
     RDKit          3D

 30 32  0  0  1  0  0  0  0  0999 V2000
    6.7781  -14.7499   20.4455 N   0  0  0  0  0  0  0  0  0  0  0  0
    6.2573  -14.1661   19.1991 C   0  0  0  0  0  0  0  0  0  0  0  0
    6.8146  -12.7614   19.3004 C   0  0  0  0  0  0  0  0  0  0  0  0
    8.1728  -12.9552   19.9801 C   0  0  0  0  0  0  0  0  0  0  0  0
    8.1859  -14.4390   20.2982 C   0  0  1  0  0  0  0  0  0  0  0  0
    8.9677  -14.7053   21.5289 C   0  0  0  0  0  0  0  0  0  0  0  0
   10.2226  -14.7881   21.4821 O   0  0  0  0  0  0  0  0  0  0  0  0
   10.9162  -14.7272   30.1025 O   0  0  0  0  0  0  0  0  0  0  0  0
   10.2243  -14.6652   28.8905 C   0  0  0  0  0  0  0  0  0  0  0  0
    9.5339  -15.7722   28.4112 C   0  0  0  0  0  0  0  0  0  0  0  0
    8.8517  -15.7137   27.2180 C   0  0  0  0  0  0  0  0  0  0  0  0
    8.8193  -14.5708   26.4493 C   0  0  0  0  0  0  0  0  0  0  0  0
    8.0751  -14.5296   25.1636 C   0  0  0  0  0  0  0  0  0  0  0  0
    8.9372  -14.9786   24.0059 C   0  0  2  0  0  0  0  0  0  0  0  0
    8.2570  -14.8597   22.7378 N   0  0  0  0  0  0  0  0  0  0  0  0
    9.3287  -16.3893   24.2501 C   0  0  0  0  0  0  0  0  0  0  0  0
    8.4278  -17.2569   24.3515 O   0  0  0  0  0  0  0  0  0  0  0  0
    9.5023  -13.4730   26.9216 C   0  0  0  0  0  0  0  0  0  0  0  0
   10.1992  -13.5192   28.1321 C   0  0  0  0  0  0  0  0  0  0  0  0
   10.6632  -16.8164   24.3759 N   0  0  0  0  0  0  0  0  0  0  0  0
   11.0959  -18.1952   24.4827 C   0  0  1  0  0  0  0  0  0  0  0  0
   12.4169  -18.4020   23.7465 C   0  0  0  0  0  0  0  0  0  0  0  0
   12.1605  -18.2496   22.2834 C   0  0  0  0  0  0  0  0  0  0  0  0
   10.9664  -18.3019   21.6079 C   0  0  0  0  0  0  0  0  0  0  0  0
   11.1614  -18.1150   20.2778 N   0  0  0  0  0  0  0  0  0  0  0  0
   12.4888  -17.9464   20.1364 C   0  0  0  0  0  0  0  0  0  0  0  0
   13.1052  -18.0242   21.3314 N   0  0  0  0  0  0  0  0  0  0  0  0
   11.3338  -18.4547   25.9403 C   0  0  0  0  0  0  0  0  0  0  0  0
   11.1652  -17.4320   26.8625 O   0  0  0  0  0  0  0  0  0  0  0  0
   11.6864  -19.5777   26.3831 O   0  0  0  0  0  0  0  0  0  0  0  0
  1  5  1  0
  2  3  1  0
  2  1  1  0
  3  4  1  0
  4  5  1  0
  5  6  1  1
  6  7  2  0
  8  9  1  0
  9 10  2  0
  9 19  1  0
 10 11  1  0
 11 12  2  0
 12 13  1  0
 14 13  1  1
 14 16  1  0
 15  6  1  0
 15 14  1  0
 16 17  2  0
 18 12  1  0
 19 18  2  0
 20 21  1  0
 20 16  1  0
 21 28  1  0
 21 22  1  6
 23 24  2  0
 23 22  1  0
 25 24  1  0
 26 27  2  0
 26 25  1  0
 27 23  1  0
 28 30  2  0
 28 29  1  0
M  END
$$$$
