PYH.pdb
     RDKit          3D

 30 32  0  0  1  0  0  0  0  0999 V2000
    7.5688  -15.3990   19.3677 N   0  0  0  0  0  0  0  0  0  0  0  0
    7.4768  -15.0814   17.9338 C   0  0  0  0  0  0  0  0  0  0  0  0
    7.6923  -13.5826   17.9705 C   0  0  0  0  0  0  0  0  0  0  0  0
    8.6921  -13.3851   19.1131 C   0  0  0  0  0  0  0  0  0  0  0  0
    8.8442  -14.7851   19.6786 C   0  0  1  0  0  0  0  0  0  0  0  0
    9.1221  -14.7363   21.1336 C   0  0  0  0  0  0  0  0  0  0  0  0
   10.2047  -14.2576   21.5607 O   0  0  0  0  0  0  0  0  0  0  0  0
    6.9383  -11.4184   28.5804 O   0  0  0  0  0  0  0  0  0  0  0  0
    6.9112  -12.2598   27.4657 C   0  0  0  0  0  0  0  0  0  0  0  0
    7.2137  -13.6107   27.5900 C   0  0  0  0  0  0  0  0  0  0  0  0
    7.1877  -14.4415   26.4937 C   0  0  0  0  0  0  0  0  0  0  0  0
    6.8650  -13.9822   25.2355 C   0  0  0  0  0  0  0  0  0  0  0  0
    6.8422  -14.8977   24.0651 C   0  0  0  0  0  0  0  0  0  0  0  0
    8.2095  -15.0299   23.4341 C   0  0  2  0  0  0  0  0  0  0  0  0
    8.1365  -15.2414   22.0076 N   0  0  0  0  0  0  0  0  0  0  0  0
    8.9050  -16.1663   24.0884 C   0  0  0  0  0  0  0  0  0  0  0  0
    8.4371  -17.3221   23.9477 O   0  0  0  0  0  0  0  0  0  0  0  0
    6.5650  -12.6447   25.1095 C   0  0  0  0  0  0  0  0  0  0  0  0
    6.5878  -11.7901   26.2152 C   0  0  0  0  0  0  0  0  0  0  0  0
   10.0693  -16.0236   24.8648 N   0  0  0  0  0  0  0  0  0  0  0  0
   10.8713  -17.1140   25.3818 C   0  0  1  0  0  0  0  0  0  0  0  0
   12.2970  -16.6462   25.6619 C   0  0  0  0  0  0  0  0  0  0  0  0
   12.9229  -16.2639   24.3612 C   0  0  0  0  0  0  0  0  0  0  0  0
   12.4856  -16.5223   23.0856 C   0  0  0  0  0  0  0  0  0  0  0  0
   13.3436  -16.0020   22.1719 N   0  0  0  0  0  0  0  0  0  0  0  0
   14.3171  -15.4185   22.8946 C   0  0  0  0  0  0  0  0  0  0  0  0
   14.0806  -15.5660   24.2123 N   0  0  0  0  0  0  0  0  0  0  0  0
   10.2522  -17.5158   26.6871 C   0  0  0  0  0  0  0  0  0  0  0  0
    9.1080  -16.8736   27.1379 O   0  0  0  0  0  0  0  0  0  0  0  0
   10.7260  -18.4266   27.4135 O   0  0  0  0  0  0  0  0  0  0  0  0
  1  5  1  0
  2  3  1  0
  2  1  1  0
  3  4  1  0
  4  5  1  0
  5  6  1  1
  6  7  2  0
  8  9  1  0
  9 10  2  0
  9 19  1  0
 10 11  1  0
 11 12  2  0
 12 13  1  0
 14 13  1  1
 14 16  1  0
 15  6  1  0
 15 14  1  0
 16 17  2  0
 18 12  1  0
 19 18  2  0
 20 21  1  0
 20 16  1  0
 21 28  1  0
 21 22  1  1
 23 24  2  0
 23 22  1  0
 25 24  1  0
 26 27  2  0
 26 25  1  0
 27 23  1  0
 28 30  2  0
 28 29  1  0
M  END
$$$$
