PYH.pdb
     RDKit          3D

 30 32  0  0  1  0  0  0  0  0999 V2000
    7.0990  -15.3005   20.9266 N   0  0  0  0  0  0  0  0  0  0  0  0
    6.7319  -14.7977   19.5932 C   0  0  0  0  0  0  0  0  0  0  0  0
    7.0645  -13.3287   19.7529 C   0  0  0  0  0  0  0  0  0  0  0  0
    8.2944  -13.3295   20.6649 C   0  0  0  0  0  0  0  0  0  0  0  0
    8.4544  -14.7962   21.0198 C   0  0  1  0  0  0  0  0  0  0  0  0
    9.0351  -14.9481   22.3750 C   0  0  0  0  0  0  0  0  0  0  0  0
   10.2051  -14.5523   22.6158 O   0  0  0  0  0  0  0  0  0  0  0  0
    5.9749  -10.2211   26.7631 O   0  0  0  0  0  0  0  0  0  0  0  0
    6.3464  -11.5423   26.5028 C   0  0  0  0  0  0  0  0  0  0  0  0
    7.6135  -12.0021   26.8421 C   0  0  0  0  0  0  0  0  0  0  0  0
    7.9819  -13.3028   26.5869 C   0  0  0  0  0  0  0  0  0  0  0  0
    7.1251  -14.2020   25.9907 C   0  0  0  0  0  0  0  0  0  0  0  0
    7.5437  -15.6030   25.7252 C   0  0  0  0  0  0  0  0  0  0  0  0
    8.6850  -15.6658   24.7359 C   0  0  2  0  0  0  0  0  0  0  0  0
    8.2331  -15.5463   23.3697 N   0  0  0  0  0  0  0  0  0  0  0  0
    9.3892  -16.9572   24.9345 C   0  0  0  0  0  0  0  0  0  0  0  0
    8.7857  -18.0224   24.6591 O   0  0  0  0  0  0  0  0  0  0  0  0
    5.8696  -13.7493   25.6536 C   0  0  0  0  0  0  0  0  0  0  0  0
    5.4830  -12.4305   25.9073 C   0  0  0  0  0  0  0  0  0  0  0  0
   10.7063  -17.0595   25.4178 N   0  0  0  0  0  0  0  0  0  0  0  0
   11.4109  -18.2991   25.6760 C   0  0  1  0  0  0  0  0  0  0  0  0
   12.9206  -18.0784   25.6298 C   0  0  0  0  0  0  0  0  0  0  0  0
   13.3035  -17.7911   24.2154 C   0  0  0  0  0  0  0  0  0  0  0  0
   12.5304  -17.8586   23.0827 C   0  0  0  0  0  0  0  0  0  0  0  0
   13.2565  -17.5182   21.9878 N   0  0  0  0  0  0  0  0  0  0  0  0
   14.4875  -17.2391   22.4538 C   0  0  0  0  0  0  0  0  0  0  0  0
   14.5340  -17.3978   23.7905 N   0  0  0  0  0  0  0  0  0  0  0  0
   11.0471  -18.7127   27.0706 C   0  0  0  0  0  0  0  0  0  0  0  0
   10.3028  -17.8608   27.8739 O   0  0  0  0  0  0  0  0  0  0  0  0
   11.3885  -19.8181   27.5638 O   0  0  0  0  0  0  0  0  0  0  0  0
  1  5  1  0
  2  3  1  0
  2  1  1  0
  3  4  1  0
  4  5  1  0
  5  6  1  1
  6  7  2  0
  8  9  1  0
  9 10  2  0
  9 19  1  0
 10 11  1  0
 11 12  2  0
 12 13  1  0
 14 13  1  1
 14 16  1  0
 15  6  1  0
 15 14  1  0
 16 17  2  0
 18 12  1  0
 19 18  2  0
 20 21  1  0
 20 16  1  0
 21 28  1  0
 21 22  1  1
 23 24  2  0
 23 22  1  0
 25 24  1  0
 26 27  2  0
 26 25  1  0
 27 23  1  0
 28 30  2  0
 28 29  1  0
M  END
$$$$
