PYH.pdb
     RDKit          3D

 30 32  0  0  1  0  0  0  0  0999 V2000
    7.4193  -16.4160   21.4368 N   0  0  0  0  0  0  0  0  0  0  0  0
    6.4892  -16.5333   20.3025 C   0  0  0  0  0  0  0  0  0  0  0  0
    6.9534  -15.3735   19.4462 C   0  0  0  0  0  0  0  0  0  0  0  0
    8.4674  -15.3361   19.6711 C   0  0  0  0  0  0  0  0  0  0  0  0
    8.6817  -16.4065   20.7253 C   0  0  1  0  0  0  0  0  0  0  0  0
    9.8320  -16.0641   21.5949 C   0  0  0  0  0  0  0  0  0  0  0  0
   11.0070  -16.1117   21.1467 O   0  0  0  0  0  0  0  0  0  0  0  0
    4.9660  -14.0991   26.6426 O   0  0  0  0  0  0  0  0  0  0  0  0
    6.2694  -14.0741   26.1408 C   0  0  0  0  0  0  0  0  0  0  0  0
    6.5125  -13.7285   24.8167 C   0  0  0  0  0  0  0  0  0  0  0  0
    7.7952  -13.7030   24.3200 C   0  0  0  0  0  0  0  0  0  0  0  0
    8.8876  -14.0144   25.0996 C   0  0  0  0  0  0  0  0  0  0  0  0
   10.2649  -13.9795   24.5426 C   0  0  0  0  0  0  0  0  0  0  0  0
   10.6083  -15.2644   23.8241 C   0  0  2  0  0  0  0  0  0  0  0  0
    9.5591  -15.6878   22.9269 N   0  0  0  0  0  0  0  0  0  0  0  0
   10.8602  -16.3067   24.8504 C   0  0  0  0  0  0  0  0  0  0  0  0
   11.6264  -16.0389   25.8073 O   0  0  0  0  0  0  0  0  0  0  0  0
    8.6498  -14.3572   26.4114 C   0  0  0  0  0  0  0  0  0  0  0  0
    7.3516  -14.3869   26.9283 C   0  0  0  0  0  0  0  0  0  0  0  0
   10.2853  -17.5901   24.8141 N   0  0  0  0  0  0  0  0  0  0  0  0
   10.4577  -18.6150   25.8238 C   0  0  1  0  0  0  0  0  0  0  0  0
    9.5751  -19.8226   25.5194 C   0  0  0  0  0  0  0  0  0  0  0  0
    8.1734  -19.3391   25.3433 C   0  0  0  0  0  0  0  0  0  0  0  0
    7.5921  -18.1900   25.8195 C   0  0  0  0  0  0  0  0  0  0  0  0
    6.2916  -18.1190   25.4379 N   0  0  0  0  0  0  0  0  0  0  0  0
    6.0732  -19.2361   24.7203 C   0  0  0  0  0  0  0  0  0  0  0  0
    7.1932  -19.9811   24.6530 N   0  0  0  0  0  0  0  0  0  0  0  0
   11.8885  -19.0563   25.7420 C   0  0  0  0  0  0  0  0  0  0  0  0
   12.4622  -19.7463   26.8002 O   0  0  0  0  0  0  0  0  0  0  0  0
   12.6147  -18.8292   24.7407 O   0  0  0  0  0  0  0  0  0  0  0  0
  1  5  1  0
  2  3  1  0
  2  1  1  0
  3  4  1  0
  4  5  1  0
  5  6  1  1
  6  7  2  0
  8  9  1  0
  9 10  2  0
  9 19  1  0
 10 11  1  0
 11 12  2  0
 12 13  1  0
 14 13  1  1
 14 16  1  0
 15  6  1  0
 15 14  1  0
 16 17  2  0
 18 12  1  0
 19 18  2  0
 20 21  1  0
 20 16  1  0
 21 28  1  0
 21 22  1  6
 23 24  2  0
 23 22  1  0
 25 24  1  0
 26 27  2  0
 26 25  1  0
 27 23  1  0
 28 30  2  0
 28 29  1  0
M  END
$$$$
