PYH.pdb
     RDKit          3D

 30 32  0  0  1  0  0  0  0  0999 V2000
    7.3726  -15.3599   19.1412 N   0  0  0  0  0  0  0  0  0  0  0  0
    7.2644  -15.0542   17.7058 C   0  0  0  0  0  0  0  0  0  0  0  0
    7.3874  -13.5449   17.7368 C   0  0  0  0  0  0  0  0  0  0  0  0
    8.3706  -13.2818   18.8806 C   0  0  0  0  0  0  0  0  0  0  0  0
    8.6072  -14.6675   19.4521 C   0  0  1  0  0  0  0  0  0  0  0  0
    8.8783  -14.5960   20.9074 C   0  0  0  0  0  0  0  0  0  0  0  0
   10.0530  -14.4386   21.3306 O   0  0  0  0  0  0  0  0  0  0  0  0
    7.4378  -12.8931   29.3943 O   0  0  0  0  0  0  0  0  0  0  0  0
    7.2514  -13.1690   28.0377 C   0  0  0  0  0  0  0  0  0  0  0  0
    6.7056  -14.3803   27.6293 C   0  0  0  0  0  0  0  0  0  0  0  0
    6.5208  -14.6544   26.2939 C   0  0  0  0  0  0  0  0  0  0  0  0
    6.8629  -13.7544   25.3084 C   0  0  0  0  0  0  0  0  0  0  0  0
    6.6537  -14.0710   23.8716 C   0  0  0  0  0  0  0  0  0  0  0  0
    7.9312  -14.5378   23.2120 C   0  0  2  0  0  0  0  0  0  0  0  0
    7.7805  -14.7098   21.7862 N   0  0  0  0  0  0  0  0  0  0  0  0
    8.3291  -15.8194   23.8462 C   0  0  0  0  0  0  0  0  0  0  0  0
    7.5717  -16.8128   23.7269 O   0  0  0  0  0  0  0  0  0  0  0  0
    7.4037  -12.5540   25.7101 C   0  0  0  0  0  0  0  0  0  0  0  0
    7.5966  -12.2632   27.0634 C   0  0  0  0  0  0  0  0  0  0  0  0
    9.5168  -15.9889   24.5807 N   0  0  0  0  0  0  0  0  0  0  0  0
    9.9870  -17.2413   25.1374 C   0  0  1  0  0  0  0  0  0  0  0  0
   11.4799  -17.4195   24.8737 C   0  0  0  0  0  0  0  0  0  0  0  0
   11.6581  -17.7560   23.4298 C   0  0  0  0  0  0  0  0  0  0  0  0
   10.7094  -18.1194   22.5063 C   0  0  0  0  0  0  0  0  0  0  0  0
   11.2817  -18.3429   21.2962 N   0  0  0  0  0  0  0  0  0  0  0  0
   12.5949  -18.1142   21.4795 C   0  0  0  0  0  0  0  0  0  0  0  0
   12.8393  -17.7604   22.7559 N   0  0  0  0  0  0  0  0  0  0  0  0
    9.7878  -17.1489   26.6207 C   0  0  0  0  0  0  0  0  0  0  0  0
    9.2552  -15.9952   27.1777 O   0  0  0  0  0  0  0  0  0  0  0  0
   10.0847  -18.0844   27.4071 O   0  0  0  0  0  0  0  0  0  0  0  0
  1  5  1  0
  2  3  1  0
  2  1  1  0
  3  4  1  0
  4  5  1  0
  5  6  1  1
  6  7  2  0
  8  9  1  0
  9 10  2  0
  9 19  1  0
 10 11  1  0
 11 12  2  0
 12 13  1  0
 14 13  1  1
 14 16  1  0
 15  6  1  0
 15 14  1  0
 16 17  2  0
 18 12  1  0
 19 18  2  0
 20 21  1  0
 20 16  1  0
 21 28  1  0
 21 22  1  1
 23 24  2  0
 23 22  1  0
 25 24  1  0
 26 27  2  0
 26 25  1  0
 27 23  1  0
 28 30  2  0
 28 29  1  0
M  END
$$$$
