PYH.pdb
     RDKit          3D

 30 32  0  0  1  0  0  0  0  0999 V2000
    7.5391  -15.1589   19.9209 N   0  0  0  0  0  0  0  0  0  0  0  0
    7.3396  -14.5638   18.5899 C   0  0  0  0  0  0  0  0  0  0  0  0
    7.5203  -13.0958   18.9160 C   0  0  0  0  0  0  0  0  0  0  0  0
    8.5921  -13.0935   20.0094 C   0  0  0  0  0  0  0  0  0  0  0  0
    8.8176  -14.5717   20.2684 C   0  0  1  0  0  0  0  0  0  0  0  0
    9.1949  -14.8052   21.6826 C   0  0  0  0  0  0  0  0  0  0  0  0
   10.3330  -14.4710   22.1029 O   0  0  0  0  0  0  0  0  0  0  0  0
    6.9878  -10.3526   27.4960 O   0  0  0  0  0  0  0  0  0  0  0  0
    7.0164  -11.5677   26.8075 C   0  0  0  0  0  0  0  0  0  0  0  0
    7.8883  -12.5796   27.1918 C   0  0  0  0  0  0  0  0  0  0  0  0
    7.9184  -13.7772   26.5155 C   0  0  0  0  0  0  0  0  0  0  0  0
    7.0972  -14.0298   25.4385 C   0  0  0  0  0  0  0  0  0  0  0  0
    7.1457  -15.3313   24.7229 C   0  0  0  0  0  0  0  0  0  0  0  0
    8.4366  -15.4967   23.9538 C   0  0  2  0  0  0  0  0  0  0  0  0
    8.2388  -15.4092   22.5261 N   0  0  0  0  0  0  0  0  0  0  0  0
    9.0153  -16.8152   24.3138 C   0  0  0  0  0  0  0  0  0  0  0  0
    8.4127  -17.8566   23.9575 O   0  0  0  0  0  0  0  0  0  0  0  0
    6.2327  -13.0293   25.0557 C   0  0  0  0  0  0  0  0  0  0  0  0
    6.1923  -11.8081   25.7343 C   0  0  0  0  0  0  0  0  0  0  0  0
   10.2115  -16.9689   25.0379 N   0  0  0  0  0  0  0  0  0  0  0  0
   10.8079  -18.2350   25.4132 C   0  0  1  0  0  0  0  0  0  0  0  0
   12.3278  -18.1708   25.2881 C   0  0  0  0  0  0  0  0  0  0  0  0
   12.6709  -18.1116   23.8361 C   0  0  0  0  0  0  0  0  0  0  0  0
   11.8289  -18.0964   22.7517 C   0  0  0  0  0  0  0  0  0  0  0  0
   12.5388  -18.0382   21.5964 N   0  0  0  0  0  0  0  0  0  0  0  0
   13.8294  -18.0175   21.9764 C   0  0  0  0  0  0  0  0  0  0  0  0
   13.9277  -18.0610   23.3189 N   0  0  0  0  0  0  0  0  0  0  0  0
   10.4721  -18.4517   26.8584 C   0  0  0  0  0  0  0  0  0  0  0  0
   10.8891  -19.6086   27.5006 O   0  0  0  0  0  0  0  0  0  0  0  0
    9.8166  -17.6202   27.5371 O   0  0  0  0  0  0  0  0  0  0  0  0
  1  5  1  0
  2  3  1  0
  2  1  1  0
  3  4  1  0
  4  5  1  0
  5  6  1  1
  6  7  2  0
  8  9  1  0
  9 10  2  0
  9 19  1  0
 10 11  1  0
 11 12  2  0
 12 13  1  0
 14 13  1  1
 14 16  1  0
 15  6  1  0
 15 14  1  0
 16 17  2  0
 18 12  1  0
 19 18  2  0
 20 21  1  0
 20 16  1  0
 21 28  1  0
 21 22  1  1
 23 24  2  0
 23 22  1  0
 25 24  1  0
 26 27  2  0
 26 25  1  0
 27 23  1  0
 28 30  2  0
 28 29  1  0
M  END
$$$$
