LFM.pdb
     RDKit          3D

 28 28  0  0  1  0  0  0  0  0999 V2000
    9.0669  -20.6811   18.7599 C   0  0  0  0  0  0  0  0  0  0  0  0
   10.4564  -20.4397   19.2763 C   0  0  2  0  0  0  0  0  0  0  0  0
   10.8837  -21.6925   20.0418 C   0  0  0  0  0  0  0  0  0  0  0  0
   10.5461  -19.2985   20.2408 C   0  0  0  0  0  0  0  0  0  0  0  0
    9.9878  -18.0059   19.7358 C   0  0  2  0  0  0  0  0  0  0  0  0
   10.7380  -17.4229   18.6611 N   0  0  0  0  0  0  0  0  0  0  0  0
    9.8426  -17.0262   20.8597 C   0  0  0  0  0  0  0  0  0  0  0  0
   10.8443  -16.3130   21.1537 O   0  0  0  0  0  0  0  0  0  0  0  0
    8.6680  -16.8517   21.6052 N   0  0  0  0  0  0  0  0  0  0  0  0
    8.6257  -15.9074   22.6895 C   0  0  1  0  0  0  0  0  0  0  0  0
    7.1952  -15.5492   23.0314 C   0  0  0  0  0  0  0  0  0  0  0  0
    7.0816  -14.5174   24.0846 C   0  0  0  0  0  0  0  0  0  0  0  0
    7.5412  -13.2167   23.9100 C   0  0  0  0  0  0  0  0  0  0  0  0
    7.4251  -12.2703   24.9295 C   0  0  0  0  0  0  0  0  0  0  0  0
    6.8467  -12.6251   26.1301 C   0  0  0  0  0  0  0  0  0  0  0  0
    6.3828  -13.9042   26.3321 C   0  0  0  0  0  0  0  0  0  0  0  0
    6.5115  -14.8043   25.3156 C   0  0  0  0  0  0  0  0  0  0  0  0
    9.2154  -16.4881   23.9353 C   0  0  0  0  0  0  0  0  0  0  0  0
    9.0519  -17.7155   24.1446 O   0  0  0  0  0  0  0  0  0  0  0  0
    9.5619  -12.4036   28.5348 C   0  0  0  0  0  0  0  0  0  0  0  0
   10.3478  -13.8888   29.2131 S   0  0  0  0  0  0  0  0  0  0  0  0
    9.9869  -15.2640   28.0664 C   0  0  0  0  0  0  0  0  0  0  0  0
   11.0726  -15.3187   27.0124 C   0  0  0  0  0  0  0  0  0  0  0  0
   10.7204  -16.3303   25.9519 C   0  0  2  0  0  0  0  0  0  0  0  0
    9.9395  -15.7412   24.8821 N   0  0  0  0  0  0  0  0  0  0  0  0
    9.9072  -17.4417   26.5168 C   0  0  0  0  0  0  0  0  0  0  0  0
   10.4057  -18.2385   27.3529 O   0  0  0  0  0  0  0  0  0  0  0  0
    8.5811  -17.6613   26.1639 O   0  0  0  0  0  0  0  0  0  0  0  0
  2  1  1  1
  2  3  1  0
  2  4  1  0
  4  5  1  0
  5  6  1  6
  7  8  2  0
  7  5  1  0
  9  7  1  0
 10  9  1  0
 10 11  1  1
 12 11  1  0
 12 13  2  0
 14 13  1  0
 15 14  2  0
 16 17  2  0
 16 15  1  0
 17 12  1  0
 18 10  1  0
 19 18  2  0
 20 21  1  0
 21 22  1  0
 23 22  1  0
 24 23  1  1
 24 25  1  0
 25 18  1  0
 26 28  1  0
 26 24  1  0
 27 26  2  0
M  END
$$$$
