LFM.pdb
     RDKit          3D

 28 28  0  0  1  0  0  0  0  0999 V2000
    8.1702  -15.2668   16.7902 C   0  0  0  0  0  0  0  0  0  0  0  0
    7.6354  -14.3999   17.8939 C   0  0  2  0  0  0  0  0  0  0  0  0
    7.4711  -12.9889   17.3280 C   0  0  0  0  0  0  0  0  0  0  0  0
    8.5597  -14.2852   19.0656 C   0  0  0  0  0  0  0  0  0  0  0  0
    8.6366  -15.5071   19.9250 C   0  0  2  0  0  0  0  0  0  0  0  0
    7.4987  -16.3736   19.8158 N   0  0  0  0  0  0  0  0  0  0  0  0
    8.8633  -15.1248   21.3556 C   0  0  0  0  0  0  0  0  0  0  0  0
    9.9631  -14.5767   21.6526 O   0  0  0  0  0  0  0  0  0  0  0  0
    7.9342  -15.3375   22.3840 N   0  0  0  0  0  0  0  0  0  0  0  0
    8.1892  -14.8443   23.7110 C   0  0  1  0  0  0  0  0  0  0  0  0
    6.9074  -14.3680   24.3603 C   0  0  0  0  0  0  0  0  0  0  0  0
    7.1208  -13.6836   25.6537 C   0  0  0  0  0  0  0  0  0  0  0  0
    7.5622  -12.3679   25.7397 C   0  0  0  0  0  0  0  0  0  0  0  0
    7.7610  -11.7558   26.9784 C   0  0  0  0  0  0  0  0  0  0  0  0
    7.5175  -12.4620   28.1377 C   0  0  0  0  0  0  0  0  0  0  0  0
    7.0799  -13.7649   28.0842 C   0  0  0  0  0  0  0  0  0  0  0  0
    6.8958  -14.3330   26.8580 C   0  0  0  0  0  0  0  0  0  0  0  0
    8.7241  -15.9250   24.5959 C   0  0  0  0  0  0  0  0  0  0  0  0
    8.1836  -17.0568   24.5314 O   0  0  0  0  0  0  0  0  0  0  0  0
   14.5296  -15.4754   24.2866 C   0  0  0  0  0  0  0  0  0  0  0  0
   14.3425  -15.2874   26.0792 S   0  0  0  0  0  0  0  0  0  0  0  0
   12.5616  -15.4366   26.4562 C   0  0  0  0  0  0  0  0  0  0  0  0
   12.0290  -16.6970   25.8076 C   0  0  0  0  0  0  0  0  0  0  0  0
   10.5520  -16.8370   26.0735 C   0  0  2  0  0  0  0  0  0  0  0  0
    9.7931  -15.7471   25.4924 N   0  0  0  0  0  0  0  0  0  0  0  0
   10.2648  -16.8309   27.5340 C   0  0  0  0  0  0  0  0  0  0  0  0
    9.6739  -15.8559   28.0659 O   0  0  0  0  0  0  0  0  0  0  0  0
   10.6228  -17.8755   28.3778 O   0  0  0  0  0  0  0  0  0  0  0  0
  2  1  1  6
  2  3  1  0
  2  4  1  0
  4  5  1  0
  5  6  1  1
  7  8  2  0
  7  5  1  0
  9  7  1  0
 10  9  1  0
 10 11  1  1
 12 11  1  0
 12 13  2  0
 14 13  1  0
 15 14  2  0
 16 17  2  0
 16 15  1  0
 17 12  1  0
 18 10  1  0
 19 18  2  0
 20 21  1  0
 21 22  1  0
 23 22  1  0
 24 23  1  1
 24 25  1  0
 25 18  1  0
 26 28  1  0
 26 24  1  0
 27 26  2  0
M  END
$$$$
