LFM.pdb
     RDKit          3D

 28 28  0  0  1  0  0  0  0  0999 V2000
    7.4311  -19.0925   18.6898 C   0  0  0  0  0  0  0  0  0  0  0  0
    8.7404  -19.4667   19.3234 C   0  0  2  0  0  0  0  0  0  0  0  0
    8.5578  -20.8383   19.9740 C   0  0  0  0  0  0  0  0  0  0  0  0
    9.1673  -18.5314   20.4112 C   0  0  0  0  0  0  0  0  0  0  0  0
    9.0880  -17.0803   20.0569 C   0  0  2  0  0  0  0  0  0  0  0  0
   10.0508  -16.6617   19.0794 N   0  0  0  0  0  0  0  0  0  0  0  0
    9.1979  -16.2359   21.2895 C   0  0  0  0  0  0  0  0  0  0  0  0
   10.3545  -16.0031   21.7438 O   0  0  0  0  0  0  0  0  0  0  0  0
    8.1004  -15.6896   21.9699 N   0  0  0  0  0  0  0  0  0  0  0  0
    8.2899  -14.9698   23.2008 C   0  0  1  0  0  0  0  0  0  0  0  0
    7.0211  -14.2464   23.5984 C   0  0  0  0  0  0  0  0  0  0  0  0
    7.1394  -13.5058   24.8728 C   0  0  0  0  0  0  0  0  0  0  0  0
    6.4421  -13.8727   26.0185 C   0  0  0  0  0  0  0  0  0  0  0  0
    6.5714  -13.1450   27.2028 C   0  0  0  0  0  0  0  0  0  0  0  0
    7.4020  -12.0449   27.2428 C   0  0  0  0  0  0  0  0  0  0  0  0
    8.1047  -11.6579   26.1254 C   0  0  0  0  0  0  0  0  0  0  0  0
    7.9557  -12.3905   24.9847 C   0  0  0  0  0  0  0  0  0  0  0  0
    8.6055  -15.9006   24.3283 C   0  0  0  0  0  0  0  0  0  0  0  0
    7.7565  -16.7792   24.6184 O   0  0  0  0  0  0  0  0  0  0  0  0
   14.0394  -18.9898   23.1155 C   0  0  0  0  0  0  0  0  0  0  0  0
   13.6674  -18.3321   24.7625 S   0  0  0  0  0  0  0  0  0  0  0  0
   11.8979  -17.8794   24.7778 C   0  0  0  0  0  0  0  0  0  0  0  0
   11.5829  -17.1848   26.0858 C   0  0  0  0  0  0  0  0  0  0  0  0
   10.1292  -16.7889   26.1299 C   0  0  2  0  0  0  0  0  0  0  0  0
    9.7937  -15.8482   25.0791 N   0  0  0  0  0  0  0  0  0  0  0  0
    9.7891  -16.1311   27.4211 C   0  0  0  0  0  0  0  0  0  0  0  0
    9.8665  -14.8814   27.5426 O   0  0  0  0  0  0  0  0  0  0  0  0
    9.3758  -16.8395   28.5430 O   0  0  0  0  0  0  0  0  0  0  0  0
  2  1  1  1
  2  3  1  0
  2  4  1  0
  4  5  1  0
  5  6  1  6
  7  8  2  0
  7  5  1  0
  9  7  1  0
 10  9  1  0
 10 11  1  1
 12 11  1  0
 12 13  2  0
 14 13  1  0
 15 14  2  0
 16 17  2  0
 16 15  1  0
 17 12  1  0
 18 10  1  0
 19 18  2  0
 20 21  1  0
 21 22  1  0
 23 22  1  0
 24 23  1  1
 24 25  1  0
 25 18  1  0
 26 28  1  0
 26 24  1  0
 27 26  2  0
M  END
$$$$
