LFM.pdb
     RDKit          3D

 28 28  0  0  1  0  0  0  0  0999 V2000
    7.6184  -12.7364   18.7146 C   0  0  0  0  0  0  0  0  0  0  0  0
    8.4925  -13.9428   18.5243 C   0  0  2  0  0  0  0  0  0  0  0  0
    8.8903  -13.9908   17.0487 C   0  0  0  0  0  0  0  0  0  0  0  0
    7.8002  -15.2360   18.8223 C   0  0  0  0  0  0  0  0  0  0  0  0
    8.4802  -16.0897   19.8451 C   0  0  2  0  0  0  0  0  0  0  0  0
    7.8155  -17.3337   20.1066 N   0  0  0  0  0  0  0  0  0  0  0  0
    8.6714  -15.3248   21.1189 C   0  0  0  0  0  0  0  0  0  0  0  0
    9.5691  -14.4349   21.1437 O   0  0  0  0  0  0  0  0  0  0  0  0
    7.9191  -15.5343   22.2835 N   0  0  0  0  0  0  0  0  0  0  0  0
    8.0893  -14.6770   23.4259 C   0  0  1  0  0  0  0  0  0  0  0  0
    6.9905  -14.9127   24.4402 C   0  0  0  0  0  0  0  0  0  0  0  0
    6.9438  -13.8898   25.5070 C   0  0  0  0  0  0  0  0  0  0  0  0
    5.9584  -12.9103   25.5614 C   0  0  0  0  0  0  0  0  0  0  0  0
    5.9500  -11.9547   26.5790 C   0  0  0  0  0  0  0  0  0  0  0  0
    6.9314  -11.9777   27.5475 C   0  0  0  0  0  0  0  0  0  0  0  0
    7.9191  -12.9347   27.5200 C   0  0  0  0  0  0  0  0  0  0  0  0
    7.8982  -13.8535   26.5123 C   0  0  0  0  0  0  0  0  0  0  0  0
    9.3744  -14.9682   24.1337 C   0  0  0  0  0  0  0  0  0  0  0  0
   10.1403  -14.0037   24.3790 O   0  0  0  0  0  0  0  0  0  0  0  0
   10.9802  -13.6906   28.8775 C   0  0  0  0  0  0  0  0  0  0  0  0
   10.1187  -15.1772   29.4531 S   0  0  0  0  0  0  0  0  0  0  0  0
   10.4594  -16.5029   28.2436 C   0  0  0  0  0  0  0  0  0  0  0  0
    9.6615  -16.2328   26.9854 C   0  0  0  0  0  0  0  0  0  0  0  0
   10.4945  -16.5305   25.7649 C   0  0  2  0  0  0  0  0  0  0  0  0
    9.7726  -16.2551   24.5383 N   0  0  0  0  0  0  0  0  0  0  0  0
   10.8892  -17.9649   25.7191 C   0  0  0  0  0  0  0  0  0  0  0  0
   12.0892  -18.3041   25.8852 O   0  0  0  0  0  0  0  0  0  0  0  0
    9.9792  -18.9913   25.4959 O   0  0  0  0  0  0  0  0  0  0  0  0
  2  1  1  6
  2  3  1  0
  2  4  1  0
  4  5  1  0
  5  6  1  1
  7  8  2  0
  7  5  1  0
  9  7  1  0
 10  9  1  0
 10 11  1  1
 12 11  1  0
 12 13  2  0
 14 13  1  0
 15 14  2  0
 16 17  2  0
 16 15  1  0
 17 12  1  0
 18 10  1  0
 19 18  2  0
 20 21  1  0
 21 22  1  0
 23 22  1  0
 24 23  1  1
 24 25  1  0
 25 18  1  0
 26 28  1  0
 26 24  1  0
 27 26  2  0
M  END
$$$$
