LFM.pdb
     RDKit          3D

 28 28  0  0  1  0  0  0  0  0999 V2000
    9.1127  -20.2429   18.5989 C   0  0  0  0  0  0  0  0  0  0  0  0
   10.4896  -20.2027   19.1976 C   0  0  2  0  0  0  0  0  0  0  0  0
   10.6962  -21.5137   19.9569 C   0  0  0  0  0  0  0  0  0  0  0  0
   10.6776  -19.0993   20.1914 C   0  0  0  0  0  0  0  0  0  0  0  0
   10.1864  -17.7601   19.7412 C   0  0  2  0  0  0  0  0  0  0  0  0
   11.0196  -17.1297   18.7584 N   0  0  0  0  0  0  0  0  0  0  0  0
    9.9932  -16.8531   20.9178 C   0  0  0  0  0  0  0  0  0  0  0  0
   10.9826  -16.1660   21.3017 O   0  0  0  0  0  0  0  0  0  0  0  0
    8.7864  -16.7196   21.6191 N   0  0  0  0  0  0  0  0  0  0  0  0
    8.6572  -15.7456   22.6697 C   0  0  1  0  0  0  0  0  0  0  0  0
    7.2047  -15.3744   22.8794 C   0  0  0  0  0  0  0  0  0  0  0  0
    7.0002  -14.3767   23.9516 C   0  0  0  0  0  0  0  0  0  0  0  0
    7.3622  -13.0417   23.8099 C   0  0  0  0  0  0  0  0  0  0  0  0
    7.1621  -12.1287   24.8467 C   0  0  0  0  0  0  0  0  0  0  0  0
    6.5972  -12.5516   26.0316 C   0  0  0  0  0  0  0  0  0  0  0  0
    6.2287  -13.8660   26.2009 C   0  0  0  0  0  0  0  0  0  0  0  0
    6.4379  -14.7320   25.1683 C   0  0  0  0  0  0  0  0  0  0  0  0
    9.1366  -16.2931   23.9764 C   0  0  0  0  0  0  0  0  0  0  0  0
    9.0881  -17.5368   24.1442 O   0  0  0  0  0  0  0  0  0  0  0  0
   10.6360  -12.8273   29.1446 C   0  0  0  0  0  0  0  0  0  0  0  0
   11.0984  -14.4246   29.8646 S   0  0  0  0  0  0  0  0  0  0  0  0
   11.0562  -15.6580   28.5181 C   0  0  0  0  0  0  0  0  0  0  0  0
   10.3985  -15.0345   27.3051 C   0  0  0  0  0  0  0  0  0  0  0  0
   10.3495  -16.0255   26.1704 C   0  0  2  0  0  0  0  0  0  0  0  0
    9.6364  -15.4983   25.0236 N   0  0  0  0  0  0  0  0  0  0  0  0
    9.6487  -17.2744   26.5762 C   0  0  0  0  0  0  0  0  0  0  0  0
   10.2602  -18.1757   27.2058 O   0  0  0  0  0  0  0  0  0  0  0  0
    8.3099  -17.5150   26.2915 O   0  0  0  0  0  0  0  0  0  0  0  0
  2  1  1  1
  2  3  1  0
  2  4  1  0
  4  5  1  0
  5  6  1  6
  7  8  2  0
  7  5  1  0
  9  7  1  0
 10  9  1  0
 10 11  1  1
 12 11  1  0
 12 13  2  0
 14 13  1  0
 15 14  2  0
 16 17  2  0
 16 15  1  0
 17 12  1  0
 18 10  1  0
 19 18  2  0
 20 21  1  0
 21 22  1  0
 23 22  1  0
 24 23  1  1
 24 25  1  0
 25 18  1  0
 26 28  1  0
 26 24  1  0
 27 26  2  0
M  END
$$$$
