LFM.pdb
     RDKit          3D

 28 28  0  0  1  0  0  0  0  0999 V2000
    7.7317  -12.5145   18.1874 C   0  0  0  0  0  0  0  0  0  0  0  0
    7.5659  -13.6350   19.1739 C   0  0  2  0  0  0  0  0  0  0  0  0
    7.3548  -13.0043   20.5507 C   0  0  0  0  0  0  0  0  0  0  0  0
    8.7714  -14.5149   19.2875 C   0  0  0  0  0  0  0  0  0  0  0  0
    8.6114  -15.6807   20.2110 C   0  0  2  0  0  0  0  0  0  0  0  0
    7.3330  -16.3257   20.1256 N   0  0  0  0  0  0  0  0  0  0  0  0
    8.8925  -15.2692   21.6237 C   0  0  0  0  0  0  0  0  0  0  0  0
    9.9785  -14.6656   21.8574 O   0  0  0  0  0  0  0  0  0  0  0  0
    8.0285  -15.5118   22.7011 N   0  0  0  0  0  0  0  0  0  0  0  0
    8.3637  -15.0531   24.0226 C   0  0  1  0  0  0  0  0  0  0  0  0
    7.1114  -14.7819   24.8285 C   0  0  0  0  0  0  0  0  0  0  0  0
    7.3746  -14.1063   26.1173 C   0  0  0  0  0  0  0  0  0  0  0  0
    7.2599  -12.7298   26.2773 C   0  0  0  0  0  0  0  0  0  0  0  0
    7.5245  -12.1245   27.5070 C   0  0  0  0  0  0  0  0  0  0  0  0
    7.9057  -12.8984   28.5829 C   0  0  0  0  0  0  0  0  0  0  0  0
    8.0275  -14.2626   28.4550 C   0  0  0  0  0  0  0  0  0  0  0  0
    7.7617  -14.8222   27.2400 C   0  0  0  0  0  0  0  0  0  0  0  0
    9.1248  -16.0947   24.7795 C   0  0  0  0  0  0  0  0  0  0  0  0
    8.6907  -17.2729   24.7534 O   0  0  0  0  0  0  0  0  0  0  0  0
   15.0934  -16.9407   24.1097 C   0  0  0  0  0  0  0  0  0  0  0  0
   14.8888  -15.4261   25.0833 S   0  0  0  0  0  0  0  0  0  0  0  0
   13.2487  -15.5136   25.8825 C   0  0  0  0  0  0  0  0  0  0  0  0
   12.5513  -16.7788   25.4288 C   0  0  0  0  0  0  0  0  0  0  0  0
   11.1732  -16.8610   26.0339 C   0  0  2  0  0  0  0  0  0  0  0  0
   10.2938  -15.8315   25.5159 N   0  0  0  0  0  0  0  0  0  0  0  0
   11.2220  -16.6825   27.5107 C   0  0  0  0  0  0  0  0  0  0  0  0
   10.7650  -15.6391   28.0447 O   0  0  0  0  0  0  0  0  0  0  0  0
   11.7618  -17.6335   28.3684 O   0  0  0  0  0  0  0  0  0  0  0  0
  2  1  1  6
  2  3  1  0
  2  4  1  0
  4  5  1  0
  5  6  1  1
  7  8  2  0
  7  5  1  0
  9  7  1  0
 10  9  1  0
 10 11  1  1
 12 11  1  0
 12 13  2  0
 14 13  1  0
 15 14  2  0
 16 17  2  0
 16 15  1  0
 17 12  1  0
 18 10  1  0
 19 18  2  0
 20 21  1  0
 21 22  1  0
 23 22  1  0
 24 23  1  6
 24 25  1  0
 25 18  1  0
 26 28  1  0
 26 24  1  0
 27 26  2  0
M  END
$$$$
