LFM.pdb
     RDKit          3D

 28 28  0  0  1  0  0  0  0  0999 V2000
   11.2245  -19.1184   17.7155 C   0  0  0  0  0  0  0  0  0  0  0  0
    9.8554  -18.5024   17.6696 C   0  0  2  0  0  0  0  0  0  0  0  0
    9.6505  -17.9486   16.2592 C   0  0  0  0  0  0  0  0  0  0  0  0
    9.6863  -17.3501   18.6097 C   0  0  0  0  0  0  0  0  0  0  0  0
    9.8241  -17.6975   20.0581 C   0  0  2  0  0  0  0  0  0  0  0  0
    9.0399  -18.8267   20.4676 N   0  0  0  0  0  0  0  0  0  0  0  0
    9.5080  -16.5080   20.9120 C   0  0  0  0  0  0  0  0  0  0  0  0
   10.1226  -15.4296   20.6722 O   0  0  0  0  0  0  0  0  0  0  0  0
    8.5756  -16.5162   21.9592 N   0  0  0  0  0  0  0  0  0  0  0  0
    8.4608  -15.3866   22.8425 C   0  0  1  0  0  0  0  0  0  0  0  0
    7.1341  -15.4099   23.5711 C   0  0  0  0  0  0  0  0  0  0  0  0
    6.9641  -14.2902   24.5219 C   0  0  0  0  0  0  0  0  0  0  0  0
    6.2671  -14.4237   25.7176 C   0  0  0  0  0  0  0  0  0  0  0  0
    6.1190  -13.3424   26.5880 C   0  0  0  0  0  0  0  0  0  0  0  0
    6.6702  -12.1210   26.2621 C   0  0  0  0  0  0  0  0  0  0  0  0
    7.3653  -11.9586   25.0863 C   0  0  0  0  0  0  0  0  0  0  0  0
    7.4916  -13.0352   24.2585 C   0  0  0  0  0  0  0  0  0  0  0  0
    9.5153  -15.4201   23.9027 C   0  0  0  0  0  0  0  0  0  0  0  0
   10.4948  -14.6438   23.7801 O   0  0  0  0  0  0  0  0  0  0  0  0
   11.1269  -12.5837   28.1325 C   0  0  0  0  0  0  0  0  0  0  0  0
   10.9118  -14.2667   28.7689 S   0  0  0  0  0  0  0  0  0  0  0  0
    9.7410  -15.1205   27.6570 C   0  0  0  0  0  0  0  0  0  0  0  0
   10.2961  -16.4886   27.3209 C   0  0  0  0  0  0  0  0  0  0  0  0
   10.6233  -16.5730   25.8520 C   0  0  2  0  0  0  0  0  0  0  0  0
    9.4729  -16.2677   25.0243 N   0  0  0  0  0  0  0  0  0  0  0  0
   11.0716  -17.9421   25.4779 C   0  0  0  0  0  0  0  0  0  0  0  0
   12.2585  -18.3051   25.6827 O   0  0  0  0  0  0  0  0  0  0  0  0
   10.2276  -18.8793   24.8942 O   0  0  0  0  0  0  0  0  0  0  0  0
  2  1  1  6
  2  3  1  0
  2  4  1  0
  4  5  1  0
  5  6  1  1
  7  8  2  0
  7  5  1  0
  9  7  1  0
 10  9  1  0
 10 11  1  1
 12 11  1  0
 12 13  2  0
 14 13  1  0
 15 14  2  0
 16 17  2  0
 16 15  1  0
 17 12  1  0
 18 10  1  0
 19 18  2  0
 20 21  1  0
 21 22  1  0
 23 22  1  0
 24 23  1  1
 24 25  1  0
 25 18  1  0
 26 28  1  0
 26 24  1  0
 27 26  2  0
M  END
$$$$
