LFM.pdb
     RDKit          3D

 28 28  0  0  1  0  0  0  0  0999 V2000
    9.5115  -21.0696   19.8055 C   0  0  0  0  0  0  0  0  0  0  0  0
   10.7534  -20.5044   20.4333 C   0  0  2  0  0  0  0  0  0  0  0  0
   11.2870  -21.5503   21.4128 C   0  0  0  0  0  0  0  0  0  0  0  0
   10.5085  -19.2602   21.2285 C   0  0  0  0  0  0  0  0  0  0  0  0
    9.8473  -18.1525   20.4712 C   0  0  2  0  0  0  0  0  0  0  0  0
   10.5146  -17.7951   19.2527 N   0  0  0  0  0  0  0  0  0  0  0  0
    9.6833  -16.9480   21.3465 C   0  0  0  0  0  0  0  0  0  0  0  0
   10.6216  -16.1009   21.3664 O   0  0  0  0  0  0  0  0  0  0  0  0
    8.5567  -16.7021   22.1443 N   0  0  0  0  0  0  0  0  0  0  0  0
    8.4652  -15.4982   22.9263 C   0  0  1  0  0  0  0  0  0  0  0  0
    7.0794  -15.3474   23.5163 C   0  0  0  0  0  0  0  0  0  0  0  0
    6.9494  -14.1900   24.4274 C   0  0  0  0  0  0  0  0  0  0  0  0
    6.4224  -14.3027   25.7092 C   0  0  0  0  0  0  0  0  0  0  0  0
    6.3066  -13.1866   26.5396 C   0  0  0  0  0  0  0  0  0  0  0  0
    6.7196  -11.9511   26.0870 C   0  0  0  0  0  0  0  0  0  0  0  0
    7.2450  -11.8086   24.8238 C   0  0  0  0  0  0  0  0  0  0  0  0
    7.3443  -12.9190   24.0382 C   0  0  0  0  0  0  0  0  0  0  0  0
    9.4071  -15.5351   24.0876 C   0  0  0  0  0  0  0  0  0  0  0  0
    9.8506  -14.4417   24.5178 O   0  0  0  0  0  0  0  0  0  0  0  0
    8.9834  -13.7334   28.9003 C   0  0  0  0  0  0  0  0  0  0  0  0
   10.5606  -14.5972   29.1232 S   0  0  0  0  0  0  0  0  0  0  0  0
   10.3601  -16.2770   28.4345 C   0  0  0  0  0  0  0  0  0  0  0  0
    9.6424  -16.1772   27.1049 C   0  0  0  0  0  0  0  0  0  0  0  0
   10.4966  -16.7556   26.0059 C   0  0  2  0  0  0  0  0  0  0  0  0
    9.8229  -16.7191   24.7228 N   0  0  0  0  0  0  0  0  0  0  0  0
   10.8300  -18.1807   26.2765 C   0  0  0  0  0  0  0  0  0  0  0  0
   10.1630  -19.1060   25.7460 O   0  0  0  0  0  0  0  0  0  0  0  0
   11.8724  -18.5664   27.1108 O   0  0  0  0  0  0  0  0  0  0  0  0
  2  1  1  1
  2  3  1  0
  2  4  1  0
  4  5  1  0
  5  6  1  6
  7  8  2  0
  7  5  1  0
  9  7  1  0
 10  9  1  0
 10 11  1  1
 12 11  1  0
 12 13  2  0
 14 13  1  0
 15 14  2  0
 16 17  2  0
 16 15  1  0
 17 12  1  0
 18 10  1  0
 19 18  2  0
 20 21  1  0
 21 22  1  0
 23 22  1  0
 24 23  1  1
 24 25  1  0
 25 18  1  0
 26 28  1  0
 26 24  1  0
 27 26  2  0
M  END
$$$$
