LFM.pdb
     RDKit          3D

 28 28  0  0  1  0  0  0  0  0999 V2000
    8.3120  -19.6497   18.8869 C   0  0  0  0  0  0  0  0  0  0  0  0
    9.6924  -19.6219   19.4782 C   0  0  2  0  0  0  0  0  0  0  0  0
    9.9604  -21.0024   20.0784 C   0  0  0  0  0  0  0  0  0  0  0  0
    9.8458  -18.6345   20.5926 C   0  0  0  0  0  0  0  0  0  0  0  0
    9.4474  -17.2343   20.2485 C   0  0  2  0  0  0  0  0  0  0  0  0
   10.2275  -16.6435   19.1997 N   0  0  0  0  0  0  0  0  0  0  0  0
    9.4786  -16.3682   21.4704 C   0  0  0  0  0  0  0  0  0  0  0  0
   10.5974  -15.9106   21.8408 O   0  0  0  0  0  0  0  0  0  0  0  0
    8.3469  -16.0348   22.2281 N   0  0  0  0  0  0  0  0  0  0  0  0
    8.4672  -15.1897   23.3859 C   0  0  1  0  0  0  0  0  0  0  0  0
    7.1291  -14.5793   23.7441 C   0  0  0  0  0  0  0  0  0  0  0  0
    7.1800  -13.7056   24.9361 C   0  0  0  0  0  0  0  0  0  0  0  0
    6.7642  -14.1305   26.1931 C   0  0  0  0  0  0  0  0  0  0  0  0
    6.8184  -13.2755   27.2953 C   0  0  0  0  0  0  0  0  0  0  0  0
    7.2905  -11.9890   27.1409 C   0  0  0  0  0  0  0  0  0  0  0  0
    7.7090  -11.5405   25.9098 C   0  0  0  0  0  0  0  0  0  0  0  0
    7.6430  -12.4011   24.8538 C   0  0  0  0  0  0  0  0  0  0  0  0
    8.8982  -15.9734   24.5848 C   0  0  0  0  0  0  0  0  0  0  0  0
    8.2718  -17.0287   24.8516 O   0  0  0  0  0  0  0  0  0  0  0  0
   14.7340  -17.5894   24.9837 C   0  0  0  0  0  0  0  0  0  0  0  0
   14.5288  -17.6017   26.7841 S   0  0  0  0  0  0  0  0  0  0  0  0
   12.7367  -17.5134   27.1254 C   0  0  0  0  0  0  0  0  0  0  0  0
   12.0983  -16.5578   26.1394 C   0  0  0  0  0  0  0  0  0  0  0  0
   10.6087  -16.4962   26.3616 C   0  0  2  0  0  0  0  0  0  0  0  0
    9.9602  -15.5977   25.4270 N   0  0  0  0  0  0  0  0  0  0  0  0
   10.2882  -16.0006   27.7280 C   0  0  0  0  0  0  0  0  0  0  0  0
   10.6449  -16.6504   28.7445 O   0  0  0  0  0  0  0  0  0  0  0  0
    9.5929  -14.8196   27.9586 O   0  0  0  0  0  0  0  0  0  0  0  0
  2  1  1  1
  2  3  1  0
  2  4  1  0
  4  5  1  0
  5  6  1  6
  7  8  2  0
  7  5  1  0
  9  7  1  0
 10  9  1  0
 10 11  1  1
 12 11  1  0
 12 13  2  0
 14 13  1  0
 15 14  2  0
 16 17  2  0
 16 15  1  0
 17 12  1  0
 18 10  1  0
 19 18  2  0
 20 21  1  0
 21 22  1  0
 23 22  1  0
 24 23  1  6
 24 25  1  0
 25 18  1  0
 26 28  1  0
 26 24  1  0
 27 26  2  0
M  END
$$$$
