LFM.pdb
     RDKit          3D

 28 28  0  0  1  0  0  0  0  0999 V2000
   11.7516  -19.3491   17.6994 C   0  0  0  0  0  0  0  0  0  0  0  0
   10.6748  -18.3380   17.4271 C   0  0  2  0  0  0  0  0  0  0  0  0
   11.0988  -17.5398   16.1938 C   0  0  0  0  0  0  0  0  0  0  0  0
   10.4904  -17.3478   18.5342 C   0  0  0  0  0  0  0  0  0  0  0  0
   10.1512  -17.9479   19.8617 C   0  0  2  0  0  0  0  0  0  0  0  0
    9.0200  -18.8295   19.8351 N   0  0  0  0  0  0  0  0  0  0  0  0
    9.9474  -16.8717   20.8836 C   0  0  0  0  0  0  0  0  0  0  0  0
   10.8465  -15.9904   20.9997 O   0  0  0  0  0  0  0  0  0  0  0  0
    8.8246  -16.7813   21.7186 N   0  0  0  0  0  0  0  0  0  0  0  0
    8.7521  -15.7674   22.7363 C   0  0  1  0  0  0  0  0  0  0  0  0
    7.3108  -15.4399   23.0636 C   0  0  0  0  0  0  0  0  0  0  0  0
    7.1623  -14.3065   24.0016 C   0  0  0  0  0  0  0  0  0  0  0  0
    7.5622  -13.0137   23.6819 C   0  0  0  0  0  0  0  0  0  0  0  0
    7.4146  -11.9688   24.5957 C   0  0  0  0  0  0  0  0  0  0  0  0
    6.8644  -12.2166   25.8357 C   0  0  0  0  0  0  0  0  0  0  0  0
    6.4593  -13.4852   26.1804 C   0  0  0  0  0  0  0  0  0  0  0  0
    6.6176  -14.4833   25.2645 C   0  0  0  0  0  0  0  0  0  0  0  0
    9.3691  -16.2393   24.0145 C   0  0  0  0  0  0  0  0  0  0  0  0
    8.9115  -17.2867   24.5348 O   0  0  0  0  0  0  0  0  0  0  0  0
    9.3305  -13.2901   29.2778 C   0  0  0  0  0  0  0  0  0  0  0  0
   10.8109  -14.2764   29.6228 S   0  0  0  0  0  0  0  0  0  0  0  0
   10.8421  -15.6465   28.4153 C   0  0  0  0  0  0  0  0  0  0  0  0
   10.3830  -15.1230   27.0707 C   0  0  0  0  0  0  0  0  0  0  0  0
   10.9503  -15.9689   25.9595 C   0  0  2  0  0  0  0  0  0  0  0  0
   10.4280  -15.5800   24.6644 N   0  0  0  0  0  0  0  0  0  0  0  0
   10.6082  -17.4052   26.1480 C   0  0  0  0  0  0  0  0  0  0  0  0
   11.3825  -18.3069   25.7356 O   0  0  0  0  0  0  0  0  0  0  0  0
    9.4421  -17.8272   26.7752 O   0  0  0  0  0  0  0  0  0  0  0  0
  2  1  1  1
  2  3  1  0
  2  4  1  0
  4  5  1  0
  5  6  1  6
  7  8  2  0
  7  5  1  0
  9  7  1  0
 10  9  1  0
 10 11  1  1
 12 11  1  0
 12 13  2  0
 14 13  1  0
 15 14  2  0
 16 17  2  0
 16 15  1  0
 17 12  1  0
 18 10  1  0
 19 18  2  0
 20 21  1  0
 21 22  1  0
 23 22  1  0
 24 23  1  1
 24 25  1  0
 25 18  1  0
 26 28  1  0
 26 24  1  0
 27 26  2  0
M  END
$$$$
