LFM.pdb
     RDKit          3D

 28 28  0  0  1  0  0  0  0  0999 V2000
    9.1055  -20.3800   18.9525 C   0  0  0  0  0  0  0  0  0  0  0  0
   10.5484  -20.0224   19.1671 C   0  0  2  0  0  0  0  0  0  0  0  0
   11.2188  -21.2163   19.8477 C   0  0  0  0  0  0  0  0  0  0  0  0
   10.7450  -18.8480   20.0741 C   0  0  0  0  0  0  0  0  0  0  0  0
   10.0331  -17.6027   19.6500 C   0  0  2  0  0  0  0  0  0  0  0  0
   10.6215  -16.9473   18.5177 N   0  0  0  0  0  0  0  0  0  0  0  0
    9.9188  -16.6500   20.8004 C   0  0  0  0  0  0  0  0  0  0  0  0
   10.9184  -15.9228   21.0658 O   0  0  0  0  0  0  0  0  0  0  0  0
    8.7751  -16.5153   21.6004 N   0  0  0  0  0  0  0  0  0  0  0  0
    8.7424  -15.5545   22.6704 C   0  0  1  0  0  0  0  0  0  0  0  0
    7.3152  -15.1855   23.0146 C   0  0  0  0  0  0  0  0  0  0  0  0
    7.2094  -14.2007   24.1126 C   0  0  0  0  0  0  0  0  0  0  0  0
    7.8098  -12.9479   24.0540 C   0  0  0  0  0  0  0  0  0  0  0  0
    7.6962  -12.0459   25.1134 C   0  0  0  0  0  0  0  0  0  0  0  0
    6.9788  -12.3974   26.2375 C   0  0  0  0  0  0  0  0  0  0  0  0
    6.3737  -13.6297   26.3243 C   0  0  0  0  0  0  0  0  0  0  0  0
    6.5042  -14.4871   25.2717 C   0  0  0  0  0  0  0  0  0  0  0  0
    9.3367  -16.1185   23.9217 C   0  0  0  0  0  0  0  0  0  0  0  0
    8.8185  -17.1574   24.4005 O   0  0  0  0  0  0  0  0  0  0  0  0
    9.5377  -12.8481   29.1989 C   0  0  0  0  0  0  0  0  0  0  0  0
   10.3610  -14.3971   28.7450 S   0  0  0  0  0  0  0  0  0  0  0  0
    9.5037  -15.0546   27.2723 C   0  0  0  0  0  0  0  0  0  0  0  0
   10.1438  -16.3700   26.8813 C   0  0  0  0  0  0  0  0  0  0  0  0
   11.0940  -16.1662   25.7290 C   0  0  2  0  0  0  0  0  0  0  0  0
   10.4381  -15.5543   24.5902 N   0  0  0  0  0  0  0  0  0  0  0  0
   11.6547  -17.4619   25.2578 C   0  0  0  0  0  0  0  0  0  0  0  0
   11.3790  -17.8993   24.1109 O   0  0  0  0  0  0  0  0  0  0  0  0
   12.4958  -18.2479   26.0363 O   0  0  0  0  0  0  0  0  0  0  0  0
  2  1  1  1
  2  3  1  0
  2  4  1  0
  4  5  1  0
  5  6  1  6
  7  8  2  0
  7  5  1  0
  9  7  1  0
 10  9  1  0
 10 11  1  1
 12 11  1  0
 12 13  2  0
 14 13  1  0
 15 14  2  0
 16 17  2  0
 16 15  1  0
 17 12  1  0
 18 10  1  0
 19 18  2  0
 20 21  1  0
 21 22  1  0
 23 22  1  0
 24 23  1  1
 24 25  1  0
 25 18  1  0
 26 28  1  0
 26 24  1  0
 27 26  2  0
M  END
$$$$
