SKQ.pdb
     RDKit          3D

 25 24  0  0  1  0  0  0  0  0999 V2000
   16.0132  -10.9814  -17.1430 O   0  0  0  0  0  0  0  0  0  0  0  0
   17.1747  -10.4160  -16.6300 C   0  0  0  0  0  0  0  0  0  0  0  0
   18.2480  -11.4787  -16.6055 C   0  0  2  0  0  0  0  0  0  0  0  0
   17.8182  -12.6199  -15.9351 N   0  0  0  0  0  0  0  0  0  0  0  0
   19.5106  -10.8985  -16.0070 C   0  0  0  0  0  0  0  0  0  0  0  0
   19.5201  -10.4066  -14.8767 O   0  0  0  0  0  0  0  0  0  0  0  0
   20.6682  -10.9319  -16.7644 N   0  0  0  0  0  0  0  0  0  0  0  0
   21.9948  -10.5395  -16.5122 C   0  0  1  0  0  0  0  0  0  0  0  0
   23.1253  -11.4917  -16.6885 C   0  0  0  0  0  0  0  0  0  0  0  0
   24.4376  -10.9111  -16.2875 C   0  0  0  0  0  0  0  0  0  0  0  0
   25.5726  -11.9424  -16.4348 C   0  0  0  0  0  0  0  0  0  0  0  0
   26.8818  -11.3253  -15.9610 C   0  0  0  0  0  0  0  0  0  0  0  0
   27.9424  -12.3139  -15.9323 N   0  0  0  0  0  0  0  0  0  0  0  0
   22.2099   -9.1639  -16.9373 C   0  0  0  0  0  0  0  0  0  0  0  0
   22.1561   -8.8799  -18.1507 O   0  0  0  0  0  0  0  0  0  0  0  0
   21.5662   -4.0667  -13.4989 N   0  0  0  0  0  0  0  0  0  0  0  0
   22.0420   -3.4678  -14.6821 C   0  0  0  0  0  0  0  0  0  0  0  0
   22.1424   -2.2301  -14.7525 O   0  0  0  0  0  0  0  0  0  0  0  0
   22.4139   -4.3753  -15.8281 C   0  0  0  0  0  0  0  0  0  0  0  0
   22.1985   -5.7970  -15.4345 C   0  0  0  0  0  0  0  0  0  0  0  0
   22.6123   -6.7673  -16.4815 C   0  0  2  0  0  0  0  0  0  0  0  0
   22.4770   -8.1396  -16.0221 N   0  0  0  0  0  0  0  0  0  0  0  0
   24.0272   -6.5635  -16.8461 C   0  0  0  0  0  0  0  0  0  0  0  0
   25.1135   -7.2447  -16.3314 O   0  0  0  0  0  0  0  0  0  0  0  0
   24.2893   -5.6709  -17.7215 O   0  0  0  0  0  0  0  0  0  0  0  0
  2  1  1  0
  3  2  1  0
  3  4  1  1
  5  6  2  0
  5  3  1  0
  7  5  1  0
  8  7  1  0
  8  9  1  6
 10  9  1  0
 11 10  1  0
 12 11  1  0
 12 13  1  0
 14 22  1  0
 14  8  1  0
 15 14  2  0
 17 18  2  0
 17 16  1  0
 19 17  1  0
 21 20  1  1
 20 19  1  0
 21 23  1  0
 21 22  1  0
 23 24  1  0
 25 23  2  0
M  END
$$$$
