SKQ.pdb
     RDKit          3D

 25 24  0  0  1  0  0  0  0  0999 V2000
   12.8657  -11.4587  -11.0942 O   0  0  0  0  0  0  0  0  0  0  0  0
   13.4419  -11.4162  -12.3584 C   0  0  0  0  0  0  0  0  0  0  0  0
   14.9059  -11.7634  -12.2236 C   0  0  2  0  0  0  0  0  0  0  0  0
   15.0866  -12.9219  -11.4740 N   0  0  0  0  0  0  0  0  0  0  0  0
   15.6479  -10.5791  -11.6441 C   0  0  0  0  0  0  0  0  0  0  0  0
   15.9456  -10.5280  -10.4489 O   0  0  0  0  0  0  0  0  0  0  0  0
   15.9893   -9.5421  -12.4943 N   0  0  0  0  0  0  0  0  0  0  0  0
   16.7586   -8.3764  -12.3298 C   0  0  1  0  0  0  0  0  0  0  0  0
   17.9378   -8.1044  -13.1967 C   0  0  0  0  0  0  0  0  0  0  0  0
   18.6556   -6.8544  -12.8199 C   0  0  0  0  0  0  0  0  0  0  0  0
   19.8051   -6.5535  -13.8007 C   0  0  0  0  0  0  0  0  0  0  0  0
   20.5756   -5.3319  -13.3180 C   0  0  0  0  0  0  0  0  0  0  0  0
   21.6192   -4.9705  -14.2579 N   0  0  0  0  0  0  0  0  0  0  0  0
   15.9066   -7.2461  -11.9900 C   0  0  0  0  0  0  0  0  0  0  0  0
   14.9548   -6.9467  -12.7387 O   0  0  0  0  0  0  0  0  0  0  0  0
   14.6316   -5.3316   -6.3436 N   0  0  0  0  0  0  0  0  0  0  0  0
   13.9618   -4.3093   -7.0444 C   0  0  0  0  0  0  0  0  0  0  0  0
   13.3254   -3.4436   -6.4180 O   0  0  0  0  0  0  0  0  0  0  0  0
   14.0511   -4.3152   -8.5501 C   0  0  0  0  0  0  0  0  0  0  0  0
   14.9194   -5.4412   -8.9984 C   0  0  0  0  0  0  0  0  0  0  0  0
   15.1671   -5.4468  -10.4637 C   0  0  2  0  0  0  0  0  0  0  0  0
   16.1206   -6.4770  -10.8408 N   0  0  0  0  0  0  0  0  0  0  0  0
   15.7237   -4.1521  -10.8998 C   0  0  0  0  0  0  0  0  0  0  0  0
   15.0199   -2.9783  -11.0890 O   0  0  0  0  0  0  0  0  0  0  0  0
   16.9787   -4.0961  -11.1311 O   0  0  0  0  0  0  0  0  0  0  0  0
  2  1  1  0
  3  2  1  0
  3  4  1  1
  5  6  2  0
  5  3  1  0
  7  5  1  0
  8  7  1  0
  8  9  1  6
 10  9  1  0
 11 10  1  0
 12 11  1  0
 12 13  1  0
 14 22  1  0
 14  8  1  0
 15 14  2  0
 17 18  2  0
 17 16  1  0
 19 17  1  0
 21 20  1  1
 20 19  1  0
 21 23  1  0
 21 22  1  0
 23 24  1  0
 25 23  2  0
M  END
$$$$
