SKQ.pdb
     RDKit          3D

 25 24  0  0  1  0  0  0  0  0999 V2000
   18.5271   -8.9921  -12.4410 O   0  0  0  0  0  0  0  0  0  0  0  0
   18.6932   -9.2001  -11.0767 C   0  0  0  0  0  0  0  0  0  0  0  0
   17.3461   -9.5358  -10.4812 C   0  0  2  0  0  0  0  0  0  0  0  0
   16.7952  -10.6670  -11.0758 N   0  0  0  0  0  0  0  0  0  0  0  0
   16.4398   -8.3289  -10.5862 C   0  0  0  0  0  0  0  0  0  0  0  0
   15.9323   -7.9964  -11.6593 O   0  0  0  0  0  0  0  0  0  0  0  0
   16.1898   -7.5975   -9.4385 N   0  0  0  0  0  0  0  0  0  0  0  0
   15.3773   -6.4826   -9.1658 C   0  0  1  0  0  0  0  0  0  0  0  0
   14.4791   -6.4574   -7.9789 C   0  0  0  0  0  0  0  0  0  0  0  0
   13.2597   -7.2942   -8.1594 C   0  0  0  0  0  0  0  0  0  0  0  0
   12.3356   -7.2066   -6.9297 C   0  0  0  0  0  0  0  0  0  0  0  0
   11.0553   -7.9848   -7.2022 C   0  0  0  0  0  0  0  0  0  0  0  0
   10.1787   -7.9649   -6.0471 N   0  0  0  0  0  0  0  0  0  0  0  0
   16.0739   -5.2490   -9.5005 C   0  0  0  0  0  0  0  0  0  0  0  0
   17.2216   -5.0506   -9.0541 O   0  0  0  0  0  0  0  0  0  0  0  0
   16.1142   -2.1644  -14.7029 N   0  0  0  0  0  0  0  0  0  0  0  0
   17.4127   -2.3534  -14.1899 C   0  0  0  0  0  0  0  0  0  0  0  0
   18.3975   -2.2425  -14.9415 O   0  0  0  0  0  0  0  0  0  0  0  0
   17.5474   -2.6876  -12.7252 C   0  0  0  0  0  0  0  0  0  0  0  0
   16.1953   -2.7804  -12.1039 C   0  0  0  0  0  0  0  0  0  0  0  0
   16.2354   -3.0634  -10.6454 C   0  0  2  0  0  0  0  0  0  0  0  0
   15.4944   -4.2692  -10.3143 N   0  0  0  0  0  0  0  0  0  0  0  0
   15.6302   -1.9532   -9.8857 C   0  0  0  0  0  0  0  0  0  0  0  0
   16.1699   -0.6947   -9.7017 O   0  0  0  0  0  0  0  0  0  0  0  0
   14.4962   -2.1621   -9.3362 O   0  0  0  0  0  0  0  0  0  0  0  0
  2  1  1  0
  3  2  1  0
  3  4  1  6
  5  6  2  0
  5  3  1  0
  7  5  1  0
  8  7  1  0
  8  9  1  1
 10  9  1  0
 11 10  1  0
 12 11  1  0
 12 13  1  0
 14 22  1  0
 14  8  1  0
 15 14  2  0
 17 18  2  0
 17 16  1  0
 19 17  1  0
 21 20  1  6
 20 19  1  0
 21 23  1  0
 21 22  1  0
 23 24  1  0
 25 23  2  0
M  END
$$$$
