SKQ.pdb
     RDKit          3D

 25 24  0  0  1  0  0  0  0  0999 V2000
   26.6485  -12.1016  -15.9934 O   0  0  0  0  0  0  0  0  0  0  0  0
   25.5731  -11.4219  -15.4334 C   0  0  0  0  0  0  0  0  0  0  0  0
   24.3667  -11.6335  -16.3176 C   0  0  2  0  0  0  0  0  0  0  0  0
   24.7305  -12.1433  -17.5603 N   0  0  0  0  0  0  0  0  0  0  0  0
   23.5963  -10.3362  -16.4287 C   0  0  0  0  0  0  0  0  0  0  0  0
   23.9874   -9.4147  -17.1482 O   0  0  0  0  0  0  0  0  0  0  0  0
   22.4293  -10.2043  -15.6968 N   0  0  0  0  0  0  0  0  0  0  0  0
   21.4959   -9.1623  -15.5535 C   0  0  1  0  0  0  0  0  0  0  0  0
   20.0890   -9.4396  -15.1540 C   0  0  0  0  0  0  0  0  0  0  0  0
   19.3681  -10.2976  -16.1357 C   0  0  0  0  0  0  0  0  0  0  0  0
   18.5348  -11.3807  -15.4243 C   0  0  0  0  0  0  0  0  0  0  0  0
   17.8195  -12.2332  -16.4639 C   0  0  0  0  0  0  0  0  0  0  0  0
   17.1349  -13.3490  -15.8399 N   0  0  0  0  0  0  0  0  0  0  0  0
   22.1306   -7.9832  -14.9825 C   0  0  0  0  0  0  0  0  0  0  0  0
   22.8175   -8.0952  -13.9473 O   0  0  0  0  0  0  0  0  0  0  0  0
   23.1800   -4.7334  -18.6493 N   0  0  0  0  0  0  0  0  0  0  0  0
   24.3686   -5.2358  -18.0837 C   0  0  0  0  0  0  0  0  0  0  0  0
   25.2706   -5.6695  -18.8221 O   0  0  0  0  0  0  0  0  0  0  0  0
   24.4911   -5.2228  -16.5804 C   0  0  0  0  0  0  0  0  0  0  0  0
   23.2433   -4.6721  -15.9785 C   0  0  0  0  0  0  0  0  0  0  0  0
   22.6401   -5.5639  -14.9540 C   0  0  2  0  0  0  0  0  0  0  0  0
   21.9954   -6.7164  -15.5612 N   0  0  0  0  0  0  0  0  0  0  0  0
   21.6120   -4.8424  -14.1802 C   0  0  0  0  0  0  0  0  0  0  0  0
   21.8361   -3.9576  -13.1430 O   0  0  0  0  0  0  0  0  0  0  0  0
   20.3891   -5.0477  -14.4868 O   0  0  0  0  0  0  0  0  0  0  0  0
  2  1  1  0
  3  2  1  0
  3  4  1  6
  5  6  2  0
  5  3  1  0
  7  5  1  0
  8  7  1  0
  8  9  1  1
 10  9  1  0
 11 10  1  0
 12 11  1  0
 12 13  1  0
 14 22  1  0
 14  8  1  0
 15 14  2  0
 17 18  2  0
 17 16  1  0
 19 17  1  0
 21 20  1  6
 20 19  1  0
 21 23  1  0
 21 22  1  0
 23 24  1  0
 25 23  2  0
M  END
$$$$
