SKQ.pdb
     RDKit          3D

 25 24  0  0  1  0  0  0  0  0999 V2000
   25.9002  -12.7813  -15.5645 O   0  0  0  0  0  0  0  0  0  0  0  0
   25.0101  -11.7222  -15.4297 C   0  0  0  0  0  0  0  0  0  0  0  0
   24.2599  -11.5654  -16.7316 C   0  0  2  0  0  0  0  0  0  0  0  0
   25.1315  -11.4016  -17.8039 N   0  0  0  0  0  0  0  0  0  0  0  0
   23.2773  -10.4219  -16.6061 C   0  0  0  0  0  0  0  0  0  0  0  0
   23.5505   -9.2907  -17.0131 O   0  0  0  0  0  0  0  0  0  0  0  0
   22.0508  -10.6756  -16.0179 N   0  0  0  0  0  0  0  0  0  0  0  0
   20.9270   -9.8733  -15.7512 C   0  0  1  0  0  0  0  0  0  0  0  0
   19.6293  -10.4781  -15.3439 C   0  0  0  0  0  0  0  0  0  0  0  0
   18.5526   -9.4651  -15.1587 C   0  0  0  0  0  0  0  0  0  0  0  0
   17.5100   -9.5454  -16.2902 C   0  0  0  0  0  0  0  0  0  0  0  0
   16.3983   -8.5387  -16.0264 C   0  0  0  0  0  0  0  0  0  0  0  0
   15.4422   -8.5221  -17.1167 N   0  0  0  0  0  0  0  0  0  0  0  0
   21.3256   -8.6410  -15.0865 C   0  0  0  0  0  0  0  0  0  0  0  0
   21.9438   -8.6984  -14.0046 O   0  0  0  0  0  0  0  0  0  0  0  0
   24.2432   -4.1158  -17.3239 N   0  0  0  0  0  0  0  0  0  0  0  0
   23.8897   -3.4527  -16.1322 C   0  0  0  0  0  0  0  0  0  0  0  0
   24.3737   -2.3354  -15.8783 O   0  0  0  0  0  0  0  0  0  0  0  0
   22.9223   -4.1441  -15.2041 C   0  0  0  0  0  0  0  0  0  0  0  0
   22.4363   -5.4056  -15.8328 C   0  0  0  0  0  0  0  0  0  0  0  0
   21.5112   -6.1785  -14.9636 C   0  0  2  0  0  0  0  0  0  0  0  0
   21.0365   -7.3824  -15.6253 N   0  0  0  0  0  0  0  0  0  0  0  0
   20.3263   -5.3697  -14.6201 C   0  0  0  0  0  0  0  0  0  0  0  0
   19.1325   -5.3272  -15.3142 O   0  0  0  0  0  0  0  0  0  0  0  0
   20.3972   -4.6288  -13.5819 O   0  0  0  0  0  0  0  0  0  0  0  0
  2  1  1  0
  3  2  1  0
  3  4  1  6
  5  6  2  0
  5  3  1  0
  7  5  1  0
  8  7  1  0
  8  9  1  1
 10  9  1  0
 11 10  1  0
 12 11  1  0
 12 13  1  0
 14 22  1  0
 14  8  1  0
 15 14  2  0
 17 18  2  0
 17 16  1  0
 19 17  1  0
 21 20  1  6
 20 19  1  0
 21 23  1  0
 21 22  1  0
 23 24  1  0
 25 23  2  0
M  END
$$$$
