SKQ.pdb
     RDKit          3D

 25 24  0  0  1  0  0  0  0  0999 V2000
   24.7999  -13.7184  -15.1478 O   0  0  0  0  0  0  0  0  0  0  0  0
   25.9755  -14.3217  -14.7163 C   0  0  0  0  0  0  0  0  0  0  0  0
   26.5504  -15.1151  -15.8662 C   0  0  2  0  0  0  0  0  0  0  0  0
   26.7611  -14.3119  -16.9828 N   0  0  0  0  0  0  0  0  0  0  0  0
   25.6452  -16.2905  -16.1628 C   0  0  0  0  0  0  0  0  0  0  0  0
   24.6675  -16.1788  -16.9053 O   0  0  0  0  0  0  0  0  0  0  0  0
   25.9415  -17.5081  -15.5759 N   0  0  0  0  0  0  0  0  0  0  0  0
   25.3611  -18.7859  -15.6649 C   0  0  1  0  0  0  0  0  0  0  0  0
   26.2042  -20.0114  -15.7208 C   0  0  0  0  0  0  0  0  0  0  0  0
   25.4106  -21.2476  -15.9694 C   0  0  0  0  0  0  0  0  0  0  0  0
   26.2766  -22.5105  -15.7992 C   0  0  0  0  0  0  0  0  0  0  0  0
   25.4337  -23.7451  -16.0897 C   0  0  0  0  0  0  0  0  0  0  0  0
   26.1601  -24.9582  -15.7677 N   0  0  0  0  0  0  0  0  0  0  0  0
   24.1439  -18.8503  -14.8691 C   0  0  0  0  0  0  0  0  0  0  0  0
   24.2140  -18.7413  -13.6284 O   0  0  0  0  0  0  0  0  0  0  0  0
   19.3667  -15.6506  -15.5083 N   0  0  0  0  0  0  0  0  0  0  0  0
   18.7786  -16.5423  -14.5897 C   0  0  0  0  0  0  0  0  0  0  0  0
   17.6364  -16.3166  -14.1522 O   0  0  0  0  0  0  0  0  0  0  0  0
   19.5792  -17.7511  -14.1736 C   0  0  0  0  0  0  0  0  0  0  0  0
   20.8654  -17.7864  -14.9266 C   0  0  0  0  0  0  0  0  0  0  0  0
   21.6865  -18.9902  -14.6340 C   0  0  2  0  0  0  0  0  0  0  0  0
   22.8858  -19.0315  -15.4542 N   0  0  0  0  0  0  0  0  0  0  0  0
   20.9207  -20.2197  -14.9132 C   0  0  0  0  0  0  0  0  0  0  0  0
   20.8480  -20.8843  -16.1223 O   0  0  0  0  0  0  0  0  0  0  0  0
   20.2520  -20.7306  -13.9522 O   0  0  0  0  0  0  0  0  0  0  0  0
  2  1  1  0
  3  2  1  0
  3  4  1  6
  5  6  2  0
  5  3  1  0
  7  5  1  0
  8  7  1  0
  8  9  1  1
 10  9  1  0
 11 10  1  0
 12 11  1  0
 12 13  1  0
 14 22  1  0
 14  8  1  0
 15 14  2  0
 17 18  2  0
 17 16  1  0
 19 17  1  0
 21 20  1  6
 20 19  1  0
 21 23  1  0
 21 22  1  0
 23 24  1  0
 25 23  2  0
M  END
$$$$
