SKQ.pdb
     RDKit          3D

 25 24  0  0  1  0  0  0  0  0999 V2000
   34.6435  -27.2190  -16.5342 O   0  0  0  0  0  0  0  0  0  0  0  0
   35.2940  -25.9937  -16.4473 C   0  0  0  0  0  0  0  0  0  0  0  0
   34.5206  -25.1134  -15.4940 C   0  0  2  0  0  0  0  0  0  0  0  0
   34.4751  -25.6641  -14.2169 N   0  0  0  0  0  0  0  0  0  0  0  0
   33.1418  -24.8552  -16.0609 C   0  0  0  0  0  0  0  0  0  0  0  0
   32.1247  -25.2406  -15.4807 O   0  0  0  0  0  0  0  0  0  0  0  0
   33.0456  -24.1691  -17.2587 N   0  0  0  0  0  0  0  0  0  0  0  0
   31.9580  -23.6688  -17.9965 C   0  0  1  0  0  0  0  0  0  0  0  0
   32.0888  -22.4347  -18.8185 C   0  0  0  0  0  0  0  0  0  0  0  0
   30.8084  -22.0337  -19.4663 C   0  0  0  0  0  0  0  0  0  0  0  0
   30.9794  -20.7421  -20.2886 C   0  0  0  0  0  0  0  0  0  0  0  0
   29.6305  -20.3211  -20.8561 C   0  0  0  0  0  0  0  0  0  0  0  0
   29.7582  -19.1274  -21.6697 N   0  0  0  0  0  0  0  0  0  0  0  0
   31.1740  -24.7611  -18.5546 C   0  0  0  0  0  0  0  0  0  0  0  0
   31.7429  -25.8224  -18.8802 O   0  0  0  0  0  0  0  0  0  0  0  0
   26.5476  -26.2731  -16.1659 N   0  0  0  0  0  0  0  0  0  0  0  0
   26.7394  -27.5440  -16.7429 C   0  0  0  0  0  0  0  0  0  0  0  0
   25.9016  -28.4433  -16.5524 O   0  0  0  0  0  0  0  0  0  0  0  0
   27.9762  -27.7559  -17.5799 C   0  0  0  0  0  0  0  0  0  0  0  0
   28.8344  -26.5379  -17.5269 C   0  0  0  0  0  0  0  0  0  0  0  0
   28.9784  -25.8611  -18.8422 C   0  0  2  0  0  0  0  0  0  0  0  0
   29.7906  -24.6601  -18.7394 N   0  0  0  0  0  0  0  0  0  0  0  0
   27.6591  -25.4559  -19.3632 C   0  0  0  0  0  0  0  0  0  0  0  0
   26.7221  -26.2808  -19.9554 O   0  0  0  0  0  0  0  0  0  0  0  0
   27.3384  -24.2233  -19.2661 O   0  0  0  0  0  0  0  0  0  0  0  0
  2  1  1  0
  3  2  1  0
  3  4  1  1
  5  6  2  0
  5  3  1  0
  7  5  1  0
  8  7  1  0
  8  9  1  6
 10  9  1  0
 11 10  1  0
 12 11  1  0
 12 13  1  0
 14 22  1  0
 14  8  1  0
 15 14  2  0
 17 18  2  0
 17 16  1  0
 19 17  1  0
 21 20  1  1
 20 19  1  0
 21 23  1  0
 21 22  1  0
 23 24  1  0
 25 23  2  0
M  END
$$$$
