SKQ.pdb
     RDKit          3D

 25 24  0  0  1  0  0  0  0  0999 V2000
   16.5351  -12.8361  -14.1511 O   0  0  0  0  0  0  0  0  0  0  0  0
   17.0249  -11.5516  -14.3572 C   0  0  0  0  0  0  0  0  0  0  0  0
   17.6904  -11.5103  -15.7128 C   0  0  2  0  0  0  0  0  0  0  0  0
   18.7631  -12.3941  -15.7795 N   0  0  0  0  0  0  0  0  0  0  0  0
   18.0948  -10.0865  -16.0264 C   0  0  0  0  0  0  0  0  0  0  0  0
   19.2793   -9.7631  -16.1361 O   0  0  0  0  0  0  0  0  0  0  0  0
   17.0950   -9.1439  -16.1895 N   0  0  0  0  0  0  0  0  0  0  0  0
   17.0969   -7.8019  -16.6096 C   0  0  1  0  0  0  0  0  0  0  0  0
   15.8433   -7.1330  -17.0533 C   0  0  0  0  0  0  0  0  0  0  0  0
   15.0991   -7.9204  -18.0760 C   0  0  0  0  0  0  0  0  0  0  0  0
   13.7047   -7.3196  -18.3371 C   0  0  0  0  0  0  0  0  0  0  0  0
   13.0270   -8.0851  -19.4658 C   0  0  0  0  0  0  0  0  0  0  0  0
   11.7195   -7.5305  -19.7586 N   0  0  0  0  0  0  0  0  0  0  0  0
   18.0226   -7.0167  -15.8061 C   0  0  0  0  0  0  0  0  0  0  0  0
   17.9714   -7.0897  -14.5619 O   0  0  0  0  0  0  0  0  0  0  0  0
   22.0327   -6.9087  -13.3852 N   0  0  0  0  0  0  0  0  0  0  0  0
   22.4045   -5.5608  -13.5581 C   0  0  0  0  0  0  0  0  0  0  0  0
   22.8557   -4.9146  -12.5959 O   0  0  0  0  0  0  0  0  0  0  0  0
   22.2337   -4.9555  -14.9291 C   0  0  0  0  0  0  0  0  0  0  0  0
   21.2842   -5.7810  -15.7289 C   0  0  0  0  0  0  0  0  0  0  0  0
   19.8630   -5.3858  -15.5477 C   0  0  2  0  0  0  0  0  0  0  0  0
   18.9774   -6.1751  -16.3876 N   0  0  0  0  0  0  0  0  0  0  0  0
   19.6687   -3.9699  -15.9130 C   0  0  0  0  0  0  0  0  0  0  0  0
   18.9529   -3.4921  -16.9939 O   0  0  0  0  0  0  0  0  0  0  0  0
   20.2120   -3.0870  -15.1667 O   0  0  0  0  0  0  0  0  0  0  0  0
  2  1  1  0
  3  2  1  0
  3  4  1  1
  5  6  2  0
  5  3  1  0
  7  5  1  0
  8  7  1  0
  8  9  1  1
 10  9  1  0
 11 10  1  0
 12 11  1  0
 12 13  1  0
 14 22  1  0
 14  8  1  0
 15 14  2  0
 17 18  2  0
 17 16  1  0
 19 17  1  0
 21 20  1  6
 20 19  1  0
 21 23  1  0
 21 22  1  0
 23 24  1  0
 25 23  2  0
M  END
$$$$
