SKQ.pdb
     RDKit          3D

 25 24  0  0  1  0  0  0  0  0999 V2000
   24.9970  -25.7878  -15.1434 O   0  0  0  0  0  0  0  0  0  0  0  0
   26.2924  -25.4015  -15.4673 C   0  0  0  0  0  0  0  0  0  0  0  0
   26.4764  -25.5644  -16.9578 C   0  0  2  0  0  0  0  0  0  0  0  0
   25.4632  -24.9274  -17.6677 N   0  0  0  0  0  0  0  0  0  0  0  0
   26.5763  -27.0370  -17.2898 C   0  0  0  0  0  0  0  0  0  0  0  0
   25.5903  -27.6845  -17.6480 O   0  0  0  0  0  0  0  0  0  0  0  0
   27.8127  -27.6491  -17.1816 N   0  0  0  0  0  0  0  0  0  0  0  0
   28.2506  -28.9727  -17.3653 C   0  0  1  0  0  0  0  0  0  0  0  0
   29.6768  -29.2766  -17.6642 C   0  0  0  0  0  0  0  0  0  0  0  0
   29.8958  -29.6860  -19.0799 C   0  0  0  0  0  0  0  0  0  0  0  0
   30.7176  -28.6313  -19.8452 C   0  0  0  0  0  0  0  0  0  0  0  0
   30.8962  -29.0793  -21.2897 C   0  0  0  0  0  0  0  0  0  0  0  0
   31.5798  -28.0645  -22.0682 N   0  0  0  0  0  0  0  0  0  0  0  0
   27.5541  -29.8716  -16.4564 C   0  0  0  0  0  0  0  0  0  0  0  0
   27.4450  -29.5650  -15.2522 O   0  0  0  0  0  0  0  0  0  0  0  0
   22.2652  -33.8911  -15.4839 N   0  0  0  0  0  0  0  0  0  0  0  0
   22.7132  -32.5599  -15.5940 C   0  0  0  0  0  0  0  0  0  0  0  0
   22.0523  -31.7366  -16.2515 O   0  0  0  0  0  0  0  0  0  0  0  0
   23.9980  -32.1912  -14.8950 C   0  0  0  0  0  0  0  0  0  0  0  0
   24.8434  -31.3618  -15.8005 C   0  0  0  0  0  0  0  0  0  0  0  0
   26.2189  -31.8965  -15.9760 C   0  0  2  0  0  0  0  0  0  0  0  0
   26.9973  -31.0792  -16.8919 N   0  0  0  0  0  0  0  0  0  0  0  0
   26.1765  -33.2618  -16.5330 C   0  0  0  0  0  0  0  0  0  0  0  0
   26.0708  -34.4378  -15.8155 O   0  0  0  0  0  0  0  0  0  0  0  0
   26.2457  -33.3846  -17.8026 O   0  0  0  0  0  0  0  0  0  0  0  0
  2  1  1  0
  3  2  1  0
  3  4  1  6
  5  6  2  0
  5  3  1  0
  7  5  1  0
  8  7  1  0
  8  9  1  1
 10  9  1  0
 11 10  1  0
 12 11  1  0
 12 13  1  0
 14 22  1  0
 14  8  1  0
 15 14  2  0
 17 18  2  0
 17 16  1  0
 19 17  1  0
 21 20  1  6
 20 19  1  0
 21 23  1  0
 21 22  1  0
 23 24  1  0
 25 23  2  0
M  END
$$$$
