SKQ.pdb
     RDKit          3D

 25 24  0  0  1  0  0  0  0  0999 V2000
   16.9785  -11.9967  -10.4238 O   0  0  0  0  0  0  0  0  0  0  0  0
   16.9970  -10.6155  -10.5790 C   0  0  0  0  0  0  0  0  0  0  0  0
   15.6030  -10.0917  -10.3249 C   0  0  2  0  0  0  0  0  0  0  0  0
   14.6661  -10.7263  -11.1348 N   0  0  0  0  0  0  0  0  0  0  0  0
   15.5952   -8.5891  -10.5010 C   0  0  0  0  0  0  0  0  0  0  0  0
   15.3521   -8.0701  -11.5924 O   0  0  0  0  0  0  0  0  0  0  0  0
   15.8702   -7.8003   -9.3978 N   0  0  0  0  0  0  0  0  0  0  0  0
   15.9664   -6.4102   -9.2087 C   0  0  1  0  0  0  0  0  0  0  0  0
   15.2885   -5.7407   -8.0650 C   0  0  0  0  0  0  0  0  0  0  0  0
   13.8060   -5.8826   -8.1088 C   0  0  0  0  0  0  0  0  0  0  0  0
   13.1451   -5.2161   -6.8870 C   0  0  0  0  0  0  0  0  0  0  0  0
   11.6307   -5.3069   -7.0184 C   0  0  0  0  0  0  0  0  0  0  0  0
   10.9722   -4.6862   -5.8852 N   0  0  0  0  0  0  0  0  0  0  0  0
   17.2966   -5.9374   -9.5641 C   0  0  0  0  0  0  0  0  0  0  0  0
   18.2570   -6.1761   -8.8048 O   0  0  0  0  0  0  0  0  0  0  0  0
   22.2227   -7.5134  -13.8125 N   0  0  0  0  0  0  0  0  0  0  0  0
   21.4368   -7.4516  -12.6448 C   0  0  0  0  0  0  0  0  0  0  0  0
   21.2298   -8.4838  -11.9825 O   0  0  0  0  0  0  0  0  0  0  0  0
   20.8739   -6.1098  -12.2474 C   0  0  0  0  0  0  0  0  0  0  0  0
   19.5242   -6.2902  -11.6403 C   0  0  0  0  0  0  0  0  0  0  0  0
   18.8984   -5.0142  -11.2059 C   0  0  2  0  0  0  0  0  0  0  0  0
   17.5367   -5.2180  -10.7400 N   0  0  0  0  0  0  0  0  0  0  0  0
   18.8405   -4.0576  -12.3274 C   0  0  0  0  0  0  0  0  0  0  0  0
   19.8963   -3.3276  -12.8385 O   0  0  0  0  0  0  0  0  0  0  0  0
   17.7084   -3.8743  -12.8900 O   0  0  0  0  0  0  0  0  0  0  0  0
  2  1  1  0
  3  2  1  0
  3  4  1  6
  5  6  2  0
  5  3  1  0
  7  5  1  0
  8  7  1  0
  8  9  1  1
 10  9  1  0
 11 10  1  0
 12 11  1  0
 12 13  1  0
 14 22  1  0
 14  8  1  0
 15 14  2  0
 17 18  2  0
 17 16  1  0
 19 17  1  0
 21 20  1  6
 20 19  1  0
 21 23  1  0
 21 22  1  0
 23 24  1  0
 25 23  2  0
M  END
$$$$
