SKQ.pdb
     RDKit          3D

 25 24  0  0  1  0  0  0  0  0999 V2000
   11.5381   -9.1806  -14.6606 O   0  0  0  0  0  0  0  0  0  0  0  0
   12.7015   -8.4647  -14.4036 C   0  0  0  0  0  0  0  0  0  0  0  0
   13.7850   -9.4442  -14.0181 C   0  0  2  0  0  0  0  0  0  0  0  0
   13.4288  -10.1786  -12.8910 N   0  0  0  0  0  0  0  0  0  0  0  0
   15.0885   -8.6987  -13.8333 C   0  0  0  0  0  0  0  0  0  0  0  0
   15.2654   -7.9380  -12.8794 O   0  0  0  0  0  0  0  0  0  0  0  0
   16.0897   -8.8909  -14.7689 N   0  0  0  0  0  0  0  0  0  0  0  0
   17.3959   -8.3863  -14.8979 C   0  0  1  0  0  0  0  0  0  0  0  0
   18.5635   -9.2998  -15.0328 C   0  0  0  0  0  0  0  0  0  0  0  0
   18.4677  -10.1876  -16.2255 C   0  0  0  0  0  0  0  0  0  0  0  0
   19.7016  -11.1031  -16.3404 C   0  0  0  0  0  0  0  0  0  0  0  0
   19.6919  -11.7977  -17.6956 C   0  0  0  0  0  0  0  0  0  0  0  0
   20.7874  -12.7417  -17.8040 N   0  0  0  0  0  0  0  0  0  0  0  0
   17.3986   -7.1775  -15.7090 C   0  0  0  0  0  0  0  0  0  0  0  0
   16.6530   -7.1048  -16.7065 O   0  0  0  0  0  0  0  0  0  0  0  0
   15.9763   -1.8471  -14.5024 N   0  0  0  0  0  0  0  0  0  0  0  0
   16.6417   -1.4756  -15.6874 C   0  0  0  0  0  0  0  0  0  0  0  0
   16.5200   -0.3195  -16.1295 O   0  0  0  0  0  0  0  0  0  0  0  0
   17.4859   -2.5193  -16.3755 C   0  0  0  0  0  0  0  0  0  0  0  0
   17.3750   -3.8159  -15.6480 C   0  0  0  0  0  0  0  0  0  0  0  0
   18.1960   -4.8999  -16.2477 C   0  0  2  0  0  0  0  0  0  0  0  0
   18.2165   -6.0837  -15.4047 N   0  0  0  0  0  0  0  0  0  0  0  0
   19.5929   -4.4576  -16.4182 C   0  0  0  0  0  0  0  0  0  0  0  0
   20.0634   -3.5737  -17.3702 O   0  0  0  0  0  0  0  0  0  0  0  0
   20.4653   -4.9319  -15.6146 O   0  0  0  0  0  0  0  0  0  0  0  0
  2  1  1  0
  3  2  1  0
  3  4  1  1
  5  6  2  0
  5  3  1  0
  7  5  1  0
  8  7  1  0
  8  9  1  6
 10  9  1  0
 11 10  1  0
 12 11  1  0
 12 13  1  0
 14 22  1  0
 14  8  1  0
 15 14  2  0
 17 18  2  0
 17 16  1  0
 19 17  1  0
 21 20  1  1
 20 19  1  0
 21 23  1  0
 21 22  1  0
 23 24  1  0
 25 23  2  0
M  END
$$$$
