SKQ.pdb
     RDKit          3D

 25 24  0  0  1  0  0  0  0  0999 V2000
   17.2778  -26.0929  -11.6150 O   0  0  0  0  0  0  0  0  0  0  0  0
   18.5856  -25.6234  -11.6504 C   0  0  0  0  0  0  0  0  0  0  0  0
   18.7242  -24.5295  -10.6178 C   0  0  2  0  0  0  0  0  0  0  0  0
   17.6716  -24.5532   -9.7079 N   0  0  0  0  0  0  0  0  0  0  0  0
   18.8515  -23.1950  -11.3191 C   0  0  0  0  0  0  0  0  0  0  0  0
   18.0682  -22.2708  -11.0912 O   0  0  0  0  0  0  0  0  0  0  0  0
   19.8779  -23.0320  -12.2326 N   0  0  0  0  0  0  0  0  0  0  0  0
   20.2517  -21.9752  -13.0817 C   0  0  1  0  0  0  0  0  0  0  0  0
   21.6480  -21.8470  -13.5815 C   0  0  0  0  0  0  0  0  0  0  0  0
   21.8767  -20.5848  -14.3394 C   0  0  0  0  0  0  0  0  0  0  0  0
   23.2988  -20.5384  -14.9302 C   0  0  0  0  0  0  0  0  0  0  0  0
   23.5593  -19.1564  -15.5144 C   0  0  0  0  0  0  0  0  0  0  0  0
   24.8379  -19.1130  -16.1973 N   0  0  0  0  0  0  0  0  0  0  0  0
   19.1787  -21.6670  -14.0160 C   0  0  0  0  0  0  0  0  0  0  0  0
   18.8903  -22.4850  -14.9125 O   0  0  0  0  0  0  0  0  0  0  0  0
   13.6039  -19.9650  -13.3620 N   0  0  0  0  0  0  0  0  0  0  0  0
   14.3604  -21.0632  -12.9074 C   0  0  0  0  0  0  0  0  0  0  0  0
   13.8516  -21.8830  -12.1225 O   0  0  0  0  0  0  0  0  0  0  0  0
   15.7785  -21.1933  -13.4047 C   0  0  0  0  0  0  0  0  0  0  0  0
   16.0877  -20.0755  -14.3414 C   0  0  0  0  0  0  0  0  0  0  0  0
   17.4437  -20.1688  -14.9427 C   0  0  2  0  0  0  0  0  0  0  0  0
   18.4525  -20.4732  -13.9416 N   0  0  0  0  0  0  0  0  0  0  0  0
   17.8206  -18.8886  -15.5712 C   0  0  0  0  0  0  0  0  0  0  0  0
   18.8535  -18.0569  -15.1835 O   0  0  0  0  0  0  0  0  0  0  0  0
   17.1315  -18.4963  -16.5727 O   0  0  0  0  0  0  0  0  0  0  0  0
  2  1  1  0
  3  2  1  0
  3  4  1  1
  5  6  2  0
  5  3  1  0
  7  5  1  0
  8  7  1  0
  8  9  1  6
 10  9  1  0
 11 10  1  0
 12 11  1  0
 12 13  1  0
 14 22  1  0
 14  8  1  0
 15 14  2  0
 17 18  2  0
 17 16  1  0
 19 17  1  0
 21 20  1  1
 20 19  1  0
 21 23  1  0
 21 22  1  0
 23 24  1  0
 25 23  2  0
M  END
$$$$
