SKQ.pdb
     RDKit          3D

 25 24  0  0  1  0  0  0  0  0999 V2000
   27.1183  -16.9089  -19.3553 O   0  0  0  0  0  0  0  0  0  0  0  0
   25.9214  -16.2739  -19.6657 C   0  0  0  0  0  0  0  0  0  0  0  0
   24.7888  -17.2313  -19.3780 C   0  0  2  0  0  0  0  0  0  0  0  0
   24.8520  -18.3542  -20.1975 N   0  0  0  0  0  0  0  0  0  0  0  0
   23.4717  -16.4978  -19.5041 C   0  0  0  0  0  0  0  0  0  0  0  0
   23.2995  -15.6261  -20.3587 O   0  0  0  0  0  0  0  0  0  0  0  0
   22.4522  -16.8299  -18.6294 N   0  0  0  0  0  0  0  0  0  0  0  0
   21.1308  -16.3745  -18.4742 C   0  0  1  0  0  0  0  0  0  0  0  0
   20.1554  -17.1174  -17.6301 C   0  0  0  0  0  0  0  0  0  0  0  0
   18.9173  -17.4904  -18.3704 C   0  0  0  0  0  0  0  0  0  0  0  0
   18.8738  -19.0032  -18.6586 C   0  0  0  0  0  0  0  0  0  0  0  0
   17.6003  -19.3361  -19.4245 C   0  0  0  0  0  0  0  0  0  0  0  0
   17.6131  -20.7122  -19.8818 N   0  0  0  0  0  0  0  0  0  0  0  0
   21.0960  -14.9206  -18.4098 C   0  0  0  0  0  0  0  0  0  0  0  0
   21.9261  -14.3166  -17.7011 O   0  0  0  0  0  0  0  0  0  0  0  0
   20.3922   -8.7662  -22.0809 N   0  0  0  0  0  0  0  0  0  0  0  0
   20.0770  -10.1191  -21.8459 C   0  0  0  0  0  0  0  0  0  0  0  0
   19.7079  -10.8417  -22.7886 O   0  0  0  0  0  0  0  0  0  0  0  0
   20.2051  -10.6350  -20.4343 C   0  0  0  0  0  0  0  0  0  0  0  0
   20.1632  -12.1252  -20.4374 C   0  0  0  0  0  0  0  0  0  0  0  0
   20.1901  -12.7182  -19.0749 C   0  0  2  0  0  0  0  0  0  0  0  0
   20.1544  -14.1704  -19.1230 N   0  0  0  0  0  0  0  0  0  0  0  0
   19.0193  -12.2756  -18.2943 C   0  0  0  0  0  0  0  0  0  0  0  0
   17.9968  -13.0765  -17.8232 O   0  0  0  0  0  0  0  0  0  0  0  0
   18.9271  -11.0311  -18.0212 O   0  0  0  0  0  0  0  0  0  0  0  0
  2  1  1  0
  3  2  1  0
  3  4  1  6
  5  6  2  0
  5  3  1  0
  7  5  1  0
  8  7  1  0
  8  9  1  1
 10  9  1  0
 11 10  1  0
 12 11  1  0
 12 13  1  0
 14 22  1  0
 14  8  1  0
 15 14  2  0
 17 18  2  0
 17 16  1  0
 19 17  1  0
 21 20  1  6
 20 19  1  0
 21 23  1  0
 21 22  1  0
 23 24  1  0
 25 23  2  0
M  END
$$$$
