NRK.pdb
     RDKit          3D

 29 28  0  0  1  0  0  0  0  0999 V2000
   17.1571  -20.0050   12.8453 N   0  0  0  0  0  0  0  0  0  0  0  0
   17.6268  -19.0568   11.8504 C   0  0  0  0  0  0  0  0  0  0  0  0
   16.7357  -18.3430   11.3457 O   0  0  0  0  0  0  0  0  0  0  0  0
   19.0635  -19.0165   11.5302 C   0  0  0  0  0  0  0  0  0  0  0  0
   19.4950  -20.0576   10.5318 C   0  0  2  0  0  0  0  0  0  0  0  0
   20.9424  -20.2828   10.7201 N   0  0  0  0  0  0  0  0  0  0  0  0
   19.3369  -19.4810    9.1585 C   0  0  0  0  0  0  0  0  0  0  0  0
   20.2837  -18.8193    8.6824 O   0  0  0  0  0  0  0  0  0  0  0  0
   13.6241  -21.3625    2.4636 N   0  0  0  0  0  0  0  0  0  0  0  0
   14.6098  -20.4902    1.9366 C   0  0  0  0  0  0  0  0  0  0  0  0
   14.5811  -20.1237    0.6993 N   0  0  0  0  0  0  0  0  0  0  0  0
   15.6656  -19.9924    2.7684 N   0  0  0  0  0  0  0  0  0  0  0  0
   15.7145  -20.3182    4.1800 C   0  0  0  0  0  0  0  0  0  0  0  0
   16.7828  -19.5224    4.8955 C   0  0  0  0  0  0  0  0  0  0  0  0
   16.8756  -19.9726    6.3359 C   0  0  0  0  0  0  0  0  0  0  0  0
   17.9755  -19.2458    7.0784 C   0  0  2  0  0  0  0  0  0  0  0  0
   18.1269  -19.6910    8.4234 N   0  0  0  0  0  0  0  0  0  0  0  0
   17.6201  -17.7807    7.0126 C   0  0  0  0  0  0  0  0  0  0  0  0
   16.6862  -17.3187    7.7144 O   0  0  0  0  0  0  0  0  0  0  0  0
   15.3142  -19.4681    0.3691 N   0  0  0  0  0  0  0  0  0  0  0  0
   18.3164  -16.8845    6.1690 C   0  0  2  0  0  0  0  0  0  0  0  0
   18.0179  -15.4415    6.2162 C   0  0  0  0  0  0  0  0  0  0  0  0
   19.2704  -14.6561    6.4587 C   0  0  0  0  0  0  0  0  0  0  0  0
   19.0080  -13.1964    6.5313 C   0  0  0  0  0  0  0  0  0  0  0  0
   20.2975  -12.4384    6.8000 C   0  0  0  0  0  0  0  0  0  0  0  0
   19.8993  -10.9547    6.8164 N   0  0  0  0  0  0  0  0  0  0  0  0
   21.1016  -10.2028    7.0910 C   0  0  0  0  0  0  0  0  0  0  0  0
   17.3012  -15.1074    4.9784 O   0  0  0  0  0  0  0  0  0  0  0  0
   16.4734  -14.0039    4.9263 O   0  0  0  0  0  0  0  0  0  0  0  0
  2  1  1  0
  3  2  2  0
  4  5  1  0
  4  2  1  0
  5  6  1  1
  7  5  1  0
  7  8  2  0
 10  9  1  0
 11 10  2  0
 12 10  1  0
 13 12  1  0
 14 13  1  0
 15 14  1  0
 16 15  1  1
 16 17  1  0
 17  7  1  0
 18 16  1  0
 19 18  2  0
 20 18  1  0
 21 20  1  0
 21 27  1  0
 21 22  1  6
 23 24  1  0
 23 22  1  0
 24 25  1  0
 25 26  1  0
 27 28  1  0
 29 27  2  0
M  END
$$$$
