NRK.pdb
     RDKit          3D

 29 28  0  0  1  0  0  0  0  0999 V2000
   18.5907  -28.3176   -8.9748 N   0  0  0  0  0  0  0  0  0  0  0  0
   17.6161  -28.0282  -10.0121 C   0  0  0  0  0  0  0  0  0  0  0  0
   16.6790  -28.8488  -10.0938 O   0  0  0  0  0  0  0  0  0  0  0  0
   17.8062  -26.8337  -10.8520 C   0  0  0  0  0  0  0  0  0  0  0  0
   19.1047  -26.1135  -10.6026 C   0  0  2  0  0  0  0  0  0  0  0  0
   18.9400  -25.3100   -9.3745 N   0  0  0  0  0  0  0  0  0  0  0  0
   19.3171  -25.1352  -11.7167 C   0  0  0  0  0  0  0  0  0  0  0  0
   18.6270  -24.0938  -11.7288 O   0  0  0  0  0  0  0  0  0  0  0  0
   24.6575  -21.9535  -15.5891 N   0  0  0  0  0  0  0  0  0  0  0  0
   25.0763  -23.2629  -15.2422 C   0  0  0  0  0  0  0  0  0  0  0  0
   26.1405  -23.4567  -14.5382 N   0  0  0  0  0  0  0  0  0  0  0  0
   24.3246  -24.4072  -15.6666 N   0  0  0  0  0  0  0  0  0  0  0  0
   23.1829  -24.2602  -16.5475 C   0  0  0  0  0  0  0  0  0  0  0  0
   21.9352  -23.8858  -15.7796 C   0  0  0  0  0  0  0  0  0  0  0  0
   21.7057  -24.8793  -14.6633 C   0  0  0  0  0  0  0  0  0  0  0  0
   20.5074  -24.5038  -13.8192 C   0  0  2  0  0  0  0  0  0  0  0  0
   20.2888  -25.4004  -12.7336 N   0  0  0  0  0  0  0  0  0  0  0  0
   19.3304  -24.4733  -14.7629 C   0  0  0  0  0  0  0  0  0  0  0  0
   18.8215  -25.5425  -15.1825 O   0  0  0  0  0  0  0  0  0  0  0  0
   26.4350  -24.4356  -14.3610 N   0  0  0  0  0  0  0  0  0  0  0  0
   18.7636  -23.2555  -15.2047 C   0  0  2  0  0  0  0  0  0  0  0  0
   17.6494  -23.2656  -16.1702 C   0  0  0  0  0  0  0  0  0  0  0  0
   16.6068  -22.2646  -15.7759 C   0  0  0  0  0  0  0  0  0  0  0  0
   15.4568  -22.2578  -16.7152 C   0  0  0  0  0  0  0  0  0  0  0  0
   14.4080  -21.2557  -16.2624 C   0  0  0  0  0  0  0  0  0  0  0  0
   13.2334  -21.4302  -17.2373 N   0  0  0  0  0  0  0  0  0  0  0  0
   12.1325  -20.6604  -16.7066 C   0  0  0  0  0  0  0  0  0  0  0  0
   18.2314  -23.0686  -17.5043 O   0  0  0  0  0  0  0  0  0  0  0  0
   19.3978  -22.3465  -17.6582 O   0  0  0  0  0  0  0  0  0  0  0  0
  2  1  1  0
  3  2  2  0
  4  5  1  0
  4  2  1  0
  5  6  1  1
  7  5  1  0
  7  8  2  0
 10  9  1  0
 11 10  2  0
 12 10  1  0
 13 12  1  0
 14 13  1  0
 15 14  1  0
 16 15  1  6
 16 17  1  0
 17  7  1  0
 18 16  1  0
 19 18  2  0
 20 18  1  0
 21 20  1  0
 21 27  1  0
 21 22  1  1
 23 24  1  0
 23 22  1  0
 24 25  1  0
 25 26  1  0
 27 28  1  0
 29 27  2  0
M  END
$$$$
