NRK.pdb
     RDKit          3D

 29 28  0  0  1  0  0  0  0  0999 V2000
   28.7979  -25.4940  -18.2904 N   0  0  0  0  0  0  0  0  0  0  0  0
   28.0897  -25.9316  -17.1002 C   0  0  0  0  0  0  0  0  0  0  0  0
   28.3351  -27.1031  -16.7459 O   0  0  0  0  0  0  0  0  0  0  0  0
   27.1734  -24.9915  -16.4330 C   0  0  0  0  0  0  0  0  0  0  0  0
   27.1126  -23.6347  -17.0828 C   0  0  2  0  0  0  0  0  0  0  0  0
   28.3785  -22.9377  -16.7784 N   0  0  0  0  0  0  0  0  0  0  0  0
   26.0295  -22.8452  -16.4140 C   0  0  0  0  0  0  0  0  0  0  0  0
   24.8427  -23.1764  -16.6206 O   0  0  0  0  0  0  0  0  0  0  0  0
   24.6354  -21.3996  -11.1423 N   0  0  0  0  0  0  0  0  0  0  0  0
   25.2652  -20.7160  -10.0716 C   0  0  0  0  0  0  0  0  0  0  0  0
   24.8055  -20.7970   -8.8683 N   0  0  0  0  0  0  0  0  0  0  0  0
   26.4320  -19.9159  -10.3008 N   0  0  0  0  0  0  0  0  0  0  0  0
   27.0354  -19.8434  -11.6168 C   0  0  0  0  0  0  0  0  0  0  0  0
   26.3810  -20.8077  -12.5803 C   0  0  0  0  0  0  0  0  0  0  0  0
   25.9440  -20.0682  -13.8245 C   0  0  0  0  0  0  0  0  0  0  0  0
   25.3644  -21.0085  -14.8584 C   0  0  2  0  0  0  0  0  0  0  0  0
   26.3612  -21.7428  -15.5635 N   0  0  0  0  0  0  0  0  0  0  0  0
   24.5451  -20.1467  -15.7874 C   0  0  0  0  0  0  0  0  0  0  0  0
   25.1075  -19.3709  -16.5998 O   0  0  0  0  0  0  0  0  0  0  0  0
   25.2680  -20.2313   -8.1318 N   0  0  0  0  0  0  0  0  0  0  0  0
   23.1314  -20.1798  -15.7783 C   0  0  2  0  0  0  0  0  0  0  0  0
   22.3662  -19.3556  -16.7316 C   0  0  0  0  0  0  0  0  0  0  0  0
   21.1478  -20.0917  -17.1985 C   0  0  0  0  0  0  0  0  0  0  0  0
   20.3339  -19.2819  -18.1403 C   0  0  0  0  0  0  0  0  0  0  0  0
   19.1087  -20.0615  -18.5880 C   0  0  0  0  0  0  0  0  0  0  0  0
   18.4946  -19.2322  -19.7263 N   0  0  0  0  0  0  0  0  0  0  0  0
   17.2955  -19.9204  -20.1442 C   0  0  0  0  0  0  0  0  0  0  0  0
   22.1047  -18.0672  -16.0766 O   0  0  0  0  0  0  0  0  0  0  0  0
   21.9451  -17.9992  -14.7070 O   0  0  0  0  0  0  0  0  0  0  0  0
  2  1  1  0
  3  2  2  0
  4  5  1  0
  4  2  1  0
  5  6  1  1
  7  5  1  0
  7  8  2  0
 10  9  1  0
 11 10  2  0
 12 10  1  0
 13 12  1  0
 14 13  1  0
 15 14  1  0
 16 15  1  1
 16 17  1  0
 17  7  1  0
 18 16  1  0
 19 18  2  0
 20 18  1  0
 21 20  1  0
 21 27  1  0
 21 22  1  1
 23 24  1  0
 23 22  1  0
 24 25  1  0
 25 26  1  0
 27 28  1  0
 29 27  2  0
M  END
$$$$
