NRK.pdb
     RDKit          3D

 29 28  0  0  1  0  0  0  0  0999 V2000
   26.5823  -21.5362  -16.9511 N   0  0  0  0  0  0  0  0  0  0  0  0
   25.9889  -21.2839  -15.6496 C   0  0  0  0  0  0  0  0  0  0  0  0
   26.8070  -21.0296  -14.7416 O   0  0  0  0  0  0  0  0  0  0  0  0
   24.5241  -21.3465  -15.5126 C   0  0  0  0  0  0  0  0  0  0  0  0
   24.0251  -20.9970  -14.1357 C   0  0  2  0  0  0  0  0  0  0  0  0
   24.5838  -21.9882  -13.1943 N   0  0  0  0  0  0  0  0  0  0  0  0
   22.5401  -21.1911  -14.1144 C   0  0  0  0  0  0  0  0  0  0  0  0
   21.8579  -20.6328  -14.9998 O   0  0  0  0  0  0  0  0  0  0  0  0
   18.7195  -25.8851   -8.2342 N   0  0  0  0  0  0  0  0  0  0  0  0
   18.1637  -24.5896   -8.3856 C   0  0  0  0  0  0  0  0  0  0  0  0
   17.4280  -24.0689   -7.4618 N   0  0  0  0  0  0  0  0  0  0  0  0
   18.4067  -23.8241   -9.5728 N   0  0  0  0  0  0  0  0  0  0  0  0
   18.2784  -24.4279  -10.8843 C   0  0  0  0  0  0  0  0  0  0  0  0
   18.6325  -23.4497  -11.9817 C   0  0  0  0  0  0  0  0  0  0  0  0
   20.1047  -23.1130  -11.9097 C   0  0  0  0  0  0  0  0  0  0  0  0
   20.5231  -22.1939  -13.0364 C   0  0  2  0  0  0  0  0  0  0  0  0
   21.9330  -21.9979  -13.0999 N   0  0  0  0  0  0  0  0  0  0  0  0
   19.7896  -20.8957  -12.8046 C   0  0  0  0  0  0  0  0  0  0  0  0
   20.3244  -19.9698  -12.1452 O   0  0  0  0  0  0  0  0  0  0  0  0
   17.0375  -23.1220   -7.6269 N   0  0  0  0  0  0  0  0  0  0  0  0
   18.4891  -20.6759  -13.3145 C   0  0  1  0  0  0  0  0  0  0  0  0
   17.9698  -19.3026  -13.4489 C   0  0  0  0  0  0  0  0  0  0  0  0
   18.7542  -18.5452  -14.4764 C   0  0  0  0  0  0  0  0  0  0  0  0
   18.1543  -17.2190  -14.7698 C   0  0  0  0  0  0  0  0  0  0  0  0
   18.9073  -16.5342  -15.8983 C   0  0  0  0  0  0  0  0  0  0  0  0
   18.1717  -15.2051  -16.1281 N   0  0  0  0  0  0  0  0  0  0  0  0
   19.0080  -14.4100  -16.9968 C   0  0  0  0  0  0  0  0  0  0  0  0
   16.5295  -19.4091  -13.7165 O   0  0  0  0  0  0  0  0  0  0  0  0
   15.6843  -18.3585  -13.4206 O   0  0  0  0  0  0  0  0  0  0  0  0
  2  1  1  0
  3  2  2  0
  4  5  1  0
  4  2  1  0
  5  6  1  1
  7  5  1  0
  7  8  2  0
 10  9  1  0
 11 10  2  0
 12 10  1  0
 13 12  1  0
 14 13  1  0
 15 14  1  0
 16 15  1  1
 16 17  1  0
 17  7  1  0
 18 16  1  0
 19 18  2  0
 20 18  1  0
 21 20  1  0
 21 27  1  0
 21 22  1  6
 23 24  1  0
 23 22  1  0
 24 25  1  0
 25 26  1  0
 27 28  1  0
 29 27  2  0
M  END
$$$$
