NRK.pdb
     RDKit          3D

 29 28  0  0  1  0  0  0  0  0999 V2000
   20.2889  -30.8091  -13.2937 N   0  0  0  0  0  0  0  0  0  0  0  0
   19.6750  -31.0018  -11.9916 C   0  0  0  0  0  0  0  0  0  0  0  0
   19.1952  -32.1385  -11.8020 O   0  0  0  0  0  0  0  0  0  0  0  0
   19.6689  -29.8812  -11.0363 C   0  0  0  0  0  0  0  0  0  0  0  0
   20.2832  -28.6169  -11.5759 C   0  0  2  0  0  0  0  0  0  0  0  0
   21.7465  -28.8126  -11.6123 N   0  0  0  0  0  0  0  0  0  0  0  0
   20.0329  -27.5184  -10.5888 C   0  0  0  0  0  0  0  0  0  0  0  0
   20.8376  -27.3783   -9.6434 O   0  0  0  0  0  0  0  0  0  0  0  0
   16.0120  -21.0505  -13.1526 N   0  0  0  0  0  0  0  0  0  0  0  0
   17.4119  -20.8262  -13.1611 C   0  0  0  0  0  0  0  0  0  0  0  0
   17.9682  -20.1267  -14.0923 N   0  0  0  0  0  0  0  0  0  0  0  0
   18.2461  -21.3728  -12.1316 N   0  0  0  0  0  0  0  0  0  0  0  0
   17.6695  -22.0934  -11.0138 C   0  0  0  0  0  0  0  0  0  0  0  0
   18.5796  -23.2051  -10.5426 C   0  0  0  0  0  0  0  0  0  0  0  0
   17.7960  -24.4932  -10.4305 C   0  0  0  0  0  0  0  0  0  0  0  0
   18.6274  -25.6018   -9.8230 C   0  0  2  0  0  0  0  0  0  0  0  0
   18.8974  -26.6600  -10.7380 N   0  0  0  0  0  0  0  0  0  0  0  0
   17.8542  -26.0872   -8.6216 C   0  0  0  0  0  0  0  0  0  0  0  0
   16.8166  -26.7801   -8.7682 O   0  0  0  0  0  0  0  0  0  0  0  0
   18.9976  -20.0027  -14.0584 N   0  0  0  0  0  0  0  0  0  0  0  0
   18.2634  -25.7838   -7.3024 C   0  0  2  0  0  0  0  0  0  0  0  0
   17.4243  -26.1827   -6.1576 C   0  0  0  0  0  0  0  0  0  0  0  0
   18.2651  -26.3628   -4.9308 C   0  0  0  0  0  0  0  0  0  0  0  0
   17.4450  -26.6823   -3.7348 C   0  0  0  0  0  0  0  0  0  0  0  0
   18.3172  -26.7313   -2.4913 C   0  0  0  0  0  0  0  0  0  0  0  0
   17.3403  -26.9007   -1.3177 N   0  0  0  0  0  0  0  0  0  0  0  0
   18.1183  -26.7827   -0.1066 C   0  0  0  0  0  0  0  0  0  0  0  0
   16.3522  -25.1857   -6.0391 O   0  0  0  0  0  0  0  0  0  0  0  0
   15.1123  -25.5475   -5.5517 O   0  0  0  0  0  0  0  0  0  0  0  0
  2  1  1  0
  3  2  2  0
  4  5  1  0
  4  2  1  0
  5  6  1  1
  7  5  1  0
  7  8  2  0
 10  9  1  0
 11 10  2  0
 12 10  1  0
 13 12  1  0
 14 13  1  0
 15 14  1  0
 16 15  1  6
 16 17  1  0
 17  7  1  0
 18 16  1  0
 19 18  2  0
 20 18  1  0
 21 20  1  0
 21 27  1  0
 21 22  1  1
 23 24  1  0
 23 22  1  0
 24 25  1  0
 25 26  1  0
 27 28  1  0
 29 27  2  0
M  END
$$$$
