NRK.pdb
     RDKit          3D

 29 28  0  0  1  0  0  0  0  0999 V2000
   23.2110  -15.9733  -20.3593 N   0  0  0  0  0  0  0  0  0  0  0  0
   24.2530  -16.9089  -19.9740 C   0  0  0  0  0  0  0  0  0  0  0  0
   25.3553  -16.7227  -20.5293 O   0  0  0  0  0  0  0  0  0  0  0  0
   23.9354  -17.9623  -18.9953 C   0  0  0  0  0  0  0  0  0  0  0  0
   22.5270  -17.8989  -18.4668 C   0  0  2  0  0  0  0  0  0  0  0  0
   22.3920  -16.6392  -17.7079 N   0  0  0  0  0  0  0  0  0  0  0  0
   22.3510  -19.0061  -17.4736 C   0  0  0  0  0  0  0  0  0  0  0  0
   22.3154  -20.1808  -17.8977 O   0  0  0  0  0  0  0  0  0  0  0  0
   24.5894  -24.6654  -16.7928 N   0  0  0  0  0  0  0  0  0  0  0  0
   24.5972  -24.2127  -15.4492 C   0  0  0  0  0  0  0  0  0  0  0  0
   24.1517  -24.9570  -14.4935 N   0  0  0  0  0  0  0  0  0  0  0  0
   25.1022  -22.9125  -15.1189 N   0  0  0  0  0  0  0  0  0  0  0  0
   24.7705  -22.2869  -13.8541 C   0  0  0  0  0  0  0  0  0  0  0  0
   23.4427  -21.5668  -13.9236 C   0  0  0  0  0  0  0  0  0  0  0  0
   23.5304  -20.4293  -14.9157 C   0  0  0  0  0  0  0  0  0  0  0  0
   22.1965  -19.7368  -15.0908 C   0  0  2  0  0  0  0  0  0  0  0  0
   22.2280  -18.7105  -16.0786 N   0  0  0  0  0  0  0  0  0  0  0  0
   21.8326  -19.1916  -13.7316 C   0  0  0  0  0  0  0  0  0  0  0  0
   22.7189  -19.0045  -12.8612 O   0  0  0  0  0  0  0  0  0  0  0  0
   24.1407  -24.5622  -13.5342 N   0  0  0  0  0  0  0  0  0  0  0  0
   20.4970  -18.8752  -13.3913 C   0  0  2  0  0  0  0  0  0  0  0  0
   19.7078  -19.7991  -12.5564 C   0  0  0  0  0  0  0  0  0  0  0  0
   19.2140  -20.9521  -13.3758 C   0  0  0  0  0  0  0  0  0  0  0  0
   18.3376  -21.8586  -12.5915 C   0  0  0  0  0  0  0  0  0  0  0  0
   17.7871  -22.9628  -13.4788 C   0  0  0  0  0  0  0  0  0  0  0  0
   16.9641  -23.8616  -12.5433 N   0  0  0  0  0  0  0  0  0  0  0  0
   16.5113  -24.9828  -13.3334 C   0  0  0  0  0  0  0  0  0  0  0  0
   20.5444  -20.1639  -11.4055 O   0  0  0  0  0  0  0  0  0  0  0  0
   20.0990  -19.9384  -10.1185 O   0  0  0  0  0  0  0  0  0  0  0  0
  2  1  1  0
  3  2  2  0
  4  5  1  0
  4  2  1  0
  5  6  1  1
  7  5  1  0
  7  8  2  0
 10  9  1  0
 11 10  2  0
 12 10  1  0
 13 12  1  0
 14 13  1  0
 15 14  1  0
 16 15  1  1
 16 17  1  0
 17  7  1  0
 18 16  1  0
 19 18  2  0
 20 18  1  0
 21 20  1  0
 21 27  1  0
 21 22  1  6
 23 24  1  0
 23 22  1  0
 24 25  1  0
 25 26  1  0
 27 28  1  0
 29 27  2  0
M  END
$$$$
