NRK.pdb
     RDKit          3D

 29 28  0  0  1  0  0  0  0  0999 V2000
   28.7461  -10.7291  -16.2459 N   0  0  0  0  0  0  0  0  0  0  0  0
   28.3165   -9.9408  -17.3876 C   0  0  0  0  0  0  0  0  0  0  0  0
   29.2299   -9.3177  -17.9671 O   0  0  0  0  0  0  0  0  0  0  0  0
   26.8905   -9.9410  -17.7549 C   0  0  0  0  0  0  0  0  0  0  0  0
   26.0218  -10.7466  -16.8257 C   0  0  2  0  0  0  0  0  0  0  0  0
   26.3647  -12.1702  -17.0172 N   0  0  0  0  0  0  0  0  0  0  0  0
   24.5991  -10.5961  -17.2692 C   0  0  0  0  0  0  0  0  0  0  0  0
   24.2040  -11.2859  -18.2330 O   0  0  0  0  0  0  0  0  0  0  0  0
   18.2312  -14.8390  -15.2849 N   0  0  0  0  0  0  0  0  0  0  0  0
   17.5531  -13.7404  -15.8712 C   0  0  0  0  0  0  0  0  0  0  0  0
   16.2829  -13.7852  -16.0954 N   0  0  0  0  0  0  0  0  0  0  0  0
   18.2649  -12.5492  -16.2300 N   0  0  0  0  0  0  0  0  0  0  0  0
   19.6982  -12.4542  -16.0360 C   0  0  0  0  0  0  0  0  0  0  0  0
   20.2359  -11.1260  -16.5189 C   0  0  0  0  0  0  0  0  0  0  0  0
   21.7297  -11.0676  -16.2929 C   0  0  0  0  0  0  0  0  0  0  0  0
   22.3113   -9.7452  -16.7425 C   0  0  2  0  0  0  0  0  0  0  0  0
   23.7272   -9.6818  -16.5966 N   0  0  0  0  0  0  0  0  0  0  0  0
   21.6180   -8.6877  -15.9191 C   0  0  0  0  0  0  0  0  0  0  0  0
   21.3193   -8.9078  -14.7188 O   0  0  0  0  0  0  0  0  0  0  0  0
   15.8349  -12.9533  -16.5239 N   0  0  0  0  0  0  0  0  0  0  0  0
   21.2827   -7.4253  -16.4611 C   0  0  2  0  0  0  0  0  0  0  0  0
   20.4408   -6.4905  -15.6924 C   0  0  0  0  0  0  0  0  0  0  0  0
   19.0099   -6.9334  -15.7180 C   0  0  0  0  0  0  0  0  0  0  0  0
   18.4788   -7.0237  -17.1017 C   0  0  0  0  0  0  0  0  0  0  0  0
   17.0459   -7.5295  -17.0880 C   0  0  0  0  0  0  0  0  0  0  0  0
   16.6229   -7.5884  -18.5638 N   0  0  0  0  0  0  0  0  0  0  0  0
   15.8095   -8.7720  -18.7179 C   0  0  0  0  0  0  0  0  0  0  0  0
   21.0346   -6.3742  -14.3539 O   0  0  0  0  0  0  0  0  0  0  0  0
   20.8028   -5.2537  -13.5816 O   0  0  0  0  0  0  0  0  0  0  0  0
  2  1  1  0
  3  2  2  0
  4  5  1  0
  4  2  1  0
  5  6  1  6
  7  5  1  0
  7  8  2  0
 10  9  1  0
 11 10  2  0
 12 10  1  0
 13 12  1  0
 14 13  1  0
 15 14  1  0
 16 15  1  1
 16 17  1  0
 17  7  1  0
 18 16  1  0
 19 18  2  0
 20 18  1  0
 21 20  1  0
 21 27  1  0
 21 22  1  6
 23 24  1  0
 23 22  1  0
 24 25  1  0
 25 26  1  0
 27 28  1  0
 29 27  2  0
M  END
$$$$
