NRK.pdb
     RDKit          3D

 29 28  0  0  1  0  0  0  0  0999 V2000
   29.2808  -18.6813  -20.0487 N   0  0  0  0  0  0  0  0  0  0  0  0
   29.8207  -19.8838  -19.4388 C   0  0  0  0  0  0  0  0  0  0  0  0
   30.8586  -20.3226  -19.9759 O   0  0  0  0  0  0  0  0  0  0  0  0
   29.1248  -20.4658  -18.2788 C   0  0  0  0  0  0  0  0  0  0  0  0
   27.8594  -19.7426  -17.9012 C   0  0  2  0  0  0  0  0  0  0  0  0
   28.2452  -18.4301  -17.3449 N   0  0  0  0  0  0  0  0  0  0  0  0
   27.2078  -20.4956  -16.7824 C   0  0  0  0  0  0  0  0  0  0  0  0
   26.8026  -21.6558  -17.0075 O   0  0  0  0  0  0  0  0  0  0  0  0
   23.5362  -19.8807  -10.4304 N   0  0  0  0  0  0  0  0  0  0  0  0
   24.2675  -20.5436   -9.4125 C   0  0  0  0  0  0  0  0  0  0  0  0
   23.6774  -21.0025   -8.3604 N   0  0  0  0  0  0  0  0  0  0  0  0
   25.6851  -20.7209   -9.5283 N   0  0  0  0  0  0  0  0  0  0  0  0
   26.4221  -20.1153  -10.6196 C   0  0  0  0  0  0  0  0  0  0  0  0
   25.9955  -20.6788  -11.9564 C   0  0  0  0  0  0  0  0  0  0  0  0
   26.7912  -20.0248  -13.0632 C   0  0  0  0  0  0  0  0  0  0  0  0
   26.3856  -20.5449  -14.4249 C   0  0  2  0  0  0  0  0  0  0  0  0
   27.0602  -19.8885  -15.4946 N   0  0  0  0  0  0  0  0  0  0  0  0
   24.8908  -20.3580  -14.5102 C   0  0  0  0  0  0  0  0  0  0  0  0
   24.3781  -19.2256  -14.3280 O   0  0  0  0  0  0  0  0  0  0  0  0
   24.2585  -21.4806   -7.6462 N   0  0  0  0  0  0  0  0  0  0  0  0
   24.0221  -21.4369  -14.7946 C   0  0  2  0  0  0  0  0  0  0  0  0
   22.5670  -21.2134  -14.8754 C   0  0  0  0  0  0  0  0  0  0  0  0
   21.8319  -22.5153  -14.7798 C   0  0  0  0  0  0  0  0  0  0  0  0
   20.4571  -22.4213  -15.3330 C   0  0  0  0  0  0  0  0  0  0  0  0
   19.7713  -23.7764  -15.2825 C   0  0  0  0  0  0  0  0  0  0  0  0
   18.3617  -23.5382  -15.8452 N   0  0  0  0  0  0  0  0  0  0  0  0
   17.6784  -24.8103  -15.8118 C   0  0  0  0  0  0  0  0  0  0  0  0
   22.2234  -20.2251  -13.8446 O   0  0  0  0  0  0  0  0  0  0  0  0
   22.5704  -20.4412  -12.5260 O   0  0  0  0  0  0  0  0  0  0  0  0
  2  1  1  0
  3  2  2  0
  4  5  1  0
  4  2  1  0
  5  6  1  1
  7  5  1  0
  7  8  2  0
 10  9  1  0
 11 10  2  0
 12 10  1  0
 13 12  1  0
 14 13  1  0
 15 14  1  0
 16 15  1  1
 16 17  1  0
 17  7  1  0
 18 16  1  0
 19 18  2  0
 20 18  1  0
 21 20  1  0
 21 27  1  0
 21 22  1  6
 23 24  1  0
 23 22  1  0
 24 25  1  0
 25 26  1  0
 27 28  1  0
 29 27  2  0
M  END
$$$$
