NRK.pdb
     RDKit          3D

 29 28  0  0  1  0  0  0  0  0999 V2000
   27.2959  -22.8354  -17.1339 N   0  0  0  0  0  0  0  0  0  0  0  0
   26.4180  -23.5457  -16.2204 C   0  0  0  0  0  0  0  0  0  0  0  0
   26.6907  -24.7539  -16.0653 O   0  0  0  0  0  0  0  0  0  0  0  0
   25.3181  -22.8092  -15.5754 C   0  0  0  0  0  0  0  0  0  0  0  0
   25.2217  -21.3665  -15.9954 C   0  0  2  0  0  0  0  0  0  0  0  0
   26.4531  -20.6876  -15.5439 N   0  0  0  0  0  0  0  0  0  0  0  0
   24.0944  -20.7345  -15.2383 C   0  0  0  0  0  0  0  0  0  0  0  0
   24.3319  -20.2685  -14.1037 O   0  0  0  0  0  0  0  0  0  0  0  0
   19.3552  -15.5093  -13.7172 N   0  0  0  0  0  0  0  0  0  0  0  0
   18.6239  -15.3367  -14.9195 C   0  0  0  0  0  0  0  0  0  0  0  0
   18.2696  -14.1621  -15.3202 N   0  0  0  0  0  0  0  0  0  0  0  0
   18.2593  -16.4670  -15.7219 N   0  0  0  0  0  0  0  0  0  0  0  0
   19.2728  -17.2703  -16.3765 C   0  0  0  0  0  0  0  0  0  0  0  0
   20.0008  -18.1555  -15.3901 C   0  0  0  0  0  0  0  0  0  0  0  0
   21.0421  -18.9781  -16.1145 C   0  0  0  0  0  0  0  0  0  0  0  0
   21.7200  -19.9631  -15.1873 C   0  0  2  0  0  0  0  0  0  0  0  0
   22.7849  -20.6735  -15.8128 N   0  0  0  0  0  0  0  0  0  0  0  0
   20.6337  -20.8946  -14.7085 C   0  0  0  0  0  0  0  0  0  0  0  0
   19.9644  -21.5696  -15.5299 O   0  0  0  0  0  0  0  0  0  0  0  0
   17.8117  -14.0822  -16.2477 N   0  0  0  0  0  0  0  0  0  0  0  0
   20.3324  -21.0405  -13.3346 C   0  0  2  0  0  0  0  0  0  0  0  0
   19.2905  -21.9902  -12.9029 C   0  0  0  0  0  0  0  0  0  0  0  0
   19.2791  -22.1106  -11.4096 C   0  0  0  0  0  0  0  0  0  0  0  0
   18.1371  -22.9263  -10.9246 C   0  0  0  0  0  0  0  0  0  0  0  0
   18.6148  -23.9658   -9.9244 C   0  0  0  0  0  0  0  0  0  0  0  0
   17.3838  -24.8348   -9.6241 N   0  0  0  0  0  0  0  0  0  0  0  0
   17.8162  -25.8717   -8.7164 C   0  0  0  0  0  0  0  0  0  0  0  0
   18.0255  -21.5468  -13.5033 O   0  0  0  0  0  0  0  0  0  0  0  0
   17.1343  -22.4683  -14.0154 O   0  0  0  0  0  0  0  0  0  0  0  0
  2  1  1  0
  3  2  2  0
  4  5  1  0
  4  2  1  0
  5  6  1  1
  7  5  1  0
  7  8  2  0
 10  9  1  0
 11 10  2  0
 12 10  1  0
 13 12  1  0
 14 13  1  0
 15 14  1  0
 16 15  1  6
 16 17  1  0
 17  7  1  0
 18 16  1  0
 19 18  2  0
 20 18  1  0
 21 20  1  0
 21 27  1  0
 21 22  1  1
 23 24  1  0
 23 22  1  0
 24 25  1  0
 25 26  1  0
 27 28  1  0
 29 27  2  0
M  END
$$$$
