NRK.pdb
     RDKit          3D

 29 28  0  0  1  0  0  0  0  0999 V2000
   21.6764  -18.1579  -19.4448 N   0  0  0  0  0  0  0  0  0  0  0  0
   22.5852  -18.2373  -18.3146 C   0  0  0  0  0  0  0  0  0  0  0  0
   23.4280  -17.3185  -18.2549 O   0  0  0  0  0  0  0  0  0  0  0  0
   22.4431  -19.3547  -17.3660 C   0  0  0  0  0  0  0  0  0  0  0  0
   23.4172  -19.3082  -16.2189 C   0  0  2  0  0  0  0  0  0  0  0  0
   24.7250  -19.7706  -16.7257 N   0  0  0  0  0  0  0  0  0  0  0  0
   22.9846  -20.3155  -15.1983 C   0  0  0  0  0  0  0  0  0  0  0  0
   22.9017  -21.5124  -15.5468 O   0  0  0  0  0  0  0  0  0  0  0  0
   27.5232  -22.0791  -10.7567 N   0  0  0  0  0  0  0  0  0  0  0  0
   27.2481  -21.1142  -11.7584 C   0  0  0  0  0  0  0  0  0  0  0  0
   27.9155  -21.0926  -12.8629 N   0  0  0  0  0  0  0  0  0  0  0  0
   26.2180  -20.1359  -11.5678 N   0  0  0  0  0  0  0  0  0  0  0  0
   25.1648  -20.3472  -10.5946 C   0  0  0  0  0  0  0  0  0  0  0  0
   24.0910  -21.2668  -11.1311 C   0  0  0  0  0  0  0  0  0  0  0  0
   22.8604  -20.4627  -11.4847 C   0  0  0  0  0  0  0  0  0  0  0  0
   22.3214  -20.8370  -12.8480 C   0  0  2  0  0  0  0  0  0  0  0  0
   22.6774  -19.9024  -13.8628 N   0  0  0  0  0  0  0  0  0  0  0  0
   20.8248  -20.9413  -12.6861 C   0  0  0  0  0  0  0  0  0  0  0  0
   20.1847  -20.0456  -12.0809 O   0  0  0  0  0  0  0  0  0  0  0  0
   27.6965  -20.3460  -13.5491 N   0  0  0  0  0  0  0  0  0  0  0  0
   20.0961  -22.0375  -13.2030 C   0  0  2  0  0  0  0  0  0  0  0  0
   18.9222  -22.5540  -12.4759 C   0  0  0  0  0  0  0  0  0  0  0  0
   19.3491  -23.2429  -11.2159 C   0  0  0  0  0  0  0  0  0  0  0  0
   18.1998  -23.8415  -10.4908 C   0  0  0  0  0  0  0  0  0  0  0  0
   18.6723  -24.5199   -9.2157 C   0  0  0  0  0  0  0  0  0  0  0  0
   17.4003  -25.0754   -8.5571 N   0  0  0  0  0  0  0  0  0  0  0  0
   17.8197  -25.7817   -7.3691 C   0  0  0  0  0  0  0  0  0  0  0  0
   17.9987  -21.4271  -12.2894 O   0  0  0  0  0  0  0  0  0  0  0  0
   16.6412  -21.5985  -12.4724 O   0  0  0  0  0  0  0  0  0  0  0  0
  2  1  1  0
  3  2  2  0
  4  5  1  0
  4  2  1  0
  5  6  1  6
  7  5  1  0
  7  8  2  0
 10  9  1  0
 11 10  2  0
 12 10  1  0
 13 12  1  0
 14 13  1  0
 15 14  1  0
 16 15  1  1
 16 17  1  0
 17  7  1  0
 18 16  1  0
 19 18  2  0
 20 18  1  0
 21 20  1  0
 21 27  1  0
 21 22  1  6
 23 24  1  0
 23 22  1  0
 24 25  1  0
 25 26  1  0
 27 28  1  0
 29 27  2  0
M  END
$$$$
