NRK.pdb
     RDKit          3D

 29 28  0  0  1  0  0  0  0  0999 V2000
   18.5695  -13.5906  -17.2819 N   0  0  0  0  0  0  0  0  0  0  0  0
   19.0709  -13.7558  -15.9288 C   0  0  0  0  0  0  0  0  0  0  0  0
   18.6090  -14.7402  -15.3158 O   0  0  0  0  0  0  0  0  0  0  0  0
   20.0477  -12.7838  -15.4096 C   0  0  0  0  0  0  0  0  0  0  0  0
   20.4060  -11.6974  -16.3887 C   0  0  2  0  0  0  0  0  0  0  0  0
   21.2898  -12.2927  -17.4112 N   0  0  0  0  0  0  0  0  0  0  0  0
   21.2294  -10.6739  -15.6691 C   0  0  0  0  0  0  0  0  0  0  0  0
   20.7088  -10.0627  -14.7119 O   0  0  0  0  0  0  0  0  0  0  0  0
   29.5376  -10.9579  -17.0046 N   0  0  0  0  0  0  0  0  0  0  0  0
   28.3570  -10.9426  -17.7896 C   0  0  0  0  0  0  0  0  0  0  0  0
   28.4116  -11.0386  -19.0756 N   0  0  0  0  0  0  0  0  0  0  0  0
   27.0697  -10.8200  -17.1715 N   0  0  0  0  0  0  0  0  0  0  0  0
   26.9239  -10.9256  -15.7332 C   0  0  0  0  0  0  0  0  0  0  0  0
   25.4714  -10.8655  -15.3176 C   0  0  0  0  0  0  0  0  0  0  0  0
   24.8576   -9.5684  -15.7936 C   0  0  0  0  0  0  0  0  0  0  0  0
   23.3987   -9.4654  -15.4058 C   0  0  2  0  0  0  0  0  0  0  0  0
   22.5758  -10.4138  -16.0792 N   0  0  0  0  0  0  0  0  0  0  0  0
   22.9870   -8.0479  -15.7193 C   0  0  0  0  0  0  0  0  0  0  0  0
   23.1433   -7.5789  -16.8742 O   0  0  0  0  0  0  0  0  0  0  0  0
   27.5207  -10.9923  -19.6051 N   0  0  0  0  0  0  0  0  0  0  0  0
   22.4171   -7.2053  -14.7370 C   0  0  1  0  0  0  0  0  0  0  0  0
   21.8841   -5.8838  -15.1154 C   0  0  0  0  0  0  0  0  0  0  0  0
   20.4443   -5.9954  -15.5142 C   0  0  0  0  0  0  0  0  0  0  0  0
   19.8510   -4.6730  -15.8371 C   0  0  0  0  0  0  0  0  0  0  0  0
   18.3606   -4.8102  -16.0998 C   0  0  0  0  0  0  0  0  0  0  0  0
   17.8842   -3.3992  -16.4773 N   0  0  0  0  0  0  0  0  0  0  0  0
   16.4740   -3.4999  -16.7730 C   0  0  0  0  0  0  0  0  0  0  0  0
   22.1530   -4.9722  -13.9955 O   0  0  0  0  0  0  0  0  0  0  0  0
   22.0819   -3.6052  -14.1746 O   0  0  0  0  0  0  0  0  0  0  0  0
  2  1  1  0
  3  2  2  0
  4  5  1  0
  4  2  1  0
  5  6  1  6
  7  5  1  0
  7  8  2  0
 10  9  1  0
 11 10  2  0
 12 10  1  0
 13 12  1  0
 14 13  1  0
 15 14  1  0
 16 15  1  6
 16 17  1  0
 17  7  1  0
 18 16  1  0
 19 18  2  0
 20 18  1  0
 21 20  1  0
 21 27  1  0
 21 22  1  6
 23 24  1  0
 23 22  1  0
 24 25  1  0
 25 26  1  0
 27 28  1  0
 29 27  2  0
M  END
$$$$
