NRK.pdb
     RDKit          3D

 29 28  0  0  1  0  0  0  0  0999 V2000
   27.5545  -17.9437  -20.0095 N   0  0  0  0  0  0  0  0  0  0  0  0
   26.4094  -17.3592  -19.3338 C   0  0  0  0  0  0  0  0  0  0  0  0
   26.1887  -16.1635  -19.6165 O   0  0  0  0  0  0  0  0  0  0  0  0
   25.6307  -18.1946  -18.4042 C   0  0  0  0  0  0  0  0  0  0  0  0
   26.2630  -19.5284  -18.1075 C   0  0  2  0  0  0  0  0  0  0  0  0
   26.0875  -20.3802  -19.3010 N   0  0  0  0  0  0  0  0  0  0  0  0
   25.4813  -20.1814  -17.0093 C   0  0  0  0  0  0  0  0  0  0  0  0
   24.4856  -20.8690  -17.3205 O   0  0  0  0  0  0  0  0  0  0  0  0
   26.5127  -20.5078   -8.0317 N   0  0  0  0  0  0  0  0  0  0  0  0
   25.1664  -20.8583   -8.3049 C   0  0  0  0  0  0  0  0  0  0  0  0
   24.3281  -21.0763   -7.3480 N   0  0  0  0  0  0  0  0  0  0  0  0
   24.7022  -20.9792   -9.6556 N   0  0  0  0  0  0  0  0  0  0  0  0
   25.5569  -20.6181  -10.7692 C   0  0  0  0  0  0  0  0  0  0  0  0
   24.8463  -20.7925  -12.0924 C   0  0  0  0  0  0  0  0  0  0  0  0
   25.7388  -20.3191  -13.2173 C   0  0  0  0  0  0  0  0  0  0  0  0
   25.0611  -20.4555  -14.5631 C   0  0  2  0  0  0  0  0  0  0  0  0
   25.8768  -20.0128  -15.6442 N   0  0  0  0  0  0  0  0  0  0  0  0
   23.7839  -19.6579  -14.4653 C   0  0  0  0  0  0  0  0  0  0  0  0
   23.8204  -18.4131  -14.2998 O   0  0  0  0  0  0  0  0  0  0  0  0
   23.3658  -21.3695   -7.6017 N   0  0  0  0  0  0  0  0  0  0  0  0
   22.5143  -20.2741  -14.5550 C   0  0  2  0  0  0  0  0  0  0  0  0
   21.2897  -19.4761  -14.3624 C   0  0  0  0  0  0  0  0  0  0  0  0
   20.4340  -19.5266  -15.5911 C   0  0  0  0  0  0  0  0  0  0  0  0
   19.1580  -18.7884  -15.4128 C   0  0  0  0  0  0  0  0  0  0  0  0
   18.2877  -18.9268  -16.6509 C   0  0  0  0  0  0  0  0  0  0  0  0
   17.0535  -18.0536  -16.3780 N   0  0  0  0  0  0  0  0  0  0  0  0
   16.1960  -18.1698  -17.5345 C   0  0  0  0  0  0  0  0  0  0  0  0
   20.6469  -19.9600  -13.1335 O   0  0  0  0  0  0  0  0  0  0  0  0
   21.0162  -21.1703  -12.5817 O   0  0  0  0  0  0  0  0  0  0  0  0
  2  1  1  0
  3  2  2  0
  4  5  1  0
  4  2  1  0
  5  6  1  6
  7  5  1  0
  7  8  2  0
 10  9  1  0
 11 10  2  0
 12 10  1  0
 13 12  1  0
 14 13  1  0
 15 14  1  0
 16 15  1  1
 16 17  1  0
 17  7  1  0
 18 16  1  0
 19 18  2  0
 20 18  1  0
 21 20  1  0
 21 27  1  0
 21 22  1  6
 23 24  1  0
 23 22  1  0
 24 25  1  0
 25 26  1  0
 27 28  1  0
 29 27  2  0
M  END
$$$$
