NRK.pdb
     RDKit          3D

 29 28  0  0  1  0  0  0  0  0999 V2000
   26.9430  -21.6308  -10.0093 N   0  0  0  0  0  0  0  0  0  0  0  0
   25.8906  -20.6432   -9.8460 C   0  0  0  0  0  0  0  0  0  0  0  0
   25.8429  -20.1104   -8.7181 O   0  0  0  0  0  0  0  0  0  0  0  0
   24.9983  -20.3615  -10.9830 C   0  0  0  0  0  0  0  0  0  0  0  0
   25.2423  -21.2396  -12.1816 C   0  0  2  0  0  0  0  0  0  0  0  0
   26.6159  -20.9756  -12.6552 N   0  0  0  0  0  0  0  0  0  0  0  0
   24.3281  -20.7932  -13.2809 C   0  0  0  0  0  0  0  0  0  0  0  0
   23.9417  -19.6050  -13.2828 O   0  0  0  0  0  0  0  0  0  0  0  0
   26.0108  -25.3953  -15.9603 N   0  0  0  0  0  0  0  0  0  0  0  0
   24.9703  -26.1251  -16.5888 C   0  0  0  0  0  0  0  0  0  0  0  0
   24.6659  -27.3179  -16.2012 N   0  0  0  0  0  0  0  0  0  0  0  0
   24.2286  -25.5532  -17.6738 N   0  0  0  0  0  0  0  0  0  0  0  0
   24.1031  -24.1156  -17.8107 C   0  0  0  0  0  0  0  0  0  0  0  0
   23.8202  -23.4550  -16.4803 C   0  0  0  0  0  0  0  0  0  0  0  0
   23.5022  -21.9924  -16.6941 C   0  0  0  0  0  0  0  0  0  0  0  0
   23.1136  -21.3104  -15.4006 C   0  0  2  0  0  0  0  0  0  0  0  0
   23.9165  -21.7152  -14.2953 N   0  0  0  0  0  0  0  0  0  0  0  0
   21.6572  -21.6388  -15.1817 C   0  0  0  0  0  0  0  0  0  0  0  0
   21.3181  -22.4992  -14.3314 O   0  0  0  0  0  0  0  0  0  0  0  0
   23.9186  -27.8208  -16.7160 N   0  0  0  0  0  0  0  0  0  0  0  0
   20.6326  -20.9984  -15.9164 C   0  0  2  0  0  0  0  0  0  0  0  0
   19.2180  -21.2927  -15.6234 C   0  0  0  0  0  0  0  0  0  0  0  0
   18.3346  -20.2161  -16.1758 C   0  0  0  0  0  0  0  0  0  0  0  0
   17.1633  -19.9528  -15.3019 C   0  0  0  0  0  0  0  0  0  0  0  0
   16.3688  -18.7669  -15.8231 C   0  0  0  0  0  0  0  0  0  0  0  0
   15.1783  -18.6234  -14.8626 N   0  0  0  0  0  0  0  0  0  0  0  0
   14.4602  -17.4357  -15.2624 C   0  0  0  0  0  0  0  0  0  0  0  0
   18.9441  -22.6449  -16.1273 O   0  0  0  0  0  0  0  0  0  0  0  0
   19.8093  -23.2469  -17.0188 O   0  0  0  0  0  0  0  0  0  0  0  0
  2  1  1  0
  3  2  2  0
  4  5  1  0
  4  2  1  0
  5  6  1  6
  7  5  1  0
  7  8  2  0
 10  9  1  0
 11 10  2  0
 12 10  1  0
 13 12  1  0
 14 13  1  0
 15 14  1  0
 16 15  1  6
 16 17  1  0
 17  7  1  0
 18 16  1  0
 19 18  2  0
 20 18  1  0
 21 20  1  0
 21 27  1  0
 21 22  1  6
 23 24  1  0
 23 22  1  0
 24 25  1  0
 25 26  1  0
 27 28  1  0
 29 27  2  0
M  END
$$$$
