PSD.pdb
     RDKit          3D

 22 22  0  0  1  0  0  0  0  0999 V2000
    7.6158  -15.1302   18.5264 N   0  0  0  0  0  0  0  0  0  0  0  0
    7.0788  -14.7124   17.2569 C   0  0  0  0  0  0  0  0  0  0  0  0
    7.4648  -13.2880   17.0320 C   0  0  0  0  0  0  0  0  0  0  0  0
    7.9762  -12.8666   18.4118 C   0  0  0  0  0  0  0  0  0  0  0  0
    8.6374  -14.1816   18.8466 C   0  0  1  0  0  0  0  0  0  0  0  0
    9.0106  -14.1648   20.2681 C   0  0  0  0  0  0  0  0  0  0  0  0
   10.0704  -13.5681   20.5890 O   0  0  0  0  0  0  0  0  0  0  0  0
    6.8707  -16.1940   23.1752 O   0  0  0  0  0  0  0  0  0  0  0  0
    7.4368  -14.9809   23.5248 C   0  0  0  0  0  0  0  0  0  0  0  0
    8.6844  -14.7803   22.6905 C   0  0  2  0  0  0  0  0  0  0  0  0
    8.2621  -14.7730   21.3064 N   0  0  0  0  0  0  0  0  0  0  0  0
    9.6553  -15.8805   22.8723 C   0  0  0  0  0  0  0  0  0  0  0  0
    9.6169  -16.8602   22.0933 O   0  0  0  0  0  0  0  0  0  0  0  0
   10.6191  -15.8244   23.9190 N   0  0  0  0  0  0  0  0  0  0  0  0
   11.6938  -16.8016   24.0304 C   0  0  1  0  0  0  0  0  0  0  0  0
   13.0442  -16.1558   23.8152 C   0  0  0  0  0  0  0  0  0  0  0  0
   14.1475  -17.1160   23.9246 C   0  0  0  0  0  0  0  0  0  0  0  0
   14.0811  -18.1565   23.2085 O   0  0  0  0  0  0  0  0  0  0  0  0
   11.7096  -17.4827   25.3173 C   0  0  0  0  0  0  0  0  0  0  0  0
   12.5076  -18.4199   25.5306 O   0  0  0  0  0  0  0  0  0  0  0  0
   15.2514  -16.9905   24.7359 O   0  0  0  0  0  0  0  0  0  0  0  0
   10.8440  -17.1047   26.3218 O   0  0  0  0  0  0  0  0  0  0  0  0
  1  2  1  0
  3  2  1  0
  4  5  1  0
  4  3  1  0
  5  1  1  0
  5  6  1  1
  7  6  2  0
 10  9  1  1
  9  8  1  0
 10 12  1  0
 10 11  1  0
 11  6  1  0
 12 14  1  0
 13 12  2  0
 14 15  1  0
 15 19  1  0
 15 16  1  1
 17 21  1  0
 17 16  1  0
 18 17  2  0
 19 20  2  0
 19 22  1  0
M  END
$$$$
