PSD.pdb
     RDKit          3D

 22 22  0  0  1  0  0  0  0  0999 V2000
    8.3187  -15.6405   19.1070 N   0  0  0  0  0  0  0  0  0  0  0  0
    7.7022  -16.4574   18.0935 C   0  0  0  0  0  0  0  0  0  0  0  0
    6.9741  -17.5714   18.7699 C   0  0  0  0  0  0  0  0  0  0  0  0
    7.5038  -17.4847   20.2033 C   0  0  0  0  0  0  0  0  0  0  0  0
    7.6445  -15.9614   20.3271 C   0  0  1  0  0  0  0  0  0  0  0  0
    8.3848  -15.5748   21.5365 C   0  0  0  0  0  0  0  0  0  0  0  0
    9.6399  -15.5308   21.4666 O   0  0  0  0  0  0  0  0  0  0  0  0
    6.4841  -15.0256   25.0946 O   0  0  0  0  0  0  0  0  0  0  0  0
    7.6087  -14.2381   24.9226 C   0  0  0  0  0  0  0  0  0  0  0  0
    8.5482  -14.9515   23.9733 C   0  0  2  0  0  0  0  0  0  0  0  0
    7.7868  -15.2471   22.7788 N   0  0  0  0  0  0  0  0  0  0  0  0
    9.0406  -16.2273   24.5358 C   0  0  0  0  0  0  0  0  0  0  0  0
    8.3322  -17.2539   24.4255 O   0  0  0  0  0  0  0  0  0  0  0  0
   10.3026  -16.2848   25.1929 N   0  0  0  0  0  0  0  0  0  0  0  0
   10.8409  -17.5317   25.7200 C   0  0  1  0  0  0  0  0  0  0  0  0
   12.3485  -17.5670   25.6073 C   0  0  0  0  0  0  0  0  0  0  0  0
   12.8194  -17.1750   24.2746 C   0  0  0  0  0  0  0  0  0  0  0  0
   12.2180  -17.6733   23.2797 O   0  0  0  0  0  0  0  0  0  0  0  0
   10.4782  -17.7625   27.1112 C   0  0  0  0  0  0  0  0  0  0  0  0
   10.7730  -18.8376   27.6749 O   0  0  0  0  0  0  0  0  0  0  0  0
   13.8573  -16.3134   24.0047 O   0  0  0  0  0  0  0  0  0  0  0  0
    9.8035  -16.7982   27.8296 O   0  0  0  0  0  0  0  0  0  0  0  0
  1  2  1  0
  3  2  1  0
  4  5  1  0
  4  3  1  0
  5  1  1  0
  5  6  1  1
  7  6  2  0
 10  9  1  1
  9  8  1  0
 10 12  1  0
 10 11  1  0
 11  6  1  0
 12 14  1  0
 13 12  2  0
 14 15  1  0
 15 19  1  0
 15 16  1  1
 17 21  1  0
 17 16  1  0
 18 17  2  0
 19 20  2  0
 19 22  1  0
M  END
$$$$
