PSD.pdb
     RDKit          3D

 22 22  0  0  1  0  0  0  0  0999 V2000
    7.3978  -15.1258   19.1791 N   0  0  0  0  0  0  0  0  0  0  0  0
    6.7312  -14.7249   17.9669 C   0  0  0  0  0  0  0  0  0  0  0  0
    7.2258  -13.3683   17.5881 C   0  0  0  0  0  0  0  0  0  0  0  0
    7.9693  -12.9275   18.8512 C   0  0  0  0  0  0  0  0  0  0  0  0
    8.5469  -14.2807   19.2876 C   0  0  1  0  0  0  0  0  0  0  0  0
    9.1187  -14.2232   20.6403 C   0  0  0  0  0  0  0  0  0  0  0  0
   10.1763  -13.5619   20.8022 O   0  0  0  0  0  0  0  0  0  0  0  0
    7.1001  -15.4664   24.0194 O   0  0  0  0  0  0  0  0  0  0  0  0
    8.0228  -14.4359   24.0531 C   0  0  0  0  0  0  0  0  0  0  0  0
    9.1492  -14.7748   23.0997 C   0  0  2  0  0  0  0  0  0  0  0  0
    8.5645  -14.8598   21.7787 N   0  0  0  0  0  0  0  0  0  0  0  0
    9.7692  -16.0793   23.4161 C   0  0  0  0  0  0  0  0  0  0  0  0
    9.2858  -17.1198   22.9145 O   0  0  0  0  0  0  0  0  0  0  0  0
   10.8998  -16.1486   24.2791 N   0  0  0  0  0  0  0  0  0  0  0  0
   11.5310  -17.4159   24.6222 C   0  0  1  0  0  0  0  0  0  0  0  0
   13.0380  -17.2904   24.6341 C   0  0  0  0  0  0  0  0  0  0  0  0
   13.5633  -16.7365   23.3817 C   0  0  0  0  0  0  0  0  0  0  0  0
   13.2707  -17.3459   22.3127 O   0  0  0  0  0  0  0  0  0  0  0  0
   11.1022  -17.9312   25.9148 C   0  0  0  0  0  0  0  0  0  0  0  0
   11.4903  -19.0495   26.3138 O   0  0  0  0  0  0  0  0  0  0  0  0
   14.3470  -15.6123   23.2606 O   0  0  0  0  0  0  0  0  0  0  0  0
   10.2606  -17.1933   26.7201 O   0  0  0  0  0  0  0  0  0  0  0  0
  1  2  1  0
  3  2  1  0
  4  5  1  0
  4  3  1  0
  5  1  1  0
  5  6  1  1
  7  6  2  0
 10  9  1  1
  9  8  1  0
 10 12  1  0
 10 11  1  0
 11  6  1  0
 12 14  1  0
 13 12  2  0
 14 15  1  0
 15 19  1  0
 15 16  1  1
 17 21  1  0
 17 16  1  0
 18 17  2  0
 19 20  2  0
 19 22  1  0
M  END
$$$$
