PSD.pdb
     RDKit          3D

 22 22  0  0  1  0  0  0  0  0999 V2000
    7.8719  -15.0389   18.6354 N   0  0  0  0  0  0  0  0  0  0  0  0
    7.3041  -14.4790   17.4360 C   0  0  0  0  0  0  0  0  0  0  0  0
    7.6307  -13.0227   17.3998 C   0  0  0  0  0  0  0  0  0  0  0  0
    8.1408  -12.7672   18.8201 C   0  0  0  0  0  0  0  0  0  0  0  0
    8.8587  -14.1000   19.0724 C   0  0  1  0  0  0  0  0  0  0  0  0
    9.2473  -14.2563   20.4812 C   0  0  0  0  0  0  0  0  0  0  0  0
   10.4612  -14.1064   20.7746 O   0  0  0  0  0  0  0  0  0  0  0  0
    6.7113  -15.7569   23.4490 O   0  0  0  0  0  0  0  0  0  0  0  0
    7.5391  -14.6941   23.7648 C   0  0  0  0  0  0  0  0  0  0  0  0
    8.7794  -14.7845   22.9010 C   0  0  2  0  0  0  0  0  0  0  0  0
    8.3524  -14.5643   21.5360 N   0  0  0  0  0  0  0  0  0  0  0  0
    9.4124  -16.1185   22.9784 C   0  0  0  0  0  0  0  0  0  0  0  0
    9.4268  -16.8447   21.9583 O   0  0  0  0  0  0  0  0  0  0  0  0
    9.9965  -16.5686   24.1966 N   0  0  0  0  0  0  0  0  0  0  0  0
   11.1808  -17.4167   24.2163 C   0  0  1  0  0  0  0  0  0  0  0  0
   12.3465  -16.7438   23.5269 C   0  0  0  0  0  0  0  0  0  0  0  0
   13.5518  -17.5796   23.5215 C   0  0  0  0  0  0  0  0  0  0  0  0
   14.0903  -17.8242   24.6395 O   0  0  0  0  0  0  0  0  0  0  0  0
   11.5930  -17.7836   25.5639 C   0  0  0  0  0  0  0  0  0  0  0  0
   12.1344  -18.8875   25.7845 O   0  0  0  0  0  0  0  0  0  0  0  0
   14.1533  -18.1241   22.4106 O   0  0  0  0  0  0  0  0  0  0  0  0
   11.3925  -16.9186   26.6187 O   0  0  0  0  0  0  0  0  0  0  0  0
  1  2  1  0
  3  2  1  0
  4  5  1  0
  4  3  1  0
  5  1  1  0
  5  6  1  1
  7  6  2  0
 10  9  1  1
  9  8  1  0
 10 12  1  0
 10 11  1  0
 11  6  1  0
 12 14  1  0
 13 12  2  0
 14 15  1  0
 15 19  1  0
 15 16  1  1
 17 21  1  0
 17 16  1  0
 18 17  2  0
 19 20  2  0
 19 22  1  0
M  END
$$$$
