PSD.pdb
     RDKit          3D

 22 22  0  0  1  0  0  0  0  0999 V2000
    7.8843  -15.0839   19.1495 N   0  0  0  0  0  0  0  0  0  0  0  0
    7.3865  -14.5679   17.9003 C   0  0  0  0  0  0  0  0  0  0  0  0
    7.8123  -13.1420   17.7806 C   0  0  0  0  0  0  0  0  0  0  0  0
    8.3024  -12.8278   19.1962 C   0  0  0  0  0  0  0  0  0  0  0  0
    8.9213  -14.1857   19.5546 C   0  0  1  0  0  0  0  0  0  0  0  0
    9.2625  -14.2741   20.9814 C   0  0  0  0  0  0  0  0  0  0  0  0
   10.3143  -13.7036   21.3692 O   0  0  0  0  0  0  0  0  0  0  0  0
    6.9803  -16.3601   23.8212 O   0  0  0  0  0  0  0  0  0  0  0  0
    7.5853  -15.1579   24.1423 C   0  0  0  0  0  0  0  0  0  0  0  0
    8.8701  -15.0453   23.3489 C   0  0  2  0  0  0  0  0  0  0  0  0
    8.4915  -14.9567   21.9550 N   0  0  0  0  0  0  0  0  0  0  0  0
    9.7326  -16.2341   23.5195 C   0  0  0  0  0  0  0  0  0  0  0  0
    9.5846  -17.2085   22.7470 O   0  0  0  0  0  0  0  0  0  0  0  0
   10.7166  -16.2680   24.5482 N   0  0  0  0  0  0  0  0  0  0  0  0
   11.5751  -17.4264   24.7558 C   0  0  1  0  0  0  0  0  0  0  0  0
   13.0315  -17.0237   24.8156 C   0  0  0  0  0  0  0  0  0  0  0  0
   13.5744  -16.6894   23.4947 C   0  0  0  0  0  0  0  0  0  0  0  0
   12.7968  -16.8059   22.5040 O   0  0  0  0  0  0  0  0  0  0  0  0
   11.2511  -18.1619   25.9700 C   0  0  0  0  0  0  0  0  0  0  0  0
   10.4282  -17.7034   26.7903 O   0  0  0  0  0  0  0  0  0  0  0  0
   14.8546  -16.2597   23.2317 O   0  0  0  0  0  0  0  0  0  0  0  0
   11.8471  -19.3768   26.2345 O   0  0  0  0  0  0  0  0  0  0  0  0
  1  2  1  0
  3  2  1  0
  4  5  1  0
  4  3  1  0
  5  1  1  0
  5  6  1  1
  7  6  2  0
 10  9  1  1
  9  8  1  0
 10 12  1  0
 10 11  1  0
 11  6  1  0
 12 14  1  0
 13 12  2  0
 14 15  1  0
 15 19  1  0
 15 16  1  1
 17 21  1  0
 17 16  1  0
 18 17  2  0
 19 20  2  0
 19 22  1  0
M  END
$$$$
