PSD.pdb
     RDKit          3D

 22 22  0  0  1  0  0  0  0  0999 V2000
    8.1037  -15.0132   18.6569 N   0  0  0  0  0  0  0  0  0  0  0  0
    7.6905  -14.4781   17.3851 C   0  0  0  0  0  0  0  0  0  0  0  0
    7.8188  -12.9918   17.4394 C   0  0  0  0  0  0  0  0  0  0  0  0
    8.0261  -12.7364   18.9342 C   0  0  0  0  0  0  0  0  0  0  0  0
    8.8600  -13.9755   19.2871 C   0  0  1  0  0  0  0  0  0  0  0  0
    9.0065  -14.1433   20.7399 C   0  0  0  0  0  0  0  0  0  0  0  0
    9.7844  -13.3616   21.3449 O   0  0  0  0  0  0  0  0  0  0  0  0
    7.4009  -15.7916   24.9109 O   0  0  0  0  0  0  0  0  0  0  0  0
    7.2283  -15.6631   23.5441 C   0  0  0  0  0  0  0  0  0  0  0  0
    8.5670  -15.3185   22.9260 C   0  0  2  0  0  0  0  0  0  0  0  0
    8.3338  -15.1235   21.5112 N   0  0  0  0  0  0  0  0  0  0  0  0
    9.5492  -16.4120   23.0867 C   0  0  0  0  0  0  0  0  0  0  0  0
   10.0018  -16.9777   22.0653 O   0  0  0  0  0  0  0  0  0  0  0  0
    9.9728  -16.8141   24.3854 N   0  0  0  0  0  0  0  0  0  0  0  0
   11.2599  -17.4579   24.6114 C   0  0  1  0  0  0  0  0  0  0  0  0
   12.4009  -16.5672   24.1736 C   0  0  0  0  0  0  0  0  0  0  0  0
   13.2743  -17.2186   23.1916 C   0  0  0  0  0  0  0  0  0  0  0  0
   13.5476  -18.4389   23.3812 O   0  0  0  0  0  0  0  0  0  0  0  0
   11.4726  -17.8267   26.0038 C   0  0  0  0  0  0  0  0  0  0  0  0
   11.6436  -19.0215   26.3259 O   0  0  0  0  0  0  0  0  0  0  0  0
   13.8258  -16.6245   22.0801 O   0  0  0  0  0  0  0  0  0  0  0  0
   11.4887  -16.8634   26.9902 O   0  0  0  0  0  0  0  0  0  0  0  0
  1  2  1  0
  3  2  1  0
  4  5  1  0
  4  3  1  0
  5  1  1  0
  5  6  1  1
  7  6  2  0
 10  9  1  1
  9  8  1  0
 10 12  1  0
 10 11  1  0
 11  6  1  0
 12 14  1  0
 13 12  2  0
 14 15  1  0
 15 19  1  0
 15 16  1  1
 17 21  1  0
 17 16  1  0
 18 17  2  0
 19 20  2  0
 19 22  1  0
M  END
$$$$
