PSD.pdb
     RDKit          3D

 22 22  0  0  1  0  0  0  0  0999 V2000
    7.1597  -15.1145   19.8804 N   0  0  0  0  0  0  0  0  0  0  0  0
    6.5865  -14.6287   18.6516 C   0  0  0  0  0  0  0  0  0  0  0  0
    7.4016  -13.4698   18.1815 C   0  0  0  0  0  0  0  0  0  0  0  0
    8.2657  -13.1603   19.4064 C   0  0  0  0  0  0  0  0  0  0  0  0
    8.4890  -14.5881   19.9231 C   0  0  1  0  0  0  0  0  0  0  0  0
    9.0915  -14.5989   21.2637 C   0  0  0  0  0  0  0  0  0  0  0  0
   10.3220  -14.3550   21.3555 O   0  0  0  0  0  0  0  0  0  0  0  0
    6.9958  -15.6424   24.6871 O   0  0  0  0  0  0  0  0  0  0  0  0
    7.8936  -14.5931   24.7722 C   0  0  0  0  0  0  0  0  0  0  0  0
    9.0041  -14.8350   23.7717 C   0  0  2  0  0  0  0  0  0  0  0  0
    8.3859  -14.8646   22.4636 N   0  0  0  0  0  0  0  0  0  0  0  0
    9.6778  -16.1321   23.9946 C   0  0  0  0  0  0  0  0  0  0  0  0
    9.1761  -17.1698   23.5052 O   0  0  0  0  0  0  0  0  0  0  0  0
   10.8798  -16.1977   24.7553 N   0  0  0  0  0  0  0  0  0  0  0  0
   11.5609  -17.4594   25.0132 C   0  0  1  0  0  0  0  0  0  0  0  0
   13.0621  -17.2775   25.0256 C   0  0  0  0  0  0  0  0  0  0  0  0
   13.5786  -16.7995   23.7388 C   0  0  0  0  0  0  0  0  0  0  0  0
   12.9191  -17.1026   22.7029 O   0  0  0  0  0  0  0  0  0  0  0  0
   11.1614  -18.0722   26.2722 C   0  0  0  0  0  0  0  0  0  0  0  0
   11.5546  -19.2189   26.5739 O   0  0  0  0  0  0  0  0  0  0  0  0
   14.7171  -16.0501   23.5523 O   0  0  0  0  0  0  0  0  0  0  0  0
   10.3425  -17.3971   27.1523 O   0  0  0  0  0  0  0  0  0  0  0  0
  1  2  1  0
  3  2  1  0
  4  5  1  0
  4  3  1  0
  5  1  1  0
  5  6  1  1
  7  6  2  0
 10  9  1  1
  9  8  1  0
 10 12  1  0
 10 11  1  0
 11  6  1  0
 12 14  1  0
 13 12  2  0
 14 15  1  0
 15 19  1  0
 15 16  1  1
 17 21  1  0
 17 16  1  0
 18 17  2  0
 19 20  2  0
 19 22  1  0
M  END
$$$$
