PSD.pdb
     RDKit          3D

 22 22  0  0  1  0  0  0  0  0999 V2000
    7.7247  -15.1937   18.2474 N   0  0  0  0  0  0  0  0  0  0  0  0
    7.1309  -14.7643   17.0074 C   0  0  0  0  0  0  0  0  0  0  0  0
    7.4743  -13.3267   16.7977 C   0  0  0  0  0  0  0  0  0  0  0  0
    8.0267  -12.9201   18.1660 C   0  0  0  0  0  0  0  0  0  0  0  0
    8.7348  -14.2267   18.5491 C   0  0  1  0  0  0  0  0  0  0  0  0
    9.1603  -14.2287   19.9559 C   0  0  0  0  0  0  0  0  0  0  0  0
   10.3244  -13.8301   20.2168 O   0  0  0  0  0  0  0  0  0  0  0  0
    7.0552  -16.0083   23.1267 O   0  0  0  0  0  0  0  0  0  0  0  0
    7.5353  -14.7188   23.2725 C   0  0  0  0  0  0  0  0  0  0  0  0
    8.7808  -14.5762   22.4234 C   0  0  2  0  0  0  0  0  0  0  0  0
    8.3532  -14.6476   21.0428 N   0  0  0  0  0  0  0  0  0  0  0  0
    9.7452  -15.6703   22.6664 C   0  0  0  0  0  0  0  0  0  0  0  0
    9.6807  -16.7048   21.9638 O   0  0  0  0  0  0  0  0  0  0  0  0
   10.7323  -15.5469   23.6853 N   0  0  0  0  0  0  0  0  0  0  0  0
   11.7943  -16.5299   23.8528 C   0  0  1  0  0  0  0  0  0  0  0  0
   13.1516  -15.9192   23.5852 C   0  0  0  0  0  0  0  0  0  0  0  0
   14.2364  -16.9014   23.6837 C   0  0  0  0  0  0  0  0  0  0  0  0
   14.0008  -18.0675   23.2542 O   0  0  0  0  0  0  0  0  0  0  0  0
   11.8116  -17.1249   25.1817 C   0  0  0  0  0  0  0  0  0  0  0  0
   11.1228  -16.6400   26.1042 O   0  0  0  0  0  0  0  0  0  0  0  0
   15.4903  -16.6723   24.2012 O   0  0  0  0  0  0  0  0  0  0  0  0
   12.5885  -18.2334   25.4440 O   0  0  0  0  0  0  0  0  0  0  0  0
  1  2  1  0
  3  2  1  0
  4  5  1  0
  4  3  1  0
  5  1  1  0
  5  6  1  1
  7  6  2  0
 10  9  1  1
  9  8  1  0
 10 12  1  0
 10 11  1  0
 11  6  1  0
 12 14  1  0
 13 12  2  0
 14 15  1  0
 15 19  1  0
 15 16  1  1
 17 21  1  0
 17 16  1  0
 18 17  2  0
 19 20  2  0
 19 22  1  0
M  END
$$$$
