PSD.pdb
     RDKit          3D

 22 22  0  0  1  0  0  0  0  0999 V2000
    7.9512  -15.3194   18.5551 N   0  0  0  0  0  0  0  0  0  0  0  0
    7.4207  -14.8758   17.2917 C   0  0  0  0  0  0  0  0  0  0  0  0
    7.7364  -13.4251   17.1355 C   0  0  0  0  0  0  0  0  0  0  0  0
    8.1950  -13.0375   18.5434 C   0  0  0  0  0  0  0  0  0  0  0  0
    8.9146  -14.3341   18.9388 C   0  0  1  0  0  0  0  0  0  0  0  0
    9.2556  -14.3590   20.3682 C   0  0  0  0  0  0  0  0  0  0  0  0
   10.4057  -13.9756   20.7034 O   0  0  0  0  0  0  0  0  0  0  0  0
    7.7444  -14.6358   24.9278 O   0  0  0  0  0  0  0  0  0  0  0  0
    7.4436  -14.6330   23.5773 C   0  0  0  0  0  0  0  0  0  0  0  0
    8.7376  -14.7630   22.8017 C   0  0  2  0  0  0  0  0  0  0  0  0
    8.3814  -14.7843   21.3993 N   0  0  0  0  0  0  0  0  0  0  0  0
    9.4489  -16.0202   23.1176 C   0  0  0  0  0  0  0  0  0  0  0  0
    9.0380  -17.0930   22.6191 O   0  0  0  0  0  0  0  0  0  0  0  0
   10.5846  -16.0085   23.9766 N   0  0  0  0  0  0  0  0  0  0  0  0
   11.2408  -17.2371   24.4035 C   0  0  1  0  0  0  0  0  0  0  0  0
   12.7387  -17.0524   24.4975 C   0  0  0  0  0  0  0  0  0  0  0  0
   13.3264  -16.5939   23.2343 C   0  0  0  0  0  0  0  0  0  0  0  0
   13.1028  -17.2943   22.2052 O   0  0  0  0  0  0  0  0  0  0  0  0
   10.7556  -17.7221   25.6879 C   0  0  0  0  0  0  0  0  0  0  0  0
    9.8891  -17.0839   26.3221 O   0  0  0  0  0  0  0  0  0  0  0  0
   14.1007  -15.4697   23.0637 O   0  0  0  0  0  0  0  0  0  0  0  0
   11.2446  -18.8939   26.2254 O   0  0  0  0  0  0  0  0  0  0  0  0
  1  2  1  0
  3  2  1  0
  4  5  1  0
  4  3  1  0
  5  1  1  0
  5  6  1  1
  7  6  2  0
 10  9  1  1
  9  8  1  0
 10 12  1  0
 10 11  1  0
 11  6  1  0
 12 14  1  0
 13 12  2  0
 14 15  1  0
 15 19  1  0
 15 16  1  1
 17 21  1  0
 17 16  1  0
 18 17  2  0
 19 20  2  0
 19 22  1  0
M  END
$$$$
