PSD.pdb
     RDKit          3D

 22 22  0  0  1  0  0  0  0  0999 V2000
    7.6651  -15.0756   19.1002 N   0  0  0  0  0  0  0  0  0  0  0  0
    7.0419  -14.5689   17.9046 C   0  0  0  0  0  0  0  0  0  0  0  0
    7.4214  -13.1332   17.7521 C   0  0  0  0  0  0  0  0  0  0  0  0
    8.0330  -12.8104   19.1175 C   0  0  0  0  0  0  0  0  0  0  0  0
    8.7139  -14.1540   19.4114 C   0  0  1  0  0  0  0  0  0  0  0  0
    9.1876  -14.2373   20.8002 C   0  0  0  0  0  0  0  0  0  0  0  0
   10.2557  -13.6405   21.0922 O   0  0  0  0  0  0  0  0  0  0  0  0
    7.5086  -16.7089   23.7918 O   0  0  0  0  0  0  0  0  0  0  0  0
    7.8689  -15.4030   24.0733 C   0  0  0  0  0  0  0  0  0  0  0  0
    9.0397  -15.0313   23.1879 C   0  0  2  0  0  0  0  0  0  0  0  0
    8.5278  -14.9424   21.8373 N   0  0  0  0  0  0  0  0  0  0  0  0
   10.1019  -16.0596   23.2135 C   0  0  0  0  0  0  0  0  0  0  0  0
   10.0755  -16.9821   22.3671 O   0  0  0  0  0  0  0  0  0  0  0  0
   11.1389  -15.9993   24.1875 N   0  0  0  0  0  0  0  0  0  0  0  0
   12.3180  -16.8514   24.1117 C   0  0  1  0  0  0  0  0  0  0  0  0
   13.5880  -16.0308   24.1360 C   0  0  0  0  0  0  0  0  0  0  0  0
   14.7919  -16.8590   24.0104 C   0  0  0  0  0  0  0  0  0  0  0  0
   14.6239  -18.1029   23.8552 O   0  0  0  0  0  0  0  0  0  0  0  0
   12.3814  -17.8287   25.1893 C   0  0  0  0  0  0  0  0  0  0  0  0
   12.6709  -19.0202   24.9506 O   0  0  0  0  0  0  0  0  0  0  0  0
   16.0911  -16.4079   24.0458 O   0  0  0  0  0  0  0  0  0  0  0  0
   12.1228  -17.4553   26.4912 O   0  0  0  0  0  0  0  0  0  0  0  0
  1  2  1  0
  3  2  1  0
  4  5  1  0
  4  3  1  0
  5  1  1  0
  5  6  1  1
  7  6  2  0
 10  9  1  1
  9  8  1  0
 10 12  1  0
 10 11  1  0
 11  6  1  0
 12 14  1  0
 13 12  2  0
 14 15  1  0
 15 19  1  0
 15 16  1  1
 17 21  1  0
 17 16  1  0
 18 17  2  0
 19 20  2  0
 19 22  1  0
M  END
$$$$
