AIE.pdb
     RDKit          3D

 23 22  0  0  1  0  0  0  0  0999 V2000
   17.4008  -12.7476  -14.1206 C   0  0  0  0  0  0  0  0  0  0  0  0
   16.1249  -12.5200  -13.3583 C   0  0  2  0  0  0  0  0  0  0  0  0
   14.9916  -13.0894  -14.0595 N   0  0  0  0  0  0  0  0  0  0  0  0
   15.8906  -11.1026  -13.0285 C   0  0  0  0  0  0  0  0  0  0  0  0
   15.6738  -10.3020  -13.9630 O   0  0  0  0  0  0  0  0  0  0  0  0
   12.8197   -7.8324   -9.0977 C   0  0  0  0  0  0  0  0  0  0  0  0
   14.0707   -7.7823   -9.9576 C   0  0  0  0  0  0  0  0  0  0  0  0
   14.3692   -9.1930  -10.3952 C   0  0  2  0  0  0  0  0  0  0  0  0
   14.6293  -10.0237   -9.1570 C   0  0  0  0  0  0  0  0  0  0  0  0
   15.5440   -9.2539  -11.3528 C   0  0  2  0  0  0  0  0  0  0  0  0
   15.8984  -10.5969  -11.6991 N   0  0  0  0  0  0  0  0  0  0  0  0
   16.6719   -8.5231  -10.6968 C   0  0  0  0  0  0  0  0  0  0  0  0
   17.3133   -9.0923   -9.7765 O   0  0  0  0  0  0  0  0  0  0  0  0
   17.0508   -7.2162  -11.0665 N   0  0  0  0  0  0  0  0  0  0  0  0
   18.2846   -6.5749  -10.5791 C   0  0  1  0  0  0  0  0  0  0  0  0
   19.2923   -6.4589  -11.6694 C   0  0  0  0  0  0  0  0  0  0  0  0
   20.5271   -5.7740  -11.1852 C   0  0  0  0  0  0  0  0  0  0  0  0
   21.5223   -5.6433  -12.3116 C   0  0  0  0  0  0  0  0  0  0  0  0
   21.9702   -4.5195  -12.5890 O   0  0  0  0  0  0  0  0  0  0  0  0
   17.8679   -5.2885   -9.9713 C   0  0  0  0  0  0  0  0  0  0  0  0
   16.7269   -4.5796  -10.3389 O   0  0  0  0  0  0  0  0  0  0  0  0
   21.9070   -6.7625  -12.9992 O   0  0  0  0  0  0  0  0  0  0  0  0
   18.5530   -4.7345   -9.0452 O   0  0  0  0  0  0  0  0  0  0  0  0
  2  1  1  6
  2  3  1  0
  4  5  2  0
  4  2  1  0
  6  7  1  0
  7  8  1  0
  8  9  1  1
  8 10  1  0
 10 11  1  1
 11  4  1  0
 12 14  1  0
 12 10  1  0
 13 12  2  0
 15 14  1  0
 15 20  1  0
 15 16  1  6
 16 17  1  0
 18 17  1  0
 18 22  1  0
 19 18  2  0
 20 21  1  0
 23 20  2  0
M  END
$$$$
