AIE.pdb
     RDKit          3D

 23 22  0  0  1  0  0  0  0  0999 V2000
   27.7258  -18.2148  -15.6707 C   0  0  0  0  0  0  0  0  0  0  0  0
   28.0613  -19.6200  -15.2535 C   0  0  2  0  0  0  0  0  0  0  0  0
   28.7527  -20.3261  -16.3134 N   0  0  0  0  0  0  0  0  0  0  0  0
   26.8903  -20.3806  -14.7814 C   0  0  0  0  0  0  0  0  0  0  0  0
   26.3211  -21.1539  -15.5808 O   0  0  0  0  0  0  0  0  0  0  0  0
   25.3161  -20.4478   -9.2227 C   0  0  0  0  0  0  0  0  0  0  0  0
   25.2958  -20.0318  -10.6834 C   0  0  0  0  0  0  0  0  0  0  0  0
   25.2911  -21.2933  -11.5075 C   0  0  2  0  0  0  0  0  0  0  0  0
   26.5328  -22.0860  -11.1598 C   0  0  0  0  0  0  0  0  0  0  0  0
   25.2265  -21.0001  -12.9943 C   0  0  2  0  0  0  0  0  0  0  0  0
   26.3729  -20.2805  -13.4603 N   0  0  0  0  0  0  0  0  0  0  0  0
   23.9543  -20.2501  -13.2299 C   0  0  0  0  0  0  0  0  0  0  0  0
   23.9304  -19.0100  -13.0204 O   0  0  0  0  0  0  0  0  0  0  0  0
   22.7729  -20.8752  -13.6792 N   0  0  0  0  0  0  0  0  0  0  0  0
   21.5227  -20.1355  -13.9263 C   0  0  1  0  0  0  0  0  0  0  0  0
   21.3651  -19.8226  -15.3737 C   0  0  0  0  0  0  0  0  0  0  0  0
   21.3187  -21.0724  -16.1886 C   0  0  0  0  0  0  0  0  0  0  0  0
   21.2932  -20.7318  -17.6582 C   0  0  0  0  0  0  0  0  0  0  0  0
   22.3640  -20.4862  -18.2357 O   0  0  0  0  0  0  0  0  0  0  0  0
   20.4359  -20.9561  -13.3405 C   0  0  0  0  0  0  0  0  0  0  0  0
   19.1133  -20.5368  -13.2200 O   0  0  0  0  0  0  0  0  0  0  0  0
   20.0946  -20.7014  -18.3185 O   0  0  0  0  0  0  0  0  0  0  0  0
   20.6544  -22.1343  -12.8955 O   0  0  0  0  0  0  0  0  0  0  0  0
  2  1  1  6
  2  3  1  0
  4  5  2  0
  4  2  1  0
  6  7  1  0
  7  8  1  0
  8  9  1  6
  8 10  1  0
 10 11  1  1
 11  4  1  0
 12 14  1  0
 12 10  1  0
 13 12  2  0
 15 14  1  0
 15 20  1  0
 15 16  1  6
 16 17  1  0
 18 17  1  0
 18 22  1  0
 19 18  2  0
 20 21  1  0
 23 20  2  0
M  END
$$$$
