AIE.pdb
     RDKit          3D

 23 22  0  0  1  0  0  0  0  0999 V2000
   18.7913   -9.3143  -19.9163 C   0  0  0  0  0  0  0  0  0  0  0  0
   19.4998  -10.4293  -19.1981 C   0  0  2  0  0  0  0  0  0  0  0  0
   18.7401  -11.6612  -19.2724 N   0  0  0  0  0  0  0  0  0  0  0  0
   19.8415  -10.0967  -17.8035 C   0  0  0  0  0  0  0  0  0  0  0  0
   18.9373  -10.1404  -16.9423 O   0  0  0  0  0  0  0  0  0  0  0  0
   23.9755  -11.9740  -15.0834 C   0  0  0  0  0  0  0  0  0  0  0  0
   22.6156  -11.4304  -15.4861 C   0  0  0  0  0  0  0  0  0  0  0  0
   22.7263   -9.9280  -15.5184 C   0  0  2  0  0  0  0  0  0  0  0  0
   23.0245   -9.4487  -14.1140 C   0  0  0  0  0  0  0  0  0  0  0  0
   21.4695   -9.2775  -16.0643 C   0  0  2  0  0  0  0  0  0  0  0  0
   21.1500   -9.7276  -17.3851 N   0  0  0  0  0  0  0  0  0  0  0  0
   21.6914   -7.7995  -16.0092 C   0  0  0  0  0  0  0  0  0  0  0  0
   22.5592   -7.2853  -16.7607 O   0  0  0  0  0  0  0  0  0  0  0  0
   20.9665   -6.9515  -15.1469 N   0  0  0  0  0  0  0  0  0  0  0  0
   21.1882   -5.4960  -15.0866 C   0  0  1  0  0  0  0  0  0  0  0  0
   19.8953   -4.7625  -14.9982 C   0  0  0  0  0  0  0  0  0  0  0  0
   19.1411   -4.8524  -16.2833 C   0  0  0  0  0  0  0  0  0  0  0  0
   17.8324   -4.1104  -16.1687 C   0  0  0  0  0  0  0  0  0  0  0  0
   17.7730   -2.9346  -16.5615 O   0  0  0  0  0  0  0  0  0  0  0  0
   22.1172   -5.2675  -13.9540 C   0  0  0  0  0  0  0  0  0  0  0  0
   23.0017   -4.1951  -13.8681 O   0  0  0  0  0  0  0  0  0  0  0  0
   16.7447   -4.7485  -15.6362 O   0  0  0  0  0  0  0  0  0  0  0  0
   22.1647   -6.0667  -12.9576 O   0  0  0  0  0  0  0  0  0  0  0  0
  2  1  1  1
  2  3  1  0
  4  5  2  0
  4  2  1  0
  6  7  1  0
  7  8  1  0
  8  9  1  1
  8 10  1  0
 10 11  1  6
 11  4  1  0
 12 14  1  0
 12 10  1  0
 13 12  2  0
 15 14  1  0
 15 20  1  0
 15 16  1  1
 16 17  1  0
 18 17  1  0
 18 22  1  0
 19 18  2  0
 20 21  1  0
 23 20  2  0
M  END
$$$$
