AIE.pdb
     RDKit          3D

 23 22  0  0  1  0  0  0  0  0999 V2000
   20.6637  -11.4924  -19.6895 C   0  0  0  0  0  0  0  0  0  0  0  0
   21.6031  -12.3218  -18.8585 C   0  0  2  0  0  0  0  0  0  0  0  0
   21.0593  -13.6442  -18.6226 N   0  0  0  0  0  0  0  0  0  0  0  0
   21.9888  -11.6703  -17.5938 C   0  0  0  0  0  0  0  0  0  0  0  0
   21.1453  -11.6098  -16.6739 O   0  0  0  0  0  0  0  0  0  0  0  0
   27.1557  -11.6960  -15.6951 C   0  0  0  0  0  0  0  0  0  0  0  0
   25.6404  -11.7858  -15.7488 C   0  0  0  0  0  0  0  0  0  0  0  0
   25.1152  -10.3833  -15.9162 C   0  0  2  0  0  0  0  0  0  0  0  0
   25.4505   -9.6035  -14.6631 C   0  0  0  0  0  0  0  0  0  0  0  0
   23.6235  -10.3646  -16.1907 C   0  0  2  0  0  0  0  0  0  0  0  0
   23.2739  -11.1054  -17.3647 N   0  0  0  0  0  0  0  0  0  0  0  0
   23.2224   -8.9272  -16.2893 C   0  0  0  0  0  0  0  0  0  0  0  0
   23.6503   -8.2399  -17.2521 O   0  0  0  0  0  0  0  0  0  0  0  0
   22.3805   -8.3043  -15.3451 N   0  0  0  0  0  0  0  0  0  0  0  0
   21.8618   -6.9360  -15.5183 C   0  0  1  0  0  0  0  0  0  0  0  0
   20.3866   -6.9464  -15.7212 C   0  0  0  0  0  0  0  0  0  0  0  0
   19.8353   -5.5592  -15.7054 C   0  0  0  0  0  0  0  0  0  0  0  0
   18.3321   -5.5980  -15.8284 C   0  0  0  0  0  0  0  0  0  0  0  0
   17.6983   -4.5321  -15.7767 O   0  0  0  0  0  0  0  0  0  0  0  0
   22.3269   -6.1668  -14.3394 C   0  0  0  0  0  0  0  0  0  0  0  0
   22.7496   -6.7420  -13.1435 O   0  0  0  0  0  0  0  0  0  0  0  0
   17.7040   -6.8029  -15.9937 O   0  0  0  0  0  0  0  0  0  0  0  0
   22.3681   -4.8892  -14.3494 O   0  0  0  0  0  0  0  0  0  0  0  0
  2  1  1  1
  2  3  1  0
  4  5  2  0
  4  2  1  0
  6  7  1  0
  7  8  1  0
  8  9  1  1
  8 10  1  0
 10 11  1  6
 11  4  1  0
 12 14  1  0
 12 10  1  0
 13 12  2  0
 15 14  1  0
 15 20  1  0
 15 16  1  1
 16 17  1  0
 18 17  1  0
 18 22  1  0
 19 18  2  0
 20 21  1  0
 23 20  2  0
M  END
$$$$
