AIE.pdb
     RDKit          3D

 23 22  0  0  1  0  0  0  0  0999 V2000
   18.6135  -11.8633  -19.6637 C   0  0  0  0  0  0  0  0  0  0  0  0
   19.7611  -12.4609  -18.8976 C   0  0  2  0  0  0  0  0  0  0  0  0
   19.4953  -13.8445  -18.5582 N   0  0  0  0  0  0  0  0  0  0  0  0
   20.1310  -11.6804  -17.7033 C   0  0  0  0  0  0  0  0  0  0  0  0
   19.2601  -11.4792  -16.8303 O   0  0  0  0  0  0  0  0  0  0  0  0
   25.1056  -12.1576  -15.5235 C   0  0  0  0  0  0  0  0  0  0  0  0
   23.6026  -12.0631  -15.7215 C   0  0  0  0  0  0  0  0  0  0  0  0
   23.2740  -10.6128  -15.9648 C   0  0  2  0  0  0  0  0  0  0  0  0
   23.6458   -9.8322  -14.7224 C   0  0  0  0  0  0  0  0  0  0  0  0
   21.8130  -10.4135  -16.3206 C   0  0  2  0  0  0  0  0  0  0  0  0
   21.4308  -11.1426  -17.4917 N   0  0  0  0  0  0  0  0  0  0  0  0
   21.6060   -8.9409  -16.4792 C   0  0  0  0  0  0  0  0  0  0  0  0
   22.0973   -8.3610  -17.4815 O   0  0  0  0  0  0  0  0  0  0  0  0
   20.8799   -8.1687  -15.5492 N   0  0  0  0  0  0  0  0  0  0  0  0
   20.6136   -6.7321  -15.7397 C   0  0  1  0  0  0  0  0  0  0  0  0
   19.1586   -6.4800  -15.9318 C   0  0  0  0  0  0  0  0  0  0  0  0
   18.8728   -5.0159  -15.9887 C   0  0  0  0  0  0  0  0  0  0  0  0
   17.6917   -4.7535  -16.8900 C   0  0  0  0  0  0  0  0  0  0  0  0
   17.1045   -5.7178  -17.4054 O   0  0  0  0  0  0  0  0  0  0  0  0
   21.2209   -6.0427  -14.5762 C   0  0  0  0  0  0  0  0  0  0  0  0
   21.6459   -4.7164  -14.5834 O   0  0  0  0  0  0  0  0  0  0  0  0
   17.2963   -3.4630  -17.1179 O   0  0  0  0  0  0  0  0  0  0  0  0
   21.3978   -6.6433  -13.4618 O   0  0  0  0  0  0  0  0  0  0  0  0
  2  1  1  1
  2  3  1  0
  4  5  2  0
  4  2  1  0
  6  7  1  0
  7  8  1  0
  8  9  1  1
  8 10  1  0
 10 11  1  6
 11  4  1  0
 12 14  1  0
 12 10  1  0
 13 12  2  0
 15 14  1  0
 15 20  1  0
 15 16  1  1
 16 17  1  0
 18 17  1  0
 18 22  1  0
 19 18  2  0
 20 21  1  0
 23 20  2  0
M  END
$$$$
