AIE.pdb
     RDKit          3D

 23 22  0  0  1  0  0  0  0  0999 V2000
   27.5447  -12.3223  -15.5680 C   0  0  0  0  0  0  0  0  0  0  0  0
   26.7925  -12.7400  -16.8011 C   0  0  2  0  0  0  0  0  0  0  0  0
   27.7001  -13.0012  -17.9003 N   0  0  0  0  0  0  0  0  0  0  0  0
   25.7422  -11.7829  -17.1926 C   0  0  0  0  0  0  0  0  0  0  0  0
   26.0421  -10.8581  -17.9775 O   0  0  0  0  0  0  0  0  0  0  0  0
   21.8390  -13.9093  -18.6430 C   0  0  0  0  0  0  0  0  0  0  0  0
   22.2408  -12.4612  -18.8638 C   0  0  0  0  0  0  0  0  0  0  0  0
   22.0941  -11.7502  -17.5433 C   0  0  2  0  0  0  0  0  0  0  0  0
   20.9022  -10.8222  -17.6395 C   0  0  0  0  0  0  0  0  0  0  0  0
   23.3511  -10.9905  -17.1647 C   0  0  2  0  0  0  0  0  0  0  0  0
   24.4017  -11.8566  -16.7228 N   0  0  0  0  0  0  0  0  0  0  0  0
   22.9559  -10.0007  -16.1155 C   0  0  0  0  0  0  0  0  0  0  0  0
   22.7134  -10.4109  -14.9514 O   0  0  0  0  0  0  0  0  0  0  0  0
   22.8422   -8.6194  -16.3749 N   0  0  0  0  0  0  0  0  0  0  0  0
   22.4558   -7.6423  -15.3418 C   0  0  1  0  0  0  0  0  0  0  0  0
   22.7586   -6.2524  -15.7821 C   0  0  0  0  0  0  0  0  0  0  0  0
   22.2875   -5.2578  -14.7735 C   0  0  0  0  0  0  0  0  0  0  0  0
   22.5681   -3.8567  -15.2576 C   0  0  0  0  0  0  0  0  0  0  0  0
   23.1196   -3.7016  -16.3586 O   0  0  0  0  0  0  0  0  0  0  0  0
   21.0291   -7.9068  -15.0378 C   0  0  0  0  0  0  0  0  0  0  0  0
   20.4898   -7.9230  -13.7539 O   0  0  0  0  0  0  0  0  0  0  0  0
   22.2093   -2.7927  -14.4747 O   0  0  0  0  0  0  0  0  0  0  0  0
   20.1817   -8.1446  -15.9649 O   0  0  0  0  0  0  0  0  0  0  0  0
  2  1  1  1
  2  3  1  0
  4  5  2  0
  4  2  1  0
  6  7  1  0
  7  8  1  0
  8  9  1  6
  8 10  1  0
 10 11  1  1
 11  4  1  0
 12 14  1  0
 12 10  1  0
 13 12  2  0
 15 14  1  0
 15 20  1  0
 15 16  1  6
 16 17  1  0
 18 17  1  0
 18 22  1  0
 19 18  2  0
 20 21  1  0
 23 20  2  0
M  END
$$$$
