AIE.pdb
     RDKit          3D

 23 22  0  0  1  0  0  0  0  0999 V2000
   17.2761   -9.4147  -18.3108 C   0  0  0  0  0  0  0  0  0  0  0  0
   18.0542  -10.4470  -17.5428 C   0  0  2  0  0  0  0  0  0  0  0  0
   17.1736  -11.4554  -16.9880 N   0  0  0  0  0  0  0  0  0  0  0  0
   18.9211   -9.8652  -16.5024 C   0  0  0  0  0  0  0  0  0  0  0  0
   18.4013   -9.5161  -15.4211 O   0  0  0  0  0  0  0  0  0  0  0  0
   23.5964  -12.1901  -15.2673 C   0  0  0  0  0  0  0  0  0  0  0  0
   22.2439  -11.4990  -15.2774 C   0  0  0  0  0  0  0  0  0  0  0  0
   22.4883  -10.0425  -15.5764 C   0  0  2  0  0  0  0  0  0  0  0  0
   23.4319   -9.4991  -14.5250 C   0  0  0  0  0  0  0  0  0  0  0  0
   21.1975   -9.2469  -15.6183 C   0  0  2  0  0  0  0  0  0  0  0  0
   20.3220   -9.6796  -16.6649 N   0  0  0  0  0  0  0  0  0  0  0  0
   21.5829   -7.8091  -15.7622 C   0  0  0  0  0  0  0  0  0  0  0  0
   22.1793   -7.4398  -16.8064 O   0  0  0  0  0  0  0  0  0  0  0  0
   21.3057   -6.8430  -14.7733 N   0  0  0  0  0  0  0  0  0  0  0  0
   21.6910   -5.4273  -14.9102 C   0  0  1  0  0  0  0  0  0  0  0  0
   20.5536   -4.6117  -15.4189 C   0  0  0  0  0  0  0  0  0  0  0  0
   19.3876   -4.6823  -14.4895 C   0  0  0  0  0  0  0  0  0  0  0  0
   18.2720   -3.7986  -14.9902 C   0  0  0  0  0  0  0  0  0  0  0  0
   18.4885   -3.0472  -15.9540 O   0  0  0  0  0  0  0  0  0  0  0  0
   22.2167   -5.0136  -13.5872 C   0  0  0  0  0  0  0  0  0  0  0  0
   22.1037   -5.7727  -12.4251 O   0  0  0  0  0  0  0  0  0  0  0  0
   17.0514   -3.8454  -14.3725 O   0  0  0  0  0  0  0  0  0  0  0  0
   22.8231   -3.8996  -13.4283 O   0  0  0  0  0  0  0  0  0  0  0  0
  2  1  1  1
  2  3  1  0
  4  5  2  0
  4  2  1  0
  6  7  1  0
  7  8  1  0
  8  9  1  1
  8 10  1  0
 10 11  1  6
 11  4  1  0
 12 14  1  0
 12 10  1  0
 13 12  2  0
 15 14  1  0
 15 20  1  0
 15 16  1  1
 16 17  1  0
 18 17  1  0
 18 22  1  0
 19 18  2  0
 20 21  1  0
 23 20  2  0
M  END
$$$$
