AIE.pdb
     RDKit          3D

 23 22  0  0  1  0  0  0  0  0999 V2000
   18.1690  -10.3094  -20.4253 C   0  0  0  0  0  0  0  0  0  0  0  0
   19.3529  -10.9967  -19.8031 C   0  0  2  0  0  0  0  0  0  0  0  0
   19.2070  -12.4374  -19.8601 N   0  0  0  0  0  0  0  0  0  0  0  0
   19.6315  -10.5428  -18.4287 C   0  0  0  0  0  0  0  0  0  0  0  0
   18.7277  -10.6476  -17.5725 O   0  0  0  0  0  0  0  0  0  0  0  0
   23.8022  -10.8912  -14.2132 C   0  0  0  0  0  0  0  0  0  0  0  0
   22.7137   -9.9601  -14.7185 C   0  0  0  0  0  0  0  0  0  0  0  0
   22.3462  -10.4143  -16.1076 C   0  0  2  0  0  0  0  0  0  0  0  0
   23.5761  -10.2943  -16.9817 C   0  0  0  0  0  0  0  0  0  0  0  0
   21.1885   -9.6173  -16.6779 C   0  0  2  0  0  0  0  0  0  0  0  0
   20.8785   -9.9904  -18.0248 N   0  0  0  0  0  0  0  0  0  0  0  0
   21.5622   -8.1738  -16.5632 C   0  0  0  0  0  0  0  0  0  0  0  0
   22.3816   -7.6894  -17.3855 O   0  0  0  0  0  0  0  0  0  0  0  0
   21.0336   -7.3263  -15.5679 N   0  0  0  0  0  0  0  0  0  0  0  0
   21.3012   -5.8779  -15.5283 C   0  0  1  0  0  0  0  0  0  0  0  0
   20.0573   -5.0984  -15.7786 C   0  0  0  0  0  0  0  0  0  0  0  0
   20.3024   -3.6347  -15.6177 C   0  0  0  0  0  0  0  0  0  0  0  0
   19.0251   -2.8669  -15.8525 C   0  0  0  0  0  0  0  0  0  0  0  0
   17.9934   -3.4930  -16.1423 O   0  0  0  0  0  0  0  0  0  0  0  0
   21.9537   -5.6150  -14.2233 C   0  0  0  0  0  0  0  0  0  0  0  0
   22.8062   -4.5424  -13.9736 O   0  0  0  0  0  0  0  0  0  0  0  0
   19.0330   -1.5026  -15.7409 O   0  0  0  0  0  0  0  0  0  0  0  0
   21.7682   -6.3819  -13.2175 O   0  0  0  0  0  0  0  0  0  0  0  0
  2  1  1  1
  2  3  1  0
  4  5  2  0
  4  2  1  0
  6  7  1  0
  7  8  1  0
  8  9  1  6
  8 10  1  0
 10 11  1  6
 11  4  1  0
 12 14  1  0
 12 10  1  0
 13 12  2  0
 15 14  1  0
 15 20  1  0
 15 16  1  1
 16 17  1  0
 18 17  1  0
 18 22  1  0
 19 18  2  0
 20 21  1  0
 23 20  2  0
M  END
$$$$
