AIE.pdb
     RDKit          3D

 23 22  0  0  1  0  0  0  0  0999 V2000
   17.8562   -9.9330  -18.9236 C   0  0  0  0  0  0  0  0  0  0  0  0
   18.6386  -10.9586  -18.1509 C   0  0  2  0  0  0  0  0  0  0  0  0
   17.7948  -12.0700  -17.7597 N   0  0  0  0  0  0  0  0  0  0  0  0
   19.3485  -10.3932  -16.9895 C   0  0  0  0  0  0  0  0  0  0  0  0
   18.6933  -10.1431  -15.9553 O   0  0  0  0  0  0  0  0  0  0  0  0
   24.1453  -12.2025  -15.4062 C   0  0  0  0  0  0  0  0  0  0  0  0
   22.7245  -11.6658  -15.4277 C   0  0  0  0  0  0  0  0  0  0  0  0
   22.8112  -10.1807  -15.6681 C   0  0  2  0  0  0  0  0  0  0  0  0
   23.5314   -9.5560  -14.4925 C   0  0  0  0  0  0  0  0  0  0  0  0
   21.4430   -9.5569  -15.8671 C   0  0  2  0  0  0  0  0  0  0  0  0
   20.7437  -10.1167  -16.9838 N   0  0  0  0  0  0  0  0  0  0  0  0
   21.6591   -8.0846  -16.0161 C   0  0  0  0  0  0  0  0  0  0  0  0
   22.3316   -7.6632  -16.9921 O   0  0  0  0  0  0  0  0  0  0  0  0
   21.1393   -7.1419  -15.1054 N   0  0  0  0  0  0  0  0  0  0  0  0
   21.3290   -5.6893  -15.2649 C   0  0  1  0  0  0  0  0  0  0  0  0
   20.0190   -4.9848  -15.3363 C   0  0  0  0  0  0  0  0  0  0  0  0
   20.2113   -3.5080  -15.4382 C   0  0  0  0  0  0  0  0  0  0  0  0
   18.8729   -2.8146  -15.5010 C   0  0  0  0  0  0  0  0  0  0  0  0
   17.8394   -3.4968  -15.4188 O   0  0  0  0  0  0  0  0  0  0  0  0
   22.2096   -5.2641  -14.1506 C   0  0  0  0  0  0  0  0  0  0  0  0
   22.1996   -5.8347  -12.8803 O   0  0  0  0  0  0  0  0  0  0  0  0
   18.8291   -1.4542  -15.6466 O   0  0  0  0  0  0  0  0  0  0  0  0
   23.0567   -4.3174  -14.2930 O   0  0  0  0  0  0  0  0  0  0  0  0
  2  1  1  1
  2  3  1  0
  4  5  2  0
  4  2  1  0
  6  7  1  0
  7  8  1  0
  8  9  1  1
  8 10  1  0
 10 11  1  6
 11  4  1  0
 12 14  1  0
 12 10  1  0
 13 12  2  0
 15 14  1  0
 15 20  1  0
 15 16  1  1
 16 17  1  0
 18 17  1  0
 18 22  1  0
 19 18  2  0
 20 21  1  0
 23 20  2  0
M  END
$$$$
