AIE.pdb
     RDKit          3D

 23 22  0  0  1  0  0  0  0  0999 V2000
   27.4904  -19.8422  -16.4590 C   0  0  0  0  0  0  0  0  0  0  0  0
   27.7125  -20.9678  -15.4870 C   0  0  2  0  0  0  0  0  0  0  0  0
   28.1289  -22.1738  -16.1743 N   0  0  0  0  0  0  0  0  0  0  0  0
   26.5490  -21.2233  -14.6189 C   0  0  0  0  0  0  0  0  0  0  0  0
   25.7162  -22.0830  -14.9774 O   0  0  0  0  0  0  0  0  0  0  0  0
   27.2948  -20.5330   -9.3650 C   0  0  0  0  0  0  0  0  0  0  0  0
   26.7972  -21.2373  -10.6154 C   0  0  0  0  0  0  0  0  0  0  0  0
   25.5499  -20.5214  -11.0653 C   0  0  2  0  0  0  0  0  0  0  0  0
   24.4148  -20.9384  -10.1550 C   0  0  0  0  0  0  0  0  0  0  0  0
   25.2221  -20.8103  -12.5178 C   0  0  2  0  0  0  0  0  0  0  0  0
   26.3237  -20.5411  -13.3914 N   0  0  0  0  0  0  0  0  0  0  0  0
   24.0179  -19.9912  -12.8581 C   0  0  0  0  0  0  0  0  0  0  0  0
   24.1796  -18.8264  -13.3044 O   0  0  0  0  0  0  0  0  0  0  0  0
   22.7010  -20.4698  -12.6997 N   0  0  0  0  0  0  0  0  0  0  0  0
   21.6484  -20.2590  -13.7091 C   0  0  1  0  0  0  0  0  0  0  0  0
   22.0950  -20.7251  -15.0511 C   0  0  0  0  0  0  0  0  0  0  0  0
   21.8709  -19.6714  -16.0845 C   0  0  0  0  0  0  0  0  0  0  0  0
   22.6074  -20.0252  -17.3529 C   0  0  0  0  0  0  0  0  0  0  0  0
   22.3666  -21.1112  -17.9034 O   0  0  0  0  0  0  0  0  0  0  0  0
   20.4346  -20.9294  -13.1847 C   0  0  0  0  0  0  0  0  0  0  0  0
   20.4520  -22.0398  -12.3442 O   0  0  0  0  0  0  0  0  0  0  0  0
   23.5207  -19.1439  -17.8656 O   0  0  0  0  0  0  0  0  0  0  0  0
   19.2621  -20.5165  -13.4828 O   0  0  0  0  0  0  0  0  0  0  0  0
  2  1  1  6
  2  3  1  0
  4  5  2  0
  4  2  1  0
  6  7  1  0
  7  8  1  0
  8  9  1  1
  8 10  1  0
 10 11  1  6
 11  4  1  0
 12 14  1  0
 12 10  1  0
 13 12  2  0
 15 14  1  0
 15 20  1  0
 15 16  1  6
 16 17  1  0
 18 17  1  0
 18 22  1  0
 19 18  2  0
 20 21  1  0
 23 20  2  0
M  END
$$$$
