AIE.pdb
     RDKit          3D

 23 22  0  0  1  0  0  0  0  0999 V2000
   20.4166  -11.9276  -20.2097 C   0  0  0  0  0  0  0  0  0  0  0  0
   21.1873  -10.6620  -19.9541 C   0  0  2  0  0  0  0  0  0  0  0  0
   22.6040  -10.8601  -20.1859 N   0  0  0  0  0  0  0  0  0  0  0  0
   20.9402  -10.0917  -18.6176 C   0  0  0  0  0  0  0  0  0  0  0  0
   19.7677   -9.7934  -18.3052 O   0  0  0  0  0  0  0  0  0  0  0  0
   23.7536  -11.7772  -14.3465 C   0  0  0  0  0  0  0  0  0  0  0  0
   22.5612  -11.3054  -15.1607 C   0  0  0  0  0  0  0  0  0  0  0  0
   22.6914   -9.8127  -15.3203 C   0  0  2  0  0  0  0  0  0  0  0  0
   22.4302   -9.1719  -13.9741 C   0  0  0  0  0  0  0  0  0  0  0  0
   21.7488   -9.2703  -16.3776 C   0  0  2  0  0  0  0  0  0  0  0  0
   21.9687   -9.8624  -17.6622 N   0  0  0  0  0  0  0  0  0  0  0  0
   21.9353   -7.7866  -16.3999 C   0  0  0  0  0  0  0  0  0  0  0  0
   22.9775   -7.3113  -16.9198 O   0  0  0  0  0  0  0  0  0  0  0  0
   20.9889   -6.8912  -15.8606 N   0  0  0  0  0  0  0  0  0  0  0  0
   21.1045   -5.4287  -15.9990 C   0  0  1  0  0  0  0  0  0  0  0  0
   20.1747   -4.9164  -17.0432 C   0  0  0  0  0  0  0  0  0  0  0  0
   20.2901   -3.4345  -17.1809 C   0  0  0  0  0  0  0  0  0  0  0  0
   19.2992   -2.9305  -18.2009 C   0  0  0  0  0  0  0  0  0  0  0  0
   18.5686   -3.7480  -18.7824 O   0  0  0  0  0  0  0  0  0  0  0  0
   20.8937   -4.8687  -14.6426 C   0  0  0  0  0  0  0  0  0  0  0  0
   21.5154   -3.7187  -14.1626 O   0  0  0  0  0  0  0  0  0  0  0  0
   19.2289   -1.5884  -18.4607 O   0  0  0  0  0  0  0  0  0  0  0  0
   20.1047   -5.4259  -13.8053 O   0  0  0  0  0  0  0  0  0  0  0  0
  2  1  1  1
  2  3  1  0
  4  5  2  0
  4  2  1  0
  6  7  1  0
  7  8  1  0
  8  9  1  1
  8 10  1  0
 10 11  1  6
 11  4  1  0
 12 14  1  0
 12 10  1  0
 13 12  2  0
 15 14  1  0
 15 20  1  0
 15 16  1  6
 16 17  1  0
 18 17  1  0
 18 22  1  0
 19 18  2  0
 20 21  1  0
 23 20  2  0
M  END
$$$$
