AIE.pdb
     RDKit          3D

 23 22  0  0  1  0  0  0  0  0999 V2000
   26.3996  -18.7189  -18.2826 C   0  0  0  0  0  0  0  0  0  0  0  0
   27.2480  -19.8137  -17.6972 C   0  0  2  0  0  0  0  0  0  0  0  0
   27.6592  -20.7556  -18.7189 N   0  0  0  0  0  0  0  0  0  0  0  0
   26.6055  -20.5030  -16.5638 C   0  0  0  0  0  0  0  0  0  0  0  0
   25.9852  -21.5645  -16.7869 O   0  0  0  0  0  0  0  0  0  0  0  0
   27.2871  -21.4733  -10.6025 C   0  0  0  0  0  0  0  0  0  0  0  0
   26.2550  -21.3589  -11.7111 C   0  0  0  0  0  0  0  0  0  0  0  0
   26.9379  -20.7220  -12.8937 C   0  0  2  0  0  0  0  0  0  0  0  0
   27.3718  -19.3289  -12.4913 C   0  0  0  0  0  0  0  0  0  0  0  0
   26.0401  -20.6848  -14.1157 C   0  0  2  0  0  0  0  0  0  0  0  0
   26.6544  -20.0223  -15.2260 N   0  0  0  0  0  0  0  0  0  0  0  0
   24.7680  -20.0206  -13.6947 C   0  0  0  0  0  0  0  0  0  0  0  0
   24.6919  -18.7658  -13.7400 O   0  0  0  0  0  0  0  0  0  0  0  0
   23.6430  -20.7430  -13.2464 N   0  0  0  0  0  0  0  0  0  0  0  0
   22.2673  -20.2265  -13.3558 C   0  0  1  0  0  0  0  0  0  0  0  0
   21.9617  -19.8144  -14.7537 C   0  0  0  0  0  0  0  0  0  0  0  0
   20.5950  -19.2215  -14.8494 C   0  0  0  0  0  0  0  0  0  0  0  0
   19.9404  -19.6355  -16.1441 C   0  0  0  0  0  0  0  0  0  0  0  0
   20.5987  -20.2924  -16.9660 O   0  0  0  0  0  0  0  0  0  0  0  0
   21.3853  -21.2843  -12.8070 C   0  0  0  0  0  0  0  0  0  0  0  0
   20.1583  -21.0435  -12.1939 O   0  0  0  0  0  0  0  0  0  0  0  0
   18.6405  -19.2786  -16.3819 O   0  0  0  0  0  0  0  0  0  0  0  0
   21.7088  -22.5196  -12.8643 O   0  0  0  0  0  0  0  0  0  0  0  0
  2  1  1  6
  2  3  1  0
  4  5  2  0
  4  2  1  0
  6  7  1  0
  7  8  1  0
  8  9  1  1
  8 10  1  0
 10 11  1  6
 11  4  1  0
 12 14  1  0
 12 10  1  0
 13 12  2  0
 15 14  1  0
 15 20  1  0
 15 16  1  6
 16 17  1  0
 18 17  1  0
 18 22  1  0
 19 18  2  0
 20 21  1  0
 23 20  2  0
M  END
$$$$
