WNW.pdb
     RDKit          3D

 37 40  0  0  1  0  0  0  0  0999 V2000
   25.5953  -18.0014  -16.2077 N   0  0  0  0  0  0  0  0  0  0  0  0
   24.4515  -18.7601  -16.7211 C   0  0  1  0  0  0  0  0  0  0  0  0
   24.1684  -18.2310  -18.0763 C   0  0  0  0  0  0  0  0  0  0  0  0
   23.8668  -16.8123  -18.1939 C   0  0  0  0  0  0  0  0  0  0  0  0
   24.6242  -15.8541  -18.8255 C   0  0  0  0  0  0  0  0  0  0  0  0
   23.9958  -14.6589  -18.6927 N   0  0  0  0  0  0  0  0  0  0  0  0
   22.8551  -14.8695  -17.9836 C   0  0  0  0  0  0  0  0  0  0  0  0
   21.8810  -13.9659  -17.5988 C   0  0  0  0  0  0  0  0  0  0  0  0
   20.8099  -14.4702  -16.8797 C   0  0  0  0  0  0  0  0  0  0  0  0
   20.6963  -15.7941  -16.5526 C   0  0  0  0  0  0  0  0  0  0  0  0
   21.6564  -16.6900  -16.9313 C   0  0  0  0  0  0  0  0  0  0  0  0
   22.7479  -16.2083  -17.6574 C   0  0  0  0  0  0  0  0  0  0  0  0
   24.7866  -20.1982  -16.6349 C   0  0  0  0  0  0  0  0  0  0  0  0
   23.9876  -21.0019  -17.1682 O   0  0  0  0  0  0  0  0  0  0  0  0
   28.1639  -20.2888  -17.3592 N   0  0  0  0  0  0  0  0  0  0  0  0
   28.4948  -21.3958  -16.5704 C   0  0  0  0  0  0  0  0  0  0  0  0
   29.7743  -21.6691  -16.5760 O   0  0  0  0  0  0  0  0  0  0  0  0
   27.6968  -22.2818  -15.7594 C   0  0  0  0  0  0  0  0  0  0  0  0
   26.2149  -22.1010  -15.6623 C   0  0  2  0  0  0  0  0  0  0  0  0
   25.9375  -20.6782  -15.9949 N   0  0  0  0  0  0  0  0  0  0  0  0
   25.6271  -22.3967  -14.3575 C   0  0  0  0  0  0  0  0  0  0  0  0
   25.6534  -23.6268  -13.9659 O   0  0  0  0  0  0  0  0  0  0  0  0
   25.0344  -21.5036  -13.4448 N   0  0  0  0  0  0  0  0  0  0  0  0
   24.2076  -21.9635  -12.3300 C   0  0  1  0  0  0  0  0  0  0  0  0
   25.0921  -22.2724  -11.1360 C   0  0  0  0  0  0  0  0  0  0  0  0
   25.8802  -21.1541  -10.6412 C   0  0  0  0  0  0  0  0  0  0  0  0
   25.3208  -20.1129   -9.8856 C   0  0  0  0  0  0  0  0  0  0  0  0
   26.2869  -19.2491   -9.5411 N   0  0  0  0  0  0  0  0  0  0  0  0
   27.4806  -19.6614  -10.0335 C   0  0  0  0  0  0  0  0  0  0  0  0
   28.7365  -19.1015   -9.9461 C   0  0  0  0  0  0  0  0  0  0  0  0
   29.7785  -19.7443  -10.5637 C   0  0  0  0  0  0  0  0  0  0  0  0
   29.5378  -20.9231  -11.2488 C   0  0  0  0  0  0  0  0  0  0  0  0
   28.2698  -21.4603  -11.3193 C   0  0  0  0  0  0  0  0  0  0  0  0
   27.2090  -20.8430  -10.7127 C   0  0  0  0  0  0  0  0  0  0  0  0
   23.0691  -21.1092  -12.0859 C   0  0  0  0  0  0  0  0  0  0  0  0
   22.0475  -21.4621  -11.1897 O   0  0  0  0  0  0  0  0  0  0  0  0
   22.8858  -19.9819  -12.6482 O   0  0  0  0  0  0  0  0  0  0  0  0
  2  3  1  0
  2  1  1  6
  3  4  1  0
  4  5  2  0
  5  6  1  0
  7  6  1  0
  8  7  2  0
  9  8  1  0
 10 11  1  0
 10  9  2  0
 11 12  2  0
 12  4  1  0
 12  7  1  0
 13 14  2  0
 13  2  1  0
 16 15  1  0
 16 18  1  0
 17 16  2  0
 19 18  1  1
 19 20  1  0
 20 13  1  0
 21 19  1  0
 21 22  2  0
 23 21  1  0
 24 23  1  0
 24 25  1  1
 25 26  1  0
 26 34  1  0
 26 27  2  0
 27 28  1  0
 29 28  1  0
 29 30  2  0
 31 30  1  0
 32 31  2  0
 33 34  2  0
 33 32  1  0
 34 29  1  0
 35 24  1  0
 36 35  1  0
 37 35  2  0
M  END
$$$$
