WNW.pdb
     RDKit          3D

 37 40  0  0  1  0  0  0  0  0999 V2000
   19.8248  -19.9819  -16.6548 N   0  0  0  0  0  0  0  0  0  0  0  0
   20.6371  -20.8570  -15.8053 C   0  0  1  0  0  0  0  0  0  0  0  0
   21.5176  -19.9713  -15.0072 C   0  0  0  0  0  0  0  0  0  0  0  0
   22.4826  -19.1560  -15.7295 C   0  0  0  0  0  0  0  0  0  0  0  0
   22.6339  -17.7913  -15.6556 C   0  0  0  0  0  0  0  0  0  0  0  0
   23.6346  -17.4278  -16.4968 N   0  0  0  0  0  0  0  0  0  0  0  0
   24.1040  -18.5568  -17.0911 C   0  0  0  0  0  0  0  0  0  0  0  0
   25.1213  -18.7038  -18.0168 C   0  0  0  0  0  0  0  0  0  0  0  0
   25.3918  -19.9917  -18.4490 C   0  0  0  0  0  0  0  0  0  0  0  0
   24.7010  -21.0835  -17.9980 C   0  0  0  0  0  0  0  0  0  0  0  0
   23.6955  -20.9425  -17.0832 C   0  0  0  0  0  0  0  0  0  0  0  0
   23.4016  -19.6544  -16.6304 C   0  0  0  0  0  0  0  0  0  0  0  0
   19.7171  -21.7282  -15.0421 C   0  0  0  0  0  0  0  0  0  0  0  0
   18.7490  -21.1737  -14.4727 O   0  0  0  0  0  0  0  0  0  0  0  0
   21.2709  -26.8221  -14.2920 N   0  0  0  0  0  0  0  0  0  0  0  0
   20.4583  -25.9588  -15.0345 C   0  0  0  0  0  0  0  0  0  0  0  0
   20.9867  -25.6103  -16.1796 O   0  0  0  0  0  0  0  0  0  0  0  0
   19.1592  -25.3884  -14.7764 C   0  0  0  0  0  0  0  0  0  0  0  0
   19.0298  -24.0375  -14.1468 C   0  0  2  0  0  0  0  0  0  0  0  0
   19.8871  -23.1156  -14.9387 N   0  0  0  0  0  0  0  0  0  0  0  0
   19.4292  -23.9541  -12.7437 C   0  0  0  0  0  0  0  0  0  0  0  0
   20.6753  -23.7198  -12.4998 O   0  0  0  0  0  0  0  0  0  0  0  0
   18.6223  -24.0852  -11.5975 N   0  0  0  0  0  0  0  0  0  0  0  0
   19.1741  -24.0231  -10.2450 C   0  0  1  0  0  0  0  0  0  0  0  0
   19.8197  -22.6678  -10.0221 C   0  0  0  0  0  0  0  0  0  0  0  0
   18.9576  -21.5216  -10.2666 C   0  0  0  0  0  0  0  0  0  0  0  0
   17.6720  -21.4137   -9.7157 C   0  0  0  0  0  0  0  0  0  0  0  0
   17.1317  -20.2424  -10.0821 N   0  0  0  0  0  0  0  0  0  0  0  0
   17.9988  -19.5503  -10.8610 C   0  0  0  0  0  0  0  0  0  0  0  0
   17.8824  -18.3204  -11.4709 C   0  0  0  0  0  0  0  0  0  0  0  0
   18.9349  -17.8667  -12.2238 C   0  0  0  0  0  0  0  0  0  0  0  0
   20.0692  -18.6511  -12.3461 C   0  0  0  0  0  0  0  0  0  0  0  0
   20.1575  -19.8783  -11.7238 C   0  0  0  0  0  0  0  0  0  0  0  0
   19.1243  -20.3588  -10.9649 C   0  0  0  0  0  0  0  0  0  0  0  0
   18.2400  -24.4666   -9.2368 C   0  0  0  0  0  0  0  0  0  0  0  0
   18.6452  -24.7905   -7.9321 O   0  0  0  0  0  0  0  0  0  0  0  0
   16.9895  -24.6051   -9.4303 O   0  0  0  0  0  0  0  0  0  0  0  0
  2  3  1  0
  2  1  1  6
  3  4  1  0
  4  5  2  0
  5  6  1  0
  7  6  1  0
  8  7  2  0
  9  8  1  0
 10 11  1  0
 10  9  2  0
 11 12  2  0
 12  4  1  0
 12  7  1  0
 13 14  2  0
 13  2  1  0
 16 15  1  0
 16 18  1  0
 17 16  2  0
 19 18  1  6
 19 20  1  0
 20 13  1  0
 21 19  1  0
 21 22  2  0
 23 21  1  0
 24 23  1  0
 24 25  1  1
 25 26  1  0
 26 34  1  0
 26 27  2  0
 27 28  1  0
 29 28  1  0
 29 30  2  0
 31 30  1  0
 32 31  2  0
 33 34  2  0
 33 32  1  0
 34 29  1  0
 35 24  1  0
 36 35  1  0
 37 35  2  0
M  END
$$$$
