WNW.pdb
     RDKit          3D

 37 40  0  0  1  0  0  0  0  0999 V2000
   24.4336  -18.5842  -16.7505 N   0  0  0  0  0  0  0  0  0  0  0  0
   25.6298  -18.8438  -15.9448 C   0  0  1  0  0  0  0  0  0  0  0  0
   25.6690  -17.7951  -14.8981 C   0  0  0  0  0  0  0  0  0  0  0  0
   26.1545  -16.4787  -15.2841 C   0  0  0  0  0  0  0  0  0  0  0  0
   25.5429  -15.2693  -15.0516 C   0  0  0  0  0  0  0  0  0  0  0  0
   26.3175  -14.2911  -15.5846 N   0  0  0  0  0  0  0  0  0  0  0  0
   27.4040  -14.8854  -16.1455 C   0  0  0  0  0  0  0  0  0  0  0  0
   28.4774  -14.3114  -16.8025 C   0  0  0  0  0  0  0  0  0  0  0  0
   29.4567  -15.1721  -17.2704 C   0  0  0  0  0  0  0  0  0  0  0  0
   29.3900  -16.5287  -17.1039 C   0  0  0  0  0  0  0  0  0  0  0  0
   28.3313  -17.0997  -16.4551 C   0  0  0  0  0  0  0  0  0  0  0  0
   27.3290  -16.2547  -15.9732 C   0  0  0  0  0  0  0  0  0  0  0  0
   25.5609  -20.2428  -15.4697 C   0  0  0  0  0  0  0  0  0  0  0  0
   24.4238  -20.7621  -15.3911 O   0  0  0  0  0  0  0  0  0  0  0  0
   27.9479  -23.2424  -17.1976 N   0  0  0  0  0  0  0  0  0  0  0  0
   28.5488  -23.2461  -15.9343 C   0  0  0  0  0  0  0  0  0  0  0  0
   29.7935  -23.6490  -15.9562 O   0  0  0  0  0  0  0  0  0  0  0  0
   28.0576  -22.8907  -14.6259 C   0  0  0  0  0  0  0  0  0  0  0  0
   26.6857  -22.3191  -14.4546 C   0  0  2  0  0  0  0  0  0  0  0  0
   26.6947  -20.9869  -15.1155 N   0  0  0  0  0  0  0  0  0  0  0  0
   26.2402  -22.1502  -13.0733 C   0  0  0  0  0  0  0  0  0  0  0  0
   25.4771  -23.0700  -12.5848 O   0  0  0  0  0  0  0  0  0  0  0  0
   26.5452  -21.1060  -12.1795 N   0  0  0  0  0  0  0  0  0  0  0  0
   25.9893  -21.0496  -10.8285 C   0  0  1  0  0  0  0  0  0  0  0  0
   27.0882  -21.3160   -9.8161 C   0  0  0  0  0  0  0  0  0  0  0  0
   26.7670  -20.9593   -8.4427 C   0  0  0  0  0  0  0  0  0  0  0  0
   25.5305  -21.2633   -7.8539 C   0  0  0  0  0  0  0  0  0  0  0  0
   25.5349  -20.8482   -6.5788 N   0  0  0  0  0  0  0  0  0  0  0  0
   26.7249  -20.2733   -6.2779 C   0  0  0  0  0  0  0  0  0  0  0  0
   27.1830  -19.7010   -5.1114 C   0  0  0  0  0  0  0  0  0  0  0  0
   28.4503  -19.1771   -5.0991 C   0  0  0  0  0  0  0  0  0  0  0  0
   29.2209  -19.2389   -6.2476 C   0  0  0  0  0  0  0  0  0  0  0  0
   28.7358  -19.8182   -7.4010 C   0  0  0  0  0  0  0  0  0  0  0  0
   27.4753  -20.3507   -7.4450 C   0  0  0  0  0  0  0  0  0  0  0  0
   25.1760  -19.8773  -10.6047 C   0  0  0  0  0  0  0  0  0  0  0  0
   24.0443  -19.8993   -9.7739 O   0  0  0  0  0  0  0  0  0  0  0  0
   25.4007  -18.7390  -11.1284 O   0  0  0  0  0  0  0  0  0  0  0  0
  2  3  1  0
  2  1  1  6
  3  4  1  0
  4  5  2  0
  5  6  1  0
  7  6  1  0
  8  7  2  0
  9  8  1  0
 10 11  1  0
 10  9  2  0
 11 12  2  0
 12  4  1  0
 12  7  1  0
 13 14  2  0
 13  2  1  0
 16 15  1  0
 16 18  1  0
 17 16  2  0
 19 18  1  1
 19 20  1  0
 20 13  1  0
 21 19  1  0
 21 22  2  0
 23 21  1  0
 24 23  1  0
 24 25  1  1
 25 26  1  0
 26 34  1  0
 26 27  2  0
 27 28  1  0
 29 28  1  0
 29 30  2  0
 31 30  1  0
 32 31  2  0
 33 34  2  0
 33 32  1  0
 34 29  1  0
 35 24  1  0
 36 35  1  0
 37 35  2  0
M  END
$$$$
