WNW.pdb
     RDKit          3D

 37 40  0  0  1  0  0  0  0  0999 V2000
   25.3782  -20.6288  -16.3399 N   0  0  0  0  0  0  0  0  0  0  0  0
   25.0682  -21.2628  -15.0557 C   0  0  1  0  0  0  0  0  0  0  0  0
   25.1643  -20.2004  -14.0266 C   0  0  0  0  0  0  0  0  0  0  0  0
   26.4737  -19.6113  -13.7899 C   0  0  0  0  0  0  0  0  0  0  0  0
   26.9030  -18.3637  -14.1773 C   0  0  0  0  0  0  0  0  0  0  0  0
   28.1893  -18.2116  -13.7731 N   0  0  0  0  0  0  0  0  0  0  0  0
   28.5600  -19.3554  -13.1386 C   0  0  0  0  0  0  0  0  0  0  0  0
   29.7679  -19.6798  -12.5478 C   0  0  0  0  0  0  0  0  0  0  0  0
   29.8606  -20.9311  -11.9611 C   0  0  0  0  0  0  0  0  0  0  0  0
   28.8223  -21.8226  -11.9523 C   0  0  0  0  0  0  0  0  0  0  0  0
   27.6272  -21.5057  -12.5346 C   0  0  0  0  0  0  0  0  0  0  0  0
   27.5064  -20.2500  -13.1340 C   0  0  0  0  0  0  0  0  0  0  0  0
   23.7560  -21.9328  -15.1865 C   0  0  0  0  0  0  0  0  0  0  0  0
   22.8414  -21.2885  -15.7498 O   0  0  0  0  0  0  0  0  0  0  0  0
   20.0660  -26.2026  -14.9173 N   0  0  0  0  0  0  0  0  0  0  0  0
   21.3732  -26.2909  -14.4269 C   0  0  0  0  0  0  0  0  0  0  0  0
   21.7026  -27.5001  -14.0512 O   0  0  0  0  0  0  0  0  0  0  0  0
   22.4152  -25.3078  -14.2615 C   0  0  0  0  0  0  0  0  0  0  0  0
   22.1724  -23.8724  -14.6063 C   0  0  2  0  0  0  0  0  0  0  0  0
   23.5091  -23.2295  -14.7152 N   0  0  0  0  0  0  0  0  0  0  0  0
   21.3709  -23.1191  -13.6444 C   0  0  0  0  0  0  0  0  0  0  0  0
   21.6587  -23.2679  -12.3946 O   0  0  0  0  0  0  0  0  0  0  0  0
   20.3135  -22.2254  -13.8998 N   0  0  0  0  0  0  0  0  0  0  0  0
   19.4112  -21.7644  -12.8458 C   0  0  1  0  0  0  0  0  0  0  0  0
   19.7054  -20.3103  -12.5259 C   0  0  0  0  0  0  0  0  0  0  0  0
   21.0147  -20.0549  -11.9454 C   0  0  0  0  0  0  0  0  0  0  0  0
   22.0303  -19.3823  -12.6413 C   0  0  0  0  0  0  0  0  0  0  0  0
   23.1043  -19.2620  -11.8476 N   0  0  0  0  0  0  0  0  0  0  0  0
   22.8594  -19.8271  -10.6400 C   0  0  0  0  0  0  0  0  0  0  0  0
   23.6558  -19.9531   -9.5228 C   0  0  0  0  0  0  0  0  0  0  0  0
   23.1397  -20.5950   -8.4264 C   0  0  0  0  0  0  0  0  0  0  0  0
   21.8481  -21.0911   -8.4767 C   0  0  0  0  0  0  0  0  0  0  0  0
   21.0739  -20.9499   -9.6089 C   0  0  0  0  0  0  0  0  0  0  0  0
   21.5602  -20.3136  -10.7193 C   0  0  0  0  0  0  0  0  0  0  0  0
   18.0305  -22.1024  -13.1015 C   0  0  0  0  0  0  0  0  0  0  0  0
   17.0805  -22.1971  -12.0719 O   0  0  0  0  0  0  0  0  0  0  0  0
   17.5542  -22.3431  -14.2571 O   0  0  0  0  0  0  0  0  0  0  0  0
  2  3  1  0
  2  1  1  6
  3  4  1  0
  4  5  2  0
  5  6  1  0
  7  6  1  0
  8  7  2  0
  9  8  1  0
 10 11  1  0
 10  9  2  0
 11 12  2  0
 12  4  1  0
 12  7  1  0
 13 14  2  0
 13  2  1  0
 16 15  1  0
 16 18  1  0
 17 16  2  0
 19 18  1  1
 19 20  1  0
 20 13  1  0
 21 19  1  0
 21 22  2  0
 23 21  1  0
 24 23  1  0
 24 25  1  6
 25 26  1  0
 26 34  1  0
 26 27  2  0
 27 28  1  0
 29 28  1  0
 29 30  2  0
 31 30  1  0
 32 31  2  0
 33 34  2  0
 33 32  1  0
 34 29  1  0
 35 24  1  0
 36 35  1  0
 37 35  2  0
M  END
$$$$
