WNW.pdb
     RDKit          3D

 37 40  0  0  1  0  0  0  0  0999 V2000
   25.1242  -17.9383  -16.0113 N   0  0  0  0  0  0  0  0  0  0  0  0
   26.1051  -17.9352  -14.9227 C   0  0  1  0  0  0  0  0  0  0  0  0
   26.7079  -16.5813  -14.9019 C   0  0  0  0  0  0  0  0  0  0  0  0
   27.5127  -16.1869  -16.0484 C   0  0  0  0  0  0  0  0  0  0  0  0
   27.3468  -15.0690  -16.8316 C   0  0  0  0  0  0  0  0  0  0  0  0
   28.2966  -15.0832  -17.8005 N   0  0  0  0  0  0  0  0  0  0  0  0
   29.0494  -16.2013  -17.6233 C   0  0  0  0  0  0  0  0  0  0  0  0
   30.1365  -16.6521  -18.3502 C   0  0  0  0  0  0  0  0  0  0  0  0
   30.7203  -17.8365  -17.9318 C   0  0  0  0  0  0  0  0  0  0  0  0
   30.2634  -18.5461  -16.8546 C   0  0  0  0  0  0  0  0  0  0  0  0
   29.1899  -18.1039  -16.1336 C   0  0  0  0  0  0  0  0  0  0  0  0
   28.5818  -16.9119  -16.5340 C   0  0  0  0  0  0  0  0  0  0  0  0
   25.4126  -18.3641  -13.6880 C   0  0  0  0  0  0  0  0  0  0  0  0
   24.6739  -17.5219  -13.1277 O   0  0  0  0  0  0  0  0  0  0  0  0
   22.7927  -19.5949  -14.0383 N   0  0  0  0  0  0  0  0  0  0  0  0
   22.8981  -20.6832  -13.1656 C   0  0  0  0  0  0  0  0  0  0  0  0
   21.9341  -21.5559  -13.3107 O   0  0  0  0  0  0  0  0  0  0  0  0
   23.8622  -21.0198  -12.1474 C   0  0  0  0  0  0  0  0  0  0  0  0
   24.9968  -20.0961  -11.8350 C   0  0  2  0  0  0  0  0  0  0  0  0
   25.5507  -19.6467  -13.1399 N   0  0  0  0  0  0  0  0  0  0  0  0
   26.0809  -20.6733  -11.0433 C   0  0  0  0  0  0  0  0  0  0  0  0
   26.8734  -21.4971  -11.6437 O   0  0  0  0  0  0  0  0  0  0  0  0
   26.3934  -20.4401   -9.6906 N   0  0  0  0  0  0  0  0  0  0  0  0
   26.4853  -21.5244   -8.7141 C   0  0  1  0  0  0  0  0  0  0  0  0
   27.7763  -21.3907   -7.9274 C   0  0  0  0  0  0  0  0  0  0  0  0
   27.8118  -20.2917   -6.9747 C   0  0  0  0  0  0  0  0  0  0  0  0
   27.0678  -19.1157   -7.1517 C   0  0  0  0  0  0  0  0  0  0  0  0
   27.2703  -18.3034   -6.1042 N   0  0  0  0  0  0  0  0  0  0  0  0
   28.1232  -18.8803   -5.2226 C   0  0  0  0  0  0  0  0  0  0  0  0
   28.6258  -18.4272   -4.0225 C   0  0  0  0  0  0  0  0  0  0  0  0
   29.4968  -19.2346   -3.3369 C   0  0  0  0  0  0  0  0  0  0  0  0
   29.8401  -20.4666   -3.8673 C   0  0  0  0  0  0  0  0  0  0  0  0
   29.3209  -20.8939   -5.0711 C   0  0  0  0  0  0  0  0  0  0  0  0
   28.4486  -20.1114   -5.7790 C   0  0  0  0  0  0  0  0  0  0  0  0
   25.2747  -21.6906   -7.9443 C   0  0  0  0  0  0  0  0  0  0  0  0
   25.1557  -22.6621   -6.9376 O   0  0  0  0  0  0  0  0  0  0  0  0
   24.2236  -20.9902   -8.1024 O   0  0  0  0  0  0  0  0  0  0  0  0
  2  3  1  0
  2  1  1  6
  3  4  1  0
  4  5  2  0
  5  6  1  0
  7  6  1  0
  8  7  2  0
  9  8  1  0
 10 11  1  0
 10  9  2  0
 11 12  2  0
 12  4  1  0
 12  7  1  0
 13 14  2  0
 13  2  1  0
 16 15  1  0
 16 18  1  0
 17 16  2  0
 19 18  1  6
 19 20  1  0
 20 13  1  0
 21 19  1  0
 21 22  2  0
 23 21  1  0
 24 23  1  0
 24 25  1  1
 25 26  1  0
 26 34  1  0
 26 27  2  0
 27 28  1  0
 29 28  1  0
 29 30  2  0
 31 30  1  0
 32 31  2  0
 33 34  2  0
 33 32  1  0
 34 29  1  0
 35 24  1  0
 36 35  1  0
 37 35  2  0
M  END
$$$$
