WNW.pdb
     RDKit          3D

 37 40  0  0  1  0  0  0  0  0999 V2000
   27.6480  -21.4004  -16.5220 N   0  0  0  0  0  0  0  0  0  0  0  0
   26.8286  -21.7746  -15.3662 C   0  0  1  0  0  0  0  0  0  0  0  0
   26.4421  -20.5103  -14.6961 C   0  0  0  0  0  0  0  0  0  0  0  0
   27.4734  -19.8012  -13.9536 C   0  0  0  0  0  0  0  0  0  0  0  0
   27.8615  -18.4925  -14.1192 C   0  0  0  0  0  0  0  0  0  0  0  0
   28.8608  -18.2303  -13.2396 N   0  0  0  0  0  0  0  0  0  0  0  0
   29.0946  -19.3665  -12.5307 C   0  0  0  0  0  0  0  0  0  0  0  0
   30.0088  -19.5976  -11.5186 C   0  0  0  0  0  0  0  0  0  0  0  0
   30.0206  -20.8671  -10.9648 C   0  0  0  0  0  0  0  0  0  0  0  0
   29.1791  -21.8631  -11.3803 C   0  0  0  0  0  0  0  0  0  0  0  0
   28.2742  -21.6387  -12.3797 C   0  0  0  0  0  0  0  0  0  0  0  0
   28.2411  -20.3670  -12.9561 C   0  0  0  0  0  0  0  0  0  0  0  0
   25.7204  -22.6247  -15.8529 C   0  0  0  0  0  0  0  0  0  0  0  0
   25.3109  -22.4145  -17.0179 O   0  0  0  0  0  0  0  0  0  0  0  0
   22.2148  -26.8479  -16.3747 N   0  0  0  0  0  0  0  0  0  0  0  0
   23.1823  -26.8013  -15.3653 C   0  0  0  0  0  0  0  0  0  0  0  0
   23.3693  -27.9547  -14.7764 O   0  0  0  0  0  0  0  0  0  0  0  0
   24.0047  -25.7304  -14.8592 C   0  0  0  0  0  0  0  0  0  0  0  0
   23.8624  -24.3403  -15.3937 C   0  0  2  0  0  0  0  0  0  0  0  0
   25.1302  -23.6308  -15.0758 N   0  0  0  0  0  0  0  0  0  0  0  0
   22.7477  -23.5666  -14.8515 C   0  0  0  0  0  0  0  0  0  0  0  0
   21.5657  -23.8569  -15.2823 O   0  0  0  0  0  0  0  0  0  0  0  0
   22.7856  -22.5344  -13.8948 N   0  0  0  0  0  0  0  0  0  0  0  0
   21.5801  -21.8306  -13.4599 C   0  0  1  0  0  0  0  0  0  0  0  0
   21.8225  -21.2016  -12.1001 C   0  0  0  0  0  0  0  0  0  0  0  0
   23.1894  -20.7711  -11.8498 C   0  0  0  0  0  0  0  0  0  0  0  0
   23.9683  -20.1288  -12.8239 C   0  0  0  0  0  0  0  0  0  0  0  0
   25.1633  -19.8194  -12.3001 N   0  0  0  0  0  0  0  0  0  0  0  0
   25.2279  -20.2268  -11.0089 C   0  0  0  0  0  0  0  0  0  0  0  0
   26.2434  -20.1360  -10.0822 C   0  0  0  0  0  0  0  0  0  0  0  0
   26.0291  -20.6549   -8.8311 C   0  0  0  0  0  0  0  0  0  0  0  0
   24.8117  -21.2477   -8.5421 C   0  0  0  0  0  0  0  0  0  0  0  0
   23.8133  -21.3239   -9.4900 C   0  0  0  0  0  0  0  0  0  0  0  0
   23.9962  -20.8147  -10.7476 C   0  0  0  0  0  0  0  0  0  0  0  0
   21.0343  -20.9682  -14.4818 C   0  0  0  0  0  0  0  0  0  0  0  0
   19.7194  -20.4792  -14.4240 O   0  0  0  0  0  0  0  0  0  0  0  0
   21.6769  -20.5798  -15.5096 O   0  0  0  0  0  0  0  0  0  0  0  0
  2  3  1  0
  2  1  1  6
  3  4  1  0
  4  5  2  0
  5  6  1  0
  7  6  1  0
  8  7  2  0
  9  8  1  0
 10 11  1  0
 10  9  2  0
 11 12  2  0
 12  4  1  0
 12  7  1  0
 13 14  2  0
 13  2  1  0
 16 15  1  0
 16 18  1  0
 17 16  2  0
 19 18  1  1
 19 20  1  0
 20 13  1  0
 21 19  1  0
 21 22  2  0
 23 21  1  0
 24 23  1  0
 24 25  1  1
 25 26  1  0
 26 34  1  0
 26 27  2  0
 27 28  1  0
 29 28  1  0
 29 30  2  0
 31 30  1  0
 32 31  2  0
 33 34  2  0
 33 32  1  0
 34 29  1  0
 35 24  1  0
 36 35  1  0
 37 35  2  0
M  END
$$$$
