WNW.pdb
     RDKit          3D

 37 40  0  0  1  0  0  0  0  0999 V2000
   28.5772  -32.6648  -16.8619 N   0  0  0  0  0  0  0  0  0  0  0  0
   27.6108  -32.0265  -15.9640 C   0  0  1  0  0  0  0  0  0  0  0  0
   26.6439  -31.3077  -16.8273 C   0  0  0  0  0  0  0  0  0  0  0  0
   27.1251  -30.1358  -17.5435 C   0  0  0  0  0  0  0  0  0  0  0  0
   27.6130  -30.0929  -18.8283 C   0  0  0  0  0  0  0  0  0  0  0  0
   27.9660  -28.8127  -19.1070 N   0  0  0  0  0  0  0  0  0  0  0  0
   27.7005  -28.0626  -18.0047 C   0  0  0  0  0  0  0  0  0  0  0  0
   27.8813  -26.7064  -17.8012 C   0  0  0  0  0  0  0  0  0  0  0  0
   27.5106  -26.2052  -16.5642 C   0  0  0  0  0  0  0  0  0  0  0  0
   26.9883  -26.9919  -15.5738 C   0  0  0  0  0  0  0  0  0  0  0  0
   26.8079  -28.3322  -15.7710 C   0  0  0  0  0  0  0  0  0  0  0  0
   27.1735  -28.8641  -17.0096 C   0  0  0  0  0  0  0  0  0  0  0  0
   27.0509  -33.0743  -15.0828 C   0  0  0  0  0  0  0  0  0  0  0  0
   26.9028  -34.2153  -15.5779 O   0  0  0  0  0  0  0  0  0  0  0  0
   27.9057  -31.8674  -11.3660 N   0  0  0  0  0  0  0  0  0  0  0  0
   27.6104  -33.2078  -11.0957 C   0  0  0  0  0  0  0  0  0  0  0  0
   28.2247  -33.6678  -10.0360 O   0  0  0  0  0  0  0  0  0  0  0  0
   26.7625  -34.1669  -11.7597 C   0  0  0  0  0  0  0  0  0  0  0  0
   25.8825  -33.7505  -12.8956 C   0  0  2  0  0  0  0  0  0  0  0  0
   26.6917  -32.8397  -13.7485 N   0  0  0  0  0  0  0  0  0  0  0  0
   24.6495  -33.0624  -12.5195 C   0  0  0  0  0  0  0  0  0  0  0  0
   24.7143  -31.7823  -12.3641 O   0  0  0  0  0  0  0  0  0  0  0  0
   23.3712  -33.6141  -12.3106 N   0  0  0  0  0  0  0  0  0  0  0  0
   22.2594  -32.8258  -11.7813 C   0  0  1  0  0  0  0  0  0  0  0  0
   21.8266  -31.8015  -12.8141 C   0  0  0  0  0  0  0  0  0  0  0  0
   20.7233  -32.2104  -13.6697 C   0  0  0  0  0  0  0  0  0  0  0  0
   19.4012  -32.2932  -13.2079 C   0  0  0  0  0  0  0  0  0  0  0  0
   18.6019  -32.6584  -14.2207 N   0  0  0  0  0  0  0  0  0  0  0  0
   19.3284  -32.8280  -15.3524 C   0  0  0  0  0  0  0  0  0  0  0  0
   18.9487  -33.2039  -16.6224 C   0  0  0  0  0  0  0  0  0  0  0  0
   19.9187  -33.3075  -17.5862 C   0  0  0  0  0  0  0  0  0  0  0  0
   21.2351  -33.0341  -17.2557 C   0  0  0  0  0  0  0  0  0  0  0  0
   21.5856  -32.6597  -15.9758 C   0  0  0  0  0  0  0  0  0  0  0  0
   20.6406  -32.5466  -14.9917 C   0  0  0  0  0  0  0  0  0  0  0  0
   21.2164  -33.6424  -11.2057 C   0  0  0  0  0  0  0  0  0  0  0  0
   20.2250  -33.1082  -10.3672 O   0  0  0  0  0  0  0  0  0  0  0  0
   21.0999  -34.8954  -11.3972 O   0  0  0  0  0  0  0  0  0  0  0  0
  2  3  1  0
  2  1  1  6
  3  4  1  0
  4  5  2  0
  5  6  1  0
  7  6  1  0
  8  7  2  0
  9  8  1  0
 10 11  1  0
 10  9  2  0
 11 12  2  0
 12  4  1  0
 12  7  1  0
 13 14  2  0
 13  2  1  0
 16 15  1  0
 16 18  1  0
 17 16  2  0
 19 18  1  1
 19 20  1  0
 20 13  1  0
 21 19  1  0
 21 22  2  0
 23 21  1  0
 24 23  1  0
 24 25  1  6
 25 26  1  0
 26 34  1  0
 26 27  2  0
 27 28  1  0
 29 28  1  0
 29 30  2  0
 31 30  1  0
 32 31  2  0
 33 34  2  0
 33 32  1  0
 34 29  1  0
 35 24  1  0
 36 35  1  0
 37 35  2  0
M  END
$$$$
