WNW.pdb
     RDKit          3D

 37 40  0  0  1  0  0  0  0  0999 V2000
   24.3796  -18.5206  -17.6896 N   0  0  0  0  0  0  0  0  0  0  0  0
   23.9839  -19.6074  -16.7897 C   0  0  1  0  0  0  0  0  0  0  0  0
   23.9757  -19.0396  -15.4207 C   0  0  0  0  0  0  0  0  0  0  0  0
   25.2450  -18.5816  -14.8759 C   0  0  0  0  0  0  0  0  0  0  0  0
   25.5707  -17.2996  -14.5001 C   0  0  0  0  0  0  0  0  0  0  0  0
   26.8538  -17.2985  -14.0586 N   0  0  0  0  0  0  0  0  0  0  0  0
   27.3251  -18.5698  -14.1582 C   0  0  0  0  0  0  0  0  0  0  0  0
   28.5701  -19.0731  -13.8265 C   0  0  0  0  0  0  0  0  0  0  0  0
   28.7708  -20.4285  -14.0300 C   0  0  0  0  0  0  0  0  0  0  0  0
   27.8009  -21.2523  -14.5335 C   0  0  0  0  0  0  0  0  0  0  0  0
   26.5695  -20.7589  -14.8620 C   0  0  0  0  0  0  0  0  0  0  0  0
   26.3401  -19.3951  -14.6671 C   0  0  0  0  0  0  0  0  0  0  0  0
   22.7011  -20.1568  -17.2799 C   0  0  0  0  0  0  0  0  0  0  0  0
   21.8934  -19.3475  -17.7913 O   0  0  0  0  0  0  0  0  0  0  0  0
   19.0095  -23.9847  -19.1037 N   0  0  0  0  0  0  0  0  0  0  0  0
   20.3870  -24.1802  -18.9580 C   0  0  0  0  0  0  0  0  0  0  0  0
   20.8187  -25.2672  -19.5446 O   0  0  0  0  0  0  0  0  0  0  0  0
   21.4098  -23.4139  -18.2900 C   0  0  0  0  0  0  0  0  0  0  0  0
   21.0770  -22.1205  -17.6158 C   0  0  2  0  0  0  0  0  0  0  0  0
   22.3689  -21.5158  -17.1948 N   0  0  0  0  0  0  0  0  0  0  0  0
   20.2085  -22.2241  -16.4452 C   0  0  0  0  0  0  0  0  0  0  0  0
   19.0087  -22.6594  -16.6398 O   0  0  0  0  0  0  0  0  0  0  0  0
   20.5111  -21.9191  -15.1044 N   0  0  0  0  0  0  0  0  0  0  0  0
   19.5727  -22.1826  -14.0147 C   0  0  1  0  0  0  0  0  0  0  0  0
   20.2902  -22.0498  -12.6839 C   0  0  0  0  0  0  0  0  0  0  0  0
   21.4351  -21.1522  -12.6827 C   0  0  0  0  0  0  0  0  0  0  0  0
   21.3279  -19.7933  -12.3514 C   0  0  0  0  0  0  0  0  0  0  0  0
   22.5435  -19.2295  -12.4012 N   0  0  0  0  0  0  0  0  0  0  0  0
   23.4727  -20.1512  -12.7541 C   0  0  0  0  0  0  0  0  0  0  0  0
   24.8331  -20.0378  -12.9399 C   0  0  0  0  0  0  0  0  0  0  0  0
   25.5327  -21.1560  -13.3152 C   0  0  0  0  0  0  0  0  0  0  0  0
   24.8564  -22.3509  -13.4938 C   0  0  0  0  0  0  0  0  0  0  0  0
   23.4938  -22.4344  -13.3004 C   0  0  0  0  0  0  0  0  0  0  0  0
   22.7674  -21.3363  -12.9250 C   0  0  0  0  0  0  0  0  0  0  0  0
   18.3322  -21.4564  -14.1543 C   0  0  0  0  0  0  0  0  0  0  0  0
   17.1327  -21.9070  -13.5800 O   0  0  0  0  0  0  0  0  0  0  0  0
   18.2096  -20.3650  -14.7980 O   0  0  0  0  0  0  0  0  0  0  0  0
  2  3  1  0
  2  1  1  6
  3  4  1  0
  4  5  2  0
  5  6  1  0
  7  6  1  0
  8  7  2  0
  9  8  1  0
 10 11  1  0
 10  9  2  0
 11 12  2  0
 12  4  1  0
 12  7  1  0
 13 14  2  0
 13  2  1  0
 16 15  1  0
 16 18  1  0
 17 16  2  0
 19 18  1  1
 19 20  1  0
 20 13  1  0
 21 19  1  0
 21 22  2  0
 23 21  1  0
 24 23  1  0
 24 25  1  1
 25 26  1  0
 26 34  1  0
 26 27  2  0
 27 28  1  0
 29 28  1  0
 29 30  2  0
 31 30  1  0
 32 31  2  0
 33 34  2  0
 33 32  1  0
 34 29  1  0
 35 24  1  0
 36 35  1  0
 37 35  2  0
M  END
$$$$
