WNW.pdb
     RDKit          3D

 37 40  0  0  1  0  0  0  0  0999 V2000
   28.7597  -22.9477  -16.3415 N   0  0  0  0  0  0  0  0  0  0  0  0
   29.0475  -22.3236  -15.0473 C   0  0  1  0  0  0  0  0  0  0  0  0
   30.3956  -21.7182  -15.1614 C   0  0  0  0  0  0  0  0  0  0  0  0
   31.5424  -22.5849  -14.9352 C   0  0  0  0  0  0  0  0  0  0  0  0
   32.2130  -23.3332  -15.8739 C   0  0  0  0  0  0  0  0  0  0  0  0
   33.2095  -24.0082  -15.2474 N   0  0  0  0  0  0  0  0  0  0  0  0
   33.1612  -23.6837  -13.9281 C   0  0  0  0  0  0  0  0  0  0  0  0
   33.9698  -24.1083  -12.8893 C   0  0  0  0  0  0  0  0  0  0  0  0
   33.6895  -23.6008  -11.6313 C   0  0  0  0  0  0  0  0  0  0  0  0
   32.6677  -22.7203  -11.4000 C   0  0  0  0  0  0  0  0  0  0  0  0
   31.8667  -22.2982  -12.4237 C   0  0  0  0  0  0  0  0  0  0  0  0
   32.1272  -22.7946  -13.7029 C   0  0  0  0  0  0  0  0  0  0  0  0
   27.9370  -21.3982  -14.7339 C   0  0  0  0  0  0  0  0  0  0  0  0
   27.7063  -20.4852  -15.5599 O   0  0  0  0  0  0  0  0  0  0  0  0
   24.6559  -20.7911  -16.4424 N   0  0  0  0  0  0  0  0  0  0  0  0
   24.7159  -22.0354  -15.8059 C   0  0  0  0  0  0  0  0  0  0  0  0
   24.3030  -23.0213  -16.5605 O   0  0  0  0  0  0  0  0  0  0  0  0
   25.1451  -22.4300  -14.4869 C   0  0  0  0  0  0  0  0  0  0  0  0
   25.6714  -21.4169  -13.5202 C   0  0  2  0  0  0  0  0  0  0  0  0
   27.1548  -21.5066  -13.5759 N   0  0  0  0  0  0  0  0  0  0  0  0
   25.2468  -21.5884  -12.1325 C   0  0  0  0  0  0  0  0  0  0  0  0
   23.9835  -21.4841  -11.8869 O   0  0  0  0  0  0  0  0  0  0  0  0
   26.0417  -21.8695  -11.0051 N   0  0  0  0  0  0  0  0  0  0  0  0
   25.8378  -21.1999   -9.7215 C   0  0  1  0  0  0  0  0  0  0  0  0
   27.1804  -20.9581   -9.0564 C   0  0  0  0  0  0  0  0  0  0  0  0
   27.1322  -20.1908   -7.8212 C   0  0  0  0  0  0  0  0  0  0  0  0
   26.0844  -19.3071   -7.5226 C   0  0  0  0  0  0  0  0  0  0  0  0
   26.2894  -18.7732   -6.3098 N   0  0  0  0  0  0  0  0  0  0  0  0
   27.4355  -19.2582   -5.7726 C   0  0  0  0  0  0  0  0  0  0  0  0
   28.0505  -18.9967   -4.5677 C   0  0  0  0  0  0  0  0  0  0  0  0
   29.2315  -19.6356   -4.2893 C   0  0  0  0  0  0  0  0  0  0  0  0
   29.7630  -20.5138   -5.2184 C   0  0  0  0  0  0  0  0  0  0  0  0
   29.1248  -20.7561   -6.4164 C   0  0  0  0  0  0  0  0  0  0  0  0
   27.9442  -20.1346   -6.7235 C   0  0  0  0  0  0  0  0  0  0  0  0
   24.9504  -20.0643   -9.8156 C   0  0  0  0  0  0  0  0  0  0  0  0
   23.7252  -20.0136   -9.1316 O   0  0  0  0  0  0  0  0  0  0  0  0
   25.1872  -19.0261  -10.5130 O   0  0  0  0  0  0  0  0  0  0  0  0
  2  3  1  0
  2  1  1  6
  3  4  1  0
  4  5  2  0
  5  6  1  0
  7  6  1  0
  8  7  2  0
  9  8  1  0
 10 11  1  0
 10  9  2  0
 11 12  2  0
 12  4  1  0
 12  7  1  0
 13 14  2  0
 13  2  1  0
 16 15  1  0
 16 18  1  0
 17 16  2  0
 19 18  1  6
 19 20  1  0
 20 13  1  0
 21 19  1  0
 21 22  2  0
 23 21  1  0
 24 23  1  0
 24 25  1  6
 25 26  1  0
 26 34  1  0
 26 27  2  0
 27 28  1  0
 29 28  1  0
 29 30  2  0
 31 30  1  0
 32 31  2  0
 33 34  2  0
 33 32  1  0
 34 29  1  0
 35 24  1  0
 36 35  1  0
 37 35  2  0
M  END
$$$$
