WNW.pdb
     RDKit          3D

 37 40  0  0  1  0  0  0  0  0999 V2000
   26.3473  -21.2905  -10.9736 N   0  0  0  0  0  0  0  0  0  0  0  0
   25.6887  -20.8095   -9.7561 C   0  0  1  0  0  0  0  0  0  0  0  0
   26.4984  -19.6716   -9.2598 C   0  0  0  0  0  0  0  0  0  0  0  0
   27.7828  -19.9777   -8.6479 C   0  0  0  0  0  0  0  0  0  0  0  0
   28.9315  -20.3777   -9.2892 C   0  0  0  0  0  0  0  0  0  0  0  0
   29.8954  -20.5719   -8.3542 N   0  0  0  0  0  0  0  0  0  0  0  0
   29.3525  -20.2953   -7.1389 C   0  0  0  0  0  0  0  0  0  0  0  0
   29.9363  -20.3402   -5.8857 C   0  0  0  0  0  0  0  0  0  0  0  0
   29.1349  -19.9946   -4.8100 C   0  0  0  0  0  0  0  0  0  0  0  0
   27.8256  -19.6229   -4.9526 C   0  0  0  0  0  0  0  0  0  0  0  0
   27.2452  -19.5770   -6.1891 C   0  0  0  0  0  0  0  0  0  0  0  0
   28.0308  -19.9209   -7.2915 C   0  0  0  0  0  0  0  0  0  0  0  0
   24.2783  -20.5147  -10.0905 C   0  0  0  0  0  0  0  0  0  0  0  0
   24.0348  -20.1566  -11.2658 O   0  0  0  0  0  0  0  0  0  0  0  0
   19.5674  -23.3142   -8.5658 N   0  0  0  0  0  0  0  0  0  0  0  0
   20.5957  -22.8830   -7.7210 C   0  0  0  0  0  0  0  0  0  0  0  0
   20.4652  -23.3089   -6.4907 O   0  0  0  0  0  0  0  0  0  0  0  0
   21.7616  -22.0664   -7.9513 C   0  0  0  0  0  0  0  0  0  0  0  0
   22.0327  -21.4865   -9.3035 C   0  0  2  0  0  0  0  0  0  0  0  0
   23.2339  -20.6211   -9.1619 N   0  0  0  0  0  0  0  0  0  0  0  0
   20.9504  -20.6899   -9.8772 C   0  0  0  0  0  0  0  0  0  0  0  0
   19.8096  -21.2740  -10.0340 O   0  0  0  0  0  0  0  0  0  0  0  0
   20.9784  -19.3411  -10.2799 N   0  0  0  0  0  0  0  0  0  0  0  0
   20.6298  -18.9260  -11.6377 C   0  0  1  0  0  0  0  0  0  0  0  0
   21.8976  -18.7118  -12.4441 C   0  0  0  0  0  0  0  0  0  0  0  0
   21.6947  -18.4284  -13.8566 C   0  0  0  0  0  0  0  0  0  0  0  0
   21.1752  -17.2082  -14.3141 C   0  0  0  0  0  0  0  0  0  0  0  0
   21.1353  -17.2203  -15.6543 N   0  0  0  0  0  0  0  0  0  0  0  0
   21.6062  -18.4006  -16.1260 C   0  0  0  0  0  0  0  0  0  0  0  0
   21.7458  -18.8681  -17.4145 C   0  0  0  0  0  0  0  0  0  0  0  0
   22.2491  -20.1307  -17.5962 C   0  0  0  0  0  0  0  0  0  0  0  0
   22.5970  -20.8878  -16.4904 C   0  0  0  0  0  0  0  0  0  0  0  0
   22.4463  -20.3934  -15.2122 C   0  0  0  0  0  0  0  0  0  0  0  0
   21.9474  -19.1366  -14.9977 C   0  0  0  0  0  0  0  0  0  0  0  0
   19.6170  -19.7627  -12.2378 C   0  0  0  0  0  0  0  0  0  0  0  0
   18.4670  -19.2291  -12.8413 O   0  0  0  0  0  0  0  0  0  0  0  0
   19.6675  -21.0341  -12.2742 O   0  0  0  0  0  0  0  0  0  0  0  0
  2  3  1  0
  2  1  1  6
  3  4  1  0
  4  5  2  0
  5  6  1  0
  7  6  1  0
  8  7  2  0
  9  8  1  0
 10 11  1  0
 10  9  2  0
 11 12  2  0
 12  4  1  0
 12  7  1  0
 13 14  2  0
 13  2  1  0
 16 15  1  0
 16 18  1  0
 17 16  2  0
 19 18  1  1
 19 20  1  0
 20 13  1  0
 21 19  1  0
 21 22  2  0
 23 21  1  0
 24 23  1  0
 24 25  1  6
 25 26  1  0
 26 34  1  0
 26 27  2  0
 27 28  1  0
 29 28  1  0
 29 30  2  0
 31 30  1  0
 32 31  2  0
 33 34  2  0
 33 32  1  0
 34 29  1  0
 35 24  1  0
 36 35  1  0
 37 35  2  0
M  END
$$$$
