WNW.pdb
     RDKit          3D

 37 40  0  0  1  0  0  0  0  0999 V2000
   22.5042  -22.1029  -17.3232 N   0  0  0  0  0  0  0  0  0  0  0  0
   23.1902  -20.9456  -16.7424 C   0  0  1  0  0  0  0  0  0  0  0  0
   22.3465  -20.4755  -15.6181 C   0  0  0  0  0  0  0  0  0  0  0  0
   21.0093  -19.9975  -15.9361 C   0  0  0  0  0  0  0  0  0  0  0  0
   19.8174  -20.6218  -15.6528 C   0  0  0  0  0  0  0  0  0  0  0  0
   18.8087  -19.8504  -16.1307 N   0  0  0  0  0  0  0  0  0  0  0  0
   19.3667  -18.7532  -16.7078 C   0  0  0  0  0  0  0  0  0  0  0  0
   18.7534  -17.6783  -17.3256 C   0  0  0  0  0  0  0  0  0  0  0  0
   19.5828  -16.6869  -17.8236 C   0  0  0  0  0  0  0  0  0  0  0  0
   20.9464  -16.7436  -17.7224 C   0  0  0  0  0  0  0  0  0  0  0  0
   21.5561  -17.8038  -17.1125 C   0  0  0  0  0  0  0  0  0  0  0  0
   20.7432  -18.8181  -16.6015 C   0  0  0  0  0  0  0  0  0  0  0  0
   24.5680  -21.3608  -16.3999 C   0  0  0  0  0  0  0  0  0  0  0  0
   24.7205  -22.5265  -15.9679 O   0  0  0  0  0  0  0  0  0  0  0  0
   28.6954  -22.3305  -18.3375 N   0  0  0  0  0  0  0  0  0  0  0  0
   28.7171  -20.9653  -18.0326 C   0  0  0  0  0  0  0  0  0  0  0  0
   29.5665  -20.2874  -18.7613 O   0  0  0  0  0  0  0  0  0  0  0  0
   27.9841  -20.1738  -17.0757 C   0  0  0  0  0  0  0  0  0  0  0  0
   27.0628  -20.8242  -16.0927 C   0  0  2  0  0  0  0  0  0  0  0  0
   25.6782  -20.5168  -16.5399 N   0  0  0  0  0  0  0  0  0  0  0  0
   27.2110  -20.3894  -14.7055 C   0  0  0  0  0  0  0  0  0  0  0  0
   27.2882  -19.1182  -14.4928 O   0  0  0  0  0  0  0  0  0  0  0  0
   27.2702  -21.1827  -13.5440 N   0  0  0  0  0  0  0  0  0  0  0  0
   27.4345  -20.6026  -12.2120 C   0  0  1  0  0  0  0  0  0  0  0  0
   26.4403  -19.4713  -12.0251 C   0  0  0  0  0  0  0  0  0  0  0  0
   25.1532  -19.8611  -11.4701 C   0  0  0  0  0  0  0  0  0  0  0  0
   24.9819  -20.1820  -10.1152 C   0  0  0  0  0  0  0  0  0  0  0  0
   23.6910  -20.4654   -9.8885 N   0  0  0  0  0  0  0  0  0  0  0  0
   22.9782  -20.3507  -11.0358 C   0  0  0  0  0  0  0  0  0  0  0  0
   21.6391  -20.5496  -11.2917 C   0  0  0  0  0  0  0  0  0  0  0  0
   21.1892  -20.3689  -12.5744 C   0  0  0  0  0  0  0  0  0  0  0  0
   22.0859  -19.9966  -13.5615 C   0  0  0  0  0  0  0  0  0  0  0  0
   23.4210  -19.8044  -13.2757 C   0  0  0  0  0  0  0  0  0  0  0  0
   23.9009  -19.9761  -12.0051 C   0  0  0  0  0  0  0  0  0  0  0  0
   27.4819  -21.5993  -11.1678 C   0  0  0  0  0  0  0  0  0  0  0  0
   28.0163  -21.3277   -9.8981 O   0  0  0  0  0  0  0  0  0  0  0  0
   27.0557  -22.7919  -11.2960 O   0  0  0  0  0  0  0  0  0  0  0  0
  2  3  1  0
  2  1  1  1
  3  4  1  0
  4  5  2  0
  5  6  1  0
  7  6  1  0
  8  7  2  0
  9  8  1  0
 10 11  1  0
 10  9  2  0
 11 12  2  0
 12  4  1  0
 12  7  1  0
 13 14  2  0
 13  2  1  0
 16 15  1  0
 16 18  1  0
 17 16  2  0
 19 18  1  6
 19 20  1  0
 20 13  1  0
 21 19  1  0
 21 22  2  0
 23 21  1  0
 24 23  1  0
 24 25  1  1
 25 26  1  0
 26 34  1  0
 26 27  2  0
 27 28  1  0
 29 28  1  0
 29 30  2  0
 31 30  1  0
 32 31  2  0
 33 34  2  0
 33 32  1  0
 34 29  1  0
 35 24  1  0
 36 35  1  0
 37 35  2  0
M  END
$$$$
