WNW.pdb
     RDKit          3D

 37 40  0  0  1  0  0  0  0  0999 V2000
   27.9168  -20.8175  -17.0432 N   0  0  0  0  0  0  0  0  0  0  0  0
   27.2585  -21.4833  -15.9160 C   0  0  1  0  0  0  0  0  0  0  0  0
   26.8188  -20.4115  -14.9914 C   0  0  0  0  0  0  0  0  0  0  0  0
   27.8518  -19.6615  -14.2929 C   0  0  0  0  0  0  0  0  0  0  0  0
   28.1121  -18.3154  -14.3978 C   0  0  0  0  0  0  0  0  0  0  0  0
   29.1635  -18.0211  -13.5922 N   0  0  0  0  0  0  0  0  0  0  0  0
   29.5565  -19.1745  -12.9894 C   0  0  0  0  0  0  0  0  0  0  0  0
   30.5770  -19.3865  -12.0801 C   0  0  0  0  0  0  0  0  0  0  0  0
   30.7464  -20.6826  -11.6216 C   0  0  0  0  0  0  0  0  0  0  0  0
   29.9560  -21.7215  -12.0322 C   0  0  0  0  0  0  0  0  0  0  0  0
   28.9465  -21.5162  -12.9302 C   0  0  0  0  0  0  0  0  0  0  0  0
   28.7536  -20.2184  -13.4092 C   0  0  0  0  0  0  0  0  0  0  0  0
   26.1959  -22.3549  -16.4628 C   0  0  0  0  0  0  0  0  0  0  0  0
   25.5780  -21.9367  -17.4689 O   0  0  0  0  0  0  0  0  0  0  0  0
   22.9303  -26.7951  -17.1619 N   0  0  0  0  0  0  0  0  0  0  0  0
   24.0374  -26.8084  -16.3068 C   0  0  0  0  0  0  0  0  0  0  0  0
   24.4121  -28.0151  -15.9668 O   0  0  0  0  0  0  0  0  0  0  0  0
   24.8355  -25.7510  -15.7374 C   0  0  0  0  0  0  0  0  0  0  0  0
   24.5817  -24.3222  -16.1013 C   0  0  2  0  0  0  0  0  0  0  0  0
   25.8672  -23.5997  -15.9086 N   0  0  0  0  0  0  0  0  0  0  0  0
   23.5469  -23.6466  -15.3215 C   0  0  0  0  0  0  0  0  0  0  0  0
   23.9392  -22.7707  -14.4578 O   0  0  0  0  0  0  0  0  0  0  0  0
   22.1510  -23.8148  -15.3930 N   0  0  0  0  0  0  0  0  0  0  0  0
   21.2302  -23.0504  -14.5532 C   0  0  1  0  0  0  0  0  0  0  0  0
   21.8331  -22.8711  -13.1720 C   0  0  0  0  0  0  0  0  0  0  0  0
   22.6312  -21.6678  -12.9942 C   0  0  0  0  0  0  0  0  0  0  0  0
   22.1808  -20.3989  -13.3881 C   0  0  0  0  0  0  0  0  0  0  0  0
   23.1068  -19.4831  -13.0688 N   0  0  0  0  0  0  0  0  0  0  0  0
   24.1691  -20.0793  -12.4743 C   0  0  0  0  0  0  0  0  0  0  0  0
   25.3468  -19.5531  -11.9901 C   0  0  0  0  0  0  0  0  0  0  0  0
   26.2642  -20.4116  -11.4407 C   0  0  0  0  0  0  0  0  0  0  0  0
   25.9808  -21.7659  -11.3910 C   0  0  0  0  0  0  0  0  0  0  0  0
   24.7932  -22.2641  -11.8835 C   0  0  0  0  0  0  0  0  0  0  0  0
   23.8568  -21.4329  -12.4373 C   0  0  0  0  0  0  0  0  0  0  0  0
   20.7373  -21.8578  -15.2019 C   0  0  0  0  0  0  0  0  0  0  0  0
   21.2864  -21.3775  -16.4015 O   0  0  0  0  0  0  0  0  0  0  0  0
   19.7818  -21.1436  -14.7577 O   0  0  0  0  0  0  0  0  0  0  0  0
  2  3  1  0
  2  1  1  6
  3  4  1  0
  4  5  2  0
  5  6  1  0
  7  6  1  0
  8  7  2  0
  9  8  1  0
 10 11  1  0
 10  9  2  0
 11 12  2  0
 12  4  1  0
 12  7  1  0
 13 14  2  0
 13  2  1  0
 16 15  1  0
 16 18  1  0
 17 16  2  0
 19 18  1  1
 19 20  1  0
 20 13  1  0
 21 19  1  0
 21 22  2  0
 23 21  1  0
 24 23  1  0
 24 25  1  1
 25 26  1  0
 26 34  1  0
 26 27  2  0
 27 28  1  0
 29 28  1  0
 29 30  2  0
 31 30  1  0
 32 31  2  0
 33 34  2  0
 33 32  1  0
 34 29  1  0
 35 24  1  0
 36 35  1  0
 37 35  2  0
M  END
$$$$
