WNW.pdb
     RDKit          3D

 37 40  0  0  1  0  0  0  0  0999 V2000
   24.2659  -16.5134  -18.3904 N   0  0  0  0  0  0  0  0  0  0  0  0
   24.5369  -17.6530  -17.5099 C   0  0  1  0  0  0  0  0  0  0  0  0
   25.0679  -17.0919  -16.2450 C   0  0  0  0  0  0  0  0  0  0  0  0
   26.3976  -16.5017  -16.2781 C   0  0  0  0  0  0  0  0  0  0  0  0
   26.7209  -15.1777  -16.0958 C   0  0  0  0  0  0  0  0  0  0  0  0
   28.0658  -15.0470  -16.2191 N   0  0  0  0  0  0  0  0  0  0  0  0
   28.5779  -16.2798  -16.4763 C   0  0  0  0  0  0  0  0  0  0  0  0
   29.8929  -16.6607  -16.6735 C   0  0  0  0  0  0  0  0  0  0  0  0
   30.1251  -18.0051  -16.9128 C   0  0  0  0  0  0  0  0  0  0  0  0
   29.1200  -18.9327  -16.9571 C   0  0  0  0  0  0  0  0  0  0  0  0
   27.8195  -18.5605  -16.7624 C   0  0  0  0  0  0  0  0  0  0  0  0
   27.5569  -17.2104  -16.5193 C   0  0  0  0  0  0  0  0  0  0  0  0
   23.2947  -18.4490  -17.4042 C   0  0  0  0  0  0  0  0  0  0  0  0
   22.2146  -17.8161  -17.3640 O   0  0  0  0  0  0  0  0  0  0  0  0
   20.2179  -23.3310  -18.7219 N   0  0  0  0  0  0  0  0  0  0  0  0
   21.2904  -22.9939  -17.8894 C   0  0  0  0  0  0  0  0  0  0  0  0
   21.4316  -23.8081  -16.8749 O   0  0  0  0  0  0  0  0  0  0  0  0
   22.2605  -21.9282  -17.9413 C   0  0  0  0  0  0  0  0  0  0  0  0
   22.0916  -20.7004  -17.1035 C   0  0  2  0  0  0  0  0  0  0  0  0
   23.2861  -19.8496  -17.3504 N   0  0  0  0  0  0  0  0  0  0  0  0
   21.9726  -20.9291  -15.6652 C   0  0  0  0  0  0  0  0  0  0  0  0
   23.0447  -21.2748  -15.0341 O   0  0  0  0  0  0  0  0  0  0  0  0
   20.8278  -20.8102  -14.8544 N   0  0  0  0  0  0  0  0  0  0  0  0
   20.8204  -21.2225  -13.4516 C   0  0  1  0  0  0  0  0  0  0  0  0
   21.3045  -20.0759  -12.5832 C   0  0  0  0  0  0  0  0  0  0  0  0
   20.4902  -18.8713  -12.6344 C   0  0  0  0  0  0  0  0  0  0  0  0
   19.2612  -18.7627  -11.9668 C   0  0  0  0  0  0  0  0  0  0  0  0
   18.7588  -17.5352  -12.1640 N   0  0  0  0  0  0  0  0  0  0  0  0
   19.5971  -16.8055  -12.9399 C   0  0  0  0  0  0  0  0  0  0  0  0
   19.5000  -15.5136  -13.4089 C   0  0  0  0  0  0  0  0  0  0  0  0
   20.5119  -15.0320  -14.1993 C   0  0  0  0  0  0  0  0  0  0  0  0
   21.5875  -15.8509  -14.4981 C   0  0  0  0  0  0  0  0  0  0  0  0
   21.6576  -17.1401  -14.0142 C   0  0  0  0  0  0  0  0  0  0  0  0
   20.6641  -17.6499  -13.2221 C   0  0  0  0  0  0  0  0  0  0  0  0
   19.5813  -21.8515  -13.0582 C   0  0  0  0  0  0  0  0  0  0  0  0
   19.5189  -22.7995  -12.0243 O   0  0  0  0  0  0  0  0  0  0  0  0
   18.4540  -21.6141  -13.5995 O   0  0  0  0  0  0  0  0  0  0  0  0
  2  3  1  0
  2  1  1  6
  3  4  1  0
  4  5  2  0
  5  6  1  0
  7  6  1  0
  8  7  2  0
  9  8  1  0
 10 11  1  0
 10  9  2  0
 11 12  2  0
 12  4  1  0
 12  7  1  0
 13 14  2  0
 13  2  1  0
 16 15  1  0
 16 18  1  0
 17 16  2  0
 19 18  1  6
 19 20  1  0
 20 13  1  0
 21 19  1  0
 21 22  2  0
 23 21  1  0
 24 23  1  0
 24 25  1  1
 25 26  1  0
 26 34  1  0
 26 27  2  0
 27 28  1  0
 29 28  1  0
 29 30  2  0
 31 30  1  0
 32 31  2  0
 33 34  2  0
 33 32  1  0
 34 29  1  0
 35 24  1  0
 36 35  1  0
 37 35  2  0
M  END
$$$$
