WNW.pdb
     RDKit          3D

 37 40  0  0  1  0  0  0  0  0999 V2000
   28.0866  -22.4768  -14.0145 N   0  0  0  0  0  0  0  0  0  0  0  0
   28.6175  -21.3569  -13.2326 C   0  0  1  0  0  0  0  0  0  0  0  0
   29.7342  -20.7840  -14.0209 C   0  0  0  0  0  0  0  0  0  0  0  0
   30.8452  -21.6644  -14.3498 C   0  0  0  0  0  0  0  0  0  0  0  0
   31.2061  -22.1114  -15.5990 C   0  0  0  0  0  0  0  0  0  0  0  0
   32.2863  -22.9216  -15.4656 N   0  0  0  0  0  0  0  0  0  0  0  0
   32.5971  -22.9799  -14.1434 C   0  0  0  0  0  0  0  0  0  0  0  0
   33.6169  -23.6676  -13.5107 C   0  0  0  0  0  0  0  0  0  0  0  0
   33.6994  -23.5359  -12.1342 C   0  0  0  0  0  0  0  0  0  0  0  0
   32.8269  -22.7687  -11.4111 C   0  0  0  0  0  0  0  0  0  0  0  0
   31.8182  -22.0874  -12.0326 C   0  0  0  0  0  0  0  0  0  0  0  0
   31.7118  -22.2028  -13.4204 C   0  0  0  0  0  0  0  0  0  0  0  0
   27.4939  -20.4447  -12.9275 C   0  0  0  0  0  0  0  0  0  0  0  0
   27.7820  -19.2541  -12.6660 O   0  0  0  0  0  0  0  0  0  0  0  0
   24.5136  -18.4500  -15.1476 N   0  0  0  0  0  0  0  0  0  0  0  0
   23.7697  -19.5214  -14.6419 C   0  0  0  0  0  0  0  0  0  0  0  0
   22.7858  -19.8816  -15.4255 O   0  0  0  0  0  0  0  0  0  0  0  0
   23.8850  -20.2959  -13.4310 C   0  0  0  0  0  0  0  0  0  0  0  0
   24.9981  -20.0409  -12.4645 C   0  0  2  0  0  0  0  0  0  0  0  0
   26.1542  -20.8565  -12.9227 N   0  0  0  0  0  0  0  0  0  0  0  0
   24.7140  -20.3780  -11.0713 C   0  0  0  0  0  0  0  0  0  0  0  0
   23.6939  -19.8061  -10.5241 O   0  0  0  0  0  0  0  0  0  0  0  0
   25.4078  -21.2685  -10.2301 N   0  0  0  0  0  0  0  0  0  0  0  0
   24.9876  -21.5275   -8.8539 C   0  0  1  0  0  0  0  0  0  0  0  0
   26.2094  -21.6121   -7.9576 C   0  0  0  0  0  0  0  0  0  0  0  0
   26.5400  -20.3895   -7.2416 C   0  0  0  0  0  0  0  0  0  0  0  0
   26.1768  -19.1185   -7.7114 C   0  0  0  0  0  0  0  0  0  0  0  0
   26.5809  -18.1907   -6.8317 N   0  0  0  0  0  0  0  0  0  0  0  0
   27.2051  -18.7806   -5.7829 C   0  0  0  0  0  0  0  0  0  0  0  0
   27.7872  -18.2402   -4.6571 C   0  0  0  0  0  0  0  0  0  0  0  0
   28.3664  -19.0928   -3.7526 C   0  0  0  0  0  0  0  0  0  0  0  0
   28.3482  -20.4554   -3.9972 C   0  0  0  0  0  0  0  0  0  0  0  0
   27.7579  -20.9678   -5.1330 C   0  0  0  0  0  0  0  0  0  0  0  0
   27.1708  -20.1430   -6.0546 C   0  0  0  0  0  0  0  0  0  0  0  0
   23.9260  -20.6512   -8.4169 C   0  0  0  0  0  0  0  0  0  0  0  0
   23.3034  -20.7959   -7.1667 O   0  0  0  0  0  0  0  0  0  0  0  0
   23.4625  -19.6877   -9.1077 O   0  0  0  0  0  0  0  0  0  0  0  0
  2  3  1  0
  2  1  1  6
  3  4  1  0
  4  5  2  0
  5  6  1  0
  7  6  1  0
  8  7  2  0
  9  8  1  0
 10 11  1  0
 10  9  2  0
 11 12  2  0
 12  4  1  0
 12  7  1  0
 13 14  2  0
 13  2  1  0
 16 15  1  0
 16 18  1  0
 17 16  2  0
 19 18  1  6
 19 20  1  0
 20 13  1  0
 21 19  1  0
 21 22  2  0
 23 21  1  0
 24 23  1  0
 24 25  1  1
 25 26  1  0
 26 34  1  0
 26 27  2  0
 27 28  1  0
 29 28  1  0
 29 30  2  0
 31 30  1  0
 32 31  2  0
 33 34  2  0
 33 32  1  0
 34 29  1  0
 35 24  1  0
 36 35  1  0
 37 35  2  0
M  END
$$$$
