WNW.pdb
     RDKit          3D

 37 40  0  0  1  0  0  0  0  0999 V2000
   26.7937  -22.1944  -12.3989 N   0  0  0  0  0  0  0  0  0  0  0  0
   26.0310  -21.1608  -11.6937 C   0  0  1  0  0  0  0  0  0  0  0  0
   27.0072  -20.1257  -11.2785 C   0  0  0  0  0  0  0  0  0  0  0  0
   28.0978  -20.5412  -10.4093 C   0  0  0  0  0  0  0  0  0  0  0  0
   29.3405  -20.9862  -10.7947 C   0  0  0  0  0  0  0  0  0  0  0  0
   30.0513  -21.2837   -9.6779 N   0  0  0  0  0  0  0  0  0  0  0  0
   29.2584  -21.0266   -8.6039 C   0  0  0  0  0  0  0  0  0  0  0  0
   29.5345  -21.1647   -7.2556 C   0  0  0  0  0  0  0  0  0  0  0  0
   28.5262  -20.8158   -6.3722 C   0  0  0  0  0  0  0  0  0  0  0  0
   27.3066  -20.3540   -6.7870 C   0  0  0  0  0  0  0  0  0  0  0  0
   27.0301  -20.2158   -8.1182 C   0  0  0  0  0  0  0  0  0  0  0  0
   28.0293  -20.5608   -9.0311 C   0  0  0  0  0  0  0  0  0  0  0  0
   24.9407  -20.7135  -12.5875 C   0  0  0  0  0  0  0  0  0  0  0  0
   24.2773  -19.7161  -12.2214 O   0  0  0  0  0  0  0  0  0  0  0  0
   23.3268  -18.6923  -17.5737 N   0  0  0  0  0  0  0  0  0  0  0  0
   23.5677  -20.0019  -17.1450 C   0  0  0  0  0  0  0  0  0  0  0  0
   23.0238  -20.9062  -17.9185 O   0  0  0  0  0  0  0  0  0  0  0  0
   24.2976  -20.5356  -16.0217 C   0  0  0  0  0  0  0  0  0  0  0  0
   23.5871  -20.9208  -14.7627 C   0  0  2  0  0  0  0  0  0  0  0  0
   24.6343  -21.3503  -13.7980 N   0  0  0  0  0  0  0  0  0  0  0  0
   22.6071  -21.9966  -14.8949 C   0  0  0  0  0  0  0  0  0  0  0  0
   23.0586  -23.2062  -14.8993 O   0  0  0  0  0  0  0  0  0  0  0  0
   21.2076  -21.8930  -15.0086 N   0  0  0  0  0  0  0  0  0  0  0  0
   20.3057  -22.9206  -14.4906 C   0  0  1  0  0  0  0  0  0  0  0  0
   20.7270  -23.3031  -13.0836 C   0  0  0  0  0  0  0  0  0  0  0  0
   20.1113  -22.5266  -12.0184 C   0  0  0  0  0  0  0  0  0  0  0  0
   18.8895  -22.8876  -11.4312 C   0  0  0  0  0  0  0  0  0  0  0  0
   18.5908  -22.0124  -10.4601 N   0  0  0  0  0  0  0  0  0  0  0  0
   19.5607  -21.0703  -10.3647 C   0  0  0  0  0  0  0  0  0  0  0  0
   19.6824  -19.9795   -9.5319 C   0  0  0  0  0  0  0  0  0  0  0  0
   20.7857  -19.1769   -9.6700 C   0  0  0  0  0  0  0  0  0  0  0  0
   21.7322  -19.4849  -10.6324 C   0  0  0  0  0  0  0  0  0  0  0  0
   21.5838  -20.5837  -11.4519 C   0  0  0  0  0  0  0  0  0  0  0  0
   20.4941  -21.4047  -11.3383 C   0  0  0  0  0  0  0  0  0  0  0  0
   18.9123  -22.5916  -14.6800 C   0  0  0  0  0  0  0  0  0  0  0  0
   17.9075  -23.5723  -14.6960 O   0  0  0  0  0  0  0  0  0  0  0  0
   18.4720  -21.4092  -14.8490 O   0  0  0  0  0  0  0  0  0  0  0  0
  2  3  1  0
  2  1  1  6
  3  4  1  0
  4  5  2  0
  5  6  1  0
  7  6  1  0
  8  7  2  0
  9  8  1  0
 10 11  1  0
 10  9  2  0
 11 12  2  0
 12  4  1  0
 12  7  1  0
 13 14  2  0
 13  2  1  0
 16 15  1  0
 16 18  1  0
 17 16  2  0
 19 18  1  6
 19 20  1  0
 20 13  1  0
 21 19  1  0
 21 22  2  0
 23 21  1  0
 24 23  1  0
 24 25  1  1
 25 26  1  0
 26 34  1  0
 26 27  2  0
 27 28  1  0
 29 28  1  0
 29 30  2  0
 31 30  1  0
 32 31  2  0
 33 34  2  0
 33 32  1  0
 34 29  1  0
 35 24  1  0
 36 35  1  0
 37 35  2  0
M  END
$$$$
