WNW.pdb
     RDKit          3D

 37 40  0  0  1  0  0  0  0  0999 V2000
   22.0847  -18.1092  -16.5604 N   0  0  0  0  0  0  0  0  0  0  0  0
   23.3956  -18.7434  -16.3968 C   0  0  1  0  0  0  0  0  0  0  0  0
   23.7658  -18.5849  -14.9704 C   0  0  0  0  0  0  0  0  0  0  0  0
   25.0920  -18.0642  -14.6746 C   0  0  0  0  0  0  0  0  0  0  0  0
   25.4202  -16.7683  -14.3524 C   0  0  0  0  0  0  0  0  0  0  0  0
   26.7626  -16.7028  -14.1663 N   0  0  0  0  0  0  0  0  0  0  0  0
   27.2683  -17.9481  -14.3708 C   0  0  0  0  0  0  0  0  0  0  0  0
   28.5773  -18.3880  -14.2915 C   0  0  0  0  0  0  0  0  0  0  0  0
   28.8020  -19.7308  -14.5470 C   0  0  0  0  0  0  0  0  0  0  0  0
   27.7953  -20.6017  -14.8645 C   0  0  0  0  0  0  0  0  0  0  0  0
   26.5007  -20.1710  -14.9435 C   0  0  0  0  0  0  0  0  0  0  0  0
   26.2458  -18.8212  -14.6908 C   0  0  0  0  0  0  0  0  0  0  0  0
   23.2929  -20.1313  -16.8978 C   0  0  0  0  0  0  0  0  0  0  0  0
   22.1456  -20.6297  -16.9629 O   0  0  0  0  0  0  0  0  0  0  0  0
   27.1254  -20.9459  -20.0727 N   0  0  0  0  0  0  0  0  0  0  0  0
   25.9442  -21.5978  -19.7030 C   0  0  0  0  0  0  0  0  0  0  0  0
   24.9480  -21.3617  -20.5178 O   0  0  0  0  0  0  0  0  0  0  0  0
   25.6235  -22.4739  -18.6034 C   0  0  0  0  0  0  0  0  0  0  0  0
   24.3686  -22.2790  -17.8126 C   0  0  2  0  0  0  0  0  0  0  0  0
   24.4060  -20.8862  -17.2925 N   0  0  0  0  0  0  0  0  0  0  0  0
   24.1841  -23.1914  -16.6863 C   0  0  0  0  0  0  0  0  0  0  0  0
   25.2124  -23.8747  -16.3084 O   0  0  0  0  0  0  0  0  0  0  0  0
   23.0174  -23.4234  -15.9333 N   0  0  0  0  0  0  0  0  0  0  0  0
   23.0229  -24.2379  -14.7191 C   0  0  1  0  0  0  0  0  0  0  0  0
   24.2352  -23.8850  -13.8769 C   0  0  0  0  0  0  0  0  0  0  0  0
   24.0794  -22.7174  -13.0230 C   0  0  0  0  0  0  0  0  0  0  0  0
   22.8232  -22.1908  -12.6871 C   0  0  0  0  0  0  0  0  0  0  0  0
   22.9888  -21.1452  -11.8641 N   0  0  0  0  0  0  0  0  0  0  0  0
   24.3076  -20.9396  -11.6280 C   0  0  0  0  0  0  0  0  0  0  0  0
   24.9521  -19.9909  -10.8645 C   0  0  0  0  0  0  0  0  0  0  0  0
   26.3224  -20.0160  -10.8182 C   0  0  0  0  0  0  0  0  0  0  0  0
   27.0076  -20.9837  -11.5330 C   0  0  0  0  0  0  0  0  0  0  0  0
   26.3355  -21.9209  -12.2887 C   0  0  0  0  0  0  0  0  0  0  0  0
   24.9680  -21.9228  -12.3548 C   0  0  0  0  0  0  0  0  0  0  0  0
   21.7470  -24.2454  -14.0425 C   0  0  0  0  0  0  0  0  0  0  0  0
   21.4379  -25.1774  -13.0388 O   0  0  0  0  0  0  0  0  0  0  0  0
   20.8019  -23.4284  -14.2868 O   0  0  0  0  0  0  0  0  0  0  0  0
  2  3  1  0
  2  1  1  1
  3  4  1  0
  4  5  2  0
  5  6  1  0
  7  6  1  0
  8  7  2  0
  9  8  1  0
 10 11  1  0
 10  9  2  0
 11 12  2  0
 12  4  1  0
 12  7  1  0
 13 14  2  0
 13  2  1  0
 16 15  1  0
 16 18  1  0
 17 16  2  0
 19 18  1  1
 19 20  1  0
 20 13  1  0
 21 19  1  0
 21 22  2  0
 23 21  1  0
 24 23  1  0
 24 25  1  1
 25 26  1  0
 26 34  1  0
 26 27  2  0
 27 28  1  0
 29 28  1  0
 29 30  2  0
 31 30  1  0
 32 31  2  0
 33 34  2  0
 33 32  1  0
 34 29  1  0
 35 24  1  0
 36 35  1  0
 37 35  2  0
M  END
$$$$
