LMM.pdb
     RDKit          3D

 25 24  0  0  1  0  0  0  0  0999 V2000
    8.2463  -15.0021   17.4925 C   0  0  0  0  0  0  0  0  0  0  0  0
    7.5958  -14.1163   18.5016 C   0  0  2  0  0  0  0  0  0  0  0  0
    7.1608  -12.8389   17.8669 C   0  0  0  0  0  0  0  0  0  0  0  0
    8.4166  -13.9094   19.7494 C   0  0  0  0  0  0  0  0  0  0  0  0
    8.5208  -15.1569   20.5939 C   0  0  2  0  0  0  0  0  0  0  0  0
    7.3744  -16.0085   20.4470 N   0  0  0  0  0  0  0  0  0  0  0  0
    8.7230  -14.7097   21.9975 C   0  0  0  0  0  0  0  0  0  0  0  0
    9.7202  -13.9781   22.2379 O   0  0  0  0  0  0  0  0  0  0  0  0
    5.5031  -11.7179   26.1895 C   0  0  0  0  0  0  0  0  0  0  0  0
    7.0795  -12.5885   26.4768 S   0  0  0  0  0  0  0  0  0  0  0  0
    6.8112  -14.3797   26.6030 C   0  0  0  0  0  0  0  0  0  0  0  0
    6.7955  -14.9286   25.1969 C   0  0  0  0  0  0  0  0  0  0  0  0
    8.0001  -14.4399   24.3944 C   0  0  2  0  0  0  0  0  0  0  0  0
    7.8861  -15.0403   23.0792 N   0  0  0  0  0  0  0  0  0  0  0  0
    9.2674  -14.8373   25.0685 C   0  0  0  0  0  0  0  0  0  0  0  0
   10.0229  -13.9634   25.5812 O   0  0  0  0  0  0  0  0  0  0  0  0
   10.2530  -14.6828   30.5175 C   0  0  0  0  0  0  0  0  0  0  0  0
   11.3541  -14.1634   29.1795 S   0  0  0  0  0  0  0  0  0  0  0  0
   10.8236  -14.7108   27.5647 C   0  0  0  0  0  0  0  0  0  0  0  0
   10.8416  -16.1789   27.3319 C   0  0  0  0  0  0  0  0  0  0  0  0
   10.8900  -16.6043   25.8960 C   0  0  2  0  0  0  0  0  0  0  0  0
    9.6899  -16.1835   25.1724 N   0  0  0  0  0  0  0  0  0  0  0  0
   10.9946  -18.0709   25.7487 C   0  0  0  0  0  0  0  0  0  0  0  0
   12.1141  -18.7813   26.1682 O   0  0  0  0  0  0  0  0  0  0  0  0
   10.0730  -18.7569   25.2340 O   0  0  0  0  0  0  0  0  0  0  0  0
  2  1  1  6
  3  2  1  0
  4  2  1  0
  4  5  1  0
  5  6  1  1
  7  5  1  0
  7  8  2  0
  9 10  1  0
 11 10  1  0
 11 12  1  0
 13 12  1  1
 13 14  1  0
 14  7  1  0
 15 13  1  0
 16 15  2  0
 18 17  1  0
 19 18  1  0
 20 19  1  0
 21 20  1  1
 21 22  1  0
 22 15  1  0
 23 21  1  0
 24 23  1  0
 25 23  2  0
M  END
$$$$
