LMM.pdb
     RDKit          3D

 25 24  0  0  1  0  0  0  0  0999 V2000
    6.5820  -20.9872   22.0706 C   0  0  0  0  0  0  0  0  0  0  0  0
    8.0542  -20.7872   21.9339 C   0  0  2  0  0  0  0  0  0  0  0  0
    8.7927  -21.8070   22.7328 C   0  0  0  0  0  0  0  0  0  0  0  0
    8.5052  -19.3755   22.2117 C   0  0  0  0  0  0  0  0  0  0  0  0
    7.7339  -18.3485   21.4174 C   0  0  2  0  0  0  0  0  0  0  0  0
    7.8348  -18.5699   20.0025 N   0  0  0  0  0  0  0  0  0  0  0  0
    8.2501  -17.0147   21.8242 C   0  0  0  0  0  0  0  0  0  0  0  0
    9.3372  -16.6308   21.3158 O   0  0  0  0  0  0  0  0  0  0  0  0
    5.2769  -13.3135   26.2774 C   0  0  0  0  0  0  0  0  0  0  0  0
    6.1059  -12.0428   25.2656 S   0  0  0  0  0  0  0  0  0  0  0  0
    7.4842  -12.7644   24.3297 C   0  0  0  0  0  0  0  0  0  0  0  0
    7.0281  -14.1151   23.8339 C   0  0  0  0  0  0  0  0  0  0  0  0
    8.1550  -14.8547   23.1151 C   0  0  2  0  0  0  0  0  0  0  0  0
    7.6181  -16.1470   22.7338 N   0  0  0  0  0  0  0  0  0  0  0  0
    9.3360  -14.9966   24.0115 C   0  0  0  0  0  0  0  0  0  0  0  0
   10.0802  -14.0043   24.2542 O   0  0  0  0  0  0  0  0  0  0  0  0
   10.3940  -13.1840   28.8546 C   0  0  0  0  0  0  0  0  0  0  0  0
   10.7496  -14.8346   29.5039 S   0  0  0  0  0  0  0  0  0  0  0  0
   10.8619  -16.0906   28.2396 C   0  0  0  0  0  0  0  0  0  0  0  0
   10.0266  -15.8777   27.0285 C   0  0  0  0  0  0  0  0  0  0  0  0
   10.6364  -16.3284   25.7362 C   0  0  2  0  0  0  0  0  0  0  0  0
    9.6857  -16.2204   24.6292 N   0  0  0  0  0  0  0  0  0  0  0  0
   11.0849  -17.7355   25.7882 C   0  0  0  0  0  0  0  0  0  0  0  0
   12.3364  -18.0984   26.2742 O   0  0  0  0  0  0  0  0  0  0  0  0
   10.3556  -18.6829   25.3941 O   0  0  0  0  0  0  0  0  0  0  0  0
  2  1  1  1
  3  2  1  0
  4  2  1  0
  4  5  1  0
  5  6  1  6
  7  5  1  0
  7  8  2  0
  9 10  1  0
 11 10  1  0
 11 12  1  0
 13 12  1  1
 13 14  1  0
 14  7  1  0
 15 13  1  0
 16 15  2  0
 18 17  1  0
 19 18  1  0
 20 19  1  0
 21 20  1  1
 21 22  1  0
 22 15  1  0
 23 21  1  0
 24 23  1  0
 25 23  2  0
M  END
$$$$
