LMM.pdb
     RDKit          3D

 25 24  0  0  1  0  0  0  0  0999 V2000
    7.9783  -12.7224   17.4257 C   0  0  0  0  0  0  0  0  0  0  0  0
    8.2099  -14.0139   18.1360 C   0  0  2  0  0  0  0  0  0  0  0  0
    7.0822  -14.9558   17.8809 C   0  0  0  0  0  0  0  0  0  0  0  0
    8.5299  -13.8543   19.6008 C   0  0  0  0  0  0  0  0  0  0  0  0
    8.8203  -15.1703   20.2823 C   0  0  2  0  0  0  0  0  0  0  0  0
    7.7694  -16.1278   20.0824 N   0  0  0  0  0  0  0  0  0  0  0  0
    9.0504  -14.8678   21.7198 C   0  0  0  0  0  0  0  0  0  0  0  0
    9.9938  -14.0834   22.0064 O   0  0  0  0  0  0  0  0  0  0  0  0
    7.5349  -11.6003   26.8793 C   0  0  0  0  0  0  0  0  0  0  0  0
    6.3640  -12.9539   26.5290 S   0  0  0  0  0  0  0  0  0  0  0  0
    7.2483  -14.5186   26.2722 C   0  0  0  0  0  0  0  0  0  0  0  0
    7.1435  -14.8546   24.8044 C   0  0  0  0  0  0  0  0  0  0  0  0
    8.5231  -15.0431   24.1758 C   0  0  2  0  0  0  0  0  0  0  0  0
    8.2954  -15.3901   22.7862 N   0  0  0  0  0  0  0  0  0  0  0  0
    9.2759  -16.1118   24.8897 C   0  0  0  0  0  0  0  0  0  0  0  0
    8.6869  -17.1590   25.2819 O   0  0  0  0  0  0  0  0  0  0  0  0
    9.1387  -13.4014   29.2665 C   0  0  0  0  0  0  0  0  0  0  0  0
   10.7249  -14.2465   29.4731 S   0  0  0  0  0  0  0  0  0  0  0  0
   11.3781  -14.9209   27.9542 C   0  0  0  0  0  0  0  0  0  0  0  0
   10.9060  -16.2814   27.5850 C   0  0  0  0  0  0  0  0  0  0  0  0
   11.3280  -16.7659   26.2315 C   0  0  2  0  0  0  0  0  0  0  0  0
   10.6608  -16.0201   25.1639 N   0  0  0  0  0  0  0  0  0  0  0  0
   11.0148  -18.1951   26.0245 C   0  0  0  0  0  0  0  0  0  0  0  0
   10.1168  -18.6254   25.0538 O   0  0  0  0  0  0  0  0  0  0  0  0
   11.5460  -19.1015   26.7182 O   0  0  0  0  0  0  0  0  0  0  0  0
  2  1  1  1
  3  2  1  0
  4  2  1  0
  4  5  1  0
  5  6  1  1
  7  5  1  0
  7  8  2  0
  9 10  1  0
 11 10  1  0
 11 12  1  0
 13 12  1  1
 13 14  1  0
 14  7  1  0
 15 13  1  0
 16 15  2  0
 18 17  1  0
 19 18  1  0
 20 19  1  0
 21 20  1  1
 21 22  1  0
 22 15  1  0
 23 21  1  0
 24 23  1  0
 25 23  2  0
M  END
$$$$
