LMM.pdb
     RDKit          3D

 25 24  0  0  1  0  0  0  0  0999 V2000
    5.1406  -20.4951   23.3951 C   0  0  0  0  0  0  0  0  0  0  0  0
    6.5612  -20.9037   23.5976 C   0  0  2  0  0  0  0  0  0  0  0  0
    6.7635  -21.4061   24.9870 C   0  0  0  0  0  0  0  0  0  0  0  0
    7.5612  -19.8488   23.1967 C   0  0  0  0  0  0  0  0  0  0  0  0
    7.2643  -19.2460   21.8444 C   0  0  2  0  0  0  0  0  0  0  0  0
    7.4454  -20.1902   20.7783 N   0  0  0  0  0  0  0  0  0  0  0  0
    8.1405  -18.0528   21.7044 C   0  0  0  0  0  0  0  0  0  0  0  0
    9.3387  -18.2463   21.3661 O   0  0  0  0  0  0  0  0  0  0  0  0
    8.0694  -11.7730   19.8966 C   0  0  0  0  0  0  0  0  0  0  0  0
    7.8832  -13.2715   18.8741 S   0  0  0  0  0  0  0  0  0  0  0  0
    7.3160  -14.6712   19.8818 C   0  0  0  0  0  0  0  0  0  0  0  0
    7.7844  -14.4223   21.2950 C   0  0  0  0  0  0  0  0  0  0  0  0
    8.6278  -15.5848   21.8156 C   0  0  2  0  0  0  0  0  0  0  0  0
    7.7349  -16.7229   21.9206 N   0  0  0  0  0  0  0  0  0  0  0  0
    9.2294  -15.2389   23.1335 C   0  0  0  0  0  0  0  0  0  0  0  0
   10.1854  -14.4154   23.2062 O   0  0  0  0  0  0  0  0  0  0  0  0
    5.3287  -11.6258   26.0589 C   0  0  0  0  0  0  0  0  0  0  0  0
    6.1744  -13.0062   26.8664 S   0  0  0  0  0  0  0  0  0  0  0  0
    7.5314  -13.6685   25.9133 C   0  0  0  0  0  0  0  0  0  0  0  0
    8.2741  -14.7994   26.5291 C   0  0  0  0  0  0  0  0  0  0  0  0
    9.3181  -15.4344   25.6620 C   0  0  2  0  0  0  0  0  0  0  0  0
    8.7773  -15.7979   24.3520 N   0  0  0  0  0  0  0  0  0  0  0  0
    9.8710  -16.6670   26.2611 C   0  0  0  0  0  0  0  0  0  0  0  0
    9.7915  -17.9016   25.6259 O   0  0  0  0  0  0  0  0  0  0  0  0
   10.4449  -16.6645   27.3816 O   0  0  0  0  0  0  0  0  0  0  0  0
  2  1  1  1
  3  2  1  0
  4  2  1  0
  4  5  1  0
  5  6  1  6
  7  5  1  0
  7  8  2  0
  9 10  1  0
 11 10  1  0
 11 12  1  0
 13 12  1  1
 13 14  1  0
 14  7  1  0
 15 13  1  0
 16 15  2  0
 18 17  1  0
 19 18  1  0
 20 19  1  0
 21 20  1  1
 21 22  1  0
 22 15  1  0
 23 21  1  0
 24 23  1  0
 25 23  2  0
M  END
$$$$
