LMM.pdb
     RDKit          3D

 25 24  0  0  1  0  0  0  0  0999 V2000
    2.9342  -18.4351   21.0542 C   0  0  0  0  0  0  0  0  0  0  0  0
    3.7689  -19.2571   21.9780 C   0  0  2  0  0  0  0  0  0  0  0  0
    3.0707  -19.4415   23.2828 C   0  0  0  0  0  0  0  0  0  0  0  0
    5.1837  -18.7575   22.1277 C   0  0  0  0  0  0  0  0  0  0  0  0
    5.8667  -18.5303   20.8001 C   0  0  2  0  0  0  0  0  0  0  0  0
    6.0874  -19.7567   20.0871 N   0  0  0  0  0  0  0  0  0  0  0  0
    7.1309  -17.8018   21.0868 C   0  0  0  0  0  0  0  0  0  0  0  0
    8.1739  -18.4885   21.2545 O   0  0  0  0  0  0  0  0  0  0  0  0
    7.8624  -11.5490   20.1450 C   0  0  0  0  0  0  0  0  0  0  0  0
    7.9768  -12.7250   18.7559 S   0  0  0  0  0  0  0  0  0  0  0  0
    8.1833  -14.4226   19.3657 C   0  0  0  0  0  0  0  0  0  0  0  0
    8.3981  -14.3376   20.8574 C   0  0  0  0  0  0  0  0  0  0  0  0
    8.4997  -15.7263   21.4859 C   0  0  2  0  0  0  0  0  0  0  0  0
    7.2530  -16.4035   21.1853 N   0  0  0  0  0  0  0  0  0  0  0  0
    8.7209  -15.6153   22.9546 C   0  0  0  0  0  0  0  0  0  0  0  0
    9.7742  -15.0827   23.4064 O   0  0  0  0  0  0  0  0  0  0  0  0
    6.7544  -11.5381   27.6953 C   0  0  0  0  0  0  0  0  0  0  0  0
    6.0180  -12.5127   26.3609 S   0  0  0  0  0  0  0  0  0  0  0  0
    7.1593  -13.6531   25.5956 C   0  0  0  0  0  0  0  0  0  0  0  0
    7.0371  -15.0767   26.0059 C   0  0  0  0  0  0  0  0  0  0  0  0
    7.9999  -16.0214   25.3535 C   0  0  2  0  0  0  0  0  0  0  0  0
    7.7878  -16.0878   23.9073 N   0  0  0  0  0  0  0  0  0  0  0  0
    7.8748  -17.3985   25.8749 C   0  0  0  0  0  0  0  0  0  0  0  0
    8.4441  -17.7900   27.0818 O   0  0  0  0  0  0  0  0  0  0  0  0
    7.2445  -18.2926   25.2521 O   0  0  0  0  0  0  0  0  0  0  0  0
  2  1  1  6
  3  2  1  0
  4  2  1  0
  4  5  1  0
  5  6  1  1
  7  5  1  0
  7  8  2  0
  9 10  1  0
 11 10  1  0
 11 12  1  0
 13 12  1  1
 13 14  1  0
 14  7  1  0
 15 13  1  0
 16 15  2  0
 18 17  1  0
 19 18  1  0
 20 19  1  0
 21 20  1  1
 21 22  1  0
 22 15  1  0
 23 21  1  0
 24 23  1  0
 25 23  2  0
M  END
$$$$
