LMM.pdb
     RDKit          3D

 25 24  0  0  1  0  0  0  0  0999 V2000
    4.4612  -20.4987   21.0213 C   0  0  0  0  0  0  0  0  0  0  0  0
    3.9364  -19.2164   21.5747 C   0  0  2  0  0  0  0  0  0  0  0  0
    2.4754  -19.0932   21.3025 C   0  0  0  0  0  0  0  0  0  0  0  0
    4.7234  -18.0025   21.1499 C   0  0  0  0  0  0  0  0  0  0  0  0
    6.1910  -18.1092   21.4895 C   0  0  2  0  0  0  0  0  0  0  0  0
    6.4531  -19.1529   22.4398 N   0  0  0  0  0  0  0  0  0  0  0  0
    6.6166  -16.7715   21.9799 C   0  0  0  0  0  0  0  0  0  0  0  0
    5.9768  -15.7683   21.5653 O   0  0  0  0  0  0  0  0  0  0  0  0
    6.6451  -11.3273   26.7049 C   0  0  0  0  0  0  0  0  0  0  0  0
    6.1371  -12.8736   25.8822 S   0  0  0  0  0  0  0  0  0  0  0  0
    7.1264  -13.1616   24.3874 C   0  0  0  0  0  0  0  0  0  0  0  0
    6.8434  -14.5720   23.9300 C   0  0  0  0  0  0  0  0  0  0  0  0
    8.0827  -15.2169   23.3120 C   0  0  2  0  0  0  0  0  0  0  0  0
    7.6796  -16.5387   22.8719 N   0  0  0  0  0  0  0  0  0  0  0  0
    9.1841  -15.2862   24.3122 C   0  0  0  0  0  0  0  0  0  0  0  0
    9.5976  -14.2382   24.8850 O   0  0  0  0  0  0  0  0  0  0  0  0
   10.9590  -13.3638   29.4290 C   0  0  0  0  0  0  0  0  0  0  0  0
    9.4983  -14.1117   28.6676 S   0  0  0  0  0  0  0  0  0  0  0  0
    9.8070  -14.7900   27.0448 C   0  0  0  0  0  0  0  0  0  0  0  0
   10.4513  -16.1292   27.0061 C   0  0  0  0  0  0  0  0  0  0  0  0
   10.8982  -16.5916   25.6528 C   0  0  2  0  0  0  0  0  0  0  0  0
    9.8168  -16.4995   24.6715 N   0  0  0  0  0  0  0  0  0  0  0  0
   11.3571  -17.9963   25.6634 C   0  0  0  0  0  0  0  0  0  0  0  0
   10.7003  -18.9972   24.9557 O   0  0  0  0  0  0  0  0  0  0  0  0
   12.3698  -18.3621   26.3155 O   0  0  0  0  0  0  0  0  0  0  0  0
  2  1  1  6
  3  2  1  0
  4  2  1  0
  4  5  1  0
  5  6  1  1
  7  5  1  0
  7  8  2  0
  9 10  1  0
 11 10  1  0
 11 12  1  0
 13 12  1  1
 13 14  1  0
 14  7  1  0
 15 13  1  0
 16 15  2  0
 18 17  1  0
 19 18  1  0
 20 19  1  0
 21 20  1  1
 21 22  1  0
 22 15  1  0
 23 21  1  0
 24 23  1  0
 25 23  2  0
M  END
$$$$
