LMM.pdb
     RDKit          3D

 25 24  0  0  1  0  0  0  0  0999 V2000
    6.5791  -22.5666   20.2204 C   0  0  0  0  0  0  0  0  0  0  0  0
    6.3098  -21.4673   21.1925 C   0  0  2  0  0  0  0  0  0  0  0  0
    4.9097  -20.9757   21.0450 C   0  0  0  0  0  0  0  0  0  0  0  0
    7.3336  -20.3609   21.1595 C   0  0  0  0  0  0  0  0  0  0  0  0
    7.4647  -19.6462   22.4833 C   0  0  2  0  0  0  0  0  0  0  0  0
    6.1876  -19.3226   23.0536 N   0  0  0  0  0  0  0  0  0  0  0  0
    8.3023  -18.4419   22.2401 C   0  0  0  0  0  0  0  0  0  0  0  0
    9.3582  -18.5924   21.5694 O   0  0  0  0  0  0  0  0  0  0  0  0
    8.0362  -11.9512   19.6391 C   0  0  0  0  0  0  0  0  0  0  0  0
    7.0058  -12.8321   20.8590 S   0  0  0  0  0  0  0  0  0  0  0  0
    7.5189  -14.5679   21.0002 C   0  0  0  0  0  0  0  0  0  0  0  0
    7.9962  -14.7782   22.4167 C   0  0  0  0  0  0  0  0  0  0  0  0
    8.8922  -16.0107   22.5258 C   0  0  2  0  0  0  0  0  0  0  0  0
    8.0068  -17.1458   22.7013 N   0  0  0  0  0  0  0  0  0  0  0  0
    9.8319  -15.8681   23.6726 C   0  0  0  0  0  0  0  0  0  0  0  0
   10.5306  -14.8231   23.8036 O   0  0  0  0  0  0  0  0  0  0  0  0
    9.8492  -13.3624   29.4832 C   0  0  0  0  0  0  0  0  0  0  0  0
    8.9050  -13.5899   27.9569 S   0  0  0  0  0  0  0  0  0  0  0  0
    9.7923  -14.4899   26.6955 C   0  0  0  0  0  0  0  0  0  0  0  0
    9.9592  -15.9490   26.9264 C   0  0  0  0  0  0  0  0  0  0  0  0
   10.7593  -16.6790   25.8911 C   0  0  2  0  0  0  0  0  0  0  0  0
    9.9937  -16.8694   24.6589 N   0  0  0  0  0  0  0  0  0  0  0  0
   11.1829  -18.0180   26.3509 C   0  0  0  0  0  0  0  0  0  0  0  0
   12.3507  -18.2179   27.0792 O   0  0  0  0  0  0  0  0  0  0  0  0
   10.5070  -19.0516   26.1069 O   0  0  0  0  0  0  0  0  0  0  0  0
  2  1  1  6
  3  2  1  0
  4  2  1  0
  4  5  1  0
  5  6  1  6
  7  5  1  0
  7  8  2  0
  9 10  1  0
 11 10  1  0
 11 12  1  0
 13 12  1  1
 13 14  1  0
 14  7  1  0
 15 13  1  0
 16 15  2  0
 18 17  1  0
 19 18  1  0
 20 19  1  0
 21 20  1  1
 21 22  1  0
 22 15  1  0
 23 21  1  0
 24 23  1  0
 25 23  2  0
M  END
$$$$
