LMM.pdb
     RDKit          3D

 25 24  0  0  1  0  0  0  0  0999 V2000
    2.4919  -18.6942   21.4582 C   0  0  0  0  0  0  0  0  0  0  0  0
    3.3850  -19.3088   22.4831 C   0  0  2  0  0  0  0  0  0  0  0  0
    2.7493  -19.2449   23.8306 C   0  0  0  0  0  0  0  0  0  0  0  0
    4.7932  -18.7702   22.4654 C   0  0  0  0  0  0  0  0  0  0  0  0
    5.3865  -18.7311   21.0772 C   0  0  2  0  0  0  0  0  0  0  0  0
    5.6003  -20.0459   20.5418 N   0  0  0  0  0  0  0  0  0  0  0  0
    6.6432  -17.9416   21.1694 C   0  0  0  0  0  0  0  0  0  0  0  0
    7.7040  -18.5646   21.4413 O   0  0  0  0  0  0  0  0  0  0  0  0
    7.5969  -12.3668   18.1479 C   0  0  0  0  0  0  0  0  0  0  0  0
    8.5587  -12.0210   19.6582 S   0  0  0  0  0  0  0  0  0  0  0  0
    8.9463  -13.5600   20.5401 C   0  0  0  0  0  0  0  0  0  0  0  0
    7.7316  -14.4503   20.4386 C   0  0  0  0  0  0  0  0  0  0  0  0
    7.9810  -15.8098   21.0893 C   0  0  2  0  0  0  0  0  0  0  0  0
    6.7396  -16.5511   20.9763 N   0  0  0  0  0  0  0  0  0  0  0  0
    8.3865  -15.6366   22.5120 C   0  0  0  0  0  0  0  0  0  0  0  0
    9.4838  -15.0813   22.8035 O   0  0  0  0  0  0  0  0  0  0  0  0
    6.9569  -11.2717   26.6549 C   0  0  0  0  0  0  0  0  0  0  0  0
    6.1667  -12.7400   27.3568 S   0  0  0  0  0  0  0  0  0  0  0  0
    6.9513  -14.2710   26.8782 C   0  0  0  0  0  0  0  0  0  0  0  0
    6.8930  -14.6132   25.4327 C   0  0  0  0  0  0  0  0  0  0  0  0
    7.8295  -15.6945   24.9871 C   0  0  2  0  0  0  0  0  0  0  0  0
    7.5868  -16.0726   23.5946 N   0  0  0  0  0  0  0  0  0  0  0  0
    7.6971  -16.9215   25.8000 C   0  0  0  0  0  0  0  0  0  0  0  0
    8.3177  -17.0636   27.0364 O   0  0  0  0  0  0  0  0  0  0  0  0
    7.0135  -17.9060   25.4150 O   0  0  0  0  0  0  0  0  0  0  0  0
  2  1  1  6
  3  2  1  0
  4  2  1  0
  4  5  1  0
  5  6  1  1
  7  5  1  0
  7  8  2  0
  9 10  1  0
 11 10  1  0
 11 12  1  0
 13 12  1  1
 13 14  1  0
 14  7  1  0
 15 13  1  0
 16 15  2  0
 18 17  1  0
 19 18  1  0
 20 19  1  0
 21 20  1  1
 21 22  1  0
 22 15  1  0
 23 21  1  0
 24 23  1  0
 25 23  2  0
M  END
$$$$
