LMM.pdb
     RDKit          3D

 25 24  0  0  1  0  0  0  0  0999 V2000
    8.5827  -14.9703   17.0239 C   0  0  0  0  0  0  0  0  0  0  0  0
    7.6598  -14.1902   17.8989 C   0  0  2  0  0  0  0  0  0  0  0  0
    7.2344  -12.9349   17.2157 C   0  0  0  0  0  0  0  0  0  0  0  0
    8.1917  -13.9574   19.2905 C   0  0  0  0  0  0  0  0  0  0  0  0
    8.5832  -15.2381   19.9884 C   0  0  2  0  0  0  0  0  0  0  0  0
    7.5353  -16.2186   19.9500 N   0  0  0  0  0  0  0  0  0  0  0  0
    8.9693  -14.8700   21.3763 C   0  0  0  0  0  0  0  0  0  0  0  0
    9.9415  -14.0817   21.5210 O   0  0  0  0  0  0  0  0  0  0  0  0
    7.3135  -11.5911   26.4003 C   0  0  0  0  0  0  0  0  0  0  0  0
    6.4691  -13.2074   26.3764 S   0  0  0  0  0  0  0  0  0  0  0  0
    6.4803  -13.9141   24.7041 C   0  0  0  0  0  0  0  0  0  0  0  0
    7.4093  -15.1035   24.7286 C   0  0  0  0  0  0  0  0  0  0  0  0
    8.6517  -14.8581   23.8743 C   0  0  2  0  0  0  0  0  0  0  0  0
    8.3324  -15.3341   22.5420 N   0  0  0  0  0  0  0  0  0  0  0  0
    9.8237  -15.5781   24.4455 C   0  0  0  0  0  0  0  0  0  0  0  0
   10.9959  -15.1420   24.2635 O   0  0  0  0  0  0  0  0  0  0  0  0
    9.9774  -13.6477   29.5825 C   0  0  0  0  0  0  0  0  0  0  0  0
   10.6617  -15.2369   30.1103 S   0  0  0  0  0  0  0  0  0  0  0  0
   10.9920  -16.3565   28.7590 C   0  0  0  0  0  0  0  0  0  0  0  0
   10.2153  -16.1262   27.5126 C   0  0  0  0  0  0  0  0  0  0  0  0
   10.5143  -17.0643   26.3831 C   0  0  2  0  0  0  0  0  0  0  0  0
    9.6972  -16.7637   25.2071 N   0  0  0  0  0  0  0  0  0  0  0  0
   10.2571  -18.4745   26.7421 C   0  0  0  0  0  0  0  0  0  0  0  0
   11.2229  -19.2762   27.3408 O   0  0  0  0  0  0  0  0  0  0  0  0
    9.1468  -19.0263   26.5243 O   0  0  0  0  0  0  0  0  0  0  0  0
  2  1  1  6
  3  2  1  0
  4  2  1  0
  4  5  1  0
  5  6  1  1
  7  5  1  0
  7  8  2  0
  9 10  1  0
 11 10  1  0
 11 12  1  0
 13 12  1  1
 13 14  1  0
 14  7  1  0
 15 13  1  0
 16 15  2  0
 18 17  1  0
 19 18  1  0
 20 19  1  0
 21 20  1  1
 21 22  1  0
 22 15  1  0
 23 21  1  0
 24 23  1  0
 25 23  2  0
M  END
$$$$
