LMM.pdb
     RDKit          3D

 25 24  0  0  1  0  0  0  0  0999 V2000
    5.5964  -22.0033   22.5811 C   0  0  0  0  0  0  0  0  0  0  0  0
    5.0758  -20.7393   21.9833 C   0  0  2  0  0  0  0  0  0  0  0  0
    4.1922  -21.0409   20.8205 C   0  0  0  0  0  0  0  0  0  0  0  0
    6.1488  -19.7285   21.6666 C   0  0  0  0  0  0  0  0  0  0  0  0
    7.0689  -19.4674   22.8352 C   0  0  2  0  0  0  0  0  0  0  0  0
    6.3697  -19.4788   24.0890 N   0  0  0  0  0  0  0  0  0  0  0  0
    7.7425  -18.1686   22.5696 C   0  0  0  0  0  0  0  0  0  0  0  0
    8.4527  -18.0820   21.5326 O   0  0  0  0  0  0  0  0  0  0  0  0
    6.1840  -12.1711   26.6406 C   0  0  0  0  0  0  0  0  0  0  0  0
    6.3090  -12.7567   24.9180 S   0  0  0  0  0  0  0  0  0  0  0  0
    7.4149  -14.1922   24.8054 C   0  0  0  0  0  0  0  0  0  0  0  0
    7.3991  -14.6559   23.3691 C   0  0  0  0  0  0  0  0  0  0  0  0
    8.3836  -15.8019   23.1425 C   0  0  2  0  0  0  0  0  0  0  0  0
    7.6480  -17.0275   23.3874 N   0  0  0  0  0  0  0  0  0  0  0  0
    9.5499  -15.6719   24.0597 C   0  0  0  0  0  0  0  0  0  0  0  0
   10.3078  -14.6626   23.9949 O   0  0  0  0  0  0  0  0  0  0  0  0
   10.0545  -13.1533   29.6880 C   0  0  0  0  0  0  0  0  0  0  0  0
    9.3853  -14.7657   29.2134 S   0  0  0  0  0  0  0  0  0  0  0  0
    9.7228  -15.2076   27.5165 C   0  0  0  0  0  0  0  0  0  0  0  0
   10.7070  -16.3020   27.3077 C   0  0  0  0  0  0  0  0  0  0  0  0
   11.0621  -16.5872   25.8804 C   0  0  2  0  0  0  0  0  0  0  0  0
    9.8702  -16.6466   25.0338 N   0  0  0  0  0  0  0  0  0  0  0  0
   11.7701  -17.8750   25.7251 C   0  0  0  0  0  0  0  0  0  0  0  0
   13.0682  -18.0688   26.1849 O   0  0  0  0  0  0  0  0  0  0  0  0
   11.2340  -18.8677   25.1666 O   0  0  0  0  0  0  0  0  0  0  0  0
  2  1  1  6
  3  2  1  0
  4  2  1  0
  4  5  1  0
  5  6  1  1
  7  5  1  0
  7  8  2  0
  9 10  1  0
 11 10  1  0
 11 12  1  0
 13 12  1  1
 13 14  1  0
 14  7  1  0
 15 13  1  0
 16 15  2  0
 18 17  1  0
 19 18  1  0
 20 19  1  0
 21 20  1  1
 21 22  1  0
 22 15  1  0
 23 21  1  0
 24 23  1  0
 25 23  2  0
M  END
$$$$
