LMM.pdb
     RDKit          3D

 25 24  0  0  1  0  0  0  0  0999 V2000
    8.7525  -14.6401   17.1756 C   0  0  0  0  0  0  0  0  0  0  0  0
    7.8460  -13.9176   18.1149 C   0  0  2  0  0  0  0  0  0  0  0  0
    7.4251  -12.6125   17.5290 C   0  0  0  0  0  0  0  0  0  0  0  0
    8.3944  -13.7907   19.5137 C   0  0  0  0  0  0  0  0  0  0  0  0
    8.7666  -15.1234   20.1187 C   0  0  2  0  0  0  0  0  0  0  0  0
    7.7228  -16.0975   19.9683 N   0  0  0  0  0  0  0  0  0  0  0  0
    9.1074  -14.8680   21.5433 C   0  0  0  0  0  0  0  0  0  0  0  0
   10.0616  -14.0806   21.7820 O   0  0  0  0  0  0  0  0  0  0  0  0
    6.5710  -11.8664   27.7846 C   0  0  0  0  0  0  0  0  0  0  0  0
    6.2785  -12.7581   26.2209 S   0  0  0  0  0  0  0  0  0  0  0  0
    7.4903  -14.0928   26.0053 C   0  0  0  0  0  0  0  0  0  0  0  0
    7.3485  -14.5999   24.5907 C   0  0  0  0  0  0  0  0  0  0  0  0
    8.6940  -15.0456   24.0209 C   0  0  2  0  0  0  0  0  0  0  0  0
    8.4463  -15.4381   22.6468 N   0  0  0  0  0  0  0  0  0  0  0  0
    9.2470  -16.1741   24.8204 C   0  0  0  0  0  0  0  0  0  0  0  0
    9.0510  -17.3703   24.4629 O   0  0  0  0  0  0  0  0  0  0  0  0
    9.5107  -13.7618   29.4094 C   0  0  0  0  0  0  0  0  0  0  0  0
   11.2436  -14.2619   29.5495 S   0  0  0  0  0  0  0  0  0  0  0  0
   11.7634  -15.4011   28.2765 C   0  0  0  0  0  0  0  0  0  0  0  0
   10.9652  -16.6486   28.1477 C   0  0  0  0  0  0  0  0  0  0  0  0
   10.6395  -17.0648   26.7457 C   0  0  2  0  0  0  0  0  0  0  0  0
   10.0057  -15.9782   25.9983 N   0  0  0  0  0  0  0  0  0  0  0  0
    9.7164  -18.2179   26.7030 C   0  0  0  0  0  0  0  0  0  0  0  0
   10.1645  -19.5212   26.5168 O   0  0  0  0  0  0  0  0  0  0  0  0
    8.4718  -18.0810   26.8332 O   0  0  0  0  0  0  0  0  0  0  0  0
  2  1  1  6
  3  2  1  0
  4  2  1  0
  4  5  1  0
  5  6  1  1
  7  5  1  0
  7  8  2  0
  9 10  1  0
 11 10  1  0
 11 12  1  0
 13 12  1  1
 13 14  1  0
 14  7  1  0
 15 13  1  0
 16 15  2  0
 18 17  1  0
 19 18  1  0
 20 19  1  0
 21 20  1  1
 21 22  1  0
 22 15  1  0
 23 21  1  0
 24 23  1  0
 25 23  2  0
M  END
$$$$
