LMM.pdb
     RDKit          3D

 25 24  0  0  1  0  0  0  0  0999 V2000
    8.1838  -15.4205   17.9029 C   0  0  0  0  0  0  0  0  0  0  0  0
    7.5143  -14.3900   18.7490 C   0  0  2  0  0  0  0  0  0  0  0  0
    7.1599  -13.1959   17.9290 C   0  0  0  0  0  0  0  0  0  0  0  0
    8.2760  -14.0435   20.0033 C   0  0  0  0  0  0  0  0  0  0  0  0
    8.4687  -15.2305   20.9167 C   0  0  2  0  0  0  0  0  0  0  0  0
    7.2427  -15.9404   21.1493 N   0  0  0  0  0  0  0  0  0  0  0  0
    9.0747  -14.7126   22.1719 C   0  0  0  0  0  0  0  0  0  0  0  0
   10.2029  -14.1580   22.0885 O   0  0  0  0  0  0  0  0  0  0  0  0
    6.4108  -11.2244   27.2116 C   0  0  0  0  0  0  0  0  0  0  0  0
    5.6249  -12.4677   26.1334 S   0  0  0  0  0  0  0  0  0  0  0  0
    6.7832  -13.0347   24.8554 C   0  0  0  0  0  0  0  0  0  0  0  0
    7.8378  -13.8650   25.5458 C   0  0  0  0  0  0  0  0  0  0  0  0
    9.0243  -14.1384   24.6231 C   0  0  2  0  0  0  0  0  0  0  0  0
    8.4852  -14.7937   23.4470 N   0  0  0  0  0  0  0  0  0  0  0  0
   10.0302  -14.9937   25.3124 C   0  0  0  0  0  0  0  0  0  0  0  0
   10.9645  -14.4711   25.9841 O   0  0  0  0  0  0  0  0  0  0  0  0
   10.9797  -13.7875   28.3105 C   0  0  0  0  0  0  0  0  0  0  0  0
   10.4851  -15.1838   29.3489 S   0  0  0  0  0  0  0  0  0  0  0  0
   10.9220  -16.7737   28.6634 C   0  0  0  0  0  0  0  0  0  0  0  0
   10.0687  -17.2636   27.5490 C   0  0  0  0  0  0  0  0  0  0  0  0
   10.7144  -17.2717   26.1970 C   0  0  2  0  0  0  0  0  0  0  0  0
    9.9998  -16.4071   25.2574 N   0  0  0  0  0  0  0  0  0  0  0  0
   10.7519  -18.6235   25.6014 C   0  0  0  0  0  0  0  0  0  0  0  0
   11.4675  -19.6684   26.1760 O   0  0  0  0  0  0  0  0  0  0  0  0
   10.1363  -18.9016   24.5391 O   0  0  0  0  0  0  0  0  0  0  0  0
  2  1  1  6
  3  2  1  0
  4  2  1  0
  4  5  1  0
  5  6  1  1
  7  5  1  0
  7  8  2  0
  9 10  1  0
 11 10  1  0
 11 12  1  0
 13 12  1  1
 13 14  1  0
 14  7  1  0
 15 13  1  0
 16 15  2  0
 18 17  1  0
 19 18  1  0
 20 19  1  0
 21 20  1  1
 21 22  1  0
 22 15  1  0
 23 21  1  0
 24 23  1  0
 25 23  2  0
M  END
$$$$
