QRP.pdb
     RDKit          3D

 28 28  0  0  1  0  0  0  0  0999 V2000
    7.6790  -14.8478   16.7579 N   0  0  0  0  0  0  0  0  0  0  0  0
    7.7319  -13.6524   17.5109 C   0  0  0  0  0  0  0  0  0  0  0  0
    7.0065  -12.6852   17.1931 O   0  0  0  0  0  0  0  0  0  0  0  0
    8.6325  -13.5416   18.6618 C   0  0  0  0  0  0  0  0  0  0  0  0
    9.3517  -14.8502   18.9294 C   0  0  0  0  0  0  0  0  0  0  0  0
    9.9018  -14.7857   20.3356 C   0  0  2  0  0  0  0  0  0  0  0  0
   10.8557  -15.8373   20.5110 N   0  0  0  0  0  0  0  0  0  0  0  0
    8.8456  -14.7685   21.3719 C   0  0  0  0  0  0  0  0  0  0  0  0
    8.0319  -13.8276   21.3524 O   0  0  0  0  0  0  0  0  0  0  0  0
    6.1121  -21.1078   25.8284 N   0  0  0  0  0  0  0  0  0  0  0  0
    6.3536  -20.3024   26.9715 C   0  0  0  0  0  0  0  0  0  0  0  0
    6.5343  -20.8273   28.1319 N   0  0  0  0  0  0  0  0  0  0  0  0
    6.3917  -18.8988   26.8027 N   0  0  0  0  0  0  0  0  0  0  0  0
    7.5470  -18.3234   26.1032 C   0  0  0  0  0  0  0  0  0  0  0  0
    7.0169  -17.1789   25.2833 C   0  0  0  0  0  0  0  0  0  0  0  0
    7.7215  -17.1541   23.9538 C   0  0  0  0  0  0  0  0  0  0  0  0
    7.8434  -15.6912   23.5173 C   0  0  2  0  0  0  0  0  0  0  0  0
    8.7435  -15.7644   22.3521 N   0  0  0  0  0  0  0  0  0  0  0  0
    8.6249  -15.0300   24.6051 C   0  0  0  0  0  0  0  0  0  0  0  0
    9.8172  -15.4374   24.7638 O   0  0  0  0  0  0  0  0  0  0  0  0
    6.7424  -20.2170   28.9543 N   0  0  0  0  0  0  0  0  0  0  0  0
    8.1033  -14.0006   25.4343 C   0  0  0  0  0  0  0  0  0  0  0  0
    6.7506  -13.4730   25.2417 C   0  0  0  0  0  0  0  0  0  0  0  0
    6.4810  -12.6528   26.4840 C   0  0  0  0  0  0  0  0  0  0  0  0
    7.8806  -12.0871   26.7368 C   0  0  2  0  0  0  0  0  0  0  0  0
    8.7153  -13.3498   26.5407 C   0  0  0  0  0  0  0  0  0  0  0  0
    8.5017  -14.1636   27.7769 O   0  0  0  0  0  0  0  0  0  0  0  0
    7.6888  -15.1156   27.7005 O   0  0  0  0  0  0  0  0  0  0  0  0
  2  1  1  0
  3  2  2  0
  4  2  1  0
  5  4  1  0
  6  5  1  0
  6  7  1  1
  8 18  1  0
  8  6  1  0
  9  8  2  0
 10 11  1  0
 11 12  2  0
 11 13  1  0
 13 14  1  0
 15 14  1  0
 17 16  1  1
 16 15  1  0
 17 18  1  0
 19 17  1  0
 20 19  2  0
 21 22  1  0
 21 19  1  0
 23 22  1  0
 24 25  1  0
 24 23  1  0
 25 21  1  0
 26 28  1  0
 25 26  1  1
 27 26  2  0
M  END
$$$$
