QRP.pdb
     RDKit          3D

 28 28  0  0  1  0  0  0  0  0999 V2000
   10.8840  -13.3920   20.0792 N   0  0  0  0  0  0  0  0  0  0  0  0
   10.4012  -12.9544   18.8245 C   0  0  0  0  0  0  0  0  0  0  0  0
   11.1854  -12.8599   17.8555 O   0  0  0  0  0  0  0  0  0  0  0  0
    8.9866  -12.6113   18.6542 C   0  0  0  0  0  0  0  0  0  0  0  0
    8.2082  -12.8198   19.9394 C   0  0  0  0  0  0  0  0  0  0  0  0
    7.8906  -14.2937   20.0431 C   0  0  2  0  0  0  0  0  0  0  0  0
    7.0751  -14.6736   18.9309 N   0  0  0  0  0  0  0  0  0  0  0  0
    7.3159  -14.6730   21.3528 C   0  0  0  0  0  0  0  0  0  0  0  0
    6.1587  -14.2939   21.6079 O   0  0  0  0  0  0  0  0  0  0  0  0
    5.5997  -20.0868   26.3347 N   0  0  0  0  0  0  0  0  0  0  0  0
    6.5780  -19.7594   27.3091 C   0  0  0  0  0  0  0  0  0  0  0  0
    6.3222  -19.8448   28.5669 N   0  0  0  0  0  0  0  0  0  0  0  0
    7.8502  -19.3346   26.8606 N   0  0  0  0  0  0  0  0  0  0  0  0
    8.0165  -19.0625   25.4277 C   0  0  0  0  0  0  0  0  0  0  0  0
    7.6035  -17.6311   25.2191 C   0  0  0  0  0  0  0  0  0  0  0  0
    7.8847  -17.2372   23.7941 C   0  0  0  0  0  0  0  0  0  0  0  0
    7.5363  -15.7536   23.6424 C   0  0  2  0  0  0  0  0  0  0  0  0
    8.0286  -15.4316   22.2907 N   0  0  0  0  0  0  0  0  0  0  0  0
    8.4446  -15.0468   24.5947 C   0  0  0  0  0  0  0  0  0  0  0  0
    9.6880  -15.2521   24.4379 O   0  0  0  0  0  0  0  0  0  0  0  0
    7.0560  -19.5933   29.2671 N   0  0  0  0  0  0  0  0  0  0  0  0
    7.9854  -14.1854   25.6273 C   0  0  0  0  0  0  0  0  0  0  0  0
    6.5566  -13.9875   25.8814 C   0  0  0  0  0  0  0  0  0  0  0  0
    6.5016  -13.2781   27.2164 C   0  0  0  0  0  0  0  0  0  0  0  0
    7.7529  -12.4037   27.1034 C   0  0  2  0  0  0  0  0  0  0  0  0
    8.7446  -13.4303   26.5631 C   0  0  0  0  0  0  0  0  0  0  0  0
    9.0974  -14.2953   27.7308 O   0  0  0  0  0  0  0  0  0  0  0  0
    8.5093  -15.3992   27.8220 O   0  0  0  0  0  0  0  0  0  0  0  0
  2  1  1  0
  3  2  2  0
  4  2  1  0
  5  4  1  0
  6  5  1  0
  6  7  1  6
  8 18  1  0
  8  6  1  0
  9  8  2  0
 10 11  1  0
 11 12  2  0
 11 13  1  0
 13 14  1  0
 15 14  1  0
 17 16  1  1
 16 15  1  0
 17 18  1  0
 19 17  1  0
 20 19  2  0
 21 22  1  0
 21 19  1  0
 23 22  1  0
 24 25  1  0
 24 23  1  0
 25 21  1  0
 26 28  1  0
 25 26  1  1
 27 26  2  0
M  END
$$$$
