QRP.pdb
     RDKit          3D

 28 28  0  0  1  0  0  0  0  0999 V2000
    7.4985  -15.3072   16.8332 N   0  0  0  0  0  0  0  0  0  0  0  0
    8.3944  -14.2194   16.7193 C   0  0  0  0  0  0  0  0  0  0  0  0
    9.0370  -14.0518   15.6602 O   0  0  0  0  0  0  0  0  0  0  0  0
    8.5733  -13.2876   17.8363 C   0  0  0  0  0  0  0  0  0  0  0  0
    7.7629  -13.7124   19.0463 C   0  0  0  0  0  0  0  0  0  0  0  0
    8.7028  -13.7561   20.2289 C   0  0  2  0  0  0  0  0  0  0  0  0
    9.7568  -14.6828   19.9519 N   0  0  0  0  0  0  0  0  0  0  0  0
    8.0111  -14.0155   21.5110 C   0  0  0  0  0  0  0  0  0  0  0  0
    7.2168  -13.1518   21.9245 O   0  0  0  0  0  0  0  0  0  0  0  0
    3.3172  -20.1867   22.9519 N   0  0  0  0  0  0  0  0  0  0  0  0
    3.1896  -19.1637   21.9767 C   0  0  0  0  0  0  0  0  0  0  0  0
    2.1132  -19.0313   21.2850 N   0  0  0  0  0  0  0  0  0  0  0  0
    4.2821  -18.2867   21.7830 N   0  0  0  0  0  0  0  0  0  0  0  0
    5.2281  -18.1144   22.8921 C   0  0  0  0  0  0  0  0  0  0  0  0
    6.3318  -17.2340   22.3726 C   0  0  0  0  0  0  0  0  0  0  0  0
    7.3269  -16.9856   23.4738 C   0  0  0  0  0  0  0  0  0  0  0  0
    7.5777  -15.4765   23.5448 C   0  0  2  0  0  0  0  0  0  0  0  0
    8.2252  -15.1845   22.2530 N   0  0  0  0  0  0  0  0  0  0  0  0
    8.6357  -15.3119   24.5864 C   0  0  0  0  0  0  0  0  0  0  0  0
    9.7436  -15.8875   24.3537 O   0  0  0  0  0  0  0  0  0  0  0  0
    2.0759  -18.3366   20.5052 N   0  0  0  0  0  0  0  0  0  0  0  0
    8.4547  -14.5623   25.7800 C   0  0  0  0  0  0  0  0  0  0  0  0
    7.2274  -13.8030   26.0293 C   0  0  0  0  0  0  0  0  0  0  0  0
    7.3026  -13.4267   27.4926 C   0  0  0  0  0  0  0  0  0  0  0  0
    8.8100  -13.1998   27.6306 C   0  0  1  0  0  0  0  0  0  0  0  0
    9.3311  -14.4297   26.8921 C   0  0  0  0  0  0  0  0  0  0  0  0
    9.1213  -15.5752   27.8300 O   0  0  0  0  0  0  0  0  0  0  0  0
    8.1166  -16.2992   27.6316 O   0  0  0  0  0  0  0  0  0  0  0  0
  2  1  1  0
  3  2  2  0
  4  2  1  0
  5  4  1  0
  6  5  1  0
  6  7  1  6
  8 18  1  0
  8  6  1  0
  9  8  2  0
 10 11  1  0
 11 12  2  0
 11 13  1  0
 13 14  1  0
 15 14  1  0
 17 16  1  6
 16 15  1  0
 17 18  1  0
 19 17  1  0
 20 19  2  0
 21 22  1  0
 21 19  1  0
 23 22  1  0
 24 25  1  0
 24 23  1  0
 25 21  1  0
 26 28  1  0
 25 26  1  1
 27 26  2  0
M  END
$$$$
