QRP.pdb
     RDKit          3D

 28 28  0  0  1  0  0  0  0  0999 V2000
   13.9216  -14.6743   18.1586 N   0  0  0  0  0  0  0  0  0  0  0  0
   13.7643  -16.0195   18.5643 C   0  0  0  0  0  0  0  0  0  0  0  0
   13.5749  -16.9091   17.7067 O   0  0  0  0  0  0  0  0  0  0  0  0
   13.8221  -16.3761   19.9847 C   0  0  0  0  0  0  0  0  0  0  0  0
   12.8552  -15.5425   20.8041 C   0  0  0  0  0  0  0  0  0  0  0  0
   12.2825  -16.4380   21.8785 C   0  0  2  0  0  0  0  0  0  0  0  0
   11.4202  -17.4032   21.2692 N   0  0  0  0  0  0  0  0  0  0  0  0
   11.6414  -15.6861   22.9799 C   0  0  0  0  0  0  0  0  0  0  0  0
   12.3571  -14.9211   23.6510 O   0  0  0  0  0  0  0  0  0  0  0  0
    7.7217  -11.9498   20.3082 N   0  0  0  0  0  0  0  0  0  0  0  0
    8.0981  -13.1957   19.7430 C   0  0  0  0  0  0  0  0  0  0  0  0
    8.4734  -13.2860   18.5159 N   0  0  0  0  0  0  0  0  0  0  0  0
    8.0509  -14.3438   20.5675 N   0  0  0  0  0  0  0  0  0  0  0  0
    8.0237  -14.1432   22.0215 C   0  0  0  0  0  0  0  0  0  0  0  0
    7.9071  -15.5120   22.6344 C   0  0  0  0  0  0  0  0  0  0  0  0
    8.1180  -15.4086   24.1208 C   0  0  0  0  0  0  0  0  0  0  0  0
    9.5950  -15.0836   24.3613 C   0  0  2  0  0  0  0  0  0  0  0  0
   10.2782  -15.8133   23.2778 N   0  0  0  0  0  0  0  0  0  0  0  0
    9.9437  -15.7968   25.6267 C   0  0  0  0  0  0  0  0  0  0  0  0
   10.1890  -17.0382   25.5192 O   0  0  0  0  0  0  0  0  0  0  0  0
    8.8020  -14.2026   18.1366 N   0  0  0  0  0  0  0  0  0  0  0  0
   10.0104  -15.1606   26.8955 C   0  0  0  0  0  0  0  0  0  0  0  0
    9.4430  -13.8284   27.1156 C   0  0  0  0  0  0  0  0  0  0  0  0
    9.4396  -13.6591   28.6189 C   0  0  0  0  0  0  0  0  0  0  0  0
   10.7311  -14.4010   28.9719 C   0  0  1  0  0  0  0  0  0  0  0  0
   10.5617  -15.6502   28.1116 C   0  0  0  0  0  0  0  0  0  0  0  0
    9.5427  -16.4852   28.8191 O   0  0  0  0  0  0  0  0  0  0  0  0
    8.3838  -16.4995   28.3400 O   0  0  0  0  0  0  0  0  0  0  0  0
  2  1  1  0
  3  2  2  0
  4  2  1  0
  5  4  1  0
  6  5  1  0
  6  7  1  6
  8 18  1  0
  8  6  1  0
  9  8  2  0
 10 11  1  0
 11 12  2  0
 11 13  1  0
 13 14  1  0
 15 14  1  0
 17 16  1  6
 16 15  1  0
 17 18  1  0
 19 17  1  0
 20 19  2  0
 21 22  1  0
 21 19  1  0
 23 22  1  0
 24 25  1  0
 24 23  1  0
 25 21  1  0
 26 28  1  0
 25 26  1  1
 27 26  2  0
M  END
$$$$
