QRP.pdb
     RDKit          3D

 28 28  0  0  1  0  0  0  0  0999 V2000
   15.6607  -14.4728   19.6229 N   0  0  0  0  0  0  0  0  0  0  0  0
   14.2764  -14.4933   19.3361 C   0  0  0  0  0  0  0  0  0  0  0  0
   13.8239  -13.7907   18.4064 O   0  0  0  0  0  0  0  0  0  0  0  0
   13.3697  -15.3339   20.1231 C   0  0  0  0  0  0  0  0  0  0  0  0
   14.1196  -16.1077   21.1908 C   0  0  0  0  0  0  0  0  0  0  0  0
   13.0943  -16.8468   22.0193 C   0  0  2  0  0  0  0  0  0  0  0  0
   12.2172  -17.5625   21.1447 N   0  0  0  0  0  0  0  0  0  0  0  0
   12.3852  -15.9730   22.9802 C   0  0  0  0  0  0  0  0  0  0  0  0
   13.0750  -15.2619   23.7328 O   0  0  0  0  0  0  0  0  0  0  0  0
    7.3623  -12.3270   20.9461 N   0  0  0  0  0  0  0  0  0  0  0  0
    7.5101  -13.3257   19.9489 C   0  0  0  0  0  0  0  0  0  0  0  0
    7.8809  -13.0265   18.7541 N   0  0  0  0  0  0  0  0  0  0  0  0
    7.2387  -14.6677   20.3034 N   0  0  0  0  0  0  0  0  0  0  0  0
    7.2424  -15.0143   21.7299 C   0  0  0  0  0  0  0  0  0  0  0  0
    8.6458  -14.7793   22.2178 C   0  0  0  0  0  0  0  0  0  0  0  0
    8.7817  -15.3216   23.6150 C   0  0  0  0  0  0  0  0  0  0  0  0
   10.2381  -15.1332   24.0494 C   0  0  2  0  0  0  0  0  0  0  0  0
   10.9871  -15.9293   23.0602 N   0  0  0  0  0  0  0  0  0  0  0  0
   10.3502  -15.8682   25.3450 C   0  0  0  0  0  0  0  0  0  0  0  0
   10.5549  -17.1188   25.2622 O   0  0  0  0  0  0  0  0  0  0  0  0
    8.0049  -13.7808   18.0416 N   0  0  0  0  0  0  0  0  0  0  0  0
   10.2424  -15.2425   26.6162 C   0  0  0  0  0  0  0  0  0  0  0  0
    9.6229  -13.9245   26.7716 C   0  0  0  0  0  0  0  0  0  0  0  0
    9.4263  -13.7692   28.2635 C   0  0  0  0  0  0  0  0  0  0  0  0
   10.6789  -14.4872   28.7718 C   0  0  1  0  0  0  0  0  0  0  0  0
   10.6466  -15.7318   27.8889 C   0  0  0  0  0  0  0  0  0  0  0  0
    9.5650  -16.5942   28.4566 O   0  0  0  0  0  0  0  0  0  0  0  0
    8.4788  -16.6341   27.8310 O   0  0  0  0  0  0  0  0  0  0  0  0
  2  1  1  0
  3  2  2  0
  4  2  1  0
  5  4  1  0
  6  5  1  0
  6  7  1  6
  8 18  1  0
  8  6  1  0
  9  8  2  0
 10 11  1  0
 11 12  2  0
 11 13  1  0
 13 14  1  0
 15 14  1  0
 17 16  1  6
 16 15  1  0
 17 18  1  0
 19 17  1  0
 20 19  2  0
 21 22  1  0
 21 19  1  0
 23 22  1  0
 24 25  1  0
 24 23  1  0
 25 21  1  0
 26 28  1  0
 25 26  1  1
 27 26  2  0
M  END
$$$$
