QRP.pdb
     RDKit          3D

 28 28  0  0  1  0  0  0  0  0999 V2000
   10.0140  -14.2184   18.3374 N   0  0  0  0  0  0  0  0  0  0  0  0
    8.8895  -13.5583   17.7908 C   0  0  0  0  0  0  0  0  0  0  0  0
    8.8617  -13.2843   16.5714 O   0  0  0  0  0  0  0  0  0  0  0  0
    7.7567  -13.1940   18.6463 C   0  0  0  0  0  0  0  0  0  0  0  0
    8.0420  -13.5037   20.1037 C   0  0  0  0  0  0  0  0  0  0  0  0
    7.5774  -14.9177   20.3660 C   0  0  2  0  0  0  0  0  0  0  0  0
    6.6931  -15.3196   19.3158 N   0  0  0  0  0  0  0  0  0  0  0  0
    7.0074  -15.0998   21.7193 C   0  0  0  0  0  0  0  0  0  0  0  0
    5.8142  -14.7916   21.8903 O   0  0  0  0  0  0  0  0  0  0  0  0
    6.3163  -21.6683   24.6812 N   0  0  0  0  0  0  0  0  0  0  0  0
    6.8173  -20.8508   25.7273 C   0  0  0  0  0  0  0  0  0  0  0  0
    6.7097  -21.2031   26.9598 N   0  0  0  0  0  0  0  0  0  0  0  0
    7.4428  -19.6311   25.3794 N   0  0  0  0  0  0  0  0  0  0  0  0
    7.7606  -18.6905   26.4607 C   0  0  0  0  0  0  0  0  0  0  0  0
    7.2734  -17.3424   26.0044 C   0  0  0  0  0  0  0  0  0  0  0  0
    7.6412  -17.1464   24.5583 C   0  0  0  0  0  0  0  0  0  0  0  0
    7.2681  -15.7122   24.1720 C   0  0  2  0  0  0  0  0  0  0  0  0
    7.7631  -15.5997   22.7879 N   0  0  0  0  0  0  0  0  0  0  0  0
    8.1581  -14.8471   25.0031 C   0  0  0  0  0  0  0  0  0  0  0  0
    9.4069  -15.0010   24.8307 O   0  0  0  0  0  0  0  0  0  0  0  0
    7.1043  -20.5954   27.7128 N   0  0  0  0  0  0  0  0  0  0  0  0
    7.6765  -13.8942   25.9409 C   0  0  0  0  0  0  0  0  0  0  0  0
    6.2503  -13.7812   26.2548 C   0  0  0  0  0  0  0  0  0  0  0  0
    6.1996  -12.9044   27.4866 C   0  0  0  0  0  0  0  0  0  0  0  0
    7.3605  -11.9541   27.1833 C   0  0  2  0  0  0  0  0  0  0  0  0
    8.4115  -12.9598   26.7213 C   0  0  0  0  0  0  0  0  0  0  0  0
    8.8984  -13.6270   27.9678 O   0  0  0  0  0  0  0  0  0  0  0  0
    9.6293  -12.9501   28.7297 O   0  0  0  0  0  0  0  0  0  0  0  0
  2  1  1  0
  3  2  2  0
  4  2  1  0
  5  4  1  0
  6  5  1  0
  6  7  1  6
  8 18  1  0
  8  6  1  0
  9  8  2  0
 10 11  1  0
 11 12  2  0
 11 13  1  0
 13 14  1  0
 15 14  1  0
 17 16  1  1
 16 15  1  0
 17 18  1  0
 19 17  1  0
 20 19  2  0
 21 22  1  0
 21 19  1  0
 23 22  1  0
 24 25  1  0
 24 23  1  0
 25 21  1  0
 26 28  1  0
 25 26  1  1
 27 26  2  0
M  END
$$$$
