QRP.pdb
     RDKit          3D

 28 28  0  0  1  0  0  0  0  0999 V2000
    6.6631  -17.2779   17.1971 N   0  0  0  0  0  0  0  0  0  0  0  0
    7.9359  -16.6701   17.0995 C   0  0  0  0  0  0  0  0  0  0  0  0
    8.8289  -17.2055   16.4077 O   0  0  0  0  0  0  0  0  0  0  0  0
    8.2134  -15.4158   17.8050 C   0  0  0  0  0  0  0  0  0  0  0  0
    6.9791  -14.8978   18.5188 C   0  0  0  0  0  0  0  0  0  0  0  0
    7.3702  -13.6260   19.2355 C   0  0  2  0  0  0  0  0  0  0  0  0
    7.9979  -12.7406   18.3035 N   0  0  0  0  0  0  0  0  0  0  0  0
    8.1762  -13.8697   20.4522 C   0  0  0  0  0  0  0  0  0  0  0  0
    9.4147  -13.8761   20.3337 O   0  0  0  0  0  0  0  0  0  0  0  0
    9.6890  -12.7076   28.3797 N   0  0  0  0  0  0  0  0  0  0  0  0
    9.5778  -14.1218   28.4174 C   0  0  0  0  0  0  0  0  0  0  0  0
   10.0556  -14.8032   29.3982 N   0  0  0  0  0  0  0  0  0  0  0  0
    8.9235  -14.7683   27.3431 N   0  0  0  0  0  0  0  0  0  0  0  0
    8.4152  -13.9337   26.2476 C   0  0  0  0  0  0  0  0  0  0  0  0
    7.7669  -14.8728   25.2673 C   0  0  0  0  0  0  0  0  0  0  0  0
    7.3443  -14.1003   24.0470 C   0  0  0  0  0  0  0  0  0  0  0  0
    8.3470  -14.4059   22.9305 C   0  0  2  0  0  0  0  0  0  0  0  0
    7.5902  -14.0886   21.7059 N   0  0  0  0  0  0  0  0  0  0  0  0
    8.5019  -15.8915   22.9500 C   0  0  0  0  0  0  0  0  0  0  0  0
    7.4433  -16.5665   22.7582 O   0  0  0  0  0  0  0  0  0  0  0  0
   10.0137  -15.8471   29.3780 N   0  0  0  0  0  0  0  0  0  0  0  0
    9.7425  -16.5504   23.1647 C   0  0  0  0  0  0  0  0  0  0  0  0
   10.9616  -15.8037   23.4831 C   0  0  0  0  0  0  0  0  0  0  0  0
   11.9475  -16.8585   23.9348 C   0  0  0  0  0  0  0  0  0  0  0  0
   11.5462  -18.0098   23.0094 C   0  0  2  0  0  0  0  0  0  0  0  0
   10.0278  -17.9435   23.1483 C   0  0  0  0  0  0  0  0  0  0  0  0
    9.7253  -18.5290   24.4906 O   0  0  0  0  0  0  0  0  0  0  0  0
    9.4727  -17.7259   25.4202 O   0  0  0  0  0  0  0  0  0  0  0  0
  2  1  1  0
  3  2  2  0
  4  2  1  0
  5  4  1  0
  6  5  1  0
  6  7  1  6
  8 18  1  0
  8  6  1  0
  9  8  2  0
 10 11  1  0
 11 12  2  0
 11 13  1  0
 13 14  1  0
 15 14  1  0
 17 16  1  1
 16 15  1  0
 17 18  1  0
 19 17  1  0
 20 19  2  0
 21 22  1  0
 21 19  1  0
 23 22  1  0
 24 25  1  0
 24 23  1  0
 25 21  1  0
 26 28  1  0
 25 26  1  1
 27 26  2  0
M  END
$$$$
