QRP.pdb
     RDKit          3D

 28 28  0  0  1  0  0  0  0  0999 V2000
   13.5102  -20.4329   21.3896 N   0  0  0  0  0  0  0  0  0  0  0  0
   13.1037  -19.9825   22.6666 C   0  0  0  0  0  0  0  0  0  0  0  0
   13.0828  -20.7798   23.6292 O   0  0  0  0  0  0  0  0  0  0  0  0
   12.7068  -18.5860   22.8674 C   0  0  0  0  0  0  0  0  0  0  0  0
   12.8478  -17.7816   21.5890 C   0  0  0  0  0  0  0  0  0  0  0  0
   11.5394  -17.0605   21.3606 C   0  0  2  0  0  0  0  0  0  0  0  0
   11.6463  -16.2661   20.1758 N   0  0  0  0  0  0  0  0  0  0  0  0
   11.0830  -16.2973   22.5433 C   0  0  0  0  0  0  0  0  0  0  0  0
   11.7557  -15.3094   22.8887 O   0  0  0  0  0  0  0  0  0  0  0  0
    5.3402  -11.5413   27.3703 N   0  0  0  0  0  0  0  0  0  0  0  0
    6.2423  -12.0649   26.4082 C   0  0  0  0  0  0  0  0  0  0  0  0
    6.8134  -11.3023   25.5439 N   0  0  0  0  0  0  0  0  0  0  0  0
    6.5006  -13.4553   26.4233 N   0  0  0  0  0  0  0  0  0  0  0  0
    7.0094  -14.0716   25.1919 C   0  0  0  0  0  0  0  0  0  0  0  0
    7.2309  -15.5256   25.5079 C   0  0  0  0  0  0  0  0  0  0  0  0
    7.8884  -16.1936   24.3306 C   0  0  0  0  0  0  0  0  0  0  0  0
    9.3835  -15.8661   24.3831 C   0  0  2  0  0  0  0  0  0  0  0  0
    9.9372  -16.6537   23.2666 N   0  0  0  0  0  0  0  0  0  0  0  0
    9.8752  -16.5168   25.6345 C   0  0  0  0  0  0  0  0  0  0  0  0
   10.1100  -17.7627   25.5617 O   0  0  0  0  0  0  0  0  0  0  0  0
    7.4597  -11.7121   24.8324 N   0  0  0  0  0  0  0  0  0  0  0  0
   10.0835  -15.8187   26.8546 C   0  0  0  0  0  0  0  0  0  0  0  0
    9.5133  -14.4892   27.0838 C   0  0  0  0  0  0  0  0  0  0  0  0
    9.6938  -14.2475   28.5662 C   0  0  0  0  0  0  0  0  0  0  0  0
   11.0384  -14.9450   28.7865 C   0  0  1  0  0  0  0  0  0  0  0  0
   10.7955  -16.2376   28.0122 C   0  0  0  0  0  0  0  0  0  0  0  0
    9.8955  -17.0579   28.8800 O   0  0  0  0  0  0  0  0  0  0  0  0
    8.6972  -17.1604   28.5244 O   0  0  0  0  0  0  0  0  0  0  0  0
  2  1  1  0
  3  2  2  0
  4  2  1  0
  5  4  1  0
  6  5  1  0
  6  7  1  6
  8 18  1  0
  8  6  1  0
  9  8  2  0
 10 11  1  0
 11 12  2  0
 11 13  1  0
 13 14  1  0
 15 14  1  0
 17 16  1  1
 16 15  1  0
 17 18  1  0
 19 17  1  0
 20 19  2  0
 21 22  1  0
 21 19  1  0
 23 22  1  0
 24 25  1  0
 24 23  1  0
 25 21  1  0
 26 28  1  0
 25 26  1  6
 27 26  2  0
M  END
$$$$
