QRP.pdb
     RDKit          3D

 28 28  0  0  1  0  0  0  0  0999 V2000
    7.4996  -14.2443   15.9903 N   0  0  0  0  0  0  0  0  0  0  0  0
    8.5798  -13.8241   16.8000 C   0  0  0  0  0  0  0  0  0  0  0  0
    9.7154  -14.3167   16.6257 O   0  0  0  0  0  0  0  0  0  0  0  0
    8.3748  -12.8144   17.8422 C   0  0  0  0  0  0  0  0  0  0  0  0
    7.5572  -13.3667   18.9945 C   0  0  0  0  0  0  0  0  0  0  0  0
    8.5169  -13.6938   20.1153 C   0  0  2  0  0  0  0  0  0  0  0  0
    9.3608  -14.7737   19.7054 N   0  0  0  0  0  0  0  0  0  0  0  0
    7.8389  -13.9331   21.4086 C   0  0  0  0  0  0  0  0  0  0  0  0
    7.1928  -12.9930   21.9054 O   0  0  0  0  0  0  0  0  0  0  0  0
    5.7784  -20.0999   27.1464 N   0  0  0  0  0  0  0  0  0  0  0  0
    7.0730  -19.6079   27.4554 C   0  0  0  0  0  0  0  0  0  0  0  0
    7.5543  -19.6960   28.6450 N   0  0  0  0  0  0  0  0  0  0  0  0
    7.8268  -19.0149   26.4161 N   0  0  0  0  0  0  0  0  0  0  0  0
    7.1611  -18.7928   25.1267 C   0  0  0  0  0  0  0  0  0  0  0  0
    7.0601  -17.3017   24.9550 C   0  0  0  0  0  0  0  0  0  0  0  0
    7.4214  -16.9407   23.5395 C   0  0  0  0  0  0  0  0  0  0  0  0
    7.3519  -15.4160   23.4143 C   0  0  2  0  0  0  0  0  0  0  0  0
    7.9065  -15.1656   22.0715 N   0  0  0  0  0  0  0  0  0  0  0  0
    8.3659  -14.9046   24.3846 C   0  0  0  0  0  0  0  0  0  0  0  0
    9.5441  -15.3602   24.2539 O   0  0  0  0  0  0  0  0  0  0  0  0
    8.5440  -19.4158   28.8298 N   0  0  0  0  0  0  0  0  0  0  0  0
    8.0715  -13.9624   25.4068 C   0  0  0  0  0  0  0  0  0  0  0  0
    6.7265  -13.4068   25.5726 C   0  0  0  0  0  0  0  0  0  0  0  0
    6.7622  -12.7174   26.9187 C   0  0  0  0  0  0  0  0  0  0  0  0
    8.1998  -12.1922   26.9092 C   0  0  2  0  0  0  0  0  0  0  0  0
    8.9317  -13.4345   26.4086 C   0  0  0  0  0  0  0  0  0  0  0  0
    8.9703  -14.3701   27.5745 O   0  0  0  0  0  0  0  0  0  0  0  0
    8.1296  -15.3005   27.5882 O   0  0  0  0  0  0  0  0  0  0  0  0
  2  1  1  0
  3  2  2  0
  4  2  1  0
  5  4  1  0
  6  5  1  0
  6  7  1  6
  8 18  1  0
  8  6  1  0
  9  8  2  0
 10 11  1  0
 11 12  2  0
 11 13  1  0
 13 14  1  0
 15 14  1  0
 17 16  1  1
 16 15  1  0
 17 18  1  0
 19 17  1  0
 20 19  2  0
 21 22  1  0
 21 19  1  0
 23 22  1  0
 24 25  1  0
 24 23  1  0
 25 21  1  0
 26 28  1  0
 25 26  1  1
 27 26  2  0
M  END
$$$$
