QRP.pdb
     RDKit          3D

 28 28  0  0  1  0  0  0  0  0999 V2000
   12.2245  -15.7936   19.2231 N   0  0  0  0  0  0  0  0  0  0  0  0
   12.1686  -14.4930   19.7746 C   0  0  0  0  0  0  0  0  0  0  0  0
   13.2271  -13.8978   20.0714 O   0  0  0  0  0  0  0  0  0  0  0  0
   10.8763  -13.8393   19.9999 C   0  0  0  0  0  0  0  0  0  0  0  0
    9.7258  -14.7161   19.5432 C   0  0  0  0  0  0  0  0  0  0  0  0
    8.4452  -13.9592   19.8104 C   0  0  2  0  0  0  0  0  0  0  0  0
    8.5993  -12.6101   19.3603 N   0  0  0  0  0  0  0  0  0  0  0  0
    7.9911  -14.0644   21.2147 C   0  0  0  0  0  0  0  0  0  0  0  0
    7.8227  -13.0071   21.8486 O   0  0  0  0  0  0  0  0  0  0  0  0
    7.1322  -19.6369   28.7354 N   0  0  0  0  0  0  0  0  0  0  0  0
    7.4725  -19.4519   27.3703 C   0  0  0  0  0  0  0  0  0  0  0  0
    8.6253  -19.7981   26.9167 N   0  0  0  0  0  0  0  0  0  0  0  0
    6.5062  -18.8741   26.5144 N   0  0  0  0  0  0  0  0  0  0  0  0
    6.8587  -18.7015   25.0998 C   0  0  0  0  0  0  0  0  0  0  0  0
    6.7841  -17.2247   24.8234 C   0  0  0  0  0  0  0  0  0  0  0  0
    7.1985  -16.9658   23.4000 C   0  0  0  0  0  0  0  0  0  0  0  0
    7.1360  -15.4541   23.1632 C   0  0  2  0  0  0  0  0  0  0  0  0
    7.7519  -15.2988   21.8329 N   0  0  0  0  0  0  0  0  0  0  0  0
    8.1049  -14.8723   24.1400 C   0  0  0  0  0  0  0  0  0  0  0  0
    9.3159  -15.2310   24.0073 O   0  0  0  0  0  0  0  0  0  0  0  0
    8.8557  -19.6497   25.9083 N   0  0  0  0  0  0  0  0  0  0  0  0
    7.7349  -13.9661   25.1702 C   0  0  0  0  0  0  0  0  0  0  0  0
    6.3536  -13.5046   25.3252 C   0  0  0  0  0  0  0  0  0  0  0  0
    6.3260  -12.8329   26.6805 C   0  0  0  0  0  0  0  0  0  0  0  0
    7.7250  -12.2121   26.6969 C   0  0  2  0  0  0  0  0  0  0  0  0
    8.5451  -13.3954   26.1901 C   0  0  0  0  0  0  0  0  0  0  0  0
    8.6323  -14.3422   27.3442 O   0  0  0  0  0  0  0  0  0  0  0  0
    9.4043  -14.0300   28.2820 O   0  0  0  0  0  0  0  0  0  0  0  0
  2  1  1  0
  3  2  2  0
  4  2  1  0
  5  4  1  0
  6  5  1  0
  6  7  1  1
  8 18  1  0
  8  6  1  0
  9  8  2  0
 10 11  1  0
 11 12  2  0
 11 13  1  0
 13 14  1  0
 15 14  1  0
 17 16  1  1
 16 15  1  0
 17 18  1  0
 19 17  1  0
 20 19  2  0
 21 22  1  0
 21 19  1  0
 23 22  1  0
 24 25  1  0
 24 23  1  0
 25 21  1  0
 26 28  1  0
 25 26  1  1
 27 26  2  0
M  END
$$$$
