EGN.pdb
     RDKit          3D

 22 21  0  0  1  0  0  0  0  0999 V2000
   15.3177  -13.4401  -15.4584 N   0  0  0  0  0  0  0  0  0  0  0  0
   16.6480  -13.0804  -14.9887 C   0  0  1  0  0  0  0  0  0  0  0  0
   17.4500  -14.3338  -14.9688 C   0  0  0  0  0  0  0  0  0  0  0  0
   16.7671  -15.5052  -14.3374 C   0  0  0  0  0  0  0  0  0  0  0  0
   17.7137  -16.6666  -14.2822 C   0  0  0  0  0  0  0  0  0  0  0  0
   18.8748  -16.5495  -14.7681 O   0  0  0  0  0  0  0  0  0  0  0  0
   17.2202  -11.9665  -15.7596 C   0  0  0  0  0  0  0  0  0  0  0  0
   17.1351  -11.8651  -17.0090 O   0  0  0  0  0  0  0  0  0  0  0  0
   17.2878  -17.8464  -13.6955 O   0  0  0  0  0  0  0  0  0  0  0  0
   17.9373  -10.8837  -15.1252 N   0  0  0  0  0  0  0  0  0  0  0  0
   18.4408   -9.7651  -15.8573 C   0  0  0  0  0  0  0  0  0  0  0  0
   18.9249   -8.6652  -15.0154 C   0  0  0  0  0  0  0  0  0  0  0  0
   18.7751   -8.6157  -13.7681 O   0  0  0  0  0  0  0  0  0  0  0  0
   21.2968   -4.3452  -13.2817 N   0  0  0  0  0  0  0  0  0  0  0  0
   22.0530   -5.4345  -13.7398 C   0  0  0  0  0  0  0  0  0  0  0  0
   23.2690   -5.4742  -13.3814 O   0  0  0  0  0  0  0  0  0  0  0  0
   21.5423   -6.5034  -14.5844 C   0  0  0  0  0  0  0  0  0  0  0  0
   20.0896   -6.4377  -14.9282 C   0  0  2  0  0  0  0  0  0  0  0  0
   19.6069   -7.5830  -15.6367 N   0  0  0  0  0  0  0  0  0  0  0  0
   19.8299   -5.1701  -15.6500 C   0  0  0  0  0  0  0  0  0  0  0  0
   19.6458   -3.9652  -15.0004 O   0  0  0  0  0  0  0  0  0  0  0  0
   19.7769   -5.2027  -16.9016 O   0  0  0  0  0  0  0  0  0  0  0  0
  2  1  1  6
  3  4  1  0
  3  2  1  0
  5  6  2  0
  5  4  1  0
  7  2  1  0
  7  8  2  0
  9  5  1  0
 10  7  1  0
 11 10  1  0
 11 12  1  0
 12 19  1  0
 13 12  2  0
 15 14  1  0
 16 15  2  0
 17 15  1  0
 18 20  1  0
 18 17  1  6
 19 18  1  0
 20 21  1  0
 22 20  2  0
M  END
$$$$
