EGN.pdb
     RDKit          3D

 22 21  0  0  1  0  0  0  0  0999 V2000
   16.7359  -14.1464  -16.0880 N   0  0  0  0  0  0  0  0  0  0  0  0
   16.8142  -12.7032  -16.2639 C   0  0  1  0  0  0  0  0  0  0  0  0
   15.6406  -12.1203  -15.5587 C   0  0  0  0  0  0  0  0  0  0  0  0
   14.3859  -12.9290  -15.6550 C   0  0  0  0  0  0  0  0  0  0  0  0
   13.3212  -12.3046  -14.8039 C   0  0  0  0  0  0  0  0  0  0  0  0
   13.5684  -11.2326  -14.1812 O   0  0  0  0  0  0  0  0  0  0  0  0
   18.1273  -12.1721  -15.8687 C   0  0  0  0  0  0  0  0  0  0  0  0
   19.0783  -12.8880  -15.4667 O   0  0  0  0  0  0  0  0  0  0  0  0
   12.0853  -12.9235  -14.7217 O   0  0  0  0  0  0  0  0  0  0  0  0
   18.4279  -10.7591  -15.9139 N   0  0  0  0  0  0  0  0  0  0  0  0
   19.6754  -10.2261  -15.4660 C   0  0  0  0  0  0  0  0  0  0  0  0
   19.7592   -8.7625  -15.5261 C   0  0  0  0  0  0  0  0  0  0  0  0
   18.9252   -8.0340  -16.1213 O   0  0  0  0  0  0  0  0  0  0  0  0
   21.3674   -3.8257  -14.4060 N   0  0  0  0  0  0  0  0  0  0  0  0
   21.9202   -4.7648  -13.5225 C   0  0  0  0  0  0  0  0  0  0  0  0
   22.6070   -4.3057  -12.5602 O   0  0  0  0  0  0  0  0  0  0  0  0
   21.7599   -6.2065  -13.6359 C   0  0  0  0  0  0  0  0  0  0  0  0
   21.0175   -6.6968  -14.8364 C   0  0  2  0  0  0  0  0  0  0  0  0
   20.8460   -8.1166  -14.8748 N   0  0  0  0  0  0  0  0  0  0  0  0
   21.6809   -6.1700  -16.0521 C   0  0  0  0  0  0  0  0  0  0  0  0
   21.1998   -5.0816  -16.7530 O   0  0  0  0  0  0  0  0  0  0  0  0
   22.7210   -6.7426  -16.4530 O   0  0  0  0  0  0  0  0  0  0  0  0
  2  1  1  1
  3  4  1  0
  3  2  1  0
  5  6  2  0
  5  4  1  0
  7  2  1  0
  7  8  2  0
  9  5  1  0
 10  7  1  0
 11 10  1  0
 11 12  1  0
 12 19  1  0
 13 12  2  0
 15 14  1  0
 16 15  2  0
 17 15  1  0
 18 20  1  0
 18 17  1  1
 19 18  1  0
 20 21  1  0
 22 20  2  0
M  END
$$$$
