EGN.pdb
     RDKit          3D

 22 21  0  0  1  0  0  0  0  0999 V2000
   24.4238  -21.4590  -12.2056 N   0  0  0  0  0  0  0  0  0  0  0  0
   24.5930  -20.7595  -13.4713 C   0  0  1  0  0  0  0  0  0  0  0  0
   25.3810  -21.6589  -14.3571 C   0  0  0  0  0  0  0  0  0  0  0  0
   25.6850  -21.0976  -15.7099 C   0  0  0  0  0  0  0  0  0  0  0  0
   26.4297  -22.1168  -16.5190 C   0  0  0  0  0  0  0  0  0  0  0  0
   26.7520  -21.8525  -17.7124 O   0  0  0  0  0  0  0  0  0  0  0  0
   23.3102  -20.2889  -14.0147 C   0  0  0  0  0  0  0  0  0  0  0  0
   23.1954  -19.6828  -15.1092 O   0  0  0  0  0  0  0  0  0  0  0  0
   26.7474  -23.3304  -15.9329 O   0  0  0  0  0  0  0  0  0  0  0  0
   22.0611  -20.4923  -13.3167 N   0  0  0  0  0  0  0  0  0  0  0  0
   20.8098  -20.5936  -13.9985 C   0  0  0  0  0  0  0  0  0  0  0  0
   19.8827  -21.5672  -13.4105 C   0  0  0  0  0  0  0  0  0  0  0  0
   18.7990  -21.9169  -13.9431 O   0  0  0  0  0  0  0  0  0  0  0  0
   19.3969  -24.9662   -8.3315 N   0  0  0  0  0  0  0  0  0  0  0  0
   18.8263  -24.0225   -9.1987 C   0  0  0  0  0  0  0  0  0  0  0  0
   17.5631  -24.0435   -9.3113 O   0  0  0  0  0  0  0  0  0  0  0  0
   19.5758  -23.0380   -9.9640 C   0  0  0  0  0  0  0  0  0  0  0  0
   19.3531  -23.0398  -11.4415 C   0  0  2  0  0  0  0  0  0  0  0  0
   20.2197  -22.1585  -12.1618 N   0  0  0  0  0  0  0  0  0  0  0  0
   17.9201  -22.7711  -11.7055 C   0  0  0  0  0  0  0  0  0  0  0  0
   17.3284  -21.5511  -11.4425 O   0  0  0  0  0  0  0  0  0  0  0  0
   17.2243  -23.6953  -12.1872 O   0  0  0  0  0  0  0  0  0  0  0  0
  2  1  1  1
  3  4  1  0
  3  2  1  0
  5  6  2  0
  5  4  1  0
  7  2  1  0
  7  8  2  0
  9  5  1  0
 10  7  1  0
 11 10  1  0
 11 12  1  0
 12 19  1  0
 13 12  2  0
 15 14  1  0
 16 15  2  0
 17 15  1  0
 18 20  1  0
 18 17  1  1
 19 18  1  0
 20 21  1  0
 22 20  2  0
M  END
$$$$
