EGN.pdb
     RDKit          3D

 22 21  0  0  1  0  0  0  0  0999 V2000
   16.0243  -10.1250  -14.1566 N   0  0  0  0  0  0  0  0  0  0  0  0
   17.0041  -10.3840  -15.2019 C   0  0  1  0  0  0  0  0  0  0  0  0
   16.2858  -11.0871  -16.2992 C   0  0  0  0  0  0  0  0  0  0  0  0
   15.8990  -12.4990  -15.9918 C   0  0  0  0  0  0  0  0  0  0  0  0
   17.1242  -13.3631  -15.9827 C   0  0  0  0  0  0  0  0  0  0  0  0
   17.2341  -14.2817  -15.1212 O   0  0  0  0  0  0  0  0  0  0  0  0
   17.7292   -9.1649  -15.5896 C   0  0  0  0  0  0  0  0  0  0  0  0
   18.8150   -9.1691  -16.2217 O   0  0  0  0  0  0  0  0  0  0  0  0
   18.1110  -13.1303  -16.9257 O   0  0  0  0  0  0  0  0  0  0  0  0
   17.2376   -7.8448  -15.2660 N   0  0  0  0  0  0  0  0  0  0  0  0
   17.9636   -6.6568  -15.5860 C   0  0  0  0  0  0  0  0  0  0  0  0
   18.9470   -6.2623  -14.5710 C   0  0  0  0  0  0  0  0  0  0  0  0
   18.9179   -6.6499  -13.3754 O   0  0  0  0  0  0  0  0  0  0  0  0
   21.2978   -7.9304  -13.9749 N   0  0  0  0  0  0  0  0  0  0  0  0
   22.3972   -7.1325  -14.3255 C   0  0  0  0  0  0  0  0  0  0  0  0
   23.4799   -7.7388  -14.5879 O   0  0  0  0  0  0  0  0  0  0  0  0
   22.3769   -5.6800  -14.4064 C   0  0  0  0  0  0  0  0  0  0  0  0
   21.0772   -5.0177  -14.0822 C   0  0  2  0  0  0  0  0  0  0  0  0
   20.0026   -5.3884  -14.9508 N   0  0  0  0  0  0  0  0  0  0  0  0
   21.2908   -3.5523  -14.0335 C   0  0  0  0  0  0  0  0  0  0  0  0
   22.0364   -2.9389  -13.0458 O   0  0  0  0  0  0  0  0  0  0  0  0
   20.7694   -2.8488  -14.9299 O   0  0  0  0  0  0  0  0  0  0  0  0
  2  1  1  1
  3  4  1  0
  3  2  1  0
  5  6  2  0
  5  4  1  0
  7  2  1  0
  7  8  2  0
  9  5  1  0
 10  7  1  0
 11 10  1  0
 11 12  1  0
 12 19  1  0
 13 12  2  0
 15 14  1  0
 16 15  2  0
 17 15  1  0
 18 20  1  0
 18 17  1  6
 19 18  1  0
 20 21  1  0
 22 20  2  0
M  END
$$$$
