EGN.pdb
     RDKit          3D

 22 21  0  0  1  0  0  0  0  0999 V2000
   18.7424  -13.4358  -15.6414 N   0  0  0  0  0  0  0  0  0  0  0  0
   17.3902  -13.1360  -16.0902 C   0  0  1  0  0  0  0  0  0  0  0  0
   16.4632  -13.7560  -15.1049 C   0  0  0  0  0  0  0  0  0  0  0  0
   16.4026  -15.2498  -15.1548 C   0  0  0  0  0  0  0  0  0  0  0  0
   15.3915  -15.7433  -14.1639 C   0  0  0  0  0  0  0  0  0  0  0  0
   14.1615  -15.5390  -14.3724 O   0  0  0  0  0  0  0  0  0  0  0  0
   17.1980  -11.6985  -16.3333 C   0  0  0  0  0  0  0  0  0  0  0  0
   16.3879  -11.2343  -17.1739 O   0  0  0  0  0  0  0  0  0  0  0  0
   15.8351  -16.4151  -13.0373 O   0  0  0  0  0  0  0  0  0  0  0  0
   17.9413  -10.6924  -15.6092 N   0  0  0  0  0  0  0  0  0  0  0  0
   17.7031   -9.2940  -15.7779 C   0  0  0  0  0  0  0  0  0  0  0  0
   18.5233   -8.4368  -14.9145 C   0  0  0  0  0  0  0  0  0  0  0  0
   18.7168   -8.6506  -13.6908 O   0  0  0  0  0  0  0  0  0  0  0  0
   23.3850   -4.9292  -14.8552 N   0  0  0  0  0  0  0  0  0  0  0  0
   22.3441   -5.6895  -14.3014 C   0  0  0  0  0  0  0  0  0  0  0  0
   22.1964   -5.6214  -13.0435 O   0  0  0  0  0  0  0  0  0  0  0  0
   21.4384   -6.5363  -15.0625 C   0  0  0  0  0  0  0  0  0  0  0  0
   19.9836   -6.3954  -14.7520 C   0  0  2  0  0  0  0  0  0  0  0  0
   19.1426   -7.2909  -15.4853 N   0  0  0  0  0  0  0  0  0  0  0  0
   19.5961   -4.9763  -14.9292 C   0  0  0  0  0  0  0  0  0  0  0  0
   19.5098   -4.0886  -13.8747 O   0  0  0  0  0  0  0  0  0  0  0  0
   19.3379   -4.5743  -16.0877 O   0  0  0  0  0  0  0  0  0  0  0  0
  2  1  1  1
  3  4  1  0
  3  2  1  0
  5  6  2  0
  5  4  1  0
  7  2  1  0
  7  8  2  0
  9  5  1  0
 10  7  1  0
 11 10  1  0
 11 12  1  0
 12 19  1  0
 13 12  2  0
 15 14  1  0
 16 15  2  0
 17 15  1  0
 18 20  1  0
 18 17  1  6
 19 18  1  0
 20 21  1  0
 22 20  2  0
M  END
$$$$
