EGN.pdb
     RDKit          3D

 22 21  0  0  1  0  0  0  0  0999 V2000
   20.3617  -14.0866  -16.2885 N   0  0  0  0  0  0  0  0  0  0  0  0
   20.0582  -13.6912  -17.6564 C   0  0  1  0  0  0  0  0  0  0  0  0
   18.5974  -13.8989  -17.8495 C   0  0  0  0  0  0  0  0  0  0  0  0
   18.0435  -15.1172  -17.1813 C   0  0  0  0  0  0  0  0  0  0  0  0
   17.4486  -14.7362  -15.8589 C   0  0  0  0  0  0  0  0  0  0  0  0
   17.5322  -13.5402  -15.4580 O   0  0  0  0  0  0  0  0  0  0  0  0
   20.5591  -12.3429  -17.9626 C   0  0  0  0  0  0  0  0  0  0  0  0
   20.9894  -11.9971  -19.0912 O   0  0  0  0  0  0  0  0  0  0  0  0
   16.8183  -15.7121  -15.1055 O   0  0  0  0  0  0  0  0  0  0  0  0
   20.5945  -11.2942  -16.9687 N   0  0  0  0  0  0  0  0  0  0  0  0
   21.0491   -9.9726  -17.2648 C   0  0  0  0  0  0  0  0  0  0  0  0
   20.9864   -9.0472  -16.1278 C   0  0  0  0  0  0  0  0  0  0  0  0
   20.4895   -9.3387  -15.0104 O   0  0  0  0  0  0  0  0  0  0  0  0
   21.9160   -4.6649  -13.2339 N   0  0  0  0  0  0  0  0  0  0  0  0
   22.6088   -4.6305  -14.4533 C   0  0  0  0  0  0  0  0  0  0  0  0
   23.4309   -3.6782  -14.6143 O   0  0  0  0  0  0  0  0  0  0  0  0
   22.4488   -5.5992  -15.5270 C   0  0  0  0  0  0  0  0  0  0  0  0
   21.5615   -6.7662  -15.2379 C   0  0  2  0  0  0  0  0  0  0  0  0
   21.5169   -7.7375  -16.2873 N   0  0  0  0  0  0  0  0  0  0  0  0
   20.2176   -6.2610  -14.8718 C   0  0  0  0  0  0  0  0  0  0  0  0
   19.8373   -6.0304  -13.5642 O   0  0  0  0  0  0  0  0  0  0  0  0
   19.3991   -6.0366  -15.7937 O   0  0  0  0  0  0  0  0  0  0  0  0
  2  1  1  1
  3  4  1  0
  3  2  1  0
  5  6  2  0
  5  4  1  0
  7  2  1  0
  7  8  2  0
  9  5  1  0
 10  7  1  0
 11 10  1  0
 11 12  1  0
 12 19  1  0
 13 12  2  0
 15 14  1  0
 16 15  2  0
 17 15  1  0
 18 20  1  0
 18 17  1  6
 19 18  1  0
 20 21  1  0
 22 20  2  0
M  END
$$$$
