EGN.pdb
     RDKit          3D

 22 21  0  0  1  0  0  0  0  0999 V2000
   20.9033  -13.3285  -16.3137 N   0  0  0  0  0  0  0  0  0  0  0  0
   19.8538  -13.0513  -17.2840 C   0  0  1  0  0  0  0  0  0  0  0  0
   18.6169  -13.7057  -16.7775 C   0  0  0  0  0  0  0  0  0  0  0  0
   18.1546  -13.2223  -15.4395 C   0  0  0  0  0  0  0  0  0  0  0  0
   16.8324  -13.8479  -15.1106 C   0  0  0  0  0  0  0  0  0  0  0  0
   15.7838  -13.1425  -15.1381 O   0  0  0  0  0  0  0  0  0  0  0  0
   19.7434  -11.6149  -17.5787 C   0  0  0  0  0  0  0  0  0  0  0  0
   19.0436  -11.1446  -18.5101 O   0  0  0  0  0  0  0  0  0  0  0  0
   16.7944  -15.1927  -14.7828 O   0  0  0  0  0  0  0  0  0  0  0  0
   20.4454  -10.6171  -16.8038 N   0  0  0  0  0  0  0  0  0  0  0  0
   20.2740   -9.2159  -17.0230 C   0  0  0  0  0  0  0  0  0  0  0  0
   21.0999   -8.3671  -16.1568 C   0  0  0  0  0  0  0  0  0  0  0  0
   21.8841   -8.8097  -15.2794 O   0  0  0  0  0  0  0  0  0  0  0  0
   23.3819   -3.9274  -14.2662 N   0  0  0  0  0  0  0  0  0  0  0  0
   22.6208   -3.6638  -15.4148 C   0  0  0  0  0  0  0  0  0  0  0  0
   22.7075   -2.4949  -15.8994 O   0  0  0  0  0  0  0  0  0  0  0  0
   21.7533   -4.6271  -16.0754 C   0  0  0  0  0  0  0  0  0  0  0  0
   21.8085   -6.0287  -15.5603 C   0  0  2  0  0  0  0  0  0  0  0  0
   21.0171   -6.9556  -16.3094 N   0  0  0  0  0  0  0  0  0  0  0  0
   21.4626   -6.0184  -14.1196 C   0  0  0  0  0  0  0  0  0  0  0  0
   20.3428   -6.6510  -13.6160 O   0  0  0  0  0  0  0  0  0  0  0  0
   22.2237   -5.4078  -13.3333 O   0  0  0  0  0  0  0  0  0  0  0  0
  2  1  1  1
  3  4  1  0
  3  2  1  0
  5  6  2  0
  5  4  1  0
  7  2  1  0
  7  8  2  0
  9  5  1  0
 10  7  1  0
 11 10  1  0
 11 12  1  0
 12 19  1  0
 13 12  2  0
 15 14  1  0
 16 15  2  0
 17 15  1  0
 18 20  1  0
 18 17  1  6
 19 18  1  0
 20 21  1  0
 22 20  2  0
M  END
$$$$
