EGN.pdb
     RDKit          3D

 22 21  0  0  1  0  0  0  0  0999 V2000
   18.3050  -13.2637  -16.3564 N   0  0  0  0  0  0  0  0  0  0  0  0
   18.8706  -12.8673  -17.6381 C   0  0  1  0  0  0  0  0  0  0  0  0
   17.7381  -12.3933  -18.4791 C   0  0  0  0  0  0  0  0  0  0  0  0
   17.0464  -11.1696  -17.9677 C   0  0  0  0  0  0  0  0  0  0  0  0
   15.9034  -10.8246  -18.8746 C   0  0  0  0  0  0  0  0  0  0  0  0
   16.0606   -9.9480  -19.7717 O   0  0  0  0  0  0  0  0  0  0  0  0
   19.9874  -11.9242  -17.4777 C   0  0  0  0  0  0  0  0  0  0  0  0
   20.7380  -11.5637  -18.4185 O   0  0  0  0  0  0  0  0  0  0  0  0
   14.6960  -11.4807  -18.7042 O   0  0  0  0  0  0  0  0  0  0  0  0
   20.3115  -11.3297  -16.2008 N   0  0  0  0  0  0  0  0  0  0  0  0
   21.3445  -10.3547  -16.0493 C   0  0  0  0  0  0  0  0  0  0  0  0
   20.8580   -9.0115  -15.7146 C   0  0  0  0  0  0  0  0  0  0  0  0
   19.6431   -8.6889  -15.6920 O   0  0  0  0  0  0  0  0  0  0  0  0
   20.9354   -4.0802  -13.7393 N   0  0  0  0  0  0  0  0  0  0  0  0
   22.1417   -4.7581  -13.5080 C   0  0  0  0  0  0  0  0  0  0  0  0
   22.9719   -4.1942  -12.7323 O   0  0  0  0  0  0  0  0  0  0  0  0
   22.4968   -6.0436  -14.0896 C   0  0  0  0  0  0  0  0  0  0  0  0
   21.4558   -6.6938  -14.9418 C   0  0  2  0  0  0  0  0  0  0  0  0
   21.8094   -8.0041  -15.3943 N   0  0  0  0  0  0  0  0  0  0  0  0
   21.1158   -5.7787  -16.0564 C   0  0  0  0  0  0  0  0  0  0  0  0
   19.9356   -5.0626  -16.1010 O   0  0  0  0  0  0  0  0  0  0  0  0
   21.9396   -5.6560  -16.9927 O   0  0  0  0  0  0  0  0  0  0  0  0
  2  1  1  1
  3  4  1  0
  3  2  1  0
  5  6  2  0
  5  4  1  0
  7  2  1  0
  7  8  2  0
  9  5  1  0
 10  7  1  0
 11 10  1  0
 11 12  1  0
 12 19  1  0
 13 12  2  0
 15 14  1  0
 16 15  2  0
 17 15  1  0
 18 20  1  0
 18 17  1  6
 19 18  1  0
 20 21  1  0
 22 20  2  0
M  END
$$$$
