EGN.pdb
     RDKit          3D

 22 21  0  0  1  0  0  0  0  0999 V2000
   24.2191  -22.1096  -15.7847 N   0  0  0  0  0  0  0  0  0  0  0  0
   24.8279  -20.9206  -16.3640 C   0  0  1  0  0  0  0  0  0  0  0  0
   23.7429  -20.1793  -17.0624 C   0  0  0  0  0  0  0  0  0  0  0  0
   22.8306  -21.0317  -17.8860 C   0  0  0  0  0  0  0  0  0  0  0  0
   23.5023  -21.3779  -19.1810 C   0  0  0  0  0  0  0  0  0  0  0  0
   22.9691  -22.2237  -19.9544 O   0  0  0  0  0  0  0  0  0  0  0  0
   25.5896  -20.1525  -15.3678 C   0  0  0  0  0  0  0  0  0  0  0  0
   26.0868  -19.0203  -15.5898 O   0  0  0  0  0  0  0  0  0  0  0  0
   24.6986  -20.7569  -19.4981 O   0  0  0  0  0  0  0  0  0  0  0  0
   25.8279  -20.6524  -14.0329 N   0  0  0  0  0  0  0  0  0  0  0  0
   26.4698  -19.8699  -13.0246 C   0  0  0  0  0  0  0  0  0  0  0  0
   26.4756  -20.4912  -11.6954 C   0  0  0  0  0  0  0  0  0  0  0  0
   26.5730  -21.7290  -11.4980 O   0  0  0  0  0  0  0  0  0  0  0  0
   27.4117  -18.7602   -5.7778 N   0  0  0  0  0  0  0  0  0  0  0  0
   27.2248  -19.6058   -6.8814 C   0  0  0  0  0  0  0  0  0  0  0  0
   27.1884  -20.8513   -6.6445 O   0  0  0  0  0  0  0  0  0  0  0  0
   27.0724  -19.1554   -8.2565 C   0  0  0  0  0  0  0  0  0  0  0  0
   26.4542  -20.1291   -9.2065 C   0  0  2  0  0  0  0  0  0  0  0  0
   26.3650  -19.6523  -10.5524 N   0  0  0  0  0  0  0  0  0  0  0  0
   25.1421  -20.5531   -8.6642 C   0  0  0  0  0  0  0  0  0  0  0  0
   25.0206  -21.4232   -7.5986 O   0  0  0  0  0  0  0  0  0  0  0  0
   24.1055  -20.0979   -9.2014 O   0  0  0  0  0  0  0  0  0  0  0  0
  2  1  1  1
  3  4  1  0
  3  2  1  0
  5  6  2  0
  5  4  1  0
  7  2  1  0
  7  8  2  0
  9  5  1  0
 10  7  1  0
 11 10  1  0
 11 12  1  0
 12 19  1  0
 13 12  2  0
 15 14  1  0
 16 15  2  0
 17 15  1  0
 18 20  1  0
 18 17  1  1
 19 18  1  0
 20 21  1  0
 22 20  2  0
M  END
$$$$
