EGN.pdb
     RDKit          3D

 22 21  0  0  1  0  0  0  0  0999 V2000
   24.1188  -22.5336  -14.1020 N   0  0  0  0  0  0  0  0  0  0  0  0
   24.9549  -21.4089  -13.7072 C   0  0  1  0  0  0  0  0  0  0  0  0
   26.2065  -21.5026  -14.5067 C   0  0  0  0  0  0  0  0  0  0  0  0
   26.0216  -21.3410  -15.9822 C   0  0  0  0  0  0  0  0  0  0  0  0
   27.2852  -21.7280  -16.6905 C   0  0  0  0  0  0  0  0  0  0  0  0
   28.2897  -22.0980  -16.0181 O   0  0  0  0  0  0  0  0  0  0  0  0
   24.2334  -20.1305  -13.7951 C   0  0  0  0  0  0  0  0  0  0  0  0
   24.7683  -19.0113  -13.5959 O   0  0  0  0  0  0  0  0  0  0  0  0
   27.3188  -21.6695  -18.0735 O   0  0  0  0  0  0  0  0  0  0  0  0
   22.8274  -20.0646  -14.1234 N   0  0  0  0  0  0  0  0  0  0  0  0
   22.3596  -19.6789  -15.4169 C   0  0  0  0  0  0  0  0  0  0  0  0
   20.9112  -19.8256  -15.5999 C   0  0  0  0  0  0  0  0  0  0  0  0
   20.3051  -19.5466  -16.6655 O   0  0  0  0  0  0  0  0  0  0  0  0
   19.8170  -24.0478  -14.9754 N   0  0  0  0  0  0  0  0  0  0  0  0
   19.6647  -23.1898  -13.8759 C   0  0  0  0  0  0  0  0  0  0  0  0
   20.4640  -23.3601  -12.9059 O   0  0  0  0  0  0  0  0  0  0  0  0
   18.6670  -22.1355  -13.7771 C   0  0  0  0  0  0  0  0  0  0  0  0
   18.8647  -20.9526  -14.6685 C   0  0  2  0  0  0  0  0  0  0  0  0
   20.1344  -20.3122  -14.5126 N   0  0  0  0  0  0  0  0  0  0  0  0
   17.7291  -20.0201  -14.4779 C   0  0  0  0  0  0  0  0  0  0  0  0
   16.7396  -19.8451  -15.4255 O   0  0  0  0  0  0  0  0  0  0  0  0
   17.6729  -19.3677  -13.4095 O   0  0  0  0  0  0  0  0  0  0  0  0
  2  1  1  6
  3  4  1  0
  3  2  1  0
  5  6  2  0
  5  4  1  0
  7  2  1  0
  7  8  2  0
  9  5  1  0
 10  7  1  0
 11 10  1  0
 11 12  1  0
 12 19  1  0
 13 12  2  0
 15 14  1  0
 16 15  2  0
 17 15  1  0
 18 20  1  0
 18 17  1  1
 19 18  1  0
 20 21  1  0
 22 20  2  0
M  END
$$$$
