EGN.pdb
     RDKit          3D

 22 21  0  0  1  0  0  0  0  0999 V2000
   15.2796  -11.9734  -13.7836 N   0  0  0  0  0  0  0  0  0  0  0  0
   15.8184  -12.6039  -14.9802 C   0  0  1  0  0  0  0  0  0  0  0  0
   14.6593  -12.9191  -15.8587 C   0  0  0  0  0  0  0  0  0  0  0  0
   13.6387  -13.8265  -15.2485 C   0  0  0  0  0  0  0  0  0  0  0  0
   14.1651  -15.2303  -15.2281 C   0  0  0  0  0  0  0  0  0  0  0  0
   14.5463  -15.7699  -16.3058 O   0  0  0  0  0  0  0  0  0  0  0  0
   16.8854  -11.7984  -15.5927 C   0  0  0  0  0  0  0  0  0  0  0  0
   17.3629  -12.0225  -16.7330 O   0  0  0  0  0  0  0  0  0  0  0  0
   14.2204  -15.9039  -14.0196 O   0  0  0  0  0  0  0  0  0  0  0  0
   17.4762  -10.6664  -14.9155 N   0  0  0  0  0  0  0  0  0  0  0  0
   18.4325   -9.8111  -15.5437 C   0  0  0  0  0  0  0  0  0  0  0  0
   18.8189   -8.6478  -14.7371 C   0  0  0  0  0  0  0  0  0  0  0  0
   18.2542   -8.3175  -13.6635 O   0  0  0  0  0  0  0  0  0  0  0  0
   21.6309   -4.3856  -13.1676 N   0  0  0  0  0  0  0  0  0  0  0  0
   22.3319   -5.1804  -14.0869 C   0  0  0  0  0  0  0  0  0  0  0  0
   23.5676   -4.9321  -14.2280 O   0  0  0  0  0  0  0  0  0  0  0  0
   21.7442   -6.2527  -14.8753 C   0  0  0  0  0  0  0  0  0  0  0  0
   20.3668   -6.6815  -14.4857 C   0  0  2  0  0  0  0  0  0  0  0  0
   19.8967   -7.8364  -15.1869 N   0  0  0  0  0  0  0  0  0  0  0  0
   19.4535   -5.5225  -14.6200 C   0  0  0  0  0  0  0  0  0  0  0  0
   18.4281   -5.4831  -15.5444 O   0  0  0  0  0  0  0  0  0  0  0  0
   19.6267   -4.5422  -13.8589 O   0  0  0  0  0  0  0  0  0  0  0  0
  2  1  1  1
  3  4  1  0
  3  2  1  0
  5  6  2  0
  5  4  1  0
  7  2  1  0
  7  8  2  0
  9  5  1  0
 10  7  1  0
 11 10  1  0
 11 12  1  0
 12 19  1  0
 13 12  2  0
 15 14  1  0
 16 15  2  0
 17 15  1  0
 18 20  1  0
 18 17  1  6
 19 18  1  0
 20 21  1  0
 22 20  2  0
M  END
$$$$
