EGN.pdb
     RDKit          3D

 22 21  0  0  1  0  0  0  0  0999 V2000
   18.9129  -11.4706  -16.1474 N   0  0  0  0  0  0  0  0  0  0  0  0
   20.1326  -12.2496  -15.9881 C   0  0  1  0  0  0  0  0  0  0  0  0
   20.1555  -13.2430  -17.0959 C   0  0  0  0  0  0  0  0  0  0  0  0
   19.6269  -12.7389  -18.4012 C   0  0  0  0  0  0  0  0  0  0  0  0
   19.7343  -13.8190  -19.4355 C   0  0  0  0  0  0  0  0  0  0  0  0
   19.0977  -14.8997  -19.2781 O   0  0  0  0  0  0  0  0  0  0  0  0
   21.3213  -11.3917  -15.8728 C   0  0  0  0  0  0  0  0  0  0  0  0
   22.4865  -11.8312  -15.7058 O   0  0  0  0  0  0  0  0  0  0  0  0
   20.5343  -13.6025  -20.5448 O   0  0  0  0  0  0  0  0  0  0  0  0
   21.2367   -9.9507  -15.9443 N   0  0  0  0  0  0  0  0  0  0  0  0
   22.3948   -9.1144  -15.9535 C   0  0  0  0  0  0  0  0  0  0  0  0
   22.1073   -7.6929  -16.1767 C   0  0  0  0  0  0  0  0  0  0  0  0
   21.6873   -7.2227  -17.2643 O   0  0  0  0  0  0  0  0  0  0  0  0
   18.4333   -3.8542  -14.4934 N   0  0  0  0  0  0  0  0  0  0  0  0
   19.5858   -4.1800  -15.2240 C   0  0  0  0  0  0  0  0  0  0  0  0
   20.0859   -3.2594  -15.9388 O   0  0  0  0  0  0  0  0  0  0  0  0
   20.2339   -5.4826  -15.2152 C   0  0  0  0  0  0  0  0  0  0  0  0
   21.7183   -5.4814  -15.0437 C   0  0  2  0  0  0  0  0  0  0  0  0
   22.3123   -6.7815  -15.1045 N   0  0  0  0  0  0  0  0  0  0  0  0
   22.0506   -4.7612  -13.7921 C   0  0  0  0  0  0  0  0  0  0  0  0
   22.5007   -5.4060  -12.6567 O   0  0  0  0  0  0  0  0  0  0  0  0
   21.9142   -3.5157  -13.7729 O   0  0  0  0  0  0  0  0  0  0  0  0
  2  1  1  6
  3  4  1  0
  3  2  1  0
  5  6  2  0
  5  4  1  0
  7  2  1  0
  7  8  2  0
  9  5  1  0
 10  7  1  0
 11 10  1  0
 11 12  1  0
 12 19  1  0
 13 12  2  0
 15 14  1  0
 16 15  2  0
 17 15  1  0
 18 20  1  0
 18 17  1  1
 19 18  1  0
 20 21  1  0
 22 20  2  0
M  END
$$$$
