EGN.pdb
     RDKit          3D

 22 21  0  0  1  0  0  0  0  0999 V2000
   18.8279  -13.3112  -16.4278 N   0  0  0  0  0  0  0  0  0  0  0  0
   18.1134  -12.0500  -16.2914 C   0  0  1  0  0  0  0  0  0  0  0  0
   16.6881  -12.3899  -16.0310 C   0  0  0  0  0  0  0  0  0  0  0  0
   16.1528  -13.5196  -16.8523 C   0  0  0  0  0  0  0  0  0  0  0  0
   14.7633  -13.8537  -16.3987 C   0  0  0  0  0  0  0  0  0  0  0  0
   14.5513  -14.9365  -15.7818 O   0  0  0  0  0  0  0  0  0  0  0  0
   18.7497  -11.1616  -15.3074 C   0  0  0  0  0  0  0  0  0  0  0  0
   19.4510  -11.5700  -14.3482 O   0  0  0  0  0  0  0  0  0  0  0  0
   13.7408  -12.9603  -16.6698 O   0  0  0  0  0  0  0  0  0  0  0  0
   18.6135   -9.7242  -15.3712 N   0  0  0  0  0  0  0  0  0  0  0  0
   19.2820   -8.8497  -14.4607 C   0  0  0  0  0  0  0  0  0  0  0  0
   20.0001   -7.7451  -15.1068 C   0  0  0  0  0  0  0  0  0  0  0  0
   19.9275   -7.4813  -16.3338 O   0  0  0  0  0  0  0  0  0  0  0  0
   22.6377   -3.3315  -15.9810 N   0  0  0  0  0  0  0  0  0  0  0  0
   21.2614   -3.5959  -16.0429 C   0  0  0  0  0  0  0  0  0  0  0  0
   20.5428   -2.7366  -16.6379 O   0  0  0  0  0  0  0  0  0  0  0  0
   20.6153   -4.7712  -15.4791 C   0  0  0  0  0  0  0  0  0  0  0  0
   21.5110   -5.7576  -14.8026 C   0  0  2  0  0  0  0  0  0  0  0  0
   20.8324   -6.9151  -14.3064 N   0  0  0  0  0  0  0  0  0  0  0  0
   22.2820   -5.0544  -13.7506 C   0  0  0  0  0  0  0  0  0  0  0  0
   23.5424   -4.5343  -13.9704 O   0  0  0  0  0  0  0  0  0  0  0  0
   21.7603   -4.9317  -12.6179 O   0  0  0  0  0  0  0  0  0  0  0  0
  2  1  1  1
  3  4  1  0
  3  2  1  0
  5  6  2  0
  5  4  1  0
  7  2  1  0
  7  8  2  0
  9  5  1  0
 10  7  1  0
 11 10  1  0
 11 12  1  0
 12 19  1  0
 13 12  2  0
 15 14  1  0
 16 15  2  0
 17 15  1  0
 18 20  1  0
 18 17  1  1
 19 18  1  0
 20 21  1  0
 22 20  2  0
M  END
$$$$
