EGN.pdb
     RDKit          3D

 22 21  0  0  1  0  0  0  0  0999 V2000
   27.6284  -10.2161  -16.2679 N   0  0  0  0  0  0  0  0  0  0  0  0
   26.7008  -11.2588  -16.6827 C   0  0  1  0  0  0  0  0  0  0  0  0
   26.9726  -12.4425  -15.8227 C   0  0  0  0  0  0  0  0  0  0  0  0
   28.3617  -12.9875  -15.9269 C   0  0  0  0  0  0  0  0  0  0  0  0
   28.5020  -13.7599  -17.2043 C   0  0  0  0  0  0  0  0  0  0  0  0
   27.5346  -14.4591  -17.6206 O   0  0  0  0  0  0  0  0  0  0  0  0
   25.3095  -10.7830  -16.6959 C   0  0  0  0  0  0  0  0  0  0  0  0
   24.3354  -11.4827  -17.0704 O   0  0  0  0  0  0  0  0  0  0  0  0
   29.6970  -13.6863  -17.8998 O   0  0  0  0  0  0  0  0  0  0  0  0
   24.9514   -9.4489  -16.2708 N   0  0  0  0  0  0  0  0  0  0  0  0
   23.5936   -9.0218  -16.1490 C   0  0  0  0  0  0  0  0  0  0  0  0
   23.4391   -7.6192  -15.7467 C   0  0  0  0  0  0  0  0  0  0  0  0
   24.3527   -6.9334  -15.2217 O   0  0  0  0  0  0  0  0  0  0  0  0
   21.2214   -2.7919  -15.3573 N   0  0  0  0  0  0  0  0  0  0  0  0
   20.3215   -3.7096  -15.9196 C   0  0  0  0  0  0  0  0  0  0  0  0
   19.1997   -3.2507  -16.2934 O   0  0  0  0  0  0  0  0  0  0  0  0
   20.5864   -5.1288  -16.0993 C   0  0  0  0  0  0  0  0  0  0  0  0
   21.9229   -5.6152  -15.6411 C   0  0  2  0  0  0  0  0  0  0  0  0
   22.1837   -6.9856  -15.9586 N   0  0  0  0  0  0  0  0  0  0  0  0
   22.0609   -5.3295  -14.1938 C   0  0  0  0  0  0  0  0  0  0  0  0
   22.7091   -4.2089  -13.7125 O   0  0  0  0  0  0  0  0  0  0  0  0
   21.5658   -6.1443  -13.3806 O   0  0  0  0  0  0  0  0  0  0  0  0
  2  1  1  1
  3  4  1  0
  3  2  1  0
  5  6  2  0
  5  4  1  0
  7  2  1  0
  7  8  2  0
  9  5  1  0
 10  7  1  0
 11 10  1  0
 11 12  1  0
 12 19  1  0
 13 12  2  0
 15 14  1  0
 16 15  2  0
 17 15  1  0
 18 20  1  0
 18 17  1  1
 19 18  1  0
 20 21  1  0
 22 20  2  0
M  END
$$$$
