DGV.pdb
     RDKit          3D

 20 19  0  0  1  0  0  0  0  0999 V2000
   28.9647  -20.4147  -18.1032 N   0  0  0  0  0  0  0  0  0  0  0  0
   27.7446  -19.8563  -17.6189 C   0  0  1  0  0  0  0  0  0  0  0  0
   26.5229  -20.4446  -18.2948 C   0  0  0  0  0  0  0  0  0  0  0  0
   26.3757  -19.9302  -19.6743 C   0  0  0  0  0  0  0  0  0  0  0  0
   27.2817  -19.1869  -20.1262 O   0  0  0  0  0  0  0  0  0  0  0  0
   27.6181  -19.8900  -16.1406 C   0  0  0  0  0  0  0  0  0  0  0  0
   27.3434  -20.9841  -15.5874 O   0  0  0  0  0  0  0  0  0  0  0  0
   25.2900  -20.2348  -20.4735 O   0  0  0  0  0  0  0  0  0  0  0  0
   27.7959  -18.7286  -15.3201 N   0  0  0  0  0  0  0  0  0  0  0  0
   27.7226  -18.7122  -13.9022 C   0  0  0  0  0  0  0  0  0  0  0  0
   26.8438  -19.7281  -13.2903 C   0  0  0  0  0  0  0  0  0  0  0  0
   26.8132  -20.9302  -13.7310 O   0  0  0  0  0  0  0  0  0  0  0  0
   26.8077  -20.4978   -9.5106 C   0  0  0  0  0  0  0  0  0  0  0  0
   25.3940  -20.2712   -9.9973 C   0  0  2  0  0  0  0  0  0  0  0  0
   24.5354  -21.3216   -9.3225 C   0  0  0  0  0  0  0  0  0  0  0  0
   25.2466  -20.4038  -11.4696 C   0  0  2  0  0  0  0  0  0  0  0  0
   26.0111  -19.4167  -12.2117 N   0  0  0  0  0  0  0  0  0  0  0  0
   23.8052  -20.3423  -11.8219 C   0  0  0  0  0  0  0  0  0  0  0  0
   23.0465  -21.4998  -11.8252 O   0  0  0  0  0  0  0  0  0  0  0  0
   23.2328  -19.2729  -12.1217 O   0  0  0  0  0  0  0  0  0  0  0  0
  2  1  1  1
  2  3  1  0
  3  4  1  0
  4  5  2  0
  6  9  1  0
  6  2  1  0
  7  6  2  0
  8  4  1  0
 10  9  1  0
 11 12  2  0
 11 10  1  0
 14 13  1  6
 15 14  1  0
 16 14  1  0
 16 17  1  6
 17 11  1  0
 18 16  1  0
 19 18  1  0
 20 18  2  0
M  END
$$$$
