DGV.pdb
     RDKit          3D

 20 19  0  0  1  0  0  0  0  0999 V2000
   17.8617   -9.1240  -13.7761 N   0  0  0  0  0  0  0  0  0  0  0  0
   18.6612   -8.0844  -13.2152 C   0  0  1  0  0  0  0  0  0  0  0  0
   18.6632   -6.8269  -14.0604 C   0  0  0  0  0  0  0  0  0  0  0  0
   19.0398   -7.1247  -15.4600 C   0  0  0  0  0  0  0  0  0  0  0  0
   19.8861   -8.0302  -15.6632 O   0  0  0  0  0  0  0  0  0  0  0  0
   18.3430   -7.7861  -11.7966 C   0  0  0  0  0  0  0  0  0  0  0  0
   18.9872   -6.8769  -11.2162 O   0  0  0  0  0  0  0  0  0  0  0  0
   18.4998   -6.4499  -16.5388 O   0  0  0  0  0  0  0  0  0  0  0  0
   17.3334   -8.4909  -11.0633 N   0  0  0  0  0  0  0  0  0  0  0  0
   16.8637   -8.1337   -9.7718 C   0  0  0  0  0  0  0  0  0  0  0  0
   15.4843   -7.6122   -9.7090 C   0  0  0  0  0  0  0  0  0  0  0  0
   14.9069   -7.1377  -10.7490 O   0  0  0  0  0  0  0  0  0  0  0  0
   11.1471   -7.5532   -7.3201 C   0  0  0  0  0  0  0  0  0  0  0  0
   12.6123   -7.9240   -7.3696 C   0  0  2  0  0  0  0  0  0  0  0  0
   13.1856   -7.5861   -6.0084 C   0  0  0  0  0  0  0  0  0  0  0  0
   13.3749   -7.1853   -8.4087 C   0  0  2  0  0  0  0  0  0  0  0  0
   14.7589   -7.6131   -8.5141 N   0  0  0  0  0  0  0  0  0  0  0  0
   13.2826   -5.7282   -8.1364 C   0  0  0  0  0  0  0  0  0  0  0  0
   12.1689   -5.0188   -8.5510 O   0  0  0  0  0  0  0  0  0  0  0  0
   14.1813   -5.0992   -7.5382 O   0  0  0  0  0  0  0  0  0  0  0  0
  2  1  1  6
  2  3  1  0
  3  4  1  0
  4  5  2  0
  6  9  1  0
  6  2  1  0
  7  6  2  0
  8  4  1  0
 10  9  1  0
 11 12  2  0
 11 10  1  0
 14 13  1  1
 15 14  1  0
 16 14  1  0
 16 17  1  1
 17 11  1  0
 18 16  1  0
 19 18  1  0
 20 18  2  0
M  END
$$$$
