DGV.pdb
     RDKit          3D

 20 19  0  0  1  0  0  0  0  0999 V2000
   18.3733   -9.3758  -14.0652 N   0  0  0  0  0  0  0  0  0  0  0  0
   18.6755   -9.4181  -15.4587 C   0  0  1  0  0  0  0  0  0  0  0  0
   17.6922   -8.6247  -16.2950 C   0  0  0  0  0  0  0  0  0  0  0  0
   16.2965   -8.9985  -15.9765 C   0  0  0  0  0  0  0  0  0  0  0  0
   15.8350  -10.0476  -16.4902 O   0  0  0  0  0  0  0  0  0  0  0  0
   20.0786   -9.0536  -15.7765 C   0  0  0  0  0  0  0  0  0  0  0  0
   20.4412   -9.0579  -16.9794 O   0  0  0  0  0  0  0  0  0  0  0  0
   15.4922   -8.2434  -15.1438 O   0  0  0  0  0  0  0  0  0  0  0  0
   21.0346   -8.6978  -14.7699 N   0  0  0  0  0  0  0  0  0  0  0  0
   22.3728   -8.2951  -15.0216 C   0  0  0  0  0  0  0  0  0  0  0  0
   22.6254   -6.8412  -14.9896 C   0  0  0  0  0  0  0  0  0  0  0  0
   23.8154   -6.3734  -15.0608 O   0  0  0  0  0  0  0  0  0  0  0  0
   19.2833   -4.0744  -15.1780 C   0  0  0  0  0  0  0  0  0  0  0  0
   20.6588   -3.8246  -15.7544 C   0  0  2  0  0  0  0  0  0  0  0  0
   20.6405   -4.3824  -17.1631 C   0  0  0  0  0  0  0  0  0  0  0  0
   21.7491   -4.4843  -14.9910 C   0  0  2  0  0  0  0  0  0  0  0  0
   21.5782   -5.9222  -14.8773 N   0  0  0  0  0  0  0  0  0  0  0  0
   21.8596   -3.8493  -13.6530 C   0  0  0  0  0  0  0  0  0  0  0  0
   22.2514   -2.5260  -13.5483 O   0  0  0  0  0  0  0  0  0  0  0  0
   21.6104   -4.4657  -12.5951 O   0  0  0  0  0  0  0  0  0  0  0  0
  2  1  1  1
  2  3  1  0
  3  4  1  0
  4  5  2  0
  6  9  1  0
  6  2  1  0
  7  6  2  0
  8  4  1  0
 10  9  1  0
 11 12  2  0
 11 10  1  0
 14 13  1  1
 15 14  1  0
 16 14  1  0
 16 17  1  1
 17 11  1  0
 18 16  1  0
 19 18  1  0
 20 18  2  0
M  END
$$$$
