DGV.pdb
     RDKit          3D

 20 19  0  0  1  0  0  0  0  0999 V2000
   31.5961  -37.1522   -5.1471 N   0  0  0  0  0  0  0  0  0  0  0  0
   30.5658  -38.0378   -5.5817 C   0  0  1  0  0  0  0  0  0  0  0  0
   29.8521  -38.7154   -4.4296 C   0  0  0  0  0  0  0  0  0  0  0  0
   30.7588  -39.6333   -3.7053 C   0  0  0  0  0  0  0  0  0  0  0  0
   31.4207  -39.1709   -2.7432 O   0  0  0  0  0  0  0  0  0  0  0  0
   29.6051  -37.4174   -6.5277 C   0  0  0  0  0  0  0  0  0  0  0  0
   28.7158  -38.1421   -7.0401 O   0  0  0  0  0  0  0  0  0  0  0  0
   30.9016  -40.9654   -4.0456 O   0  0  0  0  0  0  0  0  0  0  0  0
   29.6502  -36.0290   -6.8799 N   0  0  0  0  0  0  0  0  0  0  0  0
   28.7957  -35.3981   -7.8221 C   0  0  0  0  0  0  0  0  0  0  0  0
   27.5571  -34.8094   -7.2762 C   0  0  0  0  0  0  0  0  0  0  0  0
   27.2492  -34.9413   -6.0401 O   0  0  0  0  0  0  0  0  0  0  0  0
   24.6410  -32.8019   -9.8641 C   0  0  0  0  0  0  0  0  0  0  0  0
   25.0292  -32.3153   -8.4860 C   0  0  2  0  0  0  0  0  0  0  0  0
   26.1564  -31.3223   -8.6843 C   0  0  0  0  0  0  0  0  0  0  0  0
   25.4978  -33.4001   -7.5856 C   0  0  2  0  0  0  0  0  0  0  0  0
   26.6737  -34.0903   -8.0863 N   0  0  0  0  0  0  0  0  0  0  0  0
   24.3808  -34.3485   -7.3439 C   0  0  0  0  0  0  0  0  0  0  0  0
   23.3101  -33.9657   -6.5549 O   0  0  0  0  0  0  0  0  0  0  0  0
   24.3612  -35.4997   -7.8292 O   0  0  0  0  0  0  0  0  0  0  0  0
  2  1  1  1
  2  3  1  0
  3  4  1  0
  4  5  2  0
  6  9  1  0
  6  2  1  0
  7  6  2  0
  8  4  1  0
 10  9  1  0
 11 12  2  0
 11 10  1  0
 14 13  1  6
 15 14  1  0
 16 14  1  0
 16 17  1  6
 17 11  1  0
 18 16  1  0
 19 18  1  0
 20 18  2  0
M  END
$$$$
