DGV.pdb
     RDKit          3D

 20 19  0  0  1  0  0  0  0  0999 V2000
   28.6592  -18.9916  -17.9489 N   0  0  0  0  0  0  0  0  0  0  0  0
   27.3620  -18.4179  -17.7983 C   0  0  1  0  0  0  0  0  0  0  0  0
   26.3589  -18.9705  -18.7903 C   0  0  0  0  0  0  0  0  0  0  0  0
   26.8233  -18.7797  -20.1822 C   0  0  0  0  0  0  0  0  0  0  0  0
   26.2925  -17.8660  -20.8610 O   0  0  0  0  0  0  0  0  0  0  0  0
   26.8418  -18.4745  -16.4095 C   0  0  0  0  0  0  0  0  0  0  0  0
   25.6019  -18.3802  -16.2295 O   0  0  0  0  0  0  0  0  0  0  0  0
   27.8085  -19.5619  -20.7550 O   0  0  0  0  0  0  0  0  0  0  0  0
   27.6938  -18.6320  -15.2679 N   0  0  0  0  0  0  0  0  0  0  0  0
   27.2584  -18.6161  -13.9165 C   0  0  0  0  0  0  0  0  0  0  0  0
   26.4412  -19.7685  -13.4889 C   0  0  0  0  0  0  0  0  0  0  0  0
   26.3573  -20.8249  -14.2079 O   0  0  0  0  0  0  0  0  0  0  0  0
   25.2652  -20.1353   -9.3669 C   0  0  0  0  0  0  0  0  0  0  0  0
   25.4701  -21.2516  -10.3662 C   0  0  2  0  0  0  0  0  0  0  0  0
   26.9572  -21.5420  -10.3848 C   0  0  0  0  0  0  0  0  0  0  0  0
   25.0319  -20.9021  -11.7420 C   0  0  2  0  0  0  0  0  0  0  0  0
   25.7269  -19.7492  -12.2875 N   0  0  0  0  0  0  0  0  0  0  0  0
   23.5614  -20.6941  -11.7463 C   0  0  0  0  0  0  0  0  0  0  0  0
   22.7123  -21.7725  -11.5680 O   0  0  0  0  0  0  0  0  0  0  0  0
   23.0434  -19.5685  -11.9066 O   0  0  0  0  0  0  0  0  0  0  0  0
  2  1  1  1
  2  3  1  0
  3  4  1  0
  4  5  2  0
  6  9  1  0
  6  2  1  0
  7  6  2  0
  8  4  1  0
 10  9  1  0
 11 12  2  0
 11 10  1  0
 14 13  1  1
 15 14  1  0
 16 14  1  0
 16 17  1  1
 17 11  1  0
 18 16  1  0
 19 18  1  0
 20 18  2  0
M  END
$$$$
