DGV.pdb
     RDKit          3D

 20 19  0  0  1  0  0  0  0  0999 V2000
   15.2276  -12.7413  -15.8350 N   0  0  0  0  0  0  0  0  0  0  0  0
   16.4742  -13.4345  -15.8474 C   0  0  1  0  0  0  0  0  0  0  0  0
   16.4537  -14.6595  -16.7387 C   0  0  0  0  0  0  0  0  0  0  0  0
   15.5839  -15.7156  -16.1752 C   0  0  0  0  0  0  0  0  0  0  0  0
   14.6555  -16.1609  -16.8944 O   0  0  0  0  0  0  0  0  0  0  0  0
   17.6384  -12.5637  -16.1458 C   0  0  0  0  0  0  0  0  0  0  0  0
   18.7930  -13.0434  -16.0220 O   0  0  0  0  0  0  0  0  0  0  0  0
   15.7548  -16.2234  -14.9011 O   0  0  0  0  0  0  0  0  0  0  0  0
   17.5000  -11.2014  -16.5685 N   0  0  0  0  0  0  0  0  0  0  0  0
   18.5776  -10.3231  -16.8574 C   0  0  0  0  0  0  0  0  0  0  0  0
   19.1834   -9.6421  -15.6963 C   0  0  0  0  0  0  0  0  0  0  0  0
   18.5291   -9.4798  -14.6075 O   0  0  0  0  0  0  0  0  0  0  0  0
   23.3907   -8.7976  -15.7644 C   0  0  0  0  0  0  0  0  0  0  0  0
   22.5993   -9.0305  -14.4970 C   0  0  2  0  0  0  0  0  0  0  0  0
   22.6314  -10.5235  -14.2405 C   0  0  0  0  0  0  0  0  0  0  0  0
   21.1837   -8.5903  -14.5941 C   0  0  2  0  0  0  0  0  0  0  0  0
   20.4896   -9.1468  -15.7423 N   0  0  0  0  0  0  0  0  0  0  0  0
   21.1352   -7.1060  -14.6049 C   0  0  0  0  0  0  0  0  0  0  0  0
   21.4506   -6.3977  -13.4585 O   0  0  0  0  0  0  0  0  0  0  0  0
   20.8167   -6.4525  -15.6211 O   0  0  0  0  0  0  0  0  0  0  0  0
  2  1  1  6
  2  3  1  0
  3  4  1  0
  4  5  2  0
  6  9  1  0
  6  2  1  0
  7  6  2  0
  8  4  1  0
 10  9  1  0
 11 12  2  0
 11 10  1  0
 14 13  1  6
 15 14  1  0
 16 14  1  0
 16 17  1  6
 17 11  1  0
 18 16  1  0
 19 18  1  0
 20 18  2  0
M  END
$$$$
