DGV.pdb
     RDKit          3D

 20 19  0  0  1  0  0  0  0  0999 V2000
   24.1527  -20.3479  -10.2034 N   0  0  0  0  0  0  0  0  0  0  0  0
   24.9405  -21.0896  -11.1330 C   0  0  1  0  0  0  0  0  0  0  0  0
   24.8593  -20.5364  -12.5412 C   0  0  0  0  0  0  0  0  0  0  0  0
   23.5043  -20.7152  -13.1081 C   0  0  0  0  0  0  0  0  0  0  0  0
   22.6093  -19.9040  -12.7640 O   0  0  0  0  0  0  0  0  0  0  0  0
   26.3482  -21.2805  -10.7035 C   0  0  0  0  0  0  0  0  0  0  0  0
   26.8896  -22.3966  -10.9030 O   0  0  0  0  0  0  0  0  0  0  0  0
   23.1922  -21.7310  -13.9920 O   0  0  0  0  0  0  0  0  0  0  0  0
   27.1137  -20.2465  -10.0722 N   0  0  0  0  0  0  0  0  0  0  0  0
   28.4748  -20.3601   -9.6841 C   0  0  0  0  0  0  0  0  0  0  0  0
   28.7154  -20.8541   -8.3141 C   0  0  0  0  0  0  0  0  0  0  0  0
   29.0713  -22.0654   -8.0992 O   0  0  0  0  0  0  0  0  0  0  0  0
   28.7831  -19.1458   -3.6953 C   0  0  0  0  0  0  0  0  0  0  0  0
   29.4814  -19.4517   -5.0013 C   0  0  2  0  0  0  0  0  0  0  0  0
   29.5511  -18.1453   -5.7658 C   0  0  0  0  0  0  0  0  0  0  0  0
   28.7692  -20.4567   -5.8318 C   0  0  2  0  0  0  0  0  0  0  0  0
   28.5610  -20.0217   -7.2019 N   0  0  0  0  0  0  0  0  0  0  0  0
   27.4821  -20.8047   -5.1776 C   0  0  0  0  0  0  0  0  0  0  0  0
   27.4826  -21.5174   -3.9912 O   0  0  0  0  0  0  0  0  0  0  0  0
   26.3757  -20.4778   -5.6573 O   0  0  0  0  0  0  0  0  0  0  0  0
  2  1  1  1
  2  3  1  0
  3  4  1  0
  4  5  2  0
  6  9  1  0
  6  2  1  0
  7  6  2  0
  8  4  1  0
 10  9  1  0
 11 12  2  0
 11 10  1  0
 14 13  1  1
 15 14  1  0
 16 14  1  0
 16 17  1  6
 17 11  1  0
 18 16  1  0
 19 18  1  0
 20 18  2  0
M  END
$$$$
