DGV.pdb
     RDKit          3D

 20 19  0  0  1  0  0  0  0  0999 V2000
   13.8061  -11.9397  -16.0328 N   0  0  0  0  0  0  0  0  0  0  0  0
   15.0843  -12.1518  -15.4362 C   0  0  1  0  0  0  0  0  0  0  0  0
   15.4387  -13.6203  -15.3185 C   0  0  0  0  0  0  0  0  0  0  0  0
   14.6082  -14.2897  -14.2931 C   0  0  0  0  0  0  0  0  0  0  0  0
   13.9853  -13.5680  -13.4754 O   0  0  0  0  0  0  0  0  0  0  0  0
   16.1773  -11.3777  -16.0754 C   0  0  0  0  0  0  0  0  0  0  0  0
   16.2315  -11.3411  -17.3301 O   0  0  0  0  0  0  0  0  0  0  0  0
   14.4950  -15.6644  -14.2042 O   0  0  0  0  0  0  0  0  0  0  0  0
   17.1711  -10.6717  -15.3219 N   0  0  0  0  0  0  0  0  0  0  0  0
   18.2579   -9.9488  -15.8808 C   0  0  0  0  0  0  0  0  0  0  0  0
   19.1231   -9.2391  -14.9182 C   0  0  0  0  0  0  0  0  0  0  0  0
   18.7616   -9.0701  -13.7014 O   0  0  0  0  0  0  0  0  0  0  0  0
   23.2702   -8.7824  -15.7883 C   0  0  0  0  0  0  0  0  0  0  0  0
   22.6505   -8.7645  -14.4090 C   0  0  2  0  0  0  0  0  0  0  0  0
   22.5153  -10.2119  -13.9815 C   0  0  0  0  0  0  0  0  0  0  0  0
   21.3100   -8.1253  -14.3708 C   0  0  2  0  0  0  0  0  0  0  0  0
   20.3653   -8.7230  -15.2982 N   0  0  0  0  0  0  0  0  0  0  0  0
   21.4581   -6.6687  -14.6195 C   0  0  0  0  0  0  0  0  0  0  0  0
   21.9316   -5.8426  -13.6150 O   0  0  0  0  0  0  0  0  0  0  0  0
   21.1696   -6.1424  -15.7154 O   0  0  0  0  0  0  0  0  0  0  0  0
  2  1  1  6
  2  3  1  0
  3  4  1  0
  4  5  2  0
  6  9  1  0
  6  2  1  0
  7  6  2  0
  8  4  1  0
 10  9  1  0
 11 12  2  0
 11 10  1  0
 14 13  1  6
 15 14  1  0
 16 14  1  0
 16 17  1  6
 17 11  1  0
 18 16  1  0
 19 18  1  0
 20 18  2  0
M  END
$$$$
