DGV.pdb
     RDKit          3D

 20 19  0  0  1  0  0  0  0  0999 V2000
   22.2335  -19.4412  -16.4321 N   0  0  0  0  0  0  0  0  0  0  0  0
   22.3294  -18.8302  -15.1467 C   0  0  1  0  0  0  0  0  0  0  0  0
   21.6267  -19.6267  -14.0662 C   0  0  0  0  0  0  0  0  0  0  0  0
   20.1565  -19.5340  -14.2050 C   0  0  0  0  0  0  0  0  0  0  0  0
   19.6954  -18.8310  -15.1381 O   0  0  0  0  0  0  0  0  0  0  0  0
   23.7178  -18.4846  -14.7522 C   0  0  0  0  0  0  0  0  0  0  0  0
   23.8981  -17.8674  -13.6727 O   0  0  0  0  0  0  0  0  0  0  0  0
   19.2831  -20.1856  -13.3546 O   0  0  0  0  0  0  0  0  0  0  0  0
   24.8585  -18.8251  -15.5500 N   0  0  0  0  0  0  0  0  0  0  0  0
   26.2108  -18.6109  -15.1737 C   0  0  0  0  0  0  0  0  0  0  0  0
   26.6884  -19.3897  -14.0145 C   0  0  0  0  0  0  0  0  0  0  0  0
   27.9346  -19.4526  -13.7262 O   0  0  0  0  0  0  0  0  0  0  0  0
   24.1826  -20.9344  -10.7770 C   0  0  0  0  0  0  0  0  0  0  0  0
   25.6904  -20.8632  -10.8668 C   0  0  2  0  0  0  0  0  0  0  0  0
   26.0797  -19.4649  -10.4319 C   0  0  0  0  0  0  0  0  0  0  0  0
   26.2135  -21.1031  -12.2364 C   0  0  2  0  0  0  0  0  0  0  0  0
   25.8013  -20.0893  -13.1914 N   0  0  0  0  0  0  0  0  0  0  0  0
   25.8046  -22.4592  -12.6830 C   0  0  0  0  0  0  0  0  0  0  0  0
   26.2489  -23.5747  -11.9947 O   0  0  0  0  0  0  0  0  0  0  0  0
   25.0629  -22.6449  -13.6713 O   0  0  0  0  0  0  0  0  0  0  0  0
  2  1  1  6
  2  3  1  0
  3  4  1  0
  4  5  2  0
  6  9  1  0
  6  2  1  0
  7  6  2  0
  8  4  1  0
 10  9  1  0
 11 12  2  0
 11 10  1  0
 14 13  1  6
 15 14  1  0
 16 14  1  0
 16 17  1  6
 17 11  1  0
 18 16  1  0
 19 18  1  0
 20 18  2  0
M  END
$$$$
