DGV.pdb
     RDKit          3D

 20 19  0  0  1  0  0  0  0  0999 V2000
   14.7016  -11.5225  -16.8700 N   0  0  0  0  0  0  0  0  0  0  0  0
   15.6366  -12.1315  -15.9814 C   0  0  1  0  0  0  0  0  0  0  0  0
   15.6229  -13.6443  -16.0643 C   0  0  0  0  0  0  0  0  0  0  0  0
   14.6793  -14.2246  -15.0834 C   0  0  0  0  0  0  0  0  0  0  0  0
   13.9260  -13.4406  -14.4546 O   0  0  0  0  0  0  0  0  0  0  0  0
   17.0139  -11.5922  -16.1028 C   0  0  0  0  0  0  0  0  0  0  0  0
   17.8883  -11.9939  -15.2950 O   0  0  0  0  0  0  0  0  0  0  0  0
   14.5984  -15.5823  -14.8374 O   0  0  0  0  0  0  0  0  0  0  0  0
   17.3865  -10.6342  -17.1014 N   0  0  0  0  0  0  0  0  0  0  0  0
   18.6971  -10.1220  -17.2919 C   0  0  0  0  0  0  0  0  0  0  0  0
   19.2609   -9.3571  -16.1624 C   0  0  0  0  0  0  0  0  0  0  0  0
   18.5026   -8.7366  -15.3378 O   0  0  0  0  0  0  0  0  0  0  0  0
   22.8679   -9.2134  -12.8673 C   0  0  0  0  0  0  0  0  0  0  0  0
   22.2561   -9.7094  -14.1582 C   0  0  2  0  0  0  0  0  0  0  0  0
   23.3971   -9.8556  -15.1443 C   0  0  0  0  0  0  0  0  0  0  0  0
   21.2446   -8.7826  -14.7281 C   0  0  2  0  0  0  0  0  0  0  0  0
   20.6406   -9.2785  -15.9523 N   0  0  0  0  0  0  0  0  0  0  0  0
   21.8682   -7.4512  -14.9381 C   0  0  0  0  0  0  0  0  0  0  0  0
   22.1575   -6.6462  -13.8501 O   0  0  0  0  0  0  0  0  0  0  0  0
   22.1501   -7.0140  -16.0742 O   0  0  0  0  0  0  0  0  0  0  0  0
  2  1  1  6
  2  3  1  0
  3  4  1  0
  4  5  2  0
  6  9  1  0
  6  2  1  0
  7  6  2  0
  8  4  1  0
 10  9  1  0
 11 12  2  0
 11 10  1  0
 14 13  1  1
 15 14  1  0
 16 14  1  0
 16 17  1  6
 17 11  1  0
 18 16  1  0
 19 18  1  0
 20 18  2  0
M  END
$$$$
