DGV.pdb
     RDKit          3D

 20 19  0  0  1  0  0  0  0  0999 V2000
   23.7366  -17.2699  -17.8162 N   0  0  0  0  0  0  0  0  0  0  0  0
   24.7930  -16.3257  -17.6510 C   0  0  1  0  0  0  0  0  0  0  0  0
   24.2933  -14.8981  -17.5612 C   0  0  0  0  0  0  0  0  0  0  0  0
   22.9607  -14.7581  -18.1889 C   0  0  0  0  0  0  0  0  0  0  0  0
   22.8425  -15.0746  -19.3986 O   0  0  0  0  0  0  0  0  0  0  0  0
   25.7150  -16.6509  -16.5344 C   0  0  0  0  0  0  0  0  0  0  0  0
   26.5843  -15.8041  -16.2090 O   0  0  0  0  0  0  0  0  0  0  0  0
   21.8549  -14.2970  -17.4997 O   0  0  0  0  0  0  0  0  0  0  0  0
   25.6547  -17.8882  -15.8139 N   0  0  0  0  0  0  0  0  0  0  0  0
   26.4855  -18.2342  -14.7156 C   0  0  0  0  0  0  0  0  0  0  0  0
   26.1530  -19.4977  -14.0287 C   0  0  0  0  0  0  0  0  0  0  0  0
   25.7809  -20.5317  -14.6863 O   0  0  0  0  0  0  0  0  0  0  0  0
   25.9130  -22.0551   -9.7372 C   0  0  0  0  0  0  0  0  0  0  0  0
   26.2839  -20.7981  -10.4917 C   0  0  2  0  0  0  0  0  0  0  0  0
   25.6321  -19.6471   -9.7525 C   0  0  0  0  0  0  0  0  0  0  0  0
   25.8123  -20.7926  -11.9004 C   0  0  2  0  0  0  0  0  0  0  0  0
   26.2281  -19.6123  -12.6377 N   0  0  0  0  0  0  0  0  0  0  0  0
   24.3351  -20.9450  -11.9197 C   0  0  0  0  0  0  0  0  0  0  0  0
   23.7724  -22.2094  -11.9062 O   0  0  0  0  0  0  0  0  0  0  0  0
   23.5599  -19.9655  -11.9482 O   0  0  0  0  0  0  0  0  0  0  0  0
  2  1  1  1
  2  3  1  0
  3  4  1  0
  4  5  2  0
  6  9  1  0
  6  2  1  0
  7  6  2  0
  8  4  1  0
 10  9  1  0
 11 12  2  0
 11 10  1  0
 14 13  1  1
 15 14  1  0
 16 14  1  0
 16 17  1  1
 17 11  1  0
 18 16  1  0
 19 18  1  0
 20 18  2  0
M  END
$$$$
