DGV.pdb
     RDKit          3D

 20 19  0  0  1  0  0  0  0  0999 V2000
   19.1829  -12.1732  -18.1696 N   0  0  0  0  0  0  0  0  0  0  0  0
   18.7697  -11.4777  -16.9947 C   0  0  1  0  0  0  0  0  0  0  0  0
   17.8213  -12.2902  -16.1368 C   0  0  0  0  0  0  0  0  0  0  0  0
   16.4556  -12.2935  -16.7062 C   0  0  0  0  0  0  0  0  0  0  0  0
   16.2575  -11.6514  -17.7673 O   0  0  0  0  0  0  0  0  0  0  0  0
   19.8960  -10.9340  -16.1958 C   0  0  0  0  0  0  0  0  0  0  0  0
   21.0175  -11.4938  -16.2823 O   0  0  0  0  0  0  0  0  0  0  0  0
   15.4028  -12.9698  -16.1190 O   0  0  0  0  0  0  0  0  0  0  0  0
   19.7574   -9.7991  -15.3317 N   0  0  0  0  0  0  0  0  0  0  0  0
   20.8176   -9.1865  -14.6128 C   0  0  0  0  0  0  0  0  0  0  0  0
   21.2589   -7.8696  -15.1126 C   0  0  0  0  0  0  0  0  0  0  0  0
   21.2550   -7.6005  -16.3647 O   0  0  0  0  0  0  0  0  0  0  0  0
   19.5277   -4.7968  -14.0112 C   0  0  0  0  0  0  0  0  0  0  0  0
   20.5964   -4.8470  -15.0799 C   0  0  2  0  0  0  0  0  0  0  0  0
   20.0244   -5.6661  -16.2192 C   0  0  0  0  0  0  0  0  0  0  0  0
   21.8612   -5.4780  -14.6228 C   0  0  2  0  0  0  0  0  0  0  0  0
   21.7000   -6.8700  -14.2408 N   0  0  0  0  0  0  0  0  0  0  0  0
   22.4292   -4.6777  -13.5081 C   0  0  0  0  0  0  0  0  0  0  0  0
   22.9592   -3.4242  -13.7598 O   0  0  0  0  0  0  0  0  0  0  0  0
   22.4519   -5.0908  -12.3291 O   0  0  0  0  0  0  0  0  0  0  0  0
  2  1  1  6
  2  3  1  0
  3  4  1  0
  4  5  2  0
  6  9  1  0
  6  2  1  0
  7  6  2  0
  8  4  1  0
 10  9  1  0
 11 12  2  0
 11 10  1  0
 14 13  1  1
 15 14  1  0
 16 14  1  0
 16 17  1  1
 17 11  1  0
 18 16  1  0
 19 18  1  0
 20 18  2  0
M  END
$$$$
