HKL.pdb
     RDKit          3D

 28 28  0  0  1  0  0  0  0  0999 V2000
   19.1664  -16.9316  -16.1226 N   0  0  0  0  0  0  0  0  0  0  0  0
   20.4746  -17.1657  -16.7877 C   0  0  1  0  0  0  0  0  0  0  0  0
   20.9930  -15.8618  -17.2870 C   0  0  0  0  0  0  0  0  0  0  0  0
   20.2600  -15.2700  -18.4140 C   0  0  0  0  0  0  0  0  0  0  0  0
   20.6666  -15.1983  -19.7384 C   0  0  0  0  0  0  0  0  0  0  0  0
   19.7053  -14.5817  -20.4395 N   0  0  0  0  0  0  0  0  0  0  0  0
   18.7018  -14.2565  -19.6195 C   0  0  0  0  0  0  0  0  0  0  0  0
   19.0688  -14.6904  -18.3841 N   0  0  0  0  0  0  0  0  0  0  0  0
   21.3787  -17.8233  -15.7780 C   0  0  0  0  0  0  0  0  0  0  0  0
   21.7733  -17.2668  -14.7318 O   0  0  0  0  0  0  0  0  0  0  0  0
   21.8402  -19.1580  -15.9798 N   0  0  0  0  0  0  0  0  0  0  0  0
   22.5564  -19.8937  -14.9166 C   0  0  1  0  0  0  0  0  0  0  0  0
   21.8933  -21.1932  -14.6390 C   0  0  0  0  0  0  0  0  0  0  0  0
   20.5078  -21.0069  -14.0935 C   0  0  0  0  0  0  0  0  0  0  0  0
   20.3242  -21.6111  -12.7163 C   0  0  0  0  0  0  0  0  0  0  0  0
   18.8677  -21.4623  -12.3154 C   0  0  0  0  0  0  0  0  0  0  0  0
   18.6763  -21.8349  -10.9329 N   0  0  0  0  0  0  0  0  0  0  0  0
   23.9501  -20.0130  -15.4215 C   0  0  0  0  0  0  0  0  0  0  0  0
   24.2094  -20.4803  -16.5809 O   0  0  0  0  0  0  0  0  0  0  0  0
   26.6404  -17.2624  -16.8702 C   0  0  0  0  0  0  0  0  0  0  0  0
   26.8833  -17.2513  -15.3714 C   0  0  2  0  0  0  0  0  0  0  0  0
   27.6091  -16.0424  -14.9368 C   0  0  0  0  0  0  0  0  0  0  0  0
   27.2504  -18.5594  -14.8031 C   0  0  0  0  0  0  0  0  0  0  0  0
   26.4354  -19.7442  -15.2033 C   0  0  2  0  0  0  0  0  0  0  0  0
   25.0778  -19.6232  -14.6664 N   0  0  0  0  0  0  0  0  0  0  0  0
   27.0098  -21.0486  -14.8905 C   0  0  0  0  0  0  0  0  0  0  0  0
   26.6011  -21.8866  -14.0582 O   0  0  0  0  0  0  0  0  0  0  0  0
   28.1762  -21.4508  -15.5974 O   0  0  0  0  0  0  0  0  0  0  0  0
  2  1  1  1
  3  2  1  0
  4  5  2  0
  4  3  1  0
  6  5  1  0
  7  8  2  0
  7  6  1  0
  8  4  1  0
  9 11  1  0
  9  2  1  0
 10  9  2  0
 12 11  1  0
 12 13  1  6
 13 14  1  0
 14 15  1  0
 15 16  1  0
 17 16  1  0
 18 12  1  0
 19 18  2  0
 21 23  1  0
 21 20  1  6
 22 21  1  0
 24 23  1  1
 24 26  1  0
 24 25  1  0
 25 18  1  0
 26 28  1  0
 27 26  2  0
M  END
$$$$
