HKL.pdb
     RDKit          3D

 28 28  0  0  1  0  0  0  0  0999 V2000
   19.6249  -14.2560  -20.2390 N   0  0  0  0  0  0  0  0  0  0  0  0
   20.4604  -13.9426  -19.0506 C   0  0  1  0  0  0  0  0  0  0  0  0
   21.8834  -13.8537  -19.4812 C   0  0  0  0  0  0  0  0  0  0  0  0
   22.4787  -15.0976  -19.9873 C   0  0  0  0  0  0  0  0  0  0  0  0
   22.7990  -16.2346  -19.2598 C   0  0  0  0  0  0  0  0  0  0  0  0
   23.3202  -17.1378  -20.1015 N   0  0  0  0  0  0  0  0  0  0  0  0
   23.3465  -16.6264  -21.3355 C   0  0  0  0  0  0  0  0  0  0  0  0
   22.8247  -15.3746  -21.2359 N   0  0  0  0  0  0  0  0  0  0  0  0
   19.9325  -12.6625  -18.4574 C   0  0  0  0  0  0  0  0  0  0  0  0
   19.7857  -11.6048  -19.1052 O   0  0  0  0  0  0  0  0  0  0  0  0
   19.5639  -12.6001  -17.0807 N   0  0  0  0  0  0  0  0  0  0  0  0
   18.9650  -11.3804  -16.4988 C   0  0  1  0  0  0  0  0  0  0  0  0
   18.1897  -11.7083  -15.2754 C   0  0  0  0  0  0  0  0  0  0  0  0
   16.8547  -12.3090  -15.6054 C   0  0  0  0  0  0  0  0  0  0  0  0
   15.9996  -12.5676  -14.3818 C   0  0  0  0  0  0  0  0  0  0  0  0
   14.7236  -13.2608  -14.8237 C   0  0  0  0  0  0  0  0  0  0  0  0
   13.8041  -13.3951  -13.7177 N   0  0  0  0  0  0  0  0  0  0  0  0
   20.1205  -10.4736  -16.2668 C   0  0  0  0  0  0  0  0  0  0  0  0
   21.3182  -10.9107  -16.2025 O   0  0  0  0  0  0  0  0  0  0  0  0
   24.2488   -7.6754  -16.7893 C   0  0  0  0  0  0  0  0  0  0  0  0
   22.9821   -7.2383  -17.5034 C   0  0  2  0  0  0  0  0  0  0  0  0
   22.7551   -5.7849  -17.3884 C   0  0  0  0  0  0  0  0  0  0  0  0
   21.8458   -8.1627  -17.3511 C   0  0  0  0  0  0  0  0  0  0  0  0
   21.1509   -8.1978  -16.0305 C   0  0  2  0  0  0  0  0  0  0  0  0
   19.9822   -9.0780  -16.1023 N   0  0  0  0  0  0  0  0  0  0  0  0
   20.7984   -6.9016  -15.4605 C   0  0  0  0  0  0  0  0  0  0  0  0
   19.6962   -6.3147  -15.5144 O   0  0  0  0  0  0  0  0  0  0  0  0
   21.8036   -6.1894  -14.7505 O   0  0  0  0  0  0  0  0  0  0  0  0
  2  1  1  6
  3  2  1  0
  4  5  2  0
  4  3  1  0
  6  5  1  0
  7  8  2  0
  7  6  1  0
  8  4  1  0
  9 11  1  0
  9  2  1  0
 10  9  2  0
 12 11  1  0
 12 13  1  1
 13 14  1  0
 14 15  1  0
 15 16  1  0
 17 16  1  0
 18 12  1  0
 19 18  2  0
 21 23  1  0
 21 20  1  1
 22 21  1  0
 24 23  1  6
 24 26  1  0
 24 25  1  0
 25 18  1  0
 26 28  1  0
 27 26  2  0
M  END
$$$$
