HKL.pdb
     RDKit          3D

 28 28  0  0  1  0  0  0  0  0999 V2000
   15.2081  -13.1452  -16.7490 N   0  0  0  0  0  0  0  0  0  0  0  0
   15.3422  -11.6761  -16.9290 C   0  0  1  0  0  0  0  0  0  0  0  0
   14.6603  -10.9949  -15.7937 C   0  0  0  0  0  0  0  0  0  0  0  0
   13.1982  -11.1294  -15.7504 C   0  0  0  0  0  0  0  0  0  0  0  0
   12.2767  -10.5946  -16.6389 C   0  0  0  0  0  0  0  0  0  0  0  0
   11.0498  -10.9547  -16.2378 N   0  0  0  0  0  0  0  0  0  0  0  0
   11.1481  -11.6967  -15.1311 C   0  0  0  0  0  0  0  0  0  0  0  0
   12.4765  -11.7876  -14.8551 N   0  0  0  0  0  0  0  0  0  0  0  0
   16.8143  -11.3684  -17.0160 C   0  0  0  0  0  0  0  0  0  0  0  0
   17.6695  -11.8360  -16.2350 O   0  0  0  0  0  0  0  0  0  0  0  0
   17.3138  -10.4985  -18.0302 N   0  0  0  0  0  0  0  0  0  0  0  0
   18.7627  -10.2527  -18.1885 C   0  0  1  0  0  0  0  0  0  0  0  0
   19.0566   -9.6913  -19.5315 C   0  0  0  0  0  0  0  0  0  0  0  0
   20.5226   -9.4301  -19.7181 C   0  0  0  0  0  0  0  0  0  0  0  0
   20.8593   -8.8803  -21.0891 C   0  0  0  0  0  0  0  0  0  0  0  0
   22.3655   -8.7186  -21.1866 C   0  0  0  0  0  0  0  0  0  0  0  0
   22.9152   -9.6228  -22.1699 N   0  0  0  0  0  0  0  0  0  0  0  0
   19.1123   -9.3517  -17.0583 C   0  0  0  0  0  0  0  0  0  0  0  0
   18.2753   -8.5150  -16.5794 O   0  0  0  0  0  0  0  0  0  0  0  0
   22.5661   -8.4008  -12.6810 C   0  0  0  0  0  0  0  0  0  0  0  0
   21.0904   -8.7476  -12.7672 C   0  0  2  0  0  0  0  0  0  0  0  0
   20.5709   -9.2784  -11.4922 C   0  0  0  0  0  0  0  0  0  0  0  0
   20.6854   -9.3809  -14.0336 C   0  0  0  0  0  0  0  0  0  0  0  0
   20.6543   -8.5280  -15.2581 C   0  0  2  0  0  0  0  0  0  0  0  0
   20.3803   -9.3533  -16.4370 N   0  0  0  0  0  0  0  0  0  0  0  0
   21.8198   -7.6765  -15.4721 C   0  0  0  0  0  0  0  0  0  0  0  0
   22.1004   -6.6026  -14.8975 O   0  0  0  0  0  0  0  0  0  0  0  0
   22.7744   -8.0841  -16.4439 O   0  0  0  0  0  0  0  0  0  0  0  0
  2  1  1  1
  3  2  1  0
  4  5  2  0
  4  3  1  0
  6  5  1  0
  7  8  2  0
  7  6  1  0
  8  4  1  0
  9 11  1  0
  9  2  1  0
 10  9  2  0
 12 11  1  0
 12 13  1  6
 13 14  1  0
 14 15  1  0
 15 16  1  0
 17 16  1  0
 18 12  1  0
 19 18  2  0
 21 23  1  0
 21 20  1  1
 22 21  1  0
 24 23  1  1
 24 26  1  0
 24 25  1  0
 25 18  1  0
 26 28  1  0
 27 26  2  0
M  END
$$$$
