HKL.pdb
     RDKit          3D

 28 28  0  0  1  0  0  0  0  0999 V2000
   20.4003  -20.2460  -15.6814 N   0  0  0  0  0  0  0  0  0  0  0  0
   21.2493  -19.2770  -14.9408 C   0  0  1  0  0  0  0  0  0  0  0  0
   20.4695  -18.7475  -13.7878 C   0  0  0  0  0  0  0  0  0  0  0  0
   19.3576  -17.8488  -14.1248 C   0  0  0  0  0  0  0  0  0  0  0  0
   18.0020  -18.0815  -13.9434 C   0  0  0  0  0  0  0  0  0  0  0  0
   17.3298  -17.0088  -14.3829 N   0  0  0  0  0  0  0  0  0  0  0  0
   18.1981  -16.1006  -14.8374 C   0  0  0  0  0  0  0  0  0  0  0  0
   19.4337  -16.6421  -14.6669 N   0  0  0  0  0  0  0  0  0  0  0  0
   22.5049  -20.0026  -14.5328 C   0  0  0  0  0  0  0  0  0  0  0  0
   22.5167  -21.0112  -13.7963 O   0  0  0  0  0  0  0  0  0  0  0  0
   23.7808  -19.5534  -14.9859 N   0  0  0  0  0  0  0  0  0  0  0  0
   25.0199  -20.2826  -14.6428 C   0  0  1  0  0  0  0  0  0  0  0  0
   26.0732  -20.0361  -15.6601 C   0  0  0  0  0  0  0  0  0  0  0  0
   25.8340  -20.8264  -16.9132 C   0  0  0  0  0  0  0  0  0  0  0  0
   26.8678  -20.5636  -17.9890 C   0  0  0  0  0  0  0  0  0  0  0  0
   26.4894  -21.3589  -19.2253 C   0  0  0  0  0  0  0  0  0  0  0  0
   26.7201  -22.7696  -19.0174 N   0  0  0  0  0  0  0  0  0  0  0  0
   25.3647  -19.8067  -13.2767 C   0  0  0  0  0  0  0  0  0  0  0  0
   25.4825  -18.5649  -13.0051 O   0  0  0  0  0  0  0  0  0  0  0  0
   26.5296  -21.0561   -7.3768 C   0  0  0  0  0  0  0  0  0  0  0  0
   26.9895  -20.4267   -8.6797 C   0  0  2  0  0  0  0  0  0  0  0  0
   27.5728  -19.0873   -8.4722 C   0  0  0  0  0  0  0  0  0  0  0  0
   26.0852  -20.6536   -9.8197 C   0  0  0  0  0  0  0  0  0  0  0  0
   26.6222  -20.4122  -11.1913 C   0  0  2  0  0  0  0  0  0  0  0  0
   25.5851  -20.6814  -12.1903 N   0  0  0  0  0  0  0  0  0  0  0  0
   27.8628  -21.1057  -11.5218 C   0  0  0  0  0  0  0  0  0  0  0  0
   27.9976  -22.1799  -12.1465 O   0  0  0  0  0  0  0  0  0  0  0  0
   29.0876  -20.5199  -11.0992 O   0  0  0  0  0  0  0  0  0  0  0  0
  2  1  1  1
  3  2  1  0
  4  5  2  0
  4  3  1  0
  6  5  1  0
  7  8  2  0
  7  6  1  0
  8  4  1  0
  9 11  1  0
  9  2  1  0
 10  9  2  0
 12 11  1  0
 12 13  1  6
 13 14  1  0
 14 15  1  0
 15 16  1  0
 17 16  1  0
 18 12  1  0
 19 18  2  0
 21 23  1  0
 21 20  1  1
 22 21  1  0
 24 23  1  1
 24 26  1  0
 24 25  1  0
 25 18  1  0
 26 28  1  0
 27 26  2  0
M  END
$$$$
