HKL.pdb
     RDKit          3D

 28 28  0  0  1  0  0  0  0  0999 V2000
   28.7969  -21.1551  -18.4937 N   0  0  0  0  0  0  0  0  0  0  0  0
   28.0809  -21.8318  -17.3811 C   0  0  1  0  0  0  0  0  0  0  0  0
   29.0895  -22.4001  -16.4441 C   0  0  0  0  0  0  0  0  0  0  0  0
   29.8688  -23.5363  -16.9534 C   0  0  0  0  0  0  0  0  0  0  0  0
   29.5454  -24.8829  -16.8727 C   0  0  0  0  0  0  0  0  0  0  0  0
   30.5239  -25.5851  -17.4604 N   0  0  0  0  0  0  0  0  0  0  0  0
   31.4585  -24.7446  -17.9131 C   0  0  0  0  0  0  0  0  0  0  0  0
   31.0310  -23.4952  -17.5885 N   0  0  0  0  0  0  0  0  0  0  0  0
   27.1782  -20.8090  -16.7421 C   0  0  0  0  0  0  0  0  0  0  0  0
   27.5596  -19.6775  -16.3759 O   0  0  0  0  0  0  0  0  0  0  0  0
   25.7992  -21.0985  -16.5193 N   0  0  0  0  0  0  0  0  0  0  0  0
   24.9112  -20.1348  -15.8356 C   0  0  1  0  0  0  0  0  0  0  0  0
   23.6987  -19.8684  -16.6505 C   0  0  0  0  0  0  0  0  0  0  0  0
   22.7404  -18.9559  -15.9425 C   0  0  0  0  0  0  0  0  0  0  0  0
   21.4625  -18.7159  -16.7201 C   0  0  0  0  0  0  0  0  0  0  0  0
   20.6148  -17.7147  -15.9564 C   0  0  0  0  0  0  0  0  0  0  0  0
   19.3944  -17.4248  -16.6728 N   0  0  0  0  0  0  0  0  0  0  0  0
   24.6358  -20.7570  -14.5133 C   0  0  0  0  0  0  0  0  0  0  0  0
   24.2401  -21.9660  -14.4065 O   0  0  0  0  0  0  0  0  0  0  0  0
   25.7411  -19.8158   -8.4897 C   0  0  0  0  0  0  0  0  0  0  0  0
   25.1942  -20.7195   -9.5805 C   0  0  2  0  0  0  0  0  0  0  0  0
   25.4399  -22.1457   -9.2930 C   0  0  0  0  0  0  0  0  0  0  0  0
   25.3918  -20.2125  -10.9490 C   0  0  0  0  0  0  0  0  0  0  0  0
   24.4616  -20.6979  -12.0107 C   0  0  2  0  0  0  0  0  0  0  0  0
   24.7893  -20.0664  -13.2912 N   0  0  0  0  0  0  0  0  0  0  0  0
   23.0377  -20.5780  -11.7148 C   0  0  0  0  0  0  0  0  0  0  0  0
   22.3034  -21.4054  -11.1332 O   0  0  0  0  0  0  0  0  0  0  0  0
   22.3694  -19.3907  -12.1217 O   0  0  0  0  0  0  0  0  0  0  0  0
  2  1  1  6
  3  2  1  0
  4  5  2  0
  4  3  1  0
  6  5  1  0
  7  8  2  0
  7  6  1  0
  8  4  1  0
  9 11  1  0
  9  2  1  0
 10  9  2  0
 12 11  1  0
 12 13  1  6
 13 14  1  0
 14 15  1  0
 15 16  1  0
 17 16  1  0
 18 12  1  0
 19 18  2  0
 21 23  1  0
 21 20  1  1
 22 21  1  0
 24 23  1  1
 24 26  1  0
 24 25  1  0
 25 18  1  0
 26 28  1  0
 27 26  2  0
M  END
$$$$
