HKL.pdb
     RDKit          3D

 28 28  0  0  1  0  0  0  0  0999 V2000
   22.2487   -9.6237  -21.5114 N   0  0  0  0  0  0  0  0  0  0  0  0
   22.0311  -10.5709  -20.3872 C   0  0  1  0  0  0  0  0  0  0  0  0
   23.3405  -10.8339  -19.7282 C   0  0  0  0  0  0  0  0  0  0  0  0
   24.2786  -11.6776  -20.4804 C   0  0  0  0  0  0  0  0  0  0  0  0
   24.9386  -11.3594  -21.6584 C   0  0  0  0  0  0  0  0  0  0  0  0
   25.6986  -12.4060  -22.0091 N   0  0  0  0  0  0  0  0  0  0  0  0
   25.5522  -13.3792  -21.1055 C   0  0  0  0  0  0  0  0  0  0  0  0
   24.6760  -12.9053  -20.1798 N   0  0  0  0  0  0  0  0  0  0  0  0
   21.0118   -9.9489  -19.4687 C   0  0  0  0  0  0  0  0  0  0  0  0
   20.9195   -8.7204  -19.2632 O   0  0  0  0  0  0  0  0  0  0  0  0
   20.0741  -10.7648  -18.7687 N   0  0  0  0  0  0  0  0  0  0  0  0
   18.9883  -10.1699  -17.9613 C   0  0  1  0  0  0  0  0  0  0  0  0
   17.9289  -11.1732  -17.6853 C   0  0  0  0  0  0  0  0  0  0  0  0
   16.8819  -10.6367  -16.7536 C   0  0  0  0  0  0  0  0  0  0  0  0
   15.5596  -10.3611  -17.4397 C   0  0  0  0  0  0  0  0  0  0  0  0
   14.5914   -9.8023  -16.4128 C   0  0  0  0  0  0  0  0  0  0  0  0
   14.4641  -10.6991  -15.2875 N   0  0  0  0  0  0  0  0  0  0  0  0
   19.6708   -9.6501  -16.7466 C   0  0  0  0  0  0  0  0  0  0  0  0
   20.7182  -10.2049  -16.2723 O   0  0  0  0  0  0  0  0  0  0  0  0
   21.5363   -6.9559  -12.8267 C   0  0  0  0  0  0  0  0  0  0  0  0
   21.8064   -6.4258  -14.2236 C   0  0  2  0  0  0  0  0  0  0  0  0
   22.0688   -4.9737  -14.2237 C   0  0  0  0  0  0  0  0  0  0  0  0
   20.9518   -7.0069  -15.2727 C   0  0  0  0  0  0  0  0  0  0  0  0
   19.9342   -8.0176  -14.8592 C   0  0  2  0  0  0  0  0  0  0  0  0
   19.2178   -8.5177  -16.0349 N   0  0  0  0  0  0  0  0  0  0  0  0
   19.0040   -7.5966  -13.8167 C   0  0  0  0  0  0  0  0  0  0  0  0
   18.9961   -7.9357  -12.6137 O   0  0  0  0  0  0  0  0  0  0  0  0
   17.9671   -6.6914  -14.1737 O   0  0  0  0  0  0  0  0  0  0  0  0
  2  1  1  6
  3  2  1  0
  4  5  2  0
  4  3  1  0
  6  5  1  0
  7  8  2  0
  7  6  1  0
  8  4  1  0
  9 11  1  0
  9  2  1  0
 10  9  2  0
 12 11  1  0
 12 13  1  1
 13 14  1  0
 14 15  1  0
 15 16  1  0
 17 16  1  0
 18 12  1  0
 19 18  2  0
 21 23  1  0
 21 20  1  1
 22 21  1  0
 24 23  1  6
 24 26  1  0
 24 25  1  0
 25 18  1  0
 26 28  1  0
 27 26  2  0
M  END
$$$$
