HKL.pdb
     RDKit          3D

 28 28  0  0  1  0  0  0  0  0999 V2000
   23.0937  -18.2980  -17.4646 N   0  0  0  0  0  0  0  0  0  0  0  0
   22.1123  -18.9786  -16.5802 C   0  0  1  0  0  0  0  0  0  0  0  0
   21.1606  -19.7466  -17.4302 C   0  0  0  0  0  0  0  0  0  0  0  0
   20.2241  -18.9449  -18.2289 C   0  0  0  0  0  0  0  0  0  0  0  0
   20.4914  -17.7634  -18.9051 C   0  0  0  0  0  0  0  0  0  0  0  0
   19.3639  -17.3602  -19.5067 N   0  0  0  0  0  0  0  0  0  0  0  0
   18.3876  -18.2336  -19.2437 C   0  0  0  0  0  0  0  0  0  0  0  0
   18.9432  -19.1948  -18.4584 N   0  0  0  0  0  0  0  0  0  0  0  0
   22.8942  -19.8420  -15.6250 C   0  0  0  0  0  0  0  0  0  0  0  0
   22.4247  -20.8495  -15.0552 O   0  0  0  0  0  0  0  0  0  0  0  0
   24.2533  -19.5359  -15.3185 N   0  0  0  0  0  0  0  0  0  0  0  0
   25.0360  -20.3657  -14.3784 C   0  0  1  0  0  0  0  0  0  0  0  0
   26.4296  -20.5352  -14.8625 C   0  0  0  0  0  0  0  0  0  0  0  0
   26.4963  -21.4236  -16.0701 C   0  0  0  0  0  0  0  0  0  0  0  0
   27.9126  -21.6798  -16.5430 C   0  0  0  0  0  0  0  0  0  0  0  0
   27.8533  -22.4943  -17.8225 C   0  0  0  0  0  0  0  0  0  0  0  0
   29.1829  -22.7974  -18.2990 N   0  0  0  0  0  0  0  0  0  0  0  0
   24.9223  -19.6583  -13.0753 C   0  0  0  0  0  0  0  0  0  0  0  0
   24.3664  -18.5133  -12.9761 O   0  0  0  0  0  0  0  0  0  0  0  0
   22.2365  -18.9119  -10.1847 C   0  0  0  0  0  0  0  0  0  0  0  0
   22.0235  -20.1661  -11.0135 C   0  0  2  0  0  0  0  0  0  0  0  0
   20.7348  -20.8178  -10.7106 C   0  0  0  0  0  0  0  0  0  0  0  0
   23.2292  -20.9932  -11.1896 C   0  0  0  0  0  0  0  0  0  0  0  0
   24.5308  -20.4328  -10.7208 C   0  0  2  0  0  0  0  0  0  0  0  0
   25.4142  -20.1927  -11.8644 N   0  0  0  0  0  0  0  0  0  0  0  0
   25.2143  -21.1925   -9.6792 C   0  0  0  0  0  0  0  0  0  0  0  0
   25.3581  -22.4318   -9.6036 O   0  0  0  0  0  0  0  0  0  0  0  0
   25.8007  -20.4713   -8.6032 O   0  0  0  0  0  0  0  0  0  0  0  0
  2  1  1  6
  3  2  1  0
  4  5  2  0
  4  3  1  0
  6  5  1  0
  7  8  2  0
  7  6  1  0
  8  4  1  0
  9 11  1  0
  9  2  1  0
 10  9  2  0
 12 11  1  0
 12 13  1  6
 13 14  1  0
 14 15  1  0
 15 16  1  0
 17 16  1  0
 18 12  1  0
 19 18  2  0
 21 23  1  0
 21 20  1  1
 22 21  1  0
 24 23  1  6
 24 26  1  0
 24 25  1  0
 25 18  1  0
 26 28  1  0
 27 26  2  0
M  END
$$$$
