HKL.pdb
     RDKit          3D

 28 28  0  0  1  0  0  0  0  0999 V2000
   27.8257  -23.8030  -16.3187 N   0  0  0  0  0  0  0  0  0  0  0  0
   26.3476  -23.8812  -16.4521 C   0  0  1  0  0  0  0  0  0  0  0  0
   25.8639  -25.0625  -15.6851 C   0  0  0  0  0  0  0  0  0  0  0  0
   26.2757  -26.3745  -16.2016 C   0  0  0  0  0  0  0  0  0  0  0  0
   25.5226  -27.2520  -16.9679 C   0  0  0  0  0  0  0  0  0  0  0  0
   26.2718  -28.3327  -17.2259 N   0  0  0  0  0  0  0  0  0  0  0  0
   27.4715  -28.1830  -16.6571 C   0  0  0  0  0  0  0  0  0  0  0  0
   27.4459  -26.9736  -16.0359 N   0  0  0  0  0  0  0  0  0  0  0  0
   25.7839  -22.5742  -15.9588 C   0  0  0  0  0  0  0  0  0  0  0  0
   26.2109  -21.9683  -14.9536 O   0  0  0  0  0  0  0  0  0  0  0  0
   24.6992  -21.9491  -16.6426 N   0  0  0  0  0  0  0  0  0  0  0  0
   24.2257  -20.6008  -16.2646 C   0  0  1  0  0  0  0  0  0  0  0  0
   23.8421  -19.8220  -17.4694 C   0  0  0  0  0  0  0  0  0  0  0  0
   23.3453  -18.4516  -17.1126 C   0  0  0  0  0  0  0  0  0  0  0  0
   22.8918  -17.6509  -18.3162 C   0  0  0  0  0  0  0  0  0  0  0  0
   22.4029  -16.2961  -17.8371 C   0  0  0  0  0  0  0  0  0  0  0  0
   22.0021  -15.4719  -18.9536 N   0  0  0  0  0  0  0  0  0  0  0  0
   23.1081  -20.8519  -15.3163 C   0  0  0  0  0  0  0  0  0  0  0  0
   22.2869  -21.8153  -15.4820 O   0  0  0  0  0  0  0  0  0  0  0  0
   20.4019  -21.7241  -10.9586 C   0  0  0  0  0  0  0  0  0  0  0  0
   21.1712  -20.4236  -10.8097 C   0  0  2  0  0  0  0  0  0  0  0  0
   20.3026  -19.3131  -10.3742 C   0  0  0  0  0  0  0  0  0  0  0  0
   22.1780  -20.1867  -11.8581 C   0  0  0  0  0  0  0  0  0  0  0  0
   21.7433  -20.3145  -13.2803 C   0  0  2  0  0  0  0  0  0  0  0  0
   22.8734  -20.0540  -14.1752 N   0  0  0  0  0  0  0  0  0  0  0  0
   20.5766  -19.5265  -13.6640 C   0  0  0  0  0  0  0  0  0  0  0  0
   19.3738  -19.8621  -13.6110 O   0  0  0  0  0  0  0  0  0  0  0  0
   20.7936  -18.2130  -14.1633 O   0  0  0  0  0  0  0  0  0  0  0  0
  2  1  1  1
  3  2  1  0
  4  5  2  0
  4  3  1  0
  6  5  1  0
  7  8  2  0
  7  6  1  0
  8  4  1  0
  9 11  1  0
  9  2  1  0
 10  9  2  0
 12 11  1  0
 12 13  1  6
 13 14  1  0
 14 15  1  0
 15 16  1  0
 17 16  1  0
 18 12  1  0
 19 18  2  0
 21 23  1  0
 21 20  1  6
 22 21  1  0
 24 23  1  1
 24 26  1  0
 24 25  1  0
 25 18  1  0
 26 28  1  0
 27 26  2  0
M  END
$$$$
