HKL.pdb
     RDKit          3D

 28 28  0  0  1  0  0  0  0  0999 V2000
   24.4492  -12.0757  -18.3289 N   0  0  0  0  0  0  0  0  0  0  0  0
   23.9628  -11.8157  -16.9489 C   0  0  1  0  0  0  0  0  0  0  0  0
   25.0961  -11.2909  -16.1375 C   0  0  0  0  0  0  0  0  0  0  0  0
   26.2410  -12.1966  -15.9744 C   0  0  0  0  0  0  0  0  0  0  0  0
   26.3245  -13.3079  -15.1482 C   0  0  0  0  0  0  0  0  0  0  0  0
   27.5395  -13.8527  -15.2998 N   0  0  0  0  0  0  0  0  0  0  0  0
   28.2356  -13.1369  -16.1875 C   0  0  0  0  0  0  0  0  0  0  0  0
   27.4151  -12.1278  -16.5847 N   0  0  0  0  0  0  0  0  0  0  0  0
   22.8066  -10.8560  -17.0552 C   0  0  0  0  0  0  0  0  0  0  0  0
   22.8405   -9.7974  -17.7171 O   0  0  0  0  0  0  0  0  0  0  0  0
   21.5785  -11.1238  -16.3805 N   0  0  0  0  0  0  0  0  0  0  0  0
   20.3917  -10.2637  -16.5718 C   0  0  1  0  0  0  0  0  0  0  0  0
   19.1461  -11.0117  -16.2650 C   0  0  0  0  0  0  0  0  0  0  0  0
   17.9307  -10.1377  -16.3702 C   0  0  0  0  0  0  0  0  0  0  0  0
   16.6420  -10.8705  -16.0576 C   0  0  0  0  0  0  0  0  0  0  0  0
   15.4810   -9.9167  -16.2736 C   0  0  0  0  0  0  0  0  0  0  0  0
   14.2454  -10.4989  -15.8037 N   0  0  0  0  0  0  0  0  0  0  0  0
   20.6358   -9.0923  -15.6888 C   0  0  0  0  0  0  0  0  0  0  0  0
   21.0637   -9.2266  -14.4935 O   0  0  0  0  0  0  0  0  0  0  0  0
   22.7108   -3.4442  -15.5232 C   0  0  0  0  0  0  0  0  0  0  0  0
   21.8190   -4.4707  -14.8476 C   0  0  2  0  0  0  0  0  0  0  0  0
   22.0902   -4.5733  -13.4008 C   0  0  0  0  0  0  0  0  0  0  0  0
   21.5985   -5.6978  -15.6315 C   0  0  0  0  0  0  0  0  0  0  0  0
   20.5401   -6.6404  -15.1634 C   0  0  2  0  0  0  0  0  0  0  0  0
   20.4155   -7.7596  -16.1004 N   0  0  0  0  0  0  0  0  0  0  0  0
   19.2380   -6.0467  -14.8781 C   0  0  0  0  0  0  0  0  0  0  0  0
   18.2713   -5.9077  -15.6581 O   0  0  0  0  0  0  0  0  0  0  0  0
   19.0022   -5.5554  -13.5647 O   0  0  0  0  0  0  0  0  0  0  0  0
  2  1  1  6
  3  2  1  0
  4  5  2  0
  4  3  1  0
  6  5  1  0
  7  8  2  0
  7  6  1  0
  8  4  1  0
  9 11  1  0
  9  2  1  0
 10  9  2  0
 12 11  1  0
 12 13  1  1
 13 14  1  0
 14 15  1  0
 15 16  1  0
 17 16  1  0
 18 12  1  0
 19 18  2  0
 21 23  1  0
 21 20  1  6
 22 21  1  0
 24 23  1  6
 24 26  1  0
 24 25  1  0
 25 18  1  0
 26 28  1  0
 27 26  2  0
M  END
$$$$
