HKL.pdb
     RDKit          3D

 28 28  0  0  1  0  0  0  0  0999 V2000
   17.0260  -13.3536  -18.2558 N   0  0  0  0  0  0  0  0  0  0  0  0
   17.6020  -12.8160  -16.9958 C   0  0  1  0  0  0  0  0  0  0  0  0
   18.5615  -13.8150  -16.4487 C   0  0  0  0  0  0  0  0  0  0  0  0
   17.9848  -15.1055  -16.0491 C   0  0  0  0  0  0  0  0  0  0  0  0
   17.1779  -15.3631  -14.9504 C   0  0  0  0  0  0  0  0  0  0  0  0
   16.8704  -16.6675  -14.9526 N   0  0  0  0  0  0  0  0  0  0  0  0
   17.4464  -17.2541  -16.0057 C   0  0  0  0  0  0  0  0  0  0  0  0
   18.1232  -16.2729  -16.6603 N   0  0  0  0  0  0  0  0  0  0  0  0
   18.2385  -11.4908  -17.3243 C   0  0  0  0  0  0  0  0  0  0  0  0
   19.0630  -11.3256  -18.2478 O   0  0  0  0  0  0  0  0  0  0  0  0
   17.9157  -10.3250  -16.5682 N   0  0  0  0  0  0  0  0  0  0  0  0
   18.4333   -8.9935  -16.9480 C   0  0  1  0  0  0  0  0  0  0  0  0
   17.3271   -8.0074  -17.0427 C   0  0  0  0  0  0  0  0  0  0  0  0
   16.5562   -8.1553  -18.3217 C   0  0  0  0  0  0  0  0  0  0  0  0
   15.4278   -7.1533  -18.4557 C   0  0  0  0  0  0  0  0  0  0  0  0
   14.6967   -7.4225  -19.7584 C   0  0  0  0  0  0  0  0  0  0  0  0
   13.6331   -6.4654  -19.9562 N   0  0  0  0  0  0  0  0  0  0  0  0
   19.4472   -8.6783  -15.9067 C   0  0  0  0  0  0  0  0  0  0  0  0
   19.1701   -8.7208  -14.6612 O   0  0  0  0  0  0  0  0  0  0  0  0
   23.1171  -10.4073  -14.5539 C   0  0  0  0  0  0  0  0  0  0  0  0
   23.5247   -9.5182  -15.7152 C   0  0  2  0  0  0  0  0  0  0  0  0
   24.8832   -9.8288  -16.2003 C   0  0  0  0  0  0  0  0  0  0  0  0
   23.1073   -8.1121  -15.5830 C   0  0  0  0  0  0  0  0  0  0  0  0
   21.6970   -7.8414  -15.1756 C   0  0  2  0  0  0  0  0  0  0  0  0
   20.7763   -8.3128  -16.2129 N   0  0  0  0  0  0  0  0  0  0  0  0
   21.3967   -6.4659  -14.7919 C   0  0  0  0  0  0  0  0  0  0  0  0
   20.6869   -5.6375  -15.4019 O   0  0  0  0  0  0  0  0  0  0  0  0
   21.9615   -5.9717  -13.5842 O   0  0  0  0  0  0  0  0  0  0  0  0
  2  1  1  6
  3  2  1  0
  4  5  2  0
  4  3  1  0
  6  5  1  0
  7  8  2  0
  7  6  1  0
  8  4  1  0
  9 11  1  0
  9  2  1  0
 10  9  2  0
 12 11  1  0
 12 13  1  1
 13 14  1  0
 14 15  1  0
 15 16  1  0
 17 16  1  0
 18 12  1  0
 19 18  2  0
 21 23  1  0
 21 20  1  1
 22 21  1  0
 24 23  1  6
 24 26  1  0
 24 25  1  0
 25 18  1  0
 26 28  1  0
 27 26  2  0
M  END
$$$$
