HKL.pdb
     RDKit          3D

 28 28  0  0  1  0  0  0  0  0999 V2000
   16.8813  -14.8926    7.4926 N   0  0  0  0  0  0  0  0  0  0  0  0
   17.9956  -15.7340    6.9839 C   0  0  1  0  0  0  0  0  0  0  0  0
   19.1642  -14.8545    6.7032 C   0  0  0  0  0  0  0  0  0  0  0  0
   19.0181  -13.9390    5.5639 C   0  0  0  0  0  0  0  0  0  0  0  0
   19.2508  -12.5714    5.5474 C   0  0  0  0  0  0  0  0  0  0  0  0
   18.9991  -12.1181    4.3116 N   0  0  0  0  0  0  0  0  0  0  0  0
   18.6155  -13.1376    3.5380 C   0  0  0  0  0  0  0  0  0  0  0  0
   18.6363  -14.2416    4.3317 N   0  0  0  0  0  0  0  0  0  0  0  0
   18.2736  -16.7862    8.0256 C   0  0  0  0  0  0  0  0  0  0  0  0
   18.3760  -16.5453    9.2468 O   0  0  0  0  0  0  0  0  0  0  0  0
   18.4379  -18.1524    7.6493 N   0  0  0  0  0  0  0  0  0  0  0  0
   18.7433  -19.1953    8.6513 C   0  0  1  0  0  0  0  0  0  0  0  0
   18.3114  -20.5311    8.1673 C   0  0  0  0  0  0  0  0  0  0  0  0
   16.8275  -20.7165    8.2923 C   0  0  0  0  0  0  0  0  0  0  0  0
   16.3365  -22.0140    7.6834 C   0  0  0  0  0  0  0  0  0  0  0  0
   14.8224  -22.0512    7.7851 C   0  0  0  0  0  0  0  0  0  0  0  0
   14.3012  -23.2765    7.2252 N   0  0  0  0  0  0  0  0  0  0  0  0
   20.2071  -19.0714    8.8820 C   0  0  0  0  0  0  0  0  0  0  0  0
   21.0428  -19.0561    7.9169 O   0  0  0  0  0  0  0  0  0  0  0  0
   23.5280  -16.5230    8.8840 C   0  0  0  0  0  0  0  0  0  0  0  0
   22.6122  -16.4503   10.0929 C   0  0  2  0  0  0  0  0  0  0  0  0
   22.6102  -15.1083   10.7063 C   0  0  0  0  0  0  0  0  0  0  0  0
   22.6481  -17.6416   10.9581 C   0  0  0  0  0  0  0  0  0  0  0  0
   22.2283  -18.9448   10.3637 C   0  0  2  0  0  0  0  0  0  0  0  0
   20.7765  -18.9627   10.1696 N   0  0  0  0  0  0  0  0  0  0  0  0
   22.6793  -20.1414   11.0667 C   0  0  0  0  0  0  0  0  0  0  0  0
   21.9777  -21.0461   11.5681 O   0  0  0  0  0  0  0  0  0  0  0  0
   24.0793  -20.3372   11.2202 O   0  0  0  0  0  0  0  0  0  0  0  0
  2  1  1  1
  3  2  1  0
  4  5  2  0
  4  3  1  0
  6  5  1  0
  7  8  2  0
  7  6  1  0
  8  4  1  0
  9 11  1  0
  9  2  1  0
 10  9  2  0
 12 11  1  0
 12 13  1  6
 13 14  1  0
 14 15  1  0
 15 16  1  0
 17 16  1  0
 18 12  1  0
 19 18  2  0
 21 23  1  0
 21 20  1  6
 22 21  1  0
 24 23  1  1
 24 26  1  0
 24 25  1  0
 25 18  1  0
 26 28  1  0
 27 26  2  0
M  END
$$$$
