HKL.pdb
     RDKit          3D

 28 28  0  0  1  0  0  0  0  0999 V2000
   29.9876  -24.1527  -16.8540 N   0  0  0  0  0  0  0  0  0  0  0  0
   28.5226  -23.9066  -16.8956 C   0  0  1  0  0  0  0  0  0  0  0  0
   27.8280  -25.0733  -16.2837 C   0  0  0  0  0  0  0  0  0  0  0  0
   27.7792  -26.2918  -17.1026 C   0  0  0  0  0  0  0  0  0  0  0  0
   28.3144  -26.4772  -18.3690 C   0  0  0  0  0  0  0  0  0  0  0  0
   28.0481  -27.7319  -18.7572 N   0  0  0  0  0  0  0  0  0  0  0  0
   27.3658  -28.3560  -17.7928 C   0  0  0  0  0  0  0  0  0  0  0  0
   27.2151  -27.4494  -16.7905 N   0  0  0  0  0  0  0  0  0  0  0  0
   28.2660  -22.6097  -16.1734 C   0  0  0  0  0  0  0  0  0  0  0  0
   28.9297  -22.2184  -15.1904 O   0  0  0  0  0  0  0  0  0  0  0  0
   27.2164  -21.7409  -16.5957 N   0  0  0  0  0  0  0  0  0  0  0  0
   26.9641  -20.4521  -15.9172 C   0  0  1  0  0  0  0  0  0  0  0  0
   26.4993  -19.4294  -16.8884 C   0  0  0  0  0  0  0  0  0  0  0  0
   27.6475  -18.7527  -17.5780 C   0  0  0  0  0  0  0  0  0  0  0  0
   27.2060  -17.7262  -18.6010 C   0  0  0  0  0  0  0  0  0  0  0  0
   28.4426  -17.1070  -19.2267 C   0  0  0  0  0  0  0  0  0  0  0  0
   28.0781  -16.1824  -20.2750 N   0  0  0  0  0  0  0  0  0  0  0  0
   25.9778  -20.7793  -14.8534 C   0  0  0  0  0  0  0  0  0  0  0  0
   25.1912  -21.7804  -14.9481 O   0  0  0  0  0  0  0  0  0  0  0  0
   25.6417  -20.0608   -8.7584 C   0  0  0  0  0  0  0  0  0  0  0  0
   25.0095  -20.6126  -10.0238 C   0  0  2  0  0  0  0  0  0  0  0  0
   24.5143  -21.9904   -9.8400 C   0  0  0  0  0  0  0  0  0  0  0  0
   25.7183  -20.2578  -11.2650 C   0  0  0  0  0  0  0  0  0  0  0  0
   25.0076  -20.4799  -12.5586 C   0  0  2  0  0  0  0  0  0  0  0  0
   25.8384  -20.0171  -13.6729 N   0  0  0  0  0  0  0  0  0  0  0  0
   23.6577  -19.9327  -12.6470 C   0  0  0  0  0  0  0  0  0  0  0  0
   22.6406  -20.2960  -12.0180 O   0  0  0  0  0  0  0  0  0  0  0  0
   23.4323  -18.8549  -13.5466 O   0  0  0  0  0  0  0  0  0  0  0  0
  2  1  1  1
  3  2  1  0
  4  5  2  0
  4  3  1  0
  6  5  1  0
  7  8  2  0
  7  6  1  0
  8  4  1  0
  9 11  1  0
  9  2  1  0
 10  9  2  0
 12 11  1  0
 12 13  1  6
 13 14  1  0
 14 15  1  0
 15 16  1  0
 17 16  1  0
 18 12  1  0
 19 18  2  0
 21 23  1  0
 21 20  1  1
 22 21  1  0
 24 23  1  1
 24 26  1  0
 24 25  1  0
 25 18  1  0
 26 28  1  0
 27 26  2  0
M  END
$$$$
