HKL.pdb
     RDKit          3D

 28 28  0  0  1  0  0  0  0  0999 V2000
   20.0041  -36.3717  -13.5045 N   0  0  0  0  0  0  0  0  0  0  0  0
   20.2081  -35.3602  -12.4350 C   0  0  1  0  0  0  0  0  0  0  0  0
   19.2830  -35.6671  -11.3090 C   0  0  0  0  0  0  0  0  0  0  0  0
   17.8542  -35.4577  -11.5782 C   0  0  0  0  0  0  0  0  0  0  0  0
   17.1686  -34.2518  -11.5963 C   0  0  0  0  0  0  0  0  0  0  0  0
   15.8841  -34.5040  -11.8828 N   0  0  0  0  0  0  0  0  0  0  0  0
   15.7197  -35.8195  -12.0485 C   0  0  0  0  0  0  0  0  0  0  0  0
   16.9439  -36.3795  -11.8560 N   0  0  0  0  0  0  0  0  0  0  0  0
   21.6627  -35.4075  -12.0459 C   0  0  0  0  0  0  0  0  0  0  0  0
   22.3708  -36.4332  -12.1267 O   0  0  0  0  0  0  0  0  0  0  0  0
   22.3183  -34.2414  -11.5505 N   0  0  0  0  0  0  0  0  0  0  0  0
   23.7659  -34.2407  -11.2516 C   0  0  1  0  0  0  0  0  0  0  0  0
   24.5258  -33.5692  -12.3364 C   0  0  0  0  0  0  0  0  0  0  0  0
   26.0079  -33.6701  -12.1239 C   0  0  0  0  0  0  0  0  0  0  0  0
   26.8128  -32.9863  -13.2102 C   0  0  0  0  0  0  0  0  0  0  0  0
   27.4847  -34.0530  -14.0556 C   0  0  0  0  0  0  0  0  0  0  0  0
   28.2662  -33.4527  -15.1118 N   0  0  0  0  0  0  0  0  0  0  0  0
   23.8712  -33.5737   -9.9267 C   0  0  0  0  0  0  0  0  0  0  0  0
   23.2980  -32.4587   -9.6857 O   0  0  0  0  0  0  0  0  0  0  0  0
   22.0583  -33.7990   -6.2397 C   0  0  0  0  0  0  0  0  0  0  0  0
   23.1340  -34.8704   -6.2155 C   0  0  2  0  0  0  0  0  0  0  0  0
   22.8944  -35.8719   -5.1587 C   0  0  0  0  0  0  0  0  0  0  0  0
   24.5001  -34.3686   -6.4409 C   0  0  0  0  0  0  0  0  0  0  0  0
   24.7121  -33.4131   -7.5679 C   0  0  2  0  0  0  0  0  0  0  0  0
   24.6039  -34.1163   -8.8484 N   0  0  0  0  0  0  0  0  0  0  0  0
   25.9331  -32.6163   -7.5075 C   0  0  0  0  0  0  0  0  0  0  0  0
   26.8359  -32.5307   -8.3676 O   0  0  0  0  0  0  0  0  0  0  0  0
   26.1588  -31.8284   -6.3455 O   0  0  0  0  0  0  0  0  0  0  0  0
  2  1  1  6
  3  2  1  0
  4  5  2  0
  4  3  1  0
  6  5  1  0
  7  8  2  0
  7  6  1  0
  8  4  1  0
  9 11  1  0
  9  2  1  0
 10  9  2  0
 12 11  1  0
 12 13  1  6
 13 14  1  0
 14 15  1  0
 15 16  1  0
 17 16  1  0
 18 12  1  0
 19 18  2  0
 21 23  1  0
 21 20  1  1
 22 21  1  0
 24 23  1  1
 24 26  1  0
 24 25  1  0
 25 18  1  0
 26 28  1  0
 27 26  2  0
M  END
$$$$
