HKL.pdb
     RDKit          3D

 28 28  0  0  1  0  0  0  0  0999 V2000
   23.2688  -16.4810  -17.7129 N   0  0  0  0  0  0  0  0  0  0  0  0
   23.9528  -16.4245  -16.3947 C   0  0  1  0  0  0  0  0  0  0  0  0
   23.0194  -15.8247  -15.4012 C   0  0  0  0  0  0  0  0  0  0  0  0
   22.6505  -14.4221  -15.6339 C   0  0  0  0  0  0  0  0  0  0  0  0
   23.0965  -13.5918  -16.6520 C   0  0  0  0  0  0  0  0  0  0  0  0
   22.5164  -12.3934  -16.5002 N   0  0  0  0  0  0  0  0  0  0  0  0
   21.7189  -12.4225  -15.4286 C   0  0  0  0  0  0  0  0  0  0  0  0
   21.8206  -13.6784  -14.9171 N   0  0  0  0  0  0  0  0  0  0  0  0
   24.3750  -17.8287  -16.0491 C   0  0  0  0  0  0  0  0  0  0  0  0
   23.5737  -18.7606  -15.8268 O   0  0  0  0  0  0  0  0  0  0  0  0
   25.7576  -18.1674  -15.9573 N   0  0  0  0  0  0  0  0  0  0  0  0
   26.1972  -19.5684  -15.7873 C   0  0  1  0  0  0  0  0  0  0  0  0
   27.4513  -19.8205  -16.5414 C   0  0  0  0  0  0  0  0  0  0  0  0
   27.9169  -21.2392  -16.3910 C   0  0  0  0  0  0  0  0  0  0  0  0
   29.2389  -21.5081  -17.0804 C   0  0  0  0  0  0  0  0  0  0  0  0
   29.5846  -22.9755  -16.9037 C   0  0  0  0  0  0  0  0  0  0  0  0
   30.8458  -23.2845  -17.5366 N   0  0  0  0  0  0  0  0  0  0  0  0
   26.3220  -19.7425  -14.3157 C   0  0  0  0  0  0  0  0  0  0  0  0
   27.0802  -18.9958  -13.6104 O   0  0  0  0  0  0  0  0  0  0  0  0
   24.3749  -20.8271   -9.0768 C   0  0  0  0  0  0  0  0  0  0  0  0
   25.6735  -20.5574   -9.8158 C   0  0  2  0  0  0  0  0  0  0  0  0
   26.6352  -19.8035   -8.9887 C   0  0  0  0  0  0  0  0  0  0  0  0
   25.5055  -20.2025  -11.2352 C   0  0  0  0  0  0  0  0  0  0  0  0
   26.0433  -21.1491  -12.2564 C   0  0  2  0  0  0  0  0  0  0  0  0
   25.6203  -20.7344  -13.5962 N   0  0  0  0  0  0  0  0  0  0  0  0
   25.7582  -22.5620  -12.0292 C   0  0  0  0  0  0  0  0  0  0  0  0
   26.2964  -23.3292  -11.2021 O   0  0  0  0  0  0  0  0  0  0  0  0
   24.7530  -23.1763  -12.8254 O   0  0  0  0  0  0  0  0  0  0  0  0
  2  1  1  6
  3  2  1  0
  4  5  2  0
  4  3  1  0
  6  5  1  0
  7  8  2  0
  7  6  1  0
  8  4  1  0
  9 11  1  0
  9  2  1  0
 10  9  2  0
 12 11  1  0
 12 13  1  6
 13 14  1  0
 14 15  1  0
 15 16  1  0
 17 16  1  0
 18 12  1  0
 19 18  2  0
 21 23  1  0
 21 20  1  1
 22 21  1  0
 24 23  1  1
 24 26  1  0
 24 25  1  0
 25 18  1  0
 26 28  1  0
 27 26  2  0
M  END
$$$$
