HKL.pdb
     RDKit          3D

 28 28  0  0  1  0  0  0  0  0999 V2000
   13.3567  -12.5300  -18.7417 N   0  0  0  0  0  0  0  0  0  0  0  0
   14.4982  -11.7587  -19.2990 C   0  0  1  0  0  0  0  0  0  0  0  0
   13.9589  -10.6520  -20.1370 C   0  0  0  0  0  0  0  0  0  0  0  0
   13.2533  -11.0590  -21.3594 C   0  0  0  0  0  0  0  0  0  0  0  0
   13.2519  -10.4112  -22.5862 C   0  0  0  0  0  0  0  0  0  0  0  0
   12.4833  -11.1132  -23.4302 N   0  0  0  0  0  0  0  0  0  0  0  0
   11.9937  -12.1818  -22.7950 C   0  0  0  0  0  0  0  0  0  0  0  0
   12.4821  -12.1232  -21.5272 N   0  0  0  0  0  0  0  0  0  0  0  0
   15.3261  -11.2806  -18.1348 C   0  0  0  0  0  0  0  0  0  0  0  0
   14.8518  -10.6964  -17.1380 O   0  0  0  0  0  0  0  0  0  0  0  0
   16.7384  -11.4812  -18.1195 N   0  0  0  0  0  0  0  0  0  0  0  0
   17.5692  -11.0190  -16.9877 C   0  0  1  0  0  0  0  0  0  0  0  0
   18.8127  -11.8243  -16.8857 C   0  0  0  0  0  0  0  0  0  0  0  0
   18.5218  -13.2610  -16.5644 C   0  0  0  0  0  0  0  0  0  0  0  0
   17.7433  -13.4370  -15.2767 C   0  0  0  0  0  0  0  0  0  0  0  0
   17.4405  -14.9133  -15.0948 C   0  0  0  0  0  0  0  0  0  0  0  0
   16.6126  -15.1268  -13.9305 N   0  0  0  0  0  0  0  0  0  0  0  0
   17.7957   -9.5745  -17.2589 C   0  0  0  0  0  0  0  0  0  0  0  0
   18.2719   -9.1636  -18.3699 O   0  0  0  0  0  0  0  0  0  0  0  0
   18.3643   -4.7293  -18.0261 C   0  0  0  0  0  0  0  0  0  0  0  0
   16.9160   -5.1196  -17.7910 C   0  0  2  0  0  0  0  0  0  0  0  0
   16.1499   -4.0393  -17.1405 C   0  0  0  0  0  0  0  0  0  0  0  0
   16.7231   -6.5112  -17.3489 C   0  0  0  0  0  0  0  0  0  0  0  0
   17.8310   -7.1574  -16.5854 C   0  0  2  0  0  0  0  0  0  0  0  0
   17.5048   -8.5607  -16.3200 N   0  0  0  0  0  0  0  0  0  0  0  0
   18.2474   -6.4748  -15.3648 C   0  0  0  0  0  0  0  0  0  0  0  0
   17.8349   -6.6663  -14.2005 O   0  0  0  0  0  0  0  0  0  0  0  0
   19.2407   -5.4630  -15.4719 O   0  0  0  0  0  0  0  0  0  0  0  0
  2  1  1  1
  3  2  1  0
  4  5  2  0
  4  3  1  0
  6  5  1  0
  7  8  2  0
  7  6  1  0
  8  4  1  0
  9 11  1  0
  9  2  1  0
 10  9  2  0
 12 11  1  0
 12 13  1  6
 13 14  1  0
 14 15  1  0
 15 16  1  0
 17 16  1  0
 18 12  1  0
 19 18  2  0
 21 23  1  0
 21 20  1  1
 22 21  1  0
 24 23  1  1
 24 26  1  0
 24 25  1  0
 25 18  1  0
 26 28  1  0
 27 26  2  0
M  END
$$$$
