FWG.pdb
     RDKit          3D

 30 32  0  0  1  0  0  0  0  0999 V2000
   25.6855  -21.4275  -14.8225 N   0  0  0  0  0  0  0  0  0  0  0  0
   24.8079  -20.7061  -13.9560 C   0  0  1  0  0  0  0  0  0  0  0  0
   23.3930  -20.7349  -14.4330 C   0  0  0  0  0  0  0  0  0  0  0  0
   23.2933  -20.0306  -15.7262 C   0  0  0  0  0  0  0  0  0  0  0  0
   23.3219  -20.7517  -16.8851 C   0  0  0  0  0  0  0  0  0  0  0  0
   23.2284  -20.0633  -18.0748 C   0  0  0  0  0  0  0  0  0  0  0  0
   23.1098  -18.6875  -18.0837 C   0  0  0  0  0  0  0  0  0  0  0  0
   23.0808  -17.9541  -16.9034 C   0  0  0  0  0  0  0  0  0  0  0  0
   23.1756  -18.6633  -15.7284 C   0  0  0  0  0  0  0  0  0  0  0  0
   24.9327  -21.1554  -12.5384 C   0  0  0  0  0  0  0  0  0  0  0  0
   24.9942  -22.4043  -12.2779 O   0  0  0  0  0  0  0  0  0  0  0  0
   24.9908  -20.2925  -11.4246 N   0  0  0  0  0  0  0  0  0  0  0  0
   24.9651  -20.7364  -10.0547 C   0  0  1  0  0  0  0  0  0  0  0  0
   25.7884  -19.8813   -9.1615 C   0  0  0  0  0  0  0  0  0  0  0  0
   27.1645  -20.3581   -8.9331 C   0  0  0  0  0  0  0  0  0  0  0  0
   27.8539  -21.2424   -9.7527 C   0  0  0  0  0  0  0  0  0  0  0  0
   29.0688  -21.4781   -9.2400 N   0  0  0  0  0  0  0  0  0  0  0  0
   29.2167  -20.7776   -8.0998 C   0  0  0  0  0  0  0  0  0  0  0  0
   30.2905  -20.6980   -7.2361 C   0  0  0  0  0  0  0  0  0  0  0  0
   30.1596  -19.8805   -6.1382 C   0  0  0  0  0  0  0  0  0  0  0  0
   28.9894  -19.1617   -5.9076 C   0  0  0  0  0  0  0  0  0  0  0  0
   27.9482  -19.2785   -6.8019 C   0  0  0  0  0  0  0  0  0  0  0  0
   28.0362  -20.0804   -7.9058 C   0  0  0  0  0  0  0  0  0  0  0  0
   23.5643  -20.9194   -9.5798 C   0  0  0  0  0  0  0  0  0  0  0  0
   22.7581  -19.9716   -9.7067 O   0  0  0  0  0  0  0  0  0  0  0  0
   23.1129  -22.1292   -8.9899 N   0  0  0  0  0  0  0  0  0  0  0  0
   22.0494  -22.1892   -8.0102 C   0  0  0  0  0  0  0  0  0  0  0  0
   20.7673  -22.6293   -8.5785 C   0  0  0  0  0  0  0  0  0  0  0  0
   20.7030  -22.8560   -9.8120 O   0  0  0  0  0  0  0  0  0  0  0  0
   19.6367  -22.8021   -7.8129 O   0  0  0  0  0  0  0  0  0  0  0  0
  2  1  1  6
  2  3  1  0
  2 10  1  0
  3  4  1  0
  4  5  2  0
  4  9  1  0
  5  6  1  0
  6  7  2  0
  8  7  1  0
  9  8  2  0
 10 11  2  0
 12 10  1  0
 12 13  1  0
 13 14  1  1
 14 15  1  0
 15 16  2  0
 16 17  1  0
 18 17  1  0
 19 18  2  0
 20 19  1  0
 21 22  1  0
 21 20  2  0
 22 23  2  0
 23 15  1  0
 23 18  1  0
 24 13  1  0
 24 25  2  0
 26 24  1  0
 27 26  1  0
 27 28  1  0
 28 29  2  0
 28 30  1  0
M  END
$$$$
