FWG.pdb
     RDKit          3D

 30 32  0  0  1  0  0  0  0  0999 V2000
   21.7313  -20.3244  -11.9206 N   0  0  0  0  0  0  0  0  0  0  0  0
   22.5586  -21.1725  -12.7193 C   0  0  1  0  0  0  0  0  0  0  0  0
   22.0447  -21.3119  -14.1146 C   0  0  0  0  0  0  0  0  0  0  0  0
   20.7805  -22.0735  -14.1016 C   0  0  0  0  0  0  0  0  0  0  0  0
   19.5933  -21.4010  -14.1478 C   0  0  0  0  0  0  0  0  0  0  0  0
   18.4320  -22.1420  -14.1323 C   0  0  0  0  0  0  0  0  0  0  0  0
   18.4783  -23.5208  -14.0718 C   0  0  0  0  0  0  0  0  0  0  0  0
   19.6874  -24.2048  -14.0248 C   0  0  0  0  0  0  0  0  0  0  0  0
   20.8332  -23.4436  -14.0414 C   0  0  0  0  0  0  0  0  0  0  0  0
   23.9883  -20.7459  -12.6866 C   0  0  0  0  0  0  0  0  0  0  0  0
   24.2818  -19.5166  -12.8716 O   0  0  0  0  0  0  0  0  0  0  0  0
   25.0794  -21.6104  -12.4617 N   0  0  0  0  0  0  0  0  0  0  0  0
   26.4603  -21.2131  -12.5595 C   0  0  1  0  0  0  0  0  0  0  0  0
   27.2517  -21.5983  -11.3628 C   0  0  0  0  0  0  0  0  0  0  0  0
   26.8898  -20.8930  -10.1199 C   0  0  0  0  0  0  0  0  0  0  0  0
   25.7595  -20.1052   -9.9442 C   0  0  0  0  0  0  0  0  0  0  0  0
   25.7518  -19.5985   -8.7043 N   0  0  0  0  0  0  0  0  0  0  0  0
   26.8437  -20.0230   -8.0408 C   0  0  0  0  0  0  0  0  0  0  0  0
   27.2546  -19.7703   -6.7475 C   0  0  0  0  0  0  0  0  0  0  0  0
   28.4263  -20.3567   -6.3302 C   0  0  0  0  0  0  0  0  0  0  0  0
   29.1685  -21.1732   -7.1798 C   0  0  0  0  0  0  0  0  0  0  0  0
   28.7123  -21.3915   -8.4611 C   0  0  0  0  0  0  0  0  0  0  0  0
   27.5530  -20.8276   -8.9165 C   0  0  0  0  0  0  0  0  0  0  0  0
   27.0584  -21.6755  -13.8439 C   0  0  0  0  0  0  0  0  0  0  0  0
   26.9422  -22.8796  -14.1617 O   0  0  0  0  0  0  0  0  0  0  0  0
   27.7537  -20.7995  -14.7184 N   0  0  0  0  0  0  0  0  0  0  0  0
   28.3423  -21.2255  -15.9699 C   0  0  0  0  0  0  0  0  0  0  0  0
   27.9170  -20.4069  -17.1143 C   0  0  0  0  0  0  0  0  0  0  0  0
   26.7274  -20.0070  -17.1578 O   0  0  0  0  0  0  0  0  0  0  0  0
   28.7701  -20.0625  -18.1379 O   0  0  0  0  0  0  0  0  0  0  0  0
  2  1  1  1
  2  3  1  0
  2 10  1  0
  3  4  1  0
  4  5  2  0
  4  9  1  0
  5  6  1  0
  6  7  2  0
  8  7  1  0
  9  8  2  0
 10 11  2  0
 12 10  1  0
 12 13  1  0
 13 14  1  1
 14 15  1  0
 15 16  2  0
 16 17  1  0
 18 17  1  0
 19 18  2  0
 20 19  1  0
 21 22  1  0
 21 20  2  0
 22 23  2  0
 23 15  1  0
 23 18  1  0
 24 13  1  0
 24 25  2  0
 26 24  1  0
 27 26  1  0
 27 28  1  0
 28 29  2  0
 28 30  1  0
M  END
$$$$
