FWG.pdb
     RDKit          3D

 30 32  0  0  1  0  0  0  0  0999 V2000
   28.8578  -19.4369  -14.2347 N   0  0  0  0  0  0  0  0  0  0  0  0
   27.4549  -19.1684  -14.2005 C   0  0  1  0  0  0  0  0  0  0  0  0
   26.9107  -18.8326  -15.5501 C   0  0  0  0  0  0  0  0  0  0  0  0
   27.4379  -17.5240  -15.9837 C   0  0  0  0  0  0  0  0  0  0  0  0
   27.0186  -16.3899  -15.3497 C   0  0  0  0  0  0  0  0  0  0  0  0
   27.5289  -15.1849  -15.7802 C   0  0  0  0  0  0  0  0  0  0  0  0
   28.4352  -15.1366  -16.8210 C   0  0  0  0  0  0  0  0  0  0  0  0
   28.8616  -16.2916  -17.4660 C   0  0  0  0  0  0  0  0  0  0  0  0
   28.3383  -17.4826  -17.0186 C   0  0  0  0  0  0  0  0  0  0  0  0
   26.6931  -20.2720  -13.5456 C   0  0  0  0  0  0  0  0  0  0  0  0
   26.9441  -21.4835  -13.8630 O   0  0  0  0  0  0  0  0  0  0  0  0
   25.6873  -20.0876  -12.5748 N   0  0  0  0  0  0  0  0  0  0  0  0
   24.9532  -21.1611  -11.9559 C   0  0  1  0  0  0  0  0  0  0  0  0
   24.8886  -21.0311  -10.4775 C   0  0  0  0  0  0  0  0  0  0  0  0
   26.1535  -20.6424   -9.8278 C   0  0  0  0  0  0  0  0  0  0  0  0
   26.2828  -19.6811   -8.8338 C   0  0  0  0  0  0  0  0  0  0  0  0
   27.5709  -19.5638   -8.4854 N   0  0  0  0  0  0  0  0  0  0  0  0
   28.3115  -20.4186   -9.2157 C   0  0  0  0  0  0  0  0  0  0  0  0
   29.6711  -20.6561   -9.2013 C   0  0  0  0  0  0  0  0  0  0  0  0
   30.1556  -21.6104  -10.0647 C   0  0  0  0  0  0  0  0  0  0  0  0
   29.3071  -22.3092  -10.9195 C   0  0  0  0  0  0  0  0  0  0  0  0
   27.9580  -22.0319  -10.8929 C   0  0  0  0  0  0  0  0  0  0  0  0
   27.4348  -21.0907  -10.0506 C   0  0  0  0  0  0  0  0  0  0  0  0
   23.6194  -21.3344  -12.5980 C   0  0  0  0  0  0  0  0  0  0  0  0
   22.8567  -20.3462  -12.6751 O   0  0  0  0  0  0  0  0  0  0  0  0
   23.1846  -22.5790  -13.1248 N   0  0  0  0  0  0  0  0  0  0  0  0
   21.8419  -23.0908  -12.9533 C   0  0  0  0  0  0  0  0  0  0  0  0
   20.8506  -22.3981  -13.7888 C   0  0  0  0  0  0  0  0  0  0  0  0
   19.6456  -22.7399  -13.6997 O   0  0  0  0  0  0  0  0  0  0  0  0
   21.1913  -21.3915  -14.6635 O   0  0  0  0  0  0  0  0  0  0  0  0
  2  1  1  6
  2  3  1  0
  2 10  1  0
  3  4  1  0
  4  5  2  0
  4  9  1  0
  5  6  1  0
  6  7  2  0
  8  7  1  0
  9  8  2  0
 10 11  2  0
 12 10  1  0
 12 13  1  0
 13 14  1  1
 14 15  1  0
 15 16  2  0
 16 17  1  0
 18 17  1  0
 19 18  2  0
 20 19  1  0
 21 22  1  0
 21 20  2  0
 22 23  2  0
 23 15  1  0
 23 18  1  0
 24 13  1  0
 24 25  2  0
 26 24  1  0
 27 26  1  0
 27 28  1  0
 28 29  2  0
 28 30  1  0
M  END
$$$$
