FWG.pdb
     RDKit          3D

 30 32  0  0  1  0  0  0  0  0999 V2000
   28.7712  -20.5293  -13.9577 N   0  0  0  0  0  0  0  0  0  0  0  0
   27.8925  -19.8453  -13.0624 C   0  0  1  0  0  0  0  0  0  0  0  0
   26.7343  -19.2242  -13.7717 C   0  0  0  0  0  0  0  0  0  0  0  0
   27.2257  -18.2173  -14.7324 C   0  0  0  0  0  0  0  0  0  0  0  0
   27.3255  -18.5457  -16.0539 C   0  0  0  0  0  0  0  0  0  0  0  0
   27.7893  -17.5833  -16.9237 C   0  0  0  0  0  0  0  0  0  0  0  0
   28.1396  -16.3293  -16.4633 C   0  0  0  0  0  0  0  0  0  0  0  0
   28.0377  -15.9958  -15.1179 C   0  0  0  0  0  0  0  0  0  0  0  0
   27.5721  -16.9730  -14.2688 C   0  0  0  0  0  0  0  0  0  0  0  0
   27.4577  -20.7193  -11.9336 C   0  0  0  0  0  0  0  0  0  0  0  0
   27.9572  -21.8890  -11.8160 O   0  0  0  0  0  0  0  0  0  0  0  0
   26.5124  -20.3541  -10.9532 N   0  0  0  0  0  0  0  0  0  0  0  0
   26.3090  -21.0683   -9.7191 C   0  0  1  0  0  0  0  0  0  0  0  0
   27.5214  -21.0827   -8.8609 C   0  0  0  0  0  0  0  0  0  0  0  0
   27.4523  -20.2218   -7.6662 C   0  0  0  0  0  0  0  0  0  0  0  0
   26.7602  -19.0206   -7.5815 C   0  0  0  0  0  0  0  0  0  0  0  0
   26.9270  -18.4895   -6.3631 N   0  0  0  0  0  0  0  0  0  0  0  0
   27.7106  -19.2988   -5.6258 C   0  0  0  0  0  0  0  0  0  0  0  0
   28.1457  -19.1717   -4.3221 C   0  0  0  0  0  0  0  0  0  0  0  0
   28.9409  -20.1750   -3.8201 C   0  0  0  0  0  0  0  0  0  0  0  0
   29.2929  -21.2755   -4.5974 C   0  0  0  0  0  0  0  0  0  0  0  0
   28.8311  -21.3516   -5.8930 C   0  0  0  0  0  0  0  0  0  0  0  0
   28.0388  -20.3760   -6.4314 C   0  0  0  0  0  0  0  0  0  0  0  0
   25.0873  -20.5825   -9.0171 C   0  0  0  0  0  0  0  0  0  0  0  0
   25.0430  -19.3895   -8.6441 O   0  0  0  0  0  0  0  0  0  0  0  0
   23.9737  -21.4240   -8.7576 N   0  0  0  0  0  0  0  0  0  0  0  0
   23.1178  -21.9553   -9.7966 C   0  0  0  0  0  0  0  0  0  0  0  0
   21.8898  -21.1706   -9.9882 C   0  0  0  0  0  0  0  0  0  0  0  0
   21.6327  -20.2489   -9.1751 O   0  0  0  0  0  0  0  0  0  0  0  0
   21.0124  -21.4065  -11.0220 O   0  0  0  0  0  0  0  0  0  0  0  0
  2  1  1  6
  2  3  1  0
  2 10  1  0
  3  4  1  0
  4  5  2  0
  4  9  1  0
  5  6  1  0
  6  7  2  0
  8  7  1  0
  9  8  2  0
 10 11  2  0
 12 10  1  0
 12 13  1  0
 13 14  1  1
 14 15  1  0
 15 16  2  0
 16 17  1  0
 18 17  1  0
 19 18  2  0
 20 19  1  0
 21 22  1  0
 21 20  2  0
 22 23  2  0
 23 15  1  0
 23 18  1  0
 24 13  1  0
 24 25  2  0
 26 24  1  0
 27 26  1  0
 27 28  1  0
 28 29  2  0
 28 30  1  0
M  END
$$$$
