FWG.pdb
     RDKit          3D

 30 32  0  0  1  0  0  0  0  0999 V2000
   28.4616  -20.7617  -14.1971 N   0  0  0  0  0  0  0  0  0  0  0  0
   27.5516  -19.8883  -13.5257 C   0  0  1  0  0  0  0  0  0  0  0  0
   26.5866  -19.2456  -14.4670 C   0  0  0  0  0  0  0  0  0  0  0  0
   27.2445  -18.1176  -15.1548 C   0  0  0  0  0  0  0  0  0  0  0  0
   27.3368  -16.9105  -14.5235 C   0  0  0  0  0  0  0  0  0  0  0  0
   27.9552  -15.8782  -15.1941 C   0  0  0  0  0  0  0  0  0  0  0  0
   28.4623  -16.0688  -16.4644 C   0  0  0  0  0  0  0  0  0  0  0  0
   28.3679  -17.2979  -17.1065 C   0  0  0  0  0  0  0  0  0  0  0  0
   27.7463  -18.3132  -16.4170 C   0  0  0  0  0  0  0  0  0  0  0  0
   26.8616  -20.5694  -12.3912 C   0  0  0  0  0  0  0  0  0  0  0  0
   26.6106  -21.8194  -12.4675 O   0  0  0  0  0  0  0  0  0  0  0  0
   26.4491  -19.9319  -11.2030 N   0  0  0  0  0  0  0  0  0  0  0  0
   25.8601  -20.6153  -10.0803 C   0  0  1  0  0  0  0  0  0  0  0  0
   26.2288  -20.0001   -8.7794 C   0  0  0  0  0  0  0  0  0  0  0  0
   27.5400  -20.4084   -8.2436 C   0  0  0  0  0  0  0  0  0  0  0  0
   28.4998  -21.1339   -8.9374 C   0  0  0  0  0  0  0  0  0  0  0  0
   29.5595  -21.3504   -8.1471 N   0  0  0  0  0  0  0  0  0  0  0  0
   29.3404  -20.7911   -6.9421 C   0  0  0  0  0  0  0  0  0  0  0  0
   30.1434  -20.7492   -5.8202 C   0  0  0  0  0  0  0  0  0  0  0  0
   29.6557  -20.0874   -4.7178 C   0  0  0  0  0  0  0  0  0  0  0  0
   28.4010  -19.4837   -4.7338 C   0  0  0  0  0  0  0  0  0  0  0  0
   27.6408  -19.5564   -5.8802 C   0  0  0  0  0  0  0  0  0  0  0  0
   28.0873  -20.2047   -6.9981 C   0  0  0  0  0  0  0  0  0  0  0  0
   24.3905  -20.7791  -10.2671 C   0  0  0  0  0  0  0  0  0  0  0  0
   23.6178  -20.0045   -9.6612 O   0  0  0  0  0  0  0  0  0  0  0  0
   23.8374  -21.7808  -11.1073 N   0  0  0  0  0  0  0  0  0  0  0  0
   22.4204  -22.0659  -11.1801 C   0  0  0  0  0  0  0  0  0  0  0  0
   21.7210  -21.2546  -12.1866 C   0  0  0  0  0  0  0  0  0  0  0  0
   22.4002  -20.5118  -12.9374 O   0  0  0  0  0  0  0  0  0  0  0  0
   20.3531  -21.2773  -12.3377 O   0  0  0  0  0  0  0  0  0  0  0  0
  2  1  1  6
  2  3  1  0
  2 10  1  0
  3  4  1  0
  4  5  2  0
  4  9  1  0
  5  6  1  0
  6  7  2  0
  8  7  1  0
  9  8  2  0
 10 11  2  0
 12 10  1  0
 12 13  1  0
 13 14  1  1
 14 15  1  0
 15 16  2  0
 16 17  1  0
 18 17  1  0
 19 18  2  0
 20 19  1  0
 21 22  1  0
 21 20  2  0
 22 23  2  0
 23 15  1  0
 23 18  1  0
 24 13  1  0
 24 25  2  0
 26 24  1  0
 27 26  1  0
 27 28  1  0
 28 29  2  0
 28 30  1  0
M  END
$$$$
