FWG.pdb
     RDKit          3D

 30 32  0  0  1  0  0  0  0  0999 V2000
   16.0360  -12.7688  -17.3161 N   0  0  0  0  0  0  0  0  0  0  0  0
   16.3724  -11.4730  -17.8153 C   0  0  1  0  0  0  0  0  0  0  0  0
   15.2268  -10.8237  -18.5198 C   0  0  0  0  0  0  0  0  0  0  0  0
   14.9081  -11.5806  -19.7461 C   0  0  0  0  0  0  0  0  0  0  0  0
   13.7937  -12.3688  -19.7757 C   0  0  0  0  0  0  0  0  0  0  0  0
   13.5262  -13.0632  -20.9351 C   0  0  0  0  0  0  0  0  0  0  0  0
   14.3651  -12.9584  -22.0270 C   0  0  0  0  0  0  0  0  0  0  0  0
   15.4995  -12.1559  -21.9961 C   0  0  0  0  0  0  0  0  0  0  0  0
   15.7457  -11.4724  -20.8278 C   0  0  0  0  0  0  0  0  0  0  0  0
   16.9464  -10.5986  -16.7509 C   0  0  0  0  0  0  0  0  0  0  0  0
   16.3837  -10.5511  -15.6052 O   0  0  0  0  0  0  0  0  0  0  0  0
   18.0940   -9.7938  -16.9049 N   0  0  0  0  0  0  0  0  0  0  0  0
   18.5929   -8.8942  -15.8968 C   0  0  1  0  0  0  0  0  0  0  0  0
   19.9719   -9.2331  -15.4606 C   0  0  0  0  0  0  0  0  0  0  0  0
   20.5775   -8.2848  -14.5082 C   0  0  0  0  0  0  0  0  0  0  0  0
   20.5336   -8.3986  -13.1247 C   0  0  0  0  0  0  0  0  0  0  0  0
   21.1630   -7.3562  -12.5666 N   0  0  0  0  0  0  0  0  0  0  0  0
   21.6295   -6.5449  -13.5345 C   0  0  0  0  0  0  0  0  0  0  0  0
   22.3416   -5.3661  -13.4424 C   0  0  0  0  0  0  0  0  0  0  0  0
   22.6993   -4.7498  -14.6185 C   0  0  0  0  0  0  0  0  0  0  0  0
   22.3562   -5.2944  -15.8533 C   0  0  0  0  0  0  0  0  0  0  0  0
   21.6443   -6.4733  -15.8873 C   0  0  0  0  0  0  0  0  0  0  0  0
   21.2682   -7.1183  -14.7420 C   0  0  0  0  0  0  0  0  0  0  0  0
   18.4344   -7.4749  -16.3232 C   0  0  0  0  0  0  0  0  0  0  0  0
   18.7287   -7.1642  -17.4984 O   0  0  0  0  0  0  0  0  0  0  0  0
   17.9615   -6.4648  -15.4448 N   0  0  0  0  0  0  0  0  0  0  0  0
   17.7549   -5.0907  -15.8491 C   0  0  0  0  0  0  0  0  0  0  0  0
   17.3608   -4.2161  -14.7355 C   0  0  0  0  0  0  0  0  0  0  0  0
   17.0814   -4.7406  -13.6292 O   0  0  0  0  0  0  0  0  0  0  0  0
   17.2859   -2.8472  -14.8579 O   0  0  0  0  0  0  0  0  0  0  0  0
  2  1  1  1
  2  3  1  0
  2 10  1  0
  3  4  1  0
  4  5  2  0
  4  9  1  0
  5  6  1  0
  6  7  2  0
  8  7  1  0
  9  8  2  0
 10 11  2  0
 12 10  1  0
 12 13  1  0
 13 14  1  6
 14 15  1  0
 15 16  2  0
 16 17  1  0
 18 17  1  0
 19 18  2  0
 20 19  1  0
 21 22  1  0
 21 20  2  0
 22 23  2  0
 23 15  1  0
 23 18  1  0
 24 13  1  0
 24 25  2  0
 26 24  1  0
 27 26  1  0
 27 28  1  0
 28 29  2  0
 28 30  1  0
M  END
$$$$
