FWG.pdb
     RDKit          3D

 30 32  0  0  1  0  0  0  0  0999 V2000
   28.6788  -20.4193  -14.8243 N   0  0  0  0  0  0  0  0  0  0  0  0
   27.5330  -19.7309  -14.3194 C   0  0  1  0  0  0  0  0  0  0  0  0
   26.6521  -19.2220  -15.4128 C   0  0  0  0  0  0  0  0  0  0  0  0
   27.2316  -17.9890  -15.9804 C   0  0  0  0  0  0  0  0  0  0  0  0
   27.0927  -16.8111  -15.3042 C   0  0  0  0  0  0  0  0  0  0  0  0
   27.6439  -15.6788  -15.8625 C   0  0  0  0  0  0  0  0  0  0  0  0
   28.3136  -15.7438  -17.0685 C   0  0  0  0  0  0  0  0  0  0  0  0
   28.4545  -16.9433  -17.7563 C   0  0  0  0  0  0  0  0  0  0  0  0
   27.8959  -18.0602  -17.1792 C   0  0  0  0  0  0  0  0  0  0  0  0
   26.7806  -20.5553  -13.3288 C   0  0  0  0  0  0  0  0  0  0  0  0
   26.6163  -21.8034  -13.5453 O   0  0  0  0  0  0  0  0  0  0  0  0
   26.2166  -20.0600  -12.1351 N   0  0  0  0  0  0  0  0  0  0  0  0
   25.3532  -20.8225  -11.2705 C   0  0  1  0  0  0  0  0  0  0  0  0
   25.5568  -20.5035   -9.8341 C   0  0  0  0  0  0  0  0  0  0  0  0
   26.9043  -20.7965   -9.3131 C   0  0  0  0  0  0  0  0  0  0  0  0
   27.8749  -21.5405   -9.9713 C   0  0  0  0  0  0  0  0  0  0  0  0
   28.9705  -21.6298   -9.2056 N   0  0  0  0  0  0  0  0  0  0  0  0
   28.7651  -20.9669   -8.0519 C   0  0  0  0  0  0  0  0  0  0  0  0
   29.6028  -20.7790   -6.9712 C   0  0  0  0  0  0  0  0  0  0  0  0
   29.1206  -20.0367   -5.9188 C   0  0  0  0  0  0  0  0  0  0  0  0
   27.8374  -19.4963   -5.9435 C   0  0  0  0  0  0  0  0  0  0  0  0
   27.0431  -19.7152   -7.0474 C   0  0  0  0  0  0  0  0  0  0  0  0
   27.4830  -20.4476   -8.1148 C   0  0  0  0  0  0  0  0  0  0  0  0
   23.9325  -20.7179  -11.7090 C   0  0  0  0  0  0  0  0  0  0  0  0
   23.4567  -19.5843  -11.9392 O   0  0  0  0  0  0  0  0  0  0  0  0
   23.1017  -21.8570  -11.8748 N   0  0  0  0  0  0  0  0  0  0  0  0
   21.7267  -21.7817  -12.3198 C   0  0  0  0  0  0  0  0  0  0  0  0
   20.7919  -21.4240  -11.2434 C   0  0  0  0  0  0  0  0  0  0  0  0
   20.9304  -20.3148  -10.6712 O   0  0  0  0  0  0  0  0  0  0  0  0
   19.7729  -22.2560  -10.8388 O   0  0  0  0  0  0  0  0  0  0  0  0
  2  1  1  6
  2  3  1  0
  2 10  1  0
  3  4  1  0
  4  5  2  0
  4  9  1  0
  5  6  1  0
  6  7  2  0
  8  7  1  0
  9  8  2  0
 10 11  2  0
 12 10  1  0
 12 13  1  0
 13 14  1  1
 14 15  1  0
 15 16  2  0
 16 17  1  0
 18 17  1  0
 19 18  2  0
 20 19  1  0
 21 22  1  0
 21 20  2  0
 22 23  2  0
 23 15  1  0
 23 18  1  0
 24 13  1  0
 24 25  2  0
 26 24  1  0
 27 26  1  0
 27 28  1  0
 28 29  2  0
 28 30  1  0
M  END
$$$$
