FWG.pdb
     RDKit          3D

 30 32  0  0  1  0  0  0  0  0999 V2000
   23.4962  -20.3321  -18.2543 N   0  0  0  0  0  0  0  0  0  0  0  0
   22.9792  -19.7492  -17.0566 C   0  0  1  0  0  0  0  0  0  0  0  0
   21.5449  -20.0989  -16.8312 C   0  0  0  0  0  0  0  0  0  0  0  0
   20.7106  -19.4501  -17.8614 C   0  0  0  0  0  0  0  0  0  0  0  0
   20.2838  -20.1791  -18.9340 C   0  0  0  0  0  0  0  0  0  0  0  0
   19.5082  -19.5428  -19.8781 C   0  0  0  0  0  0  0  0  0  0  0  0
   19.1786  -18.2094  -19.7347 C   0  0  0  0  0  0  0  0  0  0  0  0
   19.6134  -17.4679  -18.6425 C   0  0  0  0  0  0  0  0  0  0  0  0
   20.3864  -18.1248  -17.7133 C   0  0  0  0  0  0  0  0  0  0  0  0
   23.8285  -20.0675  -15.8715 C   0  0  0  0  0  0  0  0  0  0  0  0
   24.3077  -21.2441  -15.7394 O   0  0  0  0  0  0  0  0  0  0  0  0
   24.1591  -19.1521  -14.8512 N   0  0  0  0  0  0  0  0  0  0  0  0
   25.0901  -19.4274  -13.7872 C   0  0  1  0  0  0  0  0  0  0  0  0
   26.2100  -18.4525  -13.7415 C   0  0  0  0  0  0  0  0  0  0  0  0
   27.1084  -18.4765  -14.9101 C   0  0  0  0  0  0  0  0  0  0  0  0
   27.3110  -17.4199  -15.7884 C   0  0  0  0  0  0  0  0  0  0  0  0
   28.1710  -17.7892  -16.7468 N   0  0  0  0  0  0  0  0  0  0  0  0
   28.5530  -19.0633  -16.5382 C   0  0  0  0  0  0  0  0  0  0  0  0
   29.4240  -19.8605  -17.2530 C   0  0  0  0  0  0  0  0  0  0  0  0
   29.6342  -21.1389  -16.7921 C   0  0  0  0  0  0  0  0  0  0  0  0
   28.9931  -21.6097  -15.6491 C   0  0  0  0  0  0  0  0  0  0  0  0
   28.1333  -20.7715  -14.9740 C   0  0  0  0  0  0  0  0  0  0  0  0
   27.8954  -19.4937  -15.3982 C   0  0  0  0  0  0  0  0  0  0  0  0
   24.3812  -19.5825  -12.4854 C   0  0  0  0  0  0  0  0  0  0  0  0
   23.3438  -18.9139  -12.2828 O   0  0  0  0  0  0  0  0  0  0  0  0
   24.8404  -20.4609  -11.4691 N   0  0  0  0  0  0  0  0  0  0  0  0
   24.2858  -20.4916  -10.1327 C   0  0  0  0  0  0  0  0  0  0  0  0
   25.0110  -21.3960   -9.2291 C   0  0  0  0  0  0  0  0  0  0  0  0
   25.9270  -22.1121   -9.7035 O   0  0  0  0  0  0  0  0  0  0  0  0
   24.7255  -21.4886   -7.8859 O   0  0  0  0  0  0  0  0  0  0  0  0
  2  1  1  6
  2  3  1  0
  2 10  1  0
  3  4  1  0
  4  5  2  0
  4  9  1  0
  5  6  1  0
  6  7  2  0
  8  7  1  0
  9  8  2  0
 10 11  2  0
 12 10  1  0
 12 13  1  0
 13 14  1  1
 14 15  1  0
 15 16  2  0
 16 17  1  0
 18 17  1  0
 19 18  2  0
 20 19  1  0
 21 22  1  0
 21 20  2  0
 22 23  2  0
 23 15  1  0
 23 18  1  0
 24 13  1  0
 24 25  2  0
 26 24  1  0
 27 26  1  0
 27 28  1  0
 28 29  2  0
 28 30  1  0
M  END
$$$$
