FWG.pdb
     RDKit          3D

 30 32  0  0  1  0  0  0  0  0999 V2000
   21.6942  -20.7600  -11.8522 N   0  0  0  0  0  0  0  0  0  0  0  0
   22.6564  -20.9524  -12.8908 C   0  0  1  0  0  0  0  0  0  0  0  0
   22.2518  -20.2889  -14.1661 C   0  0  0  0  0  0  0  0  0  0  0  0
   21.2226  -21.1030  -14.8416 C   0  0  0  0  0  0  0  0  0  0  0  0
   19.9492  -20.6214  -14.9444 C   0  0  0  0  0  0  0  0  0  0  0  0
   19.0125  -21.4071  -15.5793 C   0  0  0  0  0  0  0  0  0  0  0  0
   19.3608  -22.6412  -16.0918 C   0  0  0  0  0  0  0  0  0  0  0  0
   20.6574  -23.1308  -15.9867 C   0  0  0  0  0  0  0  0  0  0  0  0
   21.5750  -22.3285  -15.3488 C   0  0  0  0  0  0  0  0  0  0  0  0
   24.0279  -20.5527  -12.4594 C   0  0  0  0  0  0  0  0  0  0  0  0
   24.2050  -19.4189  -11.8986 O   0  0  0  0  0  0  0  0  0  0  0  0
   25.1836  -21.3442  -12.6221 N   0  0  0  0  0  0  0  0  0  0  0  0
   26.5198  -20.8963  -12.3249 C   0  0  1  0  0  0  0  0  0  0  0  0
   27.1028  -21.5824  -11.1434 C   0  0  0  0  0  0  0  0  0  0  0  0
   26.8892  -20.8991   -9.8547 C   0  0  0  0  0  0  0  0  0  0  0  0
   25.6810  -20.3734   -9.4157 C   0  0  0  0  0  0  0  0  0  0  0  0
   25.8471  -19.8045   -8.2144 N   0  0  0  0  0  0  0  0  0  0  0  0
   27.1318  -19.9329   -7.8325 C   0  0  0  0  0  0  0  0  0  0  0  0
   27.7644  -19.5146   -6.6792 C   0  0  0  0  0  0  0  0  0  0  0  0
   29.1042  -19.7980   -6.5544 C   0  0  0  0  0  0  0  0  0  0  0  0
   29.7947  -20.4803   -7.5529 C   0  0  0  0  0  0  0  0  0  0  0  0
   29.1141  -20.8744   -8.6839 C   0  0  0  0  0  0  0  0  0  0  0  0
   27.7824  -20.6125   -8.8485 C   0  0  0  0  0  0  0  0  0  0  0  0
   27.3847  -20.9580  -13.5371 C   0  0  0  0  0  0  0  0  0  0  0  0
   28.1581  -21.9313  -13.6745 O   0  0  0  0  0  0  0  0  0  0  0  0
   27.3617  -19.9535  -14.5400 N   0  0  0  0  0  0  0  0  0  0  0  0
   28.1241  -20.0359  -15.7673 C   0  0  0  0  0  0  0  0  0  0  0  0
   27.9755  -18.8468  -16.6184 C   0  0  0  0  0  0  0  0  0  0  0  0
   26.8227  -18.3899  -16.8164 O   0  0  0  0  0  0  0  0  0  0  0  0
   29.0485  -18.2161  -17.2059 O   0  0  0  0  0  0  0  0  0  0  0  0
  2  1  1  1
  2  3  1  0
  2 10  1  0
  3  4  1  0
  4  5  2  0
  4  9  1  0
  5  6  1  0
  6  7  2  0
  8  7  1  0
  9  8  2  0
 10 11  2  0
 12 10  1  0
 12 13  1  0
 13 14  1  1
 14 15  1  0
 15 16  2  0
 16 17  1  0
 18 17  1  0
 19 18  2  0
 20 19  1  0
 21 22  1  0
 21 20  2  0
 22 23  2  0
 23 15  1  0
 23 18  1  0
 24 13  1  0
 24 25  2  0
 26 24  1  0
 27 26  1  0
 27 28  1  0
 28 29  2  0
 28 30  1  0
M  END
$$$$
