FWG.pdb
     RDKit          3D

 30 32  0  0  1  0  0  0  0  0999 V2000
   26.4754  -20.9823  -14.3820 N   0  0  0  0  0  0  0  0  0  0  0  0
   26.4805  -19.9291  -13.4165 C   0  0  1  0  0  0  0  0  0  0  0  0
   25.4338  -18.9011  -13.6958 C   0  0  0  0  0  0  0  0  0  0  0  0
   25.8598  -18.0579  -14.8298 C   0  0  0  0  0  0  0  0  0  0  0  0
   26.7485  -17.0443  -14.6135 C   0  0  0  0  0  0  0  0  0  0  0  0
   27.1238  -16.2752  -15.6931 C   0  0  0  0  0  0  0  0  0  0  0  0
   26.6116  -16.5298  -16.9500 C   0  0  0  0  0  0  0  0  0  0  0  0
   25.7069  -17.5620  -17.1694 C   0  0  0  0  0  0  0  0  0  0  0  0
   25.3472  -18.3160  -16.0764 C   0  0  0  0  0  0  0  0  0  0  0  0
   26.3963  -20.4528  -12.0216 C   0  0  0  0  0  0  0  0  0  0  0  0
   25.8397  -21.5822  -11.8068 O   0  0  0  0  0  0  0  0  0  0  0  0
   26.8942  -19.7874  -10.8824 N   0  0  0  0  0  0  0  0  0  0  0  0
   26.9425  -20.3653   -9.5641 C   0  0  1  0  0  0  0  0  0  0  0  0
   28.0579  -19.8260   -8.7444 C   0  0  0  0  0  0  0  0  0  0  0  0
   28.2444  -20.4780   -7.4355 C   0  0  0  0  0  0  0  0  0  0  0  0
   28.6112  -21.8039   -7.2443 C   0  0  0  0  0  0  0  0  0  0  0  0
   28.6677  -22.0711   -5.9329 N   0  0  0  0  0  0  0  0  0  0  0  0
   28.3502  -20.9634   -5.2366 C   0  0  0  0  0  0  0  0  0  0  0  0
   28.2824  -20.7569   -3.8736 C   0  0  0  0  0  0  0  0  0  0  0  0
   27.9360  -19.4984   -3.4411 C   0  0  0  0  0  0  0  0  0  0  0  0
   27.6644  -18.4733   -4.3436 C   0  0  0  0  0  0  0  0  0  0  0  0
   27.7465  -18.7346   -5.6936 C   0  0  0  0  0  0  0  0  0  0  0  0
   28.0868  -19.9716   -6.1662 C   0  0  0  0  0  0  0  0  0  0  0  0
   25.6139  -20.2774   -8.8944 C   0  0  0  0  0  0  0  0  0  0  0  0
   25.2285  -19.1668   -8.4676 O   0  0  0  0  0  0  0  0  0  0  0  0
   24.7713  -21.4073   -8.7245 N   0  0  0  0  0  0  0  0  0  0  0  0
   24.6581  -22.1362   -7.4794 C   0  0  0  0  0  0  0  0  0  0  0  0
   23.5516  -21.6644   -6.6347 C   0  0  0  0  0  0  0  0  0  0  0  0
   22.8192  -22.5158   -6.0730 O   0  0  0  0  0  0  0  0  0  0  0  0
   23.2875  -20.3283   -6.4361 O   0  0  0  0  0  0  0  0  0  0  0  0
  2  1  1  6
  2  3  1  0
  2 10  1  0
  3  4  1  0
  4  5  2  0
  4  9  1  0
  5  6  1  0
  6  7  2  0
  8  7  1  0
  9  8  2  0
 10 11  2  0
 12 10  1  0
 12 13  1  0
 13 14  1  1
 14 15  1  0
 15 16  2  0
 16 17  1  0
 18 17  1  0
 19 18  2  0
 20 19  1  0
 21 22  1  0
 21 20  2  0
 22 23  2  0
 23 15  1  0
 23 18  1  0
 24 13  1  0
 24 25  2  0
 26 24  1  0
 27 26  1  0
 27 28  1  0
 28 29  2  0
 28 30  1  0
M  END
$$$$
