FWG.pdb
     RDKit          3D

 30 32  0  0  1  0  0  0  0  0999 V2000
   15.3313  -10.9103    8.6446 N   0  0  0  0  0  0  0  0  0  0  0  0
   16.4286  -11.4415    7.8994 C   0  0  1  0  0  0  0  0  0  0  0  0
   17.6931  -11.4639    8.6937 C   0  0  0  0  0  0  0  0  0  0  0  0
   18.8217  -11.8292    7.8155 C   0  0  0  0  0  0  0  0  0  0  0  0
   18.9517  -11.2162    6.6025 C   0  0  0  0  0  0  0  0  0  0  0  0
   20.0151  -11.5816    5.8066 C   0  0  0  0  0  0  0  0  0  0  0  0
   20.9154  -12.5386    6.2317 C   0  0  0  0  0  0  0  0  0  0  0  0
   20.7823  -13.1622    7.4667 C   0  0  0  0  0  0  0  0  0  0  0  0
   19.7129  -12.7809    8.2435 C   0  0  0  0  0  0  0  0  0  0  0  0
   16.1089  -12.7762    7.3134 C   0  0  0  0  0  0  0  0  0  0  0  0
   15.5769  -13.6745    8.0492 O   0  0  0  0  0  0  0  0  0  0  0  0
   16.3508  -13.1439    5.9738 N   0  0  0  0  0  0  0  0  0  0  0  0
   16.1496  -14.4703    5.4496 C   0  0  1  0  0  0  0  0  0  0  0  0
   15.9685  -14.4805    3.9752 C   0  0  0  0  0  0  0  0  0  0  0  0
   15.5983  -15.7861    3.3995 C   0  0  0  0  0  0  0  0  0  0  0  0
   14.3237  -16.3375    3.4146 C   0  0  0  0  0  0  0  0  0  0  0  0
   14.3463  -17.5407    2.8262 N   0  0  0  0  0  0  0  0  0  0  0  0
   15.5989  -17.8143    2.4154 C   0  0  0  0  0  0  0  0  0  0  0  0
   16.0995  -18.9204    1.7590 C   0  0  0  0  0  0  0  0  0  0  0  0
   17.4397  -18.9203    1.4510 C   0  0  0  0  0  0  0  0  0  0  0  0
   18.2588  -17.8459    1.7886 C   0  0  0  0  0  0  0  0  0  0  0  0
   17.7069  -16.7671    2.4439 C   0  0  0  0  0  0  0  0  0  0  0  0
   16.3796  -16.7268    2.7693 C   0  0  0  0  0  0  0  0  0  0  0  0
   17.2136  -15.3989    5.9261 C   0  0  0  0  0  0  0  0  0  0  0  0
   18.4096  -15.0509    5.8132 O   0  0  0  0  0  0  0  0  0  0  0  0
   16.9185  -16.6621    6.5029 N   0  0  0  0  0  0  0  0  0  0  0  0
   17.9344  -17.6136    6.8987 C   0  0  0  0  0  0  0  0  0  0  0  0
   17.7756  -18.9260    6.2562 C   0  0  0  0  0  0  0  0  0  0  0  0
   16.7453  -19.1387    5.5706 O   0  0  0  0  0  0  0  0  0  0  0  0
   18.7104  -19.9291    6.3769 O   0  0  0  0  0  0  0  0  0  0  0  0
  2  1  1  1
  2  3  1  0
  2 10  1  0
  3  4  1  0
  4  5  2  0
  4  9  1  0
  5  6  1  0
  6  7  2  0
  8  7  1  0
  9  8  2  0
 10 11  2  0
 12 10  1  0
 12 13  1  0
 13 14  1  6
 14 15  1  0
 15 16  2  0
 16 17  1  0
 18 17  1  0
 19 18  2  0
 20 19  1  0
 21 22  1  0
 21 20  2  0
 22 23  2  0
 23 15  1  0
 23 18  1  0
 24 13  1  0
 24 25  2  0
 26 24  1  0
 27 26  1  0
 27 28  1  0
 28 29  2  0
 28 30  1  0
M  END
$$$$
