FWG.pdb
     RDKit          3D

 30 32  0  0  1  0  0  0  0  0999 V2000
   29.0741  -20.4904  -12.4807 N   0  0  0  0  0  0  0  0  0  0  0  0
   27.8453  -19.8971  -12.0570 C   0  0  1  0  0  0  0  0  0  0  0  0
   26.8452  -19.8175  -13.1632 C   0  0  0  0  0  0  0  0  0  0  0  0
   27.2959  -18.8337  -14.1668 C   0  0  0  0  0  0  0  0  0  0  0  0
   27.7697  -19.2733  -15.3694 C   0  0  0  0  0  0  0  0  0  0  0  0
   28.1839  -18.3290  -16.2829 C   0  0  0  0  0  0  0  0  0  0  0  0
   28.1178  -16.9829  -15.9819 C   0  0  0  0  0  0  0  0  0  0  0  0
   27.6353  -16.5361  -14.7573 C   0  0  0  0  0  0  0  0  0  0  0  0
   27.2277  -17.4974  -13.8617 C   0  0  0  0  0  0  0  0  0  0  0  0
   27.2916  -20.5698  -10.8454 C   0  0  0  0  0  0  0  0  0  0  0  0
   27.7356  -21.7182  -10.5059 O   0  0  0  0  0  0  0  0  0  0  0  0
   26.2877  -20.0299  -10.0153 N   0  0  0  0  0  0  0  0  0  0  0  0
   25.6431  -20.7531   -8.9496 C   0  0  1  0  0  0  0  0  0  0  0  0
   25.5783  -19.9728   -7.6872 C   0  0  0  0  0  0  0  0  0  0  0  0
   26.8818  -19.5395   -7.1520 C   0  0  0  0  0  0  0  0  0  0  0  0
   27.6482  -18.4955   -7.6535 C   0  0  0  0  0  0  0  0  0  0  0  0
   28.7812  -18.3884   -6.9469 N   0  0  0  0  0  0  0  0  0  0  0  0
   28.7987  -19.3297   -5.9844 C   0  0  0  0  0  0  0  0  0  0  0  0
   29.7472  -19.5985   -5.0184 C   0  0  0  0  0  0  0  0  0  0  0  0
   29.4883  -20.6310   -4.1479 C   0  0  0  0  0  0  0  0  0  0  0  0
   28.3150  -21.3756   -4.2382 C   0  0  0  0  0  0  0  0  0  0  0  0
   27.4023  -21.0646   -5.2221 C   0  0  0  0  0  0  0  0  0  0  0  0
   27.6205  -20.0466   -6.1082 C   0  0  0  0  0  0  0  0  0  0  0  0
   24.3226  -21.2860   -9.3895 C   0  0  0  0  0  0  0  0  0  0  0  0
   23.5455  -21.7524   -8.5275 O   0  0  0  0  0  0  0  0  0  0  0  0
   23.9157  -21.2828  -10.7496 N   0  0  0  0  0  0  0  0  0  0  0  0
   22.6648  -21.8479  -11.2079 C   0  0  0  0  0  0  0  0  0  0  0  0
   21.5505  -20.8903  -11.1653 C   0  0  0  0  0  0  0  0  0  0  0  0
   21.8119  -19.6702  -11.0244 O   0  0  0  0  0  0  0  0  0  0  0  0
   20.2344  -21.2782  -11.2734 O   0  0  0  0  0  0  0  0  0  0  0  0
  2  1  1  6
  2  3  1  0
  2 10  1  0
  3  4  1  0
  4  5  2  0
  4  9  1  0
  5  6  1  0
  6  7  2  0
  8  7  1  0
  9  8  2  0
 10 11  2  0
 12 10  1  0
 12 13  1  0
 13 14  1  1
 14 15  1  0
 15 16  2  0
 16 17  1  0
 18 17  1  0
 19 18  2  0
 20 19  1  0
 21 22  1  0
 21 20  2  0
 22 23  2  0
 23 15  1  0
 23 18  1  0
 24 13  1  0
 24 25  2  0
 26 24  1  0
 27 26  1  0
 27 28  1  0
 28 29  2  0
 28 30  1  0
M  END
$$$$
