ATR.pdb
     RDKit          3D

 24 23  0  0  1  0  0  0  0  0999 V2000
   28.7524  -24.8377  -18.4165 C   0  0  0  0  0  0  0  0  0  0  0  0
   29.6590  -23.7360  -17.9048 C   0  0  2  0  0  0  0  0  0  0  0  0
   30.7455  -24.3080  -17.1579 N   0  0  0  0  0  0  0  0  0  0  0  0
   28.9297  -22.7780  -17.0443 C   0  0  0  0  0  0  0  0  0  0  0  0
   29.0215  -22.8557  -15.7768 O   0  0  0  0  0  0  0  0  0  0  0  0
   29.0974  -19.0961  -17.2284 C   0  0  0  0  0  0  0  0  0  0  0  0
   27.6203  -19.4609  -17.4222 C   0  0  1  0  0  0  0  0  0  0  0  0
   27.3792  -19.4158  -18.7735 O   0  0  0  0  0  0  0  0  0  0  0  0
   27.4150  -20.8169  -16.8178 C   0  0  2  0  0  0  0  0  0  0  0  0
   28.1293  -21.7749  -17.6420 N   0  0  0  0  0  0  0  0  0  0  0  0
   25.9854  -21.2050  -16.8186 C   0  0  0  0  0  0  0  0  0  0  0  0
   25.4711  -21.8669  -17.7805 O   0  0  0  0  0  0  0  0  0  0  0  0
   18.8961  -20.2678  -14.1686 N   0  0  0  0  0  0  0  0  0  0  0  0
   18.6976  -21.6414  -13.8893 C   0  0  0  0  0  0  0  0  0  0  0  0
   17.5400  -22.2271  -14.0817 N   0  0  0  0  0  0  0  0  0  0  0  0
   19.7158  -22.4935  -13.3845 N   0  0  0  0  0  0  0  0  0  0  0  0
   21.0699  -22.0419  -13.1469 C   0  0  0  0  0  0  0  0  0  0  0  0
   21.6506  -21.7274  -14.5279 C   0  0  0  0  0  0  0  0  0  0  0  0
   23.1079  -21.3984  -14.4464 C   0  0  0  0  0  0  0  0  0  0  0  0
   23.6528  -21.1841  -15.8318 C   0  0  2  0  0  0  0  0  0  0  0  0
   25.0847  -20.8802  -15.7707 N   0  0  0  0  0  0  0  0  0  0  0  0
   23.0193  -20.0080  -16.4357 C   0  0  0  0  0  0  0  0  0  0  0  0
   21.8890  -20.1425  -17.2138 O   0  0  0  0  0  0  0  0  0  0  0  0
   23.4692  -18.8589  -16.2743 O   0  0  0  0  0  0  0  0  0  0  0  0
  2  1  1  1
  2  3  1  0
  4  5  2  0
  4  2  1  0
  7  6  1  6
  7  8  1  0
  7  9  1  0
  9 10  1  6
 10  4  1  0
 11 21  1  0
 11  9  1  0
 12 11  2  0
 14 13  1  0
 15 14  2  0
 16 14  1  0
 17 16  1  0
 18 17  1  0
 19 18  1  0
 20 19  1  1
 20 21  1  0
 22 20  1  0
 23 22  1  0
 24 22  2  0
M  END
$$$$
