ATR.pdb
     RDKit          3D

 24 23  0  0  1  0  0  0  0  0999 V2000
   18.5257  -13.6792  -16.1020 C   0  0  0  0  0  0  0  0  0  0  0  0
   17.5332  -12.7665  -15.4096 C   0  0  2  0  0  0  0  0  0  0  0  0
   16.5818  -12.2687  -16.3649 N   0  0  0  0  0  0  0  0  0  0  0  0
   18.2032  -11.6232  -14.7508 C   0  0  0  0  0  0  0  0  0  0  0  0
   19.0866  -11.8258  -13.8566 O   0  0  0  0  0  0  0  0  0  0  0  0
   20.4207   -9.1048  -15.9409 C   0  0  0  0  0  0  0  0  0  0  0  0
   19.1515   -8.3498  -15.5270 C   0  0  1  0  0  0  0  0  0  0  0  0
   18.4008   -8.1908  -16.6660 O   0  0  0  0  0  0  0  0  0  0  0  0
   18.4750   -9.1660  -14.4677 C   0  0  2  0  0  0  0  0  0  0  0  0
   17.8536  -10.3028  -15.1228 N   0  0  0  0  0  0  0  0  0  0  0  0
   17.4034   -8.4009  -13.7890 C   0  0  0  0  0  0  0  0  0  0  0  0
   16.2174   -8.3493  -14.2567 O   0  0  0  0  0  0  0  0  0  0  0  0
   12.9691   -7.2597   -6.7387 N   0  0  0  0  0  0  0  0  0  0  0  0
   13.6935   -8.1443   -7.5735 C   0  0  0  0  0  0  0  0  0  0  0  0
   13.2595   -9.3516   -7.8454 N   0  0  0  0  0  0  0  0  0  0  0  0
   14.9335   -7.8100   -8.1806 N   0  0  0  0  0  0  0  0  0  0  0  0
   15.3785   -6.4440   -8.3541 C   0  0  0  0  0  0  0  0  0  0  0  0
   15.4659   -6.2252   -9.8666 C   0  0  0  0  0  0  0  0  0  0  0  0
   16.4948   -7.1153  -10.4893 C   0  0  0  0  0  0  0  0  0  0  0  0
   16.5524   -6.8575  -11.9700 C   0  0  2  0  0  0  0  0  0  0  0  0
   17.6010   -7.6748  -12.5854 N   0  0  0  0  0  0  0  0  0  0  0  0
   16.9358   -5.4637  -12.2145 C   0  0  0  0  0  0  0  0  0  0  0  0
   15.9748   -4.4813  -12.3254 O   0  0  0  0  0  0  0  0  0  0  0  0
   18.1251   -5.1162  -12.3312 O   0  0  0  0  0  0  0  0  0  0  0  0
  2  1  1  6
  2  3  1  0
  4  5  2  0
  4  2  1  0
  7  6  1  6
  7  8  1  0
  7  9  1  0
  9 10  1  6
 10  4  1  0
 11 21  1  0
 11  9  1  0
 12 11  2  0
 14 13  1  0
 15 14  2  0
 16 14  1  0
 17 16  1  0
 18 17  1  0
 19 18  1  0
 20 19  1  1
 20 21  1  0
 22 20  1  0
 23 22  1  0
 24 22  2  0
M  END
$$$$
