ATR.pdb
     RDKit          3D

 24 23  0  0  1  0  0  0  0  0999 V2000
   17.9504  -10.1791  -16.1053 C   0  0  0  0  0  0  0  0  0  0  0  0
   19.3290   -9.6185  -15.8180 C   0  0  2  0  0  0  0  0  0  0  0  0
   20.3333  -10.5263  -16.3008 N   0  0  0  0  0  0  0  0  0  0  0  0
   19.5389   -9.3869  -14.3716 C   0  0  0  0  0  0  0  0  0  0  0  0
   20.0140  -10.3114  -13.6362 O   0  0  0  0  0  0  0  0  0  0  0  0
   20.5040   -5.7790  -13.1973 C   0  0  0  0  0  0  0  0  0  0  0  0
   20.7369   -7.0380  -12.3529 C   0  0  1  0  0  0  0  0  0  0  0  0
   21.0565   -6.6084  -11.0882 O   0  0  0  0  0  0  0  0  0  0  0  0
   19.4802   -7.8522  -12.4138 C   0  0  2  0  0  0  0  0  0  0  0  0
   19.2071   -8.1295  -13.8124 N   0  0  0  0  0  0  0  0  0  0  0  0
   18.3199   -7.1082  -11.8710 C   0  0  0  0  0  0  0  0  0  0  0  0
   17.7177   -6.2144  -12.5539 O   0  0  0  0  0  0  0  0  0  0  0  0
   11.0871   -8.7475   -6.7257 N   0  0  0  0  0  0  0  0  0  0  0  0
   11.4276   -7.3743   -6.7748 C   0  0  0  0  0  0  0  0  0  0  0  0
   10.6981   -6.4583   -6.1842 N   0  0  0  0  0  0  0  0  0  0  0  0
   12.5692   -6.8739   -7.4560 N   0  0  0  0  0  0  0  0  0  0  0  0
   13.5387   -7.7347   -8.0987 C   0  0  0  0  0  0  0  0  0  0  0  0
   14.5552   -6.7971   -8.7551 C   0  0  0  0  0  0  0  0  0  0  0  0
   15.6839   -7.5605   -9.3730 C   0  0  0  0  0  0  0  0  0  0  0  0
   16.6177   -6.6053  -10.0641 C   0  0  2  0  0  0  0  0  0  0  0  0
   17.7903   -7.3222  -10.5715 N   0  0  0  0  0  0  0  0  0  0  0  0
   17.1318   -5.6303   -9.0975 C   0  0  0  0  0  0  0  0  0  0  0  0
   16.4490   -4.4574   -8.8540 O   0  0  0  0  0  0  0  0  0  0  0  0
   18.1891   -5.8178   -8.4682 O   0  0  0  0  0  0  0  0  0  0  0  0
  2  1  1  1
  2  3  1  0
  4  5  2  0
  4  2  1  0
  7  6  1  6
  7  8  1  0
  7  9  1  0
  9 10  1  6
 10  4  1  0
 11 21  1  0
 11  9  1  0
 12 11  2  0
 14 13  1  0
 15 14  2  0
 16 14  1  0
 17 16  1  0
 18 17  1  0
 19 18  1  0
 20 19  1  1
 20 21  1  0
 22 20  1  0
 23 22  1  0
 24 22  2  0
M  END
$$$$
