ATR.pdb
     RDKit          3D

 24 23  0  0  1  0  0  0  0  0999 V2000
   27.3403  -28.5397  -16.3948 C   0  0  0  0  0  0  0  0  0  0  0  0
   26.5093  -27.2831  -16.5624 C   0  0  2  0  0  0  0  0  0  0  0  0
   26.0029  -27.2106  -17.9055 N   0  0  0  0  0  0  0  0  0  0  0  0
   27.2932  -26.0618  -16.2726 C   0  0  0  0  0  0  0  0  0  0  0  0
   27.6683  -25.8076  -15.0828 O   0  0  0  0  0  0  0  0  0  0  0  0
   29.5092  -22.0569  -18.0500 C   0  0  0  0  0  0  0  0  0  0  0  0
   28.8654  -23.4187  -18.3385 C   0  0  1  0  0  0  0  0  0  0  0  0
   29.8590  -24.2244  -18.8382 O   0  0  0  0  0  0  0  0  0  0  0  0
   28.2776  -23.9134  -17.0516 C   0  0  2  0  0  0  0  0  0  0  0  0
   27.6222  -25.1787  -17.3290 N   0  0  0  0  0  0  0  0  0  0  0  0
   27.2507  -22.9838  -16.5267 C   0  0  0  0  0  0  0  0  0  0  0  0
   26.0153  -23.3010  -16.4902 O   0  0  0  0  0  0  0  0  0  0  0  0
   25.4081  -20.3112   -8.6258 N   0  0  0  0  0  0  0  0  0  0  0  0
   24.3378  -20.6034   -9.5051 C   0  0  0  0  0  0  0  0  0  0  0  0
   23.0923  -20.6293   -9.0955 N   0  0  0  0  0  0  0  0  0  0  0  0
   24.5135  -20.8898  -10.8853 N   0  0  0  0  0  0  0  0  0  0  0  0
   25.8113  -20.8980  -11.5254 C   0  0  0  0  0  0  0  0  0  0  0  0
   25.5378  -20.7105  -13.0198 C   0  0  0  0  0  0  0  0  0  0  0  0
   26.4653  -21.5372  -13.8534 C   0  0  0  0  0  0  0  0  0  0  0  0
   26.6064  -20.9148  -15.2154 C   0  0  2  0  0  0  0  0  0  0  0  0
   27.5476  -21.6878  -16.0297 N   0  0  0  0  0  0  0  0  0  0  0  0
   27.1915  -19.5765  -15.0891 C   0  0  0  0  0  0  0  0  0  0  0  0
   26.3835  -18.4693  -14.9403 O   0  0  0  0  0  0  0  0  0  0  0  0
   28.4215  -19.3881  -15.1118 O   0  0  0  0  0  0  0  0  0  0  0  0
  2  1  1  6
  2  3  1  0
  4  5  2  0
  4  2  1  0
  7  6  1  1
  7  8  1  0
  7  9  1  0
  9 10  1  6
 10  4  1  0
 11 21  1  0
 11  9  1  0
 12 11  2  0
 14 13  1  0
 15 14  2  0
 16 14  1  0
 17 16  1  0
 18 17  1  0
 19 18  1  0
 20 19  1  1
 20 21  1  0
 22 20  1  0
 23 22  1  0
 24 22  2  0
M  END
$$$$
