ATR.pdb
     RDKit          3D

 24 23  0  0  1  0  0  0  0  0999 V2000
   28.5189  -23.3546  -18.7416 C   0  0  0  0  0  0  0  0  0  0  0  0
   29.1532  -23.1122  -17.3865 C   0  0  2  0  0  0  0  0  0  0  0  0
   29.3370  -24.3639  -16.7047 N   0  0  0  0  0  0  0  0  0  0  0  0
   28.3284  -22.2173  -16.5445 C   0  0  0  0  0  0  0  0  0  0  0  0
   28.3522  -22.3277  -15.2763 O   0  0  0  0  0  0  0  0  0  0  0  0
   28.6837  -20.3617  -14.8415 C   0  0  0  0  0  0  0  0  0  0  0  0
   27.7648  -19.4270  -15.6379 C   0  0  1  0  0  0  0  0  0  0  0  0
   28.5747  -18.7032  -16.4783 O   0  0  0  0  0  0  0  0  0  0  0  0
   26.7686  -20.2880  -16.3537 C   0  0  2  0  0  0  0  0  0  0  0  0
   27.5127  -21.2380  -17.1607 N   0  0  0  0  0  0  0  0  0  0  0  0
   25.9178  -19.4935  -17.2698 C   0  0  0  0  0  0  0  0  0  0  0  0
   25.8031  -19.7911  -18.5052 O   0  0  0  0  0  0  0  0  0  0  0  0
   18.0404  -21.6325  -16.9812 N   0  0  0  0  0  0  0  0  0  0  0  0
   18.1182  -20.4284  -17.7218 C   0  0  0  0  0  0  0  0  0  0  0  0
   17.1122  -19.9912  -18.4406 N   0  0  0  0  0  0  0  0  0  0  0  0
   19.2722  -19.6007  -17.7526 N   0  0  0  0  0  0  0  0  0  0  0  0
   20.5136  -19.9614  -17.1024 C   0  0  0  0  0  0  0  0  0  0  0  0
   21.5042  -18.8484  -17.4532 C   0  0  0  0  0  0  0  0  0  0  0  0
   22.8659  -19.1352  -16.9037 C   0  0  0  0  0  0  0  0  0  0  0  0
   23.8253  -18.0690  -17.3565 C   0  0  2  0  0  0  0  0  0  0  0  0
   25.1730  -18.3569  -16.8594 N   0  0  0  0  0  0  0  0  0  0  0  0
   23.4475  -16.7812  -16.7665 C   0  0  0  0  0  0  0  0  0  0  0  0
   22.3432  -16.0961  -17.2270 O   0  0  0  0  0  0  0  0  0  0  0  0
   24.0983  -16.2616  -15.8416 O   0  0  0  0  0  0  0  0  0  0  0  0
  2  1  1  6
  2  3  1  0
  4  5  2  0
  4  2  1  0
  7  6  1  6
  7  8  1  0
  7  9  1  0
  9 10  1  6
 10  4  1  0
 11 21  1  0
 11  9  1  0
 12 11  2  0
 14 13  1  0
 15 14  2  0
 16 14  1  0
 17 16  1  0
 18 17  1  0
 19 18  1  0
 20 19  1  1
 20 21  1  0
 22 20  1  0
 23 22  1  0
 24 22  2  0
M  END
$$$$
