ATR.pdb
     RDKit          3D

 24 23  0  0  1  0  0  0  0  0999 V2000
   42.7514  -10.0902   -4.0086 C   0  0  0  0  0  0  0  0  0  0  0  0
   43.6091  -10.0966   -5.2584 C   0  0  2  0  0  0  0  0  0  0  0  0
   44.9387  -10.5348   -4.9333 N   0  0  0  0  0  0  0  0  0  0  0  0
   43.6788   -8.7579   -5.8853 C   0  0  0  0  0  0  0  0  0  0  0  0
   44.7384   -8.0585   -5.7883 O   0  0  0  0  0  0  0  0  0  0  0  0
   43.5150   -7.9517   -9.2023 C   0  0  0  0  0  0  0  0  0  0  0  0
   42.3666   -7.0934   -8.6576 C   0  0  1  0  0  0  0  0  0  0  0  0
   41.2024   -7.7503   -8.9726 O   0  0  0  0  0  0  0  0  0  0  0  0
   42.5905   -6.9357   -7.1841 C   0  0  2  0  0  0  0  0  0  0  0  0
   42.5580   -8.2615   -6.5933 N   0  0  0  0  0  0  0  0  0  0  0  0
   41.5155   -6.1377   -6.5501 C   0  0  0  0  0  0  0  0  0  0  0  0
   40.7398   -6.6380   -5.6693 O   0  0  0  0  0  0  0  0  0  0  0  0
   40.0729   -2.2541    0.4600 N   0  0  0  0  0  0  0  0  0  0  0  0
   38.9270   -2.4516   -0.3475 C   0  0  0  0  0  0  0  0  0  0  0  0
   37.7133   -2.3912    0.1458 N   0  0  0  0  0  0  0  0  0  0  0  0
   38.9875   -2.7284   -1.7395 N   0  0  0  0  0  0  0  0  0  0  0  0
   40.2297   -2.7504   -2.4813 C   0  0  0  0  0  0  0  0  0  0  0  0
   39.8318   -2.8953   -3.9523 C   0  0  0  0  0  0  0  0  0  0  0  0
   40.7804   -3.7867   -4.6901 C   0  0  0  0  0  0  0  0  0  0  0  0
   40.3129   -3.9525   -6.1100 C   0  0  2  0  0  0  0  0  0  0  0  0
   41.2624   -4.7763   -6.8624 N   0  0  0  0  0  0  0  0  0  0  0  0
   40.2954   -2.6486   -6.7800 C   0  0  0  0  0  0  0  0  0  0  0  0
   39.3725   -1.6887   -6.4221 O   0  0  0  0  0  0  0  0  0  0  0  0
   41.0991   -2.3599   -7.6853 O   0  0  0  0  0  0  0  0  0  0  0  0
  2  1  1  1
  2  3  1  0
  4  5  2  0
  4  2  1  0
  7  6  1  1
  7  8  1  0
  7  9  1  0
  9 10  1  1
 10  4  1  0
 11 21  1  0
 11  9  1  0
 12 11  2  0
 14 13  1  0
 15 14  2  0
 16 14  1  0
 17 16  1  0
 18 17  1  0
 19 18  1  0
 20 19  1  1
 20 21  1  0
 22 20  1  0
 23 22  1  0
 24 22  2  0
M  END
$$$$
