ATR.pdb
     RDKit          3D

 24 23  0  0  1  0  0  0  0  0999 V2000
   24.9097  -15.9431  -18.8349 C   0  0  0  0  0  0  0  0  0  0  0  0
   24.6492  -14.4753  -19.1091 C   0  0  2  0  0  0  0  0  0  0  0  0
   25.7166  -13.9322  -19.9038 N   0  0  0  0  0  0  0  0  0  0  0  0
   24.5296  -13.6940  -17.8580 C   0  0  0  0  0  0  0  0  0  0  0  0
   23.6601  -14.0118  -16.9839 O   0  0  0  0  0  0  0  0  0  0  0  0
   26.5475  -10.5481  -14.7587 C   0  0  0  0  0  0  0  0  0  0  0  0
   26.6717  -11.4547  -15.9895 C   0  0  1  0  0  0  0  0  0  0  0  0
   27.4169  -12.5415  -15.6027 O   0  0  0  0  0  0  0  0  0  0  0  0
   25.2810  -11.8018  -16.4274 C   0  0  2  0  0  0  0  0  0  0  0  0
   25.3896  -12.5907  -17.6412 N   0  0  0  0  0  0  0  0  0  0  0  0
   24.4914  -10.5909  -16.7506 C   0  0  0  0  0  0  0  0  0  0  0  0
   24.7413   -9.8833  -17.7825 O   0  0  0  0  0  0  0  0  0  0  0  0
   15.9145   -8.4290  -17.5543 N   0  0  0  0  0  0  0  0  0  0  0  0
   16.7650   -7.2988  -17.6136 C   0  0  0  0  0  0  0  0  0  0  0  0
   16.3093   -6.1034  -17.9021 N   0  0  0  0  0  0  0  0  0  0  0  0
   18.1634   -7.3569  -17.3708 N   0  0  0  0  0  0  0  0  0  0  0  0
   18.8433   -8.5764  -16.9908 C   0  0  0  0  0  0  0  0  0  0  0  0
   20.3247   -8.2077  -16.8785 C   0  0  0  0  0  0  0  0  0  0  0  0
   21.1618   -9.4022  -16.5454 C   0  0  0  0  0  0  0  0  0  0  0  0
   22.5877   -8.9732  -16.3332 C   0  0  2  0  0  0  0  0  0  0  0  0
   23.4116  -10.1245  -15.9560 N   0  0  0  0  0  0  0  0  0  0  0  0
   22.6606   -8.0414  -15.2037 C   0  0  0  0  0  0  0  0  0  0  0  0
   22.4533   -6.6916  -15.3938 O   0  0  0  0  0  0  0  0  0  0  0  0
   22.9097   -8.4243  -14.0460 O   0  0  0  0  0  0  0  0  0  0  0  0
  2  1  1  1
  2  3  1  0
  4  5  2  0
  4  2  1  0
  7  6  1  1
  7  8  1  0
  7  9  1  0
  9 10  1  6
 10  4  1  0
 11 21  1  0
 11  9  1  0
 12 11  2  0
 14 13  1  0
 15 14  2  0
 16 14  1  0
 17 16  1  0
 18 17  1  0
 19 18  1  0
 20 19  1  1
 20 21  1  0
 22 20  1  0
 23 22  1  0
 24 22  2  0
M  END
$$$$
