ATR.pdb
     RDKit          3D

 24 23  0  0  1  0  0  0  0  0999 V2000
   18.3299  -12.9658  -14.9439 C   0  0  0  0  0  0  0  0  0  0  0  0
   16.8276  -12.9736  -15.1452 C   0  0  2  0  0  0  0  0  0  0  0  0
   16.4723  -13.9722  -16.1158 N   0  0  0  0  0  0  0  0  0  0  0  0
   16.3258  -11.6569  -15.5974 C   0  0  0  0  0  0  0  0  0  0  0  0
   16.6427  -11.2098  -16.7467 O   0  0  0  0  0  0  0  0  0  0  0  0
   12.9061  -10.5420  -15.9223 C   0  0  0  0  0  0  0  0  0  0  0  0
   13.5346   -9.5571  -14.9288 C   0  0  1  0  0  0  0  0  0  0  0  0
   13.1538   -9.9680  -13.6749 O   0  0  0  0  0  0  0  0  0  0  0  0
   15.0166   -9.5887  -15.1497 C   0  0  2  0  0  0  0  0  0  0  0  0
   15.4909  -10.8987  -14.7417 N   0  0  0  0  0  0  0  0  0  0  0  0
   15.7150   -8.5815  -14.3178 C   0  0  0  0  0  0  0  0  0  0  0  0
   16.3135   -8.9028  -13.2377 O   0  0  0  0  0  0  0  0  0  0  0  0
   21.9651   -5.7941  -11.0463 N   0  0  0  0  0  0  0  0  0  0  0  0
   20.6502   -5.5247  -10.5962 C   0  0  0  0  0  0  0  0  0  0  0  0
   20.3322   -5.5620   -9.3245 N   0  0  0  0  0  0  0  0  0  0  0  0
   19.5762   -5.1961  -11.4660 N   0  0  0  0  0  0  0  0  0  0  0  0
   19.7103   -5.1818  -12.9068 C   0  0  0  0  0  0  0  0  0  0  0  0
   18.3449   -4.7480  -13.4460 C   0  0  0  0  0  0  0  0  0  0  0  0
   17.7427   -5.8018  -14.3210 C   0  0  0  0  0  0  0  0  0  0  0  0
   16.4023   -6.2058  -13.7712 C   0  0  2  0  0  0  0  0  0  0  0  0
   15.7765   -7.2016  -14.6448 N   0  0  0  0  0  0  0  0  0  0  0  0
   15.4999   -5.0504  -13.7704 C   0  0  0  0  0  0  0  0  0  0  0  0
   15.6986   -4.0062  -12.8922 O   0  0  0  0  0  0  0  0  0  0  0  0
   14.5325   -4.9667  -14.5489 O   0  0  0  0  0  0  0  0  0  0  0  0
  2  1  1  6
  2  3  1  0
  4  5  2  0
  4  2  1  0
  7  6  1  6
  7  8  1  0
  7  9  1  0
  9 10  1  1
 10  4  1  0
 11 21  1  0
 11  9  1  0
 12 11  2  0
 14 13  1  0
 15 14  2  0
 16 14  1  0
 17 16  1  0
 18 17  1  0
 19 18  1  0
 20 19  1  6
 20 21  1  0
 22 20  1  0
 23 22  1  0
 24 22  2  0
M  END
$$$$
