ATR.pdb
     RDKit          3D

 24 23  0  0  1  0  0  0  0  0999 V2000
   25.4087  -19.6352  -17.7830 C   0  0  0  0  0  0  0  0  0  0  0  0
   24.5271  -20.7157  -17.1889 C   0  0  2  0  0  0  0  0  0  0  0  0
   23.5016  -21.0778  -18.1285 N   0  0  0  0  0  0  0  0  0  0  0  0
   23.8945  -20.2772  -15.9250 C   0  0  0  0  0  0  0  0  0  0  0  0
   24.6141  -19.8994  -14.9449 O   0  0  0  0  0  0  0  0  0  0  0  0
   22.0273  -17.5085  -15.0406 C   0  0  0  0  0  0  0  0  0  0  0  0
   21.0369  -18.6623  -14.8406 C   0  0  1  0  0  0  0  0  0  0  0  0
   20.2823  -18.7345  -15.9858 O   0  0  0  0  0  0  0  0  0  0  0  0
   21.8424  -19.8969  -14.5701 C   0  0  2  0  0  0  0  0  0  0  0  0
   22.4832  -20.2814  -15.8147 N   0  0  0  0  0  0  0  0  0  0  0  0
   20.9848  -21.0262  -14.1417 C   0  0  0  0  0  0  0  0  0  0  0  0
   20.5297  -21.8767  -14.9768 O   0  0  0  0  0  0  0  0  0  0  0  0
   18.3387  -24.9431   -6.2376 N   0  0  0  0  0  0  0  0  0  0  0  0
   18.0757  -25.6827   -7.4158 C   0  0  0  0  0  0  0  0  0  0  0  0
   17.5295  -26.8744   -7.3780 N   0  0  0  0  0  0  0  0  0  0  0  0
   18.3745  -25.2091   -8.7213 N   0  0  0  0  0  0  0  0  0  0  0  0
   19.0585  -23.9572   -8.9638 C   0  0  0  0  0  0  0  0  0  0  0  0
   19.1038  -23.7974  -10.4855 C   0  0  0  0  0  0  0  0  0  0  0  0
   19.8555  -22.5666  -10.8839 C   0  0  0  0  0  0  0  0  0  0  0  0
   19.8007  -22.4060  -12.3784 C   0  0  2  0  0  0  0  0  0  0  0  0
   20.6043  -21.2534  -12.7931 N   0  0  0  0  0  0  0  0  0  0  0  0
   18.4269  -22.1064  -12.7932 C   0  0  0  0  0  0  0  0  0  0  0  0
   17.5925  -23.1117  -13.2340 O   0  0  0  0  0  0  0  0  0  0  0  0
   17.9654  -20.9509  -12.7660 O   0  0  0  0  0  0  0  0  0  0  0  0
  2  1  1  6
  2  3  1  0
  4  5  2  0
  4  2  1  0
  7  6  1  6
  7  8  1  0
  7  9  1  0
  9 10  1  6
 10  4  1  0
 11 21  1  0
 11  9  1  0
 12 11  2  0
 14 13  1  0
 15 14  2  0
 16 14  1  0
 17 16  1  0
 18 17  1  0
 19 18  1  0
 20 19  1  1
 20 21  1  0
 22 20  1  0
 23 22  1  0
 24 22  2  0
M  END
$$$$
