ATR.pdb
     RDKit          3D

 24 23  0  0  1  0  0  0  0  0999 V2000
   29.2492  -16.4739  -19.7087 C   0  0  0  0  0  0  0  0  0  0  0  0
   27.8133  -16.7582  -19.3150 C   0  0  2  0  0  0  0  0  0  0  0  0
   26.9385  -15.8106  -19.9493 N   0  0  0  0  0  0  0  0  0  0  0  0
   27.6206  -16.6914  -17.8493 C   0  0  0  0  0  0  0  0  0  0  0  0
   27.7154  -15.5775  -17.2400 O   0  0  0  0  0  0  0  0  0  0  0  0
   24.6684  -17.5917  -16.4074 C   0  0  0  0  0  0  0  0  0  0  0  0
   25.7855  -16.9491  -15.5758 C   0  0  1  0  0  0  0  0  0  0  0  0
   25.3158  -16.8629  -14.2881 O   0  0  0  0  0  0  0  0  0  0  0  0
   26.9997  -17.8160  -15.7182 C   0  0  2  0  0  0  0  0  0  0  0  0
   27.3300  -17.8759  -17.1306 N   0  0  0  0  0  0  0  0  0  0  0  0
   26.7395  -19.2007  -15.2611 C   0  0  0  0  0  0  0  0  0  0  0  0
   25.8213  -19.9172  -15.7821 O   0  0  0  0  0  0  0  0  0  0  0  0
   22.9633  -20.1585   -9.4950 N   0  0  0  0  0  0  0  0  0  0  0  0
   23.8695  -20.6308   -8.5152 C   0  0  0  0  0  0  0  0  0  0  0  0
   23.4681  -21.3265   -7.4785 N   0  0  0  0  0  0  0  0  0  0  0  0
   25.2698  -20.3975   -8.5657 N   0  0  0  0  0  0  0  0  0  0  0  0
   25.8878  -19.5478   -9.5607 C   0  0  0  0  0  0  0  0  0  0  0  0
   26.0172  -20.4093  -10.8193 C   0  0  0  0  0  0  0  0  0  0  0  0
   26.6776  -19.6571  -11.9314 C   0  0  0  0  0  0  0  0  0  0  0  0
   26.8329  -20.5588  -13.1252 C   0  0  2  0  0  0  0  0  0  0  0  0
   27.4745  -19.8352  -14.2257 N   0  0  0  0  0  0  0  0  0  0  0  0
   25.5111  -20.9531  -13.6220 C   0  0  0  0  0  0  0  0  0  0  0  0
   25.1517  -22.2830  -13.6791 O   0  0  0  0  0  0  0  0  0  0  0  0
   24.6735  -20.1172  -14.0075 O   0  0  0  0  0  0  0  0  0  0  0  0
  2  1  1  1
  2  3  1  0
  4  5  2  0
  4  2  1  0
  7  6  1  6
  7  8  1  0
  7  9  1  0
  9 10  1  6
 10  4  1  0
 11 21  1  0
 11  9  1  0
 12 11  2  0
 14 13  1  0
 15 14  2  0
 16 14  1  0
 17 16  1  0
 18 17  1  0
 19 18  1  0
 20 19  1  1
 20 21  1  0
 22 20  1  0
 23 22  1  0
 24 22  2  0
M  END
$$$$
