ATR.pdb
     RDKit          3D

 24 23  0  0  1  0  0  0  0  0999 V2000
   24.7217  -13.8296  -19.2303 C   0  0  0  0  0  0  0  0  0  0  0  0
   23.6630  -12.8273  -18.8156 C   0  0  2  0  0  0  0  0  0  0  0  0
   23.5642  -11.7878  -19.8032 N   0  0  0  0  0  0  0  0  0  0  0  0
   23.9647  -12.2201  -17.5002 C   0  0  0  0  0  0  0  0  0  0  0  0
   24.2441  -12.9588  -16.5016 O   0  0  0  0  0  0  0  0  0  0  0  0
   26.4731   -9.8107  -17.1063 C   0  0  0  0  0  0  0  0  0  0  0  0
   25.7544  -10.3894  -15.8812 C   0  0  1  0  0  0  0  0  0  0  0  0
   26.2483   -9.7240  -14.7860 O   0  0  0  0  0  0  0  0  0  0  0  0
   24.2842  -10.1918  -16.0946 C   0  0  2  0  0  0  0  0  0  0  0  0
   23.9398  -10.8115  -17.3615 N   0  0  0  0  0  0  0  0  0  0  0  0
   23.9337   -8.7557  -16.1898 C   0  0  0  0  0  0  0  0  0  0  0  0
   24.0060   -8.1198  -17.2936 O   0  0  0  0  0  0  0  0  0  0  0  0
   17.0745   -4.9707  -18.4569 N   0  0  0  0  0  0  0  0  0  0  0  0
   17.8573   -4.0033  -17.7818 C   0  0  0  0  0  0  0  0  0  0  0  0
   17.4992   -2.7432  -17.7197 N   0  0  0  0  0  0  0  0  0  0  0  0
   19.0792   -4.3049  -17.1232 N   0  0  0  0  0  0  0  0  0  0  0  0
   19.5630   -5.6576  -16.9490 C   0  0  0  0  0  0  0  0  0  0  0  0
   20.8762   -5.5317  -16.1726 C   0  0  0  0  0  0  0  0  0  0  0  0
   21.5169   -6.8671  -15.9617 C   0  0  0  0  0  0  0  0  0  0  0  0
   22.8224   -6.6891  -15.2361 C   0  0  2  0  0  0  0  0  0  0  0  0
   23.4966   -7.9809  -15.0837 N   0  0  0  0  0  0  0  0  0  0  0  0
   22.5696   -6.2063  -13.8752 C   0  0  0  0  0  0  0  0  0  0  0  0
   22.4570   -4.8560  -13.6199 O   0  0  0  0  0  0  0  0  0  0  0  0
   22.4494   -6.9828  -12.9100 O   0  0  0  0  0  0  0  0  0  0  0  0
  2  1  1  6
  2  3  1  0
  4  5  2  0
  4  2  1  0
  7  6  1  6
  7  8  1  0
  7  9  1  0
  9 10  1  6
 10  4  1  0
 11 21  1  0
 11  9  1  0
 12 11  2  0
 14 13  1  0
 15 14  2  0
 16 14  1  0
 17 16  1  0
 18 17  1  0
 19 18  1  0
 20 19  1  6
 20 21  1  0
 22 20  1  0
 23 22  1  0
 24 22  2  0
M  END
$$$$
