ATR.pdb
     RDKit          3D

 24 23  0  0  1  0  0  0  0  0999 V2000
   13.8949  -13.6349  -14.7292 C   0  0  0  0  0  0  0  0  0  0  0  0
   15.3079  -13.8016  -15.2519 C   0  0  2  0  0  0  0  0  0  0  0  0
   15.7017  -15.1806  -15.1576 N   0  0  0  0  0  0  0  0  0  0  0  0
   16.2743  -12.9685  -14.5022 C   0  0  0  0  0  0  0  0  0  0  0  0
   16.6130  -13.2882  -13.3173 O   0  0  0  0  0  0  0  0  0  0  0  0
   19.5319  -12.1602  -15.8837 C   0  0  0  0  0  0  0  0  0  0  0  0
   18.9410  -10.8029  -15.4827 C   0  0  1  0  0  0  0  0  0  0  0  0
   18.4678  -10.2251  -16.6353 O   0  0  0  0  0  0  0  0  0  0  0  0
   17.8780  -11.0663  -14.4596 C   0  0  2  0  0  0  0  0  0  0  0  0
   16.8186  -11.8133  -15.1132 N   0  0  0  0  0  0  0  0  0  0  0  0
   17.2873   -9.8078  -13.9483 C   0  0  0  0  0  0  0  0  0  0  0  0
   16.1318   -9.4114  -14.3166 O   0  0  0  0  0  0  0  0  0  0  0  0
   14.5007   -5.9927   -6.6694 N   0  0  0  0  0  0  0  0  0  0  0  0
   14.0063   -6.7483   -7.7597 C   0  0  0  0  0  0  0  0  0  0  0  0
   12.9452   -7.5111   -7.6493 N   0  0  0  0  0  0  0  0  0  0  0  0
   14.6043   -6.7486   -9.0482 N   0  0  0  0  0  0  0  0  0  0  0  0
   16.0064   -6.4611   -9.2619 C   0  0  0  0  0  0  0  0  0  0  0  0
   16.2115   -6.5011  -10.7783 C   0  0  0  0  0  0  0  0  0  0  0  0
   16.7621   -7.8199  -11.2211 C   0  0  0  0  0  0  0  0  0  0  0  0
   17.3781   -7.6747  -12.5855 C   0  0  2  0  0  0  0  0  0  0  0  0
   17.9434   -8.9532  -13.0240 N   0  0  0  0  0  0  0  0  0  0  0  0
   18.5051   -6.7393  -12.5221 C   0  0  0  0  0  0  0  0  0  0  0  0
   19.7956   -7.1818  -12.7217 O   0  0  0  0  0  0  0  0  0  0  0  0
   18.3458   -5.5273  -12.2881 O   0  0  0  0  0  0  0  0  0  0  0  0
  2  1  1  1
  2  3  1  0
  4  5  2  0
  4  2  1  0
  7  6  1  6
  7  8  1  0
  7  9  1  0
  9 10  1  6
 10  4  1  0
 11 21  1  0
 11  9  1  0
 12 11  2  0
 14 13  1  0
 15 14  2  0
 16 14  1  0
 17 16  1  0
 18 17  1  0
 19 18  1  0
 20 19  1  1
 20 21  1  0
 22 20  1  0
 23 22  1  0
 24 22  2  0
M  END
$$$$
