ATR.pdb
     RDKit          3D

 24 23  0  0  1  0  0  0  0  0999 V2000
   27.5781  -19.4336  -15.7394 C   0  0  0  0  0  0  0  0  0  0  0  0
   27.9153  -20.6313  -14.8738 C   0  0  2  0  0  0  0  0  0  0  0  0
   28.4104  -21.7012  -15.6958 N   0  0  0  0  0  0  0  0  0  0  0  0
   26.7398  -21.1086  -14.1119 C   0  0  0  0  0  0  0  0  0  0  0  0
   25.9401  -21.9537  -14.6290 O   0  0  0  0  0  0  0  0  0  0  0  0
   26.9149  -21.3527  -10.2190 C   0  0  0  0  0  0  0  0  0  0  0  0
   25.5825  -20.7046  -10.6150 C   0  0  1  0  0  0  0  0  0  0  0  0
   25.7126  -19.3595  -10.3705 O   0  0  0  0  0  0  0  0  0  0  0  0
   25.3392  -21.0350  -12.0565 C   0  0  2  0  0  0  0  0  0  0  0  0
   26.5118  -20.6177  -12.8038 N   0  0  0  0  0  0  0  0  0  0  0  0
   24.1768  -20.2939  -12.5986 C   0  0  0  0  0  0  0  0  0  0  0  0
   24.2738  -19.0797  -12.9785 O   0  0  0  0  0  0  0  0  0  0  0  0
   19.5082  -16.5904  -17.9094 N   0  0  0  0  0  0  0  0  0  0  0  0
   20.8802  -16.8813  -17.7167 C   0  0  0  0  0  0  0  0  0  0  0  0
   21.8235  -16.0497  -18.0887 N   0  0  0  0  0  0  0  0  0  0  0  0
   21.3501  -18.0788  -17.1142 N   0  0  0  0  0  0  0  0  0  0  0  0
   20.4651  -19.1394  -16.6830 C   0  0  0  0  0  0  0  0  0  0  0  0
   20.5689  -19.1713  -15.1562 C   0  0  0  0  0  0  0  0  0  0  0  0
   21.7109  -20.0254  -14.7034 C   0  0  0  0  0  0  0  0  0  0  0  0
   21.7250  -20.0902  -13.2008 C   0  0  2  0  0  0  0  0  0  0  0  0
   22.8827  -20.8601  -12.7386 N   0  0  0  0  0  0  0  0  0  0  0  0
   20.5445  -20.8185  -12.7263 C   0  0  0  0  0  0  0  0  0  0  0  0
   20.5621  -22.1936  -12.6269 O   0  0  0  0  0  0  0  0  0  0  0  0
   19.4947  -20.2349  -12.4003 O   0  0  0  0  0  0  0  0  0  0  0  0
  2  1  1  6
  2  3  1  0
  4  5  2  0
  4  2  1  0
  7  6  1  6
  7  8  1  0
  7  9  1  0
  9 10  1  6
 10  4  1  0
 11 21  1  0
 11  9  1  0
 12 11  2  0
 14 13  1  0
 15 14  2  0
 16 14  1  0
 17 16  1  0
 18 17  1  0
 19 18  1  0
 20 19  1  6
 20 21  1  0
 22 20  1  0
 23 22  1  0
 24 22  2  0
M  END
$$$$
