ATR.pdb
     RDKit          3D

 24 23  0  0  1  0  0  0  0  0999 V2000
   39.2433  -10.1793  -18.0767 C   0  0  0  0  0  0  0  0  0  0  0  0
   39.1824   -9.9755  -16.5759 C   0  0  2  0  0  0  0  0  0  0  0  0
   39.9777  -10.9749  -15.9169 N   0  0  0  0  0  0  0  0  0  0  0  0
   37.7948  -10.0457  -16.0665 C   0  0  0  0  0  0  0  0  0  0  0  0
   37.2803  -11.1690  -15.7593 O   0  0  0  0  0  0  0  0  0  0  0  0
   36.5941   -8.6402  -13.0805 C   0  0  0  0  0  0  0  0  0  0  0  0
   35.7180   -7.9796  -14.1521 C   0  0  1  0  0  0  0  0  0  0  0  0
   36.2657   -6.7449  -14.4002 O   0  0  0  0  0  0  0  0  0  0  0  0
   35.7139   -8.8882  -15.3440 C   0  0  2  0  0  0  0  0  0  0  0  0
   37.0445   -8.8538  -15.9238 N   0  0  0  0  0  0  0  0  0  0  0  0
   34.7627   -8.4254  -16.3810 C   0  0  0  0  0  0  0  0  0  0  0  0
   35.0984   -7.5673  -17.2635 O   0  0  0  0  0  0  0  0  0  0  0  0
   26.7127  -11.0241  -19.9589 N   0  0  0  0  0  0  0  0  0  0  0  0
   27.2682   -9.8378  -20.4958 C   0  0  0  0  0  0  0  0  0  0  0  0
   26.7138   -9.2078  -21.5036 N   0  0  0  0  0  0  0  0  0  0  0  0
   28.4548   -9.2341  -20.0005 N   0  0  0  0  0  0  0  0  0  0  0  0
   29.2563   -9.8256  -18.9509 C   0  0  0  0  0  0  0  0  0  0  0  0
   30.4315   -8.8683  -18.7370 C   0  0  0  0  0  0  0  0  0  0  0  0
   31.3782   -9.3876  -17.7014 C   0  0  0  0  0  0  0  0  0  0  0  0
   32.4843   -8.3912  -17.4870 C   0  0  2  0  0  0  0  0  0  0  0  0
   33.4242   -8.8878  -16.4788 N   0  0  0  0  0  0  0  0  0  0  0  0
   31.9310   -7.1483  -16.9407 C   0  0  0  0  0  0  0  0  0  0  0  0
   31.5679   -6.1149  -17.7782 O   0  0  0  0  0  0  0  0  0  0  0  0
   31.7700   -6.9775  -15.7185 O   0  0  0  0  0  0  0  0  0  0  0  0
  2  1  1  6
  2  3  1  0
  4  5  2  0
  4  2  1  0
  7  6  1  1
  7  8  1  0
  7  9  1  0
  9 10  1  6
 10  4  1  0
 11 21  1  0
 11  9  1  0
 12 11  2  0
 14 13  1  0
 15 14  2  0
 16 14  1  0
 17 16  1  0
 18 17  1  0
 19 18  1  0
 20 19  1  1
 20 21  1  0
 22 20  1  0
 23 22  1  0
 24 22  2  0
M  END
$$$$
