AYM.pdb
     RDKit          3D

 26 26  0  0  1  0  0  0  0  0999 V2000
   11.6746  -19.6726   20.4891 C   0  0  0  0  0  0  0  0  0  0  0  0
   11.0892  -18.4659   19.7387 C   0  0  2  0  0  0  0  0  0  0  0  0
   12.0369  -18.1435   18.7167 N   0  0  0  0  0  0  0  0  0  0  0  0
   10.9391  -17.3800   20.7403 C   0  0  0  0  0  0  0  0  0  0  0  0
   11.8976  -16.5812   20.9226 O   0  0  0  0  0  0  0  0  0  0  0  0
    7.2315  -12.6067   17.5002 O   0  0  0  0  0  0  0  0  0  0  0  0
    7.4644  -13.3182   18.6705 C   0  0  0  0  0  0  0  0  0  0  0  0
    6.8419  -14.5160   18.9075 C   0  0  0  0  0  0  0  0  0  0  0  0
    7.0873  -15.2086   20.0777 C   0  0  0  0  0  0  0  0  0  0  0  0
    7.9499  -14.7424   21.0440 C   0  0  0  0  0  0  0  0  0  0  0  0
    8.2552  -15.4218   22.2975 C   0  0  0  0  0  0  0  0  0  0  0  0
    9.6203  -16.0500   22.3510 C   0  0  2  0  0  0  0  0  0  0  0  0
    9.7663  -17.1900   21.5101 N   0  0  0  0  0  0  0  0  0  0  0  0
    9.8570  -16.4423   23.7600 C   0  0  0  0  0  0  0  0  0  0  0  0
    9.5499  -17.5986   24.1266 O   0  0  0  0  0  0  0  0  0  0  0  0
    8.5660  -13.5356   20.7862 C   0  0  0  0  0  0  0  0  0  0  0  0
    8.3381  -12.8215   19.6230 C   0  0  0  0  0  0  0  0  0  0  0  0
   10.6415  -14.2520   31.2901 C   0  0  0  0  0  0  0  0  0  0  0  0
   10.2279  -13.7326   29.5822 S   0  0  0  0  0  0  0  0  0  0  0  0
   10.5963  -15.1028   28.4452 C   0  0  0  0  0  0  0  0  0  0  0  0
   10.2837  -14.6906   27.0259 C   0  0  0  0  0  0  0  0  0  0  0  0
   10.5948  -15.8718   26.1232 C   0  0  2  0  0  0  0  0  0  0  0  0
   10.4193  -15.5650   24.7221 N   0  0  0  0  0  0  0  0  0  0  0  0
    9.7332  -17.0348   26.4497 C   0  0  0  0  0  0  0  0  0  0  0  0
    8.5228  -16.9698   26.1426 O   0  0  0  0  0  0  0  0  0  0  0  0
   10.1846  -18.1854   27.0720 O   0  0  0  0  0  0  0  0  0  0  0  0
  2  1  1  1
  3  2  1  0
  4  2  1  0
  4 13  1  0
  5  4  2  0
  7  8  2  0
  7  6  1  0
  9  8  1  0
 10  9  2  0
 11 10  1  0
 12 11  1  1
 12 13  1  0
 14 12  1  0
 15 14  2  0
 16 10  1  0
 16 17  2  0
 17  7  1  0
 19 20  1  0
 19 18  1  0
 20 21  1  0
 22 21  1  1
 22 23  1  0
 22 24  1  0
 23 14  1  0
 24 26  1  0
 25 24  2  0
M  END
$$$$
