AYM.pdb
     RDKit          3D

 26 26  0  0  1  0  0  0  0  0999 V2000
    8.3150  -12.9348   19.5311 C   0  0  0  0  0  0  0  0  0  0  0  0
    8.1289  -14.4336   19.2468 C   0  0  2  0  0  0  0  0  0  0  0  0
    7.0416  -14.5243   18.3216 N   0  0  0  0  0  0  0  0  0  0  0  0
    7.8228  -15.0744   20.5509 C   0  0  0  0  0  0  0  0  0  0  0  0
    6.6819  -14.9058   21.0608 O   0  0  0  0  0  0  0  0  0  0  0  0
    7.1915  -20.7261   27.1738 O   0  0  0  0  0  0  0  0  0  0  0  0
    7.6434  -20.0418   26.0523 C   0  0  0  0  0  0  0  0  0  0  0  0
    8.9526  -19.6527   25.9395 C   0  0  0  0  0  0  0  0  0  0  0  0
    9.3826  -18.9732   24.8157 C   0  0  0  0  0  0  0  0  0  0  0  0
    8.5378  -18.6593   23.7750 C   0  0  0  0  0  0  0  0  0  0  0  0
    8.9251  -17.9480   22.5626 C   0  0  0  0  0  0  0  0  0  0  0  0
    8.3694  -16.5553   22.4511 C   0  0  2  0  0  0  0  0  0  0  0  0
    8.7514  -15.8730   21.2609 N   0  0  0  0  0  0  0  0  0  0  0  0
    8.8584  -15.8027   23.6300 C   0  0  0  0  0  0  0  0  0  0  0  0
   10.0473  -15.4128   23.6493 O   0  0  0  0  0  0  0  0  0  0  0  0
    7.2247  -19.0598   23.9083 C   0  0  0  0  0  0  0  0  0  0  0  0
    6.7678  -19.7411   25.0227 C   0  0  0  0  0  0  0  0  0  0  0  0
    6.2352   -9.8756   26.7777 C   0  0  0  0  0  0  0  0  0  0  0  0
    5.9887  -11.6762   27.0124 S   0  0  0  0  0  0  0  0  0  0  0  0
    7.3826  -12.5644   26.2547 C   0  0  0  0  0  0  0  0  0  0  0  0
    7.2977  -14.0350   26.5900 C   0  0  0  0  0  0  0  0  0  0  0  0
    8.4561  -14.7335   25.8992 C   0  0  2  0  0  0  0  0  0  0  0  0
    8.0390  -15.4996   24.7473 N   0  0  0  0  0  0  0  0  0  0  0  0
    9.1587  -15.6504   26.8304 C   0  0  0  0  0  0  0  0  0  0  0  0
    9.7428  -15.1482   27.8154 O   0  0  0  0  0  0  0  0  0  0  0  0
    9.2080  -17.0249   26.6773 O   0  0  0  0  0  0  0  0  0  0  0  0
  2  1  1  1
  3  2  1  0
  4  2  1  0
  4 13  1  0
  5  4  2  0
  7  8  2  0
  7  6  1  0
  9  8  1  0
 10  9  2  0
 11 10  1  0
 12 11  1  6
 12 13  1  0
 14 12  1  0
 15 14  2  0
 16 10  1  0
 16 17  2  0
 17  7  1  0
 19 20  1  0
 19 18  1  0
 20 21  1  0
 22 21  1  1
 22 23  1  0
 22 24  1  0
 23 14  1  0
 24 26  1  0
 25 24  2  0
M  END
$$$$
