AYM.pdb
     RDKit          3D

 26 26  0  0  1  0  0  0  0  0999 V2000
    7.8192  -12.5794   19.5784 C   0  0  0  0  0  0  0  0  0  0  0  0
    8.0146  -14.0345   19.1242 C   0  0  2  0  0  0  0  0  0  0  0  0
    6.8032  -14.4025   18.4581 N   0  0  0  0  0  0  0  0  0  0  0  0
    8.2532  -14.8308   20.3546 C   0  0  0  0  0  0  0  0  0  0  0  0
    7.2633  -15.2108   21.0372 O   0  0  0  0  0  0  0  0  0  0  0  0
   11.3224  -20.9497   25.7715 O   0  0  0  0  0  0  0  0  0  0  0  0
   11.2545  -19.9355   24.8244 C   0  0  0  0  0  0  0  0  0  0  0  0
   11.9092  -18.7461   25.0116 C   0  0  0  0  0  0  0  0  0  0  0  0
   11.8295  -17.7499   24.0574 C   0  0  0  0  0  0  0  0  0  0  0  0
   11.1053  -17.8969   22.8959 C   0  0  0  0  0  0  0  0  0  0  0  0
   10.9809  -16.8896   21.8491 C   0  0  0  0  0  0  0  0  0  0  0  0
    9.7121  -16.0846   21.9046 C   0  0  2  0  0  0  0  0  0  0  0  0
    9.5449  -15.1910   20.8085 N   0  0  0  0  0  0  0  0  0  0  0  0
    9.7483  -15.3134   23.1691 C   0  0  0  0  0  0  0  0  0  0  0  0
   10.0754  -14.1061   23.1331 O   0  0  0  0  0  0  0  0  0  0  0  0
   10.4542  -19.1010   22.7269 C   0  0  0  0  0  0  0  0  0  0  0  0
   10.5171  -20.1151   23.6663 C   0  0  0  0  0  0  0  0  0  0  0  0
    7.9457  -11.5734   27.6276 C   0  0  0  0  0  0  0  0  0  0  0  0
    7.1073  -12.1214   26.0931 S   0  0  0  0  0  0  0  0  0  0  0  0
    6.7742  -13.9051   26.2096 C   0  0  0  0  0  0  0  0  0  0  0  0
    7.3930  -14.6210   25.0320 C   0  0  0  0  0  0  0  0  0  0  0  0
    8.7204  -15.2002   25.4896 C   0  0  2  0  0  0  0  0  0  0  0  0
    9.4280  -15.8802   24.4291 N   0  0  0  0  0  0  0  0  0  0  0  0
    8.5278  -16.1619   26.6030 C   0  0  0  0  0  0  0  0  0  0  0  0
    8.9376  -15.8321   27.7375 O   0  0  0  0  0  0  0  0  0  0  0  0
    7.9240  -17.3993   26.4649 O   0  0  0  0  0  0  0  0  0  0  0  0
  2  1  1  1
  3  2  1  0
  4  2  1  0
  4 13  1  0
  5  4  2  0
  7  8  2  0
  7  6  1  0
  9  8  1  0
 10  9  2  0
 11 10  1  0
 12 11  1  6
 12 13  1  0
 14 12  1  0
 15 14  2  0
 16 10  1  0
 16 17  2  0
 17  7  1  0
 19 20  1  0
 19 18  1  0
 20 21  1  0
 22 21  1  6
 22 23  1  0
 22 24  1  0
 23 14  1  0
 24 26  1  0
 25 24  2  0
M  END
$$$$
