AYM.pdb
     RDKit          3D

 26 26  0  0  1  0  0  0  0  0999 V2000
    9.8966  -18.4444   18.3309 C   0  0  0  0  0  0  0  0  0  0  0  0
    9.8264  -19.0454   19.7437 C   0  0  2  0  0  0  0  0  0  0  0  0
    8.4904  -19.5342   19.8948 N   0  0  0  0  0  0  0  0  0  0  0  0
   10.1397  -17.9419   20.6864 C   0  0  0  0  0  0  0  0  0  0  0  0
   11.3112  -17.4758   20.7128 O   0  0  0  0  0  0  0  0  0  0  0  0
    7.1903  -12.7709   17.5592 O   0  0  0  0  0  0  0  0  0  0  0  0
    7.4938  -13.3515   18.7843 C   0  0  0  0  0  0  0  0  0  0  0  0
    7.6914  -12.5842   19.9026 C   0  0  0  0  0  0  0  0  0  0  0  0
    7.9920  -13.1808   21.1122 C   0  0  0  0  0  0  0  0  0  0  0  0
    8.1059  -14.5455   21.2536 C   0  0  0  0  0  0  0  0  0  0  0  0
    8.4179  -15.2390   22.4977 C   0  0  0  0  0  0  0  0  0  0  0  0
    9.5159  -16.2600   22.3850 C   0  0  2  0  0  0  0  0  0  0  0  0
    9.1853  -17.3779   21.5669 N   0  0  0  0  0  0  0  0  0  0  0  0
    9.8119  -16.7252   23.7602 C   0  0  0  0  0  0  0  0  0  0  0  0
    9.0164  -17.5145   24.3171 O   0  0  0  0  0  0  0  0  0  0  0  0
    7.9034  -15.2994   20.1165 C   0  0  0  0  0  0  0  0  0  0  0  0
    7.6014  -14.7277   18.8931 C   0  0  0  0  0  0  0  0  0  0  0  0
   10.0433  -12.7619   29.5714 C   0  0  0  0  0  0  0  0  0  0  0  0
    9.0400  -14.0545   28.7466 S   0  0  0  0  0  0  0  0  0  0  0  0
   10.1574  -15.2817   28.0039 C   0  0  0  0  0  0  0  0  0  0  0  0
    9.9774  -15.2988   26.5041 C   0  0  0  0  0  0  0  0  0  0  0  0
   11.0436  -16.2104   25.9217 C   0  0  2  0  0  0  0  0  0  0  0  0
   10.9618  -16.3170   24.4831 N   0  0  0  0  0  0  0  0  0  0  0  0
   10.9455  -17.5777   26.4896 C   0  0  0  0  0  0  0  0  0  0  0  0
   10.6160  -18.5074   25.7210 O   0  0  0  0  0  0  0  0  0  0  0  0
   11.1954  -17.8881   27.8148 O   0  0  0  0  0  0  0  0  0  0  0  0
  2  1  1  6
  3  2  1  0
  4  2  1  0
  4 13  1  0
  5  4  2  0
  7  8  2  0
  7  6  1  0
  9  8  1  0
 10  9  2  0
 11 10  1  0
 12 11  1  1
 12 13  1  0
 14 12  1  0
 15 14  2  0
 16 10  1  0
 16 17  2  0
 17  7  1  0
 19 20  1  0
 19 18  1  0
 20 21  1  0
 22 21  1  1
 22 23  1  0
 22 24  1  0
 23 14  1  0
 24 26  1  0
 25 24  2  0
M  END
$$$$
