AYM.pdb
     RDKit          3D

 26 26  0  0  1  0  0  0  0  0999 V2000
    4.0482  -20.4977   22.0364 C   0  0  0  0  0  0  0  0  0  0  0  0
    5.1527  -19.4738   21.7303 C   0  0  2  0  0  0  0  0  0  0  0  0
    6.2064  -20.2108   21.1034 N   0  0  0  0  0  0  0  0  0  0  0  0
    5.5610  -18.8929   23.0344 C   0  0  0  0  0  0  0  0  0  0  0  0
    4.7140  -18.2418   23.7044 O   0  0  0  0  0  0  0  0  0  0  0  0
    5.2918  -23.3873   28.4225 O   0  0  0  0  0  0  0  0  0  0  0  0
    5.9816  -22.3990   27.7315 C   0  0  0  0  0  0  0  0  0  0  0  0
    6.5588  -22.6562   26.5153 C   0  0  0  0  0  0  0  0  0  0  0  0
    7.2404  -21.6595   25.8434 C   0  0  0  0  0  0  0  0  0  0  0  0
    7.3720  -20.3858   26.3489 C   0  0  0  0  0  0  0  0  0  0  0  0
    8.0744  -19.2890   25.6933 C   0  0  0  0  0  0  0  0  0  0  0  0
    7.2080  -18.4284   24.8162 C   0  0  2  0  0  0  0  0  0  0  0  0
    6.8629  -19.0312   23.5729 N   0  0  0  0  0  0  0  0  0  0  0  0
    7.9603  -17.1768   24.5658 C   0  0  0  0  0  0  0  0  0  0  0  0
    8.6569  -17.0855   23.5303 O   0  0  0  0  0  0  0  0  0  0  0  0
    6.7840  -20.1478   27.5738 C   0  0  0  0  0  0  0  0  0  0  0  0
    6.0960  -21.1276   28.2677 C   0  0  0  0  0  0  0  0  0  0  0  0
    4.9912  -11.2198   26.5236 C   0  0  0  0  0  0  0  0  0  0  0  0
    6.5324  -12.0022   27.1319 S   0  0  0  0  0  0  0  0  0  0  0  0
    7.1321  -13.1739   25.8774 C   0  0  0  0  0  0  0  0  0  0  0  0
    8.4128  -13.8212   26.3498 C   0  0  0  0  0  0  0  0  0  0  0  0
    8.7795  -14.9030   25.3488 C   0  0  2  0  0  0  0  0  0  0  0  0
    7.9299  -16.0673   25.4489 N   0  0  0  0  0  0  0  0  0  0  0  0
   10.1848  -15.3434   25.5294 C   0  0  0  0  0  0  0  0  0  0  0  0
   10.4019  -16.3026   26.3017 O   0  0  0  0  0  0  0  0  0  0  0  0
   11.2690  -14.7599   24.8977 O   0  0  0  0  0  0  0  0  0  0  0  0
  2  1  1  1
  3  2  1  0
  4  2  1  0
  4 13  1  0
  5  4  2  0
  7  8  2  0
  7  6  1  0
  9  8  1  0
 10  9  2  0
 11 10  1  0
 12 11  1  1
 12 13  1  0
 14 12  1  0
 15 14  2  0
 16 10  1  0
 16 17  2  0
 17  7  1  0
 19 20  1  0
 19 18  1  0
 20 21  1  0
 22 21  1  1
 22 23  1  0
 22 24  1  0
 23 14  1  0
 24 26  1  0
 25 24  2  0
M  END
$$$$
