AYM.pdb
     RDKit          3D

 26 26  0  0  1  0  0  0  0  0999 V2000
    8.3431  -12.6466   19.0709 C   0  0  0  0  0  0  0  0  0  0  0  0
    8.3286  -14.1372   18.6970 C   0  0  2  0  0  0  0  0  0  0  0  0
    7.0775  -14.3640   18.0414 N   0  0  0  0  0  0  0  0  0  0  0  0
    8.4500  -14.8915   19.9703 C   0  0  0  0  0  0  0  0  0  0  0  0
    7.4600  -14.9359   20.7501 O   0  0  0  0  0  0  0  0  0  0  0  0
   10.6335  -20.7735   26.0801 O   0  0  0  0  0  0  0  0  0  0  0  0
   10.7077  -19.9094   24.9948 C   0  0  0  0  0  0  0  0  0  0  0  0
   11.7787  -19.0705   24.8287 C   0  0  0  0  0  0  0  0  0  0  0  0
   11.8339  -18.2187   23.7421 C   0  0  0  0  0  0  0  0  0  0  0  0
   10.8392  -18.1696   22.7916 C   0  0  0  0  0  0  0  0  0  0  0  0
   10.8352  -17.2984   21.6225 C   0  0  0  0  0  0  0  0  0  0  0  0
    9.6560  -16.3690   21.5404 C   0  0  2  0  0  0  0  0  0  0  0  0
    9.6288  -15.5710   20.3612 N   0  0  0  0  0  0  0  0  0  0  0  0
    9.7197  -15.4889   22.7305 C   0  0  0  0  0  0  0  0  0  0  0  0
   10.6124  -14.6141   22.7900 O   0  0  0  0  0  0  0  0  0  0  0  0
    9.7705  -19.0217   22.9772 C   0  0  0  0  0  0  0  0  0  0  0  0
    9.6900  -19.8844   24.0562 C   0  0  0  0  0  0  0  0  0  0  0  0
    6.1999  -11.2213   28.1707 C   0  0  0  0  0  0  0  0  0  0  0  0
    6.0521  -12.1994   26.6281 S   0  0  0  0  0  0  0  0  0  0  0  0
    7.5255  -13.2504   26.4545 C   0  0  0  0  0  0  0  0  0  0  0  0
    7.4748  -13.9928   25.1398 C   0  0  0  0  0  0  0  0  0  0  0  0
    8.7971  -14.7204   24.9694 C   0  0  2  0  0  0  0  0  0  0  0  0
    8.8114  -15.5894   23.8152 N   0  0  0  0  0  0  0  0  0  0  0  0
    9.1133  -15.5403   26.1650 C   0  0  0  0  0  0  0  0  0  0  0  0
    9.6098  -14.9613   27.1559 O   0  0  0  0  0  0  0  0  0  0  0  0
    8.8935  -16.9038   26.2521 O   0  0  0  0  0  0  0  0  0  0  0  0
  2  1  1  1
  3  2  1  0
  4  2  1  0
  4 13  1  0
  5  4  2  0
  7  8  2  0
  7  6  1  0
  9  8  1  0
 10  9  2  0
 11 10  1  0
 12 11  1  6
 12 13  1  0
 14 12  1  0
 15 14  2  0
 16 10  1  0
 16 17  2  0
 17  7  1  0
 19 20  1  0
 19 18  1  0
 20 21  1  0
 22 21  1  1
 22 23  1  0
 22 24  1  0
 23 14  1  0
 24 26  1  0
 25 24  2  0
M  END
$$$$
