AYM.pdb
     RDKit          3D

 26 26  0  0  1  0  0  0  0  0999 V2000
    8.0940  -13.4095   20.5084 C   0  0  0  0  0  0  0  0  0  0  0  0
    7.6751  -14.8829   20.3839 C   0  0  2  0  0  0  0  0  0  0  0  0
    6.4419  -14.8790   19.6589 N   0  0  0  0  0  0  0  0  0  0  0  0
    7.5205  -15.3948   21.7691 C   0  0  0  0  0  0  0  0  0  0  0  0
    6.4615  -15.1332   22.4018 O   0  0  0  0  0  0  0  0  0  0  0  0
    7.9546  -20.2938   29.0684 O   0  0  0  0  0  0  0  0  0  0  0  0
    8.1149  -19.7585   27.7964 C   0  0  0  0  0  0  0  0  0  0  0  0
    7.0315  -19.4298   27.0241 C   0  0  0  0  0  0  0  0  0  0  0  0
    7.2120  -18.8981   25.7616 C   0  0  0  0  0  0  0  0  0  0  0  0
    8.4607  -18.6758   25.2262 C   0  0  0  0  0  0  0  0  0  0  0  0
    8.7221  -18.1174   23.9050 C   0  0  0  0  0  0  0  0  0  0  0  0
    8.2781  -16.6914   23.7307 C   0  0  2  0  0  0  0  0  0  0  0  0
    8.5072  -16.1690   22.4258 N   0  0  0  0  0  0  0  0  0  0  0  0
    9.0259  -15.8849   24.7234 C   0  0  0  0  0  0  0  0  0  0  0  0
   10.2319  -15.6282   24.5105 O   0  0  0  0  0  0  0  0  0  0  0  0
    9.5375  -19.0133   26.0194 C   0  0  0  0  0  0  0  0  0  0  0  0
    9.3850  -19.5473   27.2869 C   0  0  0  0  0  0  0  0  0  0  0  0
    5.7897  -10.2632   25.8571 C   0  0  0  0  0  0  0  0  0  0  0  0
    6.2222  -11.5551   27.0825 S   0  0  0  0  0  0  0  0  0  0  0  0
    7.6762  -12.4691   26.4854 C   0  0  0  0  0  0  0  0  0  0  0  0
    8.0684  -13.5248   27.4923 C   0  0  0  0  0  0  0  0  0  0  0  0
    9.0658  -14.4538   26.8222 C   0  0  2  0  0  0  0  0  0  0  0  0
    8.4378  -15.3851   25.9133 N   0  0  0  0  0  0  0  0  0  0  0  0
    9.8261  -15.2360   27.8280 C   0  0  0  0  0  0  0  0  0  0  0  0
    9.5214  -16.4386   27.9851 O   0  0  0  0  0  0  0  0  0  0  0  0
   10.8500  -14.7188   28.6020 O   0  0  0  0  0  0  0  0  0  0  0  0
  2  1  1  1
  3  2  1  0
  4  2  1  0
  4 13  1  0
  5  4  2  0
  7  8  2  0
  7  6  1  0
  9  8  1  0
 10  9  2  0
 11 10  1  0
 12 11  1  6
 12 13  1  0
 14 12  1  0
 15 14  2  0
 16 10  1  0
 16 17  2  0
 17  7  1  0
 19 20  1  0
 19 18  1  0
 20 21  1  0
 22 21  1  1
 22 23  1  0
 22 24  1  0
 23 14  1  0
 24 26  1  0
 25 24  2  0
M  END
$$$$
