AYM.pdb
     RDKit          3D

 26 26  0  0  1  0  0  0  0  0999 V2000
    8.2877  -13.5228   19.1113 C   0  0  0  0  0  0  0  0  0  0  0  0
    8.2145  -15.0570   19.0576 C   0  0  2  0  0  0  0  0  0  0  0  0
    7.1685  -15.3665   18.1320 N   0  0  0  0  0  0  0  0  0  0  0  0
    7.9080  -15.5121   20.4373 C   0  0  0  0  0  0  0  0  0  0  0  0
    6.7972  -15.2045   20.9489 O   0  0  0  0  0  0  0  0  0  0  0  0
    7.6895  -20.2901   27.8709 O   0  0  0  0  0  0  0  0  0  0  0  0
    8.0273  -19.7367   26.6422 C   0  0  0  0  0  0  0  0  0  0  0  0
    7.0792  -19.5262   25.6751 C   0  0  0  0  0  0  0  0  0  0  0  0
    7.4353  -18.9742   24.4595 C   0  0  0  0  0  0  0  0  0  0  0  0
    8.7309  -18.6150   24.1634 C   0  0  0  0  0  0  0  0  0  0  0  0
    9.1741  -18.0274   22.9047 C   0  0  0  0  0  0  0  0  0  0  0  0
    8.4081  -16.8044   22.4825 C   0  0  2  0  0  0  0  0  0  0  0  0
    8.8040  -16.2808   21.2187 N   0  0  0  0  0  0  0  0  0  0  0  0
    8.6241  -15.7798   23.5308 C   0  0  0  0  0  0  0  0  0  0  0  0
    9.7781  -15.3305   23.7100 O   0  0  0  0  0  0  0  0  0  0  0  0
    9.6694  -18.8350   25.1499 C   0  0  0  0  0  0  0  0  0  0  0  0
    9.3401  -19.3862   26.3757 C   0  0  0  0  0  0  0  0  0  0  0  0
    6.4362   -9.7235   27.4752 C   0  0  0  0  0  0  0  0  0  0  0  0
    6.0874  -11.0165   26.2244 S   0  0  0  0  0  0  0  0  0  0  0  0
    6.6953  -12.6140   26.8445 C   0  0  0  0  0  0  0  0  0  0  0  0
    6.4024  -13.7010   25.8371 C   0  0  0  0  0  0  0  0  0  0  0  0
    7.7323  -14.2567   25.3581 C   0  0  2  0  0  0  0  0  0  0  0  0
    7.5790  -15.2786   24.3482 N   0  0  0  0  0  0  0  0  0  0  0  0
    8.5053  -14.8365   26.4841 C   0  0  0  0  0  0  0  0  0  0  0  0
    9.4286  -14.1499   26.9738 O   0  0  0  0  0  0  0  0  0  0  0  0
    8.2689  -16.0879   27.0255 O   0  0  0  0  0  0  0  0  0  0  0  0
  2  1  1  1
  3  2  1  0
  4  2  1  0
  4 13  1  0
  5  4  2  0
  7  8  2  0
  7  6  1  0
  9  8  1  0
 10  9  2  0
 11 10  1  0
 12 11  1  1
 12 13  1  0
 14 12  1  0
 15 14  2  0
 16 10  1  0
 16 17  2  0
 17  7  1  0
 19 20  1  0
 19 18  1  0
 20 21  1  0
 22 21  1  1
 22 23  1  0
 22 24  1  0
 23 14  1  0
 24 26  1  0
 25 24  2  0
M  END
$$$$
