AYM.pdb
     RDKit          3D

 26 26  0  0  1  0  0  0  0  0999 V2000
    9.7044  -17.3905   17.8047 C   0  0  0  0  0  0  0  0  0  0  0  0
   10.1216  -17.8999   19.1934 C   0  0  2  0  0  0  0  0  0  0  0  0
    9.3067  -19.0473   19.4503 N   0  0  0  0  0  0  0  0  0  0  0  0
    9.8598  -16.7902   20.1447 C   0  0  0  0  0  0  0  0  0  0  0  0
   10.5934  -15.7654   20.1038 O   0  0  0  0  0  0  0  0  0  0  0  0
    6.3735  -11.9908   26.7479 O   0  0  0  0  0  0  0  0  0  0  0  0
    6.5940  -12.8084   25.6466 C   0  0  0  0  0  0  0  0  0  0  0  0
    7.2391  -12.3381   24.5326 C   0  0  0  0  0  0  0  0  0  0  0  0
    7.4490  -13.1674   23.4475 C   0  0  0  0  0  0  0  0  0  0  0  0
    7.0310  -14.4789   23.4293 C   0  0  0  0  0  0  0  0  0  0  0  0
    7.2213  -15.4071   22.3211 C   0  0  0  0  0  0  0  0  0  0  0  0
    8.6562  -15.7559   22.0380 C   0  0  2  0  0  0  0  0  0  0  0  0
    8.8204  -16.8196   21.1055 N   0  0  0  0  0  0  0  0  0  0  0  0
    9.2689  -16.1354   23.3325 C   0  0  0  0  0  0  0  0  0  0  0  0
    9.0479  -17.2766   23.7959 O   0  0  0  0  0  0  0  0  0  0  0  0
    6.3840  -14.9325   24.5599 C   0  0  0  0  0  0  0  0  0  0  0  0
    6.1606  -14.1235   25.6601 C   0  0  0  0  0  0  0  0  0  0  0  0
   11.1767  -13.7773   29.5571 C   0  0  0  0  0  0  0  0  0  0  0  0
    9.8334  -14.9422   29.1139 S   0  0  0  0  0  0  0  0  0  0  0  0
   10.4005  -16.0026   27.7501 C   0  0  0  0  0  0  0  0  0  0  0  0
    9.6685  -15.6402   26.4792 C   0  0  0  0  0  0  0  0  0  0  0  0
   10.6929  -15.5729   25.3599 C   0  0  2  0  0  0  0  0  0  0  0  0
   10.1005  -15.2622   24.0791 N   0  0  0  0  0  0  0  0  0  0  0  0
   11.4247  -16.8568   25.2277 C   0  0  0  0  0  0  0  0  0  0  0  0
   12.6102  -16.8158   24.8323 O   0  0  0  0  0  0  0  0  0  0  0  0
   10.8780  -18.0954   25.5144 O   0  0  0  0  0  0  0  0  0  0  0  0
  2  1  1  6
  3  2  1  0
  4  2  1  0
  4 13  1  0
  5  4  2  0
  7  8  2  0
  7  6  1  0
  9  8  1  0
 10  9  2  0
 11 10  1  0
 12 11  1  1
 12 13  1  0
 14 12  1  0
 15 14  2  0
 16 10  1  0
 16 17  2  0
 17  7  1  0
 19 20  1  0
 19 18  1  0
 20 21  1  0
 22 21  1  1
 22 23  1  0
 22 24  1  0
 23 14  1  0
 24 26  1  0
 25 24  2  0
M  END
$$$$
