AYM.pdb
     RDKit          3D

 26 26  0  0  1  0  0  0  0  0999 V2000
   10.3906  -18.4509   18.4544 C   0  0  0  0  0  0  0  0  0  0  0  0
   10.2917  -18.5865   19.9820 C   0  0  2  0  0  0  0  0  0  0  0  0
    9.0322  -19.2146   20.2383 N   0  0  0  0  0  0  0  0  0  0  0  0
   10.3644  -17.2092   20.5322 C   0  0  0  0  0  0  0  0  0  0  0  0
   11.4310  -16.5513   20.3915 O   0  0  0  0  0  0  0  0  0  0  0  0
    7.3340  -13.3981   16.0779 O   0  0  0  0  0  0  0  0  0  0  0  0
    7.5648  -13.6545   17.4237 C   0  0  0  0  0  0  0  0  0  0  0  0
    7.0109  -14.7448   18.0425 C   0  0  0  0  0  0  0  0  0  0  0  0
    7.2529  -14.9826   19.3820 C   0  0  0  0  0  0  0  0  0  0  0  0
    8.0447  -14.1560   20.1469 C   0  0  0  0  0  0  0  0  0  0  0  0
    8.3422  -14.3489   21.5612 C   0  0  0  0  0  0  0  0  0  0  0  0
    9.4577  -15.3184   21.8381 C   0  0  2  0  0  0  0  0  0  0  0  0
    9.2905  -16.5872   21.2134 N   0  0  0  0  0  0  0  0  0  0  0  0
    9.5168  -15.4959   23.3079 C   0  0  0  0  0  0  0  0  0  0  0  0
   10.6333  -15.5022   23.8729 O   0  0  0  0  0  0  0  0  0  0  0  0
    8.5924  -13.0648   19.5053 C   0  0  0  0  0  0  0  0  0  0  0  0
    8.3663  -12.8032   18.1654 C   0  0  0  0  0  0  0  0  0  0  0  0
    6.6757  -11.0616   28.0961 C   0  0  0  0  0  0  0  0  0  0  0  0
    5.8180  -12.4041   27.1906 S   0  0  0  0  0  0  0  0  0  0  0  0
    6.9314  -13.8365   27.0693 C   0  0  0  0  0  0  0  0  0  0  0  0
    6.9317  -14.3684   25.6553 C   0  0  0  0  0  0  0  0  0  0  0  0
    8.2111  -15.1638   25.4618 C   0  0  2  0  0  0  0  0  0  0  0  0
    8.3610  -15.6605   24.1133 N   0  0  0  0  0  0  0  0  0  0  0  0
    8.2642  -16.3230   26.3864 C   0  0  0  0  0  0  0  0  0  0  0  0
    8.2477  -16.0916   27.6152 O   0  0  0  0  0  0  0  0  0  0  0  0
    8.3307  -17.6425   25.9747 O   0  0  0  0  0  0  0  0  0  0  0  0
  2  1  1  6
  3  2  1  0
  4  2  1  0
  4 13  1  0
  5  4  2  0
  7  8  2  0
  7  6  1  0
  9  8  1  0
 10  9  2  0
 11 10  1  0
 12 11  1  1
 12 13  1  0
 14 12  1  0
 15 14  2  0
 16 10  1  0
 16 17  2  0
 17  7  1  0
 19 20  1  0
 19 18  1  0
 20 21  1  0
 22 21  1  6
 22 23  1  0
 22 24  1  0
 23 14  1  0
 24 26  1  0
 25 24  2  0
M  END
$$$$
