AYM.pdb
     RDKit          3D

 26 26  0  0  1  0  0  0  0  0999 V2000
   11.1877  -18.9793   20.1113 C   0  0  0  0  0  0  0  0  0  0  0  0
   10.6775  -17.6505   19.5317 C   0  0  2  0  0  0  0  0  0  0  0  0
   11.7521  -17.1287   18.7447 N   0  0  0  0  0  0  0  0  0  0  0  0
   10.3477  -16.7844   20.6919 C   0  0  0  0  0  0  0  0  0  0  0  0
   11.2196  -15.9807   21.1208 O   0  0  0  0  0  0  0  0  0  0  0  0
    6.2624  -12.2003   26.9846 O   0  0  0  0  0  0  0  0  0  0  0  0
    6.5228  -13.0694   25.9325 C   0  0  0  0  0  0  0  0  0  0  0  0
    6.2732  -14.4124   26.0444 C   0  0  0  0  0  0  0  0  0  0  0  0
    6.5386  -15.2605   24.9863 C   0  0  0  0  0  0  0  0  0  0  0  0
    7.0555  -14.8109   23.7921 C   0  0  0  0  0  0  0  0  0  0  0  0
    7.3566  -15.6487   22.6374 C   0  0  0  0  0  0  0  0  0  0  0  0
    8.8195  -15.9315   22.4354 C   0  0  2  0  0  0  0  0  0  0  0  0
    9.0947  -16.8116   21.3502 N   0  0  0  0  0  0  0  0  0  0  0  0
    9.3186  -16.5303   23.6953 C   0  0  0  0  0  0  0  0  0  0  0  0
    9.4519  -17.7726   23.7644 O   0  0  0  0  0  0  0  0  0  0  0  0
    7.2994  -13.4565   23.7001 C   0  0  0  0  0  0  0  0  0  0  0  0
    7.0430  -12.5853   24.7441 C   0  0  0  0  0  0  0  0  0  0  0  0
   10.8511  -13.0147   29.0219 C   0  0  0  0  0  0  0  0  0  0  0  0
   11.3028  -14.6769   29.6470 S   0  0  0  0  0  0  0  0  0  0  0  0
   11.0888  -15.8874   28.3072 C   0  0  0  0  0  0  0  0  0  0  0  0
   10.4389  -15.2247   27.1153 C   0  0  0  0  0  0  0  0  0  0  0  0
   10.3069  -16.2699   26.0212 C   0  0  2  0  0  0  0  0  0  0  0  0
    9.6558  -15.7591   24.8368 N   0  0  0  0  0  0  0  0  0  0  0  0
    9.5376  -17.4463   26.4966 C   0  0  0  0  0  0  0  0  0  0  0  0
   10.1781  -18.4142   26.9619 O   0  0  0  0  0  0  0  0  0  0  0  0
    8.1575  -17.5392   26.4574 O   0  0  0  0  0  0  0  0  0  0  0  0
  2  1  1  1
  3  2  1  0
  4  2  1  0
  4 13  1  0
  5  4  2  0
  7  8  2  0
  7  6  1  0
  9  8  1  0
 10  9  2  0
 11 10  1  0
 12 11  1  1
 12 13  1  0
 14 12  1  0
 15 14  2  0
 16 10  1  0
 16 17  2  0
 17  7  1  0
 19 20  1  0
 19 18  1  0
 20 21  1  0
 22 21  1  1
 22 23  1  0
 22 24  1  0
 23 14  1  0
 24 26  1  0
 25 24  2  0
M  END
$$$$
