QMS.pdb
     RDKit          3D

 24 23  0  0  1  0  0  0  0  0999 V2000
    8.0293  -11.6760   19.3378 N   0  0  0  0  0  0  0  0  0  0  0  0
    7.7059  -13.0264   19.0703 C   0  0  0  0  0  0  0  0  0  0  0  0
    7.5757  -13.3434   17.8486 O   0  0  0  0  0  0  0  0  0  0  0  0
    7.5243  -14.0363   20.1564 C   0  0  0  0  0  0  0  0  0  0  0  0
    8.7613  -14.8997   20.2757 C   0  0  0  0  0  0  0  0  0  0  0  0
    8.5902  -16.0084   21.2682 C   0  0  2  0  0  0  0  0  0  0  0  0
    7.3164  -16.6422   21.1412 N   0  0  0  0  0  0  0  0  0  0  0  0
    8.8702  -15.6076   22.6508 C   0  0  0  0  0  0  0  0  0  0  0  0
    9.9357  -15.0650   23.0303 O   0  0  0  0  0  0  0  0  0  0  0  0
    6.9803  -10.7002   26.5219 C   0  0  0  0  0  0  0  0  0  0  0  0
    6.6985  -12.4667   26.8227 S   0  0  0  0  0  0  0  0  0  0  0  0
    7.0662  -13.3502   25.2591 C   0  0  0  0  0  0  0  0  0  0  0  0
    6.9737  -14.8070   25.5643 C   0  0  0  0  0  0  0  0  0  0  0  0
    8.1378  -15.6289   25.0511 C   0  0  2  0  0  0  0  0  0  0  0  0
    7.8723  -15.8460   23.6358 N   0  0  0  0  0  0  0  0  0  0  0  0
    8.1778  -16.9541   25.7130 C   0  0  0  0  0  0  0  0  0  0  0  0
    7.1462  -17.6828   25.8158 O   0  0  0  0  0  0  0  0  0  0  0  0
   11.3045  -19.0174   25.4969 O   0  0  0  0  0  0  0  0  0  0  0  0
   10.2179  -19.7018   26.0499 C   0  0  0  0  0  0  0  0  0  0  0  0
    9.4504  -18.7263   26.8858 C   0  0  2  0  0  0  0  0  0  0  0  0
    9.3961  -17.4281   26.2489 N   0  0  0  0  0  0  0  0  0  0  0  0
   10.2002  -18.5517   28.1774 C   0  0  0  0  0  0  0  0  0  0  0  0
   10.6830  -17.4196   28.4536 O   0  0  0  0  0  0  0  0  0  0  0  0
   10.3734  -19.6037   29.0707 O   0  0  0  0  0  0  0  0  0  0  0  0
  1  2  1  0
  2  3  2  0
  4  5  1  0
  4  2  1  0
  6  5  1  0
  6  8  1  0
  6  7  1  1
  8 15  1  0
  9  8  2  0
 11 12  1  0
 11 10  1  0
 12 13  1  0
 14 13  1  1
 15 14  1  0
 16 17  2  0
 16 14  1  0
 18 19  1  0
 20 19  1  6
 20 22  1  0
 20 21  1  0
 21 16  1  0
 22 24  1  0
 23 22  2  0
M  END
$$$$
