QMS.pdb
     RDKit          3D

 24 23  0  0  1  0  0  0  0  0999 V2000
    5.9767  -19.4650   19.0844 N   0  0  0  0  0  0  0  0  0  0  0  0
    7.3492  -19.6647   19.3601 C   0  0  0  0  0  0  0  0  0  0  0  0
    7.8857  -20.6892   18.8380 O   0  0  0  0  0  0  0  0  0  0  0  0
    8.1378  -18.7293   20.2177 C   0  0  0  0  0  0  0  0  0  0  0  0
    7.2536  -17.6042   20.7097 C   0  0  0  0  0  0  0  0  0  0  0  0
    7.9093  -16.2639   20.5797 C   0  0  2  0  0  0  0  0  0  0  0  0
    8.8011  -16.2156   19.4648 N   0  0  0  0  0  0  0  0  0  0  0  0
    8.5477  -15.7998   21.8156 C   0  0  0  0  0  0  0  0  0  0  0  0
    9.7722  -15.9086   22.0658 O   0  0  0  0  0  0  0  0  0  0  0  0
    6.8368  -11.0860   27.8673 C   0  0  0  0  0  0  0  0  0  0  0  0
    6.2975  -11.9938   26.3924 S   0  0  0  0  0  0  0  0  0  0  0  0
    7.6449  -13.1532   25.9442 C   0  0  0  0  0  0  0  0  0  0  0  0
    7.2515  -13.7789   24.6489 C   0  0  0  0  0  0  0  0  0  0  0  0
    8.2933  -14.7077   24.0609 C   0  0  2  0  0  0  0  0  0  0  0  0
    7.7320  -15.1830   22.8040 N   0  0  0  0  0  0  0  0  0  0  0  0
    8.5031  -15.8842   24.9370 C   0  0  0  0  0  0  0  0  0  0  0  0
    7.6183  -16.7804   25.0782 O   0  0  0  0  0  0  0  0  0  0  0  0
   12.1566  -16.9888   25.4907 O   0  0  0  0  0  0  0  0  0  0  0  0
   11.1830  -17.9514   25.7747 C   0  0  0  0  0  0  0  0  0  0  0  0
   10.0060  -17.2399   26.3648 C   0  0  2  0  0  0  0  0  0  0  0  0
    9.7209  -16.0203   25.6401 N   0  0  0  0  0  0  0  0  0  0  0  0
   10.3763  -16.8423   27.7669 C   0  0  0  0  0  0  0  0  0  0  0  0
   10.3466  -15.6214   28.0821 O   0  0  0  0  0  0  0  0  0  0  0  0
   10.7490  -17.7843   28.7201 O   0  0  0  0  0  0  0  0  0  0  0  0
  1  2  1  0
  2  3  2  0
  4  5  1  0
  4  2  1  0
  6  5  1  0
  6  8  1  0
  6  7  1  6
  8 15  1  0
  9  8  2  0
 11 12  1  0
 11 10  1  0
 12 13  1  0
 14 13  1  1
 15 14  1  0
 16 17  2  0
 16 14  1  0
 18 19  1  0
 20 19  1  6
 20 22  1  0
 20 21  1  0
 21 16  1  0
 22 24  1  0
 23 22  2  0
M  END
$$$$
