QMS.pdb
     RDKit          3D

 24 23  0  0  1  0  0  0  0  0999 V2000
    7.9145  -13.5546   16.2697 N   0  0  0  0  0  0  0  0  0  0  0  0
    8.1033  -14.6962   17.0825 C   0  0  0  0  0  0  0  0  0  0  0  0
    9.1028  -15.4268   16.8047 O   0  0  0  0  0  0  0  0  0  0  0  0
    7.1845  -15.0366   18.2105 C   0  0  0  0  0  0  0  0  0  0  0  0
    7.9599  -15.1137   19.5076 C   0  0  0  0  0  0  0  0  0  0  0  0
    7.7712  -13.8960   20.3590 C   0  0  2  0  0  0  0  0  0  0  0  0
    8.0971  -12.6985   19.6516 N   0  0  0  0  0  0  0  0  0  0  0  0
    8.4542  -13.9731   21.6544 C   0  0  0  0  0  0  0  0  0  0  0  0
    9.6296  -13.5865   21.8609 O   0  0  0  0  0  0  0  0  0  0  0  0
    6.1790  -10.6455   26.9829 C   0  0  0  0  0  0  0  0  0  0  0  0
    6.2084  -12.4377   26.7044 S   0  0  0  0  0  0  0  0  0  0  0  0
    7.2475  -12.7412   25.2249 C   0  0  0  0  0  0  0  0  0  0  0  0
    7.3445  -14.2216   25.0722 C   0  0  0  0  0  0  0  0  0  0  0  0
    8.3746  -14.6801   24.0612 C   0  0  2  0  0  0  0  0  0  0  0  0
    7.7443  -14.5218   22.7579 N   0  0  0  0  0  0  0  0  0  0  0  0
    8.6855  -16.1176   24.2424 C   0  0  0  0  0  0  0  0  0  0  0  0
    7.8593  -17.0261   23.9295 O   0  0  0  0  0  0  0  0  0  0  0  0
   12.4179  -17.2095   24.4921 O   0  0  0  0  0  0  0  0  0  0  0  0
   11.5246  -18.2696   24.3102 C   0  0  0  0  0  0  0  0  0  0  0  0
   10.2413  -17.8967   24.9838 C   0  0  2  0  0  0  0  0  0  0  0  0
    9.9361  -16.4972   24.7791 N   0  0  0  0  0  0  0  0  0  0  0  0
   10.4345  -18.0933   26.4619 C   0  0  0  0  0  0  0  0  0  0  0  0
   10.2918  -17.1047   27.2321 O   0  0  0  0  0  0  0  0  0  0  0  0
   10.7653  -19.3335   26.9979 O   0  0  0  0  0  0  0  0  0  0  0  0
  1  2  1  0
  2  3  2  0
  4  5  1  0
  4  2  1  0
  6  5  1  0
  6  8  1  0
  6  7  1  6
  8 15  1  0
  9  8  2  0
 11 12  1  0
 11 10  1  0
 12 13  1  0
 14 13  1  1
 15 14  1  0
 16 17  2  0
 16 14  1  0
 18 19  1  0
 20 19  1  6
 20 22  1  0
 20 21  1  0
 21 16  1  0
 22 24  1  0
 23 22  2  0
M  END
$$$$
