QMS.pdb
     RDKit          3D

 24 23  0  0  1  0  0  0  0  0999 V2000
    9.6939  -14.3264   17.5169 N   0  0  0  0  0  0  0  0  0  0  0  0
    8.4171  -13.7254   17.6081 C   0  0  0  0  0  0  0  0  0  0  0  0
    7.7306  -13.6958   16.5414 O   0  0  0  0  0  0  0  0  0  0  0  0
    7.8914  -13.1523   18.8839 C   0  0  0  0  0  0  0  0  0  0  0  0
    8.8980  -13.3495   19.9963 C   0  0  0  0  0  0  0  0  0  0  0  0
    8.6953  -14.6409   20.7276 C   0  0  2  0  0  0  0  0  0  0  0  0
    7.4031  -15.1955   20.4764 N   0  0  0  0  0  0  0  0  0  0  0  0
    8.9884  -14.5561   22.1619 C   0  0  0  0  0  0  0  0  0  0  0  0
   10.0245  -14.0394   22.6450 O   0  0  0  0  0  0  0  0  0  0  0  0
    6.8374  -10.7908   26.6244 C   0  0  0  0  0  0  0  0  0  0  0  0
    7.1817  -12.5689   26.7245 S   0  0  0  0  0  0  0  0  0  0  0  0
    6.7407  -13.3006   25.1025 C   0  0  0  0  0  0  0  0  0  0  0  0
    7.0461  -14.7572   25.1981 C   0  0  0  0  0  0  0  0  0  0  0  0
    8.3243  -15.1754   24.5016 C   0  0  2  0  0  0  0  0  0  0  0  0
    8.0401  -15.0933   23.0756 N   0  0  0  0  0  0  0  0  0  0  0  0
    8.6578  -16.5844   24.8166 C   0  0  0  0  0  0  0  0  0  0  0  0
    7.8243  -17.5239   24.6474 O   0  0  0  0  0  0  0  0  0  0  0  0
   12.3105  -17.7478   24.6414 O   0  0  0  0  0  0  0  0  0  0  0  0
   11.3753  -18.7783   24.7772 C   0  0  0  0  0  0  0  0  0  0  0  0
   10.2702  -18.2704   25.6492 C   0  0  2  0  0  0  0  0  0  0  0  0
    9.9390  -16.9005   25.3212 N   0  0  0  0  0  0  0  0  0  0  0  0
   10.7756  -18.2739   27.0653 C   0  0  0  0  0  0  0  0  0  0  0  0
   10.8558  -17.1791   27.6865 O   0  0  0  0  0  0  0  0  0  0  0  0
   11.1552  -19.4500   27.7036 O   0  0  0  0  0  0  0  0  0  0  0  0
  1  2  1  0
  2  3  2  0
  4  5  1  0
  4  2  1  0
  6  5  1  0
  6  8  1  0
  6  7  1  1
  8 15  1  0
  9  8  2  0
 11 12  1  0
 11 10  1  0
 12 13  1  0
 14 13  1  1
 15 14  1  0
 16 17  2  0
 16 14  1  0
 18 19  1  0
 20 19  1  6
 20 22  1  0
 20 21  1  0
 21 16  1  0
 22 24  1  0
 23 22  2  0
M  END
$$$$
