QMS.pdb
     RDKit          3D

 24 23  0  0  1  0  0  0  0  0999 V2000
   12.4789  -17.8154   18.5716 N   0  0  0  0  0  0  0  0  0  0  0  0
   11.2018  -18.0256   18.0022 C   0  0  0  0  0  0  0  0  0  0  0  0
   11.1526  -18.8011   16.9991 O   0  0  0  0  0  0  0  0  0  0  0  0
    9.9684  -17.3768   18.5410 C   0  0  0  0  0  0  0  0  0  0  0  0
   10.2989  -16.5875   19.7890 C   0  0  0  0  0  0  0  0  0  0  0  0
    9.3538  -16.8767   20.9145 C   0  0  2  0  0  0  0  0  0  0  0  0
    7.9927  -16.6803   20.5280 N   0  0  0  0  0  0  0  0  0  0  0  0
    9.6818  -16.1658   22.1545 C   0  0  0  0  0  0  0  0  0  0  0  0
   10.8485  -15.9089   22.5377 O   0  0  0  0  0  0  0  0  0  0  0  0
    6.3054  -11.4097   27.3744 C   0  0  0  0  0  0  0  0  0  0  0  0
    6.1861  -12.4501   25.8933 S   0  0  0  0  0  0  0  0  0  0  0  0
    7.7009  -13.4806   25.8288 C   0  0  0  0  0  0  0  0  0  0  0  0
    7.6524  -14.2240   24.5368 C   0  0  0  0  0  0  0  0  0  0  0  0
    8.8611  -15.0972   24.2718 C   0  0  2  0  0  0  0  0  0  0  0  0
    8.6119  -15.7340   22.9860 N   0  0  0  0  0  0  0  0  0  0  0  0
    8.9717  -16.1656   25.2927 C   0  0  0  0  0  0  0  0  0  0  0  0
    8.0866  -17.0635   25.4210 O   0  0  0  0  0  0  0  0  0  0  0  0
   11.6630  -18.1362   25.3651 O   0  0  0  0  0  0  0  0  0  0  0  0
   11.5598  -18.0281   26.7553 C   0  0  0  0  0  0  0  0  0  0  0  0
   10.2835  -17.3070   27.0566 C   0  0  2  0  0  0  0  0  0  0  0  0
   10.0918  -16.1930   26.1532 N   0  0  0  0  0  0  0  0  0  0  0  0
   10.4056  -16.7343   28.4415 C   0  0  0  0  0  0  0  0  0  0  0  0
   10.6326  -17.5147   29.4060 O   0  0  0  0  0  0  0  0  0  0  0  0
   10.2748  -15.3708   28.6835 O   0  0  0  0  0  0  0  0  0  0  0  0
  1  2  1  0
  2  3  2  0
  4  5  1  0
  4  2  1  0
  6  5  1  0
  6  8  1  0
  6  7  1  6
  8 15  1  0
  9  8  2  0
 11 12  1  0
 11 10  1  0
 12 13  1  0
 14 13  1  1
 15 14  1  0
 16 17  2  0
 16 14  1  0
 18 19  1  0
 20 19  1  6
 20 22  1  0
 20 21  1  0
 21 16  1  0
 22 24  1  0
 23 22  2  0
M  END
$$$$
