QMS.pdb
     RDKit          3D

 24 23  0  0  1  0  0  0  0  0999 V2000
    6.3407  -17.8184   18.4803 N   0  0  0  0  0  0  0  0  0  0  0  0
    7.6671  -17.3565   18.3168 C   0  0  0  0  0  0  0  0  0  0  0  0
    8.4797  -18.1598   17.7650 O   0  0  0  0  0  0  0  0  0  0  0  0
    8.1031  -15.9993   18.7644 C   0  0  0  0  0  0  0  0  0  0  0  0
    6.9506  -15.2744   19.4246 C   0  0  0  0  0  0  0  0  0  0  0  0
    7.3343  -13.9079   19.9030 C   0  0  2  0  0  0  0  0  0  0  0  0
    8.0452  -13.1761   18.9032 N   0  0  0  0  0  0  0  0  0  0  0  0
    8.0404  -13.9121   21.1883 C   0  0  0  0  0  0  0  0  0  0  0  0
    9.2888  -13.9149   21.3119 O   0  0  0  0  0  0  0  0  0  0  0  0
    6.8897  -11.7060   28.5528 C   0  0  0  0  0  0  0  0  0  0  0  0
    6.2767  -11.9148   26.8584 S   0  0  0  0  0  0  0  0  0  0  0  0
    7.3409  -13.1666   26.0453 C   0  0  0  0  0  0  0  0  0  0  0  0
    6.9079  -13.2284   24.6194 C   0  0  0  0  0  0  0  0  0  0  0  0
    7.8975  -13.9050   23.6939 C   0  0  2  0  0  0  0  0  0  0  0  0
    7.2665  -13.9131   22.3815 N   0  0  0  0  0  0  0  0  0  0  0  0
    8.1183  -15.3132   24.0992 C   0  0  0  0  0  0  0  0  0  0  0  0
    7.2080  -16.1892   23.9998 O   0  0  0  0  0  0  0  0  0  0  0  0
   11.6701  -16.5046   23.8983 O   0  0  0  0  0  0  0  0  0  0  0  0
   10.8110  -17.5888   24.1021 C   0  0  0  0  0  0  0  0  0  0  0  0
    9.6436  -17.0941   24.8972 C   0  0  2  0  0  0  0  0  0  0  0  0
    9.3760  -15.7008   24.6129 N   0  0  0  0  0  0  0  0  0  0  0  0
   10.0183  -17.1826   26.3507 C   0  0  0  0  0  0  0  0  0  0  0  0
    9.9722  -16.1383   27.0566 O   0  0  0  0  0  0  0  0  0  0  0  0
   10.4127  -18.3828   26.9327 O   0  0  0  0  0  0  0  0  0  0  0  0
  1  2  1  0
  2  3  2  0
  4  5  1  0
  4  2  1  0
  6  5  1  0
  6  8  1  0
  6  7  1  6
  8 15  1  0
  9  8  2  0
 11 12  1  0
 11 10  1  0
 12 13  1  0
 14 13  1  1
 15 14  1  0
 16 17  2  0
 16 14  1  0
 18 19  1  0
 20 19  1  6
 20 22  1  0
 20 21  1  0
 21 16  1  0
 22 24  1  0
 23 22  2  0
M  END
$$$$
