QMS.pdb
     RDKit          3D

 24 23  0  0  1  0  0  0  0  0999 V2000
    6.7000  -19.5800   20.7882 N   0  0  0  0  0  0  0  0  0  0  0  0
    7.7046  -19.2862   19.8374 C   0  0  0  0  0  0  0  0  0  0  0  0
    8.2645  -20.2809   19.2833 O   0  0  0  0  0  0  0  0  0  0  0  0
    8.0964  -17.8859   19.4935 C   0  0  0  0  0  0  0  0  0  0  0  0
    7.2438  -16.9029   20.2657 C   0  0  0  0  0  0  0  0  0  0  0  0
    7.9023  -15.5652   20.4087 C   0  0  2  0  0  0  0  0  0  0  0  0
    8.7590  -15.2748   19.3032 N   0  0  0  0  0  0  0  0  0  0  0  0
    8.5814  -15.3791   21.6951 C   0  0  0  0  0  0  0  0  0  0  0  0
    9.7434  -15.7785   21.9482 O   0  0  0  0  0  0  0  0  0  0  0  0
    5.5297  -12.3443   27.3400 C   0  0  0  0  0  0  0  0  0  0  0  0
    7.0294  -11.6356   26.6058 S   0  0  0  0  0  0  0  0  0  0  0  0
    8.0878  -13.0346   26.0736 C   0  0  0  0  0  0  0  0  0  0  0  0
    7.6734  -13.3732   24.6815 C   0  0  0  0  0  0  0  0  0  0  0  0
    8.5016  -14.4605   24.0292 C   0  0  2  0  0  0  0  0  0  0  0  0
    7.8839  -14.7010   22.7325 N   0  0  0  0  0  0  0  0  0  0  0  0
    8.4244  -15.7187   24.8082 C   0  0  0  0  0  0  0  0  0  0  0  0
    7.3393  -16.3601   24.9386 O   0  0  0  0  0  0  0  0  0  0  0  0
   11.2990  -18.0994   24.7540 O   0  0  0  0  0  0  0  0  0  0  0  0
   10.1312  -18.5895   25.3465 C   0  0  0  0  0  0  0  0  0  0  0  0
    9.5352  -17.4780   26.1522 C   0  0  2  0  0  0  0  0  0  0  0  0
    9.5882  -16.2266   25.4277 N   0  0  0  0  0  0  0  0  0  0  0  0
   10.3818  -17.3098   27.3834 C   0  0  0  0  0  0  0  0  0  0  0  0
   10.9846  -16.2167   27.5639 O   0  0  0  0  0  0  0  0  0  0  0  0
   10.5155  -18.3260   28.3237 O   0  0  0  0  0  0  0  0  0  0  0  0
  1  2  1  0
  2  3  2  0
  4  5  1  0
  4  2  1  0
  6  5  1  0
  6  8  1  0
  6  7  1  6
  8 15  1  0
  9  8  2  0
 11 12  1  0
 11 10  1  0
 12 13  1  0
 14 13  1  1
 15 14  1  0
 16 17  2  0
 16 14  1  0
 18 19  1  0
 20 19  1  6
 20 22  1  0
 20 21  1  0
 21 16  1  0
 22 24  1  0
 23 22  2  0
M  END
$$$$
