QMS.pdb
     RDKit          3D

 24 23  0  0  1  0  0  0  0  0999 V2000
    8.9494  -12.3919   18.0569 N   0  0  0  0  0  0  0  0  0  0  0  0
    8.1430  -13.4515   17.5810 C   0  0  0  0  0  0  0  0  0  0  0  0
    8.0404  -13.5596   16.3209 O   0  0  0  0  0  0  0  0  0  0  0  0
    7.4435  -14.4000   18.4995 C   0  0  0  0  0  0  0  0  0  0  0  0
    7.8024  -14.0919   19.9368 C   0  0  0  0  0  0  0  0  0  0  0  0
    8.1530  -15.3231   20.7143 C   0  0  2  0  0  0  0  0  0  0  0  0
    7.0546  -16.2333   20.7902 N   0  0  0  0  0  0  0  0  0  0  0  0
    8.7262  -15.0411   22.0343 C   0  0  0  0  0  0  0  0  0  0  0  0
    9.7970  -14.4158   22.2239 O   0  0  0  0  0  0  0  0  0  0  0  0
    6.0709  -10.7978   26.2879 C   0  0  0  0  0  0  0  0  0  0  0  0
    6.4302  -12.5487   26.5972 S   0  0  0  0  0  0  0  0  0  0  0  0
    7.0831  -13.2541   25.0362 C   0  0  0  0  0  0  0  0  0  0  0  0
    7.3666  -14.6929   25.3079 C   0  0  0  0  0  0  0  0  0  0  0  0
    8.5346  -15.2586   24.5272 C   0  0  2  0  0  0  0  0  0  0  0  0
    8.0282  -15.5036   23.1840 N   0  0  0  0  0  0  0  0  0  0  0  0
    8.9648  -16.5587   25.0934 C   0  0  0  0  0  0  0  0  0  0  0  0
    8.2625  -17.6067   24.9732 O   0  0  0  0  0  0  0  0  0  0  0  0
   12.5407  -19.3692   26.1993 O   0  0  0  0  0  0  0  0  0  0  0  0
   12.1583  -18.0594   25.8937 C   0  0  0  0  0  0  0  0  0  0  0  0
   10.7001  -17.9325   26.2056 C   0  0  2  0  0  0  0  0  0  0  0  0
   10.1914  -16.6434   25.7893 N   0  0  0  0  0  0  0  0  0  0  0  0
   10.5511  -18.0026   27.7001 C   0  0  0  0  0  0  0  0  0  0  0  0
   10.2158  -16.9618   28.3287 O   0  0  0  0  0  0  0  0  0  0  0  0
   10.7732  -19.1823   28.4029 O   0  0  0  0  0  0  0  0  0  0  0  0
  1  2  1  0
  2  3  2  0
  4  5  1  0
  4  2  1  0
  6  5  1  0
  6  8  1  0
  6  7  1  1
  8 15  1  0
  9  8  2  0
 11 12  1  0
 11 10  1  0
 12 13  1  0
 14 13  1  1
 15 14  1  0
 16 17  2  0
 16 14  1  0
 18 19  1  0
 20 19  1  1
 20 22  1  0
 20 21  1  0
 21 16  1  0
 22 24  1  0
 23 22  2  0
M  END
$$$$
