QMS.pdb
     RDKit          3D

 24 23  0  0  1  0  0  0  0  0999 V2000
    9.8991  -13.7575   17.8069 N   0  0  0  0  0  0  0  0  0  0  0  0
    8.5276  -13.6586   17.4768 C   0  0  0  0  0  0  0  0  0  0  0  0
    8.2015  -14.0263   16.3070 O   0  0  0  0  0  0  0  0  0  0  0  0
    7.5066  -13.1506   18.4422 C   0  0  0  0  0  0  0  0  0  0  0  0
    8.1237  -12.9878   19.8141 C   0  0  0  0  0  0  0  0  0  0  0  0
    8.2098  -14.2843   20.5591 C   0  0  2  0  0  0  0  0  0  0  0  0
    6.9796  -15.0084   20.5076 N   0  0  0  0  0  0  0  0  0  0  0  0
    8.7075  -14.1416   21.9311 C   0  0  0  0  0  0  0  0  0  0  0  0
    9.7735  -13.5579   22.2421 O   0  0  0  0  0  0  0  0  0  0  0  0
    5.7694  -12.3250   27.3225 C   0  0  0  0  0  0  0  0  0  0  0  0
    7.1676  -11.5582   26.4579 S   0  0  0  0  0  0  0  0  0  0  0  0
    7.3339  -12.4008   24.8383 C   0  0  0  0  0  0  0  0  0  0  0  0
    7.3362  -13.8651   25.1212 C   0  0  0  0  0  0  0  0  0  0  0  0
    8.3942  -14.6458   24.3696 C   0  0  2  0  0  0  0  0  0  0  0  0
    7.9364  -14.6992   22.9882 N   0  0  0  0  0  0  0  0  0  0  0  0
    8.4779  -16.0369   24.8733 C   0  0  0  0  0  0  0  0  0  0  0  0
    7.5344  -16.5688   25.5313 O   0  0  0  0  0  0  0  0  0  0  0  0
   11.3746  -18.3286   23.4616 O   0  0  0  0  0  0  0  0  0  0  0  0
   10.3669  -19.0564   24.1018 C   0  0  0  0  0  0  0  0  0  0  0  0
    9.7378  -18.1554   25.1177 C   0  0  2  0  0  0  0  0  0  0  0  0
    9.6386  -16.8009   24.6184 N   0  0  0  0  0  0  0  0  0  0  0  0
   10.6492  -18.1182   26.3130 C   0  0  0  0  0  0  0  0  0  0  0  0
   11.1940  -17.0258   26.6303 O   0  0  0  0  0  0  0  0  0  0  0  0
   10.9047  -19.2544   27.0737 O   0  0  0  0  0  0  0  0  0  0  0  0
  1  2  1  0
  2  3  2  0
  4  5  1  0
  4  2  1  0
  6  5  1  0
  6  8  1  0
  6  7  1  1
  8 15  1  0
  9  8  2  0
 11 12  1  0
 11 10  1  0
 12 13  1  0
 14 13  1  1
 15 14  1  0
 16 17  2  0
 16 14  1  0
 18 19  1  0
 20 19  1  6
 20 22  1  0
 20 21  1  0
 21 16  1  0
 22 24  1  0
 23 22  2  0
M  END
$$$$
