QMS.pdb
     RDKit          3D

 24 23  0  0  1  0  0  0  0  0999 V2000
    9.4205  -14.0538   17.2136 N   0  0  0  0  0  0  0  0  0  0  0  0
    8.2960  -13.5209   17.8854 C   0  0  0  0  0  0  0  0  0  0  0  0
    7.4818  -12.8523   17.1784 O   0  0  0  0  0  0  0  0  0  0  0  0
    8.0658  -13.7255   19.3475 C   0  0  0  0  0  0  0  0  0  0  0  0
    9.2231  -14.4884   19.9543 C   0  0  0  0  0  0  0  0  0  0  0  0
    8.7781  -15.4643   20.9998 C   0  0  2  0  0  0  0  0  0  0  0  0
    7.3992  -15.8070   20.8531 N   0  0  0  0  0  0  0  0  0  0  0  0
    9.0987  -15.0461   22.3684 C   0  0  0  0  0  0  0  0  0  0  0  0
   10.2087  -14.5852   22.7277 O   0  0  0  0  0  0  0  0  0  0  0  0
    5.7420  -12.1270   27.3237 C   0  0  0  0  0  0  0  0  0  0  0  0
    7.2635  -11.7116   26.4275 S   0  0  0  0  0  0  0  0  0  0  0  0
    7.2887  -12.7246   24.8998 C   0  0  0  0  0  0  0  0  0  0  0  0
    7.2675  -14.1503   25.3369 C   0  0  0  0  0  0  0  0  0  0  0  0
    8.3939  -14.9933   24.7765 C   0  0  2  0  0  0  0  0  0  0  0  0
    8.0894  -15.1671   23.3630 N   0  0  0  0  0  0  0  0  0  0  0  0
    8.4091  -16.3352   25.4050 C   0  0  0  0  0  0  0  0  0  0  0  0
    7.3583  -17.0351   25.5151 O   0  0  0  0  0  0  0  0  0  0  0  0
   11.5342  -18.4703   25.0937 O   0  0  0  0  0  0  0  0  0  0  0  0
   10.3948  -19.1338   25.5592 C   0  0  0  0  0  0  0  0  0  0  0  0
    9.6631  -18.1912   26.4624 C   0  0  2  0  0  0  0  0  0  0  0  0
    9.6246  -16.8588   25.8993 N   0  0  0  0  0  0  0  0  0  0  0  0
   10.4397  -18.1037   27.7470 C   0  0  0  0  0  0  0  0  0  0  0  0
   10.5875  -19.1459   28.4420 O   0  0  0  0  0  0  0  0  0  0  0  0
   10.9963  -16.9067   28.1853 O   0  0  0  0  0  0  0  0  0  0  0  0
  1  2  1  0
  2  3  2  0
  4  5  1  0
  4  2  1  0
  6  5  1  0
  6  8  1  0
  6  7  1  1
  8 15  1  0
  9  8  2  0
 11 12  1  0
 11 10  1  0
 12 13  1  0
 14 13  1  1
 15 14  1  0
 16 17  2  0
 16 14  1  0
 18 19  1  0
 20 19  1  6
 20 22  1  0
 20 21  1  0
 21 16  1  0
 22 24  1  0
 23 22  2  0
M  END
$$$$
