QMS.pdb
     RDKit          3D

 24 23  0  0  1  0  0  0  0  0999 V2000
    9.2663  -12.7121   17.4632 N   0  0  0  0  0  0  0  0  0  0  0  0
    8.0535  -13.4340   17.5509 C   0  0  0  0  0  0  0  0  0  0  0  0
    7.1440  -13.1101   16.7276 O   0  0  0  0  0  0  0  0  0  0  0  0
    7.8399  -14.5214   18.5531 C   0  0  0  0  0  0  0  0  0  0  0  0
    9.0213  -14.5997   19.4953 C   0  0  0  0  0  0  0  0  0  0  0  0
    8.8517  -15.6626   20.5368 C   0  0  2  0  0  0  0  0  0  0  0  0
    7.6029  -16.3429   20.4020 N   0  0  0  0  0  0  0  0  0  0  0  0
    9.0733  -15.1849   21.9054 C   0  0  0  0  0  0  0  0  0  0  0  0
   10.1316  -14.6425   22.3050 O   0  0  0  0  0  0  0  0  0  0  0  0
    7.3524  -11.6890   27.9494 C   0  0  0  0  0  0  0  0  0  0  0  0
    7.4267  -12.1308   26.1916 S   0  0  0  0  0  0  0  0  0  0  0  0
    6.7681  -13.8340   26.0305 C   0  0  0  0  0  0  0  0  0  0  0  0
    6.8917  -14.2010   24.5903 C   0  0  0  0  0  0  0  0  0  0  0  0
    8.1793  -14.9147   24.2349 C   0  0  2  0  0  0  0  0  0  0  0  0
    8.0232  -15.3423   22.8516 N   0  0  0  0  0  0  0  0  0  0  0  0
    8.3547  -16.1282   25.0672 C   0  0  0  0  0  0  0  0  0  0  0  0
    7.4526  -17.0135   25.1588 O   0  0  0  0  0  0  0  0  0  0  0  0
   11.7752  -17.5992   25.2986 O   0  0  0  0  0  0  0  0  0  0  0  0
   10.7606  -18.4200   25.8005 C   0  0  0  0  0  0  0  0  0  0  0  0
    9.7835  -17.5407   26.5158 C   0  0  2  0  0  0  0  0  0  0  0  0
    9.5583  -16.3132   25.7835 N   0  0  0  0  0  0  0  0  0  0  0  0
   10.4002  -17.1603   27.8333 C   0  0  0  0  0  0  0  0  0  0  0  0
   10.6424  -15.9442   28.0644 O   0  0  0  0  0  0  0  0  0  0  0  0
   10.7086  -18.1129   28.7989 O   0  0  0  0  0  0  0  0  0  0  0  0
  1  2  1  0
  2  3  2  0
  4  5  1  0
  4  2  1  0
  6  5  1  0
  6  8  1  0
  6  7  1  1
  8 15  1  0
  9  8  2  0
 11 12  1  0
 11 10  1  0
 12 13  1  0
 14 13  1  1
 15 14  1  0
 16 17  2  0
 16 14  1  0
 18 19  1  0
 20 19  1  6
 20 22  1  0
 20 21  1  0
 21 16  1  0
 22 24  1  0
 23 22  2  0
M  END
$$$$
