QMS.pdb
     RDKit          3D

 24 23  0  0  1  0  0  0  0  0999 V2000
    9.1434  -14.9856   16.0149 N   0  0  0  0  0  0  0  0  0  0  0  0
    8.2256  -14.0609   16.5648 C   0  0  0  0  0  0  0  0  0  0  0  0
    7.5845  -13.3435   15.7376 O   0  0  0  0  0  0  0  0  0  0  0  0
    8.0116  -13.9247   18.0372 C   0  0  0  0  0  0  0  0  0  0  0  0
    8.8942  -14.9013   18.7835 C   0  0  0  0  0  0  0  0  0  0  0  0
    8.2154  -15.4801   19.9867 C   0  0  2  0  0  0  0  0  0  0  0  0
    6.7998  -15.2946   19.9377 N   0  0  0  0  0  0  0  0  0  0  0  0
    8.7862  -15.0257   21.2588 C   0  0  0  0  0  0  0  0  0  0  0  0
    9.9728  -14.6473   21.4090 O   0  0  0  0  0  0  0  0  0  0  0  0
    6.7672  -11.1988   27.6118 C   0  0  0  0  0  0  0  0  0  0  0  0
    6.2499  -12.1481   26.1552 S   0  0  0  0  0  0  0  0  0  0  0  0
    7.6556  -13.2246   25.6801 C   0  0  0  0  0  0  0  0  0  0  0  0
    7.3491  -13.7434   24.3159 C   0  0  0  0  0  0  0  0  0  0  0  0
    8.4478  -14.5895   23.7070 C   0  0  2  0  0  0  0  0  0  0  0  0
    7.9458  -15.0092   22.4060 N   0  0  0  0  0  0  0  0  0  0  0  0
    8.6826  -15.8082   24.5166 C   0  0  0  0  0  0  0  0  0  0  0  0
    7.8156  -16.7277   24.6097 O   0  0  0  0  0  0  0  0  0  0  0  0
   11.9812  -18.8630   25.8352 O   0  0  0  0  0  0  0  0  0  0  0  0
   11.6783  -17.6124   25.2882 C   0  0  0  0  0  0  0  0  0  0  0  0
   10.2910  -17.2562   25.7216 C   0  0  2  0  0  0  0  0  0  0  0  0
    9.9048  -15.9592   25.2091 N   0  0  0  0  0  0  0  0  0  0  0  0
   10.3003  -17.1516   27.2215 C   0  0  0  0  0  0  0  0  0  0  0  0
   10.1902  -16.0135   27.7539 O   0  0  0  0  0  0  0  0  0  0  0  0
   10.4267  -18.2747   28.0323 O   0  0  0  0  0  0  0  0  0  0  0  0
  1  2  1  0
  2  3  2  0
  4  5  1  0
  4  2  1  0
  6  5  1  0
  6  8  1  0
  6  7  1  1
  8 15  1  0
  9  8  2  0
 11 12  1  0
 11 10  1  0
 12 13  1  0
 14 13  1  1
 15 14  1  0
 16 17  2  0
 16 14  1  0
 18 19  1  0
 20 19  1  6
 20 22  1  0
 20 21  1  0
 21 16  1  0
 22 24  1  0
 23 22  2  0
M  END
$$$$
