HIV.pdb
     RDKit          3D

 26 26  0  0  1  0  0  0  0  0999 V2000
    8.6793  -13.2381   20.5304 N   0  0  0  0  0  0  0  0  0  0  0  0
    7.9060  -14.1514   21.3093 C   0  0  1  0  0  0  0  0  0  0  0  0
    7.8670  -15.5162   20.6231 C   0  0  0  0  0  0  0  0  0  0  0  0
    7.4293  -15.3616   19.2034 C   0  0  0  0  0  0  0  0  0  0  0  0
    6.3219  -14.7062   18.7360 C   0  0  0  0  0  0  0  0  0  0  0  0
    6.3248  -14.8218   17.3885 N   0  0  0  0  0  0  0  0  0  0  0  0
    7.3899  -15.5228   17.0022 C   0  0  0  0  0  0  0  0  0  0  0  0
    8.0569  -15.8464   18.1260 N   0  0  0  0  0  0  0  0  0  0  0  0
    8.3465  -14.2732   22.7017 C   0  0  0  0  0  0  0  0  0  0  0  0
    9.5815  -14.5007   22.9117 O   0  0  0  0  0  0  0  0  0  0  0  0
    5.9742  -11.3316   26.5711 C   0  0  0  0  0  0  0  0  0  0  0  0
    7.0373  -12.0281   25.7593 C   0  0  0  0  0  0  0  0  0  0  0  0
    7.2320  -13.4537   26.1512 C   0  0  2  0  0  0  0  0  0  0  0  0
    7.8805  -13.4860   27.5186 C   0  0  0  0  0  0  0  0  0  0  0  0
    8.0747  -14.2465   25.1724 C   0  0  2  0  0  0  0  0  0  0  0  0
    7.5229  -14.1607   23.8295 N   0  0  0  0  0  0  0  0  0  0  0  0
    8.2520  -15.6649   25.5814 C   0  0  0  0  0  0  0  0  0  0  0  0
    7.3255  -16.5046   25.6611 O   0  0  0  0  0  0  0  0  0  0  0  0
   11.2368  -19.5436   25.9859 C   0  0  0  0  0  0  0  0  0  0  0  0
   10.9908  -18.1158   25.5560 C   0  0  1  0  0  0  0  0  0  0  0  0
   10.8489  -18.0924   24.0632 C   0  0  0  0  0  0  0  0  0  0  0  0
    9.7717  -17.5454   26.2543 C   0  0  2  0  0  0  0  0  0  0  0  0
    9.5643  -16.1558   25.9200 N   0  0  0  0  0  0  0  0  0  0  0  0
   10.0153  -17.6445   27.7020 C   0  0  0  0  0  0  0  0  0  0  0  0
    9.6660  -18.7846   28.3927 O   0  0  0  0  0  0  0  0  0  0  0  0
   10.5397  -16.6965   28.3130 O   0  0  0  0  0  0  0  0  0  0  0  0
  2  1  1  6
  2  3  1  0
  2  9  1  0
  3  4  1  0
  4  5  2  0
  6  5  1  0
  7  6  1  0
  8  7  2  0
  8  4  1  0
  9 10  2  0
 12 11  1  0
 13 12  1  0
 13 14  1  1
 15 13  1  0
 16  9  1  0
 15 16  1  6
 17 18  2  0
 17 15  1  0
 20 19  1  1
 20 21  1  0
 20 22  1  0
 22 23  1  6
 23 17  1  0
 24 22  1  0
 24 25  1  0
 26 24  2  0
M  END
$$$$
