HIV.pdb
     RDKit          3D

 26 26  0  0  1  0  0  0  0  0999 V2000
   10.7480  -16.2338   20.1434 N   0  0  0  0  0  0  0  0  0  0  0  0
   10.0309  -16.8177   21.2313 C   0  0  1  0  0  0  0  0  0  0  0  0
   10.6498  -18.1659   21.5978 C   0  0  0  0  0  0  0  0  0  0  0  0
   10.1711  -19.2208   20.6549 C   0  0  0  0  0  0  0  0  0  0  0  0
    9.3447  -19.0646   19.5746 C   0  0  0  0  0  0  0  0  0  0  0  0
    9.1809  -20.2843   19.0138 N   0  0  0  0  0  0  0  0  0  0  0  0
    9.8728  -21.1902   19.7035 C   0  0  0  0  0  0  0  0  0  0  0  0
   10.4742  -20.5227   20.7062 N   0  0  0  0  0  0  0  0  0  0  0  0
    9.9181  -15.9515   22.4080 C   0  0  0  0  0  0  0  0  0  0  0  0
   10.8887  -15.1661   22.6573 O   0  0  0  0  0  0  0  0  0  0  0  0
    5.9160  -12.8947   25.9036 C   0  0  0  0  0  0  0  0  0  0  0  0
    7.3150  -13.4217   25.7052 C   0  0  0  0  0  0  0  0  0  0  0  0
    7.3964  -14.4868   24.6646 C   0  0  2  0  0  0  0  0  0  0  0  0
    6.5226  -15.6436   25.0999 C   0  0  0  0  0  0  0  0  0  0  0  0
    8.8049  -14.9844   24.4092 C   0  0  2  0  0  0  0  0  0  0  0  0
    8.8291  -15.9112   23.2886 N   0  0  0  0  0  0  0  0  0  0  0  0
    9.4279  -15.5947   25.6134 C   0  0  0  0  0  0  0  0  0  0  0  0
    9.7263  -16.8065   25.7245 O   0  0  0  0  0  0  0  0  0  0  0  0
   10.9343  -15.0349   30.3321 C   0  0  0  0  0  0  0  0  0  0  0  0
   10.1933  -14.4614   29.1463 C   0  0  1  0  0  0  0  0  0  0  0  0
   10.6800  -13.0610   28.9208 C   0  0  0  0  0  0  0  0  0  0  0  0
   10.3799  -15.3348   27.9209 C   0  0  2  0  0  0  0  0  0  0  0  0
    9.7288  -14.7746   26.7598 N   0  0  0  0  0  0  0  0  0  0  0  0
    9.7619  -16.6366   28.2182 C   0  0  0  0  0  0  0  0  0  0  0  0
   10.5363  -17.7004   28.6273 O   0  0  0  0  0  0  0  0  0  0  0  0
    8.5325  -16.7851   28.1016 O   0  0  0  0  0  0  0  0  0  0  0  0
  2  1  1  6
  2  3  1  0
  2  9  1  0
  3  4  1  0
  4  5  2  0
  6  5  1  0
  7  6  1  0
  8  7  2  0
  8  4  1  0
  9 10  2  0
 12 11  1  0
 13 12  1  0
 13 14  1  1
 15 13  1  0
 16  9  1  0
 15 16  1  6
 17 18  2  0
 17 15  1  0
 20 19  1  1
 20 21  1  0
 20 22  1  0
 22 23  1  6
 23 17  1  0
 24 22  1  0
 24 25  1  0
 26 24  2  0
M  END
$$$$
