HIV.pdb
     RDKit          3D

 26 26  0  0  1  0  0  0  0  0999 V2000
   10.0966  -13.9020   20.1946 N   0  0  0  0  0  0  0  0  0  0  0  0
    8.8679  -14.1093   20.8917 C   0  0  1  0  0  0  0  0  0  0  0  0
    8.1358  -15.3165   20.3070 C   0  0  0  0  0  0  0  0  0  0  0  0
    7.7143  -15.0274   18.9035 C   0  0  0  0  0  0  0  0  0  0  0  0
    7.9797  -13.9058   18.1644 C   0  0  0  0  0  0  0  0  0  0  0  0
    7.4043  -14.0772   16.9526 N   0  0  0  0  0  0  0  0  0  0  0  0
    6.7929  -15.2602   16.9111 C   0  0  0  0  0  0  0  0  0  0  0  0
    6.9919  -15.8305   18.1143 N   0  0  0  0  0  0  0  0  0  0  0  0
    9.0172  -14.2354   22.3441 C   0  0  0  0  0  0  0  0  0  0  0  0
   10.1369  -14.6481   22.7882 O   0  0  0  0  0  0  0  0  0  0  0  0
    6.8884  -11.9760   27.6847 C   0  0  0  0  0  0  0  0  0  0  0  0
    7.7343  -12.9820   26.9456 C   0  0  0  0  0  0  0  0  0  0  0  0
    7.4349  -13.0377   25.4857 C   0  0  2  0  0  0  0  0  0  0  0  0
    5.9840  -13.4332   25.3133 C   0  0  0  0  0  0  0  0  0  0  0  0
    8.3171  -14.0014   24.7177 C   0  0  2  0  0  0  0  0  0  0  0  0
    8.0299  -13.9400   23.2932 N   0  0  0  0  0  0  0  0  0  0  0  0
    8.2166  -15.3981   25.2175 C   0  0  0  0  0  0  0  0  0  0  0  0
    7.2256  -16.1458   25.0481 O   0  0  0  0  0  0  0  0  0  0  0  0
   10.0431  -18.2585   24.2249 C   0  0  0  0  0  0  0  0  0  0  0  0
   10.2932  -18.2107   25.7146 C   0  0  1  0  0  0  0  0  0  0  0  0
   11.6880  -17.7086   25.9410 C   0  0  0  0  0  0  0  0  0  0  0  0
    9.2565  -17.3477   26.4074 C   0  0  2  0  0  0  0  0  0  0  0  0
    9.3114  -15.9774   25.9546 N   0  0  0  0  0  0  0  0  0  0  0  0
    9.5613  -17.3750   27.8466 C   0  0  0  0  0  0  0  0  0  0  0  0
    9.4055  -18.5363   28.5718 O   0  0  0  0  0  0  0  0  0  0  0  0
    9.9630  -16.3463   28.4191 O   0  0  0  0  0  0  0  0  0  0  0  0
  2  1  1  6
  2  3  1  0
  2  9  1  0
  3  4  1  0
  4  5  2  0
  6  5  1  0
  7  6  1  0
  8  7  2  0
  8  4  1  0
  9 10  2  0
 12 11  1  0
 13 12  1  0
 13 14  1  1
 15 13  1  0
 16  9  1  0
 15 16  1  6
 17 18  2  0
 17 15  1  0
 20 19  1  6
 20 21  1  0
 20 22  1  0
 22 23  1  6
 23 17  1  0
 24 22  1  0
 24 25  1  0
 26 24  2  0
M  END
$$$$
