HIV.pdb
     RDKit          3D

 26 26  0  0  1  0  0  0  0  0999 V2000
   12.5693  -17.1222   19.9584 N   0  0  0  0  0  0  0  0  0  0  0  0
   11.7422  -17.6746   20.9827 C   0  0  1  0  0  0  0  0  0  0  0  0
   12.5263  -18.7179   21.7777 C   0  0  0  0  0  0  0  0  0  0  0  0
   12.5836  -20.0023   21.0173 C   0  0  0  0  0  0  0  0  0  0  0  0
   11.5717  -20.6091   20.3228 C   0  0  0  0  0  0  0  0  0  0  0  0
   12.0736  -21.7481   19.7938 N   0  0  0  0  0  0  0  0  0  0  0  0
   13.3562  -21.8714   20.1328 C   0  0  0  0  0  0  0  0  0  0  0  0
   13.6537  -20.7935   20.8827 N   0  0  0  0  0  0  0  0  0  0  0  0
   11.1417  -16.6759   21.8714 C   0  0  0  0  0  0  0  0  0  0  0  0
   11.8312  -15.6418   22.1475 O   0  0  0  0  0  0  0  0  0  0  0  0
    6.4103  -14.3605   21.2365 C   0  0  0  0  0  0  0  0  0  0  0  0
    7.8355  -14.6679   21.6218 C   0  0  0  0  0  0  0  0  0  0  0  0
    7.9518  -15.3279   22.9540 C   0  0  2  0  0  0  0  0  0  0  0  0
    7.3923  -14.3878   24.0001 C   0  0  0  0  0  0  0  0  0  0  0  0
    9.3707  -15.7105   23.3241 C   0  0  2  0  0  0  0  0  0  0  0  0
    9.8674  -16.7594   22.4475 N   0  0  0  0  0  0  0  0  0  0  0  0
    9.5076  -16.1054   24.7511 C   0  0  0  0  0  0  0  0  0  0  0  0
    9.6057  -17.2865   25.1571 O   0  0  0  0  0  0  0  0  0  0  0  0
   10.3621  -14.5508   29.4238 C   0  0  0  0  0  0  0  0  0  0  0  0
    9.8048  -14.2316   28.0557 C   0  0  1  0  0  0  0  0  0  0  0  0
   10.4738  -12.9864   27.5547 C   0  0  0  0  0  0  0  0  0  0  0  0
    9.9951  -15.4017   27.1102 C   0  0  2  0  0  0  0  0  0  0  0  0
    9.5342  -15.0930   25.7767 N   0  0  0  0  0  0  0  0  0  0  0  0
    9.1912  -16.5174   27.6338 C   0  0  0  0  0  0  0  0  0  0  0  0
    9.7652  -17.4709   28.4463 O   0  0  0  0  0  0  0  0  0  0  0  0
    7.9847  -16.6067   27.3450 O   0  0  0  0  0  0  0  0  0  0  0  0
  2  1  1  6
  2  3  1  0
  2  9  1  0
  3  4  1  0
  4  5  2  0
  6  5  1  0
  7  6  1  0
  8  7  2  0
  8  4  1  0
  9 10  2  0
 12 11  1  0
 13 12  1  0
 13 14  1  1
 15 13  1  0
 16  9  1  0
 15 16  1  6
 17 18  2  0
 17 15  1  0
 20 19  1  1
 20 21  1  0
 20 22  1  0
 22 23  1  6
 23 17  1  0
 24 22  1  0
 24 25  1  0
 26 24  2  0
M  END
$$$$
