HIV.pdb
     RDKit          3D

 26 26  0  0  1  0  0  0  0  0999 V2000
    9.5766  -15.7405   20.9183 N   0  0  0  0  0  0  0  0  0  0  0  0
    8.7592  -14.7655   21.5664 C   0  0  1  0  0  0  0  0  0  0  0  0
    7.3863  -14.7107   20.8978 C   0  0  0  0  0  0  0  0  0  0  0  0
    7.5374  -14.3890   19.4470 C   0  0  0  0  0  0  0  0  0  0  0  0
    7.8496  -13.1795   18.8865 C   0  0  0  0  0  0  0  0  0  0  0  0
    7.8792  -13.3532   17.5456 N   0  0  0  0  0  0  0  0  0  0  0  0
    7.5977  -14.6221   17.2527 C   0  0  0  0  0  0  0  0  0  0  0  0
    7.3907  -15.2440   18.4287 N   0  0  0  0  0  0  0  0  0  0  0  0
    8.6339  -14.9557   23.0141 C   0  0  0  0  0  0  0  0  0  0  0  0
    8.5218  -16.1488   23.4445 O   0  0  0  0  0  0  0  0  0  0  0  0
    5.6109  -11.7627   26.0063 C   0  0  0  0  0  0  0  0  0  0  0  0
    6.8994  -12.3080   25.4437 C   0  0  0  0  0  0  0  0  0  0  0  0
    7.2385  -13.6629   25.9663 C   0  0  2  0  0  0  0  0  0  0  0  0
    7.3567  -13.5749   27.4728 C   0  0  0  0  0  0  0  0  0  0  0  0
    8.5177  -14.2368   25.3908 C   0  0  2  0  0  0  0  0  0  0  0  0
    8.6265  -13.9338   23.9724 N   0  0  0  0  0  0  0  0  0  0  0  0
    8.6532  -15.6979   25.6311 C   0  0  0  0  0  0  0  0  0  0  0  0
    7.7542  -16.5424   25.4113 O   0  0  0  0  0  0  0  0  0  0  0  0
   11.5048  -19.6385   26.3196 C   0  0  0  0  0  0  0  0  0  0  0  0
   11.3329  -18.1933   25.9125 C   0  0  1  0  0  0  0  0  0  0  0  0
   11.4168  -18.1132   24.4173 C   0  0  0  0  0  0  0  0  0  0  0  0
   10.0254  -17.6366   26.4415 C   0  0  2  0  0  0  0  0  0  0  0  0
    9.8875  -16.2281   26.1534 N   0  0  0  0  0  0  0  0  0  0  0  0
   10.0380  -17.8139   27.9021 C   0  0  0  0  0  0  0  0  0  0  0  0
    9.5831  -18.9853   28.4675 O   0  0  0  0  0  0  0  0  0  0  0  0
   10.4608  -16.9043   28.6375 O   0  0  0  0  0  0  0  0  0  0  0  0
  2  1  1  6
  2  3  1  0
  2  9  1  0
  3  4  1  0
  4  5  2  0
  6  5  1  0
  7  6  1  0
  8  7  2  0
  8  4  1  0
  9 10  2  0
 12 11  1  0
 13 12  1  0
 13 14  1  1
 15 13  1  0
 16  9  1  0
 15 16  1  6
 17 18  2  0
 17 15  1  0
 20 19  1  6
 20 21  1  0
 20 22  1  0
 22 23  1  1
 23 17  1  0
 24 22  1  0
 24 25  1  0
 26 24  2  0
M  END
$$$$
