HIV.pdb
     RDKit          3D

 26 26  0  0  1  0  0  0  0  0999 V2000
    7.4349  -14.8788   20.3435 N   0  0  0  0  0  0  0  0  0  0  0  0
    7.8535  -15.9917   21.1339 C   0  0  1  0  0  0  0  0  0  0  0  0
    8.7290  -16.9236   20.2971 C   0  0  0  0  0  0  0  0  0  0  0  0
    8.0071  -17.3201   19.0509 C   0  0  0  0  0  0  0  0  0  0  0  0
    7.7896  -16.5607   17.9326 C   0  0  0  0  0  0  0  0  0  0  0  0
    7.0959  -17.3233   17.0572 N   0  0  0  0  0  0  0  0  0  0  0  0
    6.8749  -18.5250   17.5884 C   0  0  0  0  0  0  0  0  0  0  0  0
    7.4395  -18.5073   18.8105 N   0  0  0  0  0  0  0  0  0  0  0  0
    8.5223  -15.6208   22.3840 C   0  0  0  0  0  0  0  0  0  0  0  0
    9.7930  -15.6946   22.4174 O   0  0  0  0  0  0  0  0  0  0  0  0
    6.0832  -12.7830   26.7662 C   0  0  0  0  0  0  0  0  0  0  0  0
    6.6095  -13.8675   25.8601 C   0  0  0  0  0  0  0  0  0  0  0  0
    8.0241  -13.6457   25.4433 C   0  0  2  0  0  0  0  0  0  0  0  0
    8.0668  -12.4382   24.5315 C   0  0  0  0  0  0  0  0  0  0  0  0
    8.6466  -14.8344   24.7388 C   0  0  2  0  0  0  0  0  0  0  0  0
    7.8825  -15.1894   23.5533 N   0  0  0  0  0  0  0  0  0  0  0  0
    8.8137  -16.0112   25.6321 C   0  0  0  0  0  0  0  0  0  0  0  0
    7.8883  -16.7840   25.9729 O   0  0  0  0  0  0  0  0  0  0  0  0
   11.9564  -19.4307   27.2844 C   0  0  0  0  0  0  0  0  0  0  0  0
   11.6937  -18.1728   26.4889 C   0  0  1  0  0  0  0  0  0  0  0  0
   11.7827  -18.5117   25.0308 C   0  0  0  0  0  0  0  0  0  0  0  0
   10.3490  -17.5751   26.8550 C   0  0  2  0  0  0  0  0  0  0  0  0
   10.1137  -16.3260   26.1692 N   0  0  0  0  0  0  0  0  0  0  0  0
   10.3701  -17.3143   28.3029 C   0  0  0  0  0  0  0  0  0  0  0  0
   10.2309  -18.3499   29.2013 O   0  0  0  0  0  0  0  0  0  0  0  0
   10.5142  -16.1536   28.7260 O   0  0  0  0  0  0  0  0  0  0  0  0
  2  1  1  6
  2  3  1  0
  2  9  1  0
  3  4  1  0
  4  5  2  0
  6  5  1  0
  7  6  1  0
  8  7  2  0
  8  4  1  0
  9 10  2  0
 12 11  1  0
 13 12  1  0
 13 14  1  6
 15 13  1  0
 16  9  1  0
 15 16  1  6
 17 18  2  0
 17 15  1  0
 20 19  1  1
 20 21  1  0
 20 22  1  0
 22 23  1  6
 23 17  1  0
 24 22  1  0
 24 25  1  0
 26 24  2  0
M  END
$$$$
