HIV.pdb
     RDKit          3D

 26 26  0  0  1  0  0  0  0  0999 V2000
    9.7509  -18.9077   19.9271 N   0  0  0  0  0  0  0  0  0  0  0  0
    8.7133  -18.4592   20.7993 C   0  0  1  0  0  0  0  0  0  0  0  0
    8.5145  -19.4662   21.9313 C   0  0  0  0  0  0  0  0  0  0  0  0
    8.0016  -20.7572   21.3822 C   0  0  0  0  0  0  0  0  0  0  0  0
    7.7447  -21.0663   20.0734 C   0  0  0  0  0  0  0  0  0  0  0  0
    7.2963  -22.3419   20.0419 N   0  0  0  0  0  0  0  0  0  0  0  0
    7.2652  -22.8356   21.2790 C   0  0  0  0  0  0  0  0  0  0  0  0
    7.7004  -21.8522   22.0890 N   0  0  0  0  0  0  0  0  0  0  0  0
    8.9161  -17.1067   21.3258 C   0  0  0  0  0  0  0  0  0  0  0  0
   10.1117  -16.7408   21.5665 O   0  0  0  0  0  0  0  0  0  0  0  0
    7.3243  -12.9066   18.8131 C   0  0  0  0  0  0  0  0  0  0  0  0
    8.0790  -13.8333   19.7329 C   0  0  0  0  0  0  0  0  0  0  0  0
    7.5826  -13.7938   21.1386 C   0  0  2  0  0  0  0  0  0  0  0  0
    7.8408  -12.4098   21.6946 C   0  0  0  0  0  0  0  0  0  0  0  0
    8.2222  -14.8295   22.0413 C   0  0  2  0  0  0  0  0  0  0  0  0
    7.9038  -16.1747   21.5893 N   0  0  0  0  0  0  0  0  0  0  0  0
    7.8567  -14.6520   23.4716 C   0  0  0  0  0  0  0  0  0  0  0  0
    6.7687  -15.0110   23.9787 O   0  0  0  0  0  0  0  0  0  0  0  0
    6.8619  -12.6884   27.3357 C   0  0  0  0  0  0  0  0  0  0  0  0
    7.1114  -13.0852   25.8989 C   0  0  1  0  0  0  0  0  0  0  0  0
    7.0519  -11.8485   25.0528 C   0  0  0  0  0  0  0  0  0  0  0  0
    8.4379  -13.8072   25.7622 C   0  0  2  0  0  0  0  0  0  0  0  0
    8.7872  -14.0279   24.3783 N   0  0  0  0  0  0  0  0  0  0  0  0
    8.2893  -15.1154   26.4190 C   0  0  0  0  0  0  0  0  0  0  0  0
    9.1265  -15.4775   27.4519 O   0  0  0  0  0  0  0  0  0  0  0  0
    7.4041  -15.9048   26.0445 O   0  0  0  0  0  0  0  0  0  0  0  0
  2  1  1  1
  2  3  1  0
  2  9  1  0
  3  4  1  0
  4  5  2  0
  6  5  1  0
  7  6  1  0
  8  7  2  0
  8  4  1  0
  9 10  2  0
 12 11  1  0
 13 12  1  0
 13 14  1  1
 15 13  1  0
 16  9  1  0
 15 16  1  6
 17 18  2  0
 17 15  1  0
 20 19  1  1
 20 21  1  0
 20 22  1  0
 22 23  1  6
 23 17  1  0
 24 22  1  0
 24 25  1  0
 26 24  2  0
M  END
$$$$
