HIV.pdb
     RDKit          3D

 26 26  0  0  1  0  0  0  0  0999 V2000
    8.8520  -15.2939   19.8455 N   0  0  0  0  0  0  0  0  0  0  0  0
    7.9992  -15.6676   20.9279 C   0  0  1  0  0  0  0  0  0  0  0  0
    7.7164  -17.1683   20.8727 C   0  0  0  0  0  0  0  0  0  0  0  0
    7.0947  -17.5229   19.5616 C   0  0  0  0  0  0  0  0  0  0  0  0
    5.7744  -17.4335   19.2105 C   0  0  0  0  0  0  0  0  0  0  0  0
    5.6687  -17.8593   17.9312 N   0  0  0  0  0  0  0  0  0  0  0  0
    6.8709  -18.2090   17.4755 C   0  0  0  0  0  0  0  0  0  0  0  0
    7.7342  -17.9970   18.4865 N   0  0  0  0  0  0  0  0  0  0  0  0
    8.4987  -15.2730   22.2480 C   0  0  0  0  0  0  0  0  0  0  0  0
    9.7274  -15.4892   22.5022 O   0  0  0  0  0  0  0  0  0  0  0  0
    7.3349  -11.7346   27.2182 C   0  0  0  0  0  0  0  0  0  0  0  0
    8.1118  -12.8455   26.5576 C   0  0  0  0  0  0  0  0  0  0  0  0
    7.5741  -13.2185   25.2176 C   0  0  2  0  0  0  0  0  0  0  0  0
    6.1207  -13.6084   25.3809 C   0  0  0  0  0  0  0  0  0  0  0  0
    8.3298  -14.3497   24.5497 C   0  0  2  0  0  0  0  0  0  0  0  0
    7.7383  -14.6751   23.2614 N   0  0  0  0  0  0  0  0  0  0  0  0
    8.4300  -15.5608   25.4063 C   0  0  0  0  0  0  0  0  0  0  0  0
    7.4605  -16.2835   25.7345 O   0  0  0  0  0  0  0  0  0  0  0  0
   11.3554  -19.2879   26.6796 C   0  0  0  0  0  0  0  0  0  0  0  0
   11.1081  -17.9878   25.9497 C   0  0  1  0  0  0  0  0  0  0  0  0
   10.9653  -18.2896   24.4877 C   0  0  0  0  0  0  0  0  0  0  0  0
    9.8889  -17.2801   26.5082 C   0  0  2  0  0  0  0  0  0  0  0  0
    9.7122  -15.9730   25.9198 N   0  0  0  0  0  0  0  0  0  0  0  0
   10.1082  -17.1139   27.9536 C   0  0  0  0  0  0  0  0  0  0  0  0
   10.6065  -15.9302   28.4531 O   0  0  0  0  0  0  0  0  0  0  0  0
    9.8442  -18.0442   28.7360 O   0  0  0  0  0  0  0  0  0  0  0  0
  2  1  1  6
  2  3  1  0
  2  9  1  0
  3  4  1  0
  4  5  2  0
  6  5  1  0
  7  6  1  0
  8  7  2  0
  8  4  1  0
  9 10  2  0
 12 11  1  0
 13 12  1  0
 13 14  1  1
 15 13  1  0
 16  9  1  0
 15 16  1  6
 17 18  2  0
 17 15  1  0
 20 19  1  1
 20 21  1  0
 20 22  1  0
 22 23  1  6
 23 17  1  0
 24 22  1  0
 24 25  1  0
 26 24  2  0
M  END
$$$$
