HIV.pdb
     RDKit          3D

 26 26  0  0  1  0  0  0  0  0999 V2000
   10.3039  -16.4048   20.0424 N   0  0  0  0  0  0  0  0  0  0  0  0
    9.5865  -16.8931   21.1762 C   0  0  1  0  0  0  0  0  0  0  0  0
   10.1029  -18.2790   21.5607 C   0  0  0  0  0  0  0  0  0  0  0  0
    9.5982  -19.2986   20.5928 C   0  0  0  0  0  0  0  0  0  0  0  0
    8.8470  -19.0849   19.4683 C   0  0  0  0  0  0  0  0  0  0  0  0
    8.6222  -20.2911   18.8995 N   0  0  0  0  0  0  0  0  0  0  0  0
    9.2041  -21.2438   19.6266 C   0  0  0  0  0  0  0  0  0  0  0  0
    9.7982  -20.6195   20.6609 N   0  0  0  0  0  0  0  0  0  0  0  0
    9.5983  -15.9873   22.3282 C   0  0  0  0  0  0  0  0  0  0  0  0
   10.6104  -15.2280   22.4708 O   0  0  0  0  0  0  0  0  0  0  0  0
    6.1246  -12.6195   26.0660 C   0  0  0  0  0  0  0  0  0  0  0  0
    7.4635  -13.2373   25.7500 C   0  0  0  0  0  0  0  0  0  0  0  0
    7.3753  -14.3505   24.7616 C   0  0  2  0  0  0  0  0  0  0  0  0
    6.4581  -15.4145   25.3255 C   0  0  0  0  0  0  0  0  0  0  0  0
    8.7154  -14.9683   24.4165 C   0  0  2  0  0  0  0  0  0  0  0  0
    8.5876  -15.8826   23.2927 N   0  0  0  0  0  0  0  0  0  0  0  0
    9.3551  -15.6429   25.5768 C   0  0  0  0  0  0  0  0  0  0  0  0
    9.7145  -16.8431   25.5937 O   0  0  0  0  0  0  0  0  0  0  0  0
   11.2999  -15.1678   30.1537 C   0  0  0  0  0  0  0  0  0  0  0  0
   10.5267  -14.5216   29.0274 C   0  0  1  0  0  0  0  0  0  0  0  0
   11.1925  -13.2222   28.6853 C   0  0  0  0  0  0  0  0  0  0  0  0
   10.4393  -15.4503   27.8319 C   0  0  2  0  0  0  0  0  0  0  0  0
    9.5998  -14.9054   26.7907 N   0  0  0  0  0  0  0  0  0  0  0  0
    9.8390  -16.7084   28.3031 C   0  0  0  0  0  0  0  0  0  0  0  0
   10.6384  -17.7645   28.6829 O   0  0  0  0  0  0  0  0  0  0  0  0
    8.6022  -16.8263   28.3615 O   0  0  0  0  0  0  0  0  0  0  0  0
  2  1  1  6
  2  3  1  0
  2  9  1  0
  3  4  1  0
  4  5  2  0
  6  5  1  0
  7  6  1  0
  8  7  2  0
  8  4  1  0
  9 10  2  0
 12 11  1  0
 13 12  1  0
 13 14  1  1
 15 13  1  0
 16  9  1  0
 15 16  1  6
 17 18  2  0
 17 15  1  0
 20 19  1  1
 20 21  1  0
 20 22  1  0
 22 23  1  6
 23 17  1  0
 24 22  1  0
 24 25  1  0
 26 24  2  0
M  END
$$$$
