HIV.pdb
     RDKit          3D

 26 26  0  0  1  0  0  0  0  0999 V2000
   10.7594  -16.2231   20.2228 N   0  0  0  0  0  0  0  0  0  0  0  0
    9.9282  -16.7795   21.2416 C   0  0  1  0  0  0  0  0  0  0  0  0
   10.3868  -18.2002   21.5682 C   0  0  0  0  0  0  0  0  0  0  0  0
    9.8205  -19.1607   20.5743 C   0  0  0  0  0  0  0  0  0  0  0  0
    9.8696  -19.0773   19.2085 C   0  0  0  0  0  0  0  0  0  0  0  0
    9.2301  -20.1625   18.7161 N   0  0  0  0  0  0  0  0  0  0  0  0
    8.7867  -20.9150   19.7221 C   0  0  0  0  0  0  0  0  0  0  0  0
    9.1564  -20.2876   20.8545 N   0  0  0  0  0  0  0  0  0  0  0  0
    9.8388  -15.9620   22.4546 C   0  0  0  0  0  0  0  0  0  0  0  0
   10.8563  -15.2659   22.7729 O   0  0  0  0  0  0  0  0  0  0  0  0
    5.8645  -12.9270   26.0414 C   0  0  0  0  0  0  0  0  0  0  0  0
    7.2618  -13.4369   25.7928 C   0  0  0  0  0  0  0  0  0  0  0  0
    7.3188  -14.5019   24.7505 C   0  0  2  0  0  0  0  0  0  0  0  0
    6.4682  -15.6653   25.2135 C   0  0  0  0  0  0  0  0  0  0  0  0
    8.7224  -14.9886   24.4509 C   0  0  2  0  0  0  0  0  0  0  0  0
    8.7251  -15.8784   23.3004 N   0  0  0  0  0  0  0  0  0  0  0  0
    9.3700  -15.6367   25.6219 C   0  0  0  0  0  0  0  0  0  0  0  0
    9.8261  -16.8036   25.6284 O   0  0  0  0  0  0  0  0  0  0  0  0
   11.0069  -15.1604   30.3197 C   0  0  0  0  0  0  0  0  0  0  0  0
   10.2158  -14.5611   29.1800 C   0  0  1  0  0  0  0  0  0  0  0  0
   10.7523  -13.1876   28.9069 C   0  0  0  0  0  0  0  0  0  0  0  0
   10.2774  -15.4520   27.9545 C   0  0  2  0  0  0  0  0  0  0  0  0
    9.5060  -14.9111   26.8599 N   0  0  0  0  0  0  0  0  0  0  0  0
    9.7001  -16.7512   28.3334 C   0  0  0  0  0  0  0  0  0  0  0  0
   10.5072  -17.7631   28.8062 O   0  0  0  0  0  0  0  0  0  0  0  0
    8.4758  -16.9444   28.2290 O   0  0  0  0  0  0  0  0  0  0  0  0
  2  1  1  6
  2  3  1  0
  2  9  1  0
  3  4  1  0
  4  5  2  0
  6  5  1  0
  7  6  1  0
  8  7  2  0
  8  4  1  0
  9 10  2  0
 12 11  1  0
 13 12  1  0
 13 14  1  1
 15 13  1  0
 16  9  1  0
 15 16  1  6
 17 18  2  0
 17 15  1  0
 20 19  1  1
 20 21  1  0
 20 22  1  0
 22 23  1  6
 23 17  1  0
 24 22  1  0
 24 25  1  0
 26 24  2  0
M  END
$$$$
