TRW.pdb
     RDKit          3D

 33 34  0  0  1  0  0  0  0  0999 V2000
    8.6452  -12.3655   17.7041 C   0  0  0  0  0  0  0  0  0  0  0  0
    8.7698  -13.3164   18.8619 C   0  0  1  0  0  0  0  0  0  0  0  0
    9.1313  -12.6390   20.0029 O   0  0  0  0  0  0  0  0  0  0  0  0
    7.5248  -14.1474   19.0807 C   0  0  2  0  0  0  0  0  0  0  0  0
    6.4226  -13.2723   19.4268 N   0  0  0  0  0  0  0  0  0  0  0  0
    7.8008  -15.0774   20.2108 C   0  0  0  0  0  0  0  0  0  0  0  0
    7.2618  -14.8916   21.3549 O   0  0  0  0  0  0  0  0  0  0  0  0
   10.7439  -21.5880   23.6813 N   0  0  0  0  0  0  0  0  0  0  0  0
   11.6723  -21.4749   22.6221 C   0  0  0  0  0  0  0  0  0  0  0  0
   12.9360  -21.6175   22.8552 N   0  0  0  0  0  0  0  0  0  0  0  0
   11.2465  -21.2094   21.3074 N   0  0  0  0  0  0  0  0  0  0  0  0
    9.8422  -20.9360   21.0326 C   0  0  0  0  0  0  0  0  0  0  0  0
    9.4073  -19.6297   21.6305 C   0  0  0  0  0  0  0  0  0  0  0  0
    9.3427  -18.5142   20.6601 C   0  0  0  0  0  0  0  0  0  0  0  0
    8.8020  -17.2117   21.1457 C   0  0  2  0  0  0  0  0  0  0  0  0
    8.6655  -16.2105   20.0929 N   0  0  0  0  0  0  0  0  0  0  0  0
    9.4104  -16.6694   22.3710 C   0  0  0  0  0  0  0  0  0  0  0  0
   10.3097  -15.7624   22.3201 O   0  0  0  0  0  0  0  0  0  0  0  0
   13.6391  -21.5680   22.1013 N   0  0  0  0  0  0  0  0  0  0  0  0
    9.0486  -17.1025   23.6693 C   0  0  2  0  0  0  0  0  0  0  0  0
    9.5735  -16.4002   24.8659 C   0  0  0  0  0  0  0  0  0  0  0  0
    8.5277  -16.6208   25.9092 C   0  0  0  0  0  0  0  0  0  0  0  0
    7.4426  -15.6319   25.9732 C   0  0  0  0  0  0  0  0  0  0  0  0
    6.0653  -15.8884   25.8563 N   0  0  0  0  0  0  0  0  0  0  0  0
    5.3780  -14.7401   25.9354 C   0  0  0  0  0  0  0  0  0  0  0  0
    6.2337  -13.7103   26.1029 C   0  0  0  0  0  0  0  0  0  0  0  0
    5.9921  -12.3601   26.2480 C   0  0  0  0  0  0  0  0  0  0  0  0
    7.0864  -11.5470   26.4242 C   0  0  0  0  0  0  0  0  0  0  0  0
    8.3677  -12.0443   26.4557 C   0  0  0  0  0  0  0  0  0  0  0  0
    8.5699  -13.3886   26.3077 C   0  0  0  0  0  0  0  0  0  0  0  0
    7.5170  -14.2614   26.1270 C   0  0  0  0  0  0  0  0  0  0  0  0
   10.8803  -16.9668   25.1590 O   0  0  0  0  0  0  0  0  0  0  0  0
   11.2878  -17.9832   24.5609 O   0  0  0  0  0  0  0  0  0  0  0  0
  2  3  1  0
  2  1  1  6
  4  2  1  0
  4  5  1  1
  6  7  2  0
  6  4  1  0
  8  9  1  0
  9 11  1  0
 10  9  2  0
 11 12  1  0
 13 12  1  0
 13 14  1  0
 15 14  1  6
 15 16  1  0
 16  6  1  0
 17 15  1  0
 18 17  2  0
 19 17  1  0
 20 31  1  0
 20 19  1  0
 20 21  1  1
 21 22  1  0
 22 30  1  0
 22 23  2  0
 23 24  1  0
 25 24  1  0
 25 26  2  0
 27 26  1  0
 28 27  2  0
 29 30  2  0
 29 28  1  0
 30 25  1  0
 31 33  1  0
 32 31  2  0
M  END
$$$$
