TRW.pdb
     RDKit          3D

 33 34  0  0  1  0  0  0  0  0999 V2000
    8.5122  -12.0062   18.6746 C   0  0  0  0  0  0  0  0  0  0  0  0
    8.7050  -13.1868   19.5851 C   0  0  1  0  0  0  0  0  0  0  0  0
    8.5081  -12.8196   20.8958 O   0  0  0  0  0  0  0  0  0  0  0  0
    7.8452  -14.3721   19.2056 C   0  0  2  0  0  0  0  0  0  0  0  0
    6.4519  -13.9728   19.2152 N   0  0  0  0  0  0  0  0  0  0  0  0
    8.0699  -15.4328   20.2269 C   0  0  0  0  0  0  0  0  0  0  0  0
    7.2399  -15.6029   21.1840 O   0  0  0  0  0  0  0  0  0  0  0  0
   11.7605  -22.1165   18.8737 N   0  0  0  0  0  0  0  0  0  0  0  0
   10.4204  -22.2566   18.4480 C   0  0  0  0  0  0  0  0  0  0  0  0
   10.1647  -22.7061   17.2630 N   0  0  0  0  0  0  0  0  0  0  0  0
    9.3493  -21.9157   19.2945 N   0  0  0  0  0  0  0  0  0  0  0  0
    9.5681  -21.0389   20.4372 C   0  0  0  0  0  0  0  0  0  0  0  0
    9.1077  -19.6386   20.1541 C   0  0  0  0  0  0  0  0  0  0  0  0
   10.0259  -18.5899   20.6513 C   0  0  0  0  0  0  0  0  0  0  0  0
    9.4141  -17.3476   21.2057 C   0  0  2  0  0  0  0  0  0  0  0  0
    9.2007  -16.3080   20.2041 N   0  0  0  0  0  0  0  0  0  0  0  0
   10.0067  -16.8274   22.4482 C   0  0  0  0  0  0  0  0  0  0  0  0
   10.8419  -15.8598   22.4307 O   0  0  0  0  0  0  0  0  0  0  0  0
    9.1989  -22.8704   16.9383 N   0  0  0  0  0  0  0  0  0  0  0  0
    9.6987  -17.3489   23.7277 C   0  0  2  0  0  0  0  0  0  0  0  0
    9.8351  -16.4982   24.9353 C   0  0  0  0  0  0  0  0  0  0  0  0
    8.8580  -15.3901   24.7160 C   0  0  0  0  0  0  0  0  0  0  0  0
    8.6230  -14.4854   25.8499 C   0  0  0  0  0  0  0  0  0  0  0  0
    9.2733  -14.5149   27.0960 N   0  0  0  0  0  0  0  0  0  0  0  0
    8.7792  -13.5564   27.8924 C   0  0  0  0  0  0  0  0  0  0  0  0
    7.8175  -12.8735   27.2370 C   0  0  0  0  0  0  0  0  0  0  0  0
    7.0459  -11.8039   27.6406 C   0  0  0  0  0  0  0  0  0  0  0  0
    6.1488  -11.3033   26.7271 C   0  0  0  0  0  0  0  0  0  0  0  0
    6.0170  -11.8357   25.4664 C   0  0  0  0  0  0  0  0  0  0  0  0
    6.7982  -12.8967   25.1006 C   0  0  0  0  0  0  0  0  0  0  0  0
    7.7185  -13.4484   25.9677 C   0  0  0  0  0  0  0  0  0  0  0  0
    9.5748  -17.3440   26.0894 O   0  0  0  0  0  0  0  0  0  0  0  0
    8.7822  -18.3048   26.0150 O   0  0  0  0  0  0  0  0  0  0  0  0
  2  3  1  0
  2  1  1  6
  4  2  1  0
  4  5  1  1
  6  7  2  0
  6  4  1  0
  8  9  1  0
  9 11  1  0
 10  9  2  0
 11 12  1  0
 13 12  1  0
 13 14  1  0
 15 14  1  6
 15 16  1  0
 16  6  1  0
 17 15  1  0
 18 17  2  0
 19 17  1  0
 20 31  1  0
 20 19  1  0
 20 21  1  6
 21 22  1  0
 22 30  1  0
 22 23  2  0
 23 24  1  0
 25 24  1  0
 25 26  2  0
 27 26  1  0
 28 27  2  0
 29 30  2  0
 29 28  1  0
 30 25  1  0
 31 33  1  0
 32 31  2  0
M  END
$$$$
