TRW.pdb
     RDKit          3D

 33 34  0  0  1  0  0  0  0  0999 V2000
    6.0915  -21.1104   24.7067 C   0  0  0  0  0  0  0  0  0  0  0  0
    6.9738  -20.0130   24.1798 C   0  0  1  0  0  0  0  0  0  0  0  0
    8.1798  -20.0074   24.8409 O   0  0  0  0  0  0  0  0  0  0  0  0
    7.1631  -20.0759   22.6803 C   0  0  2  0  0  0  0  0  0  0  0  0
    7.8495  -21.3056   22.3377 N   0  0  0  0  0  0  0  0  0  0  0  0
    7.9994  -18.9082   22.2858 C   0  0  0  0  0  0  0  0  0  0  0  0
    9.2391  -19.0566   22.0118 O   0  0  0  0  0  0  0  0  0  0  0  0
    8.1275  -12.1903   16.8355 N   0  0  0  0  0  0  0  0  0  0  0  0
    7.9762  -13.5233   17.2793 C   0  0  0  0  0  0  0  0  0  0  0  0
    8.5385  -14.4873   16.6265 N   0  0  0  0  0  0  0  0  0  0  0  0
    7.2210  -13.8260   18.4274 N   0  0  0  0  0  0  0  0  0  0  0  0
    7.6015  -13.2756   19.7215 C   0  0  0  0  0  0  0  0  0  0  0  0
    8.3953  -14.2615   20.5283 C   0  0  0  0  0  0  0  0  0  0  0  0
    7.5958  -15.3871   21.0612 C   0  0  0  0  0  0  0  0  0  0  0  0
    8.3166  -16.4308   21.8460 C   0  0  2  0  0  0  0  0  0  0  0  0
    7.4830  -17.5779   22.1906 N   0  0  0  0  0  0  0  0  0  0  0  0
    9.1233  -15.9526   22.9801 C   0  0  0  0  0  0  0  0  0  0  0  0
    9.9319  -14.9708   22.8521 O   0  0  0  0  0  0  0  0  0  0  0  0
    8.4018  -15.4762   16.8881 N   0  0  0  0  0  0  0  0  0  0  0  0
    9.0612  -16.5321   24.2702 C   0  0  1  0  0  0  0  0  0  0  0  0
    9.9639  -16.0582   25.3478 C   0  0  0  0  0  0  0  0  0  0  0  0
    9.0812  -15.9583   26.5485 C   0  0  0  0  0  0  0  0  0  0  0  0
    7.9110  -15.0769   26.4340 C   0  0  0  0  0  0  0  0  0  0  0  0
    6.5772  -15.4743   26.2351 N   0  0  0  0  0  0  0  0  0  0  0  0
    5.7862  -14.3951   26.1513 C   0  0  0  0  0  0  0  0  0  0  0  0
    6.5292  -13.2769   26.2865 C   0  0  0  0  0  0  0  0  0  0  0  0
    6.1569  -11.9489   26.2838 C   0  0  0  0  0  0  0  0  0  0  0  0
    7.1552  -11.0217   26.4667 C   0  0  0  0  0  0  0  0  0  0  0  0
    8.4682  -11.3885   26.6447 C   0  0  0  0  0  0  0  0  0  0  0  0
    8.8012  -12.7147   26.6410 C   0  0  0  0  0  0  0  0  0  0  0  0
    7.8496  -13.6975   26.4624 C   0  0  0  0  0  0  0  0  0  0  0  0
   11.0535  -17.0160   25.4491 O   0  0  0  0  0  0  0  0  0  0  0  0
   11.0790  -18.0370   24.7323 O   0  0  0  0  0  0  0  0  0  0  0  0
  2  3  1  0
  2  1  1  1
  4  2  1  0
  4  5  1  1
  6  7  2  0
  6  4  1  0
  8  9  1  0
  9 11  1  0
 10  9  2  0
 11 12  1  0
 13 12  1  0
 13 14  1  0
 15 14  1  1
 15 16  1  0
 16  6  1  0
 17 15  1  0
 18 17  2  0
 19 17  1  0
 20 31  1  0
 20 19  1  0
 20 21  1  6
 21 22  1  0
 22 30  1  0
 22 23  2  0
 23 24  1  0
 25 24  1  0
 25 26  2  0
 27 26  1  0
 28 27  2  0
 29 30  2  0
 29 28  1  0
 30 25  1  0
 31 33  1  0
 32 31  2  0
M  END
$$$$
