TRW.pdb
     RDKit          3D

 33 34  0  0  1  0  0  0  0  0999 V2000
    8.0322  -12.2522   19.1117 C   0  0  0  0  0  0  0  0  0  0  0  0
    8.3864  -13.3690   20.0538 C   0  0  1  0  0  0  0  0  0  0  0  0
    8.2026  -12.9734   21.3581 O   0  0  0  0  0  0  0  0  0  0  0  0
    7.6450  -14.6528   19.7533 C   0  0  2  0  0  0  0  0  0  0  0  0
    6.2184  -14.4008   19.7973 N   0  0  0  0  0  0  0  0  0  0  0  0
    8.0127  -15.6388   20.8074 C   0  0  0  0  0  0  0  0  0  0  0  0
    7.2990  -15.7646   21.8603 O   0  0  0  0  0  0  0  0  0  0  0  0
   14.5352  -18.4155   19.8249 N   0  0  0  0  0  0  0  0  0  0  0  0
   14.2236  -19.5699   20.5779 C   0  0  0  0  0  0  0  0  0  0  0  0
   15.1355  -20.1327   21.3012 N   0  0  0  0  0  0  0  0  0  0  0  0
   12.9301  -20.1237   20.5578 N   0  0  0  0  0  0  0  0  0  0  0  0
   11.9213  -19.5978   19.6478 C   0  0  0  0  0  0  0  0  0  0  0  0
   11.2929  -18.3451   20.1854 C   0  0  0  0  0  0  0  0  0  0  0  0
   10.3382  -18.5765   21.2923 C   0  0  0  0  0  0  0  0  0  0  0  0
    9.5519  -17.4056   21.7774 C   0  0  2  0  0  0  0  0  0  0  0  0
    9.1599  -16.4876   20.7129 N   0  0  0  0  0  0  0  0  0  0  0  0
   10.0809  -16.7106   22.9618 C   0  0  0  0  0  0  0  0  0  0  0  0
   11.0904  -15.9310   22.8780 O   0  0  0  0  0  0  0  0  0  0  0  0
   14.9546  -21.0006   21.8296 N   0  0  0  0  0  0  0  0  0  0  0  0
    9.5192  -16.8503   24.2537 C   0  0  1  0  0  0  0  0  0  0  0  0
   10.3103  -16.4925   25.4565 C   0  0  0  0  0  0  0  0  0  0  0  0
    9.9137  -15.0829   25.7508 C   0  0  0  0  0  0  0  0  0  0  0  0
    8.4744  -14.8180   25.8833 C   0  0  0  0  0  0  0  0  0  0  0  0
    7.4359  -15.7619   25.7995 N   0  0  0  0  0  0  0  0  0  0  0  0
    6.2506  -15.1515   25.9405 C   0  0  0  0  0  0  0  0  0  0  0  0
    6.4408  -13.8276   26.1184 C   0  0  0  0  0  0  0  0  0  0  0  0
    5.5302  -12.8113   26.3190 C   0  0  0  0  0  0  0  0  0  0  0  0
    6.0376  -11.5452   26.4905 C   0  0  0  0  0  0  0  0  0  0  0  0
    7.3884  -11.2906   26.4650 C   0  0  0  0  0  0  0  0  0  0  0  0
    8.2624  -12.3227   26.2630 C   0  0  0  0  0  0  0  0  0  0  0  0
    7.8214  -13.6175   26.0835 C   0  0  0  0  0  0  0  0  0  0  0  0
    9.9862  -17.4633   26.4896 O   0  0  0  0  0  0  0  0  0  0  0  0
   10.4232  -17.3344   27.6511 O   0  0  0  0  0  0  0  0  0  0  0  0
  2  3  1  0
  2  1  1  6
  4  2  1  0
  4  5  1  1
  6  7  2  0
  6  4  1  0
  8  9  1  0
  9 11  1  0
 10  9  2  0
 11 12  1  0
 13 12  1  0
 13 14  1  0
 15 14  1  6
 15 16  1  0
 16  6  1  0
 17 15  1  0
 18 17  2  0
 19 17  1  0
 20 31  1  0
 20 19  1  0
 20 21  1  1
 21 22  1  0
 22 30  1  0
 22 23  2  0
 23 24  1  0
 25 24  1  0
 25 26  2  0
 27 26  1  0
 28 27  2  0
 29 30  2  0
 29 28  1  0
 30 25  1  0
 31 33  1  0
 32 31  2  0
M  END
$$$$
