TRW.pdb
     RDKit          3D

 33 34  0  0  1  0  0  0  0  0999 V2000
    6.4995  -21.5039   24.4712 C   0  0  0  0  0  0  0  0  0  0  0  0
    7.3190  -20.3309   24.0100 C   0  0  1  0  0  0  0  0  0  0  0  0
    8.6479  -20.5280   24.3046 O   0  0  0  0  0  0  0  0  0  0  0  0
    7.1170  -20.0082   22.5460 C   0  0  2  0  0  0  0  0  0  0  0  0
    7.4894  -21.1597   21.7484 N   0  0  0  0  0  0  0  0  0  0  0  0
    8.0057  -18.8598   22.2144 C   0  0  0  0  0  0  0  0  0  0  0  0
    9.1011  -19.0443   21.5820 O   0  0  0  0  0  0  0  0  0  0  0  0
    8.4447  -13.3940   16.9513 N   0  0  0  0  0  0  0  0  0  0  0  0
    8.3147  -12.8383   18.2440 C   0  0  0  0  0  0  0  0  0  0  0  0
    8.5207  -11.5749   18.4258 N   0  0  0  0  0  0  0  0  0  0  0  0
    7.9612  -13.6378   19.3468 N   0  0  0  0  0  0  0  0  0  0  0  0
    7.4286  -14.9779   19.1402 C   0  0  0  0  0  0  0  0  0  0  0  0
    7.1095  -15.6515   20.4431 C   0  0  0  0  0  0  0  0  0  0  0  0
    8.0233  -15.2885   21.5492 C   0  0  0  0  0  0  0  0  0  0  0  0
    8.6212  -16.4029   22.3401 C   0  0  2  0  0  0  0  0  0  0  0  0
    7.6994  -17.5098   22.5733 N   0  0  0  0  0  0  0  0  0  0  0  0
    9.3653  -16.0176   23.5499 C   0  0  0  0  0  0  0  0  0  0  0  0
   10.0482  -14.9379   23.5932 O   0  0  0  0  0  0  0  0  0  0  0  0
    8.4822  -11.1450   19.3632 N   0  0  0  0  0  0  0  0  0  0  0  0
    9.3760  -16.7982   24.7308 C   0  0  1  0  0  0  0  0  0  0  0  0
   10.0605  -16.3020   25.9498 C   0  0  0  0  0  0  0  0  0  0  0  0
    8.9869  -16.2734   26.9876 C   0  0  0  0  0  0  0  0  0  0  0  0
    7.7983  -15.4647   26.6834 C   0  0  0  0  0  0  0  0  0  0  0  0
    6.5182  -15.9444   26.3551 N   0  0  0  0  0  0  0  0  0  0  0  0
    5.6927  -14.9161   26.1134 C   0  0  0  0  0  0  0  0  0  0  0  0
    6.3603  -13.7534   26.2652 C   0  0  0  0  0  0  0  0  0  0  0  0
    5.9284  -12.4498   26.1373 C   0  0  0  0  0  0  0  0  0  0  0  0
    6.8526  -11.4610   26.3779 C   0  0  0  0  0  0  0  0  0  0  0  0
    8.1508  -11.7454   26.7301 C   0  0  0  0  0  0  0  0  0  0  0  0
    8.5443  -13.0497   26.8469 C   0  0  0  0  0  0  0  0  0  0  0  0
    7.6686  -14.0912   26.6194 C   0  0  0  0  0  0  0  0  0  0  0  0
   11.1685  -17.2047   26.2190 O   0  0  0  0  0  0  0  0  0  0  0  0
   11.3664  -18.2085   25.5048 O   0  0  0  0  0  0  0  0  0  0  0  0
  2  3  1  0
  2  1  1  6
  4  2  1  0
  4  5  1  6
  6  7  2  0
  6  4  1  0
  8  9  1  0
  9 11  1  0
 10  9  2  0
 11 12  1  0
 13 12  1  0
 13 14  1  0
 15 14  1  1
 15 16  1  0
 16  6  1  0
 17 15  1  0
 18 17  2  0
 19 17  1  0
 20 31  1  0
 20 19  1  0
 20 21  1  1
 21 22  1  0
 22 30  1  0
 22 23  2  0
 23 24  1  0
 25 24  1  0
 25 26  2  0
 27 26  1  0
 28 27  2  0
 29 30  2  0
 29 28  1  0
 30 25  1  0
 31 33  1  0
 32 31  2  0
M  END
$$$$
