TRW.pdb
     RDKit          3D

 33 34  0  0  1  0  0  0  0  0999 V2000
    9.5041  -14.1098   17.4214 C   0  0  0  0  0  0  0  0  0  0  0  0
    9.0436  -14.5913   18.7691 C   0  0  1  0  0  0  0  0  0  0  0  0
    9.8463  -14.0798   19.7619 O   0  0  0  0  0  0  0  0  0  0  0  0
    7.5824  -14.3015   19.0324 C   0  0  2  0  0  0  0  0  0  0  0  0
    7.3546  -12.8735   18.9345 N   0  0  0  0  0  0  0  0  0  0  0  0
    7.2766  -14.7645   20.4146 C   0  0  0  0  0  0  0  0  0  0  0  0
    6.9749  -13.9265   21.3314 O   0  0  0  0  0  0  0  0  0  0  0  0
    6.2647  -19.0172   25.5685 N   0  0  0  0  0  0  0  0  0  0  0  0
    6.3554  -20.4083   25.3372 C   0  0  0  0  0  0  0  0  0  0  0  0
    6.6405  -21.2063   26.3136 N   0  0  0  0  0  0  0  0  0  0  0  0
    6.1385  -20.9478   24.0558 N   0  0  0  0  0  0  0  0  0  0  0  0
    6.2610  -20.1041   22.8745 C   0  0  0  0  0  0  0  0  0  0  0  0
    5.8240  -18.6957   23.1550 C   0  0  0  0  0  0  0  0  0  0  0  0
    5.9043  -17.7949   21.9835 C   0  0  0  0  0  0  0  0  0  0  0  0
    6.8067  -16.6118   22.0874 C   0  0  2  0  0  0  0  0  0  0  0  0
    7.3004  -16.1425   20.7968 N   0  0  0  0  0  0  0  0  0  0  0  0
    7.8641  -16.6860   23.1082 C   0  0  0  0  0  0  0  0  0  0  0  0
    7.6291  -17.1539   24.2743 O   0  0  0  0  0  0  0  0  0  0  0  0
    6.6620  -22.2310   26.1925 N   0  0  0  0  0  0  0  0  0  0  0  0
    9.1926  -16.2556   22.8761 C   0  0  2  0  0  0  0  0  0  0  0  0
    9.9947  -15.6742   23.9803 C   0  0  0  0  0  0  0  0  0  0  0  0
    9.4169  -14.3107   24.1751 C   0  0  0  0  0  0  0  0  0  0  0  0
    8.8940  -14.0023   25.5133 C   0  0  0  0  0  0  0  0  0  0  0  0
    9.2544  -14.6274   26.7199 N   0  0  0  0  0  0  0  0  0  0  0  0
    8.5508  -14.1040   27.7340 C   0  0  0  0  0  0  0  0  0  0  0  0
    7.7250  -13.1452   27.2656 C   0  0  0  0  0  0  0  0  0  0  0  0
    6.8322  -12.3300   27.9293 C   0  0  0  0  0  0  0  0  0  0  0  0
    6.1351  -11.4210   27.1694 C   0  0  0  0  0  0  0  0  0  0  0  0
    6.3104  -11.3196   25.8096 C   0  0  0  0  0  0  0  0  0  0  0  0
    7.2039  -12.1447   25.1845 C   0  0  0  0  0  0  0  0  0  0  0  0
    7.9363  -13.0797   25.8862 C   0  0  0  0  0  0  0  0  0  0  0  0
    9.8772  -16.5729   25.1175 O   0  0  0  0  0  0  0  0  0  0  0  0
    8.8474  -17.2556   25.2920 O   0  0  0  0  0  0  0  0  0  0  0  0
  2  3  1  0
  2  1  1  6
  4  2  1  0
  4  5  1  1
  6  7  2  0
  6  4  1  0
  8  9  1  0
  9 11  1  0
 10  9  2  0
 11 12  1  0
 13 12  1  0
 13 14  1  0
 15 14  1  6
 15 16  1  0
 16  6  1  0
 17 15  1  0
 18 17  2  0
 19 17  1  0
 20 31  1  0
 20 19  1  0
 20 21  1  6
 21 22  1  0
 22 30  1  0
 22 23  2  0
 23 24  1  0
 25 24  1  0
 25 26  2  0
 27 26  1  0
 28 27  2  0
 29 30  2  0
 29 28  1  0
 30 25  1  0
 31 33  1  0
 32 31  2  0
M  END
$$$$
