TRW.pdb
     RDKit          3D

 33 34  0  0  1  0  0  0  0  0999 V2000
    8.2656  -11.7935   20.0758 C   0  0  0  0  0  0  0  0  0  0  0  0
    8.4133  -13.2269   20.5044 C   0  0  1  0  0  0  0  0  0  0  0  0
    7.2633  -13.6653   21.1185 O   0  0  0  0  0  0  0  0  0  0  0  0
    8.8217  -14.1431   19.3722 C   0  0  2  0  0  0  0  0  0  0  0  0
    7.8303  -14.0686   18.3175 N   0  0  0  0  0  0  0  0  0  0  0  0
    8.8734  -15.5292   19.9149 C   0  0  0  0  0  0  0  0  0  0  0  0
    8.2765  -16.4872   19.3150 O   0  0  0  0  0  0  0  0  0  0  0  0
   10.6102  -18.5965   16.4534 N   0  0  0  0  0  0  0  0  0  0  0  0
   11.8126  -17.8631   16.5684 C   0  0  0  0  0  0  0  0  0  0  0  0
   12.2979  -17.2556   15.5354 N   0  0  0  0  0  0  0  0  0  0  0  0
   12.4978  -17.7780   17.7946 N   0  0  0  0  0  0  0  0  0  0  0  0
   11.9220  -18.3625   18.9984 C   0  0  0  0  0  0  0  0  0  0  0  0
   10.5935  -17.7470   19.3292 C   0  0  0  0  0  0  0  0  0  0  0  0
    9.9953  -18.2444   20.5882 C   0  0  0  0  0  0  0  0  0  0  0  0
    9.6429  -17.2341   21.6274 C   0  0  2  0  0  0  0  0  0  0  0  0
    9.5763  -15.8702   21.1129 N   0  0  0  0  0  0  0  0  0  0  0  0
   10.3743  -17.3265   22.9011 C   0  0  0  0  0  0  0  0  0  0  0  0
   10.6137  -18.4567   23.4483 O   0  0  0  0  0  0  0  0  0  0  0  0
   12.5237  -17.7583   14.6628 N   0  0  0  0  0  0  0  0  0  0  0  0
   10.8586  -16.1930   23.5971 C   0  0  2  0  0  0  0  0  0  0  0  0
   10.6600  -16.0731   25.0623 C   0  0  0  0  0  0  0  0  0  0  0  0
   10.0391  -14.7264   25.2396 C   0  0  0  0  0  0  0  0  0  0  0  0
    8.6059  -14.6996   25.5630 C   0  0  0  0  0  0  0  0  0  0  0  0
    7.7014  -15.7706   25.4572 N   0  0  0  0  0  0  0  0  0  0  0  0
    6.4725  -15.3679   25.8111 C   0  0  0  0  0  0  0  0  0  0  0  0
    6.5044  -14.0637   26.1554 C   0  0  0  0  0  0  0  0  0  0  0  0
    5.4987  -13.2293   26.5965 C   0  0  0  0  0  0  0  0  0  0  0  0
    5.8492  -11.9333   26.8920 C   0  0  0  0  0  0  0  0  0  0  0  0
    7.1394  -11.4775   26.7579 C   0  0  0  0  0  0  0  0  0  0  0  0
    8.1111  -12.3327   26.3170 C   0  0  0  0  0  0  0  0  0  0  0  0
    7.8286  -13.6459   26.0024 C   0  0  0  0  0  0  0  0  0  0  0  0
    9.8415  -17.2004   25.4795 O   0  0  0  0  0  0  0  0  0  0  0  0
    9.1714  -17.8485   24.6502 O   0  0  0  0  0  0  0  0  0  0  0  0
  2  3  1  0
  2  1  1  6
  4  2  1  0
  4  5  1  6
  6  7  2  0
  6  4  1  0
  8  9  1  0
  9 11  1  0
 10  9  2  0
 11 12  1  0
 13 12  1  0
 13 14  1  0
 15 14  1  6
 15 16  1  0
 16  6  1  0
 17 15  1  0
 18 17  2  0
 19 17  1  0
 20 31  1  0
 20 19  1  0
 20 21  1  6
 21 22  1  0
 22 30  1  0
 22 23  2  0
 23 24  1  0
 25 24  1  0
 25 26  2  0
 27 26  1  0
 28 27  2  0
 29 30  2  0
 29 28  1  0
 30 25  1  0
 31 33  1  0
 32 31  2  0
M  END
$$$$
