TRW.pdb
     RDKit          3D

 33 34  0  0  1  0  0  0  0  0999 V2000
    8.0873  -12.3716   19.6888 C   0  0  0  0  0  0  0  0  0  0  0  0
    8.4151  -13.5061   20.6192 C   0  0  1  0  0  0  0  0  0  0  0  0
    8.1658  -13.1454   21.9228 O   0  0  0  0  0  0  0  0  0  0  0  0
    7.7079  -14.7926   20.2543 C   0  0  2  0  0  0  0  0  0  0  0  0
    6.2834  -14.5431   20.1598 N   0  0  0  0  0  0  0  0  0  0  0  0
    7.9741  -15.7735   21.3431 C   0  0  0  0  0  0  0  0  0  0  0  0
    7.1619  -15.8973   22.3223 O   0  0  0  0  0  0  0  0  0  0  0  0
   14.6157  -18.3507   22.0247 N   0  0  0  0  0  0  0  0  0  0  0  0
   14.5549  -18.7143   20.6606 C   0  0  0  0  0  0  0  0  0  0  0  0
   15.5547  -18.4605   19.8811 N   0  0  0  0  0  0  0  0  0  0  0  0
   13.4198  -19.3536   20.1286 N   0  0  0  0  0  0  0  0  0  0  0  0
   12.2820  -19.6603   20.9851 C   0  0  0  0  0  0  0  0  0  0  0  0
   11.5140  -18.4222   21.3463 C   0  0  0  0  0  0  0  0  0  0  0  0
   10.2633  -18.6847   22.0927 C   0  0  0  0  0  0  0  0  0  0  0  0
    9.4347  -17.5067   22.4807 C   0  0  2  0  0  0  0  0  0  0  0  0
    9.1270  -16.6195   21.3637 N   0  0  0  0  0  0  0  0  0  0  0  0
    9.8618  -16.7775   23.6855 C   0  0  0  0  0  0  0  0  0  0  0  0
   10.6206  -15.7518   23.6063 O   0  0  0  0  0  0  0  0  0  0  0  0
   15.5102  -18.6290   18.8639 N   0  0  0  0  0  0  0  0  0  0  0  0
    9.4686  -17.1502   24.9933 C   0  0  1  0  0  0  0  0  0  0  0  0
   10.0594  -16.4737   26.1739 C   0  0  0  0  0  0  0  0  0  0  0  0
    8.8947  -16.2242   27.0750 C   0  0  0  0  0  0  0  0  0  0  0  0
    7.7874  -15.4358   26.5169 C   0  0  0  0  0  0  0  0  0  0  0  0
    6.6357  -15.9363   25.8848 N   0  0  0  0  0  0  0  0  0  0  0  0
    5.8597  -14.9216   25.4781 C   0  0  0  0  0  0  0  0  0  0  0  0
    6.4373  -13.7481   25.8096 C   0  0  0  0  0  0  0  0  0  0  0  0
    6.0085  -12.4520   25.6127 C   0  0  0  0  0  0  0  0  0  0  0  0
    6.8197  -11.4488   26.0872 C   0  0  0  0  0  0  0  0  0  0  0  0
    8.0064  -11.7120   26.7296 C   0  0  0  0  0  0  0  0  0  0  0  0
    8.4006  -13.0094   26.9066 C   0  0  0  0  0  0  0  0  0  0  0  0
    7.6350  -14.0645   26.4552 C   0  0  0  0  0  0  0  0  0  0  0  0
   11.0861  -17.3553   26.7064 O   0  0  0  0  0  0  0  0  0  0  0  0
   11.2806  -18.4849   26.2133 O   0  0  0  0  0  0  0  0  0  0  0  0
  2  3  1  0
  2  1  1  6
  4  2  1  0
  4  5  1  1
  6  7  2  0
  6  4  1  0
  8  9  1  0
  9 11  1  0
 10  9  2  0
 11 12  1  0
 13 12  1  0
 13 14  1  0
 15 14  1  6
 15 16  1  0
 16  6  1  0
 17 15  1  0
 18 17  2  0
 19 17  1  0
 20 31  1  0
 20 19  1  0
 20 21  1  1
 21 22  1  0
 22 30  1  0
 22 23  2  0
 23 24  1  0
 25 24  1  0
 25 26  2  0
 27 26  1  0
 28 27  2  0
 29 30  2  0
 29 28  1  0
 30 25  1  0
 31 33  1  0
 32 31  2  0
M  END
$$$$
