TRW.pdb
     RDKit          3D

 33 34  0  0  1  0  0  0  0  0999 V2000
   11.6030  -22.4792   20.1638 C   0  0  0  0  0  0  0  0  0  0  0  0
   11.4061  -21.0700   20.6492 C   0  0  1  0  0  0  0  0  0  0  0  0
   12.4687  -20.6780   21.4294 O   0  0  0  0  0  0  0  0  0  0  0  0
   11.1499  -20.0888   19.5267 C   0  0  2  0  0  0  0  0  0  0  0  0
   12.3418  -19.9776   18.7097 N   0  0  0  0  0  0  0  0  0  0  0  0
   10.8422  -18.7701   20.1470 C   0  0  0  0  0  0  0  0  0  0  0  0
   11.7809  -17.9583   20.4527 O   0  0  0  0  0  0  0  0  0  0  0  0
    7.9984  -11.8881   18.4514 N   0  0  0  0  0  0  0  0  0  0  0  0
    8.0160  -13.2497   18.0740 C   0  0  0  0  0  0  0  0  0  0  0  0
    8.9663  -13.6970   17.3199 N   0  0  0  0  0  0  0  0  0  0  0  0
    7.0132  -14.1370   18.5067 N   0  0  0  0  0  0  0  0  0  0  0  0
    7.0626  -15.5421   18.1248 C   0  0  0  0  0  0  0  0  0  0  0  0
    8.2107  -16.2520   18.7812 C   0  0  0  0  0  0  0  0  0  0  0  0
    8.1224  -16.3045   20.2576 C   0  0  0  0  0  0  0  0  0  0  0  0
    9.2099  -17.0198   20.9858 C   0  0  2  0  0  0  0  0  0  0  0  0
    9.5097  -18.3371   20.4343 N   0  0  0  0  0  0  0  0  0  0  0  0
    9.1167  -17.0257   22.4545 C   0  0  0  0  0  0  0  0  0  0  0  0
    8.6976  -18.0535   23.0887 O   0  0  0  0  0  0  0  0  0  0  0  0
    9.0400  -14.6953   17.0691 N   0  0  0  0  0  0  0  0  0  0  0  0
    9.4801  -15.9165   23.2555 C   0  0  2  0  0  0  0  0  0  0  0  0
    9.0855  -15.8640   24.6845 C   0  0  0  0  0  0  0  0  0  0  0  0
    9.3654  -14.4544   25.0910 C   0  0  0  0  0  0  0  0  0  0  0  0
    8.7979  -14.0137   26.3729 C   0  0  0  0  0  0  0  0  0  0  0  0
    9.1918  -14.4361   27.6546 N   0  0  0  0  0  0  0  0  0  0  0  0
    8.4310  -13.8428   28.5855 C   0  0  0  0  0  0  0  0  0  0  0  0
    7.5340  -13.0311   27.9879 C   0  0  0  0  0  0  0  0  0  0  0  0
    6.5651  -12.2136   28.5312 C   0  0  0  0  0  0  0  0  0  0  0  0
    5.8049  -11.4794   27.6521 C   0  0  0  0  0  0  0  0  0  0  0  0
    5.9916  -11.5485   26.2917 C   0  0  0  0  0  0  0  0  0  0  0  0
    6.9613  -12.3705   25.7881 C   0  0  0  0  0  0  0  0  0  0  0  0
    7.7598  -13.1352   26.6133 C   0  0  0  0  0  0  0  0  0  0  0  0
    7.6923  -16.2736   24.7619 O   0  0  0  0  0  0  0  0  0  0  0  0
    6.9079  -16.0624   23.8148 O   0  0  0  0  0  0  0  0  0  0  0  0
  2  3  1  0
  2  1  1  6
  4  2  1  0
  4  5  1  6
  6  7  2  0
  6  4  1  0
  8  9  1  0
  9 11  1  0
 10  9  2  0
 11 12  1  0
 13 12  1  0
 13 14  1  0
 15 14  1  6
 15 16  1  0
 16  6  1  0
 17 15  1  0
 18 17  2  0
 19 17  1  0
 20 31  1  0
 20 19  1  0
 20 21  1  1
 21 22  1  0
 22 30  1  0
 22 23  2  0
 23 24  1  0
 25 24  1  0
 25 26  2  0
 27 26  1  0
 28 27  2  0
 29 30  2  0
 29 28  1  0
 30 25  1  0
 31 33  1  0
 32 31  2  0
M  END
$$$$
