TRW.pdb
     RDKit          3D

 33 34  0  0  1  0  0  0  0  0999 V2000
    7.4474  -21.3970   19.6946 C   0  0  0  0  0  0  0  0  0  0  0  0
    8.0471  -20.0277   19.8548 C   0  0  1  0  0  0  0  0  0  0  0  0
    7.7913  -19.2584   18.7438 O   0  0  0  0  0  0  0  0  0  0  0  0
    7.6048  -19.3339   21.1242 C   0  0  2  0  0  0  0  0  0  0  0  0
    6.1887  -19.0377   21.0367 N   0  0  0  0  0  0  0  0  0  0  0  0
    8.3768  -18.0647   21.2324 C   0  0  0  0  0  0  0  0  0  0  0  0
    9.6549  -18.0756   21.2178 O   0  0  0  0  0  0  0  0  0  0  0  0
    9.5367  -14.5577   16.8112 N   0  0  0  0  0  0  0  0  0  0  0  0
    8.3507  -13.8880   16.4349 C   0  0  0  0  0  0  0  0  0  0  0  0
    7.9631  -13.9081   15.2017 N   0  0  0  0  0  0  0  0  0  0  0  0
    7.5752  -13.1950   17.3829 N   0  0  0  0  0  0  0  0  0  0  0  0
    8.0052  -13.1264   18.7731 C   0  0  0  0  0  0  0  0  0  0  0  0
    7.7970  -14.4341   19.4800 C   0  0  0  0  0  0  0  0  0  0  0  0
    7.9656  -14.3592   20.9484 C   0  0  0  0  0  0  0  0  0  0  0  0
    8.5060  -15.5651   21.6402 C   0  0  2  0  0  0  0  0  0  0  0  0
    7.7542  -16.7832   21.3570 N   0  0  0  0  0  0  0  0  0  0  0  0
    8.8211  -15.4103   23.0694 C   0  0  0  0  0  0  0  0  0  0  0  0
    8.0338  -14.7847   23.8586 O   0  0  0  0  0  0  0  0  0  0  0  0
    7.0957  -13.4408   14.8944 N   0  0  0  0  0  0  0  0  0  0  0  0
    9.9945  -15.9352   23.6623 C   0  0  1  0  0  0  0  0  0  0  0  0
   10.3320  -15.6095   25.0697 C   0  0  0  0  0  0  0  0  0  0  0  0
    9.1826  -16.1480   25.8568 C   0  0  0  0  0  0  0  0  0  0  0  0
    7.9578  -15.3363   25.8730 C   0  0  0  0  0  0  0  0  0  0  0  0
    6.6550  -15.7766   25.5807 N   0  0  0  0  0  0  0  0  0  0  0  0
    5.7953  -14.7518   25.6693 C   0  0  0  0  0  0  0  0  0  0  0  0
    6.4614  -13.6295   26.0119 C   0  0  0  0  0  0  0  0  0  0  0  0
    6.0021  -12.3478   26.2322 C   0  0  0  0  0  0  0  0  0  0  0  0
    6.9353  -11.4053   26.5938 C   0  0  0  0  0  0  0  0  0  0  0  0
    8.2680  -11.7135   26.7325 C   0  0  0  0  0  0  0  0  0  0  0  0
    8.6879  -12.9948   26.5054 C   0  0  0  0  0  0  0  0  0  0  0  0
    7.8051  -13.9897   26.1393 C   0  0  0  0  0  0  0  0  0  0  0  0
   11.6238  -16.2140   25.3536 O   0  0  0  0  0  0  0  0  0  0  0  0
   12.1334  -16.1349   26.4898 O   0  0  0  0  0  0  0  0  0  0  0  0
  2  3  1  0
  2  1  1  6
  4  2  1  0
  4  5  1  6
  6  7  2  0
  6  4  1  0
  8  9  1  0
  9 11  1  0
 10  9  2  0
 11 12  1  0
 13 12  1  0
 13 14  1  0
 15 14  1  1
 15 16  1  0
 16  6  1  0
 17 15  1  0
 18 17  2  0
 19 17  1  0
 20 31  1  0
 20 19  1  0
 20 21  1  6
 21 22  1  0
 22 30  1  0
 22 23  2  0
 23 24  1  0
 25 24  1  0
 25 26  2  0
 27 26  1  0
 28 27  2  0
 29 30  2  0
 29 28  1  0
 30 25  1  0
 31 33  1  0
 32 31  2  0
M  END
$$$$
