TRW.pdb
     RDKit          3D

 33 34  0  0  1  0  0  0  0  0999 V2000
   15.1748  -17.2616   18.3383 C   0  0  0  0  0  0  0  0  0  0  0  0
   14.0297  -16.5687   19.0230 C   0  0  1  0  0  0  0  0  0  0  0  0
   14.1069  -16.7449   20.3848 O   0  0  0  0  0  0  0  0  0  0  0  0
   13.9217  -15.1046   18.6580 C   0  0  2  0  0  0  0  0  0  0  0  0
   15.1414  -14.4252   19.0471 N   0  0  0  0  0  0  0  0  0  0  0  0
   12.7696  -14.5391   19.4139 C   0  0  0  0  0  0  0  0  0  0  0  0
   12.9167  -14.1270   20.6149 O   0  0  0  0  0  0  0  0  0  0  0  0
    8.9232  -14.0005   14.2573 N   0  0  0  0  0  0  0  0  0  0  0  0
    7.8861  -14.7931   14.7983 C   0  0  0  0  0  0  0  0  0  0  0  0
    7.6640  -15.9749   14.3233 N   0  0  0  0  0  0  0  0  0  0  0  0
    7.0840  -14.3197   15.8531 N   0  0  0  0  0  0  0  0  0  0  0  0
    7.6551  -13.4563   16.8781 C   0  0  0  0  0  0  0  0  0  0  0  0
    8.6945  -14.1750   17.6882 C   0  0  0  0  0  0  0  0  0  0  0  0
    9.2148  -13.3929   18.8318 C   0  0  0  0  0  0  0  0  0  0  0  0
   10.3007  -14.0088   19.6480 C   0  0  2  0  0  0  0  0  0  0  0  0
   11.4564  -14.4236   18.8594 N   0  0  0  0  0  0  0  0  0  0  0  0
    9.8840  -15.0268   20.6255 C   0  0  0  0  0  0  0  0  0  0  0  0
   10.5242  -16.1259   20.7528 O   0  0  0  0  0  0  0  0  0  0  0  0
    6.9648  -16.6087   14.7412 N   0  0  0  0  0  0  0  0  0  0  0  0
    8.7677  -14.8646   21.4807 C   0  0  2  0  0  0  0  0  0  0  0  0
    8.9278  -14.9816   22.9509 C   0  0  0  0  0  0  0  0  0  0  0  0
    7.9569  -13.9915   23.5058 C   0  0  0  0  0  0  0  0  0  0  0  0
    7.7963  -13.9743   24.9663 C   0  0  0  0  0  0  0  0  0  0  0  0
    8.3612  -14.8777   25.8836 N   0  0  0  0  0  0  0  0  0  0  0  0
    7.9727  -14.5681   27.1287 C   0  0  0  0  0  0  0  0  0  0  0  0
    7.1653  -13.4874   27.0962 C   0  0  0  0  0  0  0  0  0  0  0  0
    6.5426  -12.8040   28.1196 C   0  0  0  0  0  0  0  0  0  0  0  0
    5.7863  -11.7109   27.7688 C   0  0  0  0  0  0  0  0  0  0  0  0
    5.6488  -11.3076   26.4617 C   0  0  0  0  0  0  0  0  0  0  0  0
    6.2801  -12.0096   25.4725 C   0  0  0  0  0  0  0  0  0  0  0  0
    7.0542  -13.1163   25.7540 C   0  0  0  0  0  0  0  0  0  0  0  0
    8.6764  -16.3702   23.3021 O   0  0  0  0  0  0  0  0  0  0  0  0
    7.7385  -17.0049   22.7784 O   0  0  0  0  0  0  0  0  0  0  0  0
  2  3  1  0
  2  1  1  6
  4  2  1  0
  4  5  1  1
  6  7  2  0
  6  4  1  0
  8  9  1  0
  9 11  1  0
 10  9  2  0
 11 12  1  0
 13 12  1  0
 13 14  1  0
 15 14  1  6
 15 16  1  0
 16  6  1  0
 17 15  1  0
 18 17  2  0
 19 17  1  0
 20 31  1  0
 20 19  1  0
 20 21  1  6
 21 22  1  0
 22 30  1  0
 22 23  2  0
 23 24  1  0
 25 24  1  0
 25 26  2  0
 27 26  1  0
 28 27  2  0
 29 30  2  0
 29 28  1  0
 30 25  1  0
 31 33  1  0
 32 31  2  0
M  END
$$$$
