TRW.pdb
     RDKit          3D

 33 34  0  0  1  0  0  0  0  0999 V2000
    7.6479  -11.8492   19.5062 C   0  0  0  0  0  0  0  0  0  0  0  0
    8.1688  -12.9685   20.3640 C   0  0  1  0  0  0  0  0  0  0  0  0
    7.5097  -12.9953   21.5709 O   0  0  0  0  0  0  0  0  0  0  0  0
    8.1186  -14.3140   19.6743 C   0  0  2  0  0  0  0  0  0  0  0  0
    6.7468  -14.6153   19.3167 N   0  0  0  0  0  0  0  0  0  0  0  0
    8.6200  -15.3307   20.6403 C   0  0  0  0  0  0  0  0  0  0  0  0
    7.8046  -16.0282   21.3350 O   0  0  0  0  0  0  0  0  0  0  0  0
   13.8098  -15.4009   18.0445 N   0  0  0  0  0  0  0  0  0  0  0  0
   14.9359  -15.3475   18.8964 C   0  0  0  0  0  0  0  0  0  0  0  0
   15.8191  -14.4166   18.7390 N   0  0  0  0  0  0  0  0  0  0  0  0
   15.1169  -16.2937   19.9222 N   0  0  0  0  0  0  0  0  0  0  0  0
   14.0295  -17.1889   20.2943 C   0  0  0  0  0  0  0  0  0  0  0  0
   12.8392  -16.4291   20.8032 C   0  0  0  0  0  0  0  0  0  0  0  0
   11.7402  -17.2894   21.2955 C   0  0  0  0  0  0  0  0  0  0  0  0
   10.4964  -16.6134   21.7652 C   0  0  2  0  0  0  0  0  0  0  0  0
   10.0116  -15.5864   20.8488 N   0  0  0  0  0  0  0  0  0  0  0  0
   10.4836  -16.1744   23.1698 C   0  0  0  0  0  0  0  0  0  0  0  0
   11.0455  -15.0839   23.5294 O   0  0  0  0  0  0  0  0  0  0  0  0
   16.5837  -14.2693   19.4164 N   0  0  0  0  0  0  0  0  0  0  0  0
    9.8580  -16.9120   24.2034 C   0  0  1  0  0  0  0  0  0  0  0  0
   10.0031  -16.4893   25.6180 C   0  0  0  0  0  0  0  0  0  0  0  0
    8.6483  -16.7080   26.2073 C   0  0  0  0  0  0  0  0  0  0  0  0
    7.5801  -15.8060   25.7549 C   0  0  0  0  0  0  0  0  0  0  0  0
    6.4771  -16.1471   24.9526 N   0  0  0  0  0  0  0  0  0  0  0  0
    5.7280  -15.0600   24.7190 C   0  0  0  0  0  0  0  0  0  0  0  0
    6.2772  -13.9908   25.3320 C   0  0  0  0  0  0  0  0  0  0  0  0
    5.8589  -12.6776   25.3868 C   0  0  0  0  0  0  0  0  0  0  0  0
    6.6316  -11.8078   26.1190 C   0  0  0  0  0  0  0  0  0  0  0  0
    7.7712  -12.2156   26.7709 C   0  0  0  0  0  0  0  0  0  0  0  0
    8.1564  -13.5254   26.6942 C   0  0  0  0  0  0  0  0  0  0  0  0
    7.4278  -14.4513   25.9765 C   0  0  0  0  0  0  0  0  0  0  0  0
   11.0741  -17.2844   26.1972 O   0  0  0  0  0  0  0  0  0  0  0  0
   11.6078  -18.2094   25.5518 O   0  0  0  0  0  0  0  0  0  0  0  0
  2  3  1  0
  2  1  1  6
  4  2  1  0
  4  5  1  1
  6  7  2  0
  6  4  1  0
  8  9  1  0
  9 11  1  0
 10  9  2  0
 11 12  1  0
 13 12  1  0
 13 14  1  0
 15 14  1  6
 15 16  1  0
 16  6  1  0
 17 15  1  0
 18 17  2  0
 19 17  1  0
 20 31  1  0
 20 19  1  0
 20 21  1  1
 21 22  1  0
 22 30  1  0
 22 23  2  0
 23 24  1  0
 25 24  1  0
 25 26  2  0
 27 26  1  0
 28 27  2  0
 29 30  2  0
 29 28  1  0
 30 25  1  0
 31 33  1  0
 32 31  2  0
M  END
$$$$
