TRW.pdb
     RDKit          3D

 33 34  0  0  1  0  0  0  0  0999 V2000
    8.2075  -11.6370   19.5100 C   0  0  0  0  0  0  0  0  0  0  0  0
    8.2145  -12.9562   20.2310 C   0  0  1  0  0  0  0  0  0  0  0  0
    7.0202  -13.1529   20.8843 O   0  0  0  0  0  0  0  0  0  0  0  0
    8.5513  -14.1217   19.3273 C   0  0  2  0  0  0  0  0  0  0  0  0
    7.5007  -14.2792   18.3413 N   0  0  0  0  0  0  0  0  0  0  0  0
    8.6265  -15.3411   20.1793 C   0  0  0  0  0  0  0  0  0  0  0  0
    7.6426  -16.1546   20.2418 O   0  0  0  0  0  0  0  0  0  0  0  0
   11.0161  -18.4444   17.0714 N   0  0  0  0  0  0  0  0  0  0  0  0
   12.3982  -18.2957   17.3249 C   0  0  0  0  0  0  0  0  0  0  0  0
   13.1638  -17.7637   16.4291 N   0  0  0  0  0  0  0  0  0  0  0  0
   12.9634  -18.7167   18.5429 N   0  0  0  0  0  0  0  0  0  0  0  0
   12.1090  -19.0024   19.6878 C   0  0  0  0  0  0  0  0  0  0  0  0
   11.3426  -17.7867   20.1210 C   0  0  0  0  0  0  0  0  0  0  0  0
   10.5575  -17.9790   21.3607 C   0  0  0  0  0  0  0  0  0  0  0  0
    9.8020  -16.8044   21.8846 C   0  0  2  0  0  0  0  0  0  0  0  0
    9.7755  -15.6729   20.9636 N   0  0  0  0  0  0  0  0  0  0  0  0
   10.0977  -16.4040   23.2695 C   0  0  0  0  0  0  0  0  0  0  0  0
   10.8986  -15.4410   23.5252 O   0  0  0  0  0  0  0  0  0  0  0  0
   14.1805  -17.6592   16.5723 N   0  0  0  0  0  0  0  0  0  0  0  0
    9.5256  -17.0418   24.3963 C   0  0  1  0  0  0  0  0  0  0  0  0
    9.9212  -16.6358   25.7672 C   0  0  0  0  0  0  0  0  0  0  0  0
    8.6410  -16.6448   26.5364 C   0  0  0  0  0  0  0  0  0  0  0  0
    7.6095  -15.6893   26.1093 C   0  0  0  0  0  0  0  0  0  0  0  0
    6.4299  -15.9869   25.4045 N   0  0  0  0  0  0  0  0  0  0  0  0
    5.7449  -14.8600   25.1632 C   0  0  0  0  0  0  0  0  0  0  0  0
    6.4114  -13.8054   25.6773 C   0  0  0  0  0  0  0  0  0  0  0  0
    6.0923  -12.4636   25.6881 C   0  0  0  0  0  0  0  0  0  0  0  0
    6.9757  -11.6184   26.3166 C   0  0  0  0  0  0  0  0  0  0  0  0
    8.1278  -12.0769   26.9103 C   0  0  0  0  0  0  0  0  0  0  0  0
    8.4125  -13.4140   26.8797 C   0  0  0  0  0  0  0  0  0  0  0  0
    7.5701  -14.3177   26.2658 C   0  0  0  0  0  0  0  0  0  0  0  0
   10.9314  -17.5785   26.2208 O   0  0  0  0  0  0  0  0  0  0  0  0
   11.2202  -18.5852   25.5426 O   0  0  0  0  0  0  0  0  0  0  0  0
  2  3  1  0
  2  1  1  6
  4  2  1  0
  4  5  1  6
  6  7  2  0
  6  4  1  0
  8  9  1  0
  9 11  1  0
 10  9  2  0
 11 12  1  0
 13 12  1  0
 13 14  1  0
 15 14  1  6
 15 16  1  0
 16  6  1  0
 17 15  1  0
 18 17  2  0
 19 17  1  0
 20 31  1  0
 20 19  1  0
 20 21  1  1
 21 22  1  0
 22 30  1  0
 22 23  2  0
 23 24  1  0
 25 24  1  0
 25 26  2  0
 27 26  1  0
 28 27  2  0
 29 30  2  0
 29 28  1  0
 30 25  1  0
 31 33  1  0
 32 31  2  0
M  END
$$$$
