TRW.pdb
     RDKit          3D

 33 34  0  0  1  0  0  0  0  0999 V2000
    6.4653  -23.0491   23.0346 C   0  0  0  0  0  0  0  0  0  0  0  0
    6.9349  -21.7711   22.3972 C   0  0  1  0  0  0  0  0  0  0  0  0
    5.9060  -21.1710   21.7096 O   0  0  0  0  0  0  0  0  0  0  0  0
    7.5730  -20.8184   23.3839 C   0  0  2  0  0  0  0  0  0  0  0  0
    6.5901  -20.4309   24.3761 N   0  0  0  0  0  0  0  0  0  0  0  0
    8.0176  -19.6178   22.6228 C   0  0  0  0  0  0  0  0  0  0  0  0
    8.8715  -19.7241   21.6776 O   0  0  0  0  0  0  0  0  0  0  0  0
    8.6394  -13.9332   18.0190 N   0  0  0  0  0  0  0  0  0  0  0  0
    8.2588  -12.8326   18.8194 C   0  0  0  0  0  0  0  0  0  0  0  0
    8.8748  -11.7026   18.6957 N   0  0  0  0  0  0  0  0  0  0  0  0
    7.2135  -12.9412   19.7552 N   0  0  0  0  0  0  0  0  0  0  0  0
    6.7129  -14.2522   20.1465 C   0  0  0  0  0  0  0  0  0  0  0  0
    7.6919  -14.9770   21.0237 C   0  0  0  0  0  0  0  0  0  0  0  0
    7.2386  -16.3190   21.4525 C   0  0  0  0  0  0  0  0  0  0  0  0
    8.1491  -17.1012   22.3378 C   0  0  2  0  0  0  0  0  0  0  0  0
    7.5305  -18.3006   22.8932 N   0  0  0  0  0  0  0  0  0  0  0  0
    8.9016  -16.3322   23.3418 C   0  0  0  0  0  0  0  0  0  0  0  0
    9.0192  -15.0624   23.2538 O   0  0  0  0  0  0  0  0  0  0  0  0
    8.6144  -10.8750   19.2546 N   0  0  0  0  0  0  0  0  0  0  0  0
    9.5349  -16.9310   24.4573 C   0  0  1  0  0  0  0  0  0  0  0  0
   10.3101  -16.1017   25.4123 C   0  0  0  0  0  0  0  0  0  0  0  0
    9.4463  -16.0392   26.6291 C   0  0  0  0  0  0  0  0  0  0  0  0
    8.1445  -15.3743   26.4791 C   0  0  0  0  0  0  0  0  0  0  0  0
    6.9139  -15.9926   26.1962 N   0  0  0  0  0  0  0  0  0  0  0  0
    5.9481  -15.0674   26.1035 C   0  0  0  0  0  0  0  0  0  0  0  0
    6.4724  -13.8420   26.3133 C   0  0  0  0  0  0  0  0  0  0  0  0
    5.8698  -12.6015   26.3317 C   0  0  0  0  0  0  0  0  0  0  0  0
    6.6769  -11.5208   26.5970 C   0  0  0  0  0  0  0  0  0  0  0  0
    8.0243  -11.6569   26.8342 C   0  0  0  0  0  0  0  0  0  0  0  0
    8.5882  -12.9024   26.8072 C   0  0  0  0  0  0  0  0  0  0  0  0
    7.8368  -14.0297   26.5471 C   0  0  0  0  0  0  0  0  0  0  0  0
   11.6012  -16.7462   25.5928 O   0  0  0  0  0  0  0  0  0  0  0  0
   11.8563  -17.8369   25.0431 O   0  0  0  0  0  0  0  0  0  0  0  0
  2  3  1  0
  2  1  1  1
  4  2  1  0
  4  5  1  1
  6  7  2  0
  6  4  1  0
  8  9  1  0
  9 11  1  0
 10  9  2  0
 11 12  1  0
 13 12  1  0
 13 14  1  0
 15 14  1  1
 15 16  1  0
 16  6  1  0
 17 15  1  0
 18 17  2  0
 19 17  1  0
 20 31  1  0
 20 19  1  0
 20 21  1  1
 21 22  1  0
 22 30  1  0
 22 23  2  0
 23 24  1  0
 25 24  1  0
 25 26  2  0
 27 26  1  0
 28 27  2  0
 29 30  2  0
 29 28  1  0
 30 25  1  0
 31 33  1  0
 32 31  2  0
M  END
$$$$
