TRW.pdb
     RDKit          3D

 33 34  0  0  1  0  0  0  0  0999 V2000
    8.9725  -20.8141   20.6943 C   0  0  0  0  0  0  0  0  0  0  0  0
    9.2601  -19.4100   21.1482 C   0  0  1  0  0  0  0  0  0  0  0  0
   10.1997  -19.4130   22.1525 O   0  0  0  0  0  0  0  0  0  0  0  0
    9.6627  -18.4933   20.0142 C   0  0  2  0  0  0  0  0  0  0  0  0
   10.8250  -19.0440   19.3460 N   0  0  0  0  0  0  0  0  0  0  0  0
   10.0052  -17.1710   20.6082 C   0  0  0  0  0  0  0  0  0  0  0  0
   11.2226  -16.8525   20.8325 O   0  0  0  0  0  0  0  0  0  0  0  0
    7.6823  -15.4538   16.6132 N   0  0  0  0  0  0  0  0  0  0  0  0
    7.9271  -14.0699   16.7599 C   0  0  0  0  0  0  0  0  0  0  0  0
    8.8808  -13.5099   16.0901 N   0  0  0  0  0  0  0  0  0  0  0  0
    7.1471  -13.2814   17.6260 N   0  0  0  0  0  0  0  0  0  0  0  0
    7.1176  -13.5701   19.0536 C   0  0  0  0  0  0  0  0  0  0  0  0
    8.4929  -13.5272   19.6536 C   0  0  0  0  0  0  0  0  0  0  0  0
    8.5233  -13.7839   21.1107 C   0  0  0  0  0  0  0  0  0  0  0  0
    9.3559  -14.9248   21.5901 C   0  0  2  0  0  0  0  0  0  0  0  0
    9.0190  -16.1960   20.9578 N   0  0  0  0  0  0  0  0  0  0  0  0
    9.5251  -15.0414   23.0473 C   0  0  0  0  0  0  0  0  0  0  0  0
    9.7196  -14.0103   23.7774 O   0  0  0  0  0  0  0  0  0  0  0  0
    9.1104  -12.5097   16.1997 N   0  0  0  0  0  0  0  0  0  0  0  0
    9.4826  -16.2793   23.7327 C   0  0  1  0  0  0  0  0  0  0  0  0
    9.8253  -16.3488   25.1744 C   0  0  0  0  0  0  0  0  0  0  0  0
    8.5322  -16.6817   25.8434 C   0  0  0  0  0  0  0  0  0  0  0  0
    7.4663  -15.6740   25.7547 C   0  0  0  0  0  0  0  0  0  0  0  0
    6.2032  -15.8384   25.1598 N   0  0  0  0  0  0  0  0  0  0  0  0
    5.5067  -14.6958   25.2424 C   0  0  0  0  0  0  0  0  0  0  0  0
    6.2459  -13.7588   25.8719 C   0  0  0  0  0  0  0  0  0  0  0  0
    5.9470  -12.4521   26.1966 C   0  0  0  0  0  0  0  0  0  0  0  0
    6.9134  -11.7402   26.8669 C   0  0  0  0  0  0  0  0  0  0  0  0
    8.1261  -12.2938   27.2034 C   0  0  0  0  0  0  0  0  0  0  0  0
    8.3884  -13.5924   26.8647 C   0  0  0  0  0  0  0  0  0  0  0  0
    7.4638  -14.3638   26.1915 C   0  0  0  0  0  0  0  0  0  0  0  0
   10.8792  -17.3403   25.3191 O   0  0  0  0  0  0  0  0  0  0  0  0
   11.2222  -18.0572   24.3571 O   0  0  0  0  0  0  0  0  0  0  0  0
  2  3  1  0
  2  1  1  6
  4  2  1  0
  4  5  1  1
  6  7  2  0
  6  4  1  0
  8  9  1  0
  9 11  1  0
 10  9  2  0
 11 12  1  0
 13 12  1  0
 13 14  1  0
 15 14  1  1
 15 16  1  0
 16  6  1  0
 17 15  1  0
 18 17  2  0
 19 17  1  0
 20 31  1  0
 20 19  1  0
 20 21  1  1
 21 22  1  0
 22 30  1  0
 22 23  2  0
 23 24  1  0
 25 24  1  0
 25 26  2  0
 27 26  1  0
 28 27  2  0
 29 30  2  0
 29 28  1  0
 30 25  1  0
 31 33  1  0
 32 31  2  0
M  END
$$$$
