TRW.pdb
     RDKit          3D

 33 34  0  0  1  0  0  0  0  0999 V2000
    7.9834  -12.0056   19.7071 C   0  0  0  0  0  0  0  0  0  0  0  0
    8.2799  -13.2074   20.5603 C   0  0  1  0  0  0  0  0  0  0  0  0
    7.2795  -13.3989   21.4845 O   0  0  0  0  0  0  0  0  0  0  0  0
    8.5338  -14.4592   19.7497 C   0  0  2  0  0  0  0  0  0  0  0  0
    7.3552  -14.7650   18.9635 N   0  0  0  0  0  0  0  0  0  0  0  0
    8.7980  -15.5673   20.7092 C   0  0  0  0  0  0  0  0  0  0  0  0
    7.8571  -16.3510   21.0756 O   0  0  0  0  0  0  0  0  0  0  0  0
   11.9299  -18.2495   16.9947 N   0  0  0  0  0  0  0  0  0  0  0  0
   12.6053  -19.3459   17.5766 C   0  0  0  0  0  0  0  0  0  0  0  0
   12.8047  -20.4201   16.8854 N   0  0  0  0  0  0  0  0  0  0  0  0
   13.0706  -19.2919   18.9036 N   0  0  0  0  0  0  0  0  0  0  0  0
   12.7780  -18.1332   19.7367 C   0  0  0  0  0  0  0  0  0  0  0  0
   11.4296  -18.2473   20.3863 C   0  0  0  0  0  0  0  0  0  0  0  0
   11.4082  -17.8349   21.8075 C   0  0  0  0  0  0  0  0  0  0  0  0
   10.3361  -16.8888   22.2321 C   0  0  2  0  0  0  0  0  0  0  0  0
   10.0894  -15.8203   21.2695 N   0  0  0  0  0  0  0  0  0  0  0  0
   10.4095  -16.4000   23.6183 C   0  0  0  0  0  0  0  0  0  0  0  0
   11.0182  -15.3138   23.9075 O   0  0  0  0  0  0  0  0  0  0  0  0
   13.3323  -21.2224   17.2635 N   0  0  0  0  0  0  0  0  0  0  0  0
    9.8205  -17.0825   24.7096 C   0  0  1  0  0  0  0  0  0  0  0  0
    9.9500  -16.5453   26.0863 C   0  0  0  0  0  0  0  0  0  0  0  0
    8.5582  -16.5813   26.6269 C   0  0  0  0  0  0  0  0  0  0  0  0
    7.5792  -15.6934   25.9846 C   0  0  0  0  0  0  0  0  0  0  0  0
    6.5973  -16.0637   25.0491 N   0  0  0  0  0  0  0  0  0  0  0  0
    5.9056  -14.9831   24.6602 C   0  0  0  0  0  0  0  0  0  0  0  0
    6.3774  -13.8901   25.2954 C   0  0  0  0  0  0  0  0  0  0  0  0
    5.9752  -12.5725   25.2286 C   0  0  0  0  0  0  0  0  0  0  0  0
    6.6483  -11.6748   26.0230 C   0  0  0  0  0  0  0  0  0  0  0  0
    7.6769  -12.0600   26.8499 C   0  0  0  0  0  0  0  0  0  0  0  0
    8.0494  -13.3751   26.8900 C   0  0  0  0  0  0  0  0  0  0  0  0
    7.4171  -14.3285   26.1190 C   0  0  0  0  0  0  0  0  0  0  0  0
   10.9153  -17.3792   26.7848 O   0  0  0  0  0  0  0  0  0  0  0  0
   11.3931  -18.3974   26.2448 O   0  0  0  0  0  0  0  0  0  0  0  0
  2  3  1  0
  2  1  1  6
  4  2  1  0
  4  5  1  1
  6  7  2  0
  6  4  1  0
  8  9  1  0
  9 11  1  0
 10  9  2  0
 11 12  1  0
 13 12  1  0
 13 14  1  0
 15 14  1  6
 15 16  1  0
 16  6  1  0
 17 15  1  0
 18 17  2  0
 19 17  1  0
 20 31  1  0
 20 19  1  0
 20 21  1  6
 21 22  1  0
 22 30  1  0
 22 23  2  0
 23 24  1  0
 25 24  1  0
 25 26  2  0
 27 26  1  0
 28 27  2  0
 29 30  2  0
 29 28  1  0
 30 25  1  0
 31 33  1  0
 32 31  2  0
M  END
$$$$
