TCK.pdb
     RDKit          3D

 23 22  0  0  1  0  0  0  0  0999 V2000
    9.5060  -12.5772   19.6501 C   0  0  0  0  0  0  0  0  0  0  0  0
    8.4711  -12.9321   18.6282 C   0  0  1  0  0  0  0  0  0  0  0  0
    8.4151  -11.9738   17.6197 O   0  0  0  0  0  0  0  0  0  0  0  0
    8.6817  -14.3219   18.0553 C   0  0  2  0  0  0  0  0  0  0  0  0
    7.5099  -14.6081   17.2358 N   0  0  0  0  0  0  0  0  0  0  0  0
    8.6802  -15.2744   19.1983 C   0  0  0  0  0  0  0  0  0  0  0  0
    7.5785  -15.3724   19.8395 O   0  0  0  0  0  0  0  0  0  0  0  0
    9.8187  -16.0392   19.5743 N   0  0  0  0  0  0  0  0  0  0  0  0
    9.7874  -16.9584   20.6636 C   0  0  1  0  0  0  0  0  0  0  0  0
   10.4629  -18.2707   20.2960 C   0  0  0  0  0  0  0  0  0  0  0  0
   10.4203  -19.4487   21.6562 S   0  0  0  0  0  0  0  0  0  0  0  0
   10.5409  -16.4326   21.8594 C   0  0  0  0  0  0  0  0  0  0  0  0
   11.6139  -15.7872   21.7341 O   0  0  0  0  0  0  0  0  0  0  0  0
   10.0657  -16.6470   23.1795 N   0  0  0  0  0  0  0  0  0  0  0  0
   10.7600  -16.1825   24.3681 C   0  0  1  0  0  0  0  0  0  0  0  0
    9.8614  -15.7589   25.4576 C   0  0  0  0  0  0  0  0  0  0  0  0
   10.4248  -15.2992   26.7353 C   0  0  0  0  0  0  0  0  0  0  0  0
    9.3903  -14.9103   27.7593 C   0  0  0  0  0  0  0  0  0  0  0  0
   10.1101  -14.5755   29.0542 C   0  0  0  0  0  0  0  0  0  0  0  0
    9.0912  -14.3021   30.0528 N   0  0  0  0  0  0  0  0  0  0  0  0
   11.8074  -17.1603   24.6978 C   0  0  0  0  0  0  0  0  0  0  0  0
   11.5676  -18.3871   24.7080 O   0  0  0  0  0  0  0  0  0  0  0  0
   13.0951  -16.7662   25.0088 O   0  0  0  0  0  0  0  0  0  0  0  0
  2  1  1  1
  2  3  1  0
  4  5  1  6
  4  2  1  0
  6  4  1  0
  6  7  2  0
  8  6  1  0
  9  8  1  0
  9 12  1  0
  9 10  1  6
 11 10  1  0
 12 14  1  0
 13 12  2  0
 14 15  1  0
 15 21  1  0
 16 17  1  0
 15 16  1  1
 18 17  1  0
 18 19  1  0
 20 19  1  0
 21 22  2  0
 21 23  1  0
M  END
$$$$
