TCK.pdb
     RDKit          3D

 23 22  0  0  1  0  0  0  0  0999 V2000
    9.8277  -17.6249   17.1300 C   0  0  0  0  0  0  0  0  0  0  0  0
    9.0459  -17.4804   18.3985 C   0  0  1  0  0  0  0  0  0  0  0  0
    8.0927  -16.4719   18.2861 O   0  0  0  0  0  0  0  0  0  0  0  0
    8.4133  -18.7890   18.8362 C   0  0  2  0  0  0  0  0  0  0  0  0
    7.3258  -19.0504   17.9006 N   0  0  0  0  0  0  0  0  0  0  0  0
    7.8128  -18.5608   20.1783 C   0  0  0  0  0  0  0  0  0  0  0  0
    6.6821  -17.9644   20.1878 O   0  0  0  0  0  0  0  0  0  0  0  0
    8.4367  -18.9704   21.3889 N   0  0  0  0  0  0  0  0  0  0  0  0
    7.8445  -18.7334   22.6638 C   0  0  1  0  0  0  0  0  0  0  0  0
    8.1063  -19.8904   23.6159 C   0  0  0  0  0  0  0  0  0  0  0  0
    7.6220  -19.4909   25.3028 S   0  0  0  0  0  0  0  0  0  0  0  0
    8.4286  -17.5145   23.3327 C   0  0  0  0  0  0  0  0  0  0  0  0
    9.6608  -17.2625   23.2897 O   0  0  0  0  0  0  0  0  0  0  0  0
    7.6059  -16.5997   24.0403 N   0  0  0  0  0  0  0  0  0  0  0  0
    8.1037  -15.3798   24.6524 C   0  0  1  0  0  0  0  0  0  0  0  0
    7.0421  -14.4595   25.0995 C   0  0  0  0  0  0  0  0  0  0  0  0
    7.3934  -13.2428   25.8460 C   0  0  0  0  0  0  0  0  0  0  0  0
    6.2099  -12.3925   26.2286 C   0  0  0  0  0  0  0  0  0  0  0  0
    6.7281  -11.1536   26.9383 C   0  0  0  0  0  0  0  0  0  0  0  0
    5.5730  -10.3448   27.2873 N   0  0  0  0  0  0  0  0  0  0  0  0
    9.1358  -15.7479   25.6328 C   0  0  0  0  0  0  0  0  0  0  0  0
   10.1183  -15.0056   25.8479 O   0  0  0  0  0  0  0  0  0  0  0  0
    9.0635  -16.9245   26.3544 O   0  0  0  0  0  0  0  0  0  0  0  0
  2  1  1  6
  2  3  1  0
  4  5  1  6
  4  2  1  0
  6  4  1  0
  6  7  2  0
  8  6  1  0
  9  8  1  0
  9 12  1  0
  9 10  1  1
 11 10  1  0
 12 14  1  0
 13 12  2  0
 14 15  1  0
 15 21  1  0
 16 17  1  0
 15 16  1  1
 18 17  1  0
 18 19  1  0
 20 19  1  0
 21 22  2  0
 21 23  1  0
M  END
$$$$
