TCK.pdb
     RDKit          3D

 23 22  0  0  1  0  0  0  0  0999 V2000
    6.4684  -15.7135   20.7617 C   0  0  0  0  0  0  0  0  0  0  0  0
    7.4222  -14.8345   20.0141 C   0  0  1  0  0  0  0  0  0  0  0  0
    7.1858  -14.8925   18.6433 O   0  0  0  0  0  0  0  0  0  0  0  0
    7.3982  -13.4023   20.5163 C   0  0  2  0  0  0  0  0  0  0  0  0
    8.3521  -12.6653   19.6956 N   0  0  0  0  0  0  0  0  0  0  0  0
    7.9149  -13.4159   21.9115 C   0  0  0  0  0  0  0  0  0  0  0  0
    9.1707  -13.6192   22.0378 O   0  0  0  0  0  0  0  0  0  0  0  0
    7.0854  -13.2181   23.0496 N   0  0  0  0  0  0  0  0  0  0  0  0
    7.5828  -13.3416   24.3799 C   0  0  1  0  0  0  0  0  0  0  0  0
    6.5680  -12.8398   25.3958 C   0  0  0  0  0  0  0  0  0  0  0  0
    7.1221  -13.1146   27.0862 S   0  0  0  0  0  0  0  0  0  0  0  0
    7.8486  -14.7804   24.7451 C   0  0  0  0  0  0  0  0  0  0  0  0
    6.9638  -15.6674   24.6274 O   0  0  0  0  0  0  0  0  0  0  0  0
    9.1144  -15.1913   25.2386 N   0  0  0  0  0  0  0  0  0  0  0  0
    9.4549  -16.5747   25.5224 C   0  0  1  0  0  0  0  0  0  0  0  0
   10.3680  -17.1797   24.5354 C   0  0  0  0  0  0  0  0  0  0  0  0
   10.8831  -18.5397   24.7507 C   0  0  0  0  0  0  0  0  0  0  0  0
   11.8121  -19.0242   23.6682 C   0  0  0  0  0  0  0  0  0  0  0  0
   12.1605  -20.4739   23.9586 C   0  0  0  0  0  0  0  0  0  0  0  0
   12.9186  -20.9686   22.8224 N   0  0  0  0  0  0  0  0  0  0  0  0
    9.8322  -16.6716   26.9401 C   0  0  0  0  0  0  0  0  0  0  0  0
   10.1091  -17.7730   27.4625 O   0  0  0  0  0  0  0  0  0  0  0  0
    9.8965  -15.5543   27.7512 O   0  0  0  0  0  0  0  0  0  0  0  0
  2  1  1  1
  2  3  1  0
  4  5  1  6
  4  2  1  0
  6  4  1  0
  6  7  2  0
  8  6  1  0
  9  8  1  0
  9 12  1  0
  9 10  1  1
 11 10  1  0
 12 14  1  0
 13 12  2  0
 14 15  1  0
 15 21  1  0
 16 17  1  0
 15 16  1  6
 18 17  1  0
 18 19  1  0
 20 19  1  0
 21 22  2  0
 21 23  1  0
M  END
$$$$
