TCK.pdb
     RDKit          3D

 23 22  0  0  1  0  0  0  0  0999 V2000
    6.1699  -19.3108   16.9070 C   0  0  0  0  0  0  0  0  0  0  0  0
    7.0561  -18.5538   17.8465 C   0  0  1  0  0  0  0  0  0  0  0  0
    7.9931  -19.3966   18.4383 O   0  0  0  0  0  0  0  0  0  0  0  0
    7.7278  -17.3698   17.1749 C   0  0  2  0  0  0  0  0  0  0  0  0
    8.7198  -17.9261   16.2622 N   0  0  0  0  0  0  0  0  0  0  0  0
    8.4553  -16.6177   18.2327 C   0  0  0  0  0  0  0  0  0  0  0  0
    9.6148  -17.0634   18.5348 O   0  0  0  0  0  0  0  0  0  0  0  0
    7.9171  -15.4727   18.8822 N   0  0  0  0  0  0  0  0  0  0  0  0
    8.6621  -14.7259   19.8412 C   0  0  1  0  0  0  0  0  0  0  0  0
    7.8670  -13.5321   20.3474 C   0  0  0  0  0  0  0  0  0  0  0  0
    7.5023  -12.3635   19.0277 S   0  0  0  0  0  0  0  0  0  0  0  0
    8.9832  -15.5498   21.0629 C   0  0  0  0  0  0  0  0  0  0  0  0
    8.0972  -16.2040   21.6716 O   0  0  0  0  0  0  0  0  0  0  0  0
   10.3050  -15.6190   21.5755 N   0  0  0  0  0  0  0  0  0  0  0  0
   10.7445  -16.6224   22.5297 C   0  0  1  0  0  0  0  0  0  0  0  0
   10.8557  -17.9785   21.9619 C   0  0  0  0  0  0  0  0  0  0  0  0
   11.2959  -19.0949   22.8112 C   0  0  0  0  0  0  0  0  0  0  0  0
   11.3760  -20.4181   22.0952 C   0  0  0  0  0  0  0  0  0  0  0  0
   11.9381  -21.4453   23.0627 C   0  0  0  0  0  0  0  0  0  0  0  0
   12.0956  -22.6872   22.3258 N   0  0  0  0  0  0  0  0  0  0  0  0
   11.9138  -16.0918   23.2459 C   0  0  0  0  0  0  0  0  0  0  0  0
   12.6270  -15.1951   22.7460 O   0  0  0  0  0  0  0  0  0  0  0  0
   12.2721  -16.5599   24.4960 O   0  0  0  0  0  0  0  0  0  0  0  0
  2  1  1  6
  2  3  1  0
  4  5  1  6
  4  2  1  0
  6  4  1  0
  6  7  2  0
  8  6  1  0
  9  8  1  0
  9 12  1  0
  9 10  1  1
 11 10  1  0
 12 14  1  0
 13 12  2  0
 14 15  1  0
 15 21  1  0
 16 17  1  0
 15 16  1  6
 18 17  1  0
 18 19  1  0
 20 19  1  0
 21 22  2  0
 21 23  1  0
M  END
$$$$
