TCK.pdb
     RDKit          3D

 23 22  0  0  1  0  0  0  0  0999 V2000
    6.6001  -15.7863   20.7786 C   0  0  0  0  0  0  0  0  0  0  0  0
    7.4601  -14.7862   20.0705 C   0  0  1  0  0  0  0  0  0  0  0  0
    7.1490  -14.7303   18.7146 O   0  0  0  0  0  0  0  0  0  0  0  0
    7.3870  -13.4109   20.7089 C   0  0  2  0  0  0  0  0  0  0  0  0
    8.1568  -12.5197   19.8488 N   0  0  0  0  0  0  0  0  0  0  0  0
    8.0877  -13.4954   22.0187 C   0  0  0  0  0  0  0  0  0  0  0  0
    9.3514  -13.6808   21.9627 O   0  0  0  0  0  0  0  0  0  0  0  0
    7.4175  -13.3803   23.2677 N   0  0  0  0  0  0  0  0  0  0  0  0
    8.0617  -13.6813   24.5033 C   0  0  1  0  0  0  0  0  0  0  0  0
    7.1919  -13.2880   25.6876 C   0  0  0  0  0  0  0  0  0  0  0  0
    5.6903  -12.4450   25.1636 S   0  0  0  0  0  0  0  0  0  0  0  0
    8.3137  -15.1603   24.6556 C   0  0  0  0  0  0  0  0  0  0  0  0
    7.4833  -16.0177   24.2571 O   0  0  0  0  0  0  0  0  0  0  0  0
    9.5043  -15.6444   25.2579 N   0  0  0  0  0  0  0  0  0  0  0  0
    9.8636  -17.0511   25.3091 C   0  0  1  0  0  0  0  0  0  0  0  0
   10.8350  -17.4575   24.2770 C   0  0  0  0  0  0  0  0  0  0  0  0
   11.3556  -18.8322   24.2614 C   0  0  0  0  0  0  0  0  0  0  0  0
   12.3279  -19.1091   23.1444 C   0  0  0  0  0  0  0  0  0  0  0  0
   12.7878  -20.5517   23.2652 C   0  0  0  0  0  0  0  0  0  0  0  0
   13.8061  -20.7635   22.2510 N   0  0  0  0  0  0  0  0  0  0  0  0
   10.1774  -17.3928   26.7042 C   0  0  0  0  0  0  0  0  0  0  0  0
   10.3133  -16.5048   27.5734 O   0  0  0  0  0  0  0  0  0  0  0  0
   10.3347  -18.7041   27.1117 O   0  0  0  0  0  0  0  0  0  0  0  0
  2  1  1  1
  2  3  1  0
  4  5  1  6
  4  2  1  0
  6  4  1  0
  6  7  2  0
  8  6  1  0
  9  8  1  0
  9 12  1  0
  9 10  1  1
 11 10  1  0
 12 14  1  0
 13 12  2  0
 14 15  1  0
 15 21  1  0
 16 17  1  0
 15 16  1  6
 18 17  1  0
 18 19  1  0
 20 19  1  0
 21 22  2  0
 21 23  1  0
M  END
$$$$
