TCK.pdb
     RDKit          3D

 23 22  0  0  1  0  0  0  0  0999 V2000
    6.4824  -14.4444   18.8169 C   0  0  0  0  0  0  0  0  0  0  0  0
    7.2140  -14.5356   20.1198 C   0  0  1  0  0  0  0  0  0  0  0  0
    8.3917  -15.2653   19.9818 O   0  0  0  0  0  0  0  0  0  0  0  0
    7.4811  -13.1698   20.7260 C   0  0  2  0  0  0  0  0  0  0  0  0
    8.4240  -12.5042   19.8347 N   0  0  0  0  0  0  0  0  0  0  0  0
    8.1661  -13.3920   22.0279 C   0  0  0  0  0  0  0  0  0  0  0  0
    9.4302  -13.5732   21.9678 O   0  0  0  0  0  0  0  0  0  0  0  0
    7.4811  -13.4065   23.2742 N   0  0  0  0  0  0  0  0  0  0  0  0
    8.1467  -13.6976   24.5008 C   0  0  1  0  0  0  0  0  0  0  0  0
    7.2635  -13.3750   25.6964 C   0  0  0  0  0  0  0  0  0  0  0  0
    5.6060  -14.0503   25.5048 S   0  0  0  0  0  0  0  0  0  0  0  0
    8.4776  -15.1639   24.6219 C   0  0  0  0  0  0  0  0  0  0  0  0
    7.8299  -16.0425   23.9957 O   0  0  0  0  0  0  0  0  0  0  0  0
    9.5386  -15.6114   25.4518 N   0  0  0  0  0  0  0  0  0  0  0  0
    9.9824  -16.9934   25.5123 C   0  0  1  0  0  0  0  0  0  0  0  0
   11.0405  -17.3241   24.5402 C   0  0  0  0  0  0  0  0  0  0  0  0
   11.6366  -18.6679   24.5345 C   0  0  0  0  0  0  0  0  0  0  0  0
   12.7130  -18.8591   23.4979 C   0  0  0  0  0  0  0  0  0  0  0  0
   13.1629  -20.3091   23.5460 C   0  0  0  0  0  0  0  0  0  0  0  0
   14.1175  -20.4978   22.4673 N   0  0  0  0  0  0  0  0  0  0  0  0
   10.2290  -17.3337   26.9212 C   0  0  0  0  0  0  0  0  0  0  0  0
   10.2994  -16.4462   27.7987 O   0  0  0  0  0  0  0  0  0  0  0  0
   10.3927  -18.6429   27.3330 O   0  0  0  0  0  0  0  0  0  0  0  0
  2  1  1  6
  2  3  1  0
  4  5  1  6
  4  2  1  0
  6  4  1  0
  6  7  2  0
  8  6  1  0
  9  8  1  0
  9 12  1  0
  9 10  1  1
 11 10  1  0
 12 14  1  0
 13 12  2  0
 14 15  1  0
 15 21  1  0
 16 17  1  0
 15 16  1  6
 18 17  1  0
 18 19  1  0
 20 19  1  0
 21 22  2  0
 21 23  1  0
M  END
$$$$
