TCK.pdb
     RDKit          3D

 23 22  0  0  1  0  0  0  0  0999 V2000
    6.6016  -15.8560   20.9851 C   0  0  0  0  0  0  0  0  0  0  0  0
    7.3992  -14.8338   20.2368 C   0  0  1  0  0  0  0  0  0  0  0  0
    7.0587  -14.8243   18.8868 O   0  0  0  0  0  0  0  0  0  0  0  0
    7.2742  -13.4488   20.8454 C   0  0  2  0  0  0  0  0  0  0  0  0
    8.0850  -12.5637   20.0174 N   0  0  0  0  0  0  0  0  0  0  0  0
    7.8961  -13.5034   22.1960 C   0  0  0  0  0  0  0  0  0  0  0  0
    9.1724  -13.5737   22.2184 O   0  0  0  0  0  0  0  0  0  0  0  0
    7.1412  -13.4802   23.4009 N   0  0  0  0  0  0  0  0  0  0  0  0
    7.7372  -13.7240   24.6728 C   0  0  1  0  0  0  0  0  0  0  0  0
    6.7826  -13.3744   25.8042 C   0  0  0  0  0  0  0  0  0  0  0  0
    6.6641  -11.5957   26.0534 S   0  0  0  0  0  0  0  0  0  0  0  0
    8.0757  -15.1816   24.8604 C   0  0  0  0  0  0  0  0  0  0  0  0
    7.1968  -16.0794   24.7909 O   0  0  0  0  0  0  0  0  0  0  0  0
    9.4066  -15.5986   25.1241 N   0  0  0  0  0  0  0  0  0  0  0  0
    9.7983  -16.9901   25.2679 C   0  0  1  0  0  0  0  0  0  0  0  0
   10.9256  -17.3856   24.4037 C   0  0  0  0  0  0  0  0  0  0  0  0
   10.7328  -17.4909   22.9500 C   0  0  0  0  0  0  0  0  0  0  0  0
   11.9640  -17.9210   22.1958 C   0  0  0  0  0  0  0  0  0  0  0  0
   11.5964  -18.0538   20.7280 C   0  0  0  0  0  0  0  0  0  0  0  0
   12.8300  -18.2840   19.9962 N   0  0  0  0  0  0  0  0  0  0  0  0
    9.9105  -17.2881   26.7032 C   0  0  0  0  0  0  0  0  0  0  0  0
    9.9295  -16.3732   27.5548 O   0  0  0  0  0  0  0  0  0  0  0  0
    9.9993  -18.5862   27.1694 O   0  0  0  0  0  0  0  0  0  0  0  0
  2  1  1  1
  2  3  1  0
  4  5  1  6
  4  2  1  0
  6  4  1  0
  6  7  2  0
  8  6  1  0
  9  8  1  0
  9 12  1  0
  9 10  1  1
 11 10  1  0
 12 14  1  0
 13 12  2  0
 14 15  1  0
 15 21  1  0
 16 17  1  0
 15 16  1  6
 18 17  1  0
 18 19  1  0
 20 19  1  0
 21 22  2  0
 21 23  1  0
M  END
$$$$
