TCK.pdb
     RDKit          3D

 23 22  0  0  1  0  0  0  0  0999 V2000
    6.5451  -16.3745   22.1557 C   0  0  0  0  0  0  0  0  0  0  0  0
    7.3553  -15.5275   21.2244 C   0  0  1  0  0  0  0  0  0  0  0  0
    6.9941  -15.7555   19.8993 O   0  0  0  0  0  0  0  0  0  0  0  0
    7.2733  -14.0519   21.5709 C   0  0  2  0  0  0  0  0  0  0  0  0
    8.0027  -13.3452   20.5245 N   0  0  0  0  0  0  0  0  0  0  0  0
    8.0103  -13.8578   22.8487 C   0  0  0  0  0  0  0  0  0  0  0  0
    9.2757  -14.0313   22.7931 O   0  0  0  0  0  0  0  0  0  0  0  0
    7.3713  -13.5017   24.0683 N   0  0  0  0  0  0  0  0  0  0  0  0
    8.0760  -13.4541   25.3067 C   0  0  1  0  0  0  0  0  0  0  0  0
    7.2508  -12.7664   26.3834 C   0  0  0  0  0  0  0  0  0  0  0  0
    5.5644  -13.3936   26.4362 S   0  0  0  0  0  0  0  0  0  0  0  0
    8.3677  -14.8356   25.8363 C   0  0  0  0  0  0  0  0  0  0  0  0
    7.5481  -15.7815   25.7051 O   0  0  0  0  0  0  0  0  0  0  0  0
    9.5851  -15.1233   26.5069 N   0  0  0  0  0  0  0  0  0  0  0  0
    9.9004  -16.4220   27.0767 C   0  0  1  0  0  0  0  0  0  0  0  0
   10.6928  -17.2889   26.1853 C   0  0  0  0  0  0  0  0  0  0  0  0
   11.1752  -18.5909   26.6683 C   0  0  0  0  0  0  0  0  0  0  0  0
   11.9058  -19.4004   25.6286 C   0  0  0  0  0  0  0  0  0  0  0  0
   12.3088  -20.7231   26.2572 C   0  0  0  0  0  0  0  0  0  0  0  0
   13.0572  -21.4632   25.2560 N   0  0  0  0  0  0  0  0  0  0  0  0
   10.4071  -16.2125   28.4408 C   0  0  0  0  0  0  0  0  0  0  0  0
   10.7369  -17.1771   29.1642 O   0  0  0  0  0  0  0  0  0  0  0  0
   10.5395  -14.9461   28.9785 O   0  0  0  0  0  0  0  0  0  0  0  0
  2  1  1  1
  2  3  1  0
  4  5  1  6
  4  2  1  0
  6  4  1  0
  6  7  2  0
  8  6  1  0
  9  8  1  0
  9 12  1  0
  9 10  1  1
 11 10  1  0
 12 14  1  0
 13 12  2  0
 14 15  1  0
 15 21  1  0
 16 17  1  0
 15 16  1  6
 18 17  1  0
 18 19  1  0
 20 19  1  0
 21 22  2  0
 21 23  1  0
M  END
$$$$
