TCK.pdb
     RDKit          3D

 23 22  0  0  1  0  0  0  0  0999 V2000
    6.6259  -15.6493   20.5055 C   0  0  0  0  0  0  0  0  0  0  0  0
    7.4460  -14.5877   19.8410 C   0  0  1  0  0  0  0  0  0  0  0  0
    7.0814  -14.4368   18.5058 O   0  0  0  0  0  0  0  0  0  0  0  0
    7.3822  -13.2641   20.5815 C   0  0  2  0  0  0  0  0  0  0  0  0
    8.0707  -12.2917   19.7408 N   0  0  0  0  0  0  0  0  0  0  0  0
    8.1708  -13.4213   21.8334 C   0  0  0  0  0  0  0  0  0  0  0  0
    9.4325  -13.5619   21.6822 O   0  0  0  0  0  0  0  0  0  0  0  0
    7.5826  -13.4189   23.1282 N   0  0  0  0  0  0  0  0  0  0  0  0
    8.3372  -13.7055   24.3033 C   0  0  1  0  0  0  0  0  0  0  0  0
    7.6109  -13.2318   25.5529 C   0  0  0  0  0  0  0  0  0  0  0  0
    5.8269  -13.1945   25.3159 S   0  0  0  0  0  0  0  0  0  0  0  0
    8.5415  -15.1882   24.4875 C   0  0  0  0  0  0  0  0  0  0  0  0
    7.6744  -16.0257   24.1265 O   0  0  0  0  0  0  0  0  0  0  0  0
    9.7266  -15.6986   25.0787 N   0  0  0  0  0  0  0  0  0  0  0  0
   10.0319  -17.1159   25.1708 C   0  0  1  0  0  0  0  0  0  0  0  0
   10.9895  -17.5880   24.1540 C   0  0  0  0  0  0  0  0  0  0  0  0
   11.5032  -18.9642   24.2140 C   0  0  0  0  0  0  0  0  0  0  0  0
   12.5653  -19.2696   23.1900 C   0  0  0  0  0  0  0  0  0  0  0  0
   12.9421  -20.7350   23.3230 C   0  0  0  0  0  0  0  0  0  0  0  0
   13.8660  -21.0396   22.2442 N   0  0  0  0  0  0  0  0  0  0  0  0
   10.3291  -17.4297   26.5761 C   0  0  0  0  0  0  0  0  0  0  0  0
   10.5132  -16.5231   27.4169 O   0  0  0  0  0  0  0  0  0  0  0  0
   10.4172  -18.7340   27.0248 O   0  0  0  0  0  0  0  0  0  0  0  0
  2  1  1  1
  2  3  1  0
  4  5  1  6
  4  2  1  0
  6  4  1  0
  6  7  2  0
  8  6  1  0
  9  8  1  0
  9 12  1  0
  9 10  1  1
 11 10  1  0
 12 14  1  0
 13 12  2  0
 14 15  1  0
 15 21  1  0
 16 17  1  0
 15 16  1  6
 18 17  1  0
 18 19  1  0
 20 19  1  0
 21 22  2  0
 21 23  1  0
M  END
$$$$
