TCK.pdb
     RDKit          3D

 23 22  0  0  1  0  0  0  0  0999 V2000
    6.5274  -14.7448   18.9300 C   0  0  0  0  0  0  0  0  0  0  0  0
    7.1751  -14.6701   20.2776 C   0  0  1  0  0  0  0  0  0  0  0  0
    8.3753  -15.3756   20.2952 O   0  0  0  0  0  0  0  0  0  0  0  0
    7.3716  -13.2385   20.7425 C   0  0  2  0  0  0  0  0  0  0  0  0
    8.3857  -12.6604   19.8685 N   0  0  0  0  0  0  0  0  0  0  0  0
    7.9363  -13.2956   22.1179 C   0  0  0  0  0  0  0  0  0  0  0  0
    9.2066  -13.4188   22.1931 O   0  0  0  0  0  0  0  0  0  0  0  0
    7.1355  -13.2199   23.2907 N   0  0  0  0  0  0  0  0  0  0  0  0
    7.6853  -13.3891   24.5952 C   0  0  1  0  0  0  0  0  0  0  0  0
    6.7162  -12.9135   25.6667 C   0  0  0  0  0  0  0  0  0  0  0  0
    7.3710  -13.1729   27.3232 S   0  0  0  0  0  0  0  0  0  0  0  0
    7.9543  -14.8405   24.9036 C   0  0  0  0  0  0  0  0  0  0  0  0
    7.0578  -15.7171   24.7964 O   0  0  0  0  0  0  0  0  0  0  0  0
    9.2366  -15.2757   25.3290 N   0  0  0  0  0  0  0  0  0  0  0  0
    9.5340  -16.6459   25.7095 C   0  0  1  0  0  0  0  0  0  0  0  0
   10.5271  -17.3047   24.8413 C   0  0  0  0  0  0  0  0  0  0  0  0
   10.1450  -17.7408   23.4904 C   0  0  0  0  0  0  0  0  0  0  0  0
   11.2907  -18.2705   22.6679 C   0  0  0  0  0  0  0  0  0  0  0  0
   10.7753  -18.5539   21.2674 C   0  0  0  0  0  0  0  0  0  0  0  0
   11.8975  -19.0506   20.4900 N   0  0  0  0  0  0  0  0  0  0  0  0
    9.7783  -16.6756   27.1590 C   0  0  0  0  0  0  0  0  0  0  0  0
   10.0561  -15.6330   27.7902 O   0  0  0  0  0  0  0  0  0  0  0  0
    9.7114  -17.8520   27.8815 O   0  0  0  0  0  0  0  0  0  0  0  0
  2  1  1  6
  2  3  1  0
  4  5  1  6
  4  2  1  0
  6  4  1  0
  6  7  2  0
  8  6  1  0
  9  8  1  0
  9 12  1  0
  9 10  1  1
 11 10  1  0
 12 14  1  0
 13 12  2  0
 14 15  1  0
 15 21  1  0
 16 17  1  0
 15 16  1  6
 18 17  1  0
 18 19  1  0
 20 19  1  0
 21 22  2  0
 21 23  1  0
M  END
$$$$
