TCK.pdb
     RDKit          3D

 23 22  0  0  1  0  0  0  0  0999 V2000
    6.2096  -14.1650   19.3941 C   0  0  0  0  0  0  0  0  0  0  0  0
    6.8577  -14.3580   20.7297 C   0  0  1  0  0  0  0  0  0  0  0  0
    7.8178  -15.3650   20.6787 O   0  0  0  0  0  0  0  0  0  0  0  0
    7.4418  -13.0682   21.2770 C   0  0  2  0  0  0  0  0  0  0  0  0
    8.5919  -12.7520   20.4381 N   0  0  0  0  0  0  0  0  0  0  0  0
    7.9449  -13.3588   22.6467 C   0  0  0  0  0  0  0  0  0  0  0  0
    9.1336  -13.8242   22.7158 O   0  0  0  0  0  0  0  0  0  0  0  0
    7.1724  -13.1415   23.8209 N   0  0  0  0  0  0  0  0  0  0  0  0
    7.6639  -13.4608   25.1205 C   0  0  1  0  0  0  0  0  0  0  0  0
    6.6757  -13.0460   26.1999 C   0  0  0  0  0  0  0  0  0  0  0  0
    6.4853  -11.2579   26.2806 S   0  0  0  0  0  0  0  0  0  0  0  0
    7.8583  -14.9461   25.2943 C   0  0  0  0  0  0  0  0  0  0  0  0
    7.1047  -15.7825   24.7321 O   0  0  0  0  0  0  0  0  0  0  0  0
    8.9048  -15.4603   26.1036 N   0  0  0  0  0  0  0  0  0  0  0  0
    9.4388  -16.8045   25.9671 C   0  0  1  0  0  0  0  0  0  0  0  0
   10.1330  -17.0445   24.6887 C   0  0  0  0  0  0  0  0  0  0  0  0
   10.7053  -18.3681   24.4028 C   0  0  0  0  0  0  0  0  0  0  0  0
   11.3312  -18.4857   23.0374 C   0  0  0  0  0  0  0  0  0  0  0  0
   11.8354  -19.9087   22.8699 C   0  0  0  0  0  0  0  0  0  0  0  0
   12.2070  -20.0705   21.4749 N   0  0  0  0  0  0  0  0  0  0  0  0
   10.1639  -17.1365   27.2023 C   0  0  0  0  0  0  0  0  0  0  0  0
   10.0444  -18.2579   27.7415 O   0  0  0  0  0  0  0  0  0  0  0  0
   11.0041  -16.2271   27.8165 O   0  0  0  0  0  0  0  0  0  0  0  0
  2  1  1  6
  2  3  1  0
  4  5  1  6
  4  2  1  0
  6  4  1  0
  6  7  2  0
  8  6  1  0
  9  8  1  0
  9 12  1  0
  9 10  1  1
 11 10  1  0
 12 14  1  0
 13 12  2  0
 14 15  1  0
 15 21  1  0
 16 17  1  0
 15 16  1  6
 18 17  1  0
 18 19  1  0
 20 19  1  0
 21 22  2  0
 21 23  1  0
M  END
$$$$
