CLK.pdb
     RDKit          3D

 24 23  0  0  1  0  0  0  0  0999 V2000
   20.9526  -13.9028  -20.0521 N   0  0  0  0  0  0  0  0  0  0  0  0
   21.0210  -12.4581  -20.1182 C   0  0  1  0  0  0  0  0  0  0  0  0
   19.7226  -11.9558  -20.6839 C   0  0  0  0  0  0  0  0  0  0  0  0
   19.7701  -12.1669  -22.4776 S   0  0  0  0  0  0  0  0  0  0  0  0
   21.2362  -11.8757  -18.7499 C   0  0  0  0  0  0  0  0  0  0  0  0
   20.4317  -12.1851  -17.8426 O   0  0  0  0  0  0  0  0  0  0  0  0
   23.7453  -10.7337  -14.4510 C   0  0  0  0  0  0  0  0  0  0  0  0
   24.2715   -9.7665  -15.5124 C   0  0  1  0  0  0  0  0  0  0  0  0
   25.7335   -9.5690  -15.2350 C   0  0  0  0  0  0  0  0  0  0  0  0
   23.9979  -10.3842  -16.8444 C   0  0  0  0  0  0  0  0  0  0  0  0
   22.5404  -10.4796  -17.1818 C   0  0  2  0  0  0  0  0  0  0  0  0
   22.3147  -11.0077  -18.5057 N   0  0  0  0  0  0  0  0  0  0  0  0
   21.9859   -9.0902  -17.1305 C   0  0  0  0  0  0  0  0  0  0  0  0
   22.3112   -8.2321  -17.9902 O   0  0  0  0  0  0  0  0  0  0  0  0
   21.0699   -8.6983  -16.1017 N   0  0  0  0  0  0  0  0  0  0  0  0
   20.4853   -7.3808  -16.1234 C   0  0  1  0  0  0  0  0  0  0  0  0
   18.9619   -7.5284  -15.9786 C   0  0  0  0  0  0  0  0  0  0  0  0
   18.3271   -6.1808  -15.9006 C   0  0  0  0  0  0  0  0  0  0  0  0
   17.7715   -5.6364  -17.1704 C   0  0  0  0  0  0  0  0  0  0  0  0
   17.1650   -4.2678  -17.0783 C   0  0  0  0  0  0  0  0  0  0  0  0
   16.6834   -3.7843  -18.3377 N   0  0  0  0  0  0  0  0  0  0  0  0
   21.0322   -6.5480  -15.0221 C   0  0  0  0  0  0  0  0  0  0  0  0
   21.4225   -5.2385  -15.2700 O   0  0  0  0  0  0  0  0  0  0  0  0
   21.1582   -6.9826  -13.8628 O   0  0  0  0  0  0  0  0  0  0  0  0
  2  3  1  0
  2  1  1  1
  4  3  1  0
  5  6  2  0
  5  2  1  0
  8  7  1  1
  8  9  1  0
  8 10  1  0
 11 10  1  6
 11 12  1  0
 12  5  1  0
 13 14  2  0
 13 11  1  0
 15 13  1  0
 16 15  1  0
 16 17  1  1
 18 17  1  0
 19 18  1  0
 20 21  1  0
 20 19  1  0
 22 16  1  0
 23 22  1  0
 24 22  2  0
M  END
$$$$
