CLK.pdb
     RDKit          3D

 24 23  0  0  1  0  0  0  0  0999 V2000
   32.4394  -35.7892   -6.1404 N   0  0  0  0  0  0  0  0  0  0  0  0
   31.9950  -34.9397   -5.0555 C   0  0  1  0  0  0  0  0  0  0  0  0
   30.5270  -35.1823   -4.8454 C   0  0  0  0  0  0  0  0  0  0  0  0
   29.6202  -34.3081   -6.1406 S   0  0  0  0  0  0  0  0  0  0  0  0
   32.7464  -35.2569   -3.7935 C   0  0  0  0  0  0  0  0  0  0  0  0
   33.2229  -36.4066   -3.6625 O   0  0  0  0  0  0  0  0  0  0  0  0
   35.8852  -31.6580   -0.7494 C   0  0  0  0  0  0  0  0  0  0  0  0
   35.4782  -32.9337   -1.4884 C   0  0  1  0  0  0  0  0  0  0  0  0
   36.5903  -33.9231   -1.2938 C   0  0  0  0  0  0  0  0  0  0  0  0
   34.1767  -33.3814   -0.9086 C   0  0  0  0  0  0  0  0  0  0  0  0
   33.6031  -34.5979   -1.5708 C   0  0  2  0  0  0  0  0  0  0  0  0
   32.9043  -34.2819   -2.7932 N   0  0  0  0  0  0  0  0  0  0  0  0
   32.6230  -35.1987   -0.6122 C   0  0  0  0  0  0  0  0  0  0  0  0
   31.4602  -34.7333   -0.4999 O   0  0  0  0  0  0  0  0  0  0  0  0
   32.9807  -36.3198    0.2039 N   0  0  0  0  0  0  0  0  0  0  0  0
   32.0403  -36.8382    1.1656 C   0  0  1  0  0  0  0  0  0  0  0  0
   32.6114  -38.1447    1.7404 C   0  0  0  0  0  0  0  0  0  0  0  0
   31.6285  -38.7572    2.6806 C   0  0  0  0  0  0  0  0  0  0  0  0
   32.0393  -40.0333    3.3287 C   0  0  0  0  0  0  0  0  0  0  0  0
   31.0217  -40.6551    4.2384 C   0  0  0  0  0  0  0  0  0  0  0  0
   31.5120  -41.8208    4.9111 N   0  0  0  0  0  0  0  0  0  0  0  0
   31.8066  -35.8528    2.2518 C   0  0  0  0  0  0  0  0  0  0  0  0
   32.7103  -34.8185    2.4572 O   0  0  0  0  0  0  0  0  0  0  0  0
   30.8150  -35.9158    3.0011 O   0  0  0  0  0  0  0  0  0  0  0  0
  2  3  1  0
  2  1  1  6
  4  3  1  0
  5  6  2  0
  5  2  1  0
  8  7  1  1
  8  9  1  0
  8 10  1  0
 11 10  1  1
 11 12  1  0
 12  5  1  0
 13 14  2  0
 13 11  1  0
 15 13  1  0
 16 15  1  0
 16 17  1  1
 18 17  1  0
 19 18  1  0
 20 21  1  0
 20 19  1  0
 22 16  1  0
 23 22  1  0
 24 22  2  0
M  END
$$$$
