CLK.pdb
     RDKit          3D

 24 23  0  0  1  0  0  0  0  0999 V2000
   21.9641  -14.0798  -18.6818 N   0  0  0  0  0  0  0  0  0  0  0  0
   22.2445  -12.7059  -19.0422 C   0  0  1  0  0  0  0  0  0  0  0  0
   21.1907  -12.2549  -20.0140 C   0  0  0  0  0  0  0  0  0  0  0  0
   21.5644  -12.9786  -21.6266 S   0  0  0  0  0  0  0  0  0  0  0  0
   22.2215  -11.8247  -17.8254 C   0  0  0  0  0  0  0  0  0  0  0  0
   21.4853  -12.1562  -16.8693 O   0  0  0  0  0  0  0  0  0  0  0  0
   26.6224   -9.6759  -15.4928 C   0  0  0  0  0  0  0  0  0  0  0  0
   25.2690  -10.3484  -15.7284 C   0  0  1  0  0  0  0  0  0  0  0  0
   24.8415  -10.9381  -14.4159 C   0  0  0  0  0  0  0  0  0  0  0  0
   24.3387   -9.2971  -16.2383 C   0  0  0  0  0  0  0  0  0  0  0  0
   22.9800   -9.8140  -16.6044 C   0  0  2  0  0  0  0  0  0  0  0  0
   23.0092  -10.6616  -17.7721 N   0  0  0  0  0  0  0  0  0  0  0  0
   22.1252   -8.6239  -16.9101 C   0  0  0  0  0  0  0  0  0  0  0  0
   22.3458   -7.9124  -17.9231 O   0  0  0  0  0  0  0  0  0  0  0  0
   21.0323   -8.2616  -16.0585 N   0  0  0  0  0  0  0  0  0  0  0  0
   20.1864   -7.1482  -16.4088 C   0  0  1  0  0  0  0  0  0  0  0  0
   18.7746   -7.4283  -15.8684 C   0  0  0  0  0  0  0  0  0  0  0  0
   17.8676   -6.2937  -16.2077 C   0  0  0  0  0  0  0  0  0  0  0  0
   16.4421   -6.4423  -15.8037 C   0  0  0  0  0  0  0  0  0  0  0  0
   15.5223   -5.3481  -16.2577 C   0  0  0  0  0  0  0  0  0  0  0  0
   14.1567   -5.5788  -15.8925 N   0  0  0  0  0  0  0  0  0  0  0  0
   20.7195   -5.8860  -15.8360 C   0  0  0  0  0  0  0  0  0  0  0  0
   21.6430   -5.9295  -14.7996 O   0  0  0  0  0  0  0  0  0  0  0  0
   20.3668   -4.7681  -16.2537 O   0  0  0  0  0  0  0  0  0  0  0  0
  2  3  1  0
  2  1  1  1
  4  3  1  0
  5  6  2  0
  5  2  1  0
  8  7  1  1
  8  9  1  0
  8 10  1  0
 11 10  1  6
 11 12  1  0
 12  5  1  0
 13 14  2  0
 13 11  1  0
 15 13  1  0
 16 15  1  0
 16 17  1  1
 18 17  1  0
 19 18  1  0
 20 21  1  0
 20 19  1  0
 22 16  1  0
 23 22  1  0
 24 22  2  0
M  END
$$$$
