CLK.pdb
     RDKit          3D

 24 23  0  0  1  0  0  0  0  0999 V2000
   19.1721  -27.4142  -11.9548 N   0  0  0  0  0  0  0  0  0  0  0  0
   18.5505  -26.1353  -11.6821 C   0  0  1  0  0  0  0  0  0  0  0  0
   17.0623  -26.3059  -11.8017 C   0  0  0  0  0  0  0  0  0  0  0  0
   16.7089  -27.0656  -13.4024 S   0  0  0  0  0  0  0  0  0  0  0  0
   18.8965  -25.6635  -10.2981 C   0  0  0  0  0  0  0  0  0  0  0  0
   19.4520  -26.4710   -9.5200 O   0  0  0  0  0  0  0  0  0  0  0  0
   19.8316  -20.2194   -8.9412 C   0  0  0  0  0  0  0  0  0  0  0  0
   20.0734  -21.7252   -9.0565 C   0  0  1  0  0  0  0  0  0  0  0  0
   21.3675  -22.0134   -8.3524 C   0  0  0  0  0  0  0  0  0  0  0  0
   18.8969  -22.4078   -8.4398 C   0  0  0  0  0  0  0  0  0  0  0  0
   18.9266  -23.9014   -8.5652 C   0  0  2  0  0  0  0  0  0  0  0  0
   18.6000  -24.3490   -9.8977 N   0  0  0  0  0  0  0  0  0  0  0  0
   17.8964  -24.4417   -7.6233 C   0  0  0  0  0  0  0  0  0  0  0  0
   16.6917  -24.5404   -7.9701 O   0  0  0  0  0  0  0  0  0  0  0  0
   18.2525  -24.8616   -6.3013 N   0  0  0  0  0  0  0  0  0  0  0  0
   17.2292  -25.3031   -5.3871 C   0  0  1  0  0  0  0  0  0  0  0  0
   17.9146  -25.9773   -4.1874 C   0  0  0  0  0  0  0  0  0  0  0  0
   17.1465  -27.1895   -3.7801 C   0  0  0  0  0  0  0  0  0  0  0  0
   17.7253  -27.9983   -2.6719 C   0  0  0  0  0  0  0  0  0  0  0  0
   16.9466  -29.2209   -2.2867 C   0  0  0  0  0  0  0  0  0  0  0  0
   17.6197  -30.0282   -1.3136 N   0  0  0  0  0  0  0  0  0  0  0  0
   16.4024  -24.1558   -4.9340 C   0  0  0  0  0  0  0  0  0  0  0  0
   15.1044  -24.3685   -4.4882 O   0  0  0  0  0  0  0  0  0  0  0  0
   16.8320  -22.9878   -4.9368 O   0  0  0  0  0  0  0  0  0  0  0  0
  2  3  1  0
  2  1  1  1
  4  3  1  0
  5  6  2  0
  5  2  1  0
  8  7  1  1
  8  9  1  0
  8 10  1  0
 11 10  1  6
 11 12  1  0
 12  5  1  0
 13 14  2  0
 13 11  1  0
 15 13  1  0
 16 15  1  0
 16 17  1  1
 18 17  1  0
 19 18  1  0
 20 21  1  0
 20 19  1  0
 22 16  1  0
 23 22  1  0
 24 22  2  0
M  END
$$$$
