CLK.pdb
     RDKit          3D

 24 23  0  0  1  0  0  0  0  0999 V2000
   20.7610  -20.2487   -9.1737 N   0  0  0  0  0  0  0  0  0  0  0  0
   21.9530  -20.6772   -8.4726 C   0  0  1  0  0  0  0  0  0  0  0  0
   21.8414  -22.1550   -8.2242 C   0  0  0  0  0  0  0  0  0  0  0  0
   20.5779  -22.4202   -6.9603 S   0  0  0  0  0  0  0  0  0  0  0  0
   23.1798  -20.3928   -9.2923 C   0  0  0  0  0  0  0  0  0  0  0  0
   23.0596  -19.6648  -10.3031 O   0  0  0  0  0  0  0  0  0  0  0  0
   27.0251  -19.0355   -7.5719 C   0  0  0  0  0  0  0  0  0  0  0  0
   27.7728  -19.8947   -8.5926 C   0  0  1  0  0  0  0  0  0  0  0  0
   29.0463  -20.3419   -7.9357 C   0  0  0  0  0  0  0  0  0  0  0  0
   26.8679  -21.0233   -8.9640 C   0  0  0  0  0  0  0  0  0  0  0  0
   25.6150  -20.5920   -9.6650 C   0  0  2  0  0  0  0  0  0  0  0  0
   24.4240  -20.9345   -8.9255 N   0  0  0  0  0  0  0  0  0  0  0  0
   25.5757  -21.3118  -10.9768 C   0  0  0  0  0  0  0  0  0  0  0  0
   25.3166  -22.5411  -11.0322 O   0  0  0  0  0  0  0  0  0  0  0  0
   25.8318  -20.6222  -12.2055 N   0  0  0  0  0  0  0  0  0  0  0  0
   25.7296  -21.3256  -13.4596 C   0  0  1  0  0  0  0  0  0  0  0  0
   24.7672  -20.5465  -14.3708 C   0  0  0  0  0  0  0  0  0  0  0  0
   24.5490  -21.2998  -15.6397 C   0  0  0  0  0  0  0  0  0  0  0  0
   23.7478  -20.6109  -16.6889 C   0  0  0  0  0  0  0  0  0  0  0  0
   23.5506  -21.3786  -17.9622 C   0  0  0  0  0  0  0  0  0  0  0  0
   24.7188  -22.1033  -18.3642 N   0  0  0  0  0  0  0  0  0  0  0  0
   27.0638  -21.4490  -14.1000 C   0  0  0  0  0  0  0  0  0  0  0  0
   27.3357  -22.5238  -14.9363 O   0  0  0  0  0  0  0  0  0  0  0  0
   27.9670  -20.6131  -13.9153 O   0  0  0  0  0  0  0  0  0  0  0  0
  2  3  1  0
  2  1  1  6
  4  3  1  0
  5  6  2  0
  5  2  1  0
  8  7  1  1
  8  9  1  0
  8 10  1  0
 11 10  1  1
 11 12  1  0
 12  5  1  0
 13 14  2  0
 13 11  1  0
 15 13  1  0
 16 15  1  0
 16 17  1  6
 18 17  1  0
 19 18  1  0
 20 21  1  0
 20 19  1  0
 22 16  1  0
 23 22  1  0
 24 22  2  0
M  END
$$$$
