CLK.pdb
     RDKit          3D

 24 23  0  0  1  0  0  0  0  0999 V2000
   19.8777  -14.0054  -17.8579 N   0  0  0  0  0  0  0  0  0  0  0  0
   20.6046  -12.8904  -18.4276 C   0  0  1  0  0  0  0  0  0  0  0  0
   19.6180  -12.0024  -19.1320 C   0  0  0  0  0  0  0  0  0  0  0  0
   18.9699  -12.9007  -20.5592 S   0  0  0  0  0  0  0  0  0  0  0  0
   21.3078  -12.1123  -17.3516 C   0  0  0  0  0  0  0  0  0  0  0  0
   20.6496  -11.7693  -16.3440 O   0  0  0  0  0  0  0  0  0  0  0  0
   26.9644  -10.8752  -15.3763 C   0  0  0  0  0  0  0  0  0  0  0  0
   25.5173  -10.3820  -15.4197 C   0  0  1  0  0  0  0  0  0  0  0  0
   25.5663   -8.9168  -15.7424 C   0  0  0  0  0  0  0  0  0  0  0  0
   24.8068  -11.1942  -16.4522 C   0  0  0  0  0  0  0  0  0  0  0  0
   23.3236  -10.9783  -16.4801 C   0  0  2  0  0  0  0  0  0  0  0  0
   22.6683  -11.7836  -17.4824 N   0  0  0  0  0  0  0  0  0  0  0  0
   23.0959   -9.5370  -16.8139 C   0  0  0  0  0  0  0  0  0  0  0  0
   23.5043   -9.0526  -17.9001 O   0  0  0  0  0  0  0  0  0  0  0  0
   22.4069   -8.6690  -15.9069 N   0  0  0  0  0  0  0  0  0  0  0  0
   22.1139   -7.3115  -16.2935 C   0  0  1  0  0  0  0  0  0  0  0  0
   20.6037   -7.2029  -16.5602 C   0  0  0  0  0  0  0  0  0  0  0  0
   20.2565   -5.8046  -16.9467 C   0  0  0  0  0  0  0  0  0  0  0  0
   18.8095   -5.5116  -17.1411 C   0  0  0  0  0  0  0  0  0  0  0  0
   18.4816   -4.1045  -17.5438 C   0  0  0  0  0  0  0  0  0  0  0  0
   17.0756   -3.8825  -17.7033 N   0  0  0  0  0  0  0  0  0  0  0  0
   22.5209   -6.3641  -15.2248 C   0  0  0  0  0  0  0  0  0  0  0  0
   22.9087   -5.0717  -15.5534 O   0  0  0  0  0  0  0  0  0  0  0  0
   22.5294   -6.6856  -14.0226 O   0  0  0  0  0  0  0  0  0  0  0  0
  2  3  1  0
  2  1  1  1
  4  3  1  0
  5  6  2  0
  5  2  1  0
  8  7  1  6
  8  9  1  0
  8 10  1  0
 11 10  1  6
 11 12  1  0
 12  5  1  0
 13 14  2  0
 13 11  1  0
 15 13  1  0
 16 15  1  0
 16 17  1  1
 18 17  1  0
 19 18  1  0
 20 21  1  0
 20 19  1  0
 22 16  1  0
 23 22  1  0
 24 22  2  0
M  END
$$$$
