CLK.pdb
     RDKit          3D

 24 23  0  0  1  0  0  0  0  0999 V2000
   20.2067  -14.0170  -16.8936 N   0  0  0  0  0  0  0  0  0  0  0  0
   20.6611  -12.8587  -17.6338 C   0  0  1  0  0  0  0  0  0  0  0  0
   19.6060  -12.5089  -18.6451 C   0  0  0  0  0  0  0  0  0  0  0  0
   20.0002  -13.3613  -20.1885 S   0  0  0  0  0  0  0  0  0  0  0  0
   20.8828  -11.6944  -16.7101 C   0  0  0  0  0  0  0  0  0  0  0  0
   20.1452  -11.5886  -15.7047 O   0  0  0  0  0  0  0  0  0  0  0  0
   25.7215   -9.6700  -14.9952 C   0  0  0  0  0  0  0  0  0  0  0  0
   24.2988  -10.2188  -15.1137 C   0  0  1  0  0  0  0  0  0  0  0  0
   23.7710  -10.3655  -13.7161 C   0  0  0  0  0  0  0  0  0  0  0  0
   23.5217   -9.2501  -15.9434 C   0  0  0  0  0  0  0  0  0  0  0  0
   22.0774   -9.6154  -16.1105 C   0  0  2  0  0  0  0  0  0  0  0  0
   21.8939  -10.7549  -16.9768 N   0  0  0  0  0  0  0  0  0  0  0  0
   21.3960   -8.4376  -16.7342 C   0  0  0  0  0  0  0  0  0  0  0  0
   21.6852   -8.0661  -17.9003 O   0  0  0  0  0  0  0  0  0  0  0  0
   20.3960   -7.7005  -16.0218 N   0  0  0  0  0  0  0  0  0  0  0  0
   19.7869   -6.5435  -16.6287 C   0  0  1  0  0  0  0  0  0  0  0  0
   18.2875   -6.5559  -16.2895 C   0  0  0  0  0  0  0  0  0  0  0  0
   17.6179   -5.3756  -16.9089 C   0  0  0  0  0  0  0  0  0  0  0  0
   16.1495   -5.2582  -16.6917 C   0  0  0  0  0  0  0  0  0  0  0  0
   15.4762   -4.1272  -17.4109 C   0  0  0  0  0  0  0  0  0  0  0  0
   14.0525   -4.1345  -17.2544 N   0  0  0  0  0  0  0  0  0  0  0  0
   20.4209   -5.2967  -16.1295 C   0  0  0  0  0  0  0  0  0  0  0  0
   20.5343   -4.1930  -16.9647 O   0  0  0  0  0  0  0  0  0  0  0  0
   20.8638   -5.1968  -14.9708 O   0  0  0  0  0  0  0  0  0  0  0  0
  2  3  1  0
  2  1  1  1
  4  3  1  0
  5  6  2  0
  5  2  1  0
  8  7  1  1
  8  9  1  0
  8 10  1  0
 11 10  1  6
 11 12  1  0
 12  5  1  0
 13 14  2  0
 13 11  1  0
 15 13  1  0
 16 15  1  0
 16 17  1  1
 18 17  1  0
 19 18  1  0
 20 21  1  0
 20 19  1  0
 22 16  1  0
 23 22  1  0
 24 22  2  0
M  END
$$$$
