CLK.pdb
     RDKit          3D

 24 23  0  0  1  0  0  0  0  0999 V2000
   28.3900  -21.5992  -16.0888 N   0  0  0  0  0  0  0  0  0  0  0  0
   28.1024  -20.5419  -15.1424 C   0  0  1  0  0  0  0  0  0  0  0  0
   27.5385  -19.3757  -15.9041 C   0  0  0  0  0  0  0  0  0  0  0  0
   28.8869  -18.5944  -16.8181 S   0  0  0  0  0  0  0  0  0  0  0  0
   27.1068  -21.0062  -14.1173 C   0  0  0  0  0  0  0  0  0  0  0  0
   26.2230  -21.8162  -14.4761 O   0  0  0  0  0  0  0  0  0  0  0  0
   25.2096  -22.0510   -9.1942 C   0  0  0  0  0  0  0  0  0  0  0  0
   25.3290  -20.5564   -9.4964 C   0  0  1  0  0  0  0  0  0  0  0  0
   25.5576  -19.8639   -8.1843 C   0  0  0  0  0  0  0  0  0  0  0  0
   26.4583  -20.3916  -10.4597 C   0  0  0  0  0  0  0  0  0  0  0  0
   26.1668  -20.9171  -11.8331 C   0  0  2  0  0  0  0  0  0  0  0  0
   27.1748  -20.5376  -12.7937 N   0  0  0  0  0  0  0  0  0  0  0  0
   24.8620  -20.3227  -12.2629 C   0  0  0  0  0  0  0  0  0  0  0  0
   24.7575  -19.0910  -12.4939 O   0  0  0  0  0  0  0  0  0  0  0  0
   23.6961  -21.1386  -12.4233 N   0  0  0  0  0  0  0  0  0  0  0  0
   22.4867  -20.5667  -12.9601 C   0  0  1  0  0  0  0  0  0  0  0  0
   22.2806  -21.1223  -14.3787 C   0  0  0  0  0  0  0  0  0  0  0  0
   21.0166  -20.5805  -14.9566 C   0  0  0  0  0  0  0  0  0  0  0  0
   20.6439  -21.0731  -16.3115 C   0  0  0  0  0  0  0  0  0  0  0  0
   19.4249  -20.4434  -16.9174 C   0  0  0  0  0  0  0  0  0  0  0  0
   19.0542  -21.0344  -18.1684 N   0  0  0  0  0  0  0  0  0  0  0  0
   21.3237  -20.9002  -12.0989 C   0  0  0  0  0  0  0  0  0  0  0  0
   21.4724  -21.7947  -11.0471 O   0  0  0  0  0  0  0  0  0  0  0  0
   20.1984  -20.4018  -12.2835 O   0  0  0  0  0  0  0  0  0  0  0  0
  2  3  1  0
  2  1  1  6
  4  3  1  0
  5  6  2  0
  5  2  1  0
  8  7  1  1
  8  9  1  0
  8 10  1  0
 11 10  1  1
 11 12  1  0
 12  5  1  0
 13 14  2  0
 13 11  1  0
 15 13  1  0
 16 15  1  0
 16 17  1  6
 18 17  1  0
 19 18  1  0
 20 21  1  0
 20 19  1  0
 22 16  1  0
 23 22  1  0
 24 22  2  0
M  END
$$$$
