CLK.pdb
     RDKit          3D

 24 23  0  0  1  0  0  0  0  0999 V2000
   20.9288  -13.3981  -19.2801 N   0  0  0  0  0  0  0  0  0  0  0  0
   20.2726  -13.3931  -17.9896 C   0  0  1  0  0  0  0  0  0  0  0  0
   20.1646  -14.8154  -17.5165 C   0  0  0  0  0  0  0  0  0  0  0  0
   19.2052  -15.7430  -18.7344 S   0  0  0  0  0  0  0  0  0  0  0  0
   21.0634  -12.5883  -16.9973 C   0  0  0  0  0  0  0  0  0  0  0  0
   20.6032  -12.4583  -15.8408 O   0  0  0  0  0  0  0  0  0  0  0  0
   25.0675  -10.5530  -14.3935 C   0  0  0  0  0  0  0  0  0  0  0  0
   25.1775  -10.0909  -15.8473 C   0  0  1  0  0  0  0  0  0  0  0  0
   26.6417   -9.9974  -16.1648 C   0  0  0  0  0  0  0  0  0  0  0  0
   24.4512  -11.0930  -16.6833 C   0  0  0  0  0  0  0  0  0  0  0  0
   22.9683  -11.1062  -16.4643 C   0  0  2  0  0  0  0  0  0  0  0  0
   22.2858  -12.0012  -17.3676 N   0  0  0  0  0  0  0  0  0  0  0  0
   22.4744   -9.7164  -16.7189 C   0  0  0  0  0  0  0  0  0  0  0  0
   22.6781   -9.1500  -17.8230 O   0  0  0  0  0  0  0  0  0  0  0  0
   21.7562   -8.9921  -15.7136 N   0  0  0  0  0  0  0  0  0  0  0  0
   21.3056   -7.6489  -15.9791 C   0  0  1  0  0  0  0  0  0  0  0  0
   19.8068   -7.7027  -16.3174 C   0  0  0  0  0  0  0  0  0  0  0  0
   19.3003   -6.3275  -16.5958 C   0  0  0  0  0  0  0  0  0  0  0  0
   17.8735   -6.2185  -17.0075 C   0  0  0  0  0  0  0  0  0  0  0  0
   17.3848   -4.8289  -17.2901 C   0  0  0  0  0  0  0  0  0  0  0  0
   16.0187   -4.7937  -17.7192 N   0  0  0  0  0  0  0  0  0  0  0  0
   21.5398   -6.7763  -14.8005 C   0  0  0  0  0  0  0  0  0  0  0  0
   21.7382   -5.4129  -14.9746 O   0  0  0  0  0  0  0  0  0  0  0  0
   21.5664   -7.2241  -13.6397 O   0  0  0  0  0  0  0  0  0  0  0  0
  2  3  1  0
  2  1  1  6
  4  3  1  0
  5  6  2  0
  5  2  1  0
  8  7  1  1
  8  9  1  0
  8 10  1  0
 11 10  1  6
 11 12  1  0
 12  5  1  0
 13 14  2  0
 13 11  1  0
 15 13  1  0
 16 15  1  0
 16 17  1  1
 18 17  1  0
 19 18  1  0
 20 21  1  0
 20 19  1  0
 22 16  1  0
 23 22  1  0
 24 22  2  0
M  END
$$$$
