KFL.pdb
     RDKit          3D

 29 29  0  0  1  0  0  0  0  0999 V2000
   17.5580  -13.5603  -19.1089 N   0  0  0  0  0  0  0  0  0  0  0  0
   17.1175  -12.5260  -18.1984 C   0  0  1  0  0  0  0  0  0  0  0  0
   17.0029  -13.0878  -16.8258 C   0  0  0  0  0  0  0  0  0  0  0  0
   15.8358  -14.0253  -16.7389 C   0  0  0  0  0  0  0  0  0  0  0  0
   16.1699  -15.3634  -16.1162 C   0  0  0  0  0  0  0  0  0  0  0  0
   15.0754  -15.7956  -15.1481 C   0  0  0  0  0  0  0  0  0  0  0  0
   15.2426  -15.2237  -13.8385 N   0  0  0  0  0  0  0  0  0  0  0  0
   17.9947  -11.3278  -18.2574 C   0  0  0  0  0  0  0  0  0  0  0  0
   19.2120  -11.4740  -18.5609 O   0  0  0  0  0  0  0  0  0  0  0  0
   17.5717   -9.9994  -17.9960 N   0  0  0  0  0  0  0  0  0  0  0  0
   18.4531   -8.8564  -18.1242 C   0  0  1  0  0  0  0  0  0  0  0  0
   17.7099   -7.6233  -18.5918 C   0  0  0  0  0  0  0  0  0  0  0  0
   18.6245   -6.4839  -18.7718 C   0  0  0  0  0  0  0  0  0  0  0  0
   19.4196   -6.4016  -19.8996 C   0  0  0  0  0  0  0  0  0  0  0  0
   20.2719   -5.3251  -20.0517 C   0  0  0  0  0  0  0  0  0  0  0  0
   20.3692   -4.3113  -19.1161 C   0  0  0  0  0  0  0  0  0  0  0  0
   19.5677   -4.4114  -17.9973 C   0  0  0  0  0  0  0  0  0  0  0  0
   18.7043   -5.4871  -17.8275 C   0  0  0  0  0  0  0  0  0  0  0  0
   19.0225   -8.5535  -16.8015 C   0  0  0  0  0  0  0  0  0  0  0  0
   18.2964   -8.5513  -15.7902 O   0  0  0  0  0  0  0  0  0  0  0  0
   23.5728  -10.6766  -14.2524 C   0  0  0  0  0  0  0  0  0  0  0  0
   22.3850   -9.7237  -14.0545 C   0  0  2  0  0  0  0  0  0  0  0  0
   21.1919  -10.5250  -13.6423 C   0  0  0  0  0  0  0  0  0  0  0  0
   22.2070   -9.0064  -15.3479 C   0  0  0  0  0  0  0  0  0  0  0  0
   21.0331   -8.0591  -15.3896 C   0  0  2  0  0  0  0  0  0  0  0  0
   20.3962   -8.2641  -16.6759 N   0  0  0  0  0  0  0  0  0  0  0  0
   21.3928   -6.6434  -15.2632 C   0  0  0  0  0  0  0  0  0  0  0  0
   22.0586   -6.0228  -16.3079 O   0  0  0  0  0  0  0  0  0  0  0  0
   21.1213   -5.9609  -14.2391 O   0  0  0  0  0  0  0  0  0  0  0  0
  2  3  1  0
  2  1  1  6
  4  3  1  0
  4  5  1  0
  6  5  1  0
  6  7  1  0
  8  2  1  0
  9  8  2  0
 10  8  1  0
 11 10  1  0
 11 12  1  1
 12 13  1  0
 13 14  2  0
 14 15  1  0
 16 15  2  0
 17 16  1  0
 18 13  1  0
 18 17  2  0
 19 11  1  0
 19 20  2  0
 22 21  1  6
 22 24  1  0
 23 22  1  0
 25 24  1  6
 25 26  1  0
 26 19  1  0
 27 25  1  0
 28 27  1  0
 29 27  2  0
M  END
$$$$
