KFL.pdb
     RDKit          3D

 29 29  0  0  1  0  0  0  0  0999 V2000
   30.2379  -22.1225  -11.7674 N   0  0  0  0  0  0  0  0  0  0  0  0
   29.3568  -20.9762  -11.8183 C   0  0  1  0  0  0  0  0  0  0  0  0
   28.8457  -20.8031  -13.2044 C   0  0  0  0  0  0  0  0  0  0  0  0
   29.9685  -20.4619  -14.1382 C   0  0  0  0  0  0  0  0  0  0  0  0
   30.5103  -21.6491  -14.9043 C   0  0  0  0  0  0  0  0  0  0  0  0
   29.7056  -21.8819  -16.1772 C   0  0  0  0  0  0  0  0  0  0  0  0
   30.2009  -22.9932  -16.9450 N   0  0  0  0  0  0  0  0  0  0  0  0
   28.2673  -21.0717  -10.8120 C   0  0  0  0  0  0  0  0  0  0  0  0
   27.6130  -22.1480  -10.7177 O   0  0  0  0  0  0  0  0  0  0  0  0
   27.8892  -20.0316   -9.9248 N   0  0  0  0  0  0  0  0  0  0  0  0
   26.6915  -20.0918   -9.1114 C   0  0  1  0  0  0  0  0  0  0  0  0
   26.7102  -19.0575   -8.0062 C   0  0  0  0  0  0  0  0  0  0  0  0
   27.4541  -19.5429   -6.8322 C   0  0  0  0  0  0  0  0  0  0  0  0
   27.2989  -18.9241   -5.6058 C   0  0  0  0  0  0  0  0  0  0  0  0
   28.0050  -19.3932   -4.5151 C   0  0  0  0  0  0  0  0  0  0  0  0
   28.8722  -20.4678   -4.5925 C   0  0  0  0  0  0  0  0  0  0  0  0
   29.0135  -21.0721   -5.8250 C   0  0  0  0  0  0  0  0  0  0  0  0
   28.3112  -20.6137   -6.9332 C   0  0  0  0  0  0  0  0  0  0  0  0
   25.5295  -19.8026   -9.9668 C   0  0  0  0  0  0  0  0  0  0  0  0
   25.6405  -19.0319  -10.9383 O   0  0  0  0  0  0  0  0  0  0  0  0
   22.9907  -20.6529  -13.6509 C   0  0  0  0  0  0  0  0  0  0  0  0
   24.2455  -21.2043  -12.9583 C   0  0  2  0  0  0  0  0  0  0  0  0
   24.8318  -22.2799  -13.8155 C   0  0  0  0  0  0  0  0  0  0  0  0
   23.8054  -21.6803  -11.6172 C   0  0  0  0  0  0  0  0  0  0  0  0
   23.2723  -20.6016  -10.7065 C   0  0  2  0  0  0  0  0  0  0  0  0
   24.2836  -20.3994   -9.6874 N   0  0  0  0  0  0  0  0  0  0  0  0
   22.0040  -20.9349  -10.0509 C   0  0  0  0  0  0  0  0  0  0  0  0
   20.8206  -20.4650  -10.5973 O   0  0  0  0  0  0  0  0  0  0  0  0
   21.9419  -21.6349   -9.0048 O   0  0  0  0  0  0  0  0  0  0  0  0
  2  3  1  0
  2  1  1  6
  4  3  1  0
  4  5  1  0
  6  5  1  0
  6  7  1  0
  8  2  1  0
  9  8  2  0
 10  8  1  0
 11 10  1  0
 11 12  1  1
 12 13  1  0
 13 14  2  0
 14 15  1  0
 16 15  2  0
 17 16  1  0
 18 13  1  0
 18 17  2  0
 19 11  1  0
 19 20  2  0
 22 21  1  6
 22 24  1  0
 23 22  1  0
 25 24  1  6
 25 26  1  0
 26 19  1  0
 27 25  1  0
 28 27  1  0
 29 27  2  0
M  END
$$$$
