KFL.pdb
     RDKit          3D

 29 29  0  0  1  0  0  0  0  0999 V2000
   28.0775  -22.2895  -17.5976 N   0  0  0  0  0  0  0  0  0  0  0  0
   26.6430  -22.4573  -17.6817 C   0  0  1  0  0  0  0  0  0  0  0  0
   26.3311  -23.6921  -18.4501 C   0  0  0  0  0  0  0  0  0  0  0  0
   26.5367  -23.4622  -19.9177 C   0  0  0  0  0  0  0  0  0  0  0  0
   26.2599  -24.6794  -20.7731 C   0  0  0  0  0  0  0  0  0  0  0  0
   26.5077  -24.3715  -22.2447 C   0  0  0  0  0  0  0  0  0  0  0  0
   27.9062  -24.3900  -22.5821 N   0  0  0  0  0  0  0  0  0  0  0  0
   26.0051  -22.4392  -16.3395 C   0  0  0  0  0  0  0  0  0  0  0  0
   25.2328  -23.3847  -16.0154 O   0  0  0  0  0  0  0  0  0  0  0  0
   26.1939  -21.4256  -15.3654 N   0  0  0  0  0  0  0  0  0  0  0  0
   25.5643  -21.4651  -14.0609 C   0  0  1  0  0  0  0  0  0  0  0  0
   26.2640  -20.5577  -13.0715 C   0  0  0  0  0  0  0  0  0  0  0  0
   25.5843  -20.5653  -11.7657 C   0  0  0  0  0  0  0  0  0  0  0  0
   24.4593  -19.7883  -11.5626 C   0  0  0  0  0  0  0  0  0  0  0  0
   23.8345  -19.8080  -10.3307 C   0  0  0  0  0  0  0  0  0  0  0  0
   24.2873  -20.5792   -9.2757 C   0  0  0  0  0  0  0  0  0  0  0  0
   25.4115  -21.3479   -9.4980 C   0  0  0  0  0  0  0  0  0  0  0  0
   26.0531  -21.3405  -10.7309 C   0  0  0  0  0  0  0  0  0  0  0  0
   24.1790  -20.9870  -14.1949 C   0  0  0  0  0  0  0  0  0  0  0  0
   23.9416  -19.8929  -14.7394 O   0  0  0  0  0  0  0  0  0  0  0  0
   19.1189  -23.5864  -15.5659 C   0  0  0  0  0  0  0  0  0  0  0  0
   19.6086  -22.2989  -14.8870 C   0  0  2  0  0  0  0  0  0  0  0  0
   19.2695  -21.1365  -15.7640 C   0  0  0  0  0  0  0  0  0  0  0  0
   21.0710  -22.4756  -14.6656 C   0  0  0  0  0  0  0  0  0  0  0  0
   21.7262  -21.3791  -13.8621 C   0  0  2  0  0  0  0  0  0  0  0  0
   23.1138  -21.7694  -13.7053 N   0  0  0  0  0  0  0  0  0  0  0  0
   21.1431  -21.1713  -12.5331 C   0  0  0  0  0  0  0  0  0  0  0  0
   21.3926  -22.1008  -11.5363 O   0  0  0  0  0  0  0  0  0  0  0  0
   20.4195  -20.1775  -12.2551 O   0  0  0  0  0  0  0  0  0  0  0  0
  2  3  1  0
  2  1  1  1
  4  3  1  0
  4  5  1  0
  6  5  1  0
  6  7  1  0
  8  2  1  0
  9  8  2  0
 10  8  1  0
 11 10  1  0
 11 12  1  1
 12 13  1  0
 13 14  2  0
 14 15  1  0
 16 15  2  0
 17 16  1  0
 18 13  1  0
 18 17  2  0
 19 11  1  0
 19 20  2  0
 22 21  1  6
 22 24  1  0
 23 22  1  0
 25 24  1  1
 25 26  1  0
 26 19  1  0
 27 25  1  0
 28 27  1  0
 29 27  2  0
M  END
$$$$
