KFL.pdb
     RDKit          3D

 29 29  0  0  1  0  0  0  0  0999 V2000
   25.8939  -20.8100  -13.2247 N   0  0  0  0  0  0  0  0  0  0  0  0
   24.8751  -20.9130  -12.2027 C   0  0  1  0  0  0  0  0  0  0  0  0
   23.9298  -22.0072  -12.5516 C   0  0  0  0  0  0  0  0  0  0  0  0
   22.9836  -21.5598  -13.6255 C   0  0  0  0  0  0  0  0  0  0  0  0
   23.5765  -20.5480  -14.5818 C   0  0  0  0  0  0  0  0  0  0  0  0
   22.5607  -20.1533  -15.6468 C   0  0  0  0  0  0  0  0  0  0  0  0
   23.0776  -19.1710  -16.5622 N   0  0  0  0  0  0  0  0  0  0  0  0
   25.4656  -21.0737  -10.8484 C   0  0  0  0  0  0  0  0  0  0  0  0
   25.4122  -22.2039  -10.2870 O   0  0  0  0  0  0  0  0  0  0  0  0
   26.1008  -20.0407  -10.1128 N   0  0  0  0  0  0  0  0  0  0  0  0
   26.7445  -20.2701   -8.8350 C   0  0  1  0  0  0  0  0  0  0  0  0
   27.7746  -19.2049   -8.5254 C   0  0  0  0  0  0  0  0  0  0  0  0
   28.4329  -19.4572   -7.2331 C   0  0  0  0  0  0  0  0  0  0  0  0
   29.2465  -20.5630   -7.0711 C   0  0  0  0  0  0  0  0  0  0  0  0
   29.8561  -20.7839   -5.8513 C   0  0  0  0  0  0  0  0  0  0  0  0
   29.6890  -19.9394   -4.7689 C   0  0  0  0  0  0  0  0  0  0  0  0
   28.8733  -18.8413   -4.9502 C   0  0  0  0  0  0  0  0  0  0  0  0
   28.2519  -18.6032   -6.1703 C   0  0  0  0  0  0  0  0  0  0  0  0
   25.7214  -20.2149   -7.7787 C   0  0  0  0  0  0  0  0  0  0  0  0
   24.8550  -19.3209   -7.7890 O   0  0  0  0  0  0  0  0  0  0  0  0
   22.0256  -21.8954   -6.2696 C   0  0  0  0  0  0  0  0  0  0  0  0
   23.2297  -22.8254   -6.4776 C   0  0  2  0  0  0  0  0  0  0  0  0
   22.7616  -24.2424   -6.3865 C   0  0  0  0  0  0  0  0  0  0  0  0
   24.2263  -22.4556   -5.4341 C   0  0  0  0  0  0  0  0  0  0  0  0
   24.8389  -21.0866   -5.6012 C   0  0  2  0  0  0  0  0  0  0  0  0
   25.7199  -21.1775   -6.7491 N   0  0  0  0  0  0  0  0  0  0  0  0
   25.6167  -20.6264   -4.4467 C   0  0  0  0  0  0  0  0  0  0  0  0
   26.8544  -21.1976   -4.1988 O   0  0  0  0  0  0  0  0  0  0  0  0
   25.2064  -19.7278   -3.6641 O   0  0  0  0  0  0  0  0  0  0  0  0
  2  3  1  0
  2  1  1  6
  4  3  1  0
  4  5  1  0
  6  5  1  0
  6  7  1  0
  8  2  1  0
  9  8  2  0
 10  8  1  0
 11 10  1  0
 11 12  1  1
 12 13  1  0
 13 14  2  0
 14 15  1  0
 16 15  2  0
 17 16  1  0
 18 13  1  0
 18 17  2  0
 19 11  1  0
 19 20  2  0
 22 21  1  1
 22 24  1  0
 23 22  1  0
 25 24  1  1
 25 26  1  0
 26 19  1  0
 27 25  1  0
 28 27  1  0
 29 27  2  0
M  END
$$$$
