KFL.pdb
     RDKit          3D

 29 29  0  0  1  0  0  0  0  0999 V2000
   28.7744  -21.1015  -14.8586 N   0  0  0  0  0  0  0  0  0  0  0  0
   28.0962  -20.0889  -14.0791 C   0  0  1  0  0  0  0  0  0  0  0  0
   27.6387  -18.9943  -14.9764 C   0  0  0  0  0  0  0  0  0  0  0  0
   28.8072  -18.1837  -15.4522 C   0  0  0  0  0  0  0  0  0  0  0  0
   28.9820  -18.1848  -16.9554 C   0  0  0  0  0  0  0  0  0  0  0  0
   27.7813  -17.5411  -17.6381 C   0  0  0  0  0  0  0  0  0  0  0  0
   27.9001  -17.5393  -19.0719 N   0  0  0  0  0  0  0  0  0  0  0  0
   26.9931  -20.6642  -13.2661 C   0  0  0  0  0  0  0  0  0  0  0  0
   26.4236  -21.7187  -13.6651 O   0  0  0  0  0  0  0  0  0  0  0  0
   26.5125  -20.1174  -12.0488 N   0  0  0  0  0  0  0  0  0  0  0  0
   25.4479  -20.7305  -11.2804 C   0  0  1  0  0  0  0  0  0  0  0  0
   25.3879  -20.1860   -9.8692 C   0  0  0  0  0  0  0  0  0  0  0  0
   26.6147  -20.5047   -9.1205 C   0  0  0  0  0  0  0  0  0  0  0  0
   27.5654  -21.3454   -9.6685 C   0  0  0  0  0  0  0  0  0  0  0  0
   28.7105  -21.6334   -8.9515 C   0  0  0  0  0  0  0  0  0  0  0  0
   28.9547  -21.1133   -7.6935 C   0  0  0  0  0  0  0  0  0  0  0  0
   27.9941  -20.2764   -7.1635 C   0  0  0  0  0  0  0  0  0  0  0  0
   26.8360  -19.9756   -7.8705 C   0  0  0  0  0  0  0  0  0  0  0  0
   24.1638  -20.4195  -11.9284 C   0  0  0  0  0  0  0  0  0  0  0  0
   23.9980  -19.3277  -12.5033 O   0  0  0  0  0  0  0  0  0  0  0  0
   20.7449  -23.7004  -15.3055 C   0  0  0  0  0  0  0  0  0  0  0  0
   20.6956  -22.3535  -14.5696 C   0  0  2  0  0  0  0  0  0  0  0  0
   20.6702  -21.2548  -15.5833 C   0  0  0  0  0  0  0  0  0  0  0  0
   21.8906  -22.3209  -13.6809 C   0  0  0  0  0  0  0  0  0  0  0  0
   21.9010  -21.1953  -12.6758 C   0  0  2  0  0  0  0  0  0  0  0  0
   23.1146  -21.3602  -11.8997 N   0  0  0  0  0  0  0  0  0  0  0  0
   20.7551  -21.1897  -11.7612 C   0  0  0  0  0  0  0  0  0  0  0  0
   19.6668  -20.3828  -12.0516 O   0  0  0  0  0  0  0  0  0  0  0  0
   20.7157  -21.8913  -10.7150 O   0  0  0  0  0  0  0  0  0  0  0  0
  2  3  1  0
  2  1  1  6
  4  3  1  0
  4  5  1  0
  6  5  1  0
  6  7  1  0
  8  2  1  0
  9  8  2  0
 10  8  1  0
 11 10  1  0
 11 12  1  1
 12 13  1  0
 13 14  2  0
 14 15  1  0
 16 15  2  0
 17 16  1  0
 18 13  1  0
 18 17  2  0
 19 11  1  0
 19 20  2  0
 22 21  1  6
 22 24  1  0
 23 22  1  0
 25 24  1  6
 25 26  1  0
 26 19  1  0
 27 25  1  0
 28 27  1  0
 29 27  2  0
M  END
$$$$
