KFL.pdb
     RDKit          3D

 29 29  0  0  1  0  0  0  0  0999 V2000
   28.4221  -23.0979  -17.9454 N   0  0  0  0  0  0  0  0  0  0  0  0
   27.9761  -21.7993  -17.4897 C   0  0  1  0  0  0  0  0  0  0  0  0
   27.1513  -21.1574  -18.5481 C   0  0  0  0  0  0  0  0  0  0  0  0
   27.9708  -20.9244  -19.7822 C   0  0  0  0  0  0  0  0  0  0  0  0
   27.2578  -20.1213  -20.8483 C   0  0  0  0  0  0  0  0  0  0  0  0
   28.1342  -19.9707  -22.0858 C   0  0  0  0  0  0  0  0  0  0  0  0
   27.4874  -19.2205  -23.1292 N   0  0  0  0  0  0  0  0  0  0  0  0
   27.2711  -21.8841  -16.1842 C   0  0  0  0  0  0  0  0  0  0  0  0
   26.4401  -22.8165  -15.9961 O   0  0  0  0  0  0  0  0  0  0  0  0
   27.4561  -20.9852  -15.1027 N   0  0  0  0  0  0  0  0  0  0  0  0
   26.6812  -21.0592  -13.8805 C   0  0  1  0  0  0  0  0  0  0  0  0
   27.3258  -20.2744  -12.7580 C   0  0  0  0  0  0  0  0  0  0  0  0
   26.5628  -20.4070  -11.5060 C   0  0  0  0  0  0  0  0  0  0  0  0
   26.6953  -21.5416  -10.7276 C   0  0  0  0  0  0  0  0  0  0  0  0
   25.9715  -21.6488   -9.5558 C   0  0  0  0  0  0  0  0  0  0  0  0
   25.1082  -20.6610   -9.1181 C   0  0  0  0  0  0  0  0  0  0  0  0
   24.9895  -19.5363   -9.9087 C   0  0  0  0  0  0  0  0  0  0  0  0
   25.7099  -19.4112  -11.0906 C   0  0  0  0  0  0  0  0  0  0  0  0
   25.3570  -20.4672  -14.1291 C   0  0  0  0  0  0  0  0  0  0  0  0
   25.2597  -19.3459  -14.6614 O   0  0  0  0  0  0  0  0  0  0  0  0
   22.1211  -19.6778  -16.6529 C   0  0  0  0  0  0  0  0  0  0  0  0
   22.5963  -21.1083  -16.3595 C   0  0  2  0  0  0  0  0  0  0  0  0
   22.0082  -22.0272  -17.3819 C   0  0  0  0  0  0  0  0  0  0  0  0
   22.1684  -21.4112  -14.9652 C   0  0  0  0  0  0  0  0  0  0  0  0
   22.8651  -20.6011  -13.8996 C   0  0  2  0  0  0  0  0  0  0  0  0
   24.1916  -21.1707  -13.7640 N   0  0  0  0  0  0  0  0  0  0  0  0
   22.2056  -20.6284  -12.5904 C   0  0  0  0  0  0  0  0  0  0  0  0
   22.4228  -21.7086  -11.7503 O   0  0  0  0  0  0  0  0  0  0  0  0
   21.4444  -19.7062  -12.1924 O   0  0  0  0  0  0  0  0  0  0  0  0
  2  3  1  0
  2  1  1  6
  4  3  1  0
  4  5  1  0
  6  5  1  0
  6  7  1  0
  8  2  1  0
  9  8  2  0
 10  8  1  0
 11 10  1  0
 11 12  1  1
 12 13  1  0
 13 14  2  0
 14 15  1  0
 16 15  2  0
 17 16  1  0
 18 13  1  0
 18 17  2  0
 19 11  1  0
 19 20  2  0
 22 21  1  6
 22 24  1  0
 23 22  1  0
 25 24  1  6
 25 26  1  0
 26 19  1  0
 27 25  1  0
 28 27  1  0
 29 27  2  0
M  END
$$$$
