KFL.pdb
     RDKit          3D

 29 29  0  0  1  0  0  0  0  0999 V2000
   25.6786  -21.6399  -12.7848 N   0  0  0  0  0  0  0  0  0  0  0  0
   25.4636  -20.4988  -11.9220 C   0  0  1  0  0  0  0  0  0  0  0  0
   24.0263  -20.1168  -11.9518 C   0  0  0  0  0  0  0  0  0  0  0  0
   23.3315  -20.7800  -13.1035 C   0  0  0  0  0  0  0  0  0  0  0  0
   22.5985  -22.0495  -12.7279 C   0  0  0  0  0  0  0  0  0  0  0  0
   21.6913  -22.5044  -13.8646 C   0  0  0  0  0  0  0  0  0  0  0  0
   22.4286  -22.8581  -15.0483 N   0  0  0  0  0  0  0  0  0  0  0  0
   25.9640  -20.7456  -10.5446 C   0  0  0  0  0  0  0  0  0  0  0  0
   25.8676  -21.9066  -10.0565 O   0  0  0  0  0  0  0  0  0  0  0  0
   26.5565  -19.7644   -9.7090 N   0  0  0  0  0  0  0  0  0  0  0  0
   27.0943  -20.0715   -8.3990 C   0  0  1  0  0  0  0  0  0  0  0  0
   28.0867  -19.0249   -7.9394 C   0  0  0  0  0  0  0  0  0  0  0  0
   28.6690  -19.3769   -6.6339 C   0  0  0  0  0  0  0  0  0  0  0  0
   28.5329  -18.5199   -5.5578 C   0  0  0  0  0  0  0  0  0  0  0  0
   29.0859  -18.8667   -4.3403 C   0  0  0  0  0  0  0  0  0  0  0  0
   29.7791  -20.0472   -4.1438 C   0  0  0  0  0  0  0  0  0  0  0  0
   29.9042  -20.8892   -5.2298 C   0  0  0  0  0  0  0  0  0  0  0  0
   29.3544  -20.5568   -6.4621 C   0  0  0  0  0  0  0  0  0  0  0  0
   25.9870  -20.0856   -7.4298 C   0  0  0  0  0  0  0  0  0  0  0  0
   25.1242  -19.1882   -7.4482 O   0  0  0  0  0  0  0  0  0  0  0  0
   22.2913  -21.8160   -6.5053 C   0  0  0  0  0  0  0  0  0  0  0  0
   23.4851  -22.7817   -6.5235 C   0  0  2  0  0  0  0  0  0  0  0  0
   22.9666  -24.1841   -6.5191 C   0  0  0  0  0  0  0  0  0  0  0  0
   24.3111  -22.4448   -5.3305 C   0  0  0  0  0  0  0  0  0  0  0  0
   24.9581  -21.0821   -5.3734 C   0  0  2  0  0  0  0  0  0  0  0  0
   25.9003  -21.1186   -6.4749 N   0  0  0  0  0  0  0  0  0  0  0  0
   25.6785  -20.7153   -4.1503 C   0  0  0  0  0  0  0  0  0  0  0  0
   25.0378  -19.9361   -3.2005 O   0  0  0  0  0  0  0  0  0  0  0  0
   26.8633  -21.0798   -3.9229 O   0  0  0  0  0  0  0  0  0  0  0  0
  2  3  1  0
  2  1  1  6
  4  3  1  0
  4  5  1  0
  6  5  1  0
  6  7  1  0
  8  2  1  0
  9  8  2  0
 10  8  1  0
 11 10  1  0
 11 12  1  1
 12 13  1  0
 13 14  2  0
 14 15  1  0
 16 15  2  0
 17 16  1  0
 18 13  1  0
 18 17  2  0
 19 11  1  0
 19 20  2  0
 22 21  1  1
 22 24  1  0
 23 22  1  0
 25 24  1  1
 25 26  1  0
 26 19  1  0
 27 25  1  0
 28 27  1  0
 29 27  2  0
M  END
$$$$
