KFL.pdb
     RDKit          3D

 29 29  0  0  1  0  0  0  0  0999 V2000
   19.5061  -15.7592  -19.9931 N   0  0  0  0  0  0  0  0  0  0  0  0
   19.1780  -14.3859  -20.3082 C   0  0  1  0  0  0  0  0  0  0  0  0
   18.1070  -14.3548  -21.3399 C   0  0  0  0  0  0  0  0  0  0  0  0
   18.6101  -14.9193  -22.6349 C   0  0  0  0  0  0  0  0  0  0  0  0
   19.5376  -13.9910  -23.3885 C   0  0  0  0  0  0  0  0  0  0  0  0
   19.9125  -14.5849  -24.7408 C   0  0  0  0  0  0  0  0  0  0  0  0
   20.7383  -13.7008  -25.5194 N   0  0  0  0  0  0  0  0  0  0  0  0
   18.8263  -13.6087  -19.0912 C   0  0  0  0  0  0  0  0  0  0  0  0
   17.6366  -13.6386  -18.6678 O   0  0  0  0  0  0  0  0  0  0  0  0
   19.7350  -12.8160  -18.3444 N   0  0  0  0  0  0  0  0  0  0  0  0
   19.3496  -12.1035  -17.1430 C   0  0  1  0  0  0  0  0  0  0  0  0
   20.2058  -12.4960  -15.9578 C   0  0  0  0  0  0  0  0  0  0  0  0
   19.9809  -13.9003  -15.5775 C   0  0  0  0  0  0  0  0  0  0  0  0
   20.8998  -14.8715  -15.9284 C   0  0  0  0  0  0  0  0  0  0  0  0
   20.6724  -16.1842  -15.5630 C   0  0  0  0  0  0  0  0  0  0  0  0
   19.5532  -16.5787  -14.8526 C   0  0  0  0  0  0  0  0  0  0  0  0
   18.6478  -15.5948  -14.5117 C   0  0  0  0  0  0  0  0  0  0  0  0
   18.8602  -14.2691  -14.8709 C   0  0  0  0  0  0  0  0  0  0  0  0
   19.5444  -10.6626  -17.3702 C   0  0  0  0  0  0  0  0  0  0  0  0
   20.5601  -10.2512  -17.9611 O   0  0  0  0  0  0  0  0  0  0  0  0
   17.4719   -7.4796  -19.7239 C   0  0  0  0  0  0  0  0  0  0  0  0
   16.6548   -8.1770  -18.6266 C   0  0  2  0  0  0  0  0  0  0  0  0
   15.2285   -7.7442  -18.7438 C   0  0  0  0  0  0  0  0  0  0  0  0
   17.2901   -7.8019  -17.3326 C   0  0  0  0  0  0  0  0  0  0  0  0
   18.6971   -8.3148  -17.1465 C   0  0  2  0  0  0  0  0  0  0  0  0
   18.5782   -9.7416  -16.9177 N   0  0  0  0  0  0  0  0  0  0  0  0
   19.4155   -7.7158  -16.0175 C   0  0  0  0  0  0  0  0  0  0  0  0
   19.8777   -6.4143  -16.1288 O   0  0  0  0  0  0  0  0  0  0  0  0
   19.6329   -8.3366  -14.9425 O   0  0  0  0  0  0  0  0  0  0  0  0
  2  3  1  0
  2  1  1  1
  4  3  1  0
  4  5  1  0
  6  5  1  0
  6  7  1  0
  8  2  1  0
  9  8  2  0
 10  8  1  0
 11 10  1  0
 11 12  1  1
 12 13  1  0
 13 14  2  0
 14 15  1  0
 16 15  2  0
 17 16  1  0
 18 13  1  0
 18 17  2  0
 19 11  1  0
 19 20  2  0
 22 21  1  6
 22 24  1  0
 23 22  1  0
 25 24  1  1
 25 26  1  0
 26 19  1  0
 27 25  1  0
 28 27  1  0
 29 27  2  0
M  END
$$$$
