KFL.pdb
     RDKit          3D

 29 29  0  0  1  0  0  0  0  0999 V2000
   30.0641  -22.6860  -12.9500 N   0  0  0  0  0  0  0  0  0  0  0  0
   30.2647  -21.4405  -12.2417 C   0  0  1  0  0  0  0  0  0  0  0  0
   29.8888  -20.3019  -13.1220 C   0  0  0  0  0  0  0  0  0  0  0  0
   28.9299  -20.7539  -14.1827 C   0  0  0  0  0  0  0  0  0  0  0  0
   28.5036  -19.6548  -15.1315 C   0  0  0  0  0  0  0  0  0  0  0  0
   27.4691  -20.1710  -16.1242 C   0  0  0  0  0  0  0  0  0  0  0  0
   27.0579  -19.1622  -17.0640 N   0  0  0  0  0  0  0  0  0  0  0  0
   29.5461  -21.4228  -10.9410 C   0  0  0  0  0  0  0  0  0  0  0  0
   28.5764  -22.2131  -10.7659 O   0  0  0  0  0  0  0  0  0  0  0  0
   29.8637  -20.5731   -9.8505 N   0  0  0  0  0  0  0  0  0  0  0  0
   29.1515  -20.6169   -8.5893 C   0  0  1  0  0  0  0  0  0  0  0  0
   29.8518  -19.8058   -7.5201 C   0  0  0  0  0  0  0  0  0  0  0  0
   29.0678  -19.7729   -6.2745 C   0  0  0  0  0  0  0  0  0  0  0  0
   29.3818  -20.6251   -5.2324 C   0  0  0  0  0  0  0  0  0  0  0  0
   28.6352  -20.5804   -4.0709 C   0  0  0  0  0  0  0  0  0  0  0  0
   27.5733  -19.7111   -3.8985 C   0  0  0  0  0  0  0  0  0  0  0  0
   27.2755  -18.8686   -4.9499 C   0  0  0  0  0  0  0  0  0  0  0  0
   28.0157  -18.8997   -6.1258 C   0  0  0  0  0  0  0  0  0  0  0  0
   27.8163  -20.0301   -8.7849 C   0  0  0  0  0  0  0  0  0  0  0  0
   27.6889  -18.9394   -9.3717 O   0  0  0  0  0  0  0  0  0  0  0  0
   24.4582  -21.8440  -12.3720 C   0  0  0  0  0  0  0  0  0  0  0  0
   24.1806  -21.0912  -11.0627 C   0  0  2  0  0  0  0  0  0  0  0  0
   23.7053  -19.7130  -11.3944 C   0  0  0  0  0  0  0  0  0  0  0  0
   25.4541  -21.1159  -10.2903 C   0  0  0  0  0  0  0  0  0  0  0  0
   25.3636  -20.5310   -8.9022 C   0  0  2  0  0  0  0  0  0  0  0  0
   26.6743  -20.7036   -8.3067 N   0  0  0  0  0  0  0  0  0  0  0  0
   24.3668  -21.1720   -8.0390 C   0  0  0  0  0  0  0  0  0  0  0  0
   24.7180  -22.3161   -7.3407 O   0  0  0  0  0  0  0  0  0  0  0  0
   23.1962  -20.7253   -7.9030 O   0  0  0  0  0  0  0  0  0  0  0  0
  2  3  1  0
  2  1  1  6
  4  3  1  0
  4  5  1  0
  6  5  1  0
  6  7  1  0
  8  2  1  0
  9  8  2  0
 10  8  1  0
 11 10  1  0
 11 12  1  1
 12 13  1  0
 13 14  2  0
 14 15  1  0
 16 15  2  0
 17 16  1  0
 18 13  1  0
 18 17  2  0
 19 11  1  0
 19 20  2  0
 22 21  1  6
 22 24  1  0
 23 22  1  0
 25 24  1  6
 25 26  1  0
 26 19  1  0
 27 25  1  0
 28 27  1  0
 29 27  2  0
M  END
$$$$
