KFL.pdb
     RDKit          3D

 29 29  0  0  1  0  0  0  0  0999 V2000
   29.5392  -19.7928  -11.9000 N   0  0  0  0  0  0  0  0  0  0  0  0
   28.3347  -20.5878  -11.9996 C   0  0  1  0  0  0  0  0  0  0  0  0
   28.4843  -21.5817  -13.0961 C   0  0  0  0  0  0  0  0  0  0  0  0
   28.8455  -20.8957  -14.3797 C   0  0  0  0  0  0  0  0  0  0  0  0
   27.6900  -20.7584  -15.3471 C   0  0  0  0  0  0  0  0  0  0  0  0
   28.1176  -19.9904  -16.5919 C   0  0  0  0  0  0  0  0  0  0  0  0
   27.0522  -19.8598  -17.5500 N   0  0  0  0  0  0  0  0  0  0  0  0
   27.9777  -21.2149  -10.7004 C   0  0  0  0  0  0  0  0  0  0  0  0
   28.8929  -21.4538   -9.8633 O   0  0  0  0  0  0  0  0  0  0  0  0
   26.6635  -21.5776  -10.3089 N   0  0  0  0  0  0  0  0  0  0  0  0
   25.8671  -20.7772   -9.4006 C   0  0  1  0  0  0  0  0  0  0  0  0
   26.6522  -19.6075   -8.8464 C   0  0  0  0  0  0  0  0  0  0  0  0
   27.1738  -19.9027   -7.5018 C   0  0  0  0  0  0  0  0  0  0  0  0
   26.3149  -19.9631   -6.4204 C   0  0  0  0  0  0  0  0  0  0  0  0
   26.8221  -20.2414   -5.1659 C   0  0  0  0  0  0  0  0  0  0  0  0
   28.1675  -20.4657   -4.9370 C   0  0  0  0  0  0  0  0  0  0  0  0
   29.0087  -20.4011   -6.0289 C   0  0  0  0  0  0  0  0  0  0  0  0
   28.5161  -20.1224   -7.2982 C   0  0  0  0  0  0  0  0  0  0  0  0
   24.7213  -20.2276  -10.1426 C   0  0  0  0  0  0  0  0  0  0  0  0
   24.5224  -18.9989  -10.1720 O   0  0  0  0  0  0  0  0  0  0  0  0
   23.9851  -19.6903  -14.1765 C   0  0  0  0  0  0  0  0  0  0  0  0
   24.0096  -21.1514  -13.7045 C   0  0  2  0  0  0  0  0  0  0  0  0
   24.1116  -22.0399  -14.9027 C   0  0  0  0  0  0  0  0  0  0  0  0
   22.7641  -21.3539  -12.9129 C   0  0  0  0  0  0  0  0  0  0  0  0
   22.7196  -20.6082  -11.6017 C   0  0  2  0  0  0  0  0  0  0  0  0
   23.8430  -21.0939  -10.8243 N   0  0  0  0  0  0  0  0  0  0  0  0
   21.4900  -20.8134  -10.8300 C   0  0  0  0  0  0  0  0  0  0  0  0
   21.5486  -21.5405   -9.6520 O   0  0  0  0  0  0  0  0  0  0  0  0
   20.3739  -20.3543  -11.1932 O   0  0  0  0  0  0  0  0  0  0  0  0
  2  3  1  0
  2  1  1  1
  4  3  1  0
  4  5  1  0
  6  5  1  0
  6  7  1  0
  8  2  1  0
  9  8  2  0
 10  8  1  0
 11 10  1  0
 11 12  1  6
 12 13  1  0
 13 14  2  0
 14 15  1  0
 16 15  2  0
 17 16  1  0
 18 13  1  0
 18 17  2  0
 19 11  1  0
 19 20  2  0
 22 21  1  6
 22 24  1  0
 23 22  1  0
 25 24  1  6
 25 26  1  0
 26 19  1  0
 27 25  1  0
 28 27  1  0
 29 27  2  0
M  END
$$$$
