KFL.pdb
     RDKit          3D

 29 29  0  0  1  0  0  0  0  0999 V2000
   23.2176  -12.8330  -17.5614 N   0  0  0  0  0  0  0  0  0  0  0  0
   22.7425  -11.5805  -18.1078 C   0  0  1  0  0  0  0  0  0  0  0  0
   21.4194  -11.7903  -18.7543 C   0  0  0  0  0  0  0  0  0  0  0  0
   21.5207  -12.8300  -19.8302 C   0  0  0  0  0  0  0  0  0  0  0  0
   20.2417  -13.0261  -20.6149 C   0  0  0  0  0  0  0  0  0  0  0  0
   20.4441  -14.0454  -21.7294 C   0  0  0  0  0  0  0  0  0  0  0  0
   19.2388  -14.2902  -22.4758 N   0  0  0  0  0  0  0  0  0  0  0  0
   22.7170  -10.5048  -17.0827 C   0  0  0  0  0  0  0  0  0  0  0  0
   22.2968  -10.7740  -15.9224 O   0  0  0  0  0  0  0  0  0  0  0  0
   23.1351   -9.1670  -17.3004 N   0  0  0  0  0  0  0  0  0  0  0  0
   22.9833   -8.1262  -16.3037 C   0  0  1  0  0  0  0  0  0  0  0  0
   24.3053   -7.4664  -15.9743 C   0  0  0  0  0  0  0  0  0  0  0  0
   25.3399   -8.4670  -15.6652 C   0  0  0  0  0  0  0  0  0  0  0  0
   25.2622   -9.2118  -14.5032 C   0  0  0  0  0  0  0  0  0  0  0  0
   26.2420  -10.1463  -14.2296 C   0  0  0  0  0  0  0  0  0  0  0  0
   27.3125  -10.3756  -15.0747 C   0  0  0  0  0  0  0  0  0  0  0  0
   27.3725   -9.6224  -16.2293 C   0  0  0  0  0  0  0  0  0  0  0  0
   26.3957   -8.6777  -16.5210 C   0  0  0  0  0  0  0  0  0  0  0  0
   22.0937   -7.0862  -16.8446 C   0  0  0  0  0  0  0  0  0  0  0  0
   22.1494   -6.7755  -18.0489 O   0  0  0  0  0  0  0  0  0  0  0  0
   17.2201   -6.7016  -18.6138 C   0  0  0  0  0  0  0  0  0  0  0  0
   18.1419   -5.6240  -18.0245 C   0  0  2  0  0  0  0  0  0  0  0  0
   18.4939   -4.6521  -19.1048 C   0  0  0  0  0  0  0  0  0  0  0  0
   19.3174   -6.3448  -17.4610 C   0  0  0  0  0  0  0  0  0  0  0  0
   20.1549   -5.5358  -16.5011 C   0  0  2  0  0  0  0  0  0  0  0  0
   21.1731   -6.4370  -15.9975 N   0  0  0  0  0  0  0  0  0  0  0  0
   19.4107   -4.9849  -15.3643 C   0  0  0  0  0  0  0  0  0  0  0  0
   19.2200   -5.7721  -14.2401 O   0  0  0  0  0  0  0  0  0  0  0  0
   18.9331   -3.8186  -15.3643 O   0  0  0  0  0  0  0  0  0  0  0  0
  2  3  1  0
  2  1  1  1
  4  3  1  0
  4  5  1  0
  6  5  1  0
  6  7  1  0
  8  2  1  0
  9  8  2  0
 10  8  1  0
 11 10  1  0
 11 12  1  6
 12 13  1  0
 13 14  2  0
 14 15  1  0
 16 15  2  0
 17 16  1  0
 18 13  1  0
 18 17  2  0
 19 11  1  0
 19 20  2  0
 22 21  1  6
 22 24  1  0
 23 22  1  0
 25 24  1  6
 25 26  1  0
 26 19  1  0
 27 25  1  0
 28 27  1  0
 29 27  2  0
M  END
$$$$
