KFL.pdb
     RDKit          3D

 29 29  0  0  1  0  0  0  0  0999 V2000
   28.2951  -20.7448  -17.7331 N   0  0  0  0  0  0  0  0  0  0  0  0
   27.0468  -20.4077  -17.0843 C   0  0  1  0  0  0  0  0  0  0  0  0
   25.9183  -21.0404  -17.8182 C   0  0  0  0  0  0  0  0  0  0  0  0
   25.6642  -20.3215  -19.1095 C   0  0  0  0  0  0  0  0  0  0  0  0
   25.6230  -18.8148  -18.9739 C   0  0  0  0  0  0  0  0  0  0  0  0
   24.2943  -18.2645  -19.4777 C   0  0  0  0  0  0  0  0  0  0  0  0
   24.2552  -16.8264  -19.4658 N   0  0  0  0  0  0  0  0  0  0  0  0
   27.0622  -20.7593  -15.6404 C   0  0  0  0  0  0  0  0  0  0  0  0
   26.3641  -21.7325  -15.2393 O   0  0  0  0  0  0  0  0  0  0  0  0
   27.8130  -20.0787  -14.6479 N   0  0  0  0  0  0  0  0  0  0  0  0
   27.7497  -20.4249  -13.2423 C   0  0  1  0  0  0  0  0  0  0  0  0
   28.7341  -19.6205  -12.4204 C   0  0  0  0  0  0  0  0  0  0  0  0
   28.6385  -19.9578  -10.9907 C   0  0  0  0  0  0  0  0  0  0  0  0
   29.2795  -21.0782  -10.4960 C   0  0  0  0  0  0  0  0  0  0  0  0
   29.1787  -21.3793   -9.1516 C   0  0  0  0  0  0  0  0  0  0  0  0
   28.4568  -20.6021   -8.2641 C   0  0  0  0  0  0  0  0  0  0  0  0
   27.8242  -19.4881   -8.7768 C   0  0  0  0  0  0  0  0  0  0  0  0
   27.9146  -19.1698  -10.1267 C   0  0  0  0  0  0  0  0  0  0  0  0
   26.4005  -20.1137  -12.7437 C   0  0  0  0  0  0  0  0  0  0  0  0
   25.9015  -18.9901  -12.9401 O   0  0  0  0  0  0  0  0  0  0  0  0
   22.3477  -19.8382  -13.5160 C   0  0  0  0  0  0  0  0  0  0  0  0
   23.1335  -21.1476  -13.6773 C   0  0  2  0  0  0  0  0  0  0  0  0
   22.3342  -22.0842  -14.5255 C   0  0  0  0  0  0  0  0  0  0  0  0
   23.3852  -21.6544  -12.2993 C   0  0  0  0  0  0  0  0  0  0  0  0
   24.3526  -20.8278  -11.4881 C   0  0  2  0  0  0  0  0  0  0  0  0
   25.6674  -21.0904  -12.0401 N   0  0  0  0  0  0  0  0  0  0  0  0
   24.3707  -21.1477  -10.0575 C   0  0  0  0  0  0  0  0  0  0  0  0
   23.5559  -20.4292   -9.1972 O   0  0  0  0  0  0  0  0  0  0  0  0
   25.0997  -22.0537   -9.5717 O   0  0  0  0  0  0  0  0  0  0  0  0
  2  3  1  0
  2  1  1  6
  4  3  1  0
  4  5  1  0
  6  5  1  0
  6  7  1  0
  8  2  1  0
  9  8  2  0
 10  8  1  0
 11 10  1  0
 11 12  1  1
 12 13  1  0
 13 14  2  0
 14 15  1  0
 16 15  2  0
 17 16  1  0
 18 13  1  0
 18 17  2  0
 19 11  1  0
 19 20  2  0
 22 21  1  1
 22 24  1  0
 23 22  1  0
 25 24  1  6
 25 26  1  0
 26 19  1  0
 27 25  1  0
 28 27  1  0
 29 27  2  0
M  END
$$$$
