KFL.pdb
     RDKit          3D

 29 29  0  0  1  0  0  0  0  0999 V2000
   25.3541  -24.7297  -15.4843 N   0  0  0  0  0  0  0  0  0  0  0  0
   26.1073  -23.5367  -15.1644 C   0  0  1  0  0  0  0  0  0  0  0  0
   25.9099  -22.5224  -16.2344 C   0  0  0  0  0  0  0  0  0  0  0  0
   26.4388  -23.0306  -17.5424 C   0  0  0  0  0  0  0  0  0  0  0  0
   25.5422  -24.0500  -18.2110 C   0  0  0  0  0  0  0  0  0  0  0  0
   24.5854  -23.3709  -19.1832 C   0  0  0  0  0  0  0  0  0  0  0  0
   24.8944  -23.6685  -20.5565 N   0  0  0  0  0  0  0  0  0  0  0  0
   25.7728  -23.0181  -13.8124 C   0  0  0  0  0  0  0  0  0  0  0  0
   24.6379  -23.2752  -13.3211 O   0  0  0  0  0  0  0  0  0  0  0  0
   26.6408  -22.2395  -13.0048 N   0  0  0  0  0  0  0  0  0  0  0  0
   26.2320  -21.6719  -11.7358 C   0  0  1  0  0  0  0  0  0  0  0  0
   27.4126  -21.1403  -10.9515 C   0  0  0  0  0  0  0  0  0  0  0  0
   26.9992  -20.6598   -9.6228 C   0  0  0  0  0  0  0  0  0  0  0  0
   25.6604  -20.6281   -9.2802 C   0  0  0  0  0  0  0  0  0  0  0  0
   25.2909  -20.1742   -8.0289 C   0  0  0  0  0  0  0  0  0  0  0  0
   26.2098  -19.7436   -7.0891 C   0  0  0  0  0  0  0  0  0  0  0  0
   27.5411  -19.7828   -7.4498 C   0  0  0  0  0  0  0  0  0  0  0  0
   27.9312  -20.2365   -8.7042 C   0  0  0  0  0  0  0  0  0  0  0  0
   25.3303  -20.5390  -11.9983 C   0  0  0  0  0  0  0  0  0  0  0  0
   25.7408  -19.5392  -12.6164 O   0  0  0  0  0  0  0  0  0  0  0  0
   22.9824  -18.4110  -14.7583 C   0  0  0  0  0  0  0  0  0  0  0  0
   23.5397  -19.8393  -14.6710 C   0  0  2  0  0  0  0  0  0  0  0  0
   23.3846  -20.4961  -16.0051 C   0  0  0  0  0  0  0  0  0  0  0  0
   22.7841  -20.5148  -13.5794 C   0  0  0  0  0  0  0  0  0  0  0  0
   22.9248  -19.8724  -12.2212 C   0  0  2  0  0  0  0  0  0  0  0  0
   23.9951  -20.5830  -11.5490 N   0  0  0  0  0  0  0  0  0  0  0  0
   21.7190  -19.9431  -11.3902 C   0  0  0  0  0  0  0  0  0  0  0  0
   20.7246  -18.9943  -11.5657 O   0  0  0  0  0  0  0  0  0  0  0  0
   21.5455  -20.8350  -10.5168 O   0  0  0  0  0  0  0  0  0  0  0  0
  2  3  1  0
  2  1  1  6
  4  3  1  0
  4  5  1  0
  6  5  1  0
  6  7  1  0
  8  2  1  0
  9  8  2  0
 10  8  1  0
 11 10  1  0
 11 12  1  6
 12 13  1  0
 13 14  2  0
 14 15  1  0
 16 15  2  0
 17 16  1  0
 18 13  1  0
 18 17  2  0
 19 11  1  0
 19 20  2  0
 22 21  1  6
 22 24  1  0
 23 22  1  0
 25 24  1  6
 25 26  1  0
 26 19  1  0
 27 25  1  0
 28 27  1  0
 29 27  2  0
M  END
$$$$
