KFL.pdb
     RDKit          3D

 29 29  0  0  1  0  0  0  0  0999 V2000
   26.4630  -36.8735   -8.6693 N   0  0  0  0  0  0  0  0  0  0  0  0
   25.8628  -36.7861   -7.3559 C   0  0  1  0  0  0  0  0  0  0  0  0
   25.5007  -38.1491   -6.8832 C   0  0  0  0  0  0  0  0  0  0  0  0
   24.1053  -38.1599   -6.3338 C   0  0  0  0  0  0  0  0  0  0  0  0
   23.0376  -38.4018   -7.3785 C   0  0  0  0  0  0  0  0  0  0  0  0
   21.6583  -38.4682   -6.7341 C   0  0  0  0  0  0  0  0  0  0  0  0
   20.6000  -38.5333   -7.7065 N   0  0  0  0  0  0  0  0  0  0  0  0
   26.7347  -36.0582   -6.3974 C   0  0  0  0  0  0  0  0  0  0  0  0
   27.9224  -35.7887   -6.7325 O   0  0  0  0  0  0  0  0  0  0  0  0
   26.3379  -35.6286   -5.1052 N   0  0  0  0  0  0  0  0  0  0  0  0
   27.1588  -34.7661   -4.2794 C   0  0  1  0  0  0  0  0  0  0  0  0
   26.7013  -33.3245   -4.3442 C   0  0  0  0  0  0  0  0  0  0  0  0
   26.7100  -32.8224   -5.7280 C   0  0  0  0  0  0  0  0  0  0  0  0
   25.5430  -32.3612   -6.3079 C   0  0  0  0  0  0  0  0  0  0  0  0
   25.5700  -31.8937   -7.6075 C   0  0  0  0  0  0  0  0  0  0  0  0
   26.7254  -31.8644   -8.3671 C   0  0  0  0  0  0  0  0  0  0  0  0
   27.8798  -32.3289   -7.7707 C   0  0  0  0  0  0  0  0  0  0  0  0
   27.8715  -32.8029   -6.4643 C   0  0  0  0  0  0  0  0  0  0  0  0
   27.0385  -35.2048   -2.8799 C   0  0  0  0  0  0  0  0  0  0  0  0
   25.9443  -35.6012   -2.4374 O   0  0  0  0  0  0  0  0  0  0  0  0
   29.0443  -38.2712   -0.2891 C   0  0  0  0  0  0  0  0  0  0  0  0
   29.9751  -37.1630   -0.8028 C   0  0  2  0  0  0  0  0  0  0  0  0
   31.3799  -37.5018   -0.4192 C   0  0  0  0  0  0  0  0  0  0  0  0
   29.4802  -35.8926   -0.2028 C   0  0  0  0  0  0  0  0  0  0  0  0
   28.0858  -35.4961   -0.6219 C   0  0  2  0  0  0  0  0  0  0  0  0
   28.1656  -35.1773   -2.0341 N   0  0  0  0  0  0  0  0  0  0  0  0
   27.5460  -34.3351    0.0925 C   0  0  0  0  0  0  0  0  0  0  0  0
   27.1929  -33.2060   -0.6289 O   0  0  0  0  0  0  0  0  0  0  0  0
   27.3878  -34.3184    1.3427 O   0  0  0  0  0  0  0  0  0  0  0  0
  2  3  1  0
  2  1  1  6
  4  3  1  0
  4  5  1  0
  6  5  1  0
  6  7  1  0
  8  2  1  0
  9  8  2  0
 10  8  1  0
 11 10  1  0
 11 12  1  1
 12 13  1  0
 13 14  2  0
 14 15  1  0
 16 15  2  0
 17 16  1  0
 18 13  1  0
 18 17  2  0
 19 11  1  0
 19 20  2  0
 22 21  1  1
 22 24  1  0
 23 22  1  0
 25 24  1  1
 25 26  1  0
 26 19  1  0
 27 25  1  0
 28 27  1  0
 29 27  2  0
M  END
$$$$
