KFL.pdb
     RDKit          3D

 29 29  0  0  1  0  0  0  0  0999 V2000
   27.7803  -18.2877  -18.2398 N   0  0  0  0  0  0  0  0  0  0  0  0
   27.0825  -19.5532  -18.3074 C   0  0  1  0  0  0  0  0  0  0  0  0
   27.8108  -20.4744  -19.2204 C   0  0  0  0  0  0  0  0  0  0  0  0
   27.7090  -19.9962  -20.6380 C   0  0  0  0  0  0  0  0  0  0  0  0
   26.3152  -19.5657  -21.0407 C   0  0  0  0  0  0  0  0  0  0  0  0
   26.2724  -19.1907  -22.5170 C   0  0  0  0  0  0  0  0  0  0  0  0
   24.9851  -18.6901  -22.9198 N   0  0  0  0  0  0  0  0  0  0  0  0
   26.8634  -20.1360  -16.9579 C   0  0  0  0  0  0  0  0  0  0  0  0
   26.9454  -21.3878  -16.8105 O   0  0  0  0  0  0  0  0  0  0  0  0
   26.5627  -19.3884  -15.7907 N   0  0  0  0  0  0  0  0  0  0  0  0
   26.2955  -20.0095  -14.5091 C   0  0  1  0  0  0  0  0  0  0  0  0
   26.6762  -19.1055  -13.3561 C   0  0  0  0  0  0  0  0  0  0  0  0
   26.3731  -19.7350  -12.0604 C   0  0  0  0  0  0  0  0  0  0  0  0
   27.1975  -20.7245  -11.5582 C   0  0  0  0  0  0  0  0  0  0  0  0
   26.8976  -21.3041  -10.3405 C   0  0  0  0  0  0  0  0  0  0  0  0
   25.7963  -20.9363   -9.5892 C   0  0  0  0  0  0  0  0  0  0  0  0
   24.9857  -19.9470  -10.1073 C   0  0  0  0  0  0  0  0  0  0  0  0
   25.2719  -19.3528  -11.3306 C   0  0  0  0  0  0  0  0  0  0  0  0
   24.8507  -20.2701  -14.4072 C   0  0  0  0  0  0  0  0  0  0  0  0
   24.0312  -19.3551  -14.6104 O   0  0  0  0  0  0  0  0  0  0  0  0
   22.5103  -23.6226  -16.2810 C   0  0  0  0  0  0  0  0  0  0  0  0
   23.4112  -24.0575  -15.1159 C   0  0  2  0  0  0  0  0  0  0  0  0
   23.3879  -25.5496  -15.0238 C   0  0  0  0  0  0  0  0  0  0  0  0
   22.8816  -23.3742  -13.9028 C   0  0  0  0  0  0  0  0  0  0  0  0
   22.9804  -21.8686  -13.9308 C   0  0  2  0  0  0  0  0  0  0  0  0
   24.3895  -21.5606  -14.0780 N   0  0  0  0  0  0  0  0  0  0  0  0
   22.4779  -21.2063  -12.7232 C   0  0  0  0  0  0  0  0  0  0  0  0
   21.1371  -20.8645  -12.6520 O   0  0  0  0  0  0  0  0  0  0  0  0
   23.2169  -20.9321  -11.7398 O   0  0  0  0  0  0  0  0  0  0  0  0
  2  3  1  0
  2  1  1  1
  4  3  1  0
  4  5  1  0
  6  5  1  0
  6  7  1  0
  8  2  1  0
  9  8  2  0
 10  8  1  0
 11 10  1  0
 11 12  1  1
 12 13  1  0
 13 14  2  0
 14 15  1  0
 16 15  2  0
 17 16  1  0
 18 13  1  0
 18 17  2  0
 19 11  1  0
 19 20  2  0
 22 21  1  6
 22 24  1  0
 23 22  1  0
 25 24  1  1
 25 26  1  0
 26 19  1  0
 27 25  1  0
 28 27  1  0
 29 27  2  0
M  END
$$$$
