KFL.pdb
     RDKit          3D

 29 29  0  0  1  0  0  0  0  0999 V2000
   25.0283  -24.1701  -14.0119 N   0  0  0  0  0  0  0  0  0  0  0  0
   25.2695  -22.7670  -13.7551 C   0  0  1  0  0  0  0  0  0  0  0  0
   23.9900  -22.0156  -13.8579 C   0  0  0  0  0  0  0  0  0  0  0  0
   23.1234  -22.6009  -14.9328 C   0  0  0  0  0  0  0  0  0  0  0  0
   21.9583  -23.4109  -14.4070 C   0  0  0  0  0  0  0  0  0  0  0  0
   20.9856  -23.7480  -15.5305 C   0  0  0  0  0  0  0  0  0  0  0  0
   19.8566  -24.5113  -15.0694 N   0  0  0  0  0  0  0  0  0  0  0  0
   25.9582  -22.5537  -12.4555 C   0  0  0  0  0  0  0  0  0  0  0  0
   25.9463  -23.4798  -11.5966 O   0  0  0  0  0  0  0  0  0  0  0  0
   26.6460  -21.3693  -12.0869 N   0  0  0  0  0  0  0  0  0  0  0  0
   27.2795  -21.2005  -10.7947 C   0  0  1  0  0  0  0  0  0  0  0  0
   28.3554  -20.1362  -10.8309 C   0  0  0  0  0  0  0  0  0  0  0  0
   29.0721  -20.0564   -9.5475 C   0  0  0  0  0  0  0  0  0  0  0  0
   28.6848  -19.1370   -8.5906 C   0  0  0  0  0  0  0  0  0  0  0  0
   29.3689  -19.0764   -7.3920 C   0  0  0  0  0  0  0  0  0  0  0  0
   30.4381  -19.9034   -7.0994 C   0  0  0  0  0  0  0  0  0  0  0  0
   30.8095  -20.8143   -8.0671 C   0  0  0  0  0  0  0  0  0  0  0  0
   30.1329  -20.8894   -9.2787 C   0  0  0  0  0  0  0  0  0  0  0  0
   26.2602  -20.7648   -9.8268 C   0  0  0  0  0  0  0  0  0  0  0  0
   25.2380  -20.1698  -10.2156 O   0  0  0  0  0  0  0  0  0  0  0  0
   27.2030  -22.2824   -5.5605 C   0  0  0  0  0  0  0  0  0  0  0  0
   27.3307  -20.7965   -5.9266 C   0  0  2  0  0  0  0  0  0  0  0  0
   27.9630  -20.0738   -4.7806 C   0  0  0  0  0  0  0  0  0  0  0  0
   25.9534  -20.3264   -6.2445 C   0  0  0  0  0  0  0  0  0  0  0  0
   25.3547  -20.9215   -7.4953 C   0  0  2  0  0  0  0  0  0  0  0  0
   26.4393  -21.0210   -8.4525 N   0  0  0  0  0  0  0  0  0  0  0  0
   24.2758  -20.1253   -8.0882 C   0  0  0  0  0  0  0  0  0  0  0  0
   22.9977  -20.2276   -7.5629 O   0  0  0  0  0  0  0  0  0  0  0  0
   24.4606  -19.3463   -9.0615 O   0  0  0  0  0  0  0  0  0  0  0  0
  2  3  1  0
  2  1  1  1
  4  3  1  0
  4  5  1  0
  6  5  1  0
  6  7  1  0
  8  2  1  0
  9  8  2  0
 10  8  1  0
 11 10  1  0
 11 12  1  6
 12 13  1  0
 13 14  2  0
 14 15  1  0
 16 15  2  0
 17 16  1  0
 18 13  1  0
 18 17  2  0
 19 11  1  0
 19 20  2  0
 22 21  1  1
 22 24  1  0
 23 22  1  0
 25 24  1  1
 25 26  1  0
 26 19  1  0
 27 25  1  0
 28 27  1  0
 29 27  2  0
M  END
$$$$
