ARK.pdb
     RDKit          3D

 26 25  0  0  1  0  0  0  0  0999 V2000
    7.1706  -11.6089   26.6267 C   0  0  0  0  0  0  0  0  0  0  0  0
    6.1794  -12.3510   25.7382 C   0  0  2  0  0  0  0  0  0  0  0  0
    5.1068  -12.8014   26.5674 N   0  0  0  0  0  0  0  0  0  0  0  0
    6.9260  -13.4640   25.1010 C   0  0  0  0  0  0  0  0  0  0  0  0
    7.1070  -14.5076   25.7742 O   0  0  0  0  0  0  0  0  0  0  0  0
    8.5030  -15.7755   18.6841 N   0  0  0  0  0  0  0  0  0  0  0  0
    8.2555  -14.5152   18.0843 C   0  0  0  0  0  0  0  0  0  0  0  0
    7.9537  -14.4085   16.8216 N   0  0  0  0  0  0  0  0  0  0  0  0
    8.3198  -13.2995   18.8267 N   0  0  0  0  0  0  0  0  0  0  0  0
    7.4079  -13.0104   19.8769 C   0  0  0  0  0  0  0  0  0  0  0  0
    7.1852  -14.1348   20.8628 C   0  0  0  0  0  0  0  0  0  0  0  0
    8.4490  -14.2303   21.6857 C   0  0  0  0  0  0  0  0  0  0  0  0
    8.1821  -14.4557   23.1450 C   0  0  2  0  0  0  0  0  0  0  0  0
    7.4415  -13.4147   23.7857 N   0  0  0  0  0  0  0  0  0  0  0  0
    9.4646  -14.6810   23.8675 C   0  0  0  0  0  0  0  0  0  0  0  0
    9.7936  -13.9486   24.8392 O   0  0  0  0  0  0  0  0  0  0  0  0
    7.7771  -13.4504   16.4650 N   0  0  0  0  0  0  0  0  0  0  0  0
   10.3613  -15.7061   23.5097 C   0  0  2  0  0  0  0  0  0  0  0  0
   11.2171  -16.4153   24.4518 C   0  0  0  0  0  0  0  0  0  0  0  0
   10.4194  -17.2153   25.4254 C   0  0  0  0  0  0  0  0  0  0  0  0
   11.2280  -18.0772   26.3429 C   0  0  0  0  0  0  0  0  0  0  0  0
   10.3361  -18.9113   27.2618 C   0  0  0  0  0  0  0  0  0  0  0  0
   11.2321  -19.7634   28.1661 N   0  0  0  0  0  0  0  0  0  0  0  0
   10.9983  -19.4819   29.5491 C   0  0  0  0  0  0  0  0  0  0  0  0
   12.0961  -17.3073   23.6651 O   0  0  0  0  0  0  0  0  0  0  0  0
   11.9664  -17.5240   22.3053 O   0  0  0  0  0  0  0  0  0  0  0  0
  2  1  1  1
  2  3  1  0
  4  2  1  0
  4  5  2  0
  6  7  1  0
  7  8  2  0
  7  9  1  0
  9 10  1  0
 11 10  1  0
 12 11  1  0
 13 14  1  0
 13 12  1  6
 14  4  1  0
 15 13  1  0
 16 15  2  0
 17 15  1  0
 18 19  1  1
 18 17  1  0
 19 20  1  0
 20 21  1  0
 21 22  1  0
 23 22  1  0
 24 18  1  0
 25 24  1  0
 26 24  2  0
M  END
$$$$
