ARK.pdb
     RDKit          3D

 26 25  0  0  1  0  0  0  0  0999 V2000
    6.5384  -19.6248   26.2689 C   0  0  0  0  0  0  0  0  0  0  0  0
    5.8974  -19.5274   24.8897 C   0  0  2  0  0  0  0  0  0  0  0  0
    5.7308  -20.8570   24.3944 N   0  0  0  0  0  0  0  0  0  0  0  0
    6.8069  -18.7067   24.0522 C   0  0  0  0  0  0  0  0  0  0  0  0
    7.7715  -19.2859   23.4961 O   0  0  0  0  0  0  0  0  0  0  0  0
    8.7405  -13.5667   17.5959 N   0  0  0  0  0  0  0  0  0  0  0  0
    8.0404  -13.1562   18.7580 C   0  0  0  0  0  0  0  0  0  0  0  0
    8.0493  -11.9163   19.1571 N   0  0  0  0  0  0  0  0  0  0  0  0
    7.2880  -14.0727   19.5500 N   0  0  0  0  0  0  0  0  0  0  0  0
    7.9029  -14.9111   20.5181 C   0  0  0  0  0  0  0  0  0  0  0  0
    7.9835  -14.3317   21.9122 C   0  0  0  0  0  0  0  0  0  0  0  0
    7.0224  -15.1342   22.7584 C   0  0  0  0  0  0  0  0  0  0  0  0
    7.5759  -16.4671   23.1690 C   0  0  2  0  0  0  0  0  0  0  0  0
    6.6482  -17.3172   23.8468 N   0  0  0  0  0  0  0  0  0  0  0  0
    8.7915  -16.2764   24.0076 C   0  0  0  0  0  0  0  0  0  0  0  0
    8.7141  -15.7231   25.1376 O   0  0  0  0  0  0  0  0  0  0  0  0
    7.5025  -11.6987   20.0114 N   0  0  0  0  0  0  0  0  0  0  0  0
   10.0690  -16.6967   23.5900 C   0  0  1  0  0  0  0  0  0  0  0  0
   11.2782  -16.5730   24.3932 C   0  0  0  0  0  0  0  0  0  0  0  0
   11.6066  -17.8481   25.0936 C   0  0  0  0  0  0  0  0  0  0  0  0
   11.9239  -17.7027   26.5485 C   0  0  0  0  0  0  0  0  0  0  0  0
   12.2879  -19.0454   27.1811 C   0  0  0  0  0  0  0  0  0  0  0  0
   12.6368  -18.8098   28.6541 N   0  0  0  0  0  0  0  0  0  0  0  0
   13.0218  -20.0260   29.3015 C   0  0  0  0  0  0  0  0  0  0  0  0
   12.3796  -16.2005   23.4791 O   0  0  0  0  0  0  0  0  0  0  0  0
   13.6241  -15.7669   23.8983 O   0  0  0  0  0  0  0  0  0  0  0  0
  2  1  1  1
  2  3  1  0
  4  2  1  0
  4  5  2  0
  6  7  1  0
  7  8  2  0
  7  9  1  0
  9 10  1  0
 11 10  1  0
 12 11  1  0
 13 14  1  0
 13 12  1  1
 14  4  1  0
 15 13  1  0
 16 15  2  0
 17 15  1  0
 18 19  1  6
 18 17  1  0
 19 20  1  0
 20 21  1  0
 21 22  1  0
 23 22  1  0
 24 18  1  0
 25 24  1  0
 26 24  2  0
M  END
$$$$
