ARK.pdb
     RDKit          3D

 26 25  0  0  1  0  0  0  0  0999 V2000
   12.6905  -19.7332   22.3005 C   0  0  0  0  0  0  0  0  0  0  0  0
   12.3680  -18.6233   21.3072 C   0  0  2  0  0  0  0  0  0  0  0  0
   13.5718  -18.3052   20.6068 N   0  0  0  0  0  0  0  0  0  0  0  0
   11.8381  -17.4836   22.0961 C   0  0  0  0  0  0  0  0  0  0  0  0
   12.6607  -16.7775   22.7283 O   0  0  0  0  0  0  0  0  0  0  0  0
    7.4589  -12.3251   19.8401 N   0  0  0  0  0  0  0  0  0  0  0  0
    7.6395  -13.3443   18.8715 C   0  0  0  0  0  0  0  0  0  0  0  0
    8.1755  -13.0945   17.7108 N   0  0  0  0  0  0  0  0  0  0  0  0
    7.2493  -14.6942   19.1134 N   0  0  0  0  0  0  0  0  0  0  0  0
    7.3666  -15.2926   20.3965 C   0  0  0  0  0  0  0  0  0  0  0  0
    8.5169  -14.7886   21.2383 C   0  0  0  0  0  0  0  0  0  0  0  0
    8.5355  -15.6454   22.4829 C   0  0  0  0  0  0  0  0  0  0  0  0
    9.9208  -16.0455   22.8980 C   0  0  2  0  0  0  0  0  0  0  0  0
   10.4665  -17.1509   22.1748 N   0  0  0  0  0  0  0  0  0  0  0  0
    9.9506  -16.3338   24.3587 C   0  0  0  0  0  0  0  0  0  0  0  0
    9.7903  -17.5086   24.7866 O   0  0  0  0  0  0  0  0  0  0  0  0
    8.3144  -13.9052   17.0786 N   0  0  0  0  0  0  0  0  0  0  0  0
   10.1558  -15.3271   25.3217 C   0  0  2  0  0  0  0  0  0  0  0  0
   10.2469  -15.5679   26.7557 C   0  0  0  0  0  0  0  0  0  0  0  0
   10.2546  -14.2925   27.5286 C   0  0  0  0  0  0  0  0  0  0  0  0
   10.0822  -14.4515   29.0063 C   0  0  0  0  0  0  0  0  0  0  0  0
   11.3113  -15.0923   29.6498 C   0  0  0  0  0  0  0  0  0  0  0  0
   11.0809  -15.1743   31.1621 N   0  0  0  0  0  0  0  0  0  0  0  0
   12.1334  -15.8915   31.8135 C   0  0  0  0  0  0  0  0  0  0  0  0
    9.0765  -16.3854   27.1417 O   0  0  0  0  0  0  0  0  0  0  0  0
    9.1226  -17.4294   28.0477 O   0  0  0  0  0  0  0  0  0  0  0  0
  2  1  1  1
  2  3  1  0
  4  2  1  0
  4  5  2  0
  6  7  1  0
  7  8  2  0
  7  9  1  0
  9 10  1  0
 11 10  1  0
 12 11  1  0
 13 14  1  0
 13 12  1  6
 14  4  1  0
 15 13  1  0
 16 15  2  0
 17 15  1  0
 18 19  1  6
 18 17  1  0
 19 20  1  0
 20 21  1  0
 21 22  1  0
 23 22  1  0
 24 18  1  0
 25 24  1  0
 26 24  2  0
M  END
$$$$
