ARK.pdb
     RDKit          3D

 26 25  0  0  1  0  0  0  0  0999 V2000
   10.8973  -20.0620   19.3320 C   0  0  0  0  0  0  0  0  0  0  0  0
   11.3155  -21.0130   20.4470 C   0  0  2  0  0  0  0  0  0  0  0  0
   10.6725  -22.2668   20.2113 N   0  0  0  0  0  0  0  0  0  0  0  0
   10.9032  -20.3816   21.7250 C   0  0  0  0  0  0  0  0  0  0  0  0
   11.4584  -19.3042   22.0508 O   0  0  0  0  0  0  0  0  0  0  0  0
    3.8824  -21.3664   22.5780 N   0  0  0  0  0  0  0  0  0  0  0  0
    4.2332  -22.6697   23.0115 C   0  0  0  0  0  0  0  0  0  0  0  0
    3.5218  -23.7111   22.6858 N   0  0  0  0  0  0  0  0  0  0  0  0
    5.3807  -22.9129   23.8222 N   0  0  0  0  0  0  0  0  0  0  0  0
    6.2015  -21.8565   24.3004 C   0  0  0  0  0  0  0  0  0  0  0  0
    7.3009  -21.4198   23.3588 C   0  0  0  0  0  0  0  0  0  0  0  0
    8.0435  -20.3089   24.0644 C   0  0  0  0  0  0  0  0  0  0  0  0
    9.5268  -20.3640   23.8446 C   0  0  2  0  0  0  0  0  0  0  0  0
    9.9256  -20.9226   22.5910 N   0  0  0  0  0  0  0  0  0  0  0  0
   10.1786  -21.1069   24.9585 C   0  0  0  0  0  0  0  0  0  0  0  0
    9.9609  -22.3370   25.1265 O   0  0  0  0  0  0  0  0  0  0  0  0
    3.8304  -24.6239   23.0703 N   0  0  0  0  0  0  0  0  0  0  0  0
   11.0572  -20.4853   25.8667 C   0  0  1  0  0  0  0  0  0  0  0  0
   11.7889  -21.1867   26.9132 C   0  0  0  0  0  0  0  0  0  0  0  0
   13.2609  -20.9841   26.7861 C   0  0  0  0  0  0  0  0  0  0  0  0
   13.8373  -21.3740   25.4617 C   0  0  0  0  0  0  0  0  0  0  0  0
   15.3306  -21.0583   25.3838 C   0  0  0  0  0  0  0  0  0  0  0  0
   15.8703  -21.5880   24.0515 N   0  0  0  0  0  0  0  0  0  0  0  0
   17.2556  -21.2717   23.8853 C   0  0  0  0  0  0  0  0  0  0  0  0
   11.3166  -20.6594   28.2118 O   0  0  0  0  0  0  0  0  0  0  0  0
   11.6204  -21.2249   29.4368 O   0  0  0  0  0  0  0  0  0  0  0  0
  2  1  1  6
  2  3  1  0
  4  2  1  0
  4  5  2  0
  6  7  1  0
  7  8  2  0
  7  9  1  0
  9 10  1  0
 11 10  1  0
 12 11  1  0
 13 14  1  0
 13 12  1  1
 14  4  1  0
 15 13  1  0
 16 15  2  0
 17 15  1  0
 18 19  1  1
 18 17  1  0
 19 20  1  0
 20 21  1  0
 21 22  1  0
 23 22  1  0
 24 18  1  0
 25 24  1  0
 26 24  2  0
M  END
$$$$
