ARK.pdb
     RDKit          3D

 26 25  0  0  1  0  0  0  0  0999 V2000
    6.9801  -12.9538   19.1457 C   0  0  0  0  0  0  0  0  0  0  0  0
    8.3569  -13.2774   19.7133 C   0  0  2  0  0  0  0  0  0  0  0  0
    9.1263  -13.8765   18.6693 N   0  0  0  0  0  0  0  0  0  0  0  0
    8.1414  -14.1844   20.8679 C   0  0  0  0  0  0  0  0  0  0  0  0
    7.3719  -13.7966   21.7804 O   0  0  0  0  0  0  0  0  0  0  0  0
    9.5731  -18.3568   17.6943 N   0  0  0  0  0  0  0  0  0  0  0  0
    8.9977  -19.6404   17.8699 C   0  0  0  0  0  0  0  0  0  0  0  0
    8.4119  -20.2650   16.8883 N   0  0  0  0  0  0  0  0  0  0  0  0
    9.0304  -20.3178   19.1241 N   0  0  0  0  0  0  0  0  0  0  0  0
    9.3038  -19.6363   20.3402 C   0  0  0  0  0  0  0  0  0  0  0  0
    8.7100  -18.2501   20.4480 C   0  0  0  0  0  0  0  0  0  0  0  0
    9.0438  -17.7554   21.8363 C   0  0  0  0  0  0  0  0  0  0  0  0
    8.5668  -16.3554   22.0897 C   0  0  2  0  0  0  0  0  0  0  0  0
    8.7507  -15.4534   20.9965 N   0  0  0  0  0  0  0  0  0  0  0  0
    9.2205  -15.8088   23.3108 C   0  0  0  0  0  0  0  0  0  0  0  0
   10.4483  -15.5231   23.3110 O   0  0  0  0  0  0  0  0  0  0  0  0
    8.0291  -21.2060   17.0984 N   0  0  0  0  0  0  0  0  0  0  0  0
    8.5142  -15.5859   24.5085 C   0  0  1  0  0  0  0  0  0  0  0  0
    9.1265  -15.1390   25.7527 C   0  0  0  0  0  0  0  0  0  0  0  0
    8.1603  -14.3840   26.6015 C   0  0  0  0  0  0  0  0  0  0  0  0
    7.8087  -13.0211   26.0941 C   0  0  0  0  0  0  0  0  0  0  0  0
    6.7711  -12.3398   26.9856 C   0  0  0  0  0  0  0  0  0  0  0  0
    6.5281  -10.9239   26.4536 N   0  0  0  0  0  0  0  0  0  0  0  0
    5.5557  -10.2293   27.2400 C   0  0  0  0  0  0  0  0  0  0  0  0
    9.5965  -16.3432   26.4712 O   0  0  0  0  0  0  0  0  0  0  0  0
    9.2943  -17.6395   26.0958 O   0  0  0  0  0  0  0  0  0  0  0  0
  2  1  1  6
  2  3  1  0
  4  2  1  0
  4  5  2  0
  6  7  1  0
  7  8  2  0
  7  9  1  0
  9 10  1  0
 11 10  1  0
 12 11  1  0
 13 14  1  0
 13 12  1  6
 14  4  1  0
 15 13  1  0
 16 15  2  0
 17 15  1  0
 18 19  1  6
 18 17  1  0
 19 20  1  0
 20 21  1  0
 21 22  1  0
 23 22  1  0
 24 18  1  0
 25 24  1  0
 26 24  2  0
M  END
$$$$
