ARK.pdb
     RDKit          3D

 26 25  0  0  1  0  0  0  0  0999 V2000
    8.4548  -12.3858   18.9457 C   0  0  0  0  0  0  0  0  0  0  0  0
    8.7147  -13.8546   18.6333 C   0  0  2  0  0  0  0  0  0  0  0  0
    8.0044  -14.1754   17.4360 N   0  0  0  0  0  0  0  0  0  0  0  0
    8.2489  -14.6310   19.8091 C   0  0  0  0  0  0  0  0  0  0  0  0
    7.1323  -14.3355   20.2999 O   0  0  0  0  0  0  0  0  0  0  0  0
    6.4363  -20.3974   23.6446 N   0  0  0  0  0  0  0  0  0  0  0  0
    7.5886  -20.8265   24.3499 C   0  0  0  0  0  0  0  0  0  0  0  0
    7.5269  -21.1921   25.5987 N   0  0  0  0  0  0  0  0  0  0  0  0
    8.8733  -20.8847   23.7341 N   0  0  0  0  0  0  0  0  0  0  0  0
    9.2631  -19.9702   22.7192 C   0  0  0  0  0  0  0  0  0  0  0  0
    8.6240  -18.6028   22.8060 C   0  0  0  0  0  0  0  0  0  0  0  0
    9.1380  -17.8213   21.6192 C   0  0  0  0  0  0  0  0  0  0  0  0
    8.5909  -16.4254   21.5556 C   0  0  2  0  0  0  0  0  0  0  0  0
    8.9885  -15.6788   20.4036 N   0  0  0  0  0  0  0  0  0  0  0  0
    8.9562  -15.6794   22.7915 C   0  0  0  0  0  0  0  0  0  0  0  0
    9.9834  -14.9494   22.8232 O   0  0  0  0  0  0  0  0  0  0  0  0
    8.4158  -21.4959   26.0388 N   0  0  0  0  0  0  0  0  0  0  0  0
    8.1870  -15.7487   23.9690 C   0  0  2  0  0  0  0  0  0  0  0  0
    8.3566  -14.8648   25.1147 C   0  0  0  0  0  0  0  0  0  0  0  0
    7.3327  -13.7806   25.1299 C   0  0  0  0  0  0  0  0  0  0  0  0
    7.4477  -12.8229   26.2736 C   0  0  0  0  0  0  0  0  0  0  0  0
    6.3457  -11.7649   26.2337 C   0  0  0  0  0  0  0  0  0  0  0  0
    6.5954  -10.7604   27.3631 N   0  0  0  0  0  0  0  0  0  0  0  0
    5.5476   -9.7895   27.4407 C   0  0  0  0  0  0  0  0  0  0  0  0
    8.2335  -15.6931   26.3337 O   0  0  0  0  0  0  0  0  0  0  0  0
    8.9233  -15.4543   27.5084 O   0  0  0  0  0  0  0  0  0  0  0  0
  2  1  1  1
  2  3  1  0
  4  2  1  0
  4  5  2  0
  6  7  1  0
  7  8  2  0
  7  9  1  0
  9 10  1  0
 11 10  1  0
 12 11  1  0
 13 14  1  0
 13 12  1  1
 14  4  1  0
 15 13  1  0
 16 15  2  0
 17 15  1  0
 18 19  1  6
 18 17  1  0
 19 20  1  0
 20 21  1  0
 21 22  1  0
 23 22  1  0
 24 18  1  0
 25 24  1  0
 26 24  2  0
M  END
$$$$
