ARK.pdb
     RDKit          3D

 26 25  0  0  1  0  0  0  0  0999 V2000
    8.6846  -12.1809   19.3062 C   0  0  0  0  0  0  0  0  0  0  0  0
    8.1285  -13.5427   18.9076 C   0  0  2  0  0  0  0  0  0  0  0  0
    7.0285  -13.3199   18.0238 N   0  0  0  0  0  0  0  0  0  0  0  0
    7.7334  -14.2278   20.1633 C   0  0  0  0  0  0  0  0  0  0  0  0
    6.7289  -13.7915   20.7762 O   0  0  0  0  0  0  0  0  0  0  0  0
    8.6326  -20.4133   24.7791 N   0  0  0  0  0  0  0  0  0  0  0  0
    7.2492  -20.7022   24.6688 C   0  0  0  0  0  0  0  0  0  0  0  0
    6.5560  -21.1181   25.6902 N   0  0  0  0  0  0  0  0  0  0  0  0
    6.5416  -20.5514   23.4401 N   0  0  0  0  0  0  0  0  0  0  0  0
    6.9991  -19.6870   22.4097 C   0  0  0  0  0  0  0  0  0  0  0  0
    7.3286  -18.2789   22.8509 C   0  0  0  0  0  0  0  0  0  0  0  0
    7.6457  -17.5061   21.5917 C   0  0  0  0  0  0  0  0  0  0  0  0
    8.0226  -16.0786   21.8597 C   0  0  2  0  0  0  0  0  0  0  0  0
    8.4213  -15.3379   20.7044 N   0  0  0  0  0  0  0  0  0  0  0  0
    9.0951  -16.0210   22.8912 C   0  0  0  0  0  0  0  0  0  0  0  0
   10.2838  -16.3244   22.6019 O   0  0  0  0  0  0  0  0  0  0  0  0
    5.5342  -21.2253   25.5461 N   0  0  0  0  0  0  0  0  0  0  0  0
    8.8423  -15.6314   24.2206 C   0  0  2  0  0  0  0  0  0  0  0  0
    9.8453  -15.6152   25.2772 C   0  0  0  0  0  0  0  0  0  0  0  0
    9.3047  -15.0356   26.5405 C   0  0  0  0  0  0  0  0  0  0  0  0
   10.2369  -15.0954   27.7092 C   0  0  0  0  0  0  0  0  0  0  0  0
    9.5988  -14.5085   28.9677 C   0  0  0  0  0  0  0  0  0  0  0  0
   10.6251  -14.5633   30.1037 N   0  0  0  0  0  0  0  0  0  0  0  0
   10.0970  -14.0109   31.3130 C   0  0  0  0  0  0  0  0  0  0  0  0
   10.2704  -17.0134   25.5042 O   0  0  0  0  0  0  0  0  0  0  0  0
   11.5836  -17.4060   25.6892 O   0  0  0  0  0  0  0  0  0  0  0  0
  2  1  1  1
  2  3  1  0
  4  2  1  0
  4  5  2  0
  6  7  1  0
  7  8  2  0
  7  9  1  0
  9 10  1  0
 11 10  1  0
 12 11  1  0
 13 14  1  0
 13 12  1  6
 14  4  1  0
 15 13  1  0
 16 15  2  0
 17 15  1  0
 18 19  1  1
 18 17  1  0
 19 20  1  0
 20 21  1  0
 21 22  1  0
 23 22  1  0
 24 18  1  0
 25 24  1  0
 26 24  2  0
M  END
$$$$
