ARK.pdb
     RDKit          3D

 26 25  0  0  1  0  0  0  0  0999 V2000
    9.4761  -18.4243   17.5198 C   0  0  0  0  0  0  0  0  0  0  0  0
    9.0985  -19.1759   18.7906 C   0  0  2  0  0  0  0  0  0  0  0  0
    7.7125  -19.5104   18.7007 N   0  0  0  0  0  0  0  0  0  0  0  0
    9.4042  -18.2736   19.9283 C   0  0  0  0  0  0  0  0  0  0  0  0
   10.6083  -18.1261   20.2503 O   0  0  0  0  0  0  0  0  0  0  0  0
    8.3379  -12.9105   17.9792 N   0  0  0  0  0  0  0  0  0  0  0  0
    8.8101  -12.3141   19.1754 C   0  0  0  0  0  0  0  0  0  0  0  0
    9.5720  -11.2577   19.1560 N   0  0  0  0  0  0  0  0  0  0  0  0
    8.4767  -12.8330   20.4610 N   0  0  0  0  0  0  0  0  0  0  0  0
    8.5140  -14.2248   20.7432 C   0  0  0  0  0  0  0  0  0  0  0  0
    7.1947  -14.8308   21.1653 C   0  0  0  0  0  0  0  0  0  0  0  0
    7.5241  -15.8719   22.2098 C   0  0  0  0  0  0  0  0  0  0  0  0
    8.6672  -16.7591   21.8125 C   0  0  2  0  0  0  0  0  0  0  0  0
    8.4208  -17.5750   20.6652 N   0  0  0  0  0  0  0  0  0  0  0  0
    9.0708  -17.6142   22.9628 C   0  0  0  0  0  0  0  0  0  0  0  0
    8.2928  -18.4985   23.4120 O   0  0  0  0  0  0  0  0  0  0  0  0
    9.8690  -10.8815   20.0760 N   0  0  0  0  0  0  0  0  0  0  0  0
   10.3206  -17.4826   23.5981 C   0  0  2  0  0  0  0  0  0  0  0  0
   10.8310  -18.4022   24.6063 C   0  0  0  0  0  0  0  0  0  0  0  0
   12.0686  -19.0941   24.1441 C   0  0  0  0  0  0  0  0  0  0  0  0
   13.3401  -18.5677   24.7313 C   0  0  0  0  0  0  0  0  0  0  0  0
   14.5640  -19.2635   24.1368 C   0  0  0  0  0  0  0  0  0  0  0  0
   15.8218  -18.6538   24.7637 N   0  0  0  0  0  0  0  0  0  0  0  0
   17.0108  -19.2456   24.2322 C   0  0  0  0  0  0  0  0  0  0  0  0
   11.1190  -17.6100   25.8215 O   0  0  0  0  0  0  0  0  0  0  0  0
   11.1279  -16.2276   25.8639 O   0  0  0  0  0  0  0  0  0  0  0  0
  2  1  1  6
  2  3  1  0
  4  2  1  0
  4  5  2  0
  6  7  1  0
  7  8  2  0
  7  9  1  0
  9 10  1  0
 11 10  1  0
 12 11  1  0
 13 14  1  0
 13 12  1  1
 14  4  1  0
 15 13  1  0
 16 15  2  0
 17 15  1  0
 18 19  1  6
 18 17  1  0
 19 20  1  0
 20 21  1  0
 21 22  1  0
 23 22  1  0
 24 18  1  0
 25 24  1  0
 26 24  2  0
M  END
$$$$
