ARK.pdb
     RDKit          3D

 26 25  0  0  1  0  0  0  0  0999 V2000
    8.3472  -11.8374   19.2690 C   0  0  0  0  0  0  0  0  0  0  0  0
    8.4889  -13.2186   18.6407 C   0  0  2  0  0  0  0  0  0  0  0  0
    7.5811  -13.2892   17.5399 N   0  0  0  0  0  0  0  0  0  0  0  0
    8.1860  -14.2063   19.7059 C   0  0  0  0  0  0  0  0  0  0  0  0
    7.0201  -14.2268   20.1699 O   0  0  0  0  0  0  0  0  0  0  0  0
    9.4483  -21.1685   21.0308 N   0  0  0  0  0  0  0  0  0  0  0  0
    8.1394  -21.2811   20.4984 C   0  0  0  0  0  0  0  0  0  0  0  0
    7.3248  -22.2215   20.8846 N   0  0  0  0  0  0  0  0  0  0  0  0
    7.6422  -20.3738   19.5172 N   0  0  0  0  0  0  0  0  0  0  0  0
    8.4025  -19.2610   19.0679 C   0  0  0  0  0  0  0  0  0  0  0  0
    7.9784  -17.9233   19.6304 C   0  0  0  0  0  0  0  0  0  0  0  0
    9.0223  -17.5474   20.6563 C   0  0  0  0  0  0  0  0  0  0  0  0
    8.8560  -16.1497   21.1762 C   0  0  2  0  0  0  0  0  0  0  0  0
    9.1319  -15.1202   20.2241 N   0  0  0  0  0  0  0  0  0  0  0  0
    9.6981  -15.9547   22.3888 C   0  0  0  0  0  0  0  0  0  0  0  0
   10.9409  -15.7704   22.2869 O   0  0  0  0  0  0  0  0  0  0  0  0
    6.3917  -22.2434   20.4317 N   0  0  0  0  0  0  0  0  0  0  0  0
    9.1600  -15.9657   23.6900 C   0  0  2  0  0  0  0  0  0  0  0  0
    9.9552  -15.8964   24.9089 C   0  0  0  0  0  0  0  0  0  0  0  0
    9.0962  -15.7483   26.1189 C   0  0  0  0  0  0  0  0  0  0  0  0
    9.8105  -15.9204   27.4222 C   0  0  0  0  0  0  0  0  0  0  0  0
    9.6126  -14.7112   28.3355 C   0  0  0  0  0  0  0  0  0  0  0  0
   10.4061  -14.9416   29.6256 N   0  0  0  0  0  0  0  0  0  0  0  0
   10.1732  -13.8984   30.5764 C   0  0  0  0  0  0  0  0  0  0  0  0
   10.7397  -17.1471   24.9962 O   0  0  0  0  0  0  0  0  0  0  0  0
   12.0701  -17.2054   25.3697 O   0  0  0  0  0  0  0  0  0  0  0  0
  2  1  1  1
  2  3  1  0
  4  2  1  0
  4  5  2  0
  6  7  1  0
  7  8  2  0
  7  9  1  0
  9 10  1  0
 11 10  1  0
 12 11  1  0
 13 14  1  0
 13 12  1  6
 14  4  1  0
 15 13  1  0
 16 15  2  0
 17 15  1  0
 18 19  1  1
 18 17  1  0
 19 20  1  0
 20 21  1  0
 21 22  1  0
 23 22  1  0
 24 18  1  0
 25 24  1  0
 26 24  2  0
M  END
$$$$
