ARK.pdb
     RDKit          3D

 26 25  0  0  1  0  0  0  0  0999 V2000
   11.0719  -21.6602   19.7065 C   0  0  0  0  0  0  0  0  0  0  0  0
    9.5997  -21.9905   19.9215 C   0  0  2  0  0  0  0  0  0  0  0  0
    8.8492  -21.2937   18.9255 N   0  0  0  0  0  0  0  0  0  0  0  0
    9.2633  -21.5660   21.3031 C   0  0  0  0  0  0  0  0  0  0  0  0
    8.9891  -20.3560   21.4926 O   0  0  0  0  0  0  0  0  0  0  0  0
    3.7675  -24.2379   26.0842 N   0  0  0  0  0  0  0  0  0  0  0  0
    3.4124  -23.6334   24.8521 C   0  0  0  0  0  0  0  0  0  0  0  0
    2.2343  -23.8047   24.3232 N   0  0  0  0  0  0  0  0  0  0  0  0
    4.3194  -22.8055   24.1276 N   0  0  0  0  0  0  0  0  0  0  0  0
    5.6748  -22.6487   24.5233 C   0  0  0  0  0  0  0  0  0  0  0  0
    6.6631  -23.5327   23.7970 C   0  0  0  0  0  0  0  0  0  0  0  0
    8.0157  -23.2399   24.4037 C   0  0  0  0  0  0  0  0  0  0  0  0
    8.7381  -22.1212   23.7121 C   0  0  2  0  0  0  0  0  0  0  0  0
    9.2345  -22.4433   22.4111 N   0  0  0  0  0  0  0  0  0  0  0  0
    9.8514  -21.6282   24.5693 C   0  0  0  0  0  0  0  0  0  0  0  0
   10.8950  -22.3170   24.7290 O   0  0  0  0  0  0  0  0  0  0  0  0
    2.0745  -23.3722   23.3938 N   0  0  0  0  0  0  0  0  0  0  0  0
    9.7981  -20.3884   25.2350 C   0  0  2  0  0  0  0  0  0  0  0  0
   10.8894  -19.8313   26.0233 C   0  0  0  0  0  0  0  0  0  0  0  0
   11.0022  -18.3554   25.8414 C   0  0  0  0  0  0  0  0  0  0  0  0
   11.3927  -17.9195   24.4644 C   0  0  0  0  0  0  0  0  0  0  0  0
   11.3377  -16.3992   24.3194 C   0  0  0  0  0  0  0  0  0  0  0  0
   11.8540  -16.0249   22.9265 N   0  0  0  0  0  0  0  0  0  0  0  0
   11.6653  -14.6331   22.6551 C   0  0  0  0  0  0  0  0  0  0  0  0
   10.6149  -20.1458   27.4421 O   0  0  0  0  0  0  0  0  0  0  0  0
    9.3906  -20.5770   27.9196 O   0  0  0  0  0  0  0  0  0  0  0  0
  2  1  1  6
  2  3  1  0
  4  2  1  0
  4  5  2  0
  6  7  1  0
  7  8  2  0
  7  9  1  0
  9 10  1  0
 11 10  1  0
 12 11  1  0
 13 14  1  0
 13 12  1  1
 14  4  1  0
 15 13  1  0
 16 15  2  0
 17 15  1  0
 18 19  1  6
 18 17  1  0
 19 20  1  0
 20 21  1  0
 21 22  1  0
 23 22  1  0
 24 18  1  0
 25 24  1  0
 26 24  2  0
M  END
$$$$
