ARK.pdb
     RDKit          3D

 26 25  0  0  1  0  0  0  0  0999 V2000
    8.6771  -18.9236   19.5155 C   0  0  0  0  0  0  0  0  0  0  0  0
    8.6424  -17.4083   19.3574 C   0  0  2  0  0  0  0  0  0  0  0  0
    9.5555  -17.0601   18.3153 N   0  0  0  0  0  0  0  0  0  0  0  0
    9.0170  -16.8321   20.6726 C   0  0  0  0  0  0  0  0  0  0  0  0
   10.2195  -16.9091   21.0235 O   0  0  0  0  0  0  0  0  0  0  0  0
    5.0622  -10.8421   26.7073 N   0  0  0  0  0  0  0  0  0  0  0  0
    6.3875  -11.3127   26.5296 C   0  0  0  0  0  0  0  0  0  0  0  0
    7.3958  -10.4929   26.4393 N   0  0  0  0  0  0  0  0  0  0  0  0
    6.6903  -12.7034   26.4432 N   0  0  0  0  0  0  0  0  0  0  0  0
    6.5017  -13.4411   25.2438 C   0  0  0  0  0  0  0  0  0  0  0  0
    7.7420  -14.1139   24.7010 C   0  0  0  0  0  0  0  0  0  0  0  0
    7.3188  -14.8179   23.4327 C   0  0  0  0  0  0  0  0  0  0  0  0
    8.4270  -15.6120   22.8058 C   0  0  2  0  0  0  0  0  0  0  0  0
    8.1003  -16.2050   21.5471 N   0  0  0  0  0  0  0  0  0  0  0  0
    8.8981  -16.6617   23.7512 C   0  0  0  0  0  0  0  0  0  0  0  0
    8.1646  -17.6458   24.0384 O   0  0  0  0  0  0  0  0  0  0  0  0
    8.3072  -10.9051   26.1643 N   0  0  0  0  0  0  0  0  0  0  0  0
   10.1653  -16.6112   24.3632 C   0  0  2  0  0  0  0  0  0  0  0  0
   10.7003  -17.6510   25.2322 C   0  0  0  0  0  0  0  0  0  0  0  0
   12.1727  -17.8110   25.0571 C   0  0  0  0  0  0  0  0  0  0  0  0
   12.5833  -18.9854   24.2260 C   0  0  0  0  0  0  0  0  0  0  0  0
   14.1020  -19.0632   24.0744 C   0  0  0  0  0  0  0  0  0  0  0  0
   14.4379  -20.2299   23.1401 N   0  0  0  0  0  0  0  0  0  0  0  0
   15.8513  -20.3795   22.9774 C   0  0  0  0  0  0  0  0  0  0  0  0
   10.3968  -17.2613   26.6262 O   0  0  0  0  0  0  0  0  0  0  0  0
    9.6853  -16.1291   26.9791 O   0  0  0  0  0  0  0  0  0  0  0  0
  2  1  1  1
  2  3  1  0
  4  2  1  0
  4  5  2  0
  6  7  1  0
  7  8  2  0
  7  9  1  0
  9 10  1  0
 11 10  1  0
 12 11  1  0
 13 14  1  0
 13 12  1  1
 14  4  1  0
 15 13  1  0
 16 15  2  0
 17 15  1  0
 18 19  1  6
 18 17  1  0
 19 20  1  0
 20 21  1  0
 21 22  1  0
 23 22  1  0
 24 18  1  0
 25 24  1  0
 26 24  2  0
M  END
$$$$
