ARK.pdb
     RDKit          3D

 26 25  0  0  1  0  0  0  0  0999 V2000
    8.9723  -21.0923   22.6954 C   0  0  0  0  0  0  0  0  0  0  0  0
    9.1833  -20.9278   21.1951 C   0  0  2  0  0  0  0  0  0  0  0  0
    9.7044  -22.1595   20.6930 N   0  0  0  0  0  0  0  0  0  0  0  0
   10.1166  -19.7880   21.0166 C   0  0  0  0  0  0  0  0  0  0  0  0
   11.3455  -20.0397   20.9743 O   0  0  0  0  0  0  0  0  0  0  0  0
    7.7185  -11.7514   21.2038 N   0  0  0  0  0  0  0  0  0  0  0  0
    7.7587  -12.2678   19.8843 C   0  0  0  0  0  0  0  0  0  0  0  0
    7.0026  -11.7849   18.9398 N   0  0  0  0  0  0  0  0  0  0  0  0
    8.6271  -13.3377   19.5178 N   0  0  0  0  0  0  0  0  0  0  0  0
    8.1717  -14.6807   19.4331 C   0  0  0  0  0  0  0  0  0  0  0  0
    8.7357  -15.6179   20.4767 C   0  0  0  0  0  0  0  0  0  0  0  0
    9.9889  -16.2119   19.8765 C   0  0  0  0  0  0  0  0  0  0  0  0
   10.5670  -17.3206   20.7060 C   0  0  2  0  0  0  0  0  0  0  0  0
    9.7014  -18.4425   20.8923 N   0  0  0  0  0  0  0  0  0  0  0  0
   11.0009  -16.7927   22.0291 C   0  0  0  0  0  0  0  0  0  0  0  0
   10.1852  -16.7039   22.9860 O   0  0  0  0  0  0  0  0  0  0  0  0
    6.9642  -12.3233   18.0539 N   0  0  0  0  0  0  0  0  0  0  0  0
   12.3219  -16.3724   22.2766 C   0  0  1  0  0  0  0  0  0  0  0  0
   12.9201  -16.2796   23.6018 C   0  0  0  0  0  0  0  0  0  0  0  0
   12.9224  -17.5984   24.2983 C   0  0  0  0  0  0  0  0  0  0  0  0
   13.6539  -17.6192   25.6033 C   0  0  0  0  0  0  0  0  0  0  0  0
   13.6921  -19.0240   26.2038 C   0  0  0  0  0  0  0  0  0  0  0  0
   14.4687  -18.9674   27.5231 N   0  0  0  0  0  0  0  0  0  0  0  0
   14.5722  -20.2610   28.1251 C   0  0  0  0  0  0  0  0  0  0  0  0
   14.3076  -15.7980   23.4275 O   0  0  0  0  0  0  0  0  0  0  0  0
   15.0218  -15.1185   24.3975 O   0  0  0  0  0  0  0  0  0  0  0  0
  2  1  1  1
  2  3  1  0
  4  2  1  0
  4  5  2  0
  6  7  1  0
  7  8  2  0
  7  9  1  0
  9 10  1  0
 11 10  1  0
 12 11  1  0
 13 14  1  0
 13 12  1  1
 14  4  1  0
 15 13  1  0
 16 15  2  0
 17 15  1  0
 18 19  1  1
 18 17  1  0
 19 20  1  0
 20 21  1  0
 21 22  1  0
 23 22  1  0
 24 18  1  0
 25 24  1  0
 26 24  2  0
M  END
$$$$
