ERG.pdb
     RDKit          3D

 25 24  0  0  1  0  0  0  0  0999 V2000
   14.5588  -16.6619   15.2217 N   0  0  0  0  0  0  0  0  0  0  0  0
   13.9443  -17.3823   16.3196 C   0  0  1  0  0  0  0  0  0  0  0  0
   14.8382  -18.5023   16.7161 C   0  0  0  0  0  0  0  0  0  0  0  0
   16.1644  -17.9990   17.1877 C   0  0  0  0  0  0  0  0  0  0  0  0
   17.1118  -19.0275   17.6482 C   0  0  0  0  0  0  0  0  0  0  0  0
   18.2203  -18.7279   18.1030 O   0  0  0  0  0  0  0  0  0  0  0  0
   13.6455  -16.4655   17.4599 C   0  0  0  0  0  0  0  0  0  0  0  0
   14.2021  -15.3440   17.5489 O   0  0  0  0  0  0  0  0  0  0  0  0
   16.7980  -20.3932   17.5911 O   0  0  0  0  0  0  0  0  0  0  0  0
    7.5163  -13.3233   18.2480 N   0  0  0  0  0  0  0  0  0  0  0  0
    7.9580  -12.5444   19.3785 C   0  0  0  0  0  0  0  0  0  0  0  0
    7.9136  -11.2587   19.3759 N   0  0  0  0  0  0  0  0  0  0  0  0
    8.4629  -13.1750   20.5440 N   0  0  0  0  0  0  0  0  0  0  0  0
    8.7641  -14.6221   20.5456 C   0  0  0  0  0  0  0  0  0  0  0  0
   10.2413  -14.7309   20.4502 C   0  0  0  0  0  0  0  0  0  0  0  0
   10.7610  -15.8526   19.6085 C   0  0  0  0  0  0  0  0  0  0  0  0
   12.2304  -15.9859   19.4945 C   0  0  2  0  0  0  0  0  0  0  0  0
   12.7041  -16.8868   18.4629 N   0  0  0  0  0  0  0  0  0  0  0  0
   12.7516  -16.4198   20.8282 C   0  0  0  0  0  0  0  0  0  0  0  0
   12.0291  -17.2436   21.4605 O   0  0  0  0  0  0  0  0  0  0  0  0
    8.1386  -10.6556   20.1895 N   0  0  0  0  0  0  0  0  0  0  0  0
   13.9607  -15.9716   21.3934 C   0  0  0  0  0  0  0  0  0  0  0  0
   14.3547  -16.3437   22.7611 C   0  0  0  0  0  0  0  0  0  0  0  0
   15.6495  -15.7334   23.0995 O   0  0  0  0  0  0  0  0  0  0  0  0
   16.1518  -15.8620   24.3804 O   0  0  0  0  0  0  0  0  0  0  0  0
  2  1  1  6
  2  7  1  0
  2  3  1  0
  4  5  1  0
  4  3  1  0
  5  9  1  0
  6  5  2  0
  7  8  2  0
 10 11  1  0
 11 12  2  0
 11 13  1  0
 13 14  1  0
 14 15  1  0
 15 16  1  0
 17 16  1  1
 17 19  1  0
 18 17  1  0
 18  7  1  0
 19 20  2  0
 21 22  1  0
 21 19  1  0
 23 22  1  0
 24 23  1  0
 25 23  2  0
M  END
$$$$
