ERG.pdb
     RDKit          3D

 25 24  0  0  1  0  0  0  0  0999 V2000
   10.6325  -19.4236   18.2692 N   0  0  0  0  0  0  0  0  0  0  0  0
   11.7669  -18.5255   18.3631 C   0  0  1  0  0  0  0  0  0  0  0  0
   12.0269  -17.9419   17.0206 C   0  0  0  0  0  0  0  0  0  0  0  0
   10.8160  -18.0243   16.1479 C   0  0  0  0  0  0  0  0  0  0  0  0
   10.9626  -17.4602   14.7959 C   0  0  0  0  0  0  0  0  0  0  0  0
   10.9912  -16.2404   14.6042 O   0  0  0  0  0  0  0  0  0  0  0  0
   11.5343  -17.4770   19.4008 C   0  0  0  0  0  0  0  0  0  0  0  0
   12.3798  -16.5719   19.6042 O   0  0  0  0  0  0  0  0  0  0  0  0
   11.0765  -18.2824   13.6655 O   0  0  0  0  0  0  0  0  0  0  0  0
    7.3046  -13.4612   16.2378 N   0  0  0  0  0  0  0  0  0  0  0  0
    7.6056  -13.2255   17.6284 C   0  0  0  0  0  0  0  0  0  0  0  0
    6.8053  -12.5718   18.3947 N   0  0  0  0  0  0  0  0  0  0  0  0
    8.8070  -13.7103   18.2052 N   0  0  0  0  0  0  0  0  0  0  0  0
    8.9055  -13.9313   19.6634 C   0  0  0  0  0  0  0  0  0  0  0  0
    8.2876  -15.2567   19.9172 C   0  0  0  0  0  0  0  0  0  0  0  0
    8.6974  -15.9369   21.1846 C   0  0  0  0  0  0  0  0  0  0  0  0
   10.0430  -16.5523   21.2154 C   0  0  2  0  0  0  0  0  0  0  0  0
   10.3194  -17.5174   20.1702 N   0  0  0  0  0  0  0  0  0  0  0  0
   10.2199  -17.1899   22.5573 C   0  0  0  0  0  0  0  0  0  0  0  0
    9.3469  -18.0470   22.8792 O   0  0  0  0  0  0  0  0  0  0  0  0
    6.9688  -12.3850   19.4021 N   0  0  0  0  0  0  0  0  0  0  0  0
   11.2702  -16.8926   23.4465 C   0  0  0  0  0  0  0  0  0  0  0  0
   11.3733  -17.5459   24.7606 C   0  0  0  0  0  0  0  0  0  0  0  0
   12.6520  -17.1997   25.3999 O   0  0  0  0  0  0  0  0  0  0  0  0
   12.9482  -17.7028   26.6524 O   0  0  0  0  0  0  0  0  0  0  0  0
  2  1  1  6
  2  7  1  0
  2  3  1  0
  4  5  1  0
  4  3  1  0
  5  9  1  0
  6  5  2  0
  7  8  2  0
 10 11  1  0
 11 12  2  0
 11 13  1  0
 13 14  1  0
 14 15  1  0
 15 16  1  0
 17 16  1  6
 17 19  1  0
 18 17  1  0
 18  7  1  0
 19 20  2  0
 21 22  1  0
 21 19  1  0
 23 22  1  0
 24 23  1  0
 25 23  2  0
M  END
$$$$
