ERG.pdb
     RDKit          3D

 25 24  0  0  1  0  0  0  0  0999 V2000
   10.9345  -28.3680   34.2086 N   0  0  0  0  0  0  0  0  0  0  0  0
   10.1798  -27.2525   33.6716 C   0  0  1  0  0  0  0  0  0  0  0  0
    9.2203  -26.7827   34.7055 C   0  0  0  0  0  0  0  0  0  0  0  0
    9.5824  -27.3020   36.0597 C   0  0  0  0  0  0  0  0  0  0  0  0
    8.6874  -26.9022   37.1582 C   0  0  0  0  0  0  0  0  0  0  0  0
    7.6670  -26.2378   36.9512 O   0  0  0  0  0  0  0  0  0  0  0  0
   11.0913  -26.1638   33.2086 C   0  0  0  0  0  0  0  0  0  0  0  0
   12.1549  -25.9077   33.8241 O   0  0  0  0  0  0  0  0  0  0  0  0
    8.9534  -27.2578   38.4885 O   0  0  0  0  0  0  0  0  0  0  0  0
   10.7898  -24.7203   24.7934 N   0  0  0  0  0  0  0  0  0  0  0  0
   11.2980  -25.8957   25.4567 C   0  0  0  0  0  0  0  0  0  0  0  0
   11.6094  -26.9610   24.8062 N   0  0  0  0  0  0  0  0  0  0  0  0
   11.4731  -25.9188   26.8638 N   0  0  0  0  0  0  0  0  0  0  0  0
   11.2070  -24.7119   27.6747 C   0  0  0  0  0  0  0  0  0  0  0  0
   11.5166  -25.0869   29.0770 C   0  0  0  0  0  0  0  0  0  0  0  0
   11.3612  -24.0008   30.0934 C   0  0  0  0  0  0  0  0  0  0  0  0
   11.5892  -24.3645   31.5097 C   0  0  2  0  0  0  0  0  0  0  0  0
   10.7325  -25.4066   32.0392 N   0  0  0  0  0  0  0  0  0  0  0  0
   11.4425  -23.1200   32.3273 C   0  0  0  0  0  0  0  0  0  0  0  0
   10.2691  -22.6559   32.4180 O   0  0  0  0  0  0  0  0  0  0  0  0
   11.9676  -27.8349   25.2354 N   0  0  0  0  0  0  0  0  0  0  0  0
   12.5067  -22.4641   32.9748 C   0  0  0  0  0  0  0  0  0  0  0  0
   13.7747  -22.1871   32.2822 C   0  0  0  0  0  0  0  0  0  0  0  0
   13.6848  -20.9147   31.5498 O   0  0  0  0  0  0  0  0  0  0  0  0
   14.8417  -20.2685   31.1579 O   0  0  0  0  0  0  0  0  0  0  0  0
  2  1  1  1
  2  7  1  0
  2  3  1  0
  4  5  1  0
  4  3  1  0
  5  9  1  0
  6  5  2  0
  7  8  2  0
 10 11  1  0
 11 12  2  0
 11 13  1  0
 13 14  1  0
 14 15  1  0
 15 16  1  0
 17 16  1  6
 17 19  1  0
 18 17  1  0
 18  7  1  0
 19 20  2  0
 21 22  1  0
 21 19  1  0
 23 22  1  0
 24 23  1  0
 25 23  2  0
M  END
$$$$
