ERG.pdb
     RDKit          3D

 25 24  0  0  1  0  0  0  0  0999 V2000
    8.0021  -18.0938   19.2782 N   0  0  0  0  0  0  0  0  0  0  0  0
    8.6865  -16.8475   18.9941 C   0  0  1  0  0  0  0  0  0  0  0  0
    7.9170  -16.1043   17.9616 C   0  0  0  0  0  0  0  0  0  0  0  0
    8.6482  -14.8794   17.5150 C   0  0  0  0  0  0  0  0  0  0  0  0
    8.0111  -14.1140   16.4306 C   0  0  0  0  0  0  0  0  0  0  0  0
    7.6873  -12.9313   16.5783 O   0  0  0  0  0  0  0  0  0  0  0  0
    8.8805  -16.0480   20.2404 C   0  0  0  0  0  0  0  0  0  0  0  0
    9.6785  -15.0795   20.2678 O   0  0  0  0  0  0  0  0  0  0  0  0
    7.7434  -14.6935   15.1819 O   0  0  0  0  0  0  0  0  0  0  0  0
    7.0104  -11.7077   28.2386 N   0  0  0  0  0  0  0  0  0  0  0  0
    6.7835  -12.0021   26.8451 C   0  0  0  0  0  0  0  0  0  0  0  0
    5.8149  -11.4685   26.1877 N   0  0  0  0  0  0  0  0  0  0  0  0
    7.6281  -12.9000   26.1441 N   0  0  0  0  0  0  0  0  0  0  0  0
    7.2855  -13.3418   24.7759 C   0  0  0  0  0  0  0  0  0  0  0  0
    7.2871  -14.8256   24.8146 C   0  0  0  0  0  0  0  0  0  0  0  0
    7.1155  -15.5139   23.4979 C   0  0  0  0  0  0  0  0  0  0  0  0
    8.3327  -15.7250   22.6832 C   0  0  2  0  0  0  0  0  0  0  0  0
    8.1354  -16.4042   21.4183 N   0  0  0  0  0  0  0  0  0  0  0  0
    9.3137  -16.4832   23.5209 C   0  0  0  0  0  0  0  0  0  0  0  0
    8.8640  -17.5163   24.0961 O   0  0  0  0  0  0  0  0  0  0  0  0
    5.6297  -11.6183   25.1780 N   0  0  0  0  0  0  0  0  0  0  0  0
   10.6617  -16.1160   23.6948 C   0  0  0  0  0  0  0  0  0  0  0  0
   11.3616  -16.3408   24.9691 C   0  0  0  0  0  0  0  0  0  0  0  0
   12.2657  -17.4952   24.8541 O   0  0  0  0  0  0  0  0  0  0  0  0
   12.3188  -18.2065   23.6705 O   0  0  0  0  0  0  0  0  0  0  0  0
  2  1  1  1
  2  7  1  0
  2  3  1  0
  4  5  1  0
  4  3  1  0
  5  9  1  0
  6  5  2  0
  7  8  2  0
 10 11  1  0
 11 12  2  0
 11 13  1  0
 13 14  1  0
 14 15  1  0
 15 16  1  0
 17 16  1  1
 17 19  1  0
 18 17  1  0
 18  7  1  0
 19 20  2  0
 21 22  1  0
 21 19  1  0
 23 22  1  0
 24 23  1  0
 25 23  2  0
M  END
$$$$
