ERG.pdb
     RDKit          3D

 25 24  0  0  1  0  0  0  0  0999 V2000
    9.7794  -16.4289   17.6944 N   0  0  0  0  0  0  0  0  0  0  0  0
   10.1458  -17.2086   18.8607 C   0  0  1  0  0  0  0  0  0  0  0  0
   11.3595  -18.0055   18.5409 C   0  0  0  0  0  0  0  0  0  0  0  0
   12.0303  -17.5021   17.3035 C   0  0  0  0  0  0  0  0  0  0  0  0
   13.4950  -17.3719   17.3779 C   0  0  0  0  0  0  0  0  0  0  0  0
   14.2214  -18.3507   17.5769 O   0  0  0  0  0  0  0  0  0  0  0  0
   10.3435  -16.3289   20.0512 C   0  0  0  0  0  0  0  0  0  0  0  0
   11.2941  -15.5106   20.0979 O   0  0  0  0  0  0  0  0  0  0  0  0
   14.1306  -16.1311   17.2260 O   0  0  0  0  0  0  0  0  0  0  0  0
    8.3094  -11.9575   18.7803 N   0  0  0  0  0  0  0  0  0  0  0  0
    8.5543  -13.3756   18.6853 C   0  0  0  0  0  0  0  0  0  0  0  0
    9.1725  -13.8918   17.6820 N   0  0  0  0  0  0  0  0  0  0  0  0
    8.1169  -14.2595   19.7042 N   0  0  0  0  0  0  0  0  0  0  0  0
    7.2870  -13.7656   20.8231 C   0  0  0  0  0  0  0  0  0  0  0  0
    8.2110  -13.5982   21.9727 C   0  0  0  0  0  0  0  0  0  0  0  0
    8.4705  -14.8258   22.7866 C   0  0  0  0  0  0  0  0  0  0  0  0
    9.6082  -15.6789   22.3769 C   0  0  2  0  0  0  0  0  0  0  0  0
    9.4234  -16.4317   21.1524 N   0  0  0  0  0  0  0  0  0  0  0  0
    9.9067  -16.6116   23.5081 C   0  0  0  0  0  0  0  0  0  0  0  0
    8.9275  -17.2880   23.9372 O   0  0  0  0  0  0  0  0  0  0  0  0
    9.3775  -14.9023   17.5676 N   0  0  0  0  0  0  0  0  0  0  0  0
   11.1760  -16.7663   24.0972 C   0  0  0  0  0  0  0  0  0  0  0  0
   11.4123  -17.7466   25.1685 C   0  0  0  0  0  0  0  0  0  0  0  0
   12.7936  -17.6357   25.6614 O   0  0  0  0  0  0  0  0  0  0  0  0
   13.2231  -18.4615   26.6828 O   0  0  0  0  0  0  0  0  0  0  0  0
  2  1  1  6
  2  7  1  0
  2  3  1  0
  4  5  1  0
  4  3  1  0
  5  9  1  0
  6  5  2  0
  7  8  2  0
 10 11  1  0
 11 12  2  0
 11 13  1  0
 13 14  1  0
 14 15  1  0
 15 16  1  0
 17 16  1  1
 17 19  1  0
 18 17  1  0
 18  7  1  0
 19 20  2  0
 21 22  1  0
 21 19  1  0
 23 22  1  0
 24 23  1  0
 25 23  2  0
M  END
$$$$
