ERG.pdb
     RDKit          3D

 25 24  0  0  1  0  0  0  0  0999 V2000
   14.1385  -17.5087   17.1124 N   0  0  0  0  0  0  0  0  0  0  0  0
   13.8662  -18.0873   18.4136 C   0  0  1  0  0  0  0  0  0  0  0  0
   15.0357  -18.9073   18.8263 C   0  0  0  0  0  0  0  0  0  0  0  0
   16.3089  -18.1313   18.7195 C   0  0  0  0  0  0  0  0  0  0  0  0
   17.5283  -18.8427   19.1376 C   0  0  0  0  0  0  0  0  0  0  0  0
   18.6390  -18.3048   19.0890 O   0  0  0  0  0  0  0  0  0  0  0  0
   13.5378  -17.0265   19.4123 C   0  0  0  0  0  0  0  0  0  0  0  0
   13.9917  -15.8627   19.2899 O   0  0  0  0  0  0  0  0  0  0  0  0
   17.4832  -20.1625   19.6096 O   0  0  0  0  0  0  0  0  0  0  0  0
    6.6461  -13.1277   18.8545 N   0  0  0  0  0  0  0  0  0  0  0  0
    7.7943  -13.2680   17.9931 C   0  0  0  0  0  0  0  0  0  0  0  0
    7.7697  -12.8927   16.7628 N   0  0  0  0  0  0  0  0  0  0  0  0
    9.0025  -13.8312   18.4770 N   0  0  0  0  0  0  0  0  0  0  0  0
    9.0086  -14.6608   19.7002 C   0  0  0  0  0  0  0  0  0  0  0  0
   10.4232  -15.0536   19.9191 C   0  0  0  0  0  0  0  0  0  0  0  0
   10.6696  -16.0098   21.0423 C   0  0  0  0  0  0  0  0  0  0  0  0
   12.0791  -16.3364   21.3533 C   0  0  2  0  0  0  0  0  0  0  0  0
   12.6878  -17.3577   20.5246 N   0  0  0  0  0  0  0  0  0  0  0  0
   12.1442  -16.7422   22.7920 C   0  0  0  0  0  0  0  0  0  0  0  0
   11.6079  -17.8522   23.0760 O   0  0  0  0  0  0  0  0  0  0  0  0
    8.5658  -12.9722   16.1023 N   0  0  0  0  0  0  0  0  0  0  0  0
   12.7491  -15.9770   23.8073 C   0  0  0  0  0  0  0  0  0  0  0  0
   12.5579  -16.2987   25.2301 C   0  0  0  0  0  0  0  0  0  0  0  0
   13.6293  -17.1922   25.6962 O   0  0  0  0  0  0  0  0  0  0  0  0
   13.6958  -17.5408   27.0317 O   0  0  0  0  0  0  0  0  0  0  0  0
  2  1  1  6
  2  7  1  0
  2  3  1  0
  4  5  1  0
  4  3  1  0
  5  9  1  0
  6  5  2  0
  7  8  2  0
 10 11  1  0
 11 12  2  0
 11 13  1  0
 13 14  1  0
 14 15  1  0
 15 16  1  0
 17 16  1  6
 17 19  1  0
 18 17  1  0
 18  7  1  0
 19 20  2  0
 21 22  1  0
 21 19  1  0
 23 22  1  0
 24 23  1  0
 25 23  2  0
M  END
$$$$
