ERG.pdb
     RDKit          3D

 25 24  0  0  1  0  0  0  0  0999 V2000
   12.4513  -19.4978   18.0997 N   0  0  0  0  0  0  0  0  0  0  0  0
   13.0798  -18.2272   17.7952 C   0  0  1  0  0  0  0  0  0  0  0  0
   12.7804  -17.8723   16.3828 C   0  0  0  0  0  0  0  0  0  0  0  0
   14.0036  -17.9625   15.5282 C   0  0  0  0  0  0  0  0  0  0  0  0
   13.8075  -17.6723   14.0982 C   0  0  0  0  0  0  0  0  0  0  0  0
   12.6871  -17.4382   13.6341 O   0  0  0  0  0  0  0  0  0  0  0  0
   12.6367  -17.1688   18.7511 C   0  0  0  0  0  0  0  0  0  0  0  0
   13.1391  -16.0190   18.7187 O   0  0  0  0  0  0  0  0  0  0  0  0
   14.8837  -17.6487   13.1994 O   0  0  0  0  0  0  0  0  0  0  0  0
    7.8187  -13.3923   18.1107 N   0  0  0  0  0  0  0  0  0  0  0  0
    7.6291  -12.7560   19.3909 C   0  0  0  0  0  0  0  0  0  0  0  0
    7.7964  -11.4905   19.5512 N   0  0  0  0  0  0  0  0  0  0  0  0
    7.2488  -13.5108   20.5296 N   0  0  0  0  0  0  0  0  0  0  0  0
    7.5851  -14.9469   20.6265 C   0  0  0  0  0  0  0  0  0  0  0  0
    9.0676  -15.0194   20.6210 C   0  0  0  0  0  0  0  0  0  0  0  0
    9.6556  -16.3871   20.7641 C   0  0  0  0  0  0  0  0  0  0  0  0
   11.1273  -16.5029   20.6616 C   0  0  2  0  0  0  0  0  0  0  0  0
   11.6186  -17.4858   19.7167 N   0  0  0  0  0  0  0  0  0  0  0  0
   11.6554  -16.8024   22.0291 C   0  0  0  0  0  0  0  0  0  0  0  0
   11.0949  -17.7589   22.6386 O   0  0  0  0  0  0  0  0  0  0  0  0
    7.7126  -10.9910   20.4567 N   0  0  0  0  0  0  0  0  0  0  0  0
   12.7052  -16.0974   22.6480 C   0  0  0  0  0  0  0  0  0  0  0  0
   13.1048  -16.3756   24.0363 C   0  0  0  0  0  0  0  0  0  0  0  0
   14.2211  -17.3331   24.0602 O   0  0  0  0  0  0  0  0  0  0  0  0
   14.8954  -17.5672   25.2435 O   0  0  0  0  0  0  0  0  0  0  0  0
  2  1  1  1
  2  7  1  0
  2  3  1  0
  4  5  1  0
  4  3  1  0
  5  9  1  0
  6  5  2  0
  7  8  2  0
 10 11  1  0
 11 12  2  0
 11 13  1  0
 13 14  1  0
 14 15  1  0
 15 16  1  0
 17 16  1  1
 17 19  1  0
 18 17  1  0
 18  7  1  0
 19 20  2  0
 21 22  1  0
 21 19  1  0
 23 22  1  0
 24 23  1  0
 25 23  2  0
M  END
$$$$
