ERG.pdb
     RDKit          3D

 25 24  0  0  1  0  0  0  0  0999 V2000
    9.1377  -16.8746   17.6875 N   0  0  0  0  0  0  0  0  0  0  0  0
    8.6805  -17.2379   19.0146 C   0  0  1  0  0  0  0  0  0  0  0  0
    8.5104  -18.7137   19.0742 C   0  0  0  0  0  0  0  0  0  0  0  0
    9.7174  -19.4220   18.5490 C   0  0  0  0  0  0  0  0  0  0  0  0
    9.6843  -20.8915   18.6346 C   0  0  0  0  0  0  0  0  0  0  0  0
   10.0636  -21.6020   17.6983 O   0  0  0  0  0  0  0  0  0  0  0  0
    9.6198  -16.7335   20.0603 C   0  0  0  0  0  0  0  0  0  0  0  0
   10.8111  -16.4567   19.7780 O   0  0  0  0  0  0  0  0  0  0  0  0
    9.2208  -21.5498   19.7829 O   0  0  0  0  0  0  0  0  0  0  0  0
    9.6176  -15.5449   29.2744 N   0  0  0  0  0  0  0  0  0  0  0  0
   10.2479  -14.4969   28.5100 C   0  0  0  0  0  0  0  0  0  0  0  0
   10.5728  -13.3710   29.0409 N   0  0  0  0  0  0  0  0  0  0  0  0
   10.5336  -14.6724   27.1321 N   0  0  0  0  0  0  0  0  0  0  0  0
    9.5329  -15.2767   26.2276 C   0  0  0  0  0  0  0  0  0  0  0  0
   10.1731  -15.3306   24.8896 C   0  0  0  0  0  0  0  0  0  0  0  0
    9.3540  -15.9412   23.7973 C   0  0  0  0  0  0  0  0  0  0  0  0
    9.9883  -16.0630   22.4658 C   0  0  2  0  0  0  0  0  0  0  0  0
    9.1385  -16.5673   21.4058 N   0  0  0  0  0  0  0  0  0  0  0  0
   11.1916  -16.9398   22.6147 C   0  0  0  0  0  0  0  0  0  0  0  0
   10.9812  -18.1839   22.5228 O   0  0  0  0  0  0  0  0  0  0  0  0
   11.0347  -12.5896   28.5386 N   0  0  0  0  0  0  0  0  0  0  0  0
   12.4971  -16.4657   22.8450 C   0  0  0  0  0  0  0  0  0  0  0  0
   13.6359  -17.3865   22.9850 C   0  0  0  0  0  0  0  0  0  0  0  0
   14.8403  -16.6453   23.3893 O   0  0  0  0  0  0  0  0  0  0  0  0
   16.0105  -17.3326   23.6499 O   0  0  0  0  0  0  0  0  0  0  0  0
  2  1  1  6
  2  7  1  0
  2  3  1  0
  4  5  1  0
  4  3  1  0
  5  9  1  0
  6  5  2  0
  7  8  2  0
 10 11  1  0
 11 12  2  0
 11 13  1  0
 13 14  1  0
 14 15  1  0
 15 16  1  0
 17 16  1  1
 17 19  1  0
 18 17  1  0
 18  7  1  0
 19 20  2  0
 21 22  1  0
 21 19  1  0
 23 22  1  0
 24 23  1  0
 25 23  2  0
M  END
$$$$
