ERG.pdb
     RDKit          3D

 25 24  0  0  1  0  0  0  0  0999 V2000
   10.4438  -19.8435   17.6892 N   0  0  0  0  0  0  0  0  0  0  0  0
    9.8113  -19.8419   18.9939 C   0  0  1  0  0  0  0  0  0  0  0  0
   10.2428  -21.0561   19.7356 C   0  0  0  0  0  0  0  0  0  0  0  0
   11.7213  -21.2548   19.6406 C   0  0  0  0  0  0  0  0  0  0  0  0
   12.2498  -22.4539   20.3119 C   0  0  0  0  0  0  0  0  0  0  0  0
   13.2867  -22.4154   20.9818 O   0  0  0  0  0  0  0  0  0  0  0  0
   10.1219  -18.5843   19.7370 C   0  0  0  0  0  0  0  0  0  0  0  0
   11.2227  -18.0005   19.5853 O   0  0  0  0  0  0  0  0  0  0  0  0
   11.5995  -23.6931   20.2207 O   0  0  0  0  0  0  0  0  0  0  0  0
    7.5374  -11.4154   19.9624 N   0  0  0  0  0  0  0  0  0  0  0  0
    8.0432  -12.6926   19.5232 C   0  0  0  0  0  0  0  0  0  0  0  0
    8.3002  -12.9315   18.2856 N   0  0  0  0  0  0  0  0  0  0  0  0
    8.2762  -13.7406   20.4497 N   0  0  0  0  0  0  0  0  0  0  0  0
    7.8121  -13.6251   21.8482 C   0  0  0  0  0  0  0  0  0  0  0  0
    8.3471  -14.8159   22.5547 C   0  0  0  0  0  0  0  0  0  0  0  0
    8.1511  -16.1281   21.8644 C   0  0  0  0  0  0  0  0  0  0  0  0
    9.3642  -16.8225   21.3782 C   0  0  2  0  0  0  0  0  0  0  0  0
    9.1359  -18.0459   20.6356 N   0  0  0  0  0  0  0  0  0  0  0  0
   10.2338  -17.1007   22.5635 C   0  0  0  0  0  0  0  0  0  0  0  0
    9.7288  -17.8430   23.4549 O   0  0  0  0  0  0  0  0  0  0  0  0
    8.7001  -13.8175   17.9230 N   0  0  0  0  0  0  0  0  0  0  0  0
   11.5370  -16.5946   22.7298 C   0  0  0  0  0  0  0  0  0  0  0  0
   12.3376  -16.9093   23.9232 C   0  0  0  0  0  0  0  0  0  0  0  0
   13.6756  -16.3091   23.8087 O   0  0  0  0  0  0  0  0  0  0  0  0
   14.5553  -16.3926   24.8712 O   0  0  0  0  0  0  0  0  0  0  0  0
  2  1  1  6
  2  7  1  0
  2  3  1  0
  4  5  1  0
  4  3  1  0
  5  9  1  0
  6  5  2  0
  7  8  2  0
 10 11  1  0
 11 12  2  0
 11 13  1  0
 13 14  1  0
 14 15  1  0
 15 16  1  0
 17 16  1  1
 17 19  1  0
 18 17  1  0
 18  7  1  0
 19 20  2  0
 21 22  1  0
 21 19  1  0
 23 22  1  0
 24 23  1  0
 25 23  2  0
M  END
$$$$
