ERG.pdb
     RDKit          3D

 25 24  0  0  1  0  0  0  0  0999 V2000
    7.2652  -13.1571   16.2289 N   0  0  0  0  0  0  0  0  0  0  0  0
    7.9449  -14.2655   16.8704 C   0  0  1  0  0  0  0  0  0  0  0  0
    8.5393  -15.1341   15.8203 C   0  0  0  0  0  0  0  0  0  0  0  0
    8.4633  -14.4892   14.4738 C   0  0  0  0  0  0  0  0  0  0  0  0
    9.0761  -15.2437   13.3680 C   0  0  0  0  0  0  0  0  0  0  0  0
    9.7237  -16.2757   13.5706 O   0  0  0  0  0  0  0  0  0  0  0  0
    8.9655  -13.7753   17.8442 C   0  0  0  0  0  0  0  0  0  0  0  0
    8.8083  -12.6877   18.4508 O   0  0  0  0  0  0  0  0  0  0  0  0
    8.9518  -14.8246   12.0355 O   0  0  0  0  0  0  0  0  0  0  0  0
   11.5751  -17.1491   25.9729 N   0  0  0  0  0  0  0  0  0  0  0  0
   10.8704  -17.1354   24.7147 C   0  0  0  0  0  0  0  0  0  0  0  0
   10.5765  -18.2207   24.0896 N   0  0  0  0  0  0  0  0  0  0  0  0
   10.4738  -15.9126   24.1160 N   0  0  0  0  0  0  0  0  0  0  0  0
    9.6603  -15.9084   22.8820 C   0  0  0  0  0  0  0  0  0  0  0  0
   10.5198  -15.3114   21.8294 C   0  0  0  0  0  0  0  0  0  0  0  0
    9.9178  -15.2296   20.4628 C   0  0  0  0  0  0  0  0  0  0  0  0
   10.7580  -14.6545   19.3888 C   0  0  2  0  0  0  0  0  0  0  0  0
   10.1402  -14.5715   18.0805 N   0  0  0  0  0  0  0  0  0  0  0  0
   12.0120  -15.4669   19.3093 C   0  0  0  0  0  0  0  0  0  0  0  0
   11.9055  -16.5896   18.7360 O   0  0  0  0  0  0  0  0  0  0  0  0
   10.1220  -18.2642   23.1579 N   0  0  0  0  0  0  0  0  0  0  0  0
   13.2575  -15.0589   19.8235 C   0  0  0  0  0  0  0  0  0  0  0  0
   14.4178  -14.8411   18.9456 C   0  0  0  0  0  0  0  0  0  0  0  0
   15.5886  -14.4435   19.7422 O   0  0  0  0  0  0  0  0  0  0  0  0
   16.8126  -14.2779   19.1225 O   0  0  0  0  0  0  0  0  0  0  0  0
  2  1  1  6
  2  7  1  0
  2  3  1  0
  4  5  1  0
  4  3  1  0
  5  9  1  0
  6  5  2  0
  7  8  2  0
 10 11  1  0
 11 12  2  0
 11 13  1  0
 13 14  1  0
 14 15  1  0
 15 16  1  0
 17 16  1  1
 17 19  1  0
 18 17  1  0
 18  7  1  0
 19 20  2  0
 21 22  1  0
 21 19  1  0
 23 22  1  0
 24 23  1  0
 25 23  2  0
M  END
$$$$
