ERG.pdb
     RDKit          3D

 25 24  0  0  1  0  0  0  0  0999 V2000
   13.0386  -19.3179   17.1350 N   0  0  0  0  0  0  0  0  0  0  0  0
   12.8448  -19.4233   18.5680 C   0  0  1  0  0  0  0  0  0  0  0  0
   13.8057  -20.4211   19.1081 C   0  0  0  0  0  0  0  0  0  0  0  0
   15.2165  -19.9456   18.9739 C   0  0  0  0  0  0  0  0  0  0  0  0
   16.2499  -20.8530   19.4996 C   0  0  0  0  0  0  0  0  0  0  0  0
   15.9570  -21.9369   20.0143 O   0  0  0  0  0  0  0  0  0  0  0  0
   12.9837  -18.0898   19.2258 C   0  0  0  0  0  0  0  0  0  0  0  0
   13.4692  -17.1123   18.6060 O   0  0  0  0  0  0  0  0  0  0  0  0
   17.6127  -20.5274   19.4394 O   0  0  0  0  0  0  0  0  0  0  0  0
    7.2188  -12.4744   20.3977 N   0  0  0  0  0  0  0  0  0  0  0  0
    7.9529  -12.9732   19.2610 C   0  0  0  0  0  0  0  0  0  0  0  0
    7.9014  -12.3950   18.1129 N   0  0  0  0  0  0  0  0  0  0  0  0
    8.7646  -14.1309   19.3699 N   0  0  0  0  0  0  0  0  0  0  0  0
    9.5218  -14.4046   20.6095 C   0  0  0  0  0  0  0  0  0  0  0  0
   10.2211  -15.6942   20.3834 C   0  0  0  0  0  0  0  0  0  0  0  0
   11.0488  -16.1973   21.5229 C   0  0  0  0  0  0  0  0  0  0  0  0
   12.4278  -16.6360   21.2131 C   0  0  2  0  0  0  0  0  0  0  0  0
   12.5504  -17.9383   20.5892 N   0  0  0  0  0  0  0  0  0  0  0  0
   13.2109  -16.6061   22.4877 C   0  0  0  0  0  0  0  0  0  0  0  0
   12.6460  -17.1255   23.4934 O   0  0  0  0  0  0  0  0  0  0  0  0
    8.3634  -12.7436   17.2518 N   0  0  0  0  0  0  0  0  0  0  0  0
   14.4967  -16.0476   22.6178 C   0  0  0  0  0  0  0  0  0  0  0  0
   15.2066  -16.0440   23.9064 C   0  0  0  0  0  0  0  0  0  0  0  0
   16.5595  -15.4917   23.7382 O   0  0  0  0  0  0  0  0  0  0  0  0
   17.3512  -15.2726   24.8494 O   0  0  0  0  0  0  0  0  0  0  0  0
  2  1  1  6
  2  7  1  0
  2  3  1  0
  4  5  1  0
  4  3  1  0
  5  9  1  0
  6  5  2  0
  7  8  2  0
 10 11  1  0
 11 12  2  0
 11 13  1  0
 13 14  1  0
 14 15  1  0
 15 16  1  0
 17 16  1  1
 17 19  1  0
 18 17  1  0
 18  7  1  0
 19 20  2  0
 21 22  1  0
 21 19  1  0
 23 22  1  0
 24 23  1  0
 25 23  2  0
M  END
$$$$
