ERG.pdb
     RDKit          3D

 25 24  0  0  1  0  0  0  0  0999 V2000
   15.2225  -13.9626   18.4196 N   0  0  0  0  0  0  0  0  0  0  0  0
   14.0168  -14.7551   18.2774 C   0  0  1  0  0  0  0  0  0  0  0  0
   14.3551  -16.0167   17.5670 C   0  0  0  0  0  0  0  0  0  0  0  0
   15.8313  -16.1542   17.3758 C   0  0  0  0  0  0  0  0  0  0  0  0
   16.2713  -17.3450   16.6303 C   0  0  0  0  0  0  0  0  0  0  0  0
   17.4678  -17.5751   16.4278 O   0  0  0  0  0  0  0  0  0  0  0  0
   13.3822  -15.0060   19.6057 C   0  0  0  0  0  0  0  0  0  0  0  0
   14.0665  -15.0050   20.6580 O   0  0  0  0  0  0  0  0  0  0  0  0
   15.3519  -18.2712   16.1169 O   0  0  0  0  0  0  0  0  0  0  0  0
    7.2505  -12.0726   16.8434 N   0  0  0  0  0  0  0  0  0  0  0  0
    7.6117  -13.1935   17.6759 C   0  0  0  0  0  0  0  0  0  0  0  0
    8.1486  -14.2559   17.1883 N   0  0  0  0  0  0  0  0  0  0  0  0
    7.3842  -13.1636   19.0754 N   0  0  0  0  0  0  0  0  0  0  0  0
    7.7298  -14.3274   19.9185 C   0  0  0  0  0  0  0  0  0  0  0  0
    9.2049  -14.2901   20.0794 C   0  0  0  0  0  0  0  0  0  0  0  0
    9.8041  -15.4070   20.8733 C   0  0  0  0  0  0  0  0  0  0  0  0
   11.2812  -15.4844   20.9206 C   0  0  2  0  0  0  0  0  0  0  0  0
   11.9657  -15.2504   19.6648 N   0  0  0  0  0  0  0  0  0  0  0  0
   11.6482  -16.8319   21.4575 C   0  0  0  0  0  0  0  0  0  0  0  0
   11.7264  -17.7622   20.6037 O   0  0  0  0  0  0  0  0  0  0  0  0
    8.3772  -15.1088   17.7330 N   0  0  0  0  0  0  0  0  0  0  0  0
   11.8999  -17.1051   22.8155 C   0  0  0  0  0  0  0  0  0  0  0  0
   13.2343  -16.9124   23.4041 C   0  0  0  0  0  0  0  0  0  0  0  0
   13.2265  -17.3125   24.8195 O   0  0  0  0  0  0  0  0  0  0  0  0
   14.4039  -17.2898   25.5427 O   0  0  0  0  0  0  0  0  0  0  0  0
  2  1  1  1
  2  7  1  0
  2  3  1  0
  4  5  1  0
  4  3  1  0
  5  9  1  0
  6  5  2  0
  7  8  2  0
 10 11  1  0
 11 12  2  0
 11 13  1  0
 13 14  1  0
 14 15  1  0
 15 16  1  0
 17 16  1  6
 17 19  1  0
 18 17  1  0
 18  7  1  0
 19 20  2  0
 21 22  1  0
 21 19  1  0
 23 22  1  0
 24 23  1  0
 25 23  2  0
M  END
$$$$
