ERG.pdb
     RDKit          3D

 25 24  0  0  1  0  0  0  0  0999 V2000
   12.9651  -14.2136   17.7665 N   0  0  0  0  0  0  0  0  0  0  0  0
   12.9960  -15.4580   18.5100 C   0  0  1  0  0  0  0  0  0  0  0  0
   14.4016  -15.9371   18.5816 C   0  0  0  0  0  0  0  0  0  0  0  0
   15.3567  -14.7988   18.7442 C   0  0  0  0  0  0  0  0  0  0  0  0
   16.7847  -15.1573   18.7445 C   0  0  0  0  0  0  0  0  0  0  0  0
   17.3227  -15.6674   19.7323 O   0  0  0  0  0  0  0  0  0  0  0  0
   12.3861  -15.2879   19.8625 C   0  0  0  0  0  0  0  0  0  0  0  0
   12.7336  -14.3435   20.6127 O   0  0  0  0  0  0  0  0  0  0  0  0
   17.5977  -14.9357   17.6235 O   0  0  0  0  0  0  0  0  0  0  0  0
    7.9245  -11.2850   19.7459 N   0  0  0  0  0  0  0  0  0  0  0  0
    7.8120  -12.6214   19.2158 C   0  0  0  0  0  0  0  0  0  0  0  0
    8.2563  -12.9280   18.0480 N   0  0  0  0  0  0  0  0  0  0  0  0
    7.2005  -13.6546   19.9705 N   0  0  0  0  0  0  0  0  0  0  0  0
    7.9088  -14.2729   21.1110 C   0  0  0  0  0  0  0  0  0  0  0  0
    8.4356  -15.5671   20.6103 C   0  0  0  0  0  0  0  0  0  0  0  0
    9.2640  -16.3531   21.5761 C   0  0  0  0  0  0  0  0  0  0  0  0
   10.7216  -16.0973   21.5788 C   0  0  2  0  0  0  0  0  0  0  0  0
   11.3873  -16.2271   20.2982 N   0  0  0  0  0  0  0  0  0  0  0  0
   11.3437  -17.0267   22.5728 C   0  0  0  0  0  0  0  0  0  0  0  0
   12.1506  -17.8787   22.1002 O   0  0  0  0  0  0  0  0  0  0  0  0
    8.2496  -13.8829   17.6425 N   0  0  0  0  0  0  0  0  0  0  0  0
   11.0835  -17.0013   23.9562 C   0  0  0  0  0  0  0  0  0  0  0  0
   11.8493  -17.8324   24.8981 C   0  0  0  0  0  0  0  0  0  0  0  0
   11.4705  -17.5100   26.2823 O   0  0  0  0  0  0  0  0  0  0  0  0
   12.0147  -18.2339   27.3261 O   0  0  0  0  0  0  0  0  0  0  0  0
  2  1  1  1
  2  7  1  0
  2  3  1  0
  4  5  1  0
  4  3  1  0
  5  9  1  0
  6  5  2  0
  7  8  2  0
 10 11  1  0
 11 12  2  0
 11 13  1  0
 13 14  1  0
 14 15  1  0
 15 16  1  0
 17 16  1  6
 17 19  1  0
 18 17  1  0
 18  7  1  0
 19 20  2  0
 21 22  1  0
 21 19  1  0
 23 22  1  0
 24 23  1  0
 25 23  2  0
M  END
$$$$
