ERG.pdb
     RDKit          3D

 25 24  0  0  1  0  0  0  0  0999 V2000
    7.0507  -19.9015   25.2487 N   0  0  0  0  0  0  0  0  0  0  0  0
    7.1457  -18.4603   25.3749 C   0  0  1  0  0  0  0  0  0  0  0  0
    7.5846  -18.1293   26.7563 C   0  0  0  0  0  0  0  0  0  0  0  0
    8.8075  -18.8997   27.1378 C   0  0  0  0  0  0  0  0  0  0  0  0
    9.3159  -18.6597   28.4985 C   0  0  0  0  0  0  0  0  0  0  0  0
    8.7470  -17.8844   29.2735 O   0  0  0  0  0  0  0  0  0  0  0  0
    8.0593  -17.8920   24.3391 C   0  0  0  0  0  0  0  0  0  0  0  0
    8.9224  -18.6092   23.7769 O   0  0  0  0  0  0  0  0  0  0  0  0
   10.4686  -19.3006   28.9754 O   0  0  0  0  0  0  0  0  0  0  0  0
    9.5256  -13.4795   18.7806 N   0  0  0  0  0  0  0  0  0  0  0  0
    8.1992  -13.5326   18.2169 C   0  0  0  0  0  0  0  0  0  0  0  0
    8.0008  -13.5178   16.9459 N   0  0  0  0  0  0  0  0  0  0  0  0
    7.0556  -13.6028   19.0525 N   0  0  0  0  0  0  0  0  0  0  0  0
    7.1810  -13.4291   20.5150 C   0  0  0  0  0  0  0  0  0  0  0  0
    8.1001  -14.5000   20.9750 C   0  0  0  0  0  0  0  0  0  0  0  0
    8.3104  -14.5904   22.4530 C   0  0  0  0  0  0  0  0  0  0  0  0
    8.7837  -15.8859   22.9892 C   0  0  2  0  0  0  0  0  0  0  0  0
    7.9365  -16.5017   23.9908 N   0  0  0  0  0  0  0  0  0  0  0  0
   10.1567  -15.6731   23.5444 C   0  0  0  0  0  0  0  0  0  0  0  0
   10.2108  -15.3022   24.7527 O   0  0  0  0  0  0  0  0  0  0  0  0
    7.0685  -13.5251   16.4908 N   0  0  0  0  0  0  0  0  0  0  0  0
   11.3467  -15.8569   22.8148 C   0  0  0  0  0  0  0  0  0  0  0  0
   12.6649  -15.6051   23.4175 C   0  0  0  0  0  0  0  0  0  0  0  0
   13.7306  -15.9027   22.4483 O   0  0  0  0  0  0  0  0  0  0  0  0
   15.0404  -15.5858   22.7541 O   0  0  0  0  0  0  0  0  0  0  0  0
  2  1  1  1
  2  7  1  0
  2  3  1  0
  4  5  1  0
  4  3  1  0
  5  9  1  0
  6  5  2  0
  7  8  2  0
 10 11  1  0
 11 12  2  0
 11 13  1  0
 13 14  1  0
 14 15  1  0
 15 16  1  0
 17 16  1  1
 17 19  1  0
 18 17  1  0
 18  7  1  0
 19 20  2  0
 21 22  1  0
 21 19  1  0
 23 22  1  0
 24 23  1  0
 25 23  2  0
M  END
$$$$
