QTL.pdb
     RDKit          3D

 25 24  0  0  1  0  0  0  0  0999 V2000
    7.8846  -12.4672   17.5518 N   0  0  0  0  0  0  0  0  0  0  0  0
    8.2334  -13.7405   17.0566 C   0  0  0  0  0  0  0  0  0  0  0  0
    8.6742  -13.8617   15.8897 O   0  0  0  0  0  0  0  0  0  0  0  0
    8.0649  -14.9073   17.9438 C   0  0  0  0  0  0  0  0  0  0  0  0
    9.0898  -14.9285   19.0595 C   0  0  0  0  0  0  0  0  0  0  0  0
    8.9811  -16.2948   19.7187 C   0  0  2  0  0  0  0  0  0  0  0  0
    8.2933  -17.2288   18.8750 N   0  0  0  0  0  0  0  0  0  0  0  0
    8.2483  -16.1098   20.9897 C   0  0  0  0  0  0  0  0  0  0  0  0
    7.1349  -15.5390   21.0221 O   0  0  0  0  0  0  0  0  0  0  0  0
    6.8407  -18.7399   22.8757 C   0  0  0  0  0  0  0  0  0  0  0  0
    7.6884  -17.9879   23.8555 C   0  0  1  0  0  0  0  0  0  0  0  0
    8.8729  -18.7011   24.0308 O   0  0  0  0  0  0  0  0  0  0  0  0
    8.0075  -16.5805   23.3923 C   0  0  2  0  0  0  0  0  0  0  0  0
    8.8174  -16.5881   22.1936 N   0  0  0  0  0  0  0  0  0  0  0  0
    8.7108  -15.8029   24.4232 C   0  0  0  0  0  0  0  0  0  0  0  0
    9.9221  -15.5536   24.3050 O   0  0  0  0  0  0  0  0  0  0  0  0
    8.1415  -11.8951   25.9732 C   0  0  0  0  0  0  0  0  0  0  0  0
    7.0537  -12.8650   26.4355 C   0  0  2  0  0  0  0  0  0  0  0  0
    5.9267  -12.1503   27.1230 C   0  0  0  0  0  0  0  0  0  0  0  0
    7.7095  -13.8516   27.3562 C   0  0  0  0  0  0  0  0  0  0  0  0
    8.7551  -14.6368   26.6190 C   0  0  2  0  0  0  0  0  0  0  0  0
    8.0222  -15.3336   25.5518 N   0  0  0  0  0  0  0  0  0  0  0  0
    9.3836  -15.6231   27.5206 C   0  0  0  0  0  0  0  0  0  0  0  0
    9.1331  -16.8470   27.5619 O   0  0  0  0  0  0  0  0  0  0  0  0
   10.3691  -15.2093   28.4487 O   0  0  0  0  0  0  0  0  0  0  0  0
  2  3  2  0
  2  1  1  0
  4  2  1  0
  5  4  1  0
  6  7  1  6
  6  5  1  0
  8  6  1  0
  9  8  2  0
 11 10  1  6
 11 12  1  0
 11 13  1  0
 13 15  1  0
 13 14  1  6
 14  8  1  0
 15 16  2  0
 18 17  1  1
 18 19  1  0
 18 20  1  0
 21 20  1  1
 22 21  1  0
 22 15  1  0
 23 25  1  0
 23 21  1  0
 24 23  2  0
M  END
$$$$
