QTL.pdb
     RDKit          3D

 25 24  0  0  1  0  0  0  0  0999 V2000
   14.6573  -15.9105   18.0586 N   0  0  0  0  0  0  0  0  0  0  0  0
   14.3832  -14.9366   19.0406 C   0  0  0  0  0  0  0  0  0  0  0  0
   15.1290  -14.8264   20.0418 O   0  0  0  0  0  0  0  0  0  0  0  0
   13.2075  -14.0649   18.8536 C   0  0  0  0  0  0  0  0  0  0  0  0
   12.1742  -14.2586   19.9446 C   0  0  0  0  0  0  0  0  0  0  0  0
   11.6294  -15.6686   19.7769 C   0  0  2  0  0  0  0  0  0  0  0  0
   10.8355  -15.7840   18.5880 N   0  0  0  0  0  0  0  0  0  0  0  0
   10.8139  -15.9674   20.9737 C   0  0  0  0  0  0  0  0  0  0  0  0
    9.6425  -15.5413   21.0861 O   0  0  0  0  0  0  0  0  0  0  0  0
   10.0003  -19.4104   21.8726 C   0  0  0  0  0  0  0  0  0  0  0  0
   10.5203  -18.7633   23.1197 C   0  0  1  0  0  0  0  0  0  0  0  0
   11.8315  -19.1957   23.3102 O   0  0  0  0  0  0  0  0  0  0  0  0
   10.4907  -17.2497   23.0481 C   0  0  2  0  0  0  0  0  0  0  0  0
   11.3694  -16.7509   22.0127 N   0  0  0  0  0  0  0  0  0  0  0  0
   10.8745  -16.6261   24.3232 C   0  0  0  0  0  0  0  0  0  0  0  0
   12.0214  -16.1760   24.4825 O   0  0  0  0  0  0  0  0  0  0  0  0
    8.2569  -13.6493   28.7853 C   0  0  0  0  0  0  0  0  0  0  0  0
    9.5136  -14.4279   28.3953 C   0  0  2  0  0  0  0  0  0  0  0  0
   10.7330  -13.5524   28.3958 C   0  0  0  0  0  0  0  0  0  0  0  0
    9.2646  -15.0070   27.0338 C   0  0  0  0  0  0  0  0  0  0  0  0
   10.3639  -15.9599   26.6639 C   0  0  2  0  0  0  0  0  0  0  0  0
    9.9501  -16.5322   25.3743 N   0  0  0  0  0  0  0  0  0  0  0  0
   10.4732  -17.0309   27.6747 C   0  0  0  0  0  0  0  0  0  0  0  0
    9.6990  -18.0039   27.8027 O   0  0  0  0  0  0  0  0  0  0  0  0
   11.5303  -17.0133   28.6159 O   0  0  0  0  0  0  0  0  0  0  0  0
  2  3  2  0
  2  1  1  0
  4  2  1  0
  5  4  1  0
  6  7  1  6
  6  5  1  0
  8  6  1  0
  9  8  2  0
 11 10  1  6
 11 12  1  0
 11 13  1  0
 13 15  1  0
 13 14  1  6
 14  8  1  0
 15 16  2  0
 18 17  1  6
 18 19  1  0
 18 20  1  0
 21 20  1  1
 22 21  1  0
 22 15  1  0
 23 25  1  0
 23 21  1  0
 24 23  2  0
M  END
$$$$
