QTL.pdb
     RDKit          3D

 25 24  0  0  1  0  0  0  0  0999 V2000
    7.2700  -13.5029   16.1374 N   0  0  0  0  0  0  0  0  0  0  0  0
    8.5376  -13.5229   16.7544 C   0  0  0  0  0  0  0  0  0  0  0  0
    9.5122  -14.0529   16.1711 O   0  0  0  0  0  0  0  0  0  0  0  0
    8.6769  -12.9087   18.0887 C   0  0  0  0  0  0  0  0  0  0  0  0
    7.8612  -13.6346   19.1390 C   0  0  0  0  0  0  0  0  0  0  0  0
    8.6331  -14.8979   19.4872 C   0  0  2  0  0  0  0  0  0  0  0  0
    8.4074  -15.9317   18.5190 N   0  0  0  0  0  0  0  0  0  0  0  0
    8.1772  -15.3341   20.8246 C   0  0  0  0  0  0  0  0  0  0  0  0
    6.9597  -15.4155   21.1028 O   0  0  0  0  0  0  0  0  0  0  0  0
    8.7493  -18.4025   24.3948 C   0  0  0  0  0  0  0  0  0  0  0  0
    9.1572  -17.7372   23.1160 C   0  0  1  0  0  0  0  0  0  0  0  0
    8.6154  -18.4701   22.0617 O   0  0  0  0  0  0  0  0  0  0  0  0
    8.6856  -16.2994   23.0295 C   0  0  2  0  0  0  0  0  0  0  0  0
    9.1372  -15.6662   21.8097 N   0  0  0  0  0  0  0  0  0  0  0  0
    9.1479  -15.4941   24.1695 C   0  0  0  0  0  0  0  0  0  0  0  0
   10.3167  -15.0746   24.2098 O   0  0  0  0  0  0  0  0  0  0  0  0
    8.1333  -11.8079   25.8626 C   0  0  0  0  0  0  0  0  0  0  0  0
    7.0255  -12.8308   26.1159 C   0  0  2  0  0  0  0  0  0  0  0  0
    5.7989  -12.1898   26.6975 C   0  0  0  0  0  0  0  0  0  0  0  0
    7.5884  -13.8640   27.0469 C   0  0  0  0  0  0  0  0  0  0  0  0
    8.7879  -14.5227   26.4301 C   0  0  2  0  0  0  0  0  0  0  0  0
    8.2748  -15.1901   25.2247 N   0  0  0  0  0  0  0  0  0  0  0  0
    9.3523  -15.5257   27.3555 C   0  0  0  0  0  0  0  0  0  0  0  0
    9.1035  -16.7507   27.3539 O   0  0  0  0  0  0  0  0  0  0  0  0
   10.2659  -15.1288   28.3611 O   0  0  0  0  0  0  0  0  0  0  0  0
  2  3  2  0
  2  1  1  0
  4  2  1  0
  5  4  1  0
  6  7  1  6
  6  5  1  0
  8  6  1  0
  9  8  2  0
 11 10  1  1
 11 12  1  0
 11 13  1  0
 13 15  1  0
 13 14  1  6
 14  8  1  0
 15 16  2  0
 18 17  1  1
 18 19  1  0
 18 20  1  0
 21 20  1  1
 22 21  1  0
 22 15  1  0
 23 25  1  0
 23 21  1  0
 24 23  2  0
M  END
$$$$
