QTL.pdb
     RDKit          3D

 25 24  0  0  1  0  0  0  0  0999 V2000
   15.6536  -15.0145   20.2433 N   0  0  0  0  0  0  0  0  0  0  0  0
   14.8865  -14.5361   19.1613 C   0  0  0  0  0  0  0  0  0  0  0  0
   15.4123  -14.3938   18.0325 O   0  0  0  0  0  0  0  0  0  0  0  0
   13.4664  -14.2135   19.3981 C   0  0  0  0  0  0  0  0  0  0  0  0
   12.7728  -15.2701   20.2336 C   0  0  0  0  0  0  0  0  0  0  0  0
   11.4954  -15.6352   19.4932 C   0  0  2  0  0  0  0  0  0  0  0  0
   11.4772  -15.0727   18.1740 N   0  0  0  0  0  0  0  0  0  0  0  0
   10.3639  -15.1167   20.2916 C   0  0  0  0  0  0  0  0  0  0  0  0
    9.8473  -14.0043   20.0427 O   0  0  0  0  0  0  0  0  0  0  0  0
    7.1025  -16.3034   20.2881 C   0  0  0  0  0  0  0  0  0  0  0  0
    7.4732  -16.3158   21.7396 C   0  0  1  0  0  0  0  0  0  0  0  0
    7.7621  -17.6320   22.0952 O   0  0  0  0  0  0  0  0  0  0  0  0
    8.6675  -15.4340   22.0448 C   0  0  2  0  0  0  0  0  0  0  0  0
    9.8551  -15.8943   21.3587 N   0  0  0  0  0  0  0  0  0  0  0  0
    8.9578  -15.3716   23.4848 C   0  0  0  0  0  0  0  0  0  0  0  0
   10.0588  -15.7475   23.9208 O   0  0  0  0  0  0  0  0  0  0  0  0
    8.2091  -11.9890   26.5223 C   0  0  0  0  0  0  0  0  0  0  0  0
    6.9994  -12.7392   25.9642 C   0  0  2  0  0  0  0  0  0  0  0  0
    5.7066  -12.1173   26.4065 C   0  0  0  0  0  0  0  0  0  0  0  0
    7.1070  -14.1581   26.4396 C   0  0  0  0  0  0  0  0  0  0  0  0
    8.2999  -14.8262   25.8200 C   0  0  2  0  0  0  0  0  0  0  0  0
    7.9952  -14.8871   24.3830 N   0  0  0  0  0  0  0  0  0  0  0  0
    8.4561  -16.1931   26.3567 C   0  0  0  0  0  0  0  0  0  0  0  0
    7.9956  -17.2393   25.8512 O   0  0  0  0  0  0  0  0  0  0  0  0
    9.1839  -16.4074   27.5517 O   0  0  0  0  0  0  0  0  0  0  0  0
  2  3  2  0
  2  1  1  0
  4  2  1  0
  5  4  1  0
  6  7  1  6
  6  5  1  0
  8  6  1  0
  9  8  2  0
 11 10  1  6
 11 12  1  0
 11 13  1  0
 13 15  1  0
 13 14  1  6
 14  8  1  0
 15 16  2  0
 18 17  1  1
 18 19  1  0
 18 20  1  0
 21 20  1  1
 22 21  1  0
 22 15  1  0
 23 25  1  0
 23 21  1  0
 24 23  2  0
M  END
$$$$
