QTL.pdb
     RDKit          3D

 25 24  0  0  1  0  0  0  0  0999 V2000
   15.6335  -14.0013   20.1264 N   0  0  0  0  0  0  0  0  0  0  0  0
   15.0312  -14.6404   19.0234 C   0  0  0  0  0  0  0  0  0  0  0  0
   15.3356  -14.2995   17.8564 O   0  0  0  0  0  0  0  0  0  0  0  0
   14.0459  -15.7072   19.2842 C   0  0  0  0  0  0  0  0  0  0  0  0
   12.8235  -15.1890   20.0140 C   0  0  0  0  0  0  0  0  0  0  0  0
   11.6141  -15.7453   19.2783 C   0  0  2  0  0  0  0  0  0  0  0  0
   11.6700  -15.4425   17.8775 N   0  0  0  0  0  0  0  0  0  0  0  0
   10.4127  -15.1383   19.8906 C   0  0  0  0  0  0  0  0  0  0  0  0
    9.9809  -14.0260   19.5129 O   0  0  0  0  0  0  0  0  0  0  0  0
    7.0257  -16.3415   19.6678 C   0  0  0  0  0  0  0  0  0  0  0  0
    7.3304  -16.2278   21.1301 C   0  0  1  0  0  0  0  0  0  0  0  0
    7.6353  -17.5028   21.6031 O   0  0  0  0  0  0  0  0  0  0  0  0
    8.4874  -15.2911   21.4144 C   0  0  2  0  0  0  0  0  0  0  0  0
    9.7377  -15.8294   20.9245 N   0  0  0  0  0  0  0  0  0  0  0  0
    8.6338  -15.0096   22.8501 C   0  0  0  0  0  0  0  0  0  0  0  0
    9.5885  -15.4828   23.4892 O   0  0  0  0  0  0  0  0  0  0  0  0
    5.6221  -11.6708   27.0016 C   0  0  0  0  0  0  0  0  0  0  0  0
    6.8370  -12.5568   26.7248 C   0  0  2  0  0  0  0  0  0  0  0  0
    8.1222  -11.8631   27.0721 C   0  0  0  0  0  0  0  0  0  0  0  0
    6.7936  -12.9167   25.2689 C   0  0  0  0  0  0  0  0  0  0  0  0
    7.8607  -13.9227   24.9488 C   0  0  2  0  0  0  0  0  0  0  0  0
    7.6975  -14.2037   23.5149 N   0  0  0  0  0  0  0  0  0  0  0  0
    7.6479  -15.1588   25.7283 C   0  0  0  0  0  0  0  0  0  0  0  0
    8.1665  -15.4309   26.8326 O   0  0  0  0  0  0  0  0  0  0  0  0
    6.7885  -16.1697   25.2352 O   0  0  0  0  0  0  0  0  0  0  0  0
  2  3  2  0
  2  1  1  0
  4  2  1  0
  5  4  1  0
  6  7  1  6
  6  5  1  0
  8  6  1  0
  9  8  2  0
 11 10  1  6
 11 12  1  0
 11 13  1  0
 13 15  1  0
 13 14  1  1
 14  8  1  0
 15 16  2  0
 18 17  1  6
 18 19  1  0
 18 20  1  0
 21 20  1  1
 22 21  1  0
 22 15  1  0
 23 25  1  0
 23 21  1  0
 24 23  2  0
M  END
$$$$
