QTL.pdb
     RDKit          3D

 25 24  0  0  1  0  0  0  0  0999 V2000
    7.9206  -15.6701   16.6549 N   0  0  0  0  0  0  0  0  0  0  0  0
    8.2242  -14.3360   16.3143 C   0  0  0  0  0  0  0  0  0  0  0  0
    8.5458  -14.0453   15.1383 O   0  0  0  0  0  0  0  0  0  0  0  0
    8.1521  -13.3093   17.3715 C   0  0  0  0  0  0  0  0  0  0  0  0
    7.5687  -13.8557   18.6586 C   0  0  0  0  0  0  0  0  0  0  0  0
    8.7461  -14.3162   19.5041 C   0  0  2  0  0  0  0  0  0  0  0  0
    9.5197  -15.3137   18.8234 N   0  0  0  0  0  0  0  0  0  0  0  0
    8.1937  -14.8609   20.7630 C   0  0  0  0  0  0  0  0  0  0  0  0
    6.9633  -14.8516   20.9917 O   0  0  0  0  0  0  0  0  0  0  0  0
    8.2911  -18.3218   21.7884 C   0  0  0  0  0  0  0  0  0  0  0  0
    8.8965  -17.5392   22.9133 C   0  0  1  0  0  0  0  0  0  0  0  0
   10.2819  -17.6585   22.8192 O   0  0  0  0  0  0  0  0  0  0  0  0
    8.5101  -16.0741   22.8797 C   0  0  2  0  0  0  0  0  0  0  0  0
    9.0743  -15.4036   21.7285 N   0  0  0  0  0  0  0  0  0  0  0  0
    8.9396  -15.3589   24.0904 C   0  0  0  0  0  0  0  0  0  0  0  0
   10.0788  -14.8682   24.1597 O   0  0  0  0  0  0  0  0  0  0  0  0
    8.3096  -11.7707   26.0231 C   0  0  0  0  0  0  0  0  0  0  0  0
    7.0750  -12.6727   26.0285 C   0  0  2  0  0  0  0  0  0  0  0  0
    5.8475  -11.9328   26.4748 C   0  0  0  0  0  0  0  0  0  0  0  0
    7.3766  -13.8217   26.9449 C   0  0  0  0  0  0  0  0  0  0  0  0
    8.5466  -14.6073   26.4280 C   0  0  2  0  0  0  0  0  0  0  0  0
    8.0680  -15.2222   25.1812 N   0  0  0  0  0  0  0  0  0  0  0  0
    8.9218  -15.6600   27.3933 C   0  0  0  0  0  0  0  0  0  0  0  0
    8.5816  -16.8616   27.3409 O   0  0  0  0  0  0  0  0  0  0  0  0
    9.7411  -15.3452   28.5038 O   0  0  0  0  0  0  0  0  0  0  0  0
  2  3  2  0
  2  1  1  0
  4  2  1  0
  5  4  1  0
  6  7  1  6
  6  5  1  0
  8  6  1  0
  9  8  2  0
 11 10  1  6
 11 12  1  0
 11 13  1  0
 13 15  1  0
 13 14  1  6
 14  8  1  0
 15 16  2  0
 18 17  1  1
 18 19  1  0
 18 20  1  0
 21 20  1  1
 22 21  1  0
 22 15  1  0
 23 25  1  0
 23 21  1  0
 24 23  2  0
M  END
$$$$
