QTL.pdb
     RDKit          3D

 25 24  0  0  1  0  0  0  0  0999 V2000
    7.2041  -13.0787   16.3009 N   0  0  0  0  0  0  0  0  0  0  0  0
    8.4160  -13.7376   16.0089 C   0  0  0  0  0  0  0  0  0  0  0  0
    8.8111  -13.8302   14.8231 O   0  0  0  0  0  0  0  0  0  0  0  0
    9.1916  -14.3058   17.1281 C   0  0  0  0  0  0  0  0  0  0  0  0
    8.4739  -14.1558   18.4539 C   0  0  0  0  0  0  0  0  0  0  0  0
    9.4562  -14.5965   19.5282 C   0  0  2  0  0  0  0  0  0  0  0  0
   10.2338  -15.7213   19.0954 N   0  0  0  0  0  0  0  0  0  0  0  0
    8.6647  -14.9463   20.7273 C   0  0  0  0  0  0  0  0  0  0  0  0
    7.7329  -14.2135   21.1288 O   0  0  0  0  0  0  0  0  0  0  0  0
    7.3617  -18.6816   21.6896 C   0  0  0  0  0  0  0  0  0  0  0  0
    8.0969  -17.9787   22.7895 C   0  0  1  0  0  0  0  0  0  0  0  0
    9.3897  -18.4969   22.8379 O   0  0  0  0  0  0  0  0  0  0  0  0
    8.1591  -16.4783   22.5845 C   0  0  2  0  0  0  0  0  0  0  0  0
    8.9671  -16.1336   21.4351 N   0  0  0  0  0  0  0  0  0  0  0  0
    8.7008  -15.7797   23.7594 C   0  0  0  0  0  0  0  0  0  0  0  0
    9.9092  -15.4978   23.8211 O   0  0  0  0  0  0  0  0  0  0  0  0
    8.2500  -11.8631   25.7099 C   0  0  0  0  0  0  0  0  0  0  0  0
    7.0230  -12.7738   25.6566 C   0  0  2  0  0  0  0  0  0  0  0  0
    5.7748  -12.0505   26.0718 C   0  0  0  0  0  0  0  0  0  0  0  0
    7.3011  -13.9361   26.5637 C   0  0  0  0  0  0  0  0  0  0  0  0
    8.4225  -14.7691   26.0143 C   0  0  2  0  0  0  0  0  0  0  0  0
    7.8596  -15.4232   24.8240 N   0  0  0  0  0  0  0  0  0  0  0  0
    8.8311  -15.7899   27.0002 C   0  0  0  0  0  0  0  0  0  0  0  0
    8.4265  -16.9717   27.0466 O   0  0  0  0  0  0  0  0  0  0  0  0
    9.7647  -15.4646   28.0132 O   0  0  0  0  0  0  0  0  0  0  0  0
  2  3  2  0
  2  1  1  0
  4  2  1  0
  5  4  1  0
  6  7  1  6
  6  5  1  0
  8  6  1  0
  9  8  2  0
 11 10  1  6
 11 12  1  0
 11 13  1  0
 13 15  1  0
 13 14  1  6
 14  8  1  0
 15 16  2  0
 18 17  1  1
 18 19  1  0
 18 20  1  0
 21 20  1  1
 22 21  1  0
 22 15  1  0
 23 25  1  0
 23 21  1  0
 24 23  2  0
M  END
$$$$
