QTL.pdb
     RDKit          3D

 25 24  0  0  1  0  0  0  0  0999 V2000
    8.6101  -19.9160   26.0099 N   0  0  0  0  0  0  0  0  0  0  0  0
    7.2785  -20.1951   25.6397 C   0  0  0  0  0  0  0  0  0  0  0  0
    6.5084  -20.7663   26.4467 O   0  0  0  0  0  0  0  0  0  0  0  0
    6.8286  -19.7986   24.2916 C   0  0  0  0  0  0  0  0  0  0  0  0
    7.9364  -19.1475   23.4888 C   0  0  0  0  0  0  0  0  0  0  0  0
    7.3079  -18.6846   22.1834 C   0  0  2  0  0  0  0  0  0  0  0  0
    7.4401  -19.6791   21.1585 N   0  0  0  0  0  0  0  0  0  0  0  0
    7.9957  -17.4376   21.7852 C   0  0  0  0  0  0  0  0  0  0  0  0
    9.1563  -17.4553   21.3170 O   0  0  0  0  0  0  0  0  0  0  0  0
    7.7394  -12.7714   20.3930 C   0  0  0  0  0  0  0  0  0  0  0  0
    7.1092  -14.0942   20.7050 C   0  0  1  0  0  0  0  0  0  0  0  0
    6.8081  -14.7194   19.4964 O   0  0  0  0  0  0  0  0  0  0  0  0
    8.0112  -14.9909   21.5291 C   0  0  2  0  0  0  0  0  0  0  0  0
    7.3280  -16.1993   21.9365 N   0  0  0  0  0  0  0  0  0  0  0  0
    8.5162  -14.3146   22.7331 C   0  0  0  0  0  0  0  0  0  0  0  0
    8.8985  -13.1339   22.6770 O   0  0  0  0  0  0  0  0  0  0  0  0
    6.0013  -11.9237   26.5613 C   0  0  0  0  0  0  0  0  0  0  0  0
    7.3824  -12.5773   26.5070 C   0  0  2  0  0  0  0  0  0  0  0  0
    8.4829  -11.5582   26.5705 C   0  0  0  0  0  0  0  0  0  0  0  0
    7.4454  -13.3618   25.2296 C   0  0  0  0  0  0  0  0  0  0  0  0
    8.6666  -14.2346   25.2139 C   0  0  2  0  0  0  0  0  0  0  0  0
    8.5719  -14.9947   23.9589 N   0  0  0  0  0  0  0  0  0  0  0  0
    8.6467  -15.1617   26.3631 C   0  0  0  0  0  0  0  0  0  0  0  0
    8.0454  -16.2564   26.4154 O   0  0  0  0  0  0  0  0  0  0  0  0
    9.3540  -14.8405   27.5464 O   0  0  0  0  0  0  0  0  0  0  0  0
  2  3  2  0
  2  1  1  0
  4  2  1  0
  5  4  1  0
  6  7  1  6
  6  5  1  0
  8  6  1  0
  9  8  2  0
 11 10  1  6
 11 12  1  0
 11 13  1  0
 13 15  1  0
 13 14  1  1
 14  8  1  0
 15 16  2  0
 18 17  1  6
 18 19  1  0
 18 20  1  0
 21 20  1  1
 22 21  1  0
 22 15  1  0
 23 25  1  0
 23 21  1  0
 24 23  2  0
M  END
$$$$
