QTL.pdb
     RDKit          3D

 25 24  0  0  1  0  0  0  0  0999 V2000
   13.6437  -19.1897   19.3459 N   0  0  0  0  0  0  0  0  0  0  0  0
   12.5873  -20.0030   18.8871 C   0  0  0  0  0  0  0  0  0  0  0  0
   12.7383  -20.7117   17.8645 O   0  0  0  0  0  0  0  0  0  0  0  0
   11.3178  -19.9923   19.6388 C   0  0  0  0  0  0  0  0  0  0  0  0
   11.3776  -19.0798   20.8468 C   0  0  0  0  0  0  0  0  0  0  0  0
    9.9436  -18.6768   21.1540 C   0  0  2  0  0  0  0  0  0  0  0  0
    9.0458  -19.1153   20.1250 N   0  0  0  0  0  0  0  0  0  0  0  0
    9.9186  -17.2027   21.2678 C   0  0  0  0  0  0  0  0  0  0  0  0
   10.8337  -16.4971   20.7871 O   0  0  0  0  0  0  0  0  0  0  0  0
    7.3925  -14.8490   19.7716 C   0  0  0  0  0  0  0  0  0  0  0  0
    7.4124  -14.7030   21.2624 C   0  0  1  0  0  0  0  0  0  0  0  0
    6.3792  -15.4811   21.7814 O   0  0  0  0  0  0  0  0  0  0  0  0
    8.7299  -15.1359   21.8740 C   0  0  2  0  0  0  0  0  0  0  0  0
    8.8380  -16.5773   21.9338 N   0  0  0  0  0  0  0  0  0  0  0  0
    8.9148  -14.5997   23.2305 C   0  0  0  0  0  0  0  0  0  0  0  0
    9.3159  -13.4356   23.3969 O   0  0  0  0  0  0  0  0  0  0  0  0
    5.8988  -12.4721   26.9366 C   0  0  0  0  0  0  0  0  0  0  0  0
    7.2862  -13.1145   26.9440 C   0  0  2  0  0  0  0  0  0  0  0  0
    8.3685  -12.0983   27.1668 C   0  0  0  0  0  0  0  0  0  0  0  0
    7.4562  -13.8041   25.6225 C   0  0  0  0  0  0  0  0  0  0  0  0
    8.5902  -14.7854   25.6889 C   0  0  2  0  0  0  0  0  0  0  0  0
    8.6406  -15.3961   24.3524 N   0  0  0  0  0  0  0  0  0  0  0  0
    8.3102  -15.8221   26.7026 C   0  0  0  0  0  0  0  0  0  0  0  0
    7.5116  -16.7757   26.5788 O   0  0  0  0  0  0  0  0  0  0  0  0
    8.9743  -15.7906   27.9522 O   0  0  0  0  0  0  0  0  0  0  0  0
  2  3  2  0
  2  1  1  0
  4  2  1  0
  5  4  1  0
  6  7  1  6
  6  5  1  0
  8  6  1  0
  9  8  2  0
 11 10  1  6
 11 12  1  0
 11 13  1  0
 13 15  1  0
 13 14  1  1
 14  8  1  0
 15 16  2  0
 18 17  1  6
 18 19  1  0
 18 20  1  0
 21 20  1  6
 22 21  1  0
 22 15  1  0
 23 25  1  0
 23 21  1  0
 24 23  2  0
M  END
$$$$
