QTL.pdb
     RDKit          3D

 25 24  0  0  1  0  0  0  0  0999 V2000
   15.4644  -14.9611   22.6649 N   0  0  0  0  0  0  0  0  0  0  0  0
   15.5758  -15.6244   21.4258 C   0  0  0  0  0  0  0  0  0  0  0  0
   16.7029  -15.9576   20.9904 O   0  0  0  0  0  0  0  0  0  0  0  0
   14.3409  -15.9091   20.6701 C   0  0  0  0  0  0  0  0  0  0  0  0
   13.1070  -15.3819   21.3738 C   0  0  0  0  0  0  0  0  0  0  0  0
   11.9305  -15.6688   20.4536 C   0  0  2  0  0  0  0  0  0  0  0  0
   12.1748  -15.1835   19.1263 N   0  0  0  0  0  0  0  0  0  0  0  0
   10.7464  -15.0026   21.0375 C   0  0  0  0  0  0  0  0  0  0  0  0
   10.5849  -13.7648   20.9465 O   0  0  0  0  0  0  0  0  0  0  0  0
    7.2073  -15.1270   20.2245 C   0  0  0  0  0  0  0  0  0  0  0  0
    7.3374  -15.5718   21.6491 C   0  0  1  0  0  0  0  0  0  0  0  0
    7.2780  -16.9640   21.6688 O   0  0  0  0  0  0  0  0  0  0  0  0
    8.6313  -15.1101   22.2892 C   0  0  2  0  0  0  0  0  0  0  0  0
    9.7763  -15.7805   21.7127 N   0  0  0  0  0  0  0  0  0  0  0  0
    8.6435  -15.3364   23.7420 C   0  0  0  0  0  0  0  0  0  0  0  0
    9.4421  -16.1439   24.2456 O   0  0  0  0  0  0  0  0  0  0  0  0
    8.4473  -12.2147   26.9417 C   0  0  0  0  0  0  0  0  0  0  0  0
    7.1442  -12.5350   26.2088 C   0  0  2  0  0  0  0  0  0  0  0  0
    6.0563  -11.5610   26.5570 C   0  0  0  0  0  0  0  0  0  0  0  0
    6.7598  -13.9340   26.5909 C   0  0  0  0  0  0  0  0  0  0  0  0
    7.7395  -14.9178   26.0204 C   0  0  2  0  0  0  0  0  0  0  0  0
    7.7537  -14.6430   24.5761 N   0  0  0  0  0  0  0  0  0  0  0  0
    7.2763  -16.2990   26.2624 C   0  0  0  0  0  0  0  0  0  0  0  0
    6.4839  -16.9460   25.5442 O   0  0  0  0  0  0  0  0  0  0  0  0
    7.7344  -17.0128   27.3957 O   0  0  0  0  0  0  0  0  0  0  0  0
  2  3  2  0
  2  1  1  0
  4  2  1  0
  5  4  1  0
  6  7  1  6
  6  5  1  0
  8  6  1  0
  9  8  2  0
 11 10  1  6
 11 12  1  0
 11 13  1  0
 13 15  1  0
 13 14  1  6
 14  8  1  0
 15 16  2  0
 18 17  1  1
 18 19  1  0
 18 20  1  0
 21 20  1  1
 22 21  1  0
 22 15  1  0
 23 25  1  0
 23 21  1  0
 24 23  2  0
M  END
$$$$
