QTL.pdb
     RDKit          3D

 25 24  0  0  1  0  0  0  0  0999 V2000
   11.5950  -14.2677   20.8543 N   0  0  0  0  0  0  0  0  0  0  0  0
   12.0200  -13.6407   19.6651 C   0  0  0  0  0  0  0  0  0  0  0  0
   13.2326  -13.6507   19.3481 O   0  0  0  0  0  0  0  0  0  0  0  0
   11.0060  -12.9826   18.8191 C   0  0  0  0  0  0  0  0  0  0  0  0
    9.6086  -13.1270   19.3865 C   0  0  0  0  0  0  0  0  0  0  0  0
    9.1420  -14.5303   19.0313 C   0  0  2  0  0  0  0  0  0  0  0  0
    8.4291  -14.5444   17.7869 N   0  0  0  0  0  0  0  0  0  0  0  0
    8.2694  -14.9925   20.1320 C   0  0  0  0  0  0  0  0  0  0  0  0
    7.0314  -14.8115   20.1010 O   0  0  0  0  0  0  0  0  0  0  0  0
    6.9688  -17.9843   21.0523 C   0  0  0  0  0  0  0  0  0  0  0  0
    7.7214  -17.5657   22.2782 C   0  0  1  0  0  0  0  0  0  0  0  0
    8.9352  -18.2504   22.2886 O   0  0  0  0  0  0  0  0  0  0  0  0
    7.9805  -16.0731   22.3231 C   0  0  2  0  0  0  0  0  0  0  0  0
    8.8460  -15.6529   21.2427 N   0  0  0  0  0  0  0  0  0  0  0  0
    8.5876  -15.6531   23.5947 C   0  0  0  0  0  0  0  0  0  0  0  0
    9.8216  -15.5535   23.6993 O   0  0  0  0  0  0  0  0  0  0  0  0
    8.3573  -11.9897   25.7665 C   0  0  0  0  0  0  0  0  0  0  0  0
    7.0692  -12.8135   25.7788 C   0  0  2  0  0  0  0  0  0  0  0  0
    5.9144  -12.0319   26.3347 C   0  0  0  0  0  0  0  0  0  0  0  0
    7.3404  -14.0373   26.6033 C   0  0  0  0  0  0  0  0  0  0  0  0
    8.3961  -14.8817   25.9508 C   0  0  2  0  0  0  0  0  0  0  0  0
    7.7807  -15.3601   24.7042 N   0  0  0  0  0  0  0  0  0  0  0  0
    8.7369  -16.0306   26.8137 C   0  0  0  0  0  0  0  0  0  0  0  0
    8.2521  -17.1800   26.7342 O   0  0  0  0  0  0  0  0  0  0  0  0
    9.6941  -15.8837   27.8460 O   0  0  0  0  0  0  0  0  0  0  0  0
  2  3  2  0
  2  1  1  0
  4  2  1  0
  5  4  1  0
  6  7  1  6
  6  5  1  0
  8  6  1  0
  9  8  2  0
 11 10  1  6
 11 12  1  0
 11 13  1  0
 13 15  1  0
 13 14  1  6
 14  8  1  0
 15 16  2  0
 18 17  1  1
 18 19  1  0
 18 20  1  0
 21 20  1  1
 22 21  1  0
 22 15  1  0
 23 25  1  0
 23 21  1  0
 24 23  2  0
M  END
$$$$
