QTL.pdb
     RDKit          3D

 25 24  0  0  1  0  0  0  0  0999 V2000
   14.4734  -15.5457   20.2898 N   0  0  0  0  0  0  0  0  0  0  0  0
   14.0751  -14.6684   19.2604 C   0  0  0  0  0  0  0  0  0  0  0  0
   14.9326  -13.9981   18.6391 O   0  0  0  0  0  0  0  0  0  0  0  0
   12.6375  -14.5670   18.9437 C   0  0  0  0  0  0  0  0  0  0  0  0
   11.8116  -15.5797   19.7103 C   0  0  0  0  0  0  0  0  0  0  0  0
   10.3717  -15.3932   19.2572 C   0  0  2  0  0  0  0  0  0  0  0  0
   10.2504  -14.2969   18.3404 N   0  0  0  0  0  0  0  0  0  0  0  0
    9.5609  -15.1457   20.4688 C   0  0  0  0  0  0  0  0  0  0  0  0
    9.2677  -13.9837   20.8297 O   0  0  0  0  0  0  0  0  0  0  0  0
    6.1455  -16.9510   23.4833 C   0  0  0  0  0  0  0  0  0  0  0  0
    7.1514  -17.1572   22.3924 C   0  0  1  0  0  0  0  0  0  0  0  0
    6.4567  -17.3017   21.1929 O   0  0  0  0  0  0  0  0  0  0  0  0
    8.1308  -16.0065   22.2760 C   0  0  2  0  0  0  0  0  0  0  0  0
    9.1073  -16.2450   21.2355 N   0  0  0  0  0  0  0  0  0  0  0  0
    8.8464  -15.7571   23.5360 C   0  0  0  0  0  0  0  0  0  0  0  0
    9.9982  -16.1923   23.7015 O   0  0  0  0  0  0  0  0  0  0  0  0
    6.8302  -12.0996   25.1750 C   0  0  0  0  0  0  0  0  0  0  0  0
    7.0440  -13.2785   26.1249 C   0  0  2  0  0  0  0  0  0  0  0  0
    6.3750  -13.0537   27.4498 C   0  0  0  0  0  0  0  0  0  0  0  0
    8.5260  -13.4447   26.2892 C   0  0  0  0  0  0  0  0  0  0  0  0
    8.9508  -14.8103   25.8330 C   0  0  2  0  0  0  0  0  0  0  0  0
    8.2368  -15.0248   24.5658 N   0  0  0  0  0  0  0  0  0  0  0  0
    8.5381  -15.8296   26.8187 C   0  0  0  0  0  0  0  0  0  0  0  0
    7.5727  -16.6154   26.7045 O   0  0  0  0  0  0  0  0  0  0  0  0
    9.2605  -15.9826   28.0263 O   0  0  0  0  0  0  0  0  0  0  0  0
  2  3  2  0
  2  1  1  0
  4  2  1  0
  5  4  1  0
  6  7  1  6
  6  5  1  0
  8  6  1  0
  9  8  2  0
 11 10  1  1
 11 12  1  0
 11 13  1  0
 13 15  1  0
 13 14  1  6
 14  8  1  0
 15 16  2  0
 18 17  1  6
 18 19  1  0
 18 20  1  0
 21 20  1  1
 22 21  1  0
 22 15  1  0
 23 25  1  0
 23 21  1  0
 24 23  2  0
M  END
$$$$
