QTL.pdb
     RDKit          3D

 25 24  0  0  1  0  0  0  0  0999 V2000
    7.9492  -12.5580   18.0293 N   0  0  0  0  0  0  0  0  0  0  0  0
    8.5997  -13.4855   17.1900 C   0  0  0  0  0  0  0  0  0  0  0  0
    8.8255  -13.1976   15.9913 O   0  0  0  0  0  0  0  0  0  0  0  0
    8.9997  -14.7860   17.7606 C   0  0  0  0  0  0  0  0  0  0  0  0
    8.5952  -14.9199   19.2145 C   0  0  0  0  0  0  0  0  0  0  0  0
    9.0018  -16.3199   19.6479 C   0  0  2  0  0  0  0  0  0  0  0  0
    8.4501  -17.3173   18.7773 N   0  0  0  0  0  0  0  0  0  0  0  0
    8.5093  -16.5103   21.0292 C   0  0  0  0  0  0  0  0  0  0  0  0
    7.3135  -16.7986   21.2599 O   0  0  0  0  0  0  0  0  0  0  0  0
    9.2021  -19.2452   22.9170 C   0  0  0  0  0  0  0  0  0  0  0  0
    9.6283  -18.1174   23.8063 C   0  0  1  0  0  0  0  0  0  0  0  0
   11.0145  -18.0041   23.7176 O   0  0  0  0  0  0  0  0  0  0  0  0
    8.9861  -16.7985   23.4253 C   0  0  2  0  0  0  0  0  0  0  0  0
    9.4084  -16.3635   22.1118 N   0  0  0  0  0  0  0  0  0  0  0  0
    9.2946  -15.7320   24.3893 C   0  0  0  0  0  0  0  0  0  0  0  0
   10.3051  -15.0245   24.2417 O   0  0  0  0  0  0  0  0  0  0  0  0
    7.7367  -12.1105   25.5892 C   0  0  0  0  0  0  0  0  0  0  0  0
    6.7981  -13.2250   26.0525 C   0  0  2  0  0  0  0  0  0  0  0  0
    5.5188  -12.6770   26.6152 C   0  0  0  0  0  0  0  0  0  0  0  0
    7.5423  -14.0244   27.0812 C   0  0  0  0  0  0  0  0  0  0  0  0
    8.8394  -14.5239   26.5145 C   0  0  2  0  0  0  0  0  0  0  0  0
    8.4516  -15.5010   25.4866 N   0  0  0  0  0  0  0  0  0  0  0  0
    9.6327  -15.1919   27.5659 C   0  0  0  0  0  0  0  0  0  0  0  0
   10.2392  -14.6264   28.5013 O   0  0  0  0  0  0  0  0  0  0  0  0
    9.7581  -16.6018   27.5724 O   0  0  0  0  0  0  0  0  0  0  0  0
  2  3  2  0
  2  1  1  0
  4  2  1  0
  5  4  1  0
  6  7  1  6
  6  5  1  0
  8  6  1  0
  9  8  2  0
 11 10  1  6
 11 12  1  0
 11 13  1  0
 13 15  1  0
 13 14  1  6
 14  8  1  0
 15 16  2  0
 18 17  1  1
 18 19  1  0
 18 20  1  0
 21 20  1  1
 22 21  1  0
 22 15  1  0
 23 25  1  0
 23 21  1  0
 24 23  2  0
M  END
$$$$
