PRR.pdb
     RDKit          3D

 30 30  0  0  1  0  0  0  0  0999 V2000
    7.5024  -19.2681   17.5762 N   0  0  0  0  0  0  0  0  0  0  0  0
    7.0905  -19.5731   16.2085 C   0  0  0  0  0  0  0  0  0  0  0  0
    8.0214  -18.6310   15.4341 C   0  0  0  0  0  0  0  0  0  0  0  0
    9.3423  -18.9039   16.1305 C   0  0  0  0  0  0  0  0  0  0  0  0
    8.9448  -19.4328   17.4978 C   0  0  1  0  0  0  0  0  0  0  0  0
    9.5750  -18.5965   18.5804 C   0  0  0  0  0  0  0  0  0  0  0  0
   10.8120  -18.4816   18.6960 O   0  0  0  0  0  0  0  0  0  0  0  0
    7.2381  -10.8291   19.7803 N   0  0  0  0  0  0  0  0  0  0  0  0
    7.4266  -11.9917   18.9760 C   0  0  0  0  0  0  0  0  0  0  0  0
    8.3826  -11.9202   18.0923 N   0  0  0  0  0  0  0  0  0  0  0  0
    6.6283  -13.1554   19.1228 N   0  0  0  0  0  0  0  0  0  0  0  0
    6.8843  -14.0590   20.2218 C   0  0  0  0  0  0  0  0  0  0  0  0
    7.9811  -15.0632   19.8498 C   0  0  0  0  0  0  0  0  0  0  0  0
    8.1983  -16.0590   20.9481 C   0  0  0  0  0  0  0  0  0  0  0  0
    9.2196  -17.0568   20.5708 C   0  0  2  0  0  0  0  0  0  0  0  0
    8.7484  -17.9271   19.4854 N   0  0  0  0  0  0  0  0  0  0  0  0
    9.6177  -17.8872   21.7334 C   0  0  0  0  0  0  0  0  0  0  0  0
    8.8425  -18.6736   22.3232 O   0  0  0  0  0  0  0  0  0  0  0  0
    8.5973  -12.6961   17.4278 N   0  0  0  0  0  0  0  0  0  0  0  0
   16.4144  -23.1463   24.3333 C   0  0  0  0  0  0  0  0  0  0  0  0
   16.4638  -21.7744   24.6684 N   0  0  0  0  0  0  0  0  0  0  0  0
   17.6228  -21.2221   24.7965 N   0  0  0  0  0  0  0  0  0  0  0  0
   15.2508  -21.0644   24.8515 C   0  0  0  0  0  0  0  0  0  0  0  0
   14.3758  -20.9105   23.7052 C   0  0  0  0  0  0  0  0  0  0  0  0
   13.0611  -20.2335   24.1050 C   0  0  0  0  0  0  0  0  0  0  0  0
   12.6397  -19.2859   23.0415 C   0  0  2  0  0  0  0  0  0  0  0  0
   11.3456  -18.6106   23.3776 N   0  0  0  0  0  0  0  0  0  0  0  0
   10.9635  -17.7959   22.2219 C   0  0  0  0  0  0  0  0  0  0  0  0
   11.4932  -17.7515   24.5704 O   0  0  0  0  0  0  0  0  0  0  0  0
   11.7059  -16.5313   24.4655 O   0  0  0  0  0  0  0  0  0  0  0  0
  1  2  1  0
  3  2  1  0
  4  5  1  0
  4  3  1  0
  5  1  1  0
  5  6  1  1
  6 16  1  0
  7  6  2  0
  8  9  1  0
  9 10  2  0
 11  9  1  0
 12 11  1  0
 13 12  1  0
 14 13  1  0
 15 14  1  1
 15 16  1  0
 17 15  1  0
 17 27  1  0
 18 17  2  0
 20 22  1  0
 20 19  1  0
 21 20  2  0
 22 23  1  0
 23 24  1  0
 25 24  1  0
 26 25  1  6
 26 27  1  0
 26 28  1  0
 28 29  2  0
 28 30  1  0
M  END
$$$$
