PRR.pdb
     RDKit          3D

 30 30  0  0  1  0  0  0  0  0999 V2000
    8.6218  -14.7624   20.3386 N   0  0  0  0  0  0  0  0  0  0  0  0
    8.6763  -13.8807   19.1756 C   0  0  0  0  0  0  0  0  0  0  0  0
    7.2932  -13.2241   19.2746 C   0  0  0  0  0  0  0  0  0  0  0  0
    7.2508  -12.8761   20.7515 C   0  0  0  0  0  0  0  0  0  0  0  0
    8.2319  -13.8415   21.3940 C   0  0  1  0  0  0  0  0  0  0  0  0
    7.5477  -14.6299   22.4796 C   0  0  0  0  0  0  0  0  0  0  0  0
    6.9964  -14.0791   23.4540 O   0  0  0  0  0  0  0  0  0  0  0  0
    2.8612  -21.0379   21.5696 N   0  0  0  0  0  0  0  0  0  0  0  0
    2.9484  -19.8045   20.8587 C   0  0  0  0  0  0  0  0  0  0  0  0
    1.8122  -19.2804   20.4923 N   0  0  0  0  0  0  0  0  0  0  0  0
    4.1892  -19.1819   20.5657 N   0  0  0  0  0  0  0  0  0  0  0  0
    4.3210  -17.7509   20.7227 C   0  0  0  0  0  0  0  0  0  0  0  0
    4.6638  -17.3971   22.1743 C   0  0  0  0  0  0  0  0  0  0  0  0
    6.0138  -17.9236   22.5554 C   0  0  0  0  0  0  0  0  0  0  0  0
    6.7910  -16.9130   23.3007 C   0  0  2  0  0  0  0  0  0  0  0  0
    7.5291  -16.0238   22.3940 N   0  0  0  0  0  0  0  0  0  0  0  0
    7.7378  -17.5510   24.2473 C   0  0  0  0  0  0  0  0  0  0  0  0
    7.3976  -18.3951   25.1070 O   0  0  0  0  0  0  0  0  0  0  0  0
    1.7463  -18.3654   19.9942 N   0  0  0  0  0  0  0  0  0  0  0  0
   10.3605  -18.4138   21.0070 C   0  0  0  0  0  0  0  0  0  0  0  0
   11.6900  -18.7048   20.6269 N   0  0  0  0  0  0  0  0  0  0  0  0
   11.8757  -19.5044   19.6316 N   0  0  0  0  0  0  0  0  0  0  0  0
   12.7588  -18.1150   21.3473 C   0  0  0  0  0  0  0  0  0  0  0  0
   12.6920  -18.1343   22.7958 C   0  0  0  0  0  0  0  0  0  0  0  0
   11.5813  -17.2113   23.3067 C   0  0  0  0  0  0  0  0  0  0  0  0
   11.4327  -17.3686   24.7762 C   0  0  2  0  0  0  0  0  0  0  0  0
   10.0468  -17.7935   25.1539 N   0  0  0  0  0  0  0  0  0  0  0  0
    9.1254  -17.1916   24.1875 C   0  0  0  0  0  0  0  0  0  0  0  0
    9.7097  -17.3395   26.5187 O   0  0  0  0  0  0  0  0  0  0  0  0
   10.1178  -17.9496   27.5218 O   0  0  0  0  0  0  0  0  0  0  0  0
  1  2  1  0
  3  2  1  0
  4  5  1  0
  4  3  1  0
  5  1  1  0
  5  6  1  1
  6 16  1  0
  7  6  2  0
  8  9  1  0
  9 10  2  0
 11  9  1  0
 12 11  1  0
 13 12  1  0
 14 13  1  0
 15 14  1  6
 15 16  1  0
 17 15  1  0
 17 27  1  0
 18 17  2  0
 20 22  1  0
 20 19  1  0
 21 20  2  0
 22 23  1  0
 23 24  1  0
 25 24  1  0
 26 25  1  6
 26 27  1  0
 26 28  1  0
 28 29  2  0
 28 30  1  0
M  END
$$$$
