PRR.pdb
     RDKit          3D

 30 30  0  0  1  0  0  0  0  0999 V2000
    8.7150  -14.4281   17.6007 N   0  0  0  0  0  0  0  0  0  0  0  0
    8.0919  -13.4073   16.7624 C   0  0  0  0  0  0  0  0  0  0  0  0
    6.8997  -13.0259   17.6496 C   0  0  0  0  0  0  0  0  0  0  0  0
    7.5841  -12.8859   18.9973 C   0  0  0  0  0  0  0  0  0  0  0  0
    8.8366  -13.7363   18.8737 C   0  0  1  0  0  0  0  0  0  0  0  0
    8.8728  -14.7682   19.9702 C   0  0  0  0  0  0  0  0  0  0  0  0
    8.8575  -14.4552   21.1779 O   0  0  0  0  0  0  0  0  0  0  0  0
   13.0200  -21.0665   21.0265 N   0  0  0  0  0  0  0  0  0  0  0  0
   11.9984  -21.9341   21.5140 C   0  0  0  0  0  0  0  0  0  0  0  0
   12.3783  -22.8181   22.3939 N   0  0  0  0  0  0  0  0  0  0  0  0
   10.6524  -21.8462   21.0740 N   0  0  0  0  0  0  0  0  0  0  0  0
   10.2801  -20.8208   20.1255 C   0  0  0  0  0  0  0  0  0  0  0  0
    9.8768  -19.5335   20.8537 C   0  0  0  0  0  0  0  0  0  0  0  0
    9.3854  -18.4974   19.8893 C   0  0  0  0  0  0  0  0  0  0  0  0
    9.0818  -17.2270   20.5783 C   0  0  2  0  0  0  0  0  0  0  0  0
    8.9252  -16.1204   19.6250 N   0  0  0  0  0  0  0  0  0  0  0  0
   10.1338  -16.8841   21.5658 C   0  0  0  0  0  0  0  0  0  0  0  0
   11.2600  -16.4351   21.2535 O   0  0  0  0  0  0  0  0  0  0  0  0
   11.7272  -23.5239   22.8035 N   0  0  0  0  0  0  0  0  0  0  0  0
    9.1776  -14.7950   29.9955 C   0  0  0  0  0  0  0  0  0  0  0  0
   10.5794  -14.7234   29.8323 N   0  0  0  0  0  0  0  0  0  0  0  0
   11.2995  -14.4705   30.8725 N   0  0  0  0  0  0  0  0  0  0  0  0
   11.1359  -14.9277   28.5448 C   0  0  0  0  0  0  0  0  0  0  0  0
   10.2856  -15.5075   27.5230 C   0  0  0  0  0  0  0  0  0  0  0  0
   11.0141  -15.5778   26.1773 C   0  0  0  0  0  0  0  0  0  0  0  0
   10.1012  -16.1208   25.1390 C   0  0  2  0  0  0  0  0  0  0  0  0
   10.8509  -16.6070   23.9368 N   0  0  0  0  0  0  0  0  0  0  0  0
    9.8616  -17.0717   22.9618 C   0  0  0  0  0  0  0  0  0  0  0  0
   11.7610  -17.7142   24.2950 O   0  0  0  0  0  0  0  0  0  0  0  0
   11.3798  -18.8971   24.2716 O   0  0  0  0  0  0  0  0  0  0  0  0
  1  2  1  0
  3  2  1  0
  4  5  1  0
  4  3  1  0
  5  1  1  0
  5  6  1  1
  6 16  1  0
  7  6  2  0
  8  9  1  0
  9 10  2  0
 11  9  1  0
 12 11  1  0
 13 12  1  0
 14 13  1  0
 15 14  1  6
 15 16  1  0
 17 15  1  0
 17 27  1  0
 18 17  2  0
 20 22  1  0
 20 19  1  0
 21 20  2  0
 22 23  1  0
 23 24  1  0
 25 24  1  0
 26 25  1  6
 26 27  1  0
 26 28  1  0
 28 29  2  0
 28 30  1  0
M  END
$$$$
