PRR.pdb
     RDKit          3D

 30 30  0  0  1  0  0  0  0  0999 V2000
    8.5874  -15.0103   16.7960 N   0  0  0  0  0  0  0  0  0  0  0  0
    8.3231  -14.1965   15.6123 C   0  0  0  0  0  0  0  0  0  0  0  0
    7.1971  -13.3036   16.1496 C   0  0  0  0  0  0  0  0  0  0  0  0
    7.7750  -12.8981   17.4934 C   0  0  0  0  0  0  0  0  0  0  0  0
    8.7722  -13.9960   17.8211 C   0  0  1  0  0  0  0  0  0  0  0  0
    8.4465  -14.6102   19.1571 C   0  0  0  0  0  0  0  0  0  0  0  0
    8.5080  -13.9598   20.2201 O   0  0  0  0  0  0  0  0  0  0  0  0
    7.9331  -21.3737   23.3746 N   0  0  0  0  0  0  0  0  0  0  0  0
    6.5478  -21.0353   23.3513 C   0  0  0  0  0  0  0  0  0  0  0  0
    5.9251  -21.1194   24.4937 N   0  0  0  0  0  0  0  0  0  0  0  0
    5.8835  -20.6319   22.1643 N   0  0  0  0  0  0  0  0  0  0  0  0
    6.0215  -19.2698   21.7004 C   0  0  0  0  0  0  0  0  0  0  0  0
    7.4936  -18.9389   21.4299 C   0  0  0  0  0  0  0  0  0  0  0  0
    7.6481  -18.1545   20.1626 C   0  0  0  0  0  0  0  0  0  0  0  0
    7.8465  -16.7183   20.4436 C   0  0  2  0  0  0  0  0  0  0  0  0
    8.0629  -15.9521   19.2092 N   0  0  0  0  0  0  0  0  0  0  0  0
    8.9870  -16.5019   21.3666 C   0  0  0  0  0  0  0  0  0  0  0  0
   10.1834  -16.6872   21.0480 O   0  0  0  0  0  0  0  0  0  0  0  0
    4.9213  -20.8574   24.6109 N   0  0  0  0  0  0  0  0  0  0  0  0
    9.8586  -16.5089   30.4783 C   0  0  0  0  0  0  0  0  0  0  0  0
   10.3645  -15.3817   29.7927 N   0  0  0  0  0  0  0  0  0  0  0  0
   10.4254  -14.2609   30.4289 N   0  0  0  0  0  0  0  0  0  0  0  0
   10.7799  -15.5225   28.4448 C   0  0  0  0  0  0  0  0  0  0  0  0
    9.7535  -15.6728   27.4314 C   0  0  0  0  0  0  0  0  0  0  0  0
   10.3717  -15.7622   26.0326 C   0  0  0  0  0  0  0  0  0  0  0  0
    9.2960  -15.8404   25.0114 C   0  0  1  0  0  0  0  0  0  0  0  0
    9.8500  -15.8778   23.6201 N   0  0  0  0  0  0  0  0  0  0  0  0
    8.7212  -16.0549   22.7037 C   0  0  0  0  0  0  0  0  0  0  0  0
   10.8044  -16.9944   23.4624 O   0  0  0  0  0  0  0  0  0  0  0  0
   12.0277  -16.7915   23.3772 O   0  0  0  0  0  0  0  0  0  0  0  0
  1  2  1  0
  3  2  1  0
  4  5  1  0
  4  3  1  0
  5  1  1  0
  5  6  1  1
  6 16  1  0
  7  6  2  0
  8  9  1  0
  9 10  2  0
 11  9  1  0
 12 11  1  0
 13 12  1  0
 14 13  1  0
 15 14  1  6
 15 16  1  0
 17 15  1  0
 17 27  1  0
 18 17  2  0
 20 22  1  0
 20 19  1  0
 21 20  2  0
 22 23  1  0
 23 24  1  0
 25 24  1  0
 26 25  1  6
 26 27  1  0
 26 28  1  0
 28 29  2  0
 28 30  1  0
M  END
$$$$
