PRR.pdb
     RDKit          3D

 30 30  0  0  1  0  0  0  0  0999 V2000
   10.1626  -17.5411   18.8694 N   0  0  0  0  0  0  0  0  0  0  0  0
   10.7318  -17.8529   17.5610 C   0  0  0  0  0  0  0  0  0  0  0  0
   11.8756  -16.8313   17.5182 C   0  0  0  0  0  0  0  0  0  0  0  0
   12.4717  -17.0168   18.9019 C   0  0  0  0  0  0  0  0  0  0  0  0
   11.3356  -17.5967   19.7266 C   0  0  1  0  0  0  0  0  0  0  0  0
   11.0791  -16.7341   20.9343 C   0  0  0  0  0  0  0  0  0  0  0  0
   11.8490  -16.7195   21.9161 O   0  0  0  0  0  0  0  0  0  0  0  0
    8.6973  -15.0377   17.5644 N   0  0  0  0  0  0  0  0  0  0  0  0
    8.0231  -13.8144   17.2764 C   0  0  0  0  0  0  0  0  0  0  0  0
    8.0903  -13.4083   16.0393 N   0  0  0  0  0  0  0  0  0  0  0  0
    7.3219  -13.0809   18.2681 N   0  0  0  0  0  0  0  0  0  0  0  0
    7.9439  -12.8473   19.5520 C   0  0  0  0  0  0  0  0  0  0  0  0
    8.1124  -14.1649   20.3171 C   0  0  0  0  0  0  0  0  0  0  0  0
    8.7277  -13.9340   21.6637 C   0  0  0  0  0  0  0  0  0  0  0  0
    9.5150  -15.1048   22.0997 C   0  0  2  0  0  0  0  0  0  0  0  0
    9.9422  -15.9233   20.9572 N   0  0  0  0  0  0  0  0  0  0  0  0
    8.7492  -15.9455   23.0517 C   0  0  0  0  0  0  0  0  0  0  0  0
    7.9148  -16.8098   22.6996 O   0  0  0  0  0  0  0  0  0  0  0  0
    7.6545  -12.5178   15.7122 N   0  0  0  0  0  0  0  0  0  0  0  0
   13.4242  -19.9253   21.7024 C   0  0  0  0  0  0  0  0  0  0  0  0
   13.7187  -19.8745   23.0835 N   0  0  0  0  0  0  0  0  0  0  0  0
   14.6880  -20.6027   23.5248 N   0  0  0  0  0  0  0  0  0  0  0  0
   12.9447  -19.0356   23.9240 C   0  0  0  0  0  0  0  0  0  0  0  0
   11.8165  -19.6263   24.6177 C   0  0  0  0  0  0  0  0  0  0  0  0
   11.1377  -18.6027   25.5333 C   0  0  0  0  0  0  0  0  0  0  0  0
   10.6249  -17.4671   24.7248 C   0  0  1  0  0  0  0  0  0  0  0  0
    9.3295  -16.9406   25.2621 N   0  0  0  0  0  0  0  0  0  0  0  0
    8.9653  -15.7710   24.4593 C   0  0  0  0  0  0  0  0  0  0  0  0
    9.4658  -16.5527   26.6810 O   0  0  0  0  0  0  0  0  0  0  0  0
    9.5086  -15.3585   27.0231 O   0  0  0  0  0  0  0  0  0  0  0  0
  1  2  1  0
  3  2  1  0
  4  5  1  0
  4  3  1  0
  5  1  1  0
  5  6  1  1
  6 16  1  0
  7  6  2  0
  8  9  1  0
  9 10  2  0
 11  9  1  0
 12 11  1  0
 13 12  1  0
 14 13  1  0
 15 14  1  6
 15 16  1  0
 17 15  1  0
 17 27  1  0
 18 17  2  0
 20 22  1  0
 20 19  1  0
 21 20  2  0
 22 23  1  0
 23 24  1  0
 25 24  1  0
 26 25  1  6
 26 27  1  0
 26 28  1  0
 28 29  2  0
 28 30  1  0
M  END
$$$$
