PRR.pdb
     RDKit          3D

 30 30  0  0  1  0  0  0  0  0999 V2000
    8.9477  -13.1882   19.4338 N   0  0  0  0  0  0  0  0  0  0  0  0
    8.3622  -12.3346   18.4034 C   0  0  0  0  0  0  0  0  0  0  0  0
    7.2378  -13.2521   17.9054 C   0  0  0  0  0  0  0  0  0  0  0  0
    6.6494  -13.7192   19.2244 C   0  0  0  0  0  0  0  0  0  0  0  0
    7.7808  -13.5473   20.2232 C   0  0  1  0  0  0  0  0  0  0  0  0
    8.0636  -14.8543   20.9162 C   0  0  0  0  0  0  0  0  0  0  0  0
    7.1727  -15.5018   21.5026 O   0  0  0  0  0  0  0  0  0  0  0  0
   14.5427  -14.3604   20.8629 N   0  0  0  0  0  0  0  0  0  0  0  0
   14.4582  -14.7882   19.5049 C   0  0  0  0  0  0  0  0  0  0  0  0
   14.9509  -13.9666   18.6206 N   0  0  0  0  0  0  0  0  0  0  0  0
   13.8764  -16.0277   19.1331 N   0  0  0  0  0  0  0  0  0  0  0  0
   13.3434  -16.8982   20.1567 C   0  0  0  0  0  0  0  0  0  0  0  0
   12.1069  -16.2694   20.8090 C   0  0  0  0  0  0  0  0  0  0  0  0
   10.9422  -17.2116   20.7816 C   0  0  0  0  0  0  0  0  0  0  0  0
    9.7770  -16.6421   21.4879 C   0  0  2  0  0  0  0  0  0  0  0  0
    9.3657  -15.3592   20.9026 N   0  0  0  0  0  0  0  0  0  0  0  0
   10.0585  -16.4592   22.9325 C   0  0  0  0  0  0  0  0  0  0  0  0
   10.3521  -15.3573   23.4490 O   0  0  0  0  0  0  0  0  0  0  0  0
   14.9640  -14.1778   17.5983 N   0  0  0  0  0  0  0  0  0  0  0  0
    5.8330  -22.5410   26.3224 C   0  0  0  0  0  0  0  0  0  0  0  0
    6.9308  -22.3758   27.1967 N   0  0  0  0  0  0  0  0  0  0  0  0
    7.1830  -23.3194   28.0397 N   0  0  0  0  0  0  0  0  0  0  0  0
    7.7044  -21.1907   27.1171 C   0  0  0  0  0  0  0  0  0  0  0  0
    7.0198  -19.9551   26.7891 C   0  0  0  0  0  0  0  0  0  0  0  0
    8.0040  -18.7830   26.7226 C   0  0  0  0  0  0  0  0  0  0  0  0
    8.7257  -18.8054   25.4246 C   0  0  1  0  0  0  0  0  0  0  0  0
    9.3009  -17.4649   25.0836 N   0  0  0  0  0  0  0  0  0  0  0  0
    9.9949  -17.5995   23.8008 C   0  0  0  0  0  0  0  0  0  0  0  0
   10.2505  -17.0185   26.1235 O   0  0  0  0  0  0  0  0  0  0  0  0
    9.8652  -16.7309   27.2697 O   0  0  0  0  0  0  0  0  0  0  0  0
  1  2  1  0
  3  2  1  0
  4  5  1  0
  4  3  1  0
  5  1  1  0
  5  6  1  6
  6 16  1  0
  7  6  2  0
  8  9  1  0
  9 10  2  0
 11  9  1  0
 12 11  1  0
 13 12  1  0
 14 13  1  0
 15 14  1  6
 15 16  1  0
 17 15  1  0
 17 27  1  0
 18 17  2  0
 20 22  1  0
 20 19  1  0
 21 20  2  0
 22 23  1  0
 23 24  1  0
 25 24  1  0
 26 25  1  6
 26 27  1  0
 26 28  1  0
 28 29  2  0
 28 30  1  0
M  END
$$$$
