PRR.pdb
     RDKit          3D

 30 30  0  0  1  0  0  0  0  0999 V2000
    7.0382  -20.6840   18.0861 N   0  0  0  0  0  0  0  0  0  0  0  0
    6.9412  -21.5334   16.9020 C   0  0  0  0  0  0  0  0  0  0  0  0
    8.2858  -21.2148   16.2354 C   0  0  0  0  0  0  0  0  0  0  0  0
    9.2223  -21.3172   17.4256 C   0  0  0  0  0  0  0  0  0  0  0  0
    8.3287  -21.0750   18.6297 C   0  0  1  0  0  0  0  0  0  0  0  0
    8.8624  -19.9297   19.4493 C   0  0  0  0  0  0  0  0  0  0  0  0
    9.9212  -20.0175   20.1035 O   0  0  0  0  0  0  0  0  0  0  0  0
   10.2098  -12.8633   20.2932 N   0  0  0  0  0  0  0  0  0  0  0  0
    9.0774  -12.2469   19.6834 C   0  0  0  0  0  0  0  0  0  0  0  0
    9.1360  -10.9502   19.5607 N   0  0  0  0  0  0  0  0  0  0  0  0
    7.9553  -12.9913   19.2365 N   0  0  0  0  0  0  0  0  0  0  0  0
    7.3063  -13.9118   20.1427 C   0  0  0  0  0  0  0  0  0  0  0  0
    8.2270  -15.0959   20.4592 C   0  0  0  0  0  0  0  0  0  0  0  0
    7.7098  -16.3623   19.8478 C   0  0  0  0  0  0  0  0  0  0  0  0
    8.5877  -17.5066   20.1649 C   0  0  2  0  0  0  0  0  0  0  0  0
    8.1494  -18.7291   19.4788 N   0  0  0  0  0  0  0  0  0  0  0  0
    8.6458  -17.7531   21.6262 C   0  0  0  0  0  0  0  0  0  0  0  0
    7.6416  -18.0117   22.3276 O   0  0  0  0  0  0  0  0  0  0  0  0
    8.3573  -10.3850   19.1557 N   0  0  0  0  0  0  0  0  0  0  0  0
   13.6817  -21.9343   26.8096 C   0  0  0  0  0  0  0  0  0  0  0  0
   12.8673  -20.9156   27.3535 N   0  0  0  0  0  0  0  0  0  0  0  0
   11.8515  -21.2667   28.0673 N   0  0  0  0  0  0  0  0  0  0  0  0
   13.1921  -19.5603   27.0952 C   0  0  0  0  0  0  0  0  0  0  0  0
   13.0168  -19.0671   25.7428 C   0  0  0  0  0  0  0  0  0  0  0  0
   11.5482  -18.7290   25.4677 C   0  0  0  0  0  0  0  0  0  0  0  0
   11.4043  -18.1978   24.0880 C   0  0  2  0  0  0  0  0  0  0  0  0
    9.9693  -17.9637   23.7278 N   0  0  0  0  0  0  0  0  0  0  0  0
    9.9170  -17.6956   22.2888 C   0  0  0  0  0  0  0  0  0  0  0  0
    9.4194  -16.8128   24.4730 O   0  0  0  0  0  0  0  0  0  0  0  0
    8.9639  -16.9451   25.6219 O   0  0  0  0  0  0  0  0  0  0  0  0
  1  2  1  0
  3  2  1  0
  4  5  1  0
  4  3  1  0
  5  1  1  0
  5  6  1  1
  6 16  1  0
  7  6  2  0
  8  9  1  0
  9 10  2  0
 11  9  1  0
 12 11  1  0
 13 12  1  0
 14 13  1  0
 15 14  1  1
 15 16  1  0
 17 15  1  0
 17 27  1  0
 18 17  2  0
 20 22  1  0
 20 19  1  0
 21 20  2  0
 22 23  1  0
 23 24  1  0
 25 24  1  0
 26 25  1  6
 26 27  1  0
 26 28  1  0
 28 29  2  0
 28 30  1  0
M  END
$$$$
