PRR.pdb
     RDKit          3D

 30 30  0  0  1  0  0  0  0  0999 V2000
    8.8842  -14.7933   18.3955 N   0  0  0  0  0  0  0  0  0  0  0  0
    8.6801  -13.8869   17.2686 C   0  0  0  0  0  0  0  0  0  0  0  0
    7.3645  -13.2232   17.6961 C   0  0  0  0  0  0  0  0  0  0  0  0
    7.6670  -12.9072   19.1497 C   0  0  0  0  0  0  0  0  0  0  0  0
    8.7582  -13.8929   19.5301 C   0  0  1  0  0  0  0  0  0  0  0  0
    8.3329  -14.7001   20.7284 C   0  0  0  0  0  0  0  0  0  0  0  0
    8.0499  -14.1685   21.8211 O   0  0  0  0  0  0  0  0  0  0  0  0
    9.6381  -22.8682   19.0555 N   0  0  0  0  0  0  0  0  0  0  0  0
   10.7135  -21.9544   19.2617 C   0  0  0  0  0  0  0  0  0  0  0  0
   11.8968  -22.3875   18.9272 N   0  0  0  0  0  0  0  0  0  0  0  0
   10.5153  -20.6552   19.7964 N   0  0  0  0  0  0  0  0  0  0  0  0
    9.1939  -20.2581   20.2280 C   0  0  0  0  0  0  0  0  0  0  0  0
    9.2149  -18.8296   20.7836 C   0  0  0  0  0  0  0  0  0  0  0  0
    7.8528  -18.4080   21.2442 C   0  0  0  0  0  0  0  0  0  0  0  0
    7.8522  -17.0013   21.6939 C   0  0  2  0  0  0  0  0  0  0  0  0
    8.2522  -16.0896   20.6139 N   0  0  0  0  0  0  0  0  0  0  0  0
    8.7462  -16.8078   22.8613 C   0  0  0  0  0  0  0  0  0  0  0  0
    9.9731  -16.5780   22.7661 O   0  0  0  0  0  0  0  0  0  0  0  0
   12.7521  -21.7910   18.9773 N   0  0  0  0  0  0  0  0  0  0  0  0
    6.8965  -10.9316   27.9383 C   0  0  0  0  0  0  0  0  0  0  0  0
    6.3693  -11.8627   27.0153 N   0  0  0  0  0  0  0  0  0  0  0  0
    5.2043  -11.6269   26.5134 N   0  0  0  0  0  0  0  0  0  0  0  0
    7.1313  -13.0101   26.6805 C   0  0  0  0  0  0  0  0  0  0  0  0
    8.4654  -13.1239   27.2374 C   0  0  0  0  0  0  0  0  0  0  0  0
    9.1010  -14.4685   26.8699 C   0  0  0  0  0  0  0  0  0  0  0  0
    8.3831  -15.0650   25.7144 C   0  0  1  0  0  0  0  0  0  0  0  0
    8.9788  -16.3770   25.3052 N   0  0  0  0  0  0  0  0  0  0  0  0
    8.1892  -16.8851   24.1811 C   0  0  0  0  0  0  0  0  0  0  0  0
    8.9425  -17.3438   26.4217 O   0  0  0  0  0  0  0  0  0  0  0  0
    8.1216  -18.2769   26.4419 O   0  0  0  0  0  0  0  0  0  0  0  0
  1  2  1  0
  3  2  1  0
  4  5  1  0
  4  3  1  0
  5  1  1  0
  5  6  1  1
  6 16  1  0
  7  6  2  0
  8  9  1  0
  9 10  2  0
 11  9  1  0
 12 11  1  0
 13 12  1  0
 14 13  1  0
 15 14  1  6
 15 16  1  0
 17 15  1  0
 17 27  1  0
 18 17  2  0
 20 22  1  0
 20 19  1  0
 21 20  2  0
 22 23  1  0
 23 24  1  0
 25 24  1  0
 26 25  1  6
 26 27  1  0
 26 28  1  0
 28 29  2  0
 28 30  1  0
M  END
$$$$
