PRR.pdb
     RDKit          3D

 30 30  0  0  1  0  0  0  0  0999 V2000
    8.4254  -14.6928   18.5924 N   0  0  0  0  0  0  0  0  0  0  0  0
    8.2685  -14.0261   17.3024 C   0  0  0  0  0  0  0  0  0  0  0  0
    7.3763  -12.8492   17.7181 C   0  0  0  0  0  0  0  0  0  0  0  0
    8.0948  -12.3784   18.9696 C   0  0  0  0  0  0  0  0  0  0  0  0
    8.8656  -13.5987   19.4428 C   0  0  1  0  0  0  0  0  0  0  0  0
    8.4940  -13.9272   20.8649 C   0  0  0  0  0  0  0  0  0  0  0  0
    8.7726  -13.1697   21.8164 O   0  0  0  0  0  0  0  0  0  0  0  0
    6.4363  -19.7532   19.4776 N   0  0  0  0  0  0  0  0  0  0  0  0
    6.2649  -20.5820   20.6256 C   0  0  0  0  0  0  0  0  0  0  0  0
    6.6813  -21.8115   20.5038 N   0  0  0  0  0  0  0  0  0  0  0  0
    5.6794  -20.1053   21.8269 N   0  0  0  0  0  0  0  0  0  0  0  0
    5.2846  -18.7180   21.9235 C   0  0  0  0  0  0  0  0  0  0  0  0
    6.5169  -17.8137   22.0400 C   0  0  0  0  0  0  0  0  0  0  0  0
    6.1233  -16.3968   22.3271 C   0  0  0  0  0  0  0  0  0  0  0  0
    7.3100  -15.5259   22.4465 C   0  0  2  0  0  0  0  0  0  0  0  0
    7.8150  -15.1189   21.1286 N   0  0  0  0  0  0  0  0  0  0  0  0
    8.3942  -16.1930   23.2074 C   0  0  0  0  0  0  0  0  0  0  0  0
    9.2461  -16.9478   22.6858 O   0  0  0  0  0  0  0  0  0  0  0  0
    6.5925  -22.5167   21.2685 N   0  0  0  0  0  0  0  0  0  0  0  0
   11.6747  -18.7806   29.4863 C   0  0  0  0  0  0  0  0  0  0  0  0
   11.1691  -17.8403   30.4119 N   0  0  0  0  0  0  0  0  0  0  0  0
   11.5902  -17.9004   31.6300 N   0  0  0  0  0  0  0  0  0  0  0  0
   10.2262  -16.8774   29.9725 C   0  0  0  0  0  0  0  0  0  0  0  0
   10.6501  -15.9241   28.9652 C   0  0  0  0  0  0  0  0  0  0  0  0
   10.6792  -16.5694   27.5762 C   0  0  0  0  0  0  0  0  0  0  0  0
    9.6314  -15.9610   26.7169 C   0  0  1  0  0  0  0  0  0  0  0  0
    9.5933  -16.5871   25.3566 N   0  0  0  0  0  0  0  0  0  0  0  0
    8.4860  -15.9713   24.6218 C   0  0  0  0  0  0  0  0  0  0  0  0
    9.3817  -18.0459   25.4533 O   0  0  0  0  0  0  0  0  0  0  0  0
    8.2524  -18.5458   25.3124 O   0  0  0  0  0  0  0  0  0  0  0  0
  1  2  1  0
  3  2  1  0
  4  5  1  0
  4  3  1  0
  5  1  1  0
  5  6  1  1
  6 16  1  0
  7  6  2  0
  8  9  1  0
  9 10  2  0
 11  9  1  0
 12 11  1  0
 13 12  1  0
 14 13  1  0
 15 14  1  6
 15 16  1  0
 17 15  1  0
 17 27  1  0
 18 17  2  0
 20 22  1  0
 20 19  1  0
 21 20  2  0
 22 23  1  0
 23 24  1  0
 25 24  1  0
 26 25  1  6
 26 27  1  0
 26 28  1  0
 28 29  2  0
 28 30  1  0
M  END
$$$$
