PRR.pdb
     RDKit          3D

 30 30  0  0  1  0  0  0  0  0999 V2000
    7.8406  -14.0770   18.3051 N   0  0  0  0  0  0  0  0  0  0  0  0
    7.7499  -12.6441   18.0372 C   0  0  0  0  0  0  0  0  0  0  0  0
    7.3437  -12.1388   19.4278 C   0  0  0  0  0  0  0  0  0  0  0  0
    8.3240  -12.8996   20.3021 C   0  0  0  0  0  0  0  0  0  0  0  0
    8.7115  -14.1091   19.4688 C   0  0  1  0  0  0  0  0  0  0  0  0
    8.4316  -15.3763   20.2331 C   0  0  0  0  0  0  0  0  0  0  0  0
    7.3017  -15.6397   20.6920 O   0  0  0  0  0  0  0  0  0  0  0  0
    9.3038  -24.4104   19.7660 N   0  0  0  0  0  0  0  0  0  0  0  0
   10.1421  -23.6534   20.6368 C   0  0  0  0  0  0  0  0  0  0  0  0
   11.3032  -24.1819   20.9061 N   0  0  0  0  0  0  0  0  0  0  0  0
    9.7443  -22.4041   21.1790 N   0  0  0  0  0  0  0  0  0  0  0  0
    9.9895  -21.1931   20.4286 C   0  0  0  0  0  0  0  0  0  0  0  0
    9.5826  -19.9612   21.2451 C   0  0  0  0  0  0  0  0  0  0  0  0
    9.8090  -18.6991   20.4700 C   0  0  0  0  0  0  0  0  0  0  0  0
    9.3692  -17.5153   21.2355 C   0  0  2  0  0  0  0  0  0  0  0  0
    9.4705  -16.2875   20.4356 N   0  0  0  0  0  0  0  0  0  0  0  0
   10.1540  -17.3584   22.4842 C   0  0  0  0  0  0  0  0  0  0  0  0
   11.3019  -16.8607   22.5253 O   0  0  0  0  0  0  0  0  0  0  0  0
   12.0047  -23.7195   21.5257 N   0  0  0  0  0  0  0  0  0  0  0  0
   10.9642  -13.7919   31.1507 C   0  0  0  0  0  0  0  0  0  0  0  0
   10.3153  -13.9808   29.9097 N   0  0  0  0  0  0  0  0  0  0  0  0
    9.3633  -13.1698   29.5927 N   0  0  0  0  0  0  0  0  0  0  0  0
   10.7289  -15.0447   29.0693 C   0  0  0  0  0  0  0  0  0  0  0  0
   10.1035  -15.1616   27.7662 C   0  0  0  0  0  0  0  0  0  0  0  0
   10.6049  -16.4055   27.0260 C   0  0  0  0  0  0  0  0  0  0  0  0
    9.9042  -16.5316   25.7223 C   0  0  1  0  0  0  0  0  0  0  0  0
   10.3908  -17.7127   24.9400 N   0  0  0  0  0  0  0  0  0  0  0  0
    9.5794  -17.7968   23.7235 C   0  0  0  0  0  0  0  0  0  0  0  0
   10.2518  -18.9576   25.7231 O   0  0  0  0  0  0  0  0  0  0  0  0
    9.2825  -19.7185   25.5602 O   0  0  0  0  0  0  0  0  0  0  0  0
  1  2  1  0
  3  2  1  0
  4  5  1  0
  4  3  1  0
  5  1  1  0
  5  6  1  1
  6 16  1  0
  7  6  2  0
  8  9  1  0
  9 10  2  0
 11  9  1  0
 12 11  1  0
 13 12  1  0
 14 13  1  0
 15 14  1  6
 15 16  1  0
 17 15  1  0
 17 27  1  0
 18 17  2  0
 20 22  1  0
 20 19  1  0
 21 20  2  0
 22 23  1  0
 23 24  1  0
 25 24  1  0
 26 25  1  6
 26 27  1  0
 26 28  1  0
 28 29  2  0
 28 30  1  0
M  END
$$$$
