PRR.pdb
     RDKit          3D

 30 30  0  0  1  0  0  0  0  0999 V2000
    2.5821  -19.5764   22.7206 N   0  0  0  0  0  0  0  0  0  0  0  0
    1.2395  -19.5545   22.1461 C   0  0  0  0  0  0  0  0  0  0  0  0
    1.5499  -18.9575   20.7673 C   0  0  0  0  0  0  0  0  0  0  0  0
    2.7599  -19.7827   20.3682 C   0  0  0  0  0  0  0  0  0  0  0  0
    3.3383  -20.2651   21.6873 C   0  0  1  0  0  0  0  0  0  0  0  0
    4.7816  -19.8506   21.8029 C   0  0  0  0  0  0  0  0  0  0  0  0
    5.7190  -20.6150   21.4969 O   0  0  0  0  0  0  0  0  0  0  0  0
    7.5418  -11.7237   20.2705 N   0  0  0  0  0  0  0  0  0  0  0  0
    7.7863  -12.7217   19.2814 C   0  0  0  0  0  0  0  0  0  0  0  0
    8.2443  -12.2880   18.1404 N   0  0  0  0  0  0  0  0  0  0  0  0
    7.5486  -14.1004   19.5174 N   0  0  0  0  0  0  0  0  0  0  0  0
    7.0795  -14.5288   20.8160 C   0  0  0  0  0  0  0  0  0  0  0  0
    6.8644  -16.0464   20.8378 C   0  0  0  0  0  0  0  0  0  0  0  0
    6.3707  -16.5039   22.1765 C   0  0  0  0  0  0  0  0  0  0  0  0
    6.4254  -17.9751   22.2923 C   0  0  2  0  0  0  0  0  0  0  0  0
    5.0819  -18.5683   22.2680 N   0  0  0  0  0  0  0  0  0  0  0  0
    7.1284  -18.3929   23.5295 C   0  0  0  0  0  0  0  0  0  0  0  0
    6.6135  -18.3487   24.6698 O   0  0  0  0  0  0  0  0  0  0  0  0
    8.4016  -12.9138   17.3197 N   0  0  0  0  0  0  0  0  0  0  0  0
   13.7231  -24.2791   24.9536 C   0  0  0  0  0  0  0  0  0  0  0  0
   12.8647  -24.0886   26.0598 N   0  0  0  0  0  0  0  0  0  0  0  0
   12.7061  -25.0707   26.8814 N   0  0  0  0  0  0  0  0  0  0  0  0
   12.2150  -22.8393   26.2224 C   0  0  0  0  0  0  0  0  0  0  0  0
   11.4776  -22.3067   25.0930 C   0  0  0  0  0  0  0  0  0  0  0  0
   10.6785  -21.0635   25.4960 C   0  0  0  0  0  0  0  0  0  0  0  0
    9.8855  -20.5780   24.3376 C   0  0  1  0  0  0  0  0  0  0  0  0
    9.1548  -19.3094   24.6548 N   0  0  0  0  0  0  0  0  0  0  0  0
    8.4751  -18.8777   23.4313 C   0  0  0  0  0  0  0  0  0  0  0  0
   10.0916  -18.2598   25.1056 O   0  0  0  0  0  0  0  0  0  0  0  0
   10.4729  -17.3606   24.3368 O   0  0  0  0  0  0  0  0  0  0  0  0
  1  2  1  0
  3  2  1  0
  4  5  1  0
  4  3  1  0
  5  1  1  0
  5  6  1  6
  6 16  1  0
  7  6  2  0
  8  9  1  0
  9 10  2  0
 11  9  1  0
 12 11  1  0
 13 12  1  0
 14 13  1  0
 15 14  1  1
 15 16  1  0
 17 15  1  0
 17 27  1  0
 18 17  2  0
 20 22  1  0
 20 19  1  0
 21 20  2  0
 22 23  1  0
 23 24  1  0
 25 24  1  0
 26 25  1  1
 26 27  1  0
 26 28  1  0
 28 29  2  0
 28 30  1  0
M  END
$$$$
