PRR.pdb
     RDKit          3D

 30 30  0  0  1  0  0  0  0  0999 V2000
   11.2442  -17.2703   19.2340 N   0  0  0  0  0  0  0  0  0  0  0  0
   12.0250  -17.3546   18.0025 C   0  0  0  0  0  0  0  0  0  0  0  0
   12.3517  -15.8703   17.7928 C   0  0  0  0  0  0  0  0  0  0  0  0
   12.7906  -15.4773   19.1918 C   0  0  0  0  0  0  0  0  0  0  0  0
   12.1275  -16.5019   20.0961 C   0  0  1  0  0  0  0  0  0  0  0  0
   11.2868  -15.8087   21.1358 C   0  0  0  0  0  0  0  0  0  0  0  0
   11.7613  -14.9561   21.9134 O   0  0  0  0  0  0  0  0  0  0  0  0
    8.2193  -15.3096   17.3092 N   0  0  0  0  0  0  0  0  0  0  0  0
    7.7781  -13.9608   17.1667 C   0  0  0  0  0  0  0  0  0  0  0  0
    8.1366  -13.3609   16.0660 N   0  0  0  0  0  0  0  0  0  0  0  0
    6.9986  -13.3073   18.1559 N   0  0  0  0  0  0  0  0  0  0  0  0
    6.7016  -13.9921   19.3938 C   0  0  0  0  0  0  0  0  0  0  0  0
    7.9892  -14.2729   20.1769 C   0  0  0  0  0  0  0  0  0  0  0  0
    7.7169  -15.1263   21.3781 C   0  0  0  0  0  0  0  0  0  0  0  0
    8.9643  -15.4447   22.1015 C   0  0  2  0  0  0  0  0  0  0  0  0
    9.9312  -16.1301   21.2337 N   0  0  0  0  0  0  0  0  0  0  0  0
    8.6959  -16.2784   23.2984 C   0  0  0  0  0  0  0  0  0  0  0  0
    8.4089  -17.4959   23.2467 O   0  0  0  0  0  0  0  0  0  0  0  0
    7.8869  -12.3693   15.8556 N   0  0  0  0  0  0  0  0  0  0  0  0
   11.2952  -13.9969   28.7028 C   0  0  0  0  0  0  0  0  0  0  0  0
   11.4756  -15.3131   29.1841 N   0  0  0  0  0  0  0  0  0  0  0  0
   12.6229  -15.8744   29.0016 N   0  0  0  0  0  0  0  0  0  0  0  0
   10.3997  -15.9616   29.8406 C   0  0  0  0  0  0  0  0  0  0  0  0
    9.0508  -15.6122   29.4387 C   0  0  0  0  0  0  0  0  0  0  0  0
    8.6012  -16.4502   28.2377 C   0  0  0  0  0  0  0  0  0  0  0  0
    8.8027  -15.6803   26.9836 C   0  0  2  0  0  0  0  0  0  0  0  0
    8.4646  -16.4921   25.7709 N   0  0  0  0  0  0  0  0  0  0  0  0
    8.7651  -15.6706   24.5961 C   0  0  0  0  0  0  0  0  0  0  0  0
    7.0357  -16.8671   25.7688 O   0  0  0  0  0  0  0  0  0  0  0  0
    6.1966  -16.2117   25.1274 O   0  0  0  0  0  0  0  0  0  0  0  0
  1  2  1  0
  3  2  1  0
  4  5  1  0
  4  3  1  0
  5  1  1  0
  5  6  1  1
  6 16  1  0
  7  6  2  0
  8  9  1  0
  9 10  2  0
 11  9  1  0
 12 11  1  0
 13 12  1  0
 14 13  1  0
 15 14  1  6
 15 16  1  0
 17 15  1  0
 17 27  1  0
 18 17  2  0
 20 22  1  0
 20 19  1  0
 21 20  2  0
 22 23  1  0
 23 24  1  0
 25 24  1  0
 26 25  1  6
 26 27  1  0
 26 28  1  0
 28 29  2  0
 28 30  1  0
M  END
$$$$
