KGH.pdb
     RDKit          3D

 24 24  0  0  1  0  0  0  0  0999 V2000
   25.2016  -18.9861  -14.8909 N   0  0  0  0  0  0  0  0  0  0  0  0
   26.0501  -18.1072  -14.1464 C   0  0  1  0  0  0  0  0  0  0  0  0
   27.1445  -18.8710  -13.4766 C   0  0  0  0  0  0  0  0  0  0  0  0
   27.0602  -20.3406  -13.6136 C   0  0  0  0  0  0  0  0  0  0  0  0
   25.8172  -20.9453  -13.0745 C   0  0  0  0  0  0  0  0  0  0  0  0
   25.8039  -22.4649  -13.1564 C   0  0  0  0  0  0  0  0  0  0  0  0
   24.5439  -22.9547  -12.6539 N   0  0  0  0  0  0  0  0  0  0  0  0
   26.6160  -17.0124  -14.9806 C   0  0  0  0  0  0  0  0  0  0  0  0
   27.1702  -16.0677  -14.3616 O   0  0  0  0  0  0  0  0  0  0  0  0
   26.5494  -17.0053  -16.4110 N   0  0  0  0  0  0  0  0  0  0  0  0
   26.7084  -15.7397  -17.0486 C   0  0  0  0  0  0  0  0  0  0  0  0
   25.5028  -15.1297  -17.5919 C   0  0  0  0  0  0  0  0  0  0  0  0
   25.6768  -14.0352  -18.2329 O   0  0  0  0  0  0  0  0  0  0  0  0
   24.1772  -15.6177  -17.4845 N   0  0  0  0  0  0  0  0  0  0  0  0
   23.1054  -14.9989  -18.2460 C   0  0  1  0  0  0  0  0  0  0  0  0
   22.2426  -16.0431  -18.9197 C   0  0  0  0  0  0  0  0  0  0  0  0
   23.0587  -17.0661  -19.5930 C   0  0  0  0  0  0  0  0  0  0  0  0
   23.3797  -18.3408  -19.1917 C   0  0  0  0  0  0  0  0  0  0  0  0
   24.1620  -18.9327  -20.1099 N   0  0  0  0  0  0  0  0  0  0  0  0
   24.3453  -18.0441  -21.0996 C   0  0  0  0  0  0  0  0  0  0  0  0
   23.6709  -16.9105  -20.7780 N   0  0  0  0  0  0  0  0  0  0  0  0
   22.3271  -14.0588  -17.4040 C   0  0  0  0  0  0  0  0  0  0  0  0
   21.2247  -13.3826  -17.9655 O   0  0  0  0  0  0  0  0  0  0  0  0
   22.5779  -13.8110  -16.2007 O   0  0  0  0  0  0  0  0  0  0  0  0
  2  1  1  6
  3  2  1  0
  4  3  1  0
  5  6  1  0
  5  4  1  0
  7  6  1  0
  8  2  1  0
  8 10  1  0
  9  8  2  0
 11 10  1  0
 12 11  1  0
 13 12  2  0
 14 12  1  0
 15 14  1  0
 15 16  1  1
 17 18  2  0
 17 16  1  0
 19 18  1  0
 20 21  2  0
 20 19  1  0
 21 17  1  0
 22 15  1  0
 23 22  1  0
 24 22  2  0
M  END
$$$$
