KGH.pdb
     RDKit          3D

 24 24  0  0  1  0  0  0  0  0999 V2000
   19.8648  -16.9278  -16.8634 N   0  0  0  0  0  0  0  0  0  0  0  0
   19.1722  -15.7424  -17.2657 C   0  0  1  0  0  0  0  0  0  0  0  0
   17.7132  -16.0136  -17.4315 C   0  0  0  0  0  0  0  0  0  0  0  0
   17.2766  -16.2771  -18.8191 C   0  0  0  0  0  0  0  0  0  0  0  0
   16.6826  -15.1100  -19.5165 C   0  0  0  0  0  0  0  0  0  0  0  0
   16.3028  -15.4028  -20.9609 C   0  0  0  0  0  0  0  0  0  0  0  0
   15.6935  -14.2293  -21.5369 N   0  0  0  0  0  0  0  0  0  0  0  0
   19.3862  -14.6064  -16.3285 C   0  0  0  0  0  0  0  0  0  0  0  0
   18.8795  -14.7241  -15.1830 O   0  0  0  0  0  0  0  0  0  0  0  0
   20.1232  -13.4305  -16.6811 N   0  0  0  0  0  0  0  0  0  0  0  0
   20.2073  -12.4111  -15.6874 C   0  0  0  0  0  0  0  0  0  0  0  0
   20.8767  -11.1777  -16.0766 C   0  0  0  0  0  0  0  0  0  0  0  0
   20.9757  -10.9755  -17.3369 O   0  0  0  0  0  0  0  0  0  0  0  0
   21.4209  -10.1941  -15.2145 N   0  0  0  0  0  0  0  0  0  0  0  0
   21.4932   -8.8067  -15.6404 C   0  0  1  0  0  0  0  0  0  0  0  0
   20.4669   -8.5116  -16.7119 C   0  0  0  0  0  0  0  0  0  0  0  0
   20.5991   -7.1380  -17.2236 C   0  0  0  0  0  0  0  0  0  0  0  0
   21.4751   -6.1434  -16.8598 C   0  0  0  0  0  0  0  0  0  0  0  0
   21.2404   -5.0330  -17.5790 N   0  0  0  0  0  0  0  0  0  0  0  0
   20.2173   -5.3094  -18.4034 C   0  0  0  0  0  0  0  0  0  0  0  0
   19.8324   -6.5923  -18.1814 N   0  0  0  0  0  0  0  0  0  0  0  0
   21.4015   -7.8875  -14.4807 C   0  0  0  0  0  0  0  0  0  0  0  0
   22.0616   -6.6427  -14.5347 O   0  0  0  0  0  0  0  0  0  0  0  0
   20.7670   -8.1355  -13.4280 O   0  0  0  0  0  0  0  0  0  0  0  0
  2  1  1  1
  3  2  1  0
  4  3  1  0
  5  6  1  0
  5  4  1  0
  7  6  1  0
  8  2  1  0
  8 10  1  0
  9  8  2  0
 11 10  1  0
 12 11  1  0
 13 12  2  0
 14 12  1  0
 15 14  1  0
 15 16  1  6
 17 18  2  0
 17 16  1  0
 19 18  1  0
 20 21  2  0
 20 19  1  0
 21 17  1  0
 22 15  1  0
 23 22  1  0
 24 22  2  0
M  END
$$$$
