KGH.pdb
     RDKit          3D

 24 24  0  0  1  0  0  0  0  0999 V2000
   34.7286  -27.1754  -17.0737 N   0  0  0  0  0  0  0  0  0  0  0  0
   33.5374  -27.6130  -17.7343 C   0  0  1  0  0  0  0  0  0  0  0  0
   33.7936  -28.8603  -18.5142 C   0  0  0  0  0  0  0  0  0  0  0  0
   34.8026  -28.7345  -19.5873 C   0  0  0  0  0  0  0  0  0  0  0  0
   34.9642  -29.9421  -20.4339 C   0  0  0  0  0  0  0  0  0  0  0  0
   35.9734  -29.7571  -21.5579 C   0  0  0  0  0  0  0  0  0  0  0  0
   36.1015  -30.9948  -22.2871 N   0  0  0  0  0  0  0  0  0  0  0  0
   32.4002  -27.8118  -16.7952 C   0  0  0  0  0  0  0  0  0  0  0  0
   32.6541  -28.4405  -15.7354 O   0  0  0  0  0  0  0  0  0  0  0  0
   31.0782  -27.3268  -17.0547 N   0  0  0  0  0  0  0  0  0  0  0  0
   30.0824  -27.6453  -16.0849 C   0  0  0  0  0  0  0  0  0  0  0  0
   29.5481  -28.9995  -16.1226 C   0  0  0  0  0  0  0  0  0  0  0  0
   30.4049  -29.9373  -15.9625 O   0  0  0  0  0  0  0  0  0  0  0  0
   28.1967  -29.3782  -16.3154 N   0  0  0  0  0  0  0  0  0  0  0  0
   27.8237  -30.7826  -16.3206 C   0  0  1  0  0  0  0  0  0  0  0  0
   28.2295  -31.4587  -15.0296 C   0  0  0  0  0  0  0  0  0  0  0  0
   27.8107  -32.8693  -15.0033 C   0  0  0  0  0  0  0  0  0  0  0  0
   28.1992  -33.9182  -15.8020 C   0  0  0  0  0  0  0  0  0  0  0  0
   27.5571  -35.0409  -15.4376 N   0  0  0  0  0  0  0  0  0  0  0  0
   26.7576  -34.7184  -14.4083 C   0  0  0  0  0  0  0  0  0  0  0  0
   26.9173  -33.3951  -14.1497 N   0  0  0  0  0  0  0  0  0  0  0  0
   26.3847  -30.9508  -16.6360 C   0  0  0  0  0  0  0  0  0  0  0  0
   25.4796  -29.9267  -16.2898 O   0  0  0  0  0  0  0  0  0  0  0  0
   25.8960  -31.9579  -17.2010 O   0  0  0  0  0  0  0  0  0  0  0  0
  2  1  1  1
  3  2  1  0
  4  3  1  0
  5  6  1  0
  5  4  1  0
  7  6  1  0
  8  2  1  0
  8 10  1  0
  9  8  2  0
 11 10  1  0
 12 11  1  0
 13 12  2  0
 14 12  1  0
 15 14  1  0
 15 16  1  1
 17 18  2  0
 17 16  1  0
 19 18  1  0
 20 21  2  0
 20 19  1  0
 21 17  1  0
 22 15  1  0
 23 22  1  0
 24 22  2  0
M  END
$$$$
