KGH.pdb
     RDKit          3D

 24 24  0  0  1  0  0  0  0  0999 V2000
   42.8579  -15.9971   -9.7915 N   0  0  0  0  0  0  0  0  0  0  0  0
   43.2486  -14.8228   -9.0739 C   0  0  1  0  0  0  0  0  0  0  0  0
   44.6405  -14.9615   -8.5513 C   0  0  0  0  0  0  0  0  0  0  0  0
   44.8789  -16.1510   -7.7065 C   0  0  0  0  0  0  0  0  0  0  0  0
   46.2396  -16.2357   -7.1211 C   0  0  0  0  0  0  0  0  0  0  0  0
   46.4697  -17.5073   -6.3173 C   0  0  0  0  0  0  0  0  0  0  0  0
   47.8204  -17.5093   -5.8115 N   0  0  0  0  0  0  0  0  0  0  0  0
   43.1205  -13.5835   -9.8878 C   0  0  0  0  0  0  0  0  0  0  0  0
   42.9989  -13.7410  -11.1300 O   0  0  0  0  0  0  0  0  0  0  0  0
   43.1315  -12.2697   -9.3184 N   0  0  0  0  0  0  0  0  0  0  0  0
   42.9658  -11.1821  -10.2257 C   0  0  0  0  0  0  0  0  0  0  0  0
   41.9009  -10.2370   -9.9197 C   0  0  0  0  0  0  0  0  0  0  0  0
   41.0436  -10.6301   -9.0539 O   0  0  0  0  0  0  0  0  0  0  0  0
   41.7207   -8.9462  -10.4749 N   0  0  0  0  0  0  0  0  0  0  0  0
   40.6493   -8.0877   -9.9989 C   0  0  1  0  0  0  0  0  0  0  0  0
   41.1997   -6.8208   -9.3819 C   0  0  0  0  0  0  0  0  0  0  0  0
   40.1276   -5.9819   -8.8228 C   0  0  0  0  0  0  0  0  0  0  0  0
   39.8961   -5.5993   -7.5232 C   0  0  0  0  0  0  0  0  0  0  0  0
   38.7926   -4.8358   -7.4542 N   0  0  0  0  0  0  0  0  0  0  0  0
   38.3136   -4.7260   -8.7038 C   0  0  0  0  0  0  0  0  0  0  0  0
   39.1313   -5.4261   -9.5311 N   0  0  0  0  0  0  0  0  0  0  0  0
   39.6583   -7.8277  -11.0708 C   0  0  0  0  0  0  0  0  0  0  0  0
   38.3512   -7.4329  -10.7190 O   0  0  0  0  0  0  0  0  0  0  0  0
   39.8965   -7.9337  -12.2972 O   0  0  0  0  0  0  0  0  0  0  0  0
  2  1  1  6
  3  2  1  0
  4  3  1  0
  5  6  1  0
  5  4  1  0
  7  6  1  0
  8  2  1  0
  8 10  1  0
  9  8  2  0
 11 10  1  0
 12 11  1  0
 13 12  2  0
 14 12  1  0
 15 14  1  0
 15 16  1  6
 17 18  2  0
 17 16  1  0
 19 18  1  0
 20 21  2  0
 20 19  1  0
 21 17  1  0
 22 15  1  0
 23 22  1  0
 24 22  2  0
M  END
$$$$
