KGH.pdb
     RDKit          3D

 24 24  0  0  1  0  0  0  0  0999 V2000
   29.0108  -24.1681  -16.8473 N   0  0  0  0  0  0  0  0  0  0  0  0
   29.2044  -22.9141  -17.5080 C   0  0  1  0  0  0  0  0  0  0  0  0
   28.5142  -22.9023  -18.8320 C   0  0  0  0  0  0  0  0  0  0  0  0
   27.6212  -24.0530  -19.0855 C   0  0  0  0  0  0  0  0  0  0  0  0
   26.1731  -23.7569  -18.9560 C   0  0  0  0  0  0  0  0  0  0  0  0
   25.2866  -24.9633  -19.2297 C   0  0  0  0  0  0  0  0  0  0  0  0
   23.9077  -24.5927  -19.0264 N   0  0  0  0  0  0  0  0  0  0  0  0
   28.7646  -21.7564  -16.6826 C   0  0  0  0  0  0  0  0  0  0  0  0
   28.2828  -20.7762  -17.3069 O   0  0  0  0  0  0  0  0  0  0  0  0
   28.8708  -21.7291  -15.2549 N   0  0  0  0  0  0  0  0  0  0  0  0
   28.3785  -20.5603  -14.6030 C   0  0  0  0  0  0  0  0  0  0  0  0
   26.9351  -20.4708  -14.4318 C   0  0  0  0  0  0  0  0  0  0  0  0
   26.5093  -20.6219  -13.2339 O   0  0  0  0  0  0  0  0  0  0  0  0
   25.9694  -20.2369  -15.4415 N   0  0  0  0  0  0  0  0  0  0  0  0
   24.5577  -20.1721  -15.1032 C   0  0  1  0  0  0  0  0  0  0  0  0
   24.0104  -18.7777  -15.3148 C   0  0  0  0  0  0  0  0  0  0  0  0
   22.5628  -18.7201  -15.0555 C   0  0  0  0  0  0  0  0  0  0  0  0
   21.7064  -19.7031  -14.6208 C   0  0  0  0  0  0  0  0  0  0  0  0
   20.4557  -19.2207  -14.5281 N   0  0  0  0  0  0  0  0  0  0  0  0
   20.5045  -17.9318  -14.9013 C   0  0  0  0  0  0  0  0  0  0  0  0
   21.7901  -17.6344  -15.2208 N   0  0  0  0  0  0  0  0  0  0  0  0
   23.7879  -21.2130  -15.8259 C   0  0  0  0  0  0  0  0  0  0  0  0
   22.7487  -21.8906  -15.1557 O   0  0  0  0  0  0  0  0  0  0  0  0
   23.9929  -21.5475  -17.0168 O   0  0  0  0  0  0  0  0  0  0  0  0
  2  1  1  1
  3  2  1  0
  4  3  1  0
  5  6  1  0
  5  4  1  0
  7  6  1  0
  8  2  1  0
  8 10  1  0
  9  8  2  0
 11 10  1  0
 12 11  1  0
 13 12  2  0
 14 12  1  0
 15 14  1  0
 15 16  1  6
 17 18  2  0
 17 16  1  0
 19 18  1  0
 20 21  2  0
 20 19  1  0
 21 17  1  0
 22 15  1  0
 23 22  1  0
 24 22  2  0
M  END
$$$$
