KGH.pdb
     RDKit          3D

 24 24  0  0  1  0  0  0  0  0999 V2000
   19.5000  -12.2399  -17.9680 N   0  0  0  0  0  0  0  0  0  0  0  0
   18.7392  -11.6808  -16.8931 C   0  0  1  0  0  0  0  0  0  0  0  0
   18.1635  -12.7597  -16.0363 C   0  0  0  0  0  0  0  0  0  0  0  0
   17.6232  -13.9239  -16.7700 C   0  0  0  0  0  0  0  0  0  0  0  0
   17.1645  -15.0428  -15.9103 C   0  0  0  0  0  0  0  0  0  0  0  0
   16.7310  -16.2689  -16.7008 C   0  0  0  0  0  0  0  0  0  0  0  0
   16.4459  -17.3458  -15.7846 N   0  0  0  0  0  0  0  0  0  0  0  0
   19.5279  -10.7267  -16.0670 C   0  0  0  0  0  0  0  0  0  0  0  0
   18.9473  -10.2484  -15.0587 O   0  0  0  0  0  0  0  0  0  0  0  0
   20.8752  -10.3533  -16.3765 N   0  0  0  0  0  0  0  0  0  0  0  0
   21.5277   -9.4957  -15.4425 C   0  0  0  0  0  0  0  0  0  0  0  0
   21.3678   -8.0637  -15.6532 C   0  0  0  0  0  0  0  0  0  0  0  0
   21.5517   -7.6567  -16.8530 O   0  0  0  0  0  0  0  0  0  0  0  0
   21.0343   -7.0904  -14.6793 N   0  0  0  0  0  0  0  0  0  0  0  0
   20.8486   -5.7020  -15.0658 C   0  0  1  0  0  0  0  0  0  0  0  0
   19.5186   -5.1733  -14.5758 C   0  0  0  0  0  0  0  0  0  0  0  0
   18.3924   -5.8072  -15.2798 C   0  0  0  0  0  0  0  0  0  0  0  0
   18.0911   -5.8271  -16.6206 C   0  0  0  0  0  0  0  0  0  0  0  0
   16.9573   -6.5169  -16.8309 N   0  0  0  0  0  0  0  0  0  0  0  0
   16.5284   -6.9404  -15.6311 C   0  0  0  0  0  0  0  0  0  0  0  0
   17.4068   -6.5047  -14.6921 N   0  0  0  0  0  0  0  0  0  0  0  0
   21.9978   -4.8702  -14.6345 C   0  0  0  0  0  0  0  0  0  0  0  0
   22.0409   -3.5104  -15.0046 O   0  0  0  0  0  0  0  0  0  0  0  0
   22.9595   -5.2910  -13.9487 O   0  0  0  0  0  0  0  0  0  0  0  0
  2  1  1  6
  3  2  1  0
  4  3  1  0
  5  6  1  0
  5  4  1  0
  7  6  1  0
  8  2  1  0
  8 10  1  0
  9  8  2  0
 11 10  1  0
 12 11  1  0
 13 12  2  0
 14 12  1  0
 15 14  1  0
 15 16  1  1
 17 18  2  0
 17 16  1  0
 19 18  1  0
 20 21  2  0
 20 19  1  0
 21 17  1  0
 22 15  1  0
 23 22  1  0
 24 22  2  0
M  END
$$$$
