KGH.pdb
     RDKit          3D

 24 24  0  0  1  0  0  0  0  0999 V2000
   28.8601  -32.1366  -15.7034 N   0  0  0  0  0  0  0  0  0  0  0  0
   29.3627  -31.2387  -16.6973 C   0  0  1  0  0  0  0  0  0  0  0  0
   29.7665  -31.9838  -17.9267 C   0  0  0  0  0  0  0  0  0  0  0  0
   30.8526  -32.9686  -17.7365 C   0  0  0  0  0  0  0  0  0  0  0  0
   32.2195  -32.4391  -17.9654 C   0  0  0  0  0  0  0  0  0  0  0  0
   33.2977  -33.5112  -17.9006 C   0  0  0  0  0  0  0  0  0  0  0  0
   34.5873  -32.8979  -18.1028 N   0  0  0  0  0  0  0  0  0  0  0  0
   28.3961  -30.1597  -17.0377 C   0  0  0  0  0  0  0  0  0  0  0  0
   28.7423  -29.3673  -17.9515 O   0  0  0  0  0  0  0  0  0  0  0  0
   27.1337  -30.0050  -16.3799 N   0  0  0  0  0  0  0  0  0  0  0  0
   26.3373  -28.8938  -16.7855 C   0  0  0  0  0  0  0  0  0  0  0  0
   26.6851  -27.6011  -16.2121 C   0  0  0  0  0  0  0  0  0  0  0  0
   27.5772  -27.6247  -15.2942 O   0  0  0  0  0  0  0  0  0  0  0  0
   26.1441  -26.3395  -16.5621 N   0  0  0  0  0  0  0  0  0  0  0  0
   27.0172  -25.1903  -16.7313 C   0  0  1  0  0  0  0  0  0  0  0  0
   28.1431  -25.4985  -17.6936 C   0  0  0  0  0  0  0  0  0  0  0  0
   29.4326  -25.6216  -16.9952 C   0  0  0  0  0  0  0  0  0  0  0  0
   29.6957  -25.8442  -15.6648 C   0  0  0  0  0  0  0  0  0  0  0  0
   31.0223  -25.8753  -15.4534 N   0  0  0  0  0  0  0  0  0  0  0  0
   31.6131  -25.6736  -16.6421 C   0  0  0  0  0  0  0  0  0  0  0  0
   30.6393  -25.5200  -17.5756 N   0  0  0  0  0  0  0  0  0  0  0  0
   26.2432  -23.9841  -17.1115 C   0  0  0  0  0  0  0  0  0  0  0  0
   25.1251  -24.1225  -17.9593 O   0  0  0  0  0  0  0  0  0  0  0  0
   26.5109  -22.8204  -16.7291 O   0  0  0  0  0  0  0  0  0  0  0  0
  2  1  1  1
  3  2  1  0
  4  3  1  0
  5  6  1  0
  5  4  1  0
  7  6  1  0
  8  2  1  0
  8 10  1  0
  9  8  2  0
 11 10  1  0
 12 11  1  0
 13 12  2  0
 14 12  1  0
 15 14  1  0
 15 16  1  6
 17 18  2  0
 17 16  1  0
 19 18  1  0
 20 21  2  0
 20 19  1  0
 21 17  1  0
 22 15  1  0
 23 22  1  0
 24 22  2  0
M  END
$$$$
