KGH.pdb
     RDKit          3D

 24 24  0  0  1  0  0  0  0  0999 V2000
   26.9024  -17.9831  -15.9414 N   0  0  0  0  0  0  0  0  0  0  0  0
   26.8651  -19.3879  -16.2090 C   0  0  1  0  0  0  0  0  0  0  0  0
   27.3401  -20.1641  -15.0251 C   0  0  0  0  0  0  0  0  0  0  0  0
   26.6150  -19.8951  -13.7652 C   0  0  0  0  0  0  0  0  0  0  0  0
   26.9819  -20.7828  -12.6344 C   0  0  0  0  0  0  0  0  0  0  0  0
   26.1749  -20.5133  -11.3727 C   0  0  0  0  0  0  0  0  0  0  0  0
   26.5294  -21.4852  -10.3678 N   0  0  0  0  0  0  0  0  0  0  0  0
   25.5170  -19.8565  -16.6305 C   0  0  0  0  0  0  0  0  0  0  0  0
   25.4416  -21.0423  -17.0439 O   0  0  0  0  0  0  0  0  0  0  0  0
   24.3504  -19.0276  -16.5805 N   0  0  0  0  0  0  0  0  0  0  0  0
   23.1074  -19.6610  -16.8758 C   0  0  0  0  0  0  0  0  0  0  0  0
   22.3558  -20.1787  -15.7409 C   0  0  0  0  0  0  0  0  0  0  0  0
   21.2656  -20.7849  -16.0290 O   0  0  0  0  0  0  0  0  0  0  0  0
   22.7041  -20.0806  -14.3712 N   0  0  0  0  0  0  0  0  0  0  0  0
   21.8577  -20.6841  -13.3558 C   0  0  1  0  0  0  0  0  0  0  0  0
   22.4595  -20.5204  -11.9775 C   0  0  0  0  0  0  0  0  0  0  0  0
   21.6145  -21.1367  -10.9421 C   0  0  0  0  0  0  0  0  0  0  0  0
   20.3953  -21.7608  -11.0570 C   0  0  0  0  0  0  0  0  0  0  0  0
   19.9694  -22.1716   -9.8507 N   0  0  0  0  0  0  0  0  0  0  0  0
   20.9092  -21.8143   -8.9609 C   0  0  0  0  0  0  0  0  0  0  0  0
   21.9073  -21.1850   -9.6325 N   0  0  0  0  0  0  0  0  0  0  0  0
   20.4689  -20.1729  -13.4467 C   0  0  0  0  0  0  0  0  0  0  0  0
   19.3955  -21.0866  -13.4167 O   0  0  0  0  0  0  0  0  0  0  0  0
   20.1651  -18.9608  -13.5508 O   0  0  0  0  0  0  0  0  0  0  0  0
  2  1  1  1
  3  2  1  0
  4  3  1  0
  5  6  1  0
  5  4  1  0
  7  6  1  0
  8  2  1  0
  8 10  1  0
  9  8  2  0
 11 10  1  0
 12 11  1  0
 13 12  2  0
 14 12  1  0
 15 14  1  0
 15 16  1  1
 17 18  2  0
 17 16  1  0
 19 18  1  0
 20 21  2  0
 20 19  1  0
 21 17  1  0
 22 15  1  0
 23 22  1  0
 24 22  2  0
M  END
$$$$
