KGH.pdb
     RDKit          3D

 24 24  0  0  1  0  0  0  0  0999 V2000
   28.0450  -30.1302  -17.3969 N   0  0  0  0  0  0  0  0  0  0  0  0
   29.1113  -29.3594  -17.9585 C   0  0  1  0  0  0  0  0  0  0  0  0
   29.8258  -30.1365  -19.0146 C   0  0  0  0  0  0  0  0  0  0  0  0
   31.1506  -30.6611  -18.6208 C   0  0  0  0  0  0  0  0  0  0  0  0
   31.1131  -31.7667  -17.6321 C   0  0  0  0  0  0  0  0  0  0  0  0
   32.4940  -32.2880  -17.2612 C   0  0  0  0  0  0  0  0  0  0  0  0
   32.3546  -33.3534  -16.2991 N   0  0  0  0  0  0  0  0  0  0  0  0
   28.6515  -28.0508  -18.4979 C   0  0  0  0  0  0  0  0  0  0  0  0
   29.5509  -27.2365  -18.8306 O   0  0  0  0  0  0  0  0  0  0  0  0
   27.2690  -27.7074  -18.6426 N   0  0  0  0  0  0  0  0  0  0  0  0
   26.9862  -26.4640  -19.2811 C   0  0  0  0  0  0  0  0  0  0  0  0
   26.2697  -25.4745  -18.4886 C   0  0  0  0  0  0  0  0  0  0  0  0
   25.9811  -25.8270  -17.2921 O   0  0  0  0  0  0  0  0  0  0  0  0
   25.8660  -24.1809  -18.9016 N   0  0  0  0  0  0  0  0  0  0  0  0
   25.1610  -23.3054  -17.9807 C   0  0  1  0  0  0  0  0  0  0  0  0
   25.8931  -21.9927  -17.8088 C   0  0  0  0  0  0  0  0  0  0  0  0
   27.3054  -22.2040  -17.4529 C   0  0  0  0  0  0  0  0  0  0  0  0
   27.8629  -23.0568  -16.5304 C   0  0  0  0  0  0  0  0  0  0  0  0
   29.1995  -22.9195  -16.5207 N   0  0  0  0  0  0  0  0  0  0  0  0
   29.5037  -21.9822  -17.4327 C   0  0  0  0  0  0  0  0  0  0  0  0
   28.3458  -21.5514  -17.9959 N   0  0  0  0  0  0  0  0  0  0  0  0
   23.7461  -23.1312  -18.3882 C   0  0  0  0  0  0  0  0  0  0  0  0
   23.3238  -23.6266  -19.6389 O   0  0  0  0  0  0  0  0  0  0  0  0
   22.8723  -22.5635  -17.6907 O   0  0  0  0  0  0  0  0  0  0  0  0
  2  1  1  6
  3  2  1  0
  4  3  1  0
  5  6  1  0
  5  4  1  0
  7  6  1  0
  8  2  1  0
  8 10  1  0
  9  8  2  0
 11 10  1  0
 12 11  1  0
 13 12  2  0
 14 12  1  0
 15 14  1  0
 15 16  1  6
 17 18  2  0
 17 16  1  0
 19 18  1  0
 20 21  2  0
 20 19  1  0
 21 17  1  0
 22 15  1  0
 23 22  1  0
 24 22  2  0
M  END
$$$$
