KGH.pdb
     RDKit          3D

 24 24  0  0  1  0  0  0  0  0999 V2000
   25.0427  -21.1162  -13.2086 N   0  0  0  0  0  0  0  0  0  0  0  0
   25.9901  -20.0968  -12.8773 C   0  0  1  0  0  0  0  0  0  0  0  0
   27.2497  -20.6983  -12.3469 C   0  0  0  0  0  0  0  0  0  0  0  0
   27.3318  -20.7872  -10.8735 C   0  0  0  0  0  0  0  0  0  0  0  0
   26.0245  -20.9201  -10.1845 C   0  0  0  0  0  0  0  0  0  0  0  0
   26.1357  -20.8577   -8.6679 C   0  0  0  0  0  0  0  0  0  0  0  0
   24.8287  -21.0508   -8.0895 N   0  0  0  0  0  0  0  0  0  0  0  0
   26.2874  -19.1950  -14.0232 C   0  0  0  0  0  0  0  0  0  0  0  0
   26.4048  -19.7431  -15.1496 O   0  0  0  0  0  0  0  0  0  0  0  0
   26.4377  -17.7779  -13.8841 N   0  0  0  0  0  0  0  0  0  0  0  0
   26.5487  -17.0287  -15.0924 C   0  0  0  0  0  0  0  0  0  0  0  0
   25.3992  -17.0623  -15.9860 C   0  0  0  0  0  0  0  0  0  0  0  0
   25.0931  -15.9477  -16.5363 O   0  0  0  0  0  0  0  0  0  0  0  0
   24.5980  -18.1868  -16.3028 N   0  0  0  0  0  0  0  0  0  0  0  0
   23.4564  -18.0453  -17.1906 C   0  0  1  0  0  0  0  0  0  0  0  0
   23.2162  -19.3159  -17.9758 C   0  0  0  0  0  0  0  0  0  0  0  0
   22.0902  -19.1681  -18.9119 C   0  0  0  0  0  0  0  0  0  0  0  0
   21.7334  -18.0989  -19.6983 C   0  0  0  0  0  0  0  0  0  0  0  0
   20.6233  -18.3881  -20.3980 N   0  0  0  0  0  0  0  0  0  0  0  0
   20.2649  -19.6384  -20.0648 C   0  0  0  0  0  0  0  0  0  0  0  0
   21.1623  -20.1066  -19.1599 N   0  0  0  0  0  0  0  0  0  0  0  0
   22.2575  -17.5867  -16.4485 C   0  0  0  0  0  0  0  0  0  0  0  0
   21.4542  -16.5676  -17.0002 O   0  0  0  0  0  0  0  0  0  0  0  0
   21.8915  -18.0451  -15.3403 O   0  0  0  0  0  0  0  0  0  0  0  0
  2  1  1  6
  3  2  1  0
  4  3  1  0
  5  6  1  0
  5  4  1  0
  7  6  1  0
  8  2  1  0
  8 10  1  0
  9  8  2  0
 11 10  1  0
 12 11  1  0
 13 12  2  0
 14 12  1  0
 15 14  1  0
 15 16  1  1
 17 18  2  0
 17 16  1  0
 19 18  1  0
 20 21  2  0
 20 19  1  0
 21 17  1  0
 22 15  1  0
 23 22  1  0
 24 22  2  0
M  END
$$$$
