KGH.pdb
     RDKit          3D

 24 24  0  0  1  0  0  0  0  0999 V2000
   27.2998  -18.0544  -22.4945 N   0  0  0  0  0  0  0  0  0  0  0  0
   27.4490  -17.4364  -21.2129 C   0  0  1  0  0  0  0  0  0  0  0  0
   27.5273  -15.9514  -21.3482 C   0  0  0  0  0  0  0  0  0  0  0  0
   26.2688  -15.2902  -21.7538 C   0  0  0  0  0  0  0  0  0  0  0  0
   26.3971  -13.8447  -22.0628 C   0  0  0  0  0  0  0  0  0  0  0  0
   25.1024  -13.2199  -22.5622 C   0  0  0  0  0  0  0  0  0  0  0  0
   25.3261  -11.8212  -22.8335 N   0  0  0  0  0  0  0  0  0  0  0  0
   26.3674  -17.8152  -20.2634 C   0  0  0  0  0  0  0  0  0  0  0  0
   26.7027  -17.9461  -19.0580 O   0  0  0  0  0  0  0  0  0  0  0  0
   25.0103  -18.0264  -20.6685 N   0  0  0  0  0  0  0  0  0  0  0  0
   24.0810  -18.3466  -19.6354 C   0  0  0  0  0  0  0  0  0  0  0  0
   22.6978  -18.5471  -20.0446 C   0  0  0  0  0  0  0  0  0  0  0  0
   21.8591  -17.6874  -19.6012 O   0  0  0  0  0  0  0  0  0  0  0  0
   22.1944  -19.5815  -20.8713 N   0  0  0  0  0  0  0  0  0  0  0  0
   20.7788  -19.6367  -21.1945 C   0  0  1  0  0  0  0  0  0  0  0  0
   20.5235  -20.5561  -22.3685 C   0  0  0  0  0  0  0  0  0  0  0  0
   19.1165  -20.5073  -22.7973 C   0  0  0  0  0  0  0  0  0  0  0  0
   18.4013  -19.4748  -23.3554 C   0  0  0  0  0  0  0  0  0  0  0  0
   17.1344  -19.8593  -23.5848 N   0  0  0  0  0  0  0  0  0  0  0  0
   17.0320  -21.1343  -23.1767 C   0  0  0  0  0  0  0  0  0  0  0  0
   18.2423  -21.5218  -22.6986 N   0  0  0  0  0  0  0  0  0  0  0  0
   19.9722  -19.9839  -19.9998 C   0  0  0  0  0  0  0  0  0  0  0  0
   18.6895  -19.4189  -19.8470 O   0  0  0  0  0  0  0  0  0  0  0  0
   20.3501  -20.7605  -19.0908 O   0  0  0  0  0  0  0  0  0  0  0  0
  2  1  1  6
  3  2  1  0
  4  3  1  0
  5  6  1  0
  5  4  1  0
  7  6  1  0
  8  2  1  0
  8 10  1  0
  9  8  2  0
 11 10  1  0
 12 11  1  0
 13 12  2  0
 14 12  1  0
 15 14  1  0
 15 16  1  6
 17 18  2  0
 17 16  1  0
 19 18  1  0
 20 21  2  0
 20 19  1  0
 21 17  1  0
 22 15  1  0
 23 22  1  0
 24 22  2  0
M  END
$$$$
