KGH.pdb
     RDKit          3D

 24 24  0  0  1  0  0  0  0  0999 V2000
   29.2767  -27.8403  -15.9068 N   0  0  0  0  0  0  0  0  0  0  0  0
   29.1404  -27.3207  -17.2328 C   0  0  1  0  0  0  0  0  0  0  0  0
   28.9973  -28.4295  -18.2227 C   0  0  0  0  0  0  0  0  0  0  0  0
   30.2375  -28.7964  -18.9389 C   0  0  0  0  0  0  0  0  0  0  0  0
   30.9782  -29.9411  -18.3539 C   0  0  0  0  0  0  0  0  0  0  0  0
   32.2690  -30.2623  -19.0934 C   0  0  0  0  0  0  0  0  0  0  0  0
   32.9080  -31.3903  -18.4614 N   0  0  0  0  0  0  0  0  0  0  0  0
   28.0097  -26.3615  -17.3601 C   0  0  0  0  0  0  0  0  0  0  0  0
   27.9768  -25.6732  -18.4127 O   0  0  0  0  0  0  0  0  0  0  0  0
   26.9992  -26.2069  -16.3575 N   0  0  0  0  0  0  0  0  0  0  0  0
   25.6540  -26.4404  -16.7693 C   0  0  0  0  0  0  0  0  0  0  0  0
   24.7902  -25.2716  -16.8613 C   0  0  0  0  0  0  0  0  0  0  0  0
   24.6854  -24.5752  -15.7921 O   0  0  0  0  0  0  0  0  0  0  0  0
   24.0654  -24.8341  -17.9971 N   0  0  0  0  0  0  0  0  0  0  0  0
   23.0846  -23.7690  -17.8738 C   0  0  1  0  0  0  0  0  0  0  0  0
   22.8633  -23.0761  -19.2003 C   0  0  0  0  0  0  0  0  0  0  0  0
   21.9713  -21.9138  -19.0608 C   0  0  0  0  0  0  0  0  0  0  0  0
   21.4346  -21.3465  -17.9298 C   0  0  0  0  0  0  0  0  0  0  0  0
   20.6602  -20.2990  -18.2594 N   0  0  0  0  0  0  0  0  0  0  0  0
   20.6968  -20.1905  -19.5972 C   0  0  0  0  0  0  0  0  0  0  0  0
   21.4967  -21.1767  -20.0779 N   0  0  0  0  0  0  0  0  0  0  0  0
   21.8288  -24.2686  -17.2639 C   0  0  0  0  0  0  0  0  0  0  0  0
   21.1606  -23.4710  -16.3125 O   0  0  0  0  0  0  0  0  0  0  0  0
   21.3000  -25.3730  -17.5342 O   0  0  0  0  0  0  0  0  0  0  0  0
  2  1  1  1
  3  2  1  0
  4  3  1  0
  5  6  1  0
  5  4  1  0
  7  6  1  0
  8  2  1  0
  8 10  1  0
  9  8  2  0
 11 10  1  0
 12 11  1  0
 13 12  2  0
 14 12  1  0
 15 14  1  0
 15 16  1  6
 17 18  2  0
 17 16  1  0
 19 18  1  0
 20 21  2  0
 20 19  1  0
 21 17  1  0
 22 15  1  0
 23 22  1  0
 24 22  2  0
M  END
$$$$
