KGH.pdb
     RDKit          3D

 24 24  0  0  1  0  0  0  0  0999 V2000
   22.0065  -20.7911  -13.2692 N   0  0  0  0  0  0  0  0  0  0  0  0
   23.0124  -21.0084  -14.2629 C   0  0  1  0  0  0  0  0  0  0  0  0
   22.7182  -20.2168  -15.4944 C   0  0  0  0  0  0  0  0  0  0  0  0
   21.8391  -20.8861  -16.4766 C   0  0  0  0  0  0  0  0  0  0  0  0
   22.1540  -22.3153  -16.7208 C   0  0  0  0  0  0  0  0  0  0  0  0
   21.2502  -22.9602  -17.7617 C   0  0  0  0  0  0  0  0  0  0  0  0
   21.6007  -24.3529  -17.8946 N   0  0  0  0  0  0  0  0  0  0  0  0
   24.3832  -20.7079  -13.7675 C   0  0  0  0  0  0  0  0  0  0  0  0
   25.1356  -20.0766  -14.5537 O   0  0  0  0  0  0  0  0  0  0  0  0
   24.8502  -21.1022  -12.4726 N   0  0  0  0  0  0  0  0  0  0  0  0
   26.1223  -20.5958  -12.0741 C   0  0  0  0  0  0  0  0  0  0  0  0
   26.5166  -20.8419  -10.6940 C   0  0  0  0  0  0  0  0  0  0  0  0
   26.4974  -22.0670  -10.3228 O   0  0  0  0  0  0  0  0  0  0  0  0
   26.9132  -19.8772   -9.7354 N   0  0  0  0  0  0  0  0  0  0  0  0
   27.1328  -20.2666   -8.3527 C   0  0  1  0  0  0  0  0  0  0  0  0
   27.8692  -19.1855   -7.5927 C   0  0  0  0  0  0  0  0  0  0  0  0
   28.0967  -19.5699   -6.1905 C   0  0  0  0  0  0  0  0  0  0  0  0
   28.9742  -20.4849   -5.6596 C   0  0  0  0  0  0  0  0  0  0  0  0
   28.8446  -20.5299   -4.3229 N   0  0  0  0  0  0  0  0  0  0  0  0
   27.8878  -19.6478   -3.9923 C   0  0  0  0  0  0  0  0  0  0  0  0
   27.4374  -19.0675   -5.1340 N   0  0  0  0  0  0  0  0  0  0  0  0
   25.8616  -20.6685   -7.7037 C   0  0  0  0  0  0  0  0  0  0  0  0
   25.8934  -21.5982   -6.6441 O   0  0  0  0  0  0  0  0  0  0  0  0
   24.7311  -20.2360   -8.0309 O   0  0  0  0  0  0  0  0  0  0  0  0
  2  1  1  1
  3  2  1  0
  4  3  1  0
  5  6  1  0
  5  4  1  0
  7  6  1  0
  8  2  1  0
  8 10  1  0
  9  8  2  0
 11 10  1  0
 12 11  1  0
 13 12  2  0
 14 12  1  0
 15 14  1  0
 15 16  1  1
 17 18  2  0
 17 16  1  0
 19 18  1  0
 20 21  2  0
 20 19  1  0
 21 17  1  0
 22 15  1  0
 23 22  1  0
 24 22  2  0
M  END
$$$$
