KGH.pdb
     RDKit          3D

 24 24  0  0  1  0  0  0  0  0999 V2000
   28.3122  -32.8378  -20.2419 N   0  0  0  0  0  0  0  0  0  0  0  0
   29.2310  -33.1682  -19.1963 C   0  0  1  0  0  0  0  0  0  0  0  0
   30.4236  -32.2706  -19.2376 C   0  0  0  0  0  0  0  0  0  0  0  0
   31.1018  -32.1866  -20.5485 C   0  0  0  0  0  0  0  0  0  0  0  0
   30.9497  -30.8856  -21.2453 C   0  0  0  0  0  0  0  0  0  0  0  0
   31.7433  -30.8018  -22.5412 C   0  0  0  0  0  0  0  0  0  0  0  0
   31.5251  -29.5112  -23.1469 N   0  0  0  0  0  0  0  0  0  0  0  0
   28.6023  -33.1349  -17.8478 C   0  0  0  0  0  0  0  0  0  0  0  0
   29.3870  -33.1581  -16.8647 O   0  0  0  0  0  0  0  0  0  0  0  0
   27.1856  -33.0796  -17.6471 N   0  0  0  0  0  0  0  0  0  0  0  0
   26.7398  -32.5280  -16.4099 C   0  0  0  0  0  0  0  0  0  0  0  0
   25.7527  -31.4605  -16.4923 C   0  0  0  0  0  0  0  0  0  0  0  0
   25.2369  -31.0962  -15.3786 O   0  0  0  0  0  0  0  0  0  0  0  0
   25.3122  -30.7948  -17.6627 N   0  0  0  0  0  0  0  0  0  0  0  0
   24.2994  -29.7563  -17.5767 C   0  0  1  0  0  0  0  0  0  0  0  0
   24.8484  -28.4211  -18.0289 C   0  0  0  0  0  0  0  0  0  0  0  0
   26.0019  -28.0071  -17.2141 C   0  0  0  0  0  0  0  0  0  0  0  0
   26.0435  -27.2529  -16.0658 C   0  0  0  0  0  0  0  0  0  0  0  0
   27.3140  -27.1046  -15.6543 N   0  0  0  0  0  0  0  0  0  0  0  0
   28.0892  -27.7601  -16.5330 C   0  0  0  0  0  0  0  0  0  0  0  0
   27.2837  -28.3068  -17.4794 N   0  0  0  0  0  0  0  0  0  0  0  0
   23.0674  -30.1520  -18.3007 C   0  0  0  0  0  0  0  0  0  0  0  0
   21.9385  -29.3087  -18.2506 O   0  0  0  0  0  0  0  0  0  0  0  0
   22.9465  -31.2045  -18.9714 O   0  0  0  0  0  0  0  0  0  0  0  0
  2  1  1  6
  3  2  1  0
  4  3  1  0
  5  6  1  0
  5  4  1  0
  7  6  1  0
  8  2  1  0
  8 10  1  0
  9  8  2  0
 11 10  1  0
 12 11  1  0
 13 12  2  0
 14 12  1  0
 15 14  1  0
 15 16  1  6
 17 18  2  0
 17 16  1  0
 19 18  1  0
 20 21  2  0
 20 19  1  0
 21 17  1  0
 22 15  1  0
 23 22  1  0
 24 22  2  0
M  END
$$$$
