KGH.pdb
     RDKit          3D

 24 24  0  0  1  0  0  0  0  0999 V2000
   23.8620  -22.1100  -17.3364 N   0  0  0  0  0  0  0  0  0  0  0  0
   24.2653  -22.3281  -15.9812 C   0  0  1  0  0  0  0  0  0  0  0  0
   25.7528  -22.2830  -15.8588 C   0  0  0  0  0  0  0  0  0  0  0  0
   26.4697  -23.4118  -16.4891 C   0  0  0  0  0  0  0  0  0  0  0  0
   27.9468  -23.3613  -16.3585 C   0  0  0  0  0  0  0  0  0  0  0  0
   28.6550  -24.4786  -17.1110 C   0  0  0  0  0  0  0  0  0  0  0  0
   30.0809  -24.2869  -17.0103 N   0  0  0  0  0  0  0  0  0  0  0  0
   23.6367  -21.3680  -15.0336 C   0  0  0  0  0  0  0  0  0  0  0  0
   23.4254  -20.2078  -15.4718 O   0  0  0  0  0  0  0  0  0  0  0  0
   23.2805  -21.7149  -13.6908 N   0  0  0  0  0  0  0  0  0  0  0  0
   22.7325  -20.6711  -12.8885 C   0  0  0  0  0  0  0  0  0  0  0  0
   21.3342  -20.3378  -13.1220 C   0  0  0  0  0  0  0  0  0  0  0  0
   20.8347  -19.4617  -12.3333 O   0  0  0  0  0  0  0  0  0  0  0  0
   20.4838  -20.8770  -14.1186 N   0  0  0  0  0  0  0  0  0  0  0  0
   19.1037  -20.4340  -14.2212 C   0  0  1  0  0  0  0  0  0  0  0  0
   18.7611  -20.0435  -15.6420 C   0  0  0  0  0  0  0  0  0  0  0  0
   19.5367  -18.8730  -16.0829 C   0  0  0  0  0  0  0  0  0  0  0  0
   20.7438  -18.8122  -16.7373 C   0  0  0  0  0  0  0  0  0  0  0  0
   21.0975  -17.5317  -16.9393 N   0  0  0  0  0  0  0  0  0  0  0  0
   20.1232  -16.7693  -16.4177 C   0  0  0  0  0  0  0  0  0  0  0  0
   19.1767  -17.5926  -15.8983 N   0  0  0  0  0  0  0  0  0  0  0  0
   18.1762  -21.4442  -13.6577 C   0  0  0  0  0  0  0  0  0  0  0  0
   16.9370  -21.0241  -13.1325 O   0  0  0  0  0  0  0  0  0  0  0  0
   18.4124  -22.6747  -13.6098 O   0  0  0  0  0  0  0  0  0  0  0  0
  2  1  1  6
  3  2  1  0
  4  3  1  0
  5  6  1  0
  5  4  1  0
  7  6  1  0
  8  2  1  0
  8 10  1  0
  9  8  2  0
 11 10  1  0
 12 11  1  0
 13 12  2  0
 14 12  1  0
 15 14  1  0
 15 16  1  6
 17 18  2  0
 17 16  1  0
 19 18  1  0
 20 21  2  0
 20 19  1  0
 21 17  1  0
 22 15  1  0
 23 22  1  0
 24 22  2  0
M  END
$$$$
