KGH.pdb
     RDKit          3D

 24 24  0  0  1  0  0  0  0  0999 V2000
   20.9670  -18.7077  -19.3317 N   0  0  0  0  0  0  0  0  0  0  0  0
   22.2522  -18.1174  -19.1161 C   0  0  1  0  0  0  0  0  0  0  0  0
   22.1909  -16.6367  -19.2994 C   0  0  0  0  0  0  0  0  0  0  0  0
   21.2617  -16.1715  -20.3509 C   0  0  0  0  0  0  0  0  0  0  0  0
   21.0496  -14.7036  -20.3887 C   0  0  0  0  0  0  0  0  0  0  0  0
   19.9859  -14.2759  -21.3896 C   0  0  0  0  0  0  0  0  0  0  0  0
   19.9194  -12.8356  -21.4226 N   0  0  0  0  0  0  0  0  0  0  0  0
   22.8215  -18.4526  -17.7826 C   0  0  0  0  0  0  0  0  0  0  0  0
   24.0133  -18.1041  -17.5803 O   0  0  0  0  0  0  0  0  0  0  0  0
   22.0796  -19.1337  -16.7647 N   0  0  0  0  0  0  0  0  0  0  0  0
   22.7615  -19.3771  -15.5362 C   0  0  0  0  0  0  0  0  0  0  0  0
   22.0346  -20.1373  -14.5289 C   0  0  0  0  0  0  0  0  0  0  0  0
   22.7009  -20.4450  -13.4799 O   0  0  0  0  0  0  0  0  0  0  0  0
   20.6852  -20.5640  -14.5917 N   0  0  0  0  0  0  0  0  0  0  0  0
   19.6716  -19.9075  -13.7836 C   0  0  1  0  0  0  0  0  0  0  0  0
   20.2756  -18.8045  -12.9427 C   0  0  0  0  0  0  0  0  0  0  0  0
   20.4895  -19.2397  -11.5531 C   0  0  0  0  0  0  0  0  0  0  0  0
   20.4087  -20.4959  -11.0016 C   0  0  0  0  0  0  0  0  0  0  0  0
   20.6714  -20.4419   -9.6849 N   0  0  0  0  0  0  0  0  0  0  0  0
   20.9207  -19.1565   -9.3877 C   0  0  0  0  0  0  0  0  0  0  0  0
   20.8081  -18.4308  -10.5297 N   0  0  0  0  0  0  0  0  0  0  0  0
   18.5394  -19.4441  -14.6215 C   0  0  0  0  0  0  0  0  0  0  0  0
   18.7916  -18.5644  -15.6942 O   0  0  0  0  0  0  0  0  0  0  0  0
   17.3443  -19.7812  -14.4474 O   0  0  0  0  0  0  0  0  0  0  0  0
  2  1  1  1
  3  2  1  0
  4  3  1  0
  5  6  1  0
  5  4  1  0
  7  6  1  0
  8  2  1  0
  8 10  1  0
  9  8  2  0
 11 10  1  0
 12 11  1  0
 13 12  2  0
 14 12  1  0
 15 14  1  0
 15 16  1  6
 17 18  2  0
 17 16  1  0
 19 18  1  0
 20 21  2  0
 20 19  1  0
 21 17  1  0
 22 15  1  0
 23 22  1  0
 24 22  2  0
M  END
$$$$
