GQA.pdb
     RDKit          3D

 19 18  0  0  1  0  0  0  0  0999 V2000
   24.2215  -20.1946   -9.0202 N   0  0  0  0  0  0  0  0  0  0  0  0
   24.8403  -21.0939   -9.9543 C   0  0  0  0  0  0  0  0  0  0  0  0
   25.0151  -20.3590  -11.2373 C   0  0  0  0  0  0  0  0  0  0  0  0
   24.5240  -19.1962  -11.3134 O   0  0  0  0  0  0  0  0  0  0  0  0
   29.1812  -21.3078  -15.8887 N   0  0  0  0  0  0  0  0  0  0  0  0
   28.5311  -20.0980  -16.2428 C   0  0  0  0  0  0  0  0  0  0  0  0
   28.8989  -19.4460  -17.2462 O   0  0  0  0  0  0  0  0  0  0  0  0
   27.3787  -19.5525  -15.4299 C   0  0  0  0  0  0  0  0  0  0  0  0
   27.1228  -20.4379  -14.2561 C   0  0  0  0  0  0  0  0  0  0  0  0
   25.8530  -20.0661  -13.5382 C   0  0  2  0  0  0  0  0  0  0  0  0
   25.6993  -20.9130  -12.3470 N   0  0  0  0  0  0  0  0  0  0  0  0
   24.6533  -20.1309  -14.3746 C   0  0  0  0  0  0  0  0  0  0  0  0
   24.1269  -21.2330  -14.6468 O   0  0  0  0  0  0  0  0  0  0  0  0
   22.1106  -17.7758  -15.8765 C   0  0  0  0  0  0  0  0  0  0  0  0
   22.8262  -19.1196  -15.7204 C   0  0  2  0  0  0  0  0  0  0  0  0
   24.0210  -18.9751  -14.9205 N   0  0  0  0  0  0  0  0  0  0  0  0
   23.1520  -19.5840  -17.0808 C   0  0  0  0  0  0  0  0  0  0  0  0
   24.3445  -19.5496  -17.4776 O   0  0  0  0  0  0  0  0  0  0  0  0
   22.1364  -20.0484  -17.8927 O   0  0  0  0  0  0  0  0  0  0  0  0
  1  2  1  0
  2  3  1  0
  3 11  1  0
  3  4  2  0
  5  6  1  0
  6  7  2  0
  8  9  1  0
  8  6  1  0
 10  9  1  6
 11 10  1  0
 12 10  1  0
 12 16  1  0
 13 12  2  0
 15 16  1  0
 15 17  1  0
 15 14  1  6
 17 19  1  0
 18 17  2  0
M  END
$$$$
