GQA.pdb
     RDKit          3D

 19 18  0  0  1  0  0  0  0  0999 V2000
   16.0603  -11.5026  -14.2029 N   0  0  0  0  0  0  0  0  0  0  0  0
   16.8686  -11.3606  -15.3823 C   0  0  0  0  0  0  0  0  0  0  0  0
   17.9463  -10.3810  -15.0732 C   0  0  0  0  0  0  0  0  0  0  0  0
   17.7719   -9.6181  -14.0800 O   0  0  0  0  0  0  0  0  0  0  0  0
   24.0693  -10.9768  -15.8946 N   0  0  0  0  0  0  0  0  0  0  0  0
   23.9478   -9.7303  -15.2290 C   0  0  0  0  0  0  0  0  0  0  0  0
   24.9622   -9.1320  -14.8045 O   0  0  0  0  0  0  0  0  0  0  0  0
   22.6006   -9.0803  -15.0077 C   0  0  0  0  0  0  0  0  0  0  0  0
   21.5200   -9.9580  -15.5458 C   0  0  0  0  0  0  0  0  0  0  0  0
   20.1586   -9.3364  -15.3841 C   0  0  2  0  0  0  0  0  0  0  0  0
   19.1319  -10.2829  -15.8422 N   0  0  0  0  0  0  0  0  0  0  0  0
   20.0075   -8.0460  -16.0587 C   0  0  0  0  0  0  0  0  0  0  0  0
   19.9528   -7.9840  -17.3073 O   0  0  0  0  0  0  0  0  0  0  0  0
   18.7537   -4.6506  -15.3049 C   0  0  0  0  0  0  0  0  0  0  0  0
   19.6780   -5.5838  -16.0903 C   0  0  2  0  0  0  0  0  0  0  0  0
   19.9149   -6.8072  -15.3585 N   0  0  0  0  0  0  0  0  0  0  0  0
   20.9348   -4.8455  -16.3094 C   0  0  0  0  0  0  0  0  0  0  0  0
   22.0014   -5.2741  -15.8002 O   0  0  0  0  0  0  0  0  0  0  0  0
   20.9130   -3.6947  -17.0720 O   0  0  0  0  0  0  0  0  0  0  0  0
  1  2  1  0
  2  3  1  0
  3 11  1  0
  3  4  2  0
  5  6  1  0
  6  7  2  0
  8  9  1  0
  8  6  1  0
 10  9  1  6
 11 10  1  0
 12 10  1  0
 12 16  1  0
 13 12  2  0
 15 16  1  0
 15 17  1  0
 15 14  1  1
 17 19  1  0
 18 17  2  0
M  END
$$$$
