GQA.pdb
     RDKit          3D

 19 18  0  0  1  0  0  0  0  0999 V2000
   21.0821  -12.8810  -17.8475 N   0  0  0  0  0  0  0  0  0  0  0  0
   21.5577  -11.6834  -18.4828 C   0  0  0  0  0  0  0  0  0  0  0  0
   22.2022  -10.8444  -17.4351 C   0  0  0  0  0  0  0  0  0  0  0  0
   21.5923  -10.7173  -16.3348 O   0  0  0  0  0  0  0  0  0  0  0  0
   28.1687  -10.1006  -16.1756 N   0  0  0  0  0  0  0  0  0  0  0  0
   27.2790  -11.1654  -15.8819 C   0  0  0  0  0  0  0  0  0  0  0  0
   27.7149  -12.2714  -15.4896 O   0  0  0  0  0  0  0  0  0  0  0  0
   25.7824  -11.0086  -16.0296 C   0  0  0  0  0  0  0  0  0  0  0  0
   25.4547   -9.6012  -16.4028 C   0  0  0  0  0  0  0  0  0  0  0  0
   23.9704   -9.3841  -16.5280 C   0  0  2  0  0  0  0  0  0  0  0  0
   23.4486  -10.2010  -17.6326 N   0  0  0  0  0  0  0  0  0  0  0  0
   23.5841   -7.9822  -16.6967 C   0  0  0  0  0  0  0  0  0  0  0  0
   23.7190   -7.4145  -17.8037 O   0  0  0  0  0  0  0  0  0  0  0  0
   21.2054   -5.8035  -16.4777 C   0  0  0  0  0  0  0  0  0  0  0  0
   22.6235   -5.8330  -15.9029 C   0  0  2  0  0  0  0  0  0  0  0  0
   23.0432   -7.1908  -15.6410 N   0  0  0  0  0  0  0  0  0  0  0  0
   22.5914   -5.0393  -14.6613 C   0  0  0  0  0  0  0  0  0  0  0  0
   22.7243   -5.6180  -13.5531 O   0  0  0  0  0  0  0  0  0  0  0  0
   22.4153   -3.6724  -14.7429 O   0  0  0  0  0  0  0  0  0  0  0  0
  1  2  1  0
  2  3  1  0
  3 11  1  0
  3  4  2  0
  5  6  1  0
  6  7  2  0
  8  9  1  0
  8  6  1  0
 10  9  1  6
 11 10  1  0
 12 10  1  0
 12 16  1  0
 13 12  2  0
 15 16  1  0
 15 17  1  0
 15 14  1  1
 17 19  1  0
 18 17  2  0
M  END
$$$$
