GQA.pdb
     RDKit          3D

 19 18  0  0  1  0  0  0  0  0999 V2000
   12.0302  -10.6966   -9.1338 N   0  0  0  0  0  0  0  0  0  0  0  0
   13.4084  -10.5425   -8.7585 C   0  0  0  0  0  0  0  0  0  0  0  0
   13.9214   -9.3145   -9.4260 C   0  0  0  0  0  0  0  0  0  0  0  0
   13.2428   -8.8468  -10.3850 O   0  0  0  0  0  0  0  0  0  0  0  0
   13.1106   -3.7966   -7.6147 N   0  0  0  0  0  0  0  0  0  0  0  0
   14.2848   -4.5806   -7.7492 C   0  0  0  0  0  0  0  0  0  0  0  0
   15.3883   -4.1522   -7.3419 O   0  0  0  0  0  0  0  0  0  0  0  0
   14.2509   -5.9525   -8.3841 C   0  0  0  0  0  0  0  0  0  0  0  0
   15.5992   -6.2939   -8.9252 C   0  0  0  0  0  0  0  0  0  0  0  0
   15.5576   -7.5099   -9.8115 C   0  0  2  0  0  0  0  0  0  0  0  0
   15.1189   -8.6720   -9.0261 N   0  0  0  0  0  0  0  0  0  0  0  0
   16.8213   -7.7958  -10.4928 C   0  0  0  0  0  0  0  0  0  0  0  0
   17.8248   -8.1648   -9.8424 O   0  0  0  0  0  0  0  0  0  0  0  0
   18.1281   -8.4116  -13.9450 C   0  0  0  0  0  0  0  0  0  0  0  0
   18.2812   -7.9373  -12.4980 C   0  0  2  0  0  0  0  0  0  0  0  0
   16.9899   -7.6767  -11.9038 N   0  0  0  0  0  0  0  0  0  0  0  0
   19.1018   -6.7137  -12.5403 C   0  0  0  0  0  0  0  0  0  0  0  0
   18.5682   -5.6017  -12.2966 O   0  0  0  0  0  0  0  0  0  0  0  0
   20.4439   -6.8159  -12.8479 O   0  0  0  0  0  0  0  0  0  0  0  0
  1  2  1  0
  2  3  1  0
  3 11  1  0
  3  4  2  0
  5  6  1  0
  6  7  2  0
  8  9  1  0
  8  6  1  0
 10  9  1  1
 11 10  1  0
 12 10  1  0
 12 16  1  0
 13 12  2  0
 15 16  1  0
 15 17  1  0
 15 14  1  6
 17 19  1  0
 18 17  2  0
M  END
$$$$
