GQA.pdb
     RDKit          3D

 19 18  0  0  1  0  0  0  0  0999 V2000
   16.3332  -12.7213  -12.6669 N   0  0  0  0  0  0  0  0  0  0  0  0
   16.7986  -12.0668  -11.4756 C   0  0  0  0  0  0  0  0  0  0  0  0
   16.4399  -10.6259  -11.5850 C   0  0  0  0  0  0  0  0  0  0  0  0
   15.9939  -10.2201  -12.6965 O   0  0  0  0  0  0  0  0  0  0  0  0
   15.0891   -6.3804   -7.1445 N   0  0  0  0  0  0  0  0  0  0  0  0
   14.0989   -7.0561   -7.9024 C   0  0  0  0  0  0  0  0  0  0  0  0
   12.9108   -7.0947   -7.5099 O   0  0  0  0  0  0  0  0  0  0  0  0
   14.4357   -7.7504   -9.2028 C   0  0  0  0  0  0  0  0  0  0  0  0
   15.8974   -7.6285   -9.4785 C   0  0  0  0  0  0  0  0  0  0  0  0
   16.2845   -8.3047  -10.7665 C   0  0  2  0  0  0  0  0  0  0  0  0
   16.5812   -9.7201  -10.5051 N   0  0  0  0  0  0  0  0  0  0  0  0
   17.4005   -7.6647  -11.4650 C   0  0  0  0  0  0  0  0  0  0  0  0
   18.5772   -8.0372  -11.2583 O   0  0  0  0  0  0  0  0  0  0  0  0
   18.9071   -7.1542  -14.0981 C   0  0  0  0  0  0  0  0  0  0  0  0
   18.3666   -6.0969  -13.1325 C   0  0  2  0  0  0  0  0  0  0  0  0
   17.2275   -6.6035  -12.4017 N   0  0  0  0  0  0  0  0  0  0  0  0
   17.9942   -4.9294  -13.9516 C   0  0  0  0  0  0  0  0  0  0  0  0
   16.7791   -4.6588  -14.1275 O   0  0  0  0  0  0  0  0  0  0  0  0
   18.9921   -4.1555  -14.5098 O   0  0  0  0  0  0  0  0  0  0  0  0
  1  2  1  0
  2  3  1  0
  3 11  1  0
  3  4  2  0
  5  6  1  0
  6  7  2  0
  8  9  1  0
  8  6  1  0
 10  9  1  1
 11 10  1  0
 12 10  1  0
 12 16  1  0
 13 12  2  0
 15 16  1  0
 15 17  1  0
 15 14  1  6
 17 19  1  0
 18 17  2  0
M  END
$$$$
