GQA.pdb
     RDKit          3D

 19 18  0  0  1  0  0  0  0  0999 V2000
   17.7687  -14.2271  -16.6942 N   0  0  0  0  0  0  0  0  0  0  0  0
   17.2600  -12.9604  -17.1424 C   0  0  0  0  0  0  0  0  0  0  0  0
   18.0040  -11.8948  -16.4159 C   0  0  0  0  0  0  0  0  0  0  0  0
   17.9603  -11.9128  -15.1523 O   0  0  0  0  0  0  0  0  0  0  0  0
   23.9084  -10.6230  -14.6128 N   0  0  0  0  0  0  0  0  0  0  0  0
   22.9916  -10.8875  -15.6621 C   0  0  0  0  0  0  0  0  0  0  0  0
   23.4008  -11.1708  -16.8108 O   0  0  0  0  0  0  0  0  0  0  0  0
   21.4971  -10.8383  -15.4372 C   0  0  0  0  0  0  0  0  0  0  0  0
   20.8661   -9.9148  -16.4253 C   0  0  0  0  0  0  0  0  0  0  0  0
   19.3717   -9.8487  -16.2579 C   0  0  2  0  0  0  0  0  0  0  0  0
   18.7410  -10.8870  -17.0849 N   0  0  0  0  0  0  0  0  0  0  0  0
   18.7954   -8.5354  -16.5515 C   0  0  0  0  0  0  0  0  0  0  0  0
   18.5788   -8.1862  -17.7335 O   0  0  0  0  0  0  0  0  0  0  0  0
   16.8886   -5.8160  -14.9019 C   0  0  0  0  0  0  0  0  0  0  0  0
   17.9344   -6.2946  -15.9115 C   0  0  2  0  0  0  0  0  0  0  0  0
   18.4514   -7.5917  -15.5393 N   0  0  0  0  0  0  0  0  0  0  0  0
   19.0043   -5.2809  -15.9226 C   0  0  0  0  0  0  0  0  0  0  0  0
   20.1615   -5.5980  -15.5473 O   0  0  0  0  0  0  0  0  0  0  0  0
   18.7109   -4.0001  -16.3466 O   0  0  0  0  0  0  0  0  0  0  0  0
  1  2  1  0
  2  3  1  0
  3 11  1  0
  3  4  2  0
  5  6  1  0
  6  7  2  0
  8  9  1  0
  8  6  1  0
 10  9  1  6
 11 10  1  0
 12 10  1  0
 12 16  1  0
 13 12  2  0
 15 16  1  0
 15 17  1  0
 15 14  1  1
 17 19  1  0
 18 17  2  0
M  END
$$$$
