GQA.pdb
     RDKit          3D

 19 18  0  0  1  0  0  0  0  0999 V2000
   17.1843  -11.3066  -15.1733 N   0  0  0  0  0  0  0  0  0  0  0  0
   17.1996   -9.9181  -14.8045 C   0  0  0  0  0  0  0  0  0  0  0  0
   18.6164   -9.4612  -14.8330 C   0  0  0  0  0  0  0  0  0  0  0  0
   19.2494   -9.4598  -13.7384 O   0  0  0  0  0  0  0  0  0  0  0  0
   22.9581   -9.5465  -19.3509 N   0  0  0  0  0  0  0  0  0  0  0  0
   22.5996  -10.5900  -18.4598 C   0  0  0  0  0  0  0  0  0  0  0  0
   22.9647  -11.7677  -18.6764 O   0  0  0  0  0  0  0  0  0  0  0  0
   21.7700  -10.3240  -17.2240 C   0  0  0  0  0  0  0  0  0  0  0  0
   21.3944   -8.8808  -17.1667 C   0  0  0  0  0  0  0  0  0  0  0  0
   20.6382   -8.5464  -15.9088 C   0  0  2  0  0  0  0  0  0  0  0  0
   19.2582   -9.0386  -16.0230 N   0  0  0  0  0  0  0  0  0  0  0  0
   20.6509   -7.1236  -15.5648 C   0  0  0  0  0  0  0  0  0  0  0  0
   19.7851   -6.3493  -16.0303 O   0  0  0  0  0  0  0  0  0  0  0  0
   21.9936   -4.8759  -12.9407 C   0  0  0  0  0  0  0  0  0  0  0  0
   21.5504   -5.1320  -14.3830 C   0  0  2  0  0  0  0  0  0  0  0  0
   21.6234   -6.5399  -14.7003 N   0  0  0  0  0  0  0  0  0  0  0  0
   22.4510   -4.3468  -15.2462 C   0  0  0  0  0  0  0  0  0  0  0  0
   22.4637   -3.0933  -15.1498 O   0  0  0  0  0  0  0  0  0  0  0  0
   23.2640   -5.0079  -16.1453 O   0  0  0  0  0  0  0  0  0  0  0  0
  1  2  1  0
  2  3  1  0
  3 11  1  0
  3  4  2  0
  5  6  1  0
  6  7  2  0
  8  9  1  0
  8  6  1  0
 10  9  1  6
 11 10  1  0
 12 10  1  0
 12 16  1  0
 13 12  2  0
 15 16  1  0
 15 17  1  0
 15 14  1  1
 17 19  1  0
 18 17  2  0
M  END
$$$$
