GQA.pdb
     RDKit          3D

 19 18  0  0  1  0  0  0  0  0999 V2000
   11.8724  -12.6865  -10.4054 N   0  0  0  0  0  0  0  0  0  0  0  0
   12.1149  -11.7253  -11.4454 C   0  0  0  0  0  0  0  0  0  0  0  0
   13.3831  -11.0180  -11.1168 C   0  0  0  0  0  0  0  0  0  0  0  0
   13.8704  -11.2021   -9.9646 O   0  0  0  0  0  0  0  0  0  0  0  0
   17.8747   -8.5874  -14.8071 N   0  0  0  0  0  0  0  0  0  0  0  0
   18.2313   -8.1303  -13.5127 C   0  0  0  0  0  0  0  0  0  0  0  0
   19.2755   -7.4625  -13.3370 O   0  0  0  0  0  0  0  0  0  0  0  0
   17.3724   -8.4286  -12.3046 C   0  0  0  0  0  0  0  0  0  0  0  0
   16.1173   -9.1140  -12.7319 C   0  0  0  0  0  0  0  0  0  0  0  0
   15.2332   -9.4488  -11.5605 C   0  0  2  0  0  0  0  0  0  0  0  0
   14.0420  -10.1657  -12.0367 N   0  0  0  0  0  0  0  0  0  0  0  0
   14.8486   -8.2903  -10.7524 C   0  0  0  0  0  0  0  0  0  0  0  0
   13.9031   -7.5523  -11.1089 O   0  0  0  0  0  0  0  0  0  0  0  0
   15.5434   -6.9136   -7.3115 C   0  0  0  0  0  0  0  0  0  0  0  0
   15.0015   -6.8402   -8.7409 C   0  0  2  0  0  0  0  0  0  0  0  0
   15.5067   -7.9344   -9.5383 N   0  0  0  0  0  0  0  0  0  0  0  0
   15.4330   -5.5417   -9.2889 C   0  0  0  0  0  0  0  0  0  0  0  0
   16.2457   -5.5137  -10.2478 O   0  0  0  0  0  0  0  0  0  0  0  0
   14.9332   -4.3800   -8.7350 O   0  0  0  0  0  0  0  0  0  0  0  0
  1  2  1  0
  2  3  1  0
  3 11  1  0
  3  4  2  0
  5  6  1  0
  6  7  2  0
  8  9  1  0
  8  6  1  0
 10  9  1  6
 11 10  1  0
 12 10  1  0
 12 16  1  0
 13 12  2  0
 15 16  1  0
 15 17  1  0
 15 14  1  1
 17 19  1  0
 18 17  2  0
M  END
$$$$
