GQA.pdb
     RDKit          3D

 19 18  0  0  1  0  0  0  0  0999 V2000
   22.7410  -11.8183  -18.6191 N   0  0  0  0  0  0  0  0  0  0  0  0
   22.7590  -11.5445  -17.2088 C   0  0  0  0  0  0  0  0  0  0  0  0
   21.8513  -10.3901  -16.9634 C   0  0  0  0  0  0  0  0  0  0  0  0
   21.4236   -9.7613  -17.9736 O   0  0  0  0  0  0  0  0  0  0  0  0
   16.0192  -10.7024  -15.2854 N   0  0  0  0  0  0  0  0  0  0  0  0
   17.2644  -10.4089  -14.6732 C   0  0  0  0  0  0  0  0  0  0  0  0
   17.3740  -10.3914  -13.4262 O   0  0  0  0  0  0  0  0  0  0  0  0
   18.4978  -10.1082  -15.4946 C   0  0  0  0  0  0  0  0  0  0  0  0
   19.3713   -9.1444  -14.7629 C   0  0  0  0  0  0  0  0  0  0  0  0
   20.6076   -8.7982  -15.5488 C   0  0  2  0  0  0  0  0  0  0  0  0
   21.4637   -9.9873  -15.6618 N   0  0  0  0  0  0  0  0  0  0  0  0
   21.3638   -7.6687  -15.0054 C   0  0  0  0  0  0  0  0  0  0  0  0
   22.0346   -7.7984  -13.9570 O   0  0  0  0  0  0  0  0  0  0  0  0
   22.2636   -4.1185  -15.9583 C   0  0  0  0  0  0  0  0  0  0  0  0
   22.1341   -5.3067  -15.0025 C   0  0  2  0  0  0  0  0  0  0  0  0
   21.3867   -6.3804  -15.6165 N   0  0  0  0  0  0  0  0  0  0  0  0
   21.4489   -4.8055  -13.7976 C   0  0  0  0  0  0  0  0  0  0  0  0
   22.0244   -3.9623  -13.0638 O   0  0  0  0  0  0  0  0  0  0  0  0
   20.1850   -5.2749  -13.5001 O   0  0  0  0  0  0  0  0  0  0  0  0
  1  2  1  0
  2  3  1  0
  3 11  1  0
  3  4  2  0
  5  6  1  0
  6  7  2  0
  8  9  1  0
  8  6  1  0
 10  9  1  1
 11 10  1  0
 12 10  1  0
 12 16  1  0
 13 12  2  0
 15 16  1  0
 15 17  1  0
 15 14  1  6
 17 19  1  0
 18 17  2  0
M  END
$$$$
