GQA.pdb
     RDKit          3D

 19 18  0  0  1  0  0  0  0  0999 V2000
   16.4981  -11.8911  -14.8982 N   0  0  0  0  0  0  0  0  0  0  0  0
   16.0930  -10.6489  -15.4958 C   0  0  0  0  0  0  0  0  0  0  0  0
   16.9037   -9.5657  -14.8742 C   0  0  0  0  0  0  0  0  0  0  0  0
   16.5826   -9.1943  -13.7090 O   0  0  0  0  0  0  0  0  0  0  0  0
   22.6466   -9.2121  -13.7862 N   0  0  0  0  0  0  0  0  0  0  0  0
   22.2316   -9.3351  -15.1368 C   0  0  0  0  0  0  0  0  0  0  0  0
   23.0132   -9.7824  -16.0064 O   0  0  0  0  0  0  0  0  0  0  0  0
   20.8412   -8.9348  -15.5762 C   0  0  0  0  0  0  0  0  0  0  0  0
   20.0766   -8.3989  -14.4120 C   0  0  0  0  0  0  0  0  0  0  0  0
   18.7170   -7.8952  -14.8166 C   0  0  2  0  0  0  0  0  0  0  0  0
   17.9973   -8.9554  -15.5361 N   0  0  0  0  0  0  0  0  0  0  0  0
   18.7476   -6.6643  -15.6085 C   0  0  0  0  0  0  0  0  0  0  0  0
   18.8493   -6.7127  -16.8548 O   0  0  0  0  0  0  0  0  0  0  0  0
   17.6973   -3.1325  -15.3238 C   0  0  0  0  0  0  0  0  0  0  0  0
   18.6436   -4.1974  -15.8831 C   0  0  2  0  0  0  0  0  0  0  0  0
   18.6658   -5.3635  -15.0299 N   0  0  0  0  0  0  0  0  0  0  0  0
   19.9772   -3.5749  -15.9647 C   0  0  0  0  0  0  0  0  0  0  0  0
   20.9006   -3.9895  -15.2190 O   0  0  0  0  0  0  0  0  0  0  0  0
   20.1838   -2.5460  -16.8619 O   0  0  0  0  0  0  0  0  0  0  0  0
  1  2  1  0
  2  3  1  0
  3 11  1  0
  3  4  2  0
  5  6  1  0
  6  7  2  0
  8  9  1  0
  8  6  1  0
 10  9  1  6
 11 10  1  0
 12 10  1  0
 12 16  1  0
 13 12  2  0
 15 16  1  0
 15 17  1  0
 15 14  1  1
 17 19  1  0
 18 17  2  0
M  END
$$$$
