GQA.pdb
     RDKit          3D

 19 18  0  0  1  0  0  0  0  0999 V2000
   21.2980  -13.0761  -17.9408 N   0  0  0  0  0  0  0  0  0  0  0  0
   20.7220  -11.7602  -17.9712 C   0  0  0  0  0  0  0  0  0  0  0  0
   21.4346  -10.9342  -16.9579 C   0  0  0  0  0  0  0  0  0  0  0  0
   21.0428  -11.0185  -15.7586 O   0  0  0  0  0  0  0  0  0  0  0  0
   27.3223  -10.0932  -16.0782 N   0  0  0  0  0  0  0  0  0  0  0  0
   26.4328  -11.1356  -15.7122 C   0  0  0  0  0  0  0  0  0  0  0  0
   26.8715  -12.2426  -15.3258 O   0  0  0  0  0  0  0  0  0  0  0  0
   24.9331  -10.9530  -15.7736 C   0  0  0  0  0  0  0  0  0  0  0  0
   24.6092   -9.5554  -16.1849 C   0  0  0  0  0  0  0  0  0  0  0  0
   23.1250   -9.3048  -16.2032 C   0  0  2  0  0  0  0  0  0  0  0  0
   22.5123  -10.0780  -17.2925 N   0  0  0  0  0  0  0  0  0  0  0  0
   22.7594   -7.8910  -16.3060 C   0  0  0  0  0  0  0  0  0  0  0  0
   22.8242   -7.2960  -17.4048 O   0  0  0  0  0  0  0  0  0  0  0  0
   20.4315   -5.5874  -15.5153 C   0  0  0  0  0  0  0  0  0  0  0  0
   21.9489   -5.7331  -15.3794 C   0  0  2  0  0  0  0  0  0  0  0  0
   22.3171   -7.1179  -15.1923 N   0  0  0  0  0  0  0  0  0  0  0  0
   22.3482   -4.9170  -14.2187 C   0  0  0  0  0  0  0  0  0  0  0  0
   22.7550   -5.4848  -13.1733 O   0  0  0  0  0  0  0  0  0  0  0  0
   22.2665   -3.5415  -14.3054 O   0  0  0  0  0  0  0  0  0  0  0  0
  1  2  1  0
  2  3  1  0
  3 11  1  0
  3  4  2  0
  5  6  1  0
  6  7  2  0
  8  9  1  0
  8  6  1  0
 10  9  1  6
 11 10  1  0
 12 10  1  0
 12 16  1  0
 13 12  2  0
 15 16  1  0
 15 17  1  0
 15 14  1  1
 17 19  1  0
 18 17  2  0
M  END
$$$$
