GQA.pdb
     RDKit          3D

 19 18  0  0  1  0  0  0  0  0999 V2000
   23.0443  -10.6223  -16.7555 N   0  0  0  0  0  0  0  0  0  0  0  0
   23.2536  -10.1756  -15.4061 C   0  0  0  0  0  0  0  0  0  0  0  0
   22.2025   -9.1670  -15.0985 C   0  0  0  0  0  0  0  0  0  0  0  0
   21.3535   -8.9173  -16.0017 O   0  0  0  0  0  0  0  0  0  0  0  0
   18.7721   -6.7357   -9.7270 N   0  0  0  0  0  0  0  0  0  0  0  0
   18.3748   -7.2294  -10.9958 C   0  0  0  0  0  0  0  0  0  0  0  0
   17.3784   -7.9795  -11.1053 O   0  0  0  0  0  0  0  0  0  0  0  0
   19.1317   -6.8728  -12.2553 C   0  0  0  0  0  0  0  0  0  0  0  0
   20.2855   -7.8025  -12.4335 C   0  0  0  0  0  0  0  0  0  0  0  0
   21.0653   -7.4970  -13.6842 C   0  0  2  0  0  0  0  0  0  0  0  0
   22.1295   -8.4964  -13.8528 N   0  0  0  0  0  0  0  0  0  0  0  0
   21.6191   -6.1425  -13.7267 C   0  0  0  0  0  0  0  0  0  0  0  0
   22.4845   -5.7833  -12.8973 O   0  0  0  0  0  0  0  0  0  0  0  0
   21.5951   -3.1484  -16.0241 C   0  0  0  0  0  0  0  0  0  0  0  0
   21.8509   -3.8675  -14.6975 C   0  0  2  0  0  0  0  0  0  0  0  0
   21.2211   -5.1681  -14.6889 N   0  0  0  0  0  0  0  0  0  0  0  0
   21.2994   -3.0046  -13.6374 C   0  0  0  0  0  0  0  0  0  0  0  0
   21.9267   -1.9714  -13.2913 O   0  0  0  0  0  0  0  0  0  0  0  0
   20.1014   -3.3514  -13.0452 O   0  0  0  0  0  0  0  0  0  0  0  0
  1  2  1  0
  2  3  1  0
  3 11  1  0
  3  4  2  0
  5  6  1  0
  6  7  2  0
  8  9  1  0
  8  6  1  0
 10  9  1  1
 11 10  1  0
 12 10  1  0
 12 16  1  0
 13 12  2  0
 15 16  1  0
 15 17  1  0
 15 14  1  6
 17 19  1  0
 18 17  2  0
M  END
$$$$
