GQA.pdb
     RDKit          3D

 19 18  0  0  1  0  0  0  0  0999 V2000
   28.6234  -22.4579  -16.4404 N   0  0  0  0  0  0  0  0  0  0  0  0
   28.4239  -21.4447  -15.4414 C   0  0  0  0  0  0  0  0  0  0  0  0
   27.0196  -21.5582  -14.9603 C   0  0  0  0  0  0  0  0  0  0  0  0
   26.2301  -22.2802  -15.6344 O   0  0  0  0  0  0  0  0  0  0  0  0
   24.4607  -21.1452   -9.2196 N   0  0  0  0  0  0  0  0  0  0  0  0
   25.5769  -20.4039   -9.6844 C   0  0  0  0  0  0  0  0  0  0  0  0
   26.2134  -19.6551   -8.9089 O   0  0  0  0  0  0  0  0  0  0  0  0
   26.0383  -20.4875  -11.1220 C   0  0  0  0  0  0  0  0  0  0  0  0
   25.2027  -21.4755  -11.8656 C   0  0  0  0  0  0  0  0  0  0  0  0
   25.1904  -21.1998  -13.3454 C   0  0  2  0  0  0  0  0  0  0  0  0
   26.5554  -20.8961  -13.7972 N   0  0  0  0  0  0  0  0  0  0  0  0
   24.2664  -20.1379  -13.7473 C   0  0  0  0  0  0  0  0  0  0  0  0
   24.5737  -18.9350  -13.5907 O   0  0  0  0  0  0  0  0  0  0  0  0
   21.8855  -19.2136  -16.1687 C   0  0  0  0  0  0  0  0  0  0  0  0
   22.1149  -19.2927  -14.6577 C   0  0  2  0  0  0  0  0  0  0  0  0
   22.9896  -20.3948  -14.3282 N   0  0  0  0  0  0  0  0  0  0  0  0
   20.7884  -19.4656  -14.0387 C   0  0  0  0  0  0  0  0  0  0  0  0
   20.5181  -20.5397  -13.4437 O   0  0  0  0  0  0  0  0  0  0  0  0
   19.8681  -18.4401  -14.1263 O   0  0  0  0  0  0  0  0  0  0  0  0
  1  2  1  0
  2  3  1  0
  3 11  1  0
  3  4  2  0
  5  6  1  0
  6  7  2  0
  8  9  1  0
  8  6  1  0
 10  9  1  1
 11 10  1  0
 12 10  1  0
 12 16  1  0
 13 12  2  0
 15 16  1  0
 15 17  1  0
 15 14  1  6
 17 19  1  0
 18 17  2  0
M  END
$$$$
