YKK.pdb
     RDKit          3D

 31 31  0  0  1  0  0  0  0  0999 V2000
   18.1857  -15.5153   14.5832 O   0  0  0  0  0  0  0  0  0  0  0  0
   17.2387  -15.4254   15.6094 C   0  0  0  0  0  0  0  0  0  0  0  0
   16.1653  -16.2847   15.6061 C   0  0  0  0  0  0  0  0  0  0  0  0
   15.2172  -16.2174   16.6063 C   0  0  0  0  0  0  0  0  0  0  0  0
   15.2929  -15.3080   17.6372 C   0  0  0  0  0  0  0  0  0  0  0  0
   14.2655  -15.2425   18.6760 C   0  0  0  0  0  0  0  0  0  0  0  0
   12.9343  -14.7211   18.1365 C   0  0  2  0  0  0  0  0  0  0  0  0
   12.9943  -13.3143   17.8802 N   0  0  0  0  0  0  0  0  0  0  0  0
   11.8436  -15.0261   19.1221 C   0  0  0  0  0  0  0  0  0  0  0  0
   11.5056  -14.2426   20.0246 O   0  0  0  0  0  0  0  0  0  0  0  0
   16.3686  -14.4543   17.6307 C   0  0  0  0  0  0  0  0  0  0  0  0
   17.3400  -14.5055   16.6277 C   0  0  0  0  0  0  0  0  0  0  0  0
   11.1730  -16.2669   19.0088 N   0  0  0  0  0  0  0  0  0  0  0  0
   10.0434  -16.6166   19.9412 C   0  0  1  0  0  0  0  0  0  0  0  0
    9.0973  -17.4637   19.1822 C   0  0  0  0  0  0  0  0  0  0  0  0
    8.0114  -18.2208   19.7607 C   0  0  0  0  0  0  0  0  0  0  0  0
    7.1544  -19.1465   19.0015 C   0  0  0  0  0  0  0  0  0  0  0  0
    6.1343  -19.8879   19.8508 C   0  0  0  0  0  0  0  0  0  0  0  0
    5.2687  -20.7084   19.0365 N   0  0  0  0  0  0  0  0  0  0  0  0
   10.6853  -17.3383   21.0590 C   0  0  0  0  0  0  0  0  0  0  0  0
   11.6644  -18.1456   20.8941 O   0  0  0  0  0  0  0  0  0  0  0  0
   10.2998  -17.2245   22.4382 N   0  0  0  0  0  0  0  0  0  0  0  0
   10.8922  -18.0704   23.4845 C   0  0  1  0  0  0  0  0  0  0  0  0
   10.4209  -17.6077   24.8481 C   0  0  0  0  0  0  0  0  0  0  0  0
   10.9948  -18.5346   25.8871 C   0  0  0  0  0  0  0  0  0  0  0  0
   10.7006  -18.1423   27.3022 C   0  0  0  0  0  0  0  0  0  0  0  0
   11.4638  -19.0432   28.2495 C   0  0  0  0  0  0  0  0  0  0  0  0
   11.1964  -18.5659   29.6081 N   0  0  0  0  0  0  0  0  0  0  0  0
   10.5860  -19.4881   23.2427 C   0  0  0  0  0  0  0  0  0  0  0  0
    9.4008  -19.8008   22.8906 O   0  0  0  0  0  0  0  0  0  0  0  0
   11.4647  -20.5464   23.3562 O   0  0  0  0  0  0  0  0  0  0  0  0
  2 12  2  0
  2  1  1  0
  3  2  1  0
  4  5  1  0
  4  3  2  0
  5 11  2  0
  6  5  1  0
  7  8  1  1
  7  6  1  0
  9  7  1  0
 10  9  2  0
 11 12  1  0
 13  9  1  0
 14 20  1  0
 14 13  1  0
 14 15  1  6
 16 15  1  0
 17 16  1  0
 18 17  1  0
 19 18  1  0
 20 21  2  0
 22 23  1  0
 22 20  1  0
 23 24  1  1
 24 25  1  0
 25 26  1  0
 26 27  1  0
 28 27  1  0
 29 31  1  0
 29 23  1  0
 30 29  2  0
M  END
$$$$
