YKK.pdb
     RDKit          3D

 31 31  0  0  1  0  0  0  0  0999 V2000
    5.0395  -10.2247   27.8545 O   0  0  0  0  0  0  0  0  0  0  0  0
    5.7180  -11.3270   27.3231 C   0  0  0  0  0  0  0  0  0  0  0  0
    6.1582  -12.3145   28.1726 C   0  0  0  0  0  0  0  0  0  0  0  0
    6.8297  -13.4122   27.6746 C   0  0  0  0  0  0  0  0  0  0  0  0
    7.0890  -13.5743   26.3321 C   0  0  0  0  0  0  0  0  0  0  0  0
    7.8196  -14.7373   25.8295 C   0  0  0  0  0  0  0  0  0  0  0  0
    6.9026  -15.7266   25.1116 C   0  0  2  0  0  0  0  0  0  0  0  0
    6.5746  -16.8352   25.9552 N   0  0  0  0  0  0  0  0  0  0  0  0
    7.5726  -16.2060   23.8564 C   0  0  0  0  0  0  0  0  0  0  0  0
    8.1885  -17.2821   23.7841 O   0  0  0  0  0  0  0  0  0  0  0  0
    6.6454  -12.5822   25.4926 C   0  0  0  0  0  0  0  0  0  0  0  0
    5.9634  -11.4625   25.9759 C   0  0  0  0  0  0  0  0  0  0  0  0
    7.4917  -15.3872   22.7052 N   0  0  0  0  0  0  0  0  0  0  0  0
    8.2376  -15.7532   21.4492 C   0  0  1  0  0  0  0  0  0  0  0  0
    8.0490  -14.6426   20.4903 C   0  0  0  0  0  0  0  0  0  0  0  0
    8.5553  -14.6177   19.1375 C   0  0  0  0  0  0  0  0  0  0  0  0
    8.1023  -13.6718   18.1041 C   0  0  0  0  0  0  0  0  0  0  0  0
    8.5024  -14.0580   16.6890 C   0  0  0  0  0  0  0  0  0  0  0  0
    8.0778  -13.0630   15.7322 N   0  0  0  0  0  0  0  0  0  0  0  0
    9.6436  -15.9068   21.8755 C   0  0  0  0  0  0  0  0  0  0  0  0
   10.2885  -14.9870   22.4886 O   0  0  0  0  0  0  0  0  0  0  0  0
   10.4424  -17.0813   21.6610 N   0  0  0  0  0  0  0  0  0  0  0  0
   11.8630  -17.1360   22.0358 C   0  0  1  0  0  0  0  0  0  0  0  0
   12.1349  -18.3912   22.8397 C   0  0  0  0  0  0  0  0  0  0  0  0
   11.5098  -18.2270   24.1999 C   0  0  0  0  0  0  0  0  0  0  0  0
   11.5361  -19.4595   25.0502 C   0  0  0  0  0  0  0  0  0  0  0  0
   10.8808  -19.1720   26.3842 C   0  0  0  0  0  0  0  0  0  0  0  0
   10.8261  -20.4374   27.1196 N   0  0  0  0  0  0  0  0  0  0  0  0
   12.7195  -17.0432   20.8442 C   0  0  0  0  0  0  0  0  0  0  0  0
   13.9779  -16.9197   21.0103 O   0  0  0  0  0  0  0  0  0  0  0  0
   12.3000  -17.0778   19.5298 O   0  0  0  0  0  0  0  0  0  0  0  0
  2 12  2  0
  2  1  1  0
  3  2  1  0
  4  5  1  0
  4  3  2  0
  5 11  2  0
  6  5  1  0
  7  8  1  1
  7  6  1  0
  9  7  1  0
 10  9  2  0
 11 12  1  0
 13  9  1  0
 14 20  1  0
 14 13  1  0
 14 15  1  6
 16 15  1  0
 17 16  1  0
 18 17  1  0
 19 18  1  0
 20 21  2  0
 22 23  1  0
 22 20  1  0
 23 24  1  6
 24 25  1  0
 25 26  1  0
 26 27  1  0
 28 27  1  0
 29 31  1  0
 29 23  1  0
 30 29  2  0
M  END
$$$$
