YKK.pdb
     RDKit          3D

 31 31  0  0  1  0  0  0  0  0999 V2000
    5.6886  -10.1203   26.7919 O   0  0  0  0  0  0  0  0  0  0  0  0
    6.0515  -11.4635   26.6428 C   0  0  0  0  0  0  0  0  0  0  0  0
    7.3657  -11.7769   26.3875 C   0  0  0  0  0  0  0  0  0  0  0  0
    7.7502  -13.0934   26.2364 C   0  0  0  0  0  0  0  0  0  0  0  0
    6.8600  -14.1395   26.3310 C   0  0  0  0  0  0  0  0  0  0  0  0
    7.2875  -15.5261   26.1480 C   0  0  0  0  0  0  0  0  0  0  0  0
    6.5465  -16.2098   24.9998 C   0  0  2  0  0  0  0  0  0  0  0  0
    6.1296  -17.5293   25.3649 N   0  0  0  0  0  0  0  0  0  0  0  0
    7.4367  -16.2590   23.7917 C   0  0  0  0  0  0  0  0  0  0  0  0
    8.2109  -17.2014   23.5570 O   0  0  0  0  0  0  0  0  0  0  0  0
    5.5501  -13.8154   26.5858 C   0  0  0  0  0  0  0  0  0  0  0  0
    5.1394  -12.4890   26.7424 C   0  0  0  0  0  0  0  0  0  0  0  0
    7.3831  -15.1768   22.8819 N   0  0  0  0  0  0  0  0  0  0  0  0
    8.1555  -15.2215   21.5899 C   0  0  1  0  0  0  0  0  0  0  0  0
    7.7963  -14.0074   20.8244 C   0  0  0  0  0  0  0  0  0  0  0  0
    8.2727  -13.6902   19.4980 C   0  0  0  0  0  0  0  0  0  0  0  0
    7.8700  -14.4148   18.2812 C   0  0  0  0  0  0  0  0  0  0  0  0
    8.5376  -13.9151   17.0100 C   0  0  0  0  0  0  0  0  0  0  0  0
    9.8912  -14.4062   16.8986 N   0  0  0  0  0  0  0  0  0  0  0  0
    9.5751  -15.2395   21.9983 C   0  0  0  0  0  0  0  0  0  0  0  0
    9.9737  -14.8341   23.1449 O   0  0  0  0  0  0  0  0  0  0  0  0
   10.6589  -15.7053   21.1785 N   0  0  0  0  0  0  0  0  0  0  0  0
   11.8267  -16.3928   21.7486 C   0  0  1  0  0  0  0  0  0  0  0  0
   11.3849  -17.6603   22.4513 C   0  0  0  0  0  0  0  0  0  0  0  0
   12.6108  -18.3699   22.9630 C   0  0  0  0  0  0  0  0  0  0  0  0
   12.3376  -19.6829   23.6295 C   0  0  0  0  0  0  0  0  0  0  0  0
   13.6430  -20.3160   24.0615 C   0  0  0  0  0  0  0  0  0  0  0  0
   13.3109  -21.5767   24.7287 N   0  0  0  0  0  0  0  0  0  0  0  0
   12.8339  -16.6557   20.7100 C   0  0  0  0  0  0  0  0  0  0  0  0
   12.4349  -16.8518   19.5146 O   0  0  0  0  0  0  0  0  0  0  0  0
   14.2008  -16.7135   20.8911 O   0  0  0  0  0  0  0  0  0  0  0  0
  2 12  2  0
  2  1  1  0
  3  2  1  0
  4  5  1  0
  4  3  2  0
  5 11  2  0
  6  5  1  0
  7  8  1  1
  7  6  1  0
  9  7  1  0
 10  9  2  0
 11 12  1  0
 13  9  1  0
 14 20  1  0
 14 13  1  0
 14 15  1  6
 16 15  1  0
 17 16  1  0
 18 17  1  0
 19 18  1  0
 20 21  2  0
 22 23  1  0
 22 20  1  0
 23 24  1  6
 24 25  1  0
 25 26  1  0
 26 27  1  0
 28 27  1  0
 29 31  1  0
 29 23  1  0
 30 29  2  0
M  END
$$$$
