YKK.pdb
     RDKit          3D

 31 31  0  0  1  0  0  0  0  0999 V2000
    6.3665  -10.2182   27.3104 O   0  0  0  0  0  0  0  0  0  0  0  0
    6.4613  -11.5904   27.0533 C   0  0  0  0  0  0  0  0  0  0  0  0
    5.4458  -12.2140   26.3674 C   0  0  0  0  0  0  0  0  0  0  0  0
    5.5145  -13.5660   26.1006 C   0  0  0  0  0  0  0  0  0  0  0  0
    6.5781  -14.3451   26.4972 C   0  0  0  0  0  0  0  0  0  0  0  0
    6.6198  -15.7805   26.2198 C   0  0  0  0  0  0  0  0  0  0  0  0
    7.8678  -16.1783   25.4330 C   0  0  2  0  0  0  0  0  0  0  0  0
    8.9394  -15.2573   25.6605 N   0  0  0  0  0  0  0  0  0  0  0  0
    7.5354  -16.2416   23.9702 C   0  0  0  0  0  0  0  0  0  0  0  0
    6.7959  -17.1102   23.4791 O   0  0  0  0  0  0  0  0  0  0  0  0
    7.5864  -13.7125   27.1819 C   0  0  0  0  0  0  0  0  0  0  0  0
    7.5370  -12.3445   27.4624 C   0  0  0  0  0  0  0  0  0  0  0  0
    8.0943  -15.2597   23.1184 N   0  0  0  0  0  0  0  0  0  0  0  0
    8.5660  -15.6225   21.7350 C   0  0  1  0  0  0  0  0  0  0  0  0
    8.2412  -14.4822   20.8501 C   0  0  0  0  0  0  0  0  0  0  0  0
    8.1066  -14.5571   19.4137 C   0  0  0  0  0  0  0  0  0  0  0  0
    8.3137  -13.4173   18.5049 C   0  0  0  0  0  0  0  0  0  0  0  0
    8.0657  -13.7372   17.0394 C   0  0  0  0  0  0  0  0  0  0  0  0
    8.3299  -12.5927   16.1991 N   0  0  0  0  0  0  0  0  0  0  0  0
   10.0204  -15.8393   21.8761 C   0  0  0  0  0  0  0  0  0  0  0  0
   10.6580  -15.5940   22.9583 O   0  0  0  0  0  0  0  0  0  0  0  0
   10.8793  -16.3423   20.8403 N   0  0  0  0  0  0  0  0  0  0  0  0
   11.8799  -17.3881   21.0981 C   0  0  1  0  0  0  0  0  0  0  0  0
   11.2241  -18.5700   21.7826 C   0  0  0  0  0  0  0  0  0  0  0  0
   12.2661  -19.6384   21.9845 C   0  0  0  0  0  0  0  0  0  0  0  0
   11.7916  -20.8342   22.7511 C   0  0  0  0  0  0  0  0  0  0  0  0
   12.9538  -21.7702   23.0052 C   0  0  0  0  0  0  0  0  0  0  0  0
   12.4320  -22.9101   23.7624 N   0  0  0  0  0  0  0  0  0  0  0  0
   12.5608  -17.7748   19.8535 C   0  0  0  0  0  0  0  0  0  0  0  0
   11.8653  -17.8802   18.7897 O   0  0  0  0  0  0  0  0  0  0  0  0
   13.9068  -18.0418   19.7055 O   0  0  0  0  0  0  0  0  0  0  0  0
  2 12  2  0
  2  1  1  0
  3  2  1  0
  4  5  1  0
  4  3  2  0
  5 11  2  0
  6  5  1  0
  7  8  1  6
  7  6  1  0
  9  7  1  0
 10  9  2  0
 11 12  1  0
 13  9  1  0
 14 20  1  0
 14 13  1  0
 14 15  1  6
 16 15  1  0
 17 16  1  0
 18 17  1  0
 19 18  1  0
 20 21  2  0
 22 23  1  0
 22 20  1  0
 23 24  1  6
 24 25  1  0
 25 26  1  0
 26 27  1  0
 28 27  1  0
 29 31  1  0
 29 23  1  0
 30 29  2  0
M  END
$$$$
