YKK.pdb
     RDKit          3D

 31 31  0  0  1  0  0  0  0  0999 V2000
    6.3426  -10.4124   27.4790 O   0  0  0  0  0  0  0  0  0  0  0  0
    6.4888  -11.7677   27.1628 C   0  0  0  0  0  0  0  0  0  0  0  0
    7.6579  -12.1961   26.5795 C   0  0  0  0  0  0  0  0  0  0  0  0
    7.8278  -13.5270   26.2579 C   0  0  0  0  0  0  0  0  0  0  0  0
    6.8591  -14.4755   26.4979 C   0  0  0  0  0  0  0  0  0  0  0  0
    7.0543  -15.8776   26.1305 C   0  0  0  0  0  0  0  0  0  0  0  0
    6.2462  -16.2660   24.8931 C   0  0  2  0  0  0  0  0  0  0  0  0
    5.6241  -17.5439   25.0604 N   0  0  0  0  0  0  0  0  0  0  0  0
    7.1480  -16.2775   23.6927 C   0  0  0  0  0  0  0  0  0  0  0  0
    7.8215  -17.2663   23.3591 O   0  0  0  0  0  0  0  0  0  0  0  0
    5.6954  -14.0369   27.0802 C   0  0  0  0  0  0  0  0  0  0  0  0
    5.5027  -12.6939   27.4141 C   0  0  0  0  0  0  0  0  0  0  0  0
    7.2267  -15.1021   22.9089 N   0  0  0  0  0  0  0  0  0  0  0  0
    8.0101  -15.0883   21.6229 C   0  0  1  0  0  0  0  0  0  0  0  0
    7.8618  -13.7385   21.0358 C   0  0  0  0  0  0  0  0  0  0  0  0
    8.4212  -13.3154   19.7729 C   0  0  0  0  0  0  0  0  0  0  0  0
    8.1414  -13.9719   18.4851 C   0  0  0  0  0  0  0  0  0  0  0  0
    8.9886  -13.4624   17.3301 C   0  0  0  0  0  0  0  0  0  0  0  0
    8.6872  -14.1666   16.1058 N   0  0  0  0  0  0  0  0  0  0  0  0
    9.4003  -15.3869   22.0236 C   0  0  0  0  0  0  0  0  0  0  0  0
   10.0264  -14.7147   22.9146 O   0  0  0  0  0  0  0  0  0  0  0  0
   10.2026  -16.4455   21.4765 N   0  0  0  0  0  0  0  0  0  0  0  0
   11.6082  -16.6364   21.8629 C   0  0  1  0  0  0  0  0  0  0  0  0
   11.8752  -18.1050   22.1230 C   0  0  0  0  0  0  0  0  0  0  0  0
   11.9709  -18.3125   23.6115 C   0  0  0  0  0  0  0  0  0  0  0  0
   12.2848  -19.7170   24.0256 C   0  0  0  0  0  0  0  0  0  0  0  0
   12.4290  -19.7840   25.5310 C   0  0  0  0  0  0  0  0  0  0  0  0
   12.5844  -21.1961   25.8871 N   0  0  0  0  0  0  0  0  0  0  0  0
   12.5085  -16.0806   20.8417 C   0  0  0  0  0  0  0  0  0  0  0  0
   13.6581  -15.6669   21.2076 O   0  0  0  0  0  0  0  0  0  0  0  0
   12.2397  -15.9556   19.4938 O   0  0  0  0  0  0  0  0  0  0  0  0
  2 12  2  0
  2  1  1  0
  3  2  1  0
  4  5  1  0
  4  3  2  0
  5 11  2  0
  6  5  1  0
  7  8  1  1
  7  6  1  0
  9  7  1  0
 10  9  2  0
 11 12  1  0
 13  9  1  0
 14 20  1  0
 14 13  1  0
 14 15  1  1
 16 15  1  0
 17 16  1  0
 18 17  1  0
 19 18  1  0
 20 21  2  0
 22 23  1  0
 22 20  1  0
 23 24  1  6
 24 25  1  0
 25 26  1  0
 26 27  1  0
 28 27  1  0
 29 31  1  0
 29 23  1  0
 30 29  2  0
M  END
$$$$
