YKK.pdb
     RDKit          3D

 31 31  0  0  1  0  0  0  0  0999 V2000
    5.2176  -10.4472   27.7764 O   0  0  0  0  0  0  0  0  0  0  0  0
    5.7985  -11.6434   27.3408 C   0  0  0  0  0  0  0  0  0  0  0  0
    6.9090  -12.1242   27.9936 C   0  0  0  0  0  0  0  0  0  0  0  0
    7.5011  -13.3014   27.5846 C   0  0  0  0  0  0  0  0  0  0  0  0
    7.0234  -14.0407   26.5259 C   0  0  0  0  0  0  0  0  0  0  0  0
    7.6793  -15.2759   26.0982 C   0  0  0  0  0  0  0  0  0  0  0  0
    6.7870  -16.1144   25.1841 C   0  0  2  0  0  0  0  0  0  0  0  0
    6.4306  -17.3546   25.8031 N   0  0  0  0  0  0  0  0  0  0  0  0
    7.4988  -16.3645   23.8859 C   0  0  0  0  0  0  0  0  0  0  0  0
    8.1068  -17.4186   23.6372 O   0  0  0  0  0  0  0  0  0  0  0  0
    5.9143  -13.5514   25.8807 C   0  0  0  0  0  0  0  0  0  0  0  0
    5.2992  -12.3616   26.2787 C   0  0  0  0  0  0  0  0  0  0  0  0
    7.4688  -15.3459   22.9043 N   0  0  0  0  0  0  0  0  0  0  0  0
    8.1603  -15.5357   21.5801 C   0  0  1  0  0  0  0  0  0  0  0  0
    7.9521  -14.2975   20.7975 C   0  0  0  0  0  0  0  0  0  0  0  0
    8.4839  -14.0495   19.4775 C   0  0  0  0  0  0  0  0  0  0  0  0
    7.6539  -13.8254   18.2821 C   0  0  0  0  0  0  0  0  0  0  0  0
    8.4491  -13.5986   17.0063 C   0  0  0  0  0  0  0  0  0  0  0  0
    7.5894  -13.2111   15.9125 N   0  0  0  0  0  0  0  0  0  0  0  0
    9.5792  -15.7621   21.9234 C   0  0  0  0  0  0  0  0  0  0  0  0
   10.2251  -15.0154   22.7377 O   0  0  0  0  0  0  0  0  0  0  0  0
   10.3907  -16.8253   21.3991 N   0  0  0  0  0  0  0  0  0  0  0  0
   11.7917  -17.0083   21.8054 C   0  0  1  0  0  0  0  0  0  0  0  0
   11.9991  -18.4199   22.3152 C   0  0  0  0  0  0  0  0  0  0  0  0
   11.9502  -18.3919   23.8201 C   0  0  0  0  0  0  0  0  0  0  0  0
   12.1486  -19.7242   24.4746 C   0  0  0  0  0  0  0  0  0  0  0  0
   12.0984  -19.5649   25.9792 C   0  0  0  0  0  0  0  0  0  0  0  0
   12.1217  -20.9108   26.5564 N   0  0  0  0  0  0  0  0  0  0  0  0
   12.7017  -16.6782   20.6985 C   0  0  0  0  0  0  0  0  0  0  0  0
   13.9487  -16.5809   20.9476 O   0  0  0  0  0  0  0  0  0  0  0  0
   12.3453  -16.4578   19.3836 O   0  0  0  0  0  0  0  0  0  0  0  0
  2 12  2  0
  2  1  1  0
  3  2  1  0
  4  5  1  0
  4  3  2  0
  5 11  2  0
  6  5  1  0
  7  8  1  1
  7  6  1  0
  9  7  1  0
 10  9  2  0
 11 12  1  0
 13  9  1  0
 14 20  1  0
 14 13  1  0
 14 15  1  6
 16 15  1  0
 17 16  1  0
 18 17  1  0
 19 18  1  0
 20 21  2  0
 22 23  1  0
 22 20  1  0
 23 24  1  6
 24 25  1  0
 25 26  1  0
 26 27  1  0
 28 27  1  0
 29 31  1  0
 29 23  1  0
 30 29  2  0
M  END
$$$$
