YKK.pdb
     RDKit          3D

 31 31  0  0  1  0  0  0  0  0999 V2000
    6.3901  -10.5842   27.2221 O   0  0  0  0  0  0  0  0  0  0  0  0
    6.5468  -11.9366   26.8989 C   0  0  0  0  0  0  0  0  0  0  0  0
    7.6273  -12.3222   26.1410 C   0  0  0  0  0  0  0  0  0  0  0  0
    7.8056  -13.6494   25.8084 C   0  0  0  0  0  0  0  0  0  0  0  0
    6.9321  -14.6358   26.2078 C   0  0  0  0  0  0  0  0  0  0  0  0
    7.1313  -16.0337   25.8267 C   0  0  0  0  0  0  0  0  0  0  0  0
    6.3434  -16.4056   24.5713 C   0  0  2  0  0  0  0  0  0  0  0  0
    5.7492  -17.7014   24.6973 N   0  0  0  0  0  0  0  0  0  0  0  0
    7.2560  -16.3633   23.3797 C   0  0  0  0  0  0  0  0  0  0  0  0
    7.9465  -17.3306   23.0189 O   0  0  0  0  0  0  0  0  0  0  0  0
    5.8563  -14.2398   26.9638 C   0  0  0  0  0  0  0  0  0  0  0  0
    5.6570  -12.9014   27.3121 C   0  0  0  0  0  0  0  0  0  0  0  0
    7.3249  -15.1607   22.6374 N   0  0  0  0  0  0  0  0  0  0  0  0
    8.1653  -15.0756   21.3907 C   0  0  1  0  0  0  0  0  0  0  0  0
    8.0326  -13.6979   20.8681 C   0  0  0  0  0  0  0  0  0  0  0  0
    7.8882  -13.3483   19.4739 C   0  0  0  0  0  0  0  0  0  0  0  0
    8.5552  -14.0602   18.3712 C   0  0  0  0  0  0  0  0  0  0  0  0
    8.2824  -13.4723   16.9959 C   0  0  0  0  0  0  0  0  0  0  0  0
    8.8659  -14.2822   15.9522 N   0  0  0  0  0  0  0  0  0  0  0  0
    9.5384  -15.3866   21.8381 C   0  0  0  0  0  0  0  0  0  0  0  0
   10.0682  -14.8566   22.8756 O   0  0  0  0  0  0  0  0  0  0  0  0
   10.4281  -16.3026   21.1801 N   0  0  0  0  0  0  0  0  0  0  0  0
   11.7641  -16.6083   21.7122 C   0  0  1  0  0  0  0  0  0  0  0  0
   12.1100  -18.0566   21.4327 C   0  0  0  0  0  0  0  0  0  0  0  0
   13.4856  -18.3293   21.9817 C   0  0  0  0  0  0  0  0  0  0  0  0
   13.9179  -19.7606   21.8959 C   0  0  0  0  0  0  0  0  0  0  0  0
   15.2172  -19.9462   22.6501 C   0  0  0  0  0  0  0  0  0  0  0  0
   15.5434  -21.3732   22.6027 N   0  0  0  0  0  0  0  0  0  0  0  0
   12.7665  -15.6822   21.1648 C   0  0  0  0  0  0  0  0  0  0  0  0
   13.6057  -15.1540   21.9668 O   0  0  0  0  0  0  0  0  0  0  0  0
   12.9039  -15.3130   19.8421 O   0  0  0  0  0  0  0  0  0  0  0  0
  2 12  2  0
  2  1  1  0
  3  2  1  0
  4  5  1  0
  4  3  2  0
  5 11  2  0
  6  5  1  0
  7  8  1  1
  7  6  1  0
  9  7  1  0
 10  9  2  0
 11 12  1  0
 13  9  1  0
 14 20  1  0
 14 13  1  0
 14 15  1  1
 16 15  1  0
 17 16  1  0
 18 17  1  0
 19 18  1  0
 20 21  2  0
 22 23  1  0
 22 20  1  0
 23 24  1  6
 24 25  1  0
 25 26  1  0
 26 27  1  0
 28 27  1  0
 29 31  1  0
 29 23  1  0
 30 29  2  0
M  END
$$$$
