YKK.pdb
     RDKit          3D

 31 31  0  0  1  0  0  0  0  0999 V2000
    7.2531  -12.9410   16.0641 O   0  0  0  0  0  0  0  0  0  0  0  0
    7.8873  -14.1634   16.3125 C   0  0  0  0  0  0  0  0  0  0  0  0
    7.7348  -14.7581   17.5427 C   0  0  0  0  0  0  0  0  0  0  0  0
    8.3491  -15.9635   17.8136 C   0  0  0  0  0  0  0  0  0  0  0  0
    9.1295  -16.6203   16.8888 C   0  0  0  0  0  0  0  0  0  0  0  0
    9.7866  -17.8879   17.2053 C   0  0  0  0  0  0  0  0  0  0  0  0
    9.1556  -19.0644   16.4618 C   0  0  2  0  0  0  0  0  0  0  0  0
    7.7868  -19.2423   16.8399 N   0  0  0  0  0  0  0  0  0  0  0  0
    9.9418  -20.3119   16.7448 C   0  0  0  0  0  0  0  0  0  0  0  0
    9.5668  -21.1834   17.5464 O   0  0  0  0  0  0  0  0  0  0  0  0
    9.2756  -16.0174   15.6636 C   0  0  0  0  0  0  0  0  0  0  0  0
    8.6621  -14.7972   15.3684 C   0  0  0  0  0  0  0  0  0  0  0  0
   11.1661  -20.4959   16.0598 N   0  0  0  0  0  0  0  0  0  0  0  0
   11.9604  -21.7632   16.2349 C   0  0  1  0  0  0  0  0  0  0  0  0
   12.3119  -22.2484   14.8822 C   0  0  0  0  0  0  0  0  0  0  0  0
   13.0874  -23.4341   14.6001 C   0  0  0  0  0  0  0  0  0  0  0  0
   13.4455  -23.8829   13.2443 C   0  0  0  0  0  0  0  0  0  0  0  0
   14.2803  -25.1531   13.2096 C   0  0  0  0  0  0  0  0  0  0  0  0
   15.4965  -24.9628   12.4544 N   0  0  0  0  0  0  0  0  0  0  0  0
   13.1438  -21.3620   17.0228 C   0  0  0  0  0  0  0  0  0  0  0  0
   13.7764  -20.2683   16.8191 O   0  0  0  0  0  0  0  0  0  0  0  0
   13.7172  -22.1315   18.0918 N   0  0  0  0  0  0  0  0  0  0  0  0
   14.8915  -21.6656   18.8437 C   0  0  1  0  0  0  0  0  0  0  0  0
   14.9720  -22.3895   20.1722 C   0  0  0  0  0  0  0  0  0  0  0  0
   13.8443  -21.9047   21.0448 C   0  0  0  0  0  0  0  0  0  0  0  0
   13.6881  -22.6521   22.3331 C   0  0  0  0  0  0  0  0  0  0  0  0
   12.6207  -21.9914   23.1790 C   0  0  0  0  0  0  0  0  0  0  0  0
   12.4613  -22.8057   24.3858 N   0  0  0  0  0  0  0  0  0  0  0  0
   16.1170  -21.8280   18.0475 C   0  0  0  0  0  0  0  0  0  0  0  0
   16.2371  -22.8728   17.3261 O   0  0  0  0  0  0  0  0  0  0  0  0
   17.1798  -20.9493   17.9922 O   0  0  0  0  0  0  0  0  0  0  0  0
  2 12  2  0
  2  1  1  0
  3  2  1  0
  4  5  1  0
  4  3  2  0
  5 11  2  0
  6  5  1  0
  7  8  1  1
  7  6  1  0
  9  7  1  0
 10  9  2  0
 11 12  1  0
 13  9  1  0
 14 20  1  0
 14 13  1  0
 14 15  1  6
 16 15  1  0
 17 16  1  0
 18 17  1  0
 19 18  1  0
 20 21  2  0
 22 23  1  0
 22 20  1  0
 23 24  1  1
 24 25  1  0
 25 26  1  0
 26 27  1  0
 28 27  1  0
 29 31  1  0
 29 23  1  0
 30 29  2  0
M  END
$$$$
