YKK.pdb
     RDKit          3D

 31 31  0  0  1  0  0  0  0  0999 V2000
    9.4753  -11.3540   20.3272 O   0  0  0  0  0  0  0  0  0  0  0  0
    8.6126  -12.4553   20.3001 C   0  0  0  0  0  0  0  0  0  0  0  0
    7.9873  -12.8438   21.4614 C   0  0  0  0  0  0  0  0  0  0  0  0
    7.1316  -13.9262   21.4622 C   0  0  0  0  0  0  0  0  0  0  0  0
    6.8639  -14.6582   20.3273 C   0  0  0  0  0  0  0  0  0  0  0  0
    5.9679  -15.8138   20.3565 C   0  0  0  0  0  0  0  0  0  0  0  0
    6.6949  -17.1141   20.0163 C   0  0  2  0  0  0  0  0  0  0  0  0
    5.7704  -18.1894   19.8230 N   0  0  0  0  0  0  0  0  0  0  0  0
    7.6606  -17.4474   21.1166 C   0  0  0  0  0  0  0  0  0  0  0  0
    7.3063  -17.9066   22.2149 O   0  0  0  0  0  0  0  0  0  0  0  0
    7.4938  -14.2620   19.1732 C   0  0  0  0  0  0  0  0  0  0  0  0
    8.3638  -13.1689   19.1502 C   0  0  0  0  0  0  0  0  0  0  0  0
    9.0383  -17.2263   20.8816 N   0  0  0  0  0  0  0  0  0  0  0  0
   10.0678  -17.6545   21.8937 C   0  0  1  0  0  0  0  0  0  0  0  0
   11.3402  -17.8524   21.1651 C   0  0  0  0  0  0  0  0  0  0  0  0
   12.5120  -18.5051   21.7014 C   0  0  0  0  0  0  0  0  0  0  0  0
   13.7505  -18.7345   20.9390 C   0  0  0  0  0  0  0  0  0  0  0  0
   14.8343  -19.4632   21.7175 C   0  0  0  0  0  0  0  0  0  0  0  0
   15.9490  -19.8108   20.8676 N   0  0  0  0  0  0  0  0  0  0  0  0
   10.1319  -16.5411   22.8623 C   0  0  0  0  0  0  0  0  0  0  0  0
   10.9144  -15.5386   22.7184 O   0  0  0  0  0  0  0  0  0  0  0  0
    9.3408  -16.4469   24.0577 N   0  0  0  0  0  0  0  0  0  0  0  0
    9.8806  -15.8902   25.3068 C   0  0  1  0  0  0  0  0  0  0  0  0
    8.7507  -15.6157   26.2781 C   0  0  0  0  0  0  0  0  0  0  0  0
    8.0596  -14.3466   25.8542 C   0  0  0  0  0  0  0  0  0  0  0  0
    6.8858  -13.9636   26.7017 C   0  0  0  0  0  0  0  0  0  0  0  0
    6.2963  -12.6636   26.1978 C   0  0  0  0  0  0  0  0  0  0  0  0
    5.1189  -12.3765   27.0201 N   0  0  0  0  0  0  0  0  0  0  0  0
   10.8989  -16.7844   25.8776 C   0  0  0  0  0  0  0  0  0  0  0  0
   11.9795  -16.2696   26.3178 O   0  0  0  0  0  0  0  0  0  0  0  0
   10.8105  -18.1567   25.9943 O   0  0  0  0  0  0  0  0  0  0  0  0
  2 12  2  0
  2  1  1  0
  3  2  1  0
  4  5  1  0
  4  3  2  0
  5 11  2  0
  6  5  1  0
  7  8  1  1
  7  6  1  0
  9  7  1  0
 10  9  2  0
 11 12  1  0
 13  9  1  0
 14 20  1  0
 14 13  1  0
 14 15  1  6
 16 15  1  0
 17 16  1  0
 18 17  1  0
 19 18  1  0
 20 21  2  0
 22 23  1  0
 22 20  1  0
 23 24  1  1
 24 25  1  0
 25 26  1  0
 26 27  1  0
 28 27  1  0
 29 31  1  0
 29 23  1  0
 30 29  2  0
M  END
$$$$
