TET.pdb
     RDKit          3D

 24 23  0  0  1  0  0  0  0  0999 V2000
   23.5886  -11.4718  -15.3651 C   0  0  0  0  0  0  0  0  0  0  0  0
   22.9660  -12.2996  -16.4690 C   0  0  1  0  0  0  0  0  0  0  0  0
   23.4380  -13.5763  -16.4296 O   0  0  0  0  0  0  0  0  0  0  0  0
   21.4851  -12.1568  -16.3761 C   0  0  2  0  0  0  0  0  0  0  0  0
   20.7784  -12.9920  -17.3267 N   0  0  0  0  0  0  0  0  0  0  0  0
   20.9340  -10.8195  -16.3967 C   0  0  0  0  0  0  0  0  0  0  0  0
   20.7925  -10.2594  -17.5142 O   0  0  0  0  0  0  0  0  0  0  0  0
   20.5291  -10.0579  -15.2652 N   0  0  0  0  0  0  0  0  0  0  0  0
   20.0138   -8.7347  -15.4067 C   0  0  1  0  0  0  0  0  0  0  0  0
   18.6130   -8.5181  -14.9711 C   0  0  0  0  0  0  0  0  0  0  0  0
   17.5935   -9.4520  -15.5463 C   0  0  0  0  0  0  0  0  0  0  0  0
   16.2845   -9.0569  -14.9649 C   0  0  0  0  0  0  0  0  0  0  0  0
   15.3029   -8.7264  -15.6847 O   0  0  0  0  0  0  0  0  0  0  0  0
   20.8681   -7.7241  -14.6973 C   0  0  0  0  0  0  0  0  0  0  0  0
   21.3719   -8.0439  -13.5937 O   0  0  0  0  0  0  0  0  0  0  0  0
   16.1620   -9.0597  -13.5831 O   0  0  0  0  0  0  0  0  0  0  0  0
   24.0605   -6.3481  -15.6280 C   0  0  0  0  0  0  0  0  0  0  0  0
   23.1287   -5.1671  -15.4608 C   0  0  1  0  0  0  0  0  0  0  0  0
   22.6208   -4.8414  -16.7169 O   0  0  0  0  0  0  0  0  0  0  0  0
   21.9863   -5.4947  -14.5589 C   0  0  2  0  0  0  0  0  0  0  0  0
   21.1194   -6.4464  -15.2188 N   0  0  0  0  0  0  0  0  0  0  0  0
   21.2218   -4.2870  -14.1483 C   0  0  0  0  0  0  0  0  0  0  0  0
   21.7966   -3.3680  -13.2961 O   0  0  0  0  0  0  0  0  0  0  0  0
   20.0577   -4.0994  -14.5723 O   0  0  0  0  0  0  0  0  0  0  0  0
  2  1  1  1
  2  3  1  0
  2  4  1  0
  4  5  1  6
  6  7  2  0
  6  4  1  0
  8  6  1  0
  9  8  1  0
  9 14  1  0
  9 10  1  1
 11 10  1  0
 12 11  1  0
 13 12  2  0
 14 21  1  0
 15 14  2  0
 16 12  1  0
 18 17  1  6
 18 20  1  0
 18 19  1  0
 20 22  1  0
 20 21  1  6
 22 24  2  0
 22 23  1  0
M  END
$$$$
