TET.pdb
     RDKit          3D

 24 23  0  0  1  0  0  0  0  0999 V2000
   16.2573   -8.9975  -16.0598 C   0  0  0  0  0  0  0  0  0  0  0  0
   16.3648  -10.3651  -15.4200 C   0  0  1  0  0  0  0  0  0  0  0  0
   15.2093  -11.0640  -15.5954 O   0  0  0  0  0  0  0  0  0  0  0  0
   17.5997  -11.0218  -15.9355 C   0  0  2  0  0  0  0  0  0  0  0  0
   17.7328  -12.3958  -15.4937 N   0  0  0  0  0  0  0  0  0  0  0  0
   18.8566  -10.3280  -15.7584 C   0  0  0  0  0  0  0  0  0  0  0  0
   19.3531  -10.2974  -14.6028 O   0  0  0  0  0  0  0  0  0  0  0  0
   19.6023   -9.6642  -16.7719 N   0  0  0  0  0  0  0  0  0  0  0  0
   20.8366   -9.0110  -16.4782 C   0  0  1  0  0  0  0  0  0  0  0  0
   21.8877   -9.0784  -17.5220 C   0  0  0  0  0  0  0  0  0  0  0  0
   23.2002   -8.4464  -17.1753 C   0  0  0  0  0  0  0  0  0  0  0  0
   24.1092   -8.7068  -18.3215 C   0  0  0  0  0  0  0  0  0  0  0  0
   24.6487   -7.7731  -18.9755 O   0  0  0  0  0  0  0  0  0  0  0  0
   20.6342   -7.5634  -16.1348 C   0  0  0  0  0  0  0  0  0  0  0  0
   20.1650   -6.8047  -17.0171 O   0  0  0  0  0  0  0  0  0  0  0  0
   24.3576  -10.0278  -18.6644 O   0  0  0  0  0  0  0  0  0  0  0  0
   18.3670   -6.2217  -13.9427 C   0  0  0  0  0  0  0  0  0  0  0  0
   19.6568   -5.5791  -13.4799 C   0  0  1  0  0  0  0  0  0  0  0  0
   20.1048   -6.2765  -12.3598 O   0  0  0  0  0  0  0  0  0  0  0  0
   20.7112   -5.6481  -14.5331 C   0  0  2  0  0  0  0  0  0  0  0  0
   20.9497   -7.0333  -14.8750 N   0  0  0  0  0  0  0  0  0  0  0  0
   21.9760   -4.9866  -14.1155 C   0  0  0  0  0  0  0  0  0  0  0  0
   21.9922   -3.6299  -13.8700 O   0  0  0  0  0  0  0  0  0  0  0  0
   23.0278   -5.6551  -13.9852 O   0  0  0  0  0  0  0  0  0  0  0  0
  2  1  1  6
  2  3  1  0
  2  4  1  0
  4  5  1  1
  6  7  2  0
  6  4  1  0
  8  6  1  0
  9  8  1  0
  9 14  1  0
  9 10  1  6
 11 10  1  0
 12 11  1  0
 13 12  2  0
 14 21  1  0
 15 14  2  0
 16 12  1  0
 18 17  1  6
 18 20  1  0
 18 19  1  0
 20 22  1  0
 20 21  1  1
 22 24  2  0
 22 23  1  0
M  END
$$$$
