TET.pdb
     RDKit          3D

 24 23  0  0  1  0  0  0  0  0999 V2000
   26.2420  -17.6224  -15.3714 C   0  0  0  0  0  0  0  0  0  0  0  0
   27.2957  -18.7088  -15.3402 C   0  0  1  0  0  0  0  0  0  0  0  0
   28.5142  -18.1806  -15.0390 O   0  0  0  0  0  0  0  0  0  0  0  0
   26.8194  -19.7901  -14.4312 C   0  0  2  0  0  0  0  0  0  0  0  0
   27.8130  -20.8230  -14.2165 N   0  0  0  0  0  0  0  0  0  0  0  0
   25.5382  -20.3970  -14.7187 C   0  0  0  0  0  0  0  0  0  0  0  0
   25.5184  -21.3895  -15.4915 O   0  0  0  0  0  0  0  0  0  0  0  0
   24.2762  -19.9809  -14.2106 N   0  0  0  0  0  0  0  0  0  0  0  0
   23.0730  -20.6634  -14.5612 C   0  0  1  0  0  0  0  0  0  0  0  0
   21.9303  -20.5157  -13.6277 C   0  0  0  0  0  0  0  0  0  0  0  0
   20.6691  -21.2241  -14.0148 C   0  0  0  0  0  0  0  0  0  0  0  0
   19.7032  -21.0002  -12.9081 C   0  0  0  0  0  0  0  0  0  0  0  0
   18.5256  -21.4502  -12.9439 O   0  0  0  0  0  0  0  0  0  0  0  0
   22.5904  -20.2770  -15.9294 C   0  0  0  0  0  0  0  0  0  0  0  0
   22.3651  -19.0641  -16.1581 O   0  0  0  0  0  0  0  0  0  0  0  0
   20.1339  -20.2698  -11.8102 O   0  0  0  0  0  0  0  0  0  0  0  0
   21.9408  -21.9173  -20.5287 C   0  0  0  0  0  0  0  0  0  0  0  0
   22.7491  -21.6862  -19.2701 C   0  0  1  0  0  0  0  0  0  0  0  0
   23.9255  -21.0323  -19.6309 O   0  0  0  0  0  0  0  0  0  0  0  0
   22.0118  -20.8303  -18.2956 C   0  0  2  0  0  0  0  0  0  0  0  0
   22.3826  -21.2151  -16.9514 N   0  0  0  0  0  0  0  0  0  0  0  0
   20.5374  -20.9064  -18.4742 C   0  0  0  0  0  0  0  0  0  0  0  0
   19.7623  -21.5332  -17.5215 O   0  0  0  0  0  0  0  0  0  0  0  0
   19.9948  -20.4041  -19.4858 O   0  0  0  0  0  0  0  0  0  0  0  0
  2  1  1  1
  2  3  1  0
  2  4  1  0
  4  5  1  6
  6  7  2  0
  6  4  1  0
  8  6  1  0
  9  8  1  0
  9 14  1  0
  9 10  1  1
 11 10  1  0
 12 11  1  0
 13 12  2  0
 14 21  1  0
 15 14  2  0
 16 12  1  0
 18 17  1  6
 18 20  1  0
 18 19  1  0
 20 22  1  0
 20 21  1  1
 22 24  2  0
 22 23  1  0
M  END
$$$$
