TET.pdb
     RDKit          3D

 24 23  0  0  1  0  0  0  0  0999 V2000
   23.6201  -11.2029  -21.3477 C   0  0  0  0  0  0  0  0  0  0  0  0
   23.0520  -10.0279  -20.5809 C   0  0  1  0  0  0  0  0  0  0  0  0
   22.6177   -9.0648  -21.4401 O   0  0  0  0  0  0  0  0  0  0  0  0
   22.0318  -10.5474  -19.6262 C   0  0  2  0  0  0  0  0  0  0  0  0
   20.9931  -11.3201  -20.2778 N   0  0  0  0  0  0  0  0  0  0  0  0
   21.4349   -9.6095  -18.7007 C   0  0  0  0  0  0  0  0  0  0  0  0
   20.2570   -9.2301  -18.9265 O   0  0  0  0  0  0  0  0  0  0  0  0
   22.0522   -9.0610  -17.5421 N   0  0  0  0  0  0  0  0  0  0  0  0
   21.3702   -8.1220  -16.7116 C   0  0  1  0  0  0  0  0  0  0  0  0
   21.0736   -8.5556  -15.3249 C   0  0  0  0  0  0  0  0  0  0  0  0
   20.2960   -7.5893  -14.4859 C   0  0  0  0  0  0  0  0  0  0  0  0
   19.9812   -8.2927  -13.2154 C   0  0  0  0  0  0  0  0  0  0  0  0
   19.0032   -9.0820  -13.1100 O   0  0  0  0  0  0  0  0  0  0  0  0
   22.1038   -6.8147  -16.6282 C   0  0  0  0  0  0  0  0  0  0  0  0
   23.2993   -6.8289  -16.2479 O   0  0  0  0  0  0  0  0  0  0  0  0
   20.8042   -8.0578  -12.1237 O   0  0  0  0  0  0  0  0  0  0  0  0
   22.0704   -4.1493  -19.4597 C   0  0  0  0  0  0  0  0  0  0  0  0
   21.7519   -3.5134  -18.1235 C   0  0  1  0  0  0  0  0  0  0  0  0
   20.3666   -3.4041  -18.0207 O   0  0  0  0  0  0  0  0  0  0  0  0
   22.2463   -4.3470  -16.9892 C   0  0  2  0  0  0  0  0  0  0  0  0
   21.5053   -5.5889  -16.9556 N   0  0  0  0  0  0  0  0  0  0  0  0
   22.1490   -3.6438  -15.6824 C   0  0  0  0  0  0  0  0  0  0  0  0
   21.3498   -4.1589  -14.6838 O   0  0  0  0  0  0  0  0  0  0  0  0
   22.7894   -2.5854  -15.4831 O   0  0  0  0  0  0  0  0  0  0  0  0
  2  1  1  6
  2  3  1  0
  2  4  1  0
  4  5  1  6
  6  7  2  0
  6  4  1  0
  8  6  1  0
  9  8  1  0
  9 14  1  0
  9 10  1  1
 11 10  1  0
 12 11  1  0
 13 12  2  0
 14 21  1  0
 15 14  2  0
 16 12  1  0
 18 17  1  6
 18 20  1  0
 18 19  1  0
 20 22  1  0
 20 21  1  1
 22 24  2  0
 22 23  1  0
M  END
$$$$
