TET.pdb
     RDKit          3D

 24 23  0  0  1  0  0  0  0  0999 V2000
   15.5163   -8.7229  -14.7829 C   0  0  0  0  0  0  0  0  0  0  0  0
   15.7469  -10.2187  -14.8134 C   0  0  1  0  0  0  0  0  0  0  0  0
   14.5651  -10.8843  -14.6919 O   0  0  0  0  0  0  0  0  0  0  0  0
   16.5451  -10.5395  -16.0308 C   0  0  2  0  0  0  0  0  0  0  0  0
   16.7350  -11.9639  -16.2200 N   0  0  0  0  0  0  0  0  0  0  0  0
   17.8040   -9.8506  -16.2127 C   0  0  0  0  0  0  0  0  0  0  0  0
   18.8133  -10.3029  -15.6132 O   0  0  0  0  0  0  0  0  0  0  0  0
   18.0234   -8.6942  -17.0119 N   0  0  0  0  0  0  0  0  0  0  0  0
   19.2984   -8.0549  -17.0584 C   0  0  1  0  0  0  0  0  0  0  0  0
   19.5700   -7.2017  -18.2405 C   0  0  0  0  0  0  0  0  0  0  0  0
   20.9259   -6.5687  -18.2971 C   0  0  0  0  0  0  0  0  0  0  0  0
   20.9582   -5.7517  -19.5377 C   0  0  0  0  0  0  0  0  0  0  0  0
   21.3158   -4.5423  -19.5356 O   0  0  0  0  0  0  0  0  0  0  0  0
   19.5509   -7.2231  -15.8343 C   0  0  0  0  0  0  0  0  0  0  0  0
   18.6976   -6.3592  -15.5182 O   0  0  0  0  0  0  0  0  0  0  0  0
   20.5787   -6.3611  -20.7248 O   0  0  0  0  0  0  0  0  0  0  0  0
   20.2302   -8.6062  -12.4537 C   0  0  0  0  0  0  0  0  0  0  0  0
   21.3064   -7.5792  -12.7332 C   0  0  1  0  0  0  0  0  0  0  0  0
   22.4481   -8.2589  -13.1529 O   0  0  0  0  0  0  0  0  0  0  0  0
   20.8945   -6.6348  -13.8123 C   0  0  2  0  0  0  0  0  0  0  0  0
   20.6968   -7.3746  -15.0395 N   0  0  0  0  0  0  0  0  0  0  0  0
   21.8788   -5.5386  -14.0144 C   0  0  0  0  0  0  0  0  0  0  0  0
   22.1341   -4.6485  -12.9927 O   0  0  0  0  0  0  0  0  0  0  0  0
   22.4780   -5.4186  -15.1084 O   0  0  0  0  0  0  0  0  0  0  0  0
  2  1  1  6
  2  3  1  0
  2  4  1  0
  4  5  1  1
  6  7  2  0
  6  4  1  0
  8  6  1  0
  9  8  1  0
  9 14  1  0
  9 10  1  6
 11 10  1  0
 12 11  1  0
 13 12  2  0
 14 21  1  0
 15 14  2  0
 16 12  1  0
 18 17  1  6
 18 20  1  0
 18 19  1  0
 20 22  1  0
 20 21  1  6
 22 24  2  0
 22 23  1  0
M  END
$$$$
