TET.pdb
     RDKit          3D

 24 23  0  0  1  0  0  0  0  0999 V2000
   15.5921   -9.0291  -13.7526 C   0  0  0  0  0  0  0  0  0  0  0  0
   15.7712   -9.9412  -14.9474 C   0  0  1  0  0  0  0  0  0  0  0  0
   14.5665  -10.4198  -15.3647 O   0  0  0  0  0  0  0  0  0  0  0  0
   16.5645   -9.2084  -15.9748 C   0  0  2  0  0  0  0  0  0  0  0  0
   16.4752   -9.8108  -17.2900 N   0  0  0  0  0  0  0  0  0  0  0  0
   17.9454   -8.9040  -15.6699 C   0  0  0  0  0  0  0  0  0  0  0  0
   18.2120   -8.4758  -14.5174 O   0  0  0  0  0  0  0  0  0  0  0  0
   19.0526   -9.0397  -16.5529 N   0  0  0  0  0  0  0  0  0  0  0  0
   20.3708   -8.6668  -16.1536 C   0  0  1  0  0  0  0  0  0  0  0  0
   21.4865   -9.1850  -16.9817 C   0  0  0  0  0  0  0  0  0  0  0  0
   22.8618   -8.7516  -16.5777 C   0  0  0  0  0  0  0  0  0  0  0  0
   23.8065   -9.4344  -17.4991 C   0  0  0  0  0  0  0  0  0  0  0  0
   24.1734   -8.9164  -18.5889 O   0  0  0  0  0  0  0  0  0  0  0  0
   20.5275   -7.1760  -16.0679 C   0  0  0  0  0  0  0  0  0  0  0  0
   20.6030   -6.5253  -17.1380 O   0  0  0  0  0  0  0  0  0  0  0  0
   24.2874  -10.6813  -17.1268 O   0  0  0  0  0  0  0  0  0  0  0  0
   18.3545   -4.6556  -14.9364 C   0  0  0  0  0  0  0  0  0  0  0  0
   19.6106   -4.4311  -14.1224 C   0  0  1  0  0  0  0  0  0  0  0  0
   19.4215   -5.0179  -12.8727 O   0  0  0  0  0  0  0  0  0  0  0  0
   20.7998   -5.0616  -14.7661 C   0  0  2  0  0  0  0  0  0  0  0  0
   20.5935   -6.4911  -14.8455 N   0  0  0  0  0  0  0  0  0  0  0  0
   22.0649   -4.7542  -14.0473 C   0  0  0  0  0  0  0  0  0  0  0  0
   22.5207   -3.4543  -13.9858 O   0  0  0  0  0  0  0  0  0  0  0  0
   22.7197   -5.6699  -13.4970 O   0  0  0  0  0  0  0  0  0  0  0  0
  2  1  1  1
  2  3  1  0
  2  4  1  0
  4  5  1  6
  6  7  2  0
  6  4  1  0
  8  6  1  0
  9  8  1  0
  9 14  1  0
  9 10  1  6
 11 10  1  0
 12 11  1  0
 13 12  2  0
 14 21  1  0
 15 14  2  0
 16 12  1  0
 18 17  1  6
 18 20  1  0
 18 19  1  0
 20 22  1  0
 20 21  1  1
 22 24  2  0
 22 23  1  0
M  END
$$$$
