TET.pdb
     RDKit          3D

 24 23  0  0  1  0  0  0  0  0999 V2000
   23.6778  -11.4250  -15.3542 C   0  0  0  0  0  0  0  0  0  0  0  0
   23.1134  -12.1840  -16.5360 C   0  0  1  0  0  0  0  0  0  0  0  0
   23.6115  -13.4510  -16.5689 O   0  0  0  0  0  0  0  0  0  0  0  0
   21.6274  -12.0768  -16.4885 C   0  0  2  0  0  0  0  0  0  0  0  0
   20.9741  -12.8451  -17.5294 N   0  0  0  0  0  0  0  0  0  0  0  0
   21.0486  -10.7527  -16.4226 C   0  0  0  0  0  0  0  0  0  0  0  0
   20.8318  -10.1516  -17.5063 O   0  0  0  0  0  0  0  0  0  0  0  0
   20.6938  -10.0465  -15.2397 N   0  0  0  0  0  0  0  0  0  0  0  0
   20.1040   -8.7484  -15.2986 C   0  0  1  0  0  0  0  0  0  0  0  0
   18.7237   -8.6223  -14.7715 C   0  0  0  0  0  0  0  0  0  0  0  0
   17.6728   -9.4172  -15.4831 C   0  0  0  0  0  0  0  0  0  0  0  0
   16.3912   -9.1440  -14.7826 C   0  0  0  0  0  0  0  0  0  0  0  0
   16.0642   -9.7454  -13.7233 O   0  0  0  0  0  0  0  0  0  0  0  0
   20.9479   -7.7196  -14.6032 C   0  0  0  0  0  0  0  0  0  0  0  0
   21.3869   -7.9879  -13.4589 O   0  0  0  0  0  0  0  0  0  0  0  0
   15.5435   -8.1923  -15.3303 O   0  0  0  0  0  0  0  0  0  0  0  0
   24.1238   -6.1285  -15.8134 C   0  0  0  0  0  0  0  0  0  0  0  0
   23.1405   -5.0287  -15.4748 C   0  0  1  0  0  0  0  0  0  0  0  0
   22.5140   -4.6360  -16.6558 O   0  0  0  0  0  0  0  0  0  0  0  0
   22.0965   -5.5029  -14.5203 C   0  0  2  0  0  0  0  0  0  0  0  0
   21.2589   -6.4798  -15.1811 N   0  0  0  0  0  0  0  0  0  0  0  0
   21.2739   -4.3889  -13.9782 C   0  0  0  0  0  0  0  0  0  0  0  0
   21.8597   -3.4281  -13.1814 O   0  0  0  0  0  0  0  0  0  0  0  0
   20.0508   -4.3181  -14.2412 O   0  0  0  0  0  0  0  0  0  0  0  0
  2  1  1  1
  2  3  1  0
  2  4  1  0
  4  5  1  6
  6  7  2  0
  6  4  1  0
  8  6  1  0
  9  8  1  0
  9 14  1  0
  9 10  1  1
 11 10  1  0
 12 11  1  0
 13 12  2  0
 14 21  1  0
 15 14  2  0
 16 12  1  0
 18 17  1  6
 18 20  1  0
 18 19  1  0
 20 22  1  0
 20 21  1  6
 22 24  2  0
 22 23  1  0
M  END
$$$$
