TET.pdb
     RDKit          3D

 24 23  0  0  1  0  0  0  0  0999 V2000
   15.6161   -5.1166   -8.8938 C   0  0  0  0  0  0  0  0  0  0  0  0
   15.1942   -6.3814   -8.1771 C   0  0  1  0  0  0  0  0  0  0  0  0
   14.2716   -6.0980   -7.2163 O   0  0  0  0  0  0  0  0  0  0  0  0
   14.7711   -7.3762   -9.2034 C   0  0  2  0  0  0  0  0  0  0  0  0
   14.3709   -8.6442   -8.6267 N   0  0  0  0  0  0  0  0  0  0  0  0
   15.6563   -7.6071  -10.3239 C   0  0  0  0  0  0  0  0  0  0  0  0
   16.3585   -8.6509  -10.3127 O   0  0  0  0  0  0  0  0  0  0  0  0
   15.8193   -6.7617  -11.4566 N   0  0  0  0  0  0  0  0  0  0  0  0
   16.6205   -7.1574  -12.5691 C   0  0  1  0  0  0  0  0  0  0  0  0
   15.9508   -7.1870  -13.8919 C   0  0  0  0  0  0  0  0  0  0  0  0
   16.7714   -7.7035  -15.0331 C   0  0  0  0  0  0  0  0  0  0  0  0
   15.8950   -7.6679  -16.2324 C   0  0  0  0  0  0  0  0  0  0  0  0
   14.7337   -7.1769  -16.2005 O   0  0  0  0  0  0  0  0  0  0  0  0
   17.8484   -6.3040  -12.7044 C   0  0  0  0  0  0  0  0  0  0  0  0
   17.7437   -5.0743  -12.4782 O   0  0  0  0  0  0  0  0  0  0  0  0
   16.3923   -8.1975  -17.4142 O   0  0  0  0  0  0  0  0  0  0  0  0
   21.2600   -7.5348  -11.1775 C   0  0  0  0  0  0  0  0  0  0  0  0
   21.4339   -6.9934  -12.5803 C   0  0  1  0  0  0  0  0  0  0  0  0
   21.4234   -8.0737  -13.4604 O   0  0  0  0  0  0  0  0  0  0  0  0
   20.3230   -6.0695  -12.9519 C   0  0  2  0  0  0  0  0  0  0  0  0
   19.0968   -6.8272  -13.0727 N   0  0  0  0  0  0  0  0  0  0  0  0
   20.6018   -5.3210  -14.2064 C   0  0  0  0  0  0  0  0  0  0  0  0
   19.8026   -5.5149  -15.3131 O   0  0  0  0  0  0  0  0  0  0  0  0
   21.5593   -4.5147  -14.2638 O   0  0  0  0  0  0  0  0  0  0  0  0
  2  1  1  6
  2  3  1  0
  2  4  1  0
  4  5  1  1
  6  7  2  0
  6  4  1  0
  8  6  1  0
  9  8  1  0
  9 14  1  0
  9 10  1  6
 11 10  1  0
 12 11  1  0
 13 12  2  0
 14 21  1  0
 15 14  2  0
 16 12  1  0
 18 17  1  1
 18 20  1  0
 18 19  1  0
 20 22  1  0
 20 21  1  6
 22 24  2  0
 22 23  1  0
M  END
$$$$
