TET.pdb
     RDKit          3D

 24 23  0  0  1  0  0  0  0  0999 V2000
   16.0715  -11.5186  -16.9659 C   0  0  0  0  0  0  0  0  0  0  0  0
   17.0364  -10.4574  -16.4819 C   0  0  1  0  0  0  0  0  0  0  0  0
   16.7372  -10.0896  -15.2054 O   0  0  0  0  0  0  0  0  0  0  0  0
   18.4233  -10.9583  -16.7001 C   0  0  2  0  0  0  0  0  0  0  0  0
   18.6871  -12.2041  -16.0080 N   0  0  0  0  0  0  0  0  0  0  0  0
   19.5158  -10.0362  -16.4794 C   0  0  0  0  0  0  0  0  0  0  0  0
   20.1247  -10.0989  -15.3803 O   0  0  0  0  0  0  0  0  0  0  0  0
   19.9810   -9.0479  -17.3910 N   0  0  0  0  0  0  0  0  0  0  0  0
   21.1280   -8.2505  -17.0998 C   0  0  1  0  0  0  0  0  0  0  0  0
   21.8699   -7.7058  -18.2625 C   0  0  0  0  0  0  0  0  0  0  0  0
   23.0805   -6.8839  -17.9438 C   0  0  0  0  0  0  0  0  0  0  0  0
   23.6306   -6.4220  -19.2445 C   0  0  0  0  0  0  0  0  0  0  0  0
   23.9234   -5.2140  -19.4582 O   0  0  0  0  0  0  0  0  0  0  0  0
   20.7921   -7.0974  -16.1988 C   0  0  0  0  0  0  0  0  0  0  0  0
   19.9184   -6.2818  -16.5804 O   0  0  0  0  0  0  0  0  0  0  0  0
   23.8200   -7.3687  -20.2407 O   0  0  0  0  0  0  0  0  0  0  0  0
   19.4582   -7.2682  -12.8102 C   0  0  0  0  0  0  0  0  0  0  0  0
   20.6927   -6.3960  -12.7317 C   0  0  1  0  0  0  0  0  0  0  0  0
   21.7518   -7.1910  -12.2979 O   0  0  0  0  0  0  0  0  0  0  0  0
   21.0448   -5.8247  -14.0642 C   0  0  2  0  0  0  0  0  0  0  0  0
   21.4157   -6.9001  -14.9578 N   0  0  0  0  0  0  0  0  0  0  0  0
   22.1331   -4.8148  -13.9801 C   0  0  0  0  0  0  0  0  0  0  0  0
   21.9392   -3.6555  -13.2593 O   0  0  0  0  0  0  0  0  0  0  0  0
   23.2260   -5.0110  -14.5608 O   0  0  0  0  0  0  0  0  0  0  0  0
  2  1  1  1
  2  3  1  0
  2  4  1  0
  4  5  1  1
  6  7  2  0
  6  4  1  0
  8  6  1  0
  9  8  1  0
  9 14  1  0
  9 10  1  6
 11 10  1  0
 12 11  1  0
 13 12  2  0
 14 21  1  0
 15 14  2  0
 16 12  1  0
 18 17  1  6
 18 20  1  0
 18 19  1  0
 20 22  1  0
 20 21  1  6
 22 24  2  0
 22 23  1  0
M  END
$$$$
