TET.pdb
     RDKit          3D

 24 23  0  0  1  0  0  0  0  0999 V2000
   15.3137   -9.2842  -16.2875 C   0  0  0  0  0  0  0  0  0  0  0  0
   15.3144  -10.4570  -15.3305 C   0  0  1  0  0  0  0  0  0  0  0  0
   14.1466  -11.1506  -15.4278 O   0  0  0  0  0  0  0  0  0  0  0  0
   16.5555  -11.2479  -15.5679 C   0  0  2  0  0  0  0  0  0  0  0  0
   16.6165  -12.4536  -14.7660 N   0  0  0  0  0  0  0  0  0  0  0  0
   17.8218  -10.5520  -15.5007 C   0  0  0  0  0  0  0  0  0  0  0  0
   18.3019  -10.3142  -14.3624 O   0  0  0  0  0  0  0  0  0  0  0  0
   18.5940  -10.0995  -16.6066 N   0  0  0  0  0  0  0  0  0  0  0  0
   19.8872   -9.5247  -16.4236 C   0  0  1  0  0  0  0  0  0  0  0  0
   20.8967   -9.8157  -17.4702 C   0  0  0  0  0  0  0  0  0  0  0  0
   22.2672   -9.2603  -17.2345 C   0  0  0  0  0  0  0  0  0  0  0  0
   23.0816   -9.6298  -18.4211 C   0  0  0  0  0  0  0  0  0  0  0  0
   22.6699   -9.4505  -19.5997 O   0  0  0  0  0  0  0  0  0  0  0  0
   19.8180   -8.0332  -16.2661 C   0  0  0  0  0  0  0  0  0  0  0  0
   19.3023   -7.3624  -17.1925 O   0  0  0  0  0  0  0  0  0  0  0  0
   24.3321  -10.1881  -18.2003 O   0  0  0  0  0  0  0  0  0  0  0  0
   18.0717   -6.2233  -13.6663 C   0  0  0  0  0  0  0  0  0  0  0  0
   19.4797   -5.6680  -13.6627 C   0  0  1  0  0  0  0  0  0  0  0  0
   20.1850   -6.2961  -12.6381 O   0  0  0  0  0  0  0  0  0  0  0  0
   20.1781   -5.9389  -14.9530 C   0  0  2  0  0  0  0  0  0  0  0  0
   20.3064   -7.3687  -15.1313 N   0  0  0  0  0  0  0  0  0  0  0  0
   21.5093   -5.2803  -15.0280 C   0  0  0  0  0  0  0  0  0  0  0  0
   21.5977   -3.9049  -14.9873 O   0  0  0  0  0  0  0  0  0  0  0  0
   22.5519   -5.9681  -15.1280 O   0  0  0  0  0  0  0  0  0  0  0  0
  2  1  1  6
  2  3  1  0
  2  4  1  0
  4  5  1  1
  6  7  2  0
  6  4  1  0
  8  6  1  0
  9  8  1  0
  9 14  1  0
  9 10  1  6
 11 10  1  0
 12 11  1  0
 13 12  2  0
 14 21  1  0
 15 14  2  0
 16 12  1  0
 18 17  1  6
 18 20  1  0
 18 19  1  0
 20 22  1  0
 20 21  1  1
 22 24  2  0
 22 23  1  0
M  END
$$$$
