TET.pdb
     RDKit          3D

 24 23  0  0  1  0  0  0  0  0999 V2000
   26.2503  -10.6698  -15.1764 C   0  0  0  0  0  0  0  0  0  0  0  0
   26.3076  -11.1852  -16.5985 C   0  0  1  0  0  0  0  0  0  0  0  0
   27.2814  -12.1289  -16.7232 O   0  0  0  0  0  0  0  0  0  0  0  0
   24.9360  -11.6188  -16.9897 C   0  0  2  0  0  0  0  0  0  0  0  0
   24.8947  -12.2434  -18.2968 N   0  0  0  0  0  0  0  0  0  0  0  0
   23.8653  -10.6529  -16.8758 C   0  0  0  0  0  0  0  0  0  0  0  0
   23.7307   -9.8129  -17.8027 O   0  0  0  0  0  0  0  0  0  0  0  0
   22.9329  -10.5513  -15.8060 N   0  0  0  0  0  0  0  0  0  0  0  0
   21.9036   -9.5629  -15.8097 C   0  0  1  0  0  0  0  0  0  0  0  0
   20.5961   -9.9647  -15.2371 C   0  0  0  0  0  0  0  0  0  0  0  0
   19.5038   -8.9430  -15.3113 C   0  0  0  0  0  0  0  0  0  0  0  0
   18.2929   -9.5775  -14.7293 C   0  0  0  0  0  0  0  0  0  0  0  0
   17.6212  -10.4417  -15.3559 O   0  0  0  0  0  0  0  0  0  0  0  0
   22.3345   -8.3055  -15.1114 C   0  0  0  0  0  0  0  0  0  0  0  0
   22.8245   -8.4046  -13.9606 O   0  0  0  0  0  0  0  0  0  0  0  0
   17.9085   -9.1910  -13.4536 O   0  0  0  0  0  0  0  0  0  0  0  0
   24.5811   -5.5429  -16.6317 C   0  0  0  0  0  0  0  0  0  0  0  0
   23.3093   -4.9432  -16.0715 C   0  0  1  0  0  0  0  0  0  0  0  0
   22.4098   -4.7869  -17.1243 O   0  0  0  0  0  0  0  0  0  0  0  0
   22.6892   -5.8337  -15.0476 C   0  0  2  0  0  0  0  0  0  0  0  0
   22.2084   -7.0355  -15.6935 N   0  0  0  0  0  0  0  0  0  0  0  0
   21.5900   -5.1640  -14.3027 C   0  0  0  0  0  0  0  0  0  0  0  0
   21.8670   -4.0756  -13.5027 O   0  0  0  0  0  0  0  0  0  0  0  0
   20.4130   -5.5831  -14.3976 O   0  0  0  0  0  0  0  0  0  0  0  0
  2  1  1  1
  2  3  1  0
  2  4  1  0
  4  5  1  6
  6  7  2  0
  6  4  1  0
  8  6  1  0
  9  8  1  0
  9 14  1  0
  9 10  1  1
 11 10  1  0
 12 11  1  0
 13 12  2  0
 14 21  1  0
 15 14  2  0
 16 12  1  0
 18 17  1  6
 18 20  1  0
 18 19  1  0
 20 22  1  0
 20 21  1  6
 22 24  2  0
 22 23  1  0
M  END
$$$$
