TET.pdb
     RDKit          3D

 24 23  0  0  1  0  0  0  0  0999 V2000
   20.7731  -13.6546  -19.0148 C   0  0  0  0  0  0  0  0  0  0  0  0
   19.4189  -14.2401  -18.6762 C   0  0  1  0  0  0  0  0  0  0  0  0
   19.4442  -15.5964  -18.7955 O   0  0  0  0  0  0  0  0  0  0  0  0
   19.0092  -13.7181  -17.3413 C   0  0  2  0  0  0  0  0  0  0  0  0
   17.8826  -14.4351  -16.7782 N   0  0  0  0  0  0  0  0  0  0  0  0
   18.7959  -12.2934  -17.2109 C   0  0  0  0  0  0  0  0  0  0  0  0
   19.0346  -11.5694  -18.2117 O   0  0  0  0  0  0  0  0  0  0  0  0
   18.3374  -11.6134  -16.0483 N   0  0  0  0  0  0  0  0  0  0  0  0
   18.2181  -10.1916  -16.0184 C   0  0  1  0  0  0  0  0  0  0  0  0
   16.9721   -9.6427  -15.4309 C   0  0  0  0  0  0  0  0  0  0  0  0
   16.8406   -8.1511  -15.4436 C   0  0  0  0  0  0  0  0  0  0  0  0
   15.5406   -7.8370  -14.7963 C   0  0  0  0  0  0  0  0  0  0  0  0
   15.2564   -6.6776  -14.3892 O   0  0  0  0  0  0  0  0  0  0  0  0
   19.3734   -9.5493  -15.3065 C   0  0  0  0  0  0  0  0  0  0  0  0
   19.6275   -9.9191  -14.1348 O   0  0  0  0  0  0  0  0  0  0  0  0
   14.6256   -8.8689  -14.6461 O   0  0  0  0  0  0  0  0  0  0  0  0
   22.8739   -9.7308  -16.0851 C   0  0  0  0  0  0  0  0  0  0  0  0
   22.5406   -8.2547  -16.0514 C   0  0  1  0  0  0  0  0  0  0  0  0
   22.2949   -7.8413  -17.3592 O   0  0  0  0  0  0  0  0  0  0  0  0
   21.3216   -7.9876  -15.2337 C   0  0  2  0  0  0  0  0  0  0  0  0
   20.1706   -8.5584  -15.8984 N   0  0  0  0  0  0  0  0  0  0  0  0
   21.1139   -6.5369  -14.9803 C   0  0  0  0  0  0  0  0  0  0  0  0
   22.0195   -5.8384  -14.2100 O   0  0  0  0  0  0  0  0  0  0  0  0
   20.1203   -5.9453  -15.4627 O   0  0  0  0  0  0  0  0  0  0  0  0
  2  1  1  1
  2  3  1  0
  2  4  1  0
  4  5  1  6
  6  7  2  0
  6  4  1  0
  8  6  1  0
  9  8  1  0
  9 14  1  0
  9 10  1  1
 11 10  1  0
 12 11  1  0
 13 12  2  0
 14 21  1  0
 15 14  2  0
 16 12  1  0
 18 17  1  6
 18 20  1  0
 18 19  1  0
 20 22  1  0
 20 21  1  6
 22 24  2  0
 22 23  1  0
M  END
$$$$
