TET.pdb
     RDKit          3D

 24 23  0  0  1  0  0  0  0  0999 V2000
   12.6599  -11.4808  -10.9687 C   0  0  0  0  0  0  0  0  0  0  0  0
   13.4217  -12.7174  -11.3950 C   0  0  1  0  0  0  0  0  0  0  0  0
   12.5679  -13.6520  -11.8972 O   0  0  0  0  0  0  0  0  0  0  0  0
   14.5212  -12.2925  -12.3075 C   0  0  2  0  0  0  0  0  0  0  0  0
   15.2387  -13.4123  -12.8837 N   0  0  0  0  0  0  0  0  0  0  0  0
   15.4624  -11.3096  -11.8173 C   0  0  0  0  0  0  0  0  0  0  0  0
   16.6628  -11.6611  -11.6833 O   0  0  0  0  0  0  0  0  0  0  0  0
   15.1668   -9.9636  -11.4637 N   0  0  0  0  0  0  0  0  0  0  0  0
   16.2045   -9.0105  -11.2373 C   0  0  1  0  0  0  0  0  0  0  0  0
   17.1593   -8.7922  -12.3507 C   0  0  0  0  0  0  0  0  0  0  0  0
   18.2389   -7.7844  -12.1032 C   0  0  0  0  0  0  0  0  0  0  0  0
   19.1048   -7.7892  -13.3106 C   0  0  0  0  0  0  0  0  0  0  0  0
   20.1290   -8.5198  -13.3990 O   0  0  0  0  0  0  0  0  0  0  0  0
   15.6549   -7.6694  -10.8452 C   0  0  0  0  0  0  0  0  0  0  0  0
   15.0306   -7.0086  -11.7099 O   0  0  0  0  0  0  0  0  0  0  0  0
   18.7548   -6.9548  -14.3622 O   0  0  0  0  0  0  0  0  0  0  0  0
   13.5656   -7.0115   -7.6416 C   0  0  0  0  0  0  0  0  0  0  0  0
   14.7099   -6.0263   -7.7456 C   0  0  1  0  0  0  0  0  0  0  0  0
   15.7590   -6.5044   -6.9631 O   0  0  0  0  0  0  0  0  0  0  0  0
   15.1909   -5.8928   -9.1516 C   0  0  2  0  0  0  0  0  0  0  0  0
   15.8143   -7.1330   -9.5589 N   0  0  0  0  0  0  0  0  0  0  0  0
   16.1301   -4.7529   -9.3252 C   0  0  0  0  0  0  0  0  0  0  0  0
   15.6781   -3.4605   -9.1621 O   0  0  0  0  0  0  0  0  0  0  0  0
   17.3305   -4.9599   -9.6190 O   0  0  0  0  0  0  0  0  0  0  0  0
  2  1  1  6
  2  3  1  0
  2  4  1  0
  4  5  1  1
  6  7  2  0
  6  4  1  0
  8  6  1  0
  9  8  1  0
  9 14  1  0
  9 10  1  6
 11 10  1  0
 12 11  1  0
 13 12  2  0
 14 21  1  0
 15 14  2  0
 16 12  1  0
 18 17  1  6
 18 20  1  0
 18 19  1  0
 20 22  1  0
 20 21  1  1
 22 24  2  0
 22 23  1  0
M  END
$$$$
