TET.pdb
     RDKit          3D

 24 23  0  0  1  0  0  0  0  0999 V2000
   17.4897  -12.6454  -17.1140 C   0  0  0  0  0  0  0  0  0  0  0  0
   16.2377  -12.0159  -16.5417 C   0  0  1  0  0  0  0  0  0  0  0  0
   15.3330  -12.9770  -16.2068 O   0  0  0  0  0  0  0  0  0  0  0  0
   16.6429  -11.0995  -15.4380 C   0  0  2  0  0  0  0  0  0  0  0  0
   15.5163  -10.6205  -14.6621 N   0  0  0  0  0  0  0  0  0  0  0  0
   17.5156   -9.9935  -15.7660 C   0  0  0  0  0  0  0  0  0  0  0  0
   18.6422  -10.2600  -16.2582 O   0  0  0  0  0  0  0  0  0  0  0  0
   17.2282   -8.6118  -15.5858 N   0  0  0  0  0  0  0  0  0  0  0  0
   18.1491   -7.6022  -15.9969 C   0  0  1  0  0  0  0  0  0  0  0  0
   17.5704   -6.2896  -16.3728 C   0  0  0  0  0  0  0  0  0  0  0  0
   18.5389   -5.2628  -16.8727 C   0  0  0  0  0  0  0  0  0  0  0  0
   17.7426   -4.0464  -17.1795 C   0  0  0  0  0  0  0  0  0  0  0  0
   17.4156   -3.2160  -16.2884 O   0  0  0  0  0  0  0  0  0  0  0  0
   19.2018   -7.3496  -14.9565 C   0  0  0  0  0  0  0  0  0  0  0  0
   18.8384   -7.2346  -13.7612 O   0  0  0  0  0  0  0  0  0  0  0  0
   17.3582   -3.8388  -18.4962 O   0  0  0  0  0  0  0  0  0  0  0  0
   22.6523   -9.3383  -13.7044 C   0  0  0  0  0  0  0  0  0  0  0  0
   22.6870   -8.1145  -14.5944 C   0  0  1  0  0  0  0  0  0  0  0  0
   22.5127   -8.5373  -15.9106 O   0  0  0  0  0  0  0  0  0  0  0  0
   21.5917   -7.1600  -14.2551 C   0  0  2  0  0  0  0  0  0  0  0  0
   20.5643   -7.2371  -15.2704 N   0  0  0  0  0  0  0  0  0  0  0  0
   22.0802   -5.7629  -14.1094 C   0  0  0  0  0  0  0  0  0  0  0  0
   22.8595   -5.4180  -13.0254 O   0  0  0  0  0  0  0  0  0  0  0  0
   21.7876   -4.8967  -14.9663 O   0  0  0  0  0  0  0  0  0  0  0  0
  2  1  1  1
  2  3  1  0
  2  4  1  0
  4  5  1  6
  6  7  2  0
  6  4  1  0
  8  6  1  0
  9  8  1  0
  9 14  1  0
  9 10  1  1
 11 10  1  0
 12 11  1  0
 13 12  2  0
 14 21  1  0
 15 14  2  0
 16 12  1  0
 18 17  1  1
 18 20  1  0
 18 19  1  0
 20 22  1  0
 20 21  1  6
 22 24  2  0
 22 23  1  0
M  END
$$$$
