TET.pdb
     RDKit          3D

 24 23  0  0  1  0  0  0  0  0999 V2000
   23.9753  -12.1097  -15.7384 C   0  0  0  0  0  0  0  0  0  0  0  0
   23.1337  -13.2003  -16.3659 C   0  0  1  0  0  0  0  0  0  0  0  0
   23.5703  -14.4267  -15.9663 O   0  0  0  0  0  0  0  0  0  0  0  0
   21.7013  -12.9018  -16.0810 C   0  0  2  0  0  0  0  0  0  0  0  0
   20.8044  -13.9312  -16.5673 N   0  0  0  0  0  0  0  0  0  0  0  0
   21.1969  -11.5984  -16.4542 C   0  0  0  0  0  0  0  0  0  0  0  0
   20.5881  -11.4958  -17.5503 O   0  0  0  0  0  0  0  0  0  0  0  0
   21.3206  -10.3994  -15.6985 N   0  0  0  0  0  0  0  0  0  0  0  0
   20.6741   -9.1945  -16.1067 C   0  0  1  0  0  0  0  0  0  0  0  0
   19.1930   -9.2255  -16.1718 C   0  0  0  0  0  0  0  0  0  0  0  0
   18.4933   -9.7790  -14.9691 C   0  0  0  0  0  0  0  0  0  0  0  0
   17.0373   -9.6992  -15.2546 C   0  0  0  0  0  0  0  0  0  0  0  0
   16.4280  -10.6014  -15.8915 O   0  0  0  0  0  0  0  0  0  0  0  0
   21.0632   -8.0312  -15.2408 C   0  0  0  0  0  0  0  0  0  0  0  0
   21.2223   -8.2332  -14.0128 O   0  0  0  0  0  0  0  0  0  0  0  0
   16.3470   -8.5870  -14.7954 O   0  0  0  0  0  0  0  0  0  0  0  0
   23.9979   -5.7805  -16.0348 C   0  0  0  0  0  0  0  0  0  0  0  0
   22.7980   -4.9100  -15.7288 C   0  0  1  0  0  0  0  0  0  0  0  0
   22.2332   -4.5181  -16.9409 O   0  0  0  0  0  0  0  0  0  0  0  0
   21.7684   -5.6531  -14.9454 C   0  0  2  0  0  0  0  0  0  0  0  0
   21.2520   -6.7381  -15.7508 N   0  0  0  0  0  0  0  0  0  0  0  0
   20.6629   -4.7733  -14.4813 C   0  0  0  0  0  0  0  0  0  0  0  0
   20.9210   -3.7683  -13.5732 O   0  0  0  0  0  0  0  0  0  0  0  0
   19.4976   -4.9399  -14.9107 O   0  0  0  0  0  0  0  0  0  0  0  0
  2  1  1  1
  2  3  1  0
  2  4  1  0
  4  5  1  6
  6  7  2  0
  6  4  1  0
  8  6  1  0
  9  8  1  0
  9 14  1  0
  9 10  1  1
 11 10  1  0
 12 11  1  0
 13 12  2  0
 14 21  1  0
 15 14  2  0
 16 12  1  0
 18 17  1  6
 18 20  1  0
 18 19  1  0
 20 22  1  0
 20 21  1  6
 22 24  2  0
 22 23  1  0
M  END
$$$$
