TET.pdb
     RDKit          3D

 24 23  0  0  1  0  0  0  0  0999 V2000
   17.1432   -9.9974  -18.1225 C   0  0  0  0  0  0  0  0  0  0  0  0
   17.2105  -11.0819  -17.0687 C   0  0  1  0  0  0  0  0  0  0  0  0
   17.1295  -12.3122  -17.6469 O   0  0  0  0  0  0  0  0  0  0  0  0
   18.4210  -10.8411  -16.2327 C   0  0  2  0  0  0  0  0  0  0  0  0
   18.6817  -11.9167  -15.2969 N   0  0  0  0  0  0  0  0  0  0  0  0
   18.5306   -9.5675  -15.5557 C   0  0  0  0  0  0  0  0  0  0  0  0
   18.0996   -9.4899  -14.3764 O   0  0  0  0  0  0  0  0  0  0  0  0
   19.0835   -8.3723  -16.0942 N   0  0  0  0  0  0  0  0  0  0  0  0
   19.1311   -7.1670  -15.3316 C   0  0  1  0  0  0  0  0  0  0  0  0
   20.4788   -6.6439  -15.0012 C   0  0  0  0  0  0  0  0  0  0  0  0
   21.0067   -6.9964  -13.6449 C   0  0  0  0  0  0  0  0  0  0  0  0
   22.3001   -6.2802  -13.4969 C   0  0  0  0  0  0  0  0  0  0  0  0
   22.3676   -5.1015  -13.0533 O   0  0  0  0  0  0  0  0  0  0  0  0
   18.3663   -6.0572  -15.9932 C   0  0  0  0  0  0  0  0  0  0  0  0
   18.7040   -5.7129  -17.1515 O   0  0  0  0  0  0  0  0  0  0  0  0
   23.4576   -6.9506  -13.8647 O   0  0  0  0  0  0  0  0  0  0  0  0
   14.5457   -5.9610  -16.2934 C   0  0  0  0  0  0  0  0  0  0  0  0
   15.0475   -4.6570  -15.7112 C   0  0  1  0  0  0  0  0  0  0  0  0
   14.9313   -4.7344  -14.3248 O   0  0  0  0  0  0  0  0  0  0  0  0
   16.4803   -4.4205  -16.0535 C   0  0  2  0  0  0  0  0  0  0  0  0
   17.2987   -5.3964  -15.3677 N   0  0  0  0  0  0  0  0  0  0  0  0
   16.9233   -3.0400  -15.7223 C   0  0  0  0  0  0  0  0  0  0  0  0
   16.3415   -1.9622  -16.3555 O   0  0  0  0  0  0  0  0  0  0  0  0
   17.8228   -2.8503  -14.8708 O   0  0  0  0  0  0  0  0  0  0  0  0
  2  1  1  6
  2  3  1  0
  2  4  1  0
  4  5  1  1
  6  7  2  0
  6  4  1  0
  8  6  1  0
  9  8  1  0
  9 14  1  0
  9 10  1  6
 11 10  1  0
 12 11  1  0
 13 12  2  0
 14 21  1  0
 15 14  2  0
 16 12  1  0
 18 17  1  6
 18 20  1  0
 18 19  1  0
 20 22  1  0
 20 21  1  1
 22 24  2  0
 22 23  1  0
M  END
$$$$
