NKR.pdb
     RDKit          3D

 29 28  0  0  1  0  0  0  0  0999 V2000
   24.1705  -20.3912   -8.5144 N   0  0  0  0  0  0  0  0  0  0  0  0
   22.7821  -20.7094   -8.3554 C   0  0  0  0  0  0  0  0  0  0  0  0
   22.3521  -20.9447   -7.1926 O   0  0  0  0  0  0  0  0  0  0  0  0
   21.8886  -20.7584   -9.5230 C   0  0  0  0  0  0  0  0  0  0  0  0
   22.6838  -20.4702  -10.7621 C   0  0  2  0  0  0  0  0  0  0  0  0
   23.3099  -19.1687  -10.7238 N   0  0  0  0  0  0  0  0  0  0  0  0
   21.9151  -20.5855  -12.0127 C   0  0  0  0  0  0  0  0  0  0  0  0
   22.1131  -21.5544  -12.8196 O   0  0  0  0  0  0  0  0  0  0  0  0
   20.9233  -19.6577  -12.4101 N   0  0  0  0  0  0  0  0  0  0  0  0
   20.1619  -19.7984  -13.6585 C   0  0  1  0  0  0  0  0  0  0  0  0
   18.8466  -19.0975  -13.5339 C   0  0  0  0  0  0  0  0  0  0  0  0
   17.7541  -19.8439  -12.8371 C   0  0  0  0  0  0  0  0  0  0  0  0
   17.6269  -21.1794  -13.5919 C   0  0  0  0  0  0  0  0  0  0  0  0
   16.5200  -22.0141  -13.0192 C   0  0  0  0  0  0  0  0  0  0  0  0
   16.5238  -23.3146  -13.6486 N   0  0  0  0  0  0  0  0  0  0  0  0
   21.0000  -19.1741  -14.7058 C   0  0  0  0  0  0  0  0  0  0  0  0
   21.4664  -17.9897  -14.5415 O   0  0  0  0  0  0  0  0  0  0  0  0
   28.2663  -18.6981  -18.0407 N   0  0  0  0  0  0  0  0  0  0  0  0
   27.8131  -17.4638  -17.5111 C   0  0  0  0  0  0  0  0  0  0  0  0
   28.4501  -16.3833  -17.7793 N   0  0  0  0  0  0  0  0  0  0  0  0
   26.6648  -17.4360  -16.6936 N   0  0  0  0  0  0  0  0  0  0  0  0
   25.9509  -18.6564  -16.4366 C   0  0  0  0  0  0  0  0  0  0  0  0
   24.6257  -18.5379  -17.2131 C   0  0  0  0  0  0  0  0  0  0  0  0
   23.5764  -19.0884  -16.3152 C   0  0  0  0  0  0  0  0  0  0  0  0
   22.1671  -19.0560  -16.8944 C   0  0  2  0  0  0  0  0  0  0  0  0
   21.3612  -19.7895  -15.9325 N   0  0  0  0  0  0  0  0  0  0  0  0
   22.1860  -19.6875  -18.2243 C   0  0  0  0  0  0  0  0  0  0  0  0
   22.0644  -20.8980  -18.4465 O   0  0  0  0  0  0  0  0  0  0  0  0
   22.3574  -18.8272  -19.3285 O   0  0  0  0  0  0  0  0  0  0  0  0
  1  2  1  0
  2  3  2  0
  4  5  1  0
  4  2  1  0
  5  6  1  1
  7  5  1  0
  7  8  2  0
  9  7  1  0
 10  9  1  0
 11 12  1  0
 10 11  1  1
 12 13  1  0
 13 14  1  0
 14 15  1  0
 16 17  2  0
 16 10  1  0
 18 19  1  0
 19 20  2  0
 21 19  1  0
 21 22  1  0
 22 23  1  0
 23 24  1  0
 25 24  1  1
 25 27  1  0
 25 26  1  0
 26 16  1  0
 27 29  1  0
 28 27  2  0
M  END
$$$$
