NKR.pdb
     RDKit          3D

 29 28  0  0  1  0  0  0  0  0999 V2000
   18.0867  -29.9466   -1.4617 N   0  0  0  0  0  0  0  0  0  0  0  0
   18.7875  -28.8065   -0.9484 C   0  0  0  0  0  0  0  0  0  0  0  0
   19.4527  -28.9429    0.1153 O   0  0  0  0  0  0  0  0  0  0  0  0
   18.7274  -27.5148   -1.6497 C   0  0  0  0  0  0  0  0  0  0  0  0
   17.8479  -27.6524   -2.8573 C   0  0  2  0  0  0  0  0  0  0  0  0
   18.3595  -28.6170   -3.8035 N   0  0  0  0  0  0  0  0  0  0  0  0
   17.5946  -26.3869   -3.5665 C   0  0  0  0  0  0  0  0  0  0  0  0
   17.1618  -25.3597   -2.9447 O   0  0  0  0  0  0  0  0  0  0  0  0
   17.8041  -26.2123   -4.9550 N   0  0  0  0  0  0  0  0  0  0  0  0
   17.6348  -24.9159   -5.6246 C   0  0  1  0  0  0  0  0  0  0  0  0
   18.2227  -24.9724   -6.9986 C   0  0  0  0  0  0  0  0  0  0  0  0
   17.9787  -23.7891   -7.8799 C   0  0  0  0  0  0  0  0  0  0  0  0
   18.6371  -24.1407   -9.2262 C   0  0  0  0  0  0  0  0  0  0  0  0
   18.4582  -23.0277  -10.2157 C   0  0  0  0  0  0  0  0  0  0  0  0
   19.1243  -23.3712  -11.4510 N   0  0  0  0  0  0  0  0  0  0  0  0
   16.1742  -24.6868   -5.6802 C   0  0  0  0  0  0  0  0  0  0  0  0
   15.3756  -25.6583   -5.9366 O   0  0  0  0  0  0  0  0  0  0  0  0
   11.1083  -18.4099   -2.3092 N   0  0  0  0  0  0  0  0  0  0  0  0
   10.2014  -19.3845   -2.7962 C   0  0  0  0  0  0  0  0  0  0  0  0
    8.9576  -19.3048   -2.4933 N   0  0  0  0  0  0  0  0  0  0  0  0
   10.6762  -20.4332   -3.6100 N   0  0  0  0  0  0  0  0  0  0  0  0
   12.0818  -20.7313   -3.6294 C   0  0  0  0  0  0  0  0  0  0  0  0
   12.2496  -21.8944   -4.6257 C   0  0  0  0  0  0  0  0  0  0  0  0
   13.7037  -22.2030   -4.6508 C   0  0  0  0  0  0  0  0  0  0  0  0
   14.0946  -23.3325   -5.5966 C   0  0  2  0  0  0  0  0  0  0  0  0
   15.5380  -23.4373   -5.4615 N   0  0  0  0  0  0  0  0  0  0  0  0
   13.6722  -22.9762   -6.9612 C   0  0  0  0  0  0  0  0  0  0  0  0
   14.3727  -22.4014   -7.8029 O   0  0  0  0  0  0  0  0  0  0  0  0
   12.3557  -23.3265   -7.3256 O   0  0  0  0  0  0  0  0  0  0  0  0
  1  2  1  0
  2  3  2  0
  4  5  1  0
  4  2  1  0
  5  6  1  6
  7  5  1  0
  7  8  2  0
  9  7  1  0
 10  9  1  0
 11 12  1  0
 10 11  1  6
 12 13  1  0
 13 14  1  0
 14 15  1  0
 16 17  2  0
 16 10  1  0
 18 19  1  0
 19 20  2  0
 21 19  1  0
 21 22  1  0
 22 23  1  0
 23 24  1  0
 25 24  1  1
 25 27  1  0
 25 26  1  0
 26 16  1  0
 27 29  1  0
 28 27  2  0
M  END
$$$$
