NKR.pdb
     RDKit          3D

 29 28  0  0  1  0  0  0  0  0999 V2000
   26.9799  -22.6018  -15.8730 N   0  0  0  0  0  0  0  0  0  0  0  0
   27.2582  -21.4308  -15.0947 C   0  0  0  0  0  0  0  0  0  0  0  0
   28.4476  -21.0116  -15.0499 O   0  0  0  0  0  0  0  0  0  0  0  0
   26.1793  -20.7418  -14.3701 C   0  0  0  0  0  0  0  0  0  0  0  0
   24.9169  -21.5435  -14.4907 C   0  0  2  0  0  0  0  0  0  0  0  0
   24.5825  -21.8398  -15.8647 N   0  0  0  0  0  0  0  0  0  0  0  0
   23.7463  -20.9267  -13.8445 C   0  0  0  0  0  0  0  0  0  0  0  0
   23.7812  -20.5754  -12.6179 O   0  0  0  0  0  0  0  0  0  0  0  0
   22.5230  -20.6807  -14.5118 N   0  0  0  0  0  0  0  0  0  0  0  0
   21.3378  -20.1522  -13.8236 C   0  0  1  0  0  0  0  0  0  0  0  0
   20.8180  -18.9543  -14.5527 C   0  0  0  0  0  0  0  0  0  0  0  0
   19.4829  -18.4362  -14.1221 C   0  0  0  0  0  0  0  0  0  0  0  0
   19.7817  -17.4088  -13.0156 C   0  0  0  0  0  0  0  0  0  0  0  0
   18.5108  -16.8668  -12.4317 C   0  0  0  0  0  0  0  0  0  0  0  0
   17.8875  -15.9747  -13.3820 N   0  0  0  0  0  0  0  0  0  0  0  0
   20.3491  -21.2528  -13.8361 C   0  0  0  0  0  0  0  0  0  0  0  0
   20.1008  -21.8880  -14.9233 O   0  0  0  0  0  0  0  0  0  0  0  0
   18.9393  -24.7468   -7.7745 N   0  0  0  0  0  0  0  0  0  0  0  0
   17.6432  -24.1730   -7.7873 C   0  0  0  0  0  0  0  0  0  0  0  0
   17.1406  -23.7105   -6.7016 N   0  0  0  0  0  0  0  0  0  0  0  0
   16.9183  -24.1160   -8.9951 N   0  0  0  0  0  0  0  0  0  0  0  0
   17.3604  -24.8911  -10.1216 C   0  0  0  0  0  0  0  0  0  0  0  0
   17.0428  -24.0402  -11.3660 C   0  0  0  0  0  0  0  0  0  0  0  0
   18.1264  -23.0262  -11.4537 C   0  0  0  0  0  0  0  0  0  0  0  0
   18.5888  -22.7153  -12.8724 C   0  0  2  0  0  0  0  0  0  0  0  0
   19.6162  -21.7006  -12.7063 N   0  0  0  0  0  0  0  0  0  0  0  0
   17.4355  -22.2390  -13.6537 C   0  0  0  0  0  0  0  0  0  0  0  0
   17.0338  -21.0703  -13.7019 O   0  0  0  0  0  0  0  0  0  0  0  0
   16.7400  -23.2080  -14.4061 O   0  0  0  0  0  0  0  0  0  0  0  0
  1  2  1  0
  2  3  2  0
  4  5  1  0
  4  2  1  0
  5  6  1  6
  7  5  1  0
  7  8  2  0
  9  7  1  0
 10  9  1  0
 11 12  1  0
 10 11  1  6
 12 13  1  0
 13 14  1  0
 14 15  1  0
 16 17  2  0
 16 10  1  0
 18 19  1  0
 19 20  2  0
 21 19  1  0
 21 22  1  0
 22 23  1  0
 23 24  1  0
 25 24  1  1
 25 27  1  0
 25 26  1  0
 26 16  1  0
 27 29  1  0
 28 27  2  0
M  END
$$$$
