NKR.pdb
     RDKit          3D

 29 28  0  0  1  0  0  0  0  0999 V2000
   22.7604  -13.3385  -17.5608 N   0  0  0  0  0  0  0  0  0  0  0  0
   21.4555  -13.7270  -17.1129 C   0  0  0  0  0  0  0  0  0  0  0  0
   20.6234  -12.8192  -16.8370 O   0  0  0  0  0  0  0  0  0  0  0  0
   21.1037  -15.1492  -16.9811 C   0  0  0  0  0  0  0  0  0  0  0  0
   22.2776  -15.9858  -17.3971 C   0  0  2  0  0  0  0  0  0  0  0  0
   22.5042  -15.9454  -18.8234 N   0  0  0  0  0  0  0  0  0  0  0  0
   22.1952  -17.3937  -16.9738 C   0  0  0  0  0  0  0  0  0  0  0  0
   21.4139  -18.2131  -17.5631 O   0  0  0  0  0  0  0  0  0  0  0  0
   22.9536  -17.9368  -15.9097 N   0  0  0  0  0  0  0  0  0  0  0  0
   22.8918  -19.3563  -15.5369 C   0  0  1  0  0  0  0  0  0  0  0  0
   24.1679  -19.7636  -14.8716 C   0  0  0  0  0  0  0  0  0  0  0  0
   24.2564  -21.1818  -14.4055 C   0  0  0  0  0  0  0  0  0  0  0  0
   24.9903  -21.9354  -15.5293 C   0  0  0  0  0  0  0  0  0  0  0  0
   25.0079  -23.4110  -15.2607 C   0  0  0  0  0  0  0  0  0  0  0  0
   25.7101  -24.0854  -16.3282 N   0  0  0  0  0  0  0  0  0  0  0  0
   21.7469  -19.4720  -14.6071 C   0  0  0  0  0  0  0  0  0  0  0  0
   21.6639  -18.7028  -13.5830 O   0  0  0  0  0  0  0  0  0  0  0  0
   17.8962  -25.1981  -11.0114 N   0  0  0  0  0  0  0  0  0  0  0  0
   16.6055  -24.7534  -11.3933 C   0  0  0  0  0  0  0  0  0  0  0  0
   15.5980  -24.9993  -10.6386 N   0  0  0  0  0  0  0  0  0  0  0  0
   16.4420  -24.0440  -12.6006 N   0  0  0  0  0  0  0  0  0  0  0  0
   17.5919  -23.7594  -13.4141 C   0  0  0  0  0  0  0  0  0  0  0  0
   18.1413  -22.4128  -12.9061 C   0  0  0  0  0  0  0  0  0  0  0  0
   19.1261  -21.9638  -13.9253 C   0  0  0  0  0  0  0  0  0  0  0  0
   19.7679  -20.6126  -13.6330 C   0  0  2  0  0  0  0  0  0  0  0  0
   20.6755  -20.3921  -14.7468 N   0  0  0  0  0  0  0  0  0  0  0  0
   20.4613  -20.6872  -12.3364 C   0  0  0  0  0  0  0  0  0  0  0  0
   21.5480  -21.2417  -12.1337 O   0  0  0  0  0  0  0  0  0  0  0  0
   19.8207  -20.0696  -11.2423 O   0  0  0  0  0  0  0  0  0  0  0  0
  1  2  1  0
  2  3  2  0
  4  5  1  0
  4  2  1  0
  5  6  1  6
  7  5  1  0
  7  8  2  0
  9  7  1  0
 10  9  1  0
 11 12  1  0
 10 11  1  1
 12 13  1  0
 13 14  1  0
 14 15  1  0
 16 17  2  0
 16 10  1  0
 18 19  1  0
 19 20  2  0
 21 19  1  0
 21 22  1  0
 22 23  1  0
 23 24  1  0
 25 24  1  6
 25 27  1  0
 25 26  1  0
 26 16  1  0
 27 29  1  0
 28 27  2  0
M  END
$$$$
