NKR.pdb
     RDKit          3D

 29 28  0  0  1  0  0  0  0  0999 V2000
   31.4987  -24.8715  -15.1309 N   0  0  0  0  0  0  0  0  0  0  0  0
   31.0901  -24.2596  -16.3610 C   0  0  0  0  0  0  0  0  0  0  0  0
   31.3169  -24.8752  -17.4390 O   0  0  0  0  0  0  0  0  0  0  0  0
   30.4244  -22.9479  -16.3577 C   0  0  0  0  0  0  0  0  0  0  0  0
   28.9642  -23.1378  -16.6452 C   0  0  2  0  0  0  0  0  0  0  0  0
   28.7284  -23.6677  -17.9685 N   0  0  0  0  0  0  0  0  0  0  0  0
   28.1525  -21.9210  -16.4745 C   0  0  0  0  0  0  0  0  0  0  0  0
   28.2492  -21.2084  -15.4200 O   0  0  0  0  0  0  0  0  0  0  0  0
   27.2259  -21.4568  -17.4380 N   0  0  0  0  0  0  0  0  0  0  0  0
   26.4088  -20.2531  -17.2353 C   0  0  1  0  0  0  0  0  0  0  0  0
   26.1504  -19.5864  -18.5489 C   0  0  0  0  0  0  0  0  0  0  0  0
   27.1973  -18.6350  -19.0337 C   0  0  0  0  0  0  0  0  0  0  0  0
   27.1901  -17.4721  -18.0251 C   0  0  0  0  0  0  0  0  0  0  0  0
   28.1252  -16.3824  -18.4588 C   0  0  0  0  0  0  0  0  0  0  0  0
   28.1412  -15.3376  -17.4609 N   0  0  0  0  0  0  0  0  0  0  0  0
   25.1485  -20.7285  -16.6232 C   0  0  0  0  0  0  0  0  0  0  0  0
   24.4793  -21.6763  -17.1719 O   0  0  0  0  0  0  0  0  0  0  0  0
   23.4404  -21.0260   -8.5892 N   0  0  0  0  0  0  0  0  0  0  0  0
   24.3164  -21.2025   -9.6896 C   0  0  0  0  0  0  0  0  0  0  0  0
   25.5565  -21.4561   -9.4822 N   0  0  0  0  0  0  0  0  0  0  0  0
   23.8151  -21.0976  -11.0031 N   0  0  0  0  0  0  0  0  0  0  0  0
   22.4434  -20.7212  -11.2077 C   0  0  0  0  0  0  0  0  0  0  0  0
   22.1573  -20.9763  -12.6998 C   0  0  0  0  0  0  0  0  0  0  0  0
   23.3761  -20.5376  -13.4294 C   0  0  0  0  0  0  0  0  0  0  0  0
   23.3268  -20.7619  -14.9361 C   0  0  2  0  0  0  0  0  0  0  0  0
   24.5821  -20.2175  -15.4265 N   0  0  0  0  0  0  0  0  0  0  0  0
   22.1497  -20.0656  -15.4813 C   0  0  0  0  0  0  0  0  0  0  0  0
   21.0765  -20.5995  -15.7859 O   0  0  0  0  0  0  0  0  0  0  0  0
   22.2703  -18.6728  -15.6659 O   0  0  0  0  0  0  0  0  0  0  0  0
  1  2  1  0
  2  3  2  0
  4  5  1  0
  4  2  1  0
  5  6  1  6
  7  5  1  0
  7  8  2  0
  9  7  1  0
 10  9  1  0
 11 12  1  0
 10 11  1  6
 12 13  1  0
 13 14  1  0
 14 15  1  0
 16 17  2  0
 16 10  1  0
 18 19  1  0
 19 20  2  0
 21 19  1  0
 21 22  1  0
 22 23  1  0
 23 24  1  0
 25 24  1  1
 25 27  1  0
 25 26  1  0
 26 16  1  0
 27 29  1  0
 28 27  2  0
M  END
$$$$
