NKR.pdb
     RDKit          3D

 29 28  0  0  1  0  0  0  0  0999 V2000
   30.2846  -22.3130  -18.0513 N   0  0  0  0  0  0  0  0  0  0  0  0
   29.0282  -21.6727  -17.7950 C   0  0  0  0  0  0  0  0  0  0  0  0
   28.7144  -20.6705  -18.4948 O   0  0  0  0  0  0  0  0  0  0  0  0
   28.1339  -22.1771  -16.7416 C   0  0  0  0  0  0  0  0  0  0  0  0
   27.4975  -21.0140  -16.0395 C   0  0  2  0  0  0  0  0  0  0  0  0
   28.4692  -20.0439  -15.5901 N   0  0  0  0  0  0  0  0  0  0  0  0
   26.6465  -21.3905  -14.8982 C   0  0  0  0  0  0  0  0  0  0  0  0
   25.6940  -22.2289  -15.0363 O   0  0  0  0  0  0  0  0  0  0  0  0
   26.8106  -20.8679  -13.5935 N   0  0  0  0  0  0  0  0  0  0  0  0
   25.9688  -21.2813  -12.4630 C   0  0  1  0  0  0  0  0  0  0  0  0
   26.5211  -20.7278  -11.1882 C   0  0  0  0  0  0  0  0  0  0  0  0
   25.7346  -20.9978   -9.9453 C   0  0  0  0  0  0  0  0  0  0  0  0
   26.5160  -20.3106   -8.8109 C   0  0  0  0  0  0  0  0  0  0  0  0
   25.9286  -20.6523   -7.4737 C   0  0  0  0  0  0  0  0  0  0  0  0
   26.7233  -20.0457   -6.4306 N   0  0  0  0  0  0  0  0  0  0  0  0
   24.6263  -20.7274  -12.7457 C   0  0  0  0  0  0  0  0  0  0  0  0
   24.5015  -19.5387  -13.2133 O   0  0  0  0  0  0  0  0  0  0  0  0
   18.6564  -23.2020  -16.7306 N   0  0  0  0  0  0  0  0  0  0  0  0
   18.3733  -21.8594  -17.0867 C   0  0  0  0  0  0  0  0  0  0  0  0
   17.2062  -21.5473  -17.5175 N   0  0  0  0  0  0  0  0  0  0  0  0
   19.3789  -20.8791  -16.9635 N   0  0  0  0  0  0  0  0  0  0  0  0
   20.6582  -21.2437  -16.4199 C   0  0  0  0  0  0  0  0  0  0  0  0
   20.6428  -20.7654  -14.9556 C   0  0  0  0  0  0  0  0  0  0  0  0
   21.9657  -21.1405  -14.3904 C   0  0  0  0  0  0  0  0  0  0  0  0
   22.1499  -20.7836  -12.9202 C   0  0  2  0  0  0  0  0  0  0  0  0
   23.4029  -21.4181  -12.5457 N   0  0  0  0  0  0  0  0  0  0  0  0
   20.9989  -21.2972  -12.1593 C   0  0  0  0  0  0  0  0  0  0  0  0
   20.9434  -22.3965  -11.5954 O   0  0  0  0  0  0  0  0  0  0  0  0
   19.8719  -20.4537  -12.0745 O   0  0  0  0  0  0  0  0  0  0  0  0
  1  2  1  0
  2  3  2  0
  4  5  1  0
  4  2  1  0
  5  6  1  1
  7  5  1  0
  7  8  2  0
  9  7  1  0
 10  9  1  0
 11 12  1  0
 10 11  1  1
 12 13  1  0
 13 14  1  0
 14 15  1  0
 16 17  2  0
 16 10  1  0
 18 19  1  0
 19 20  2  0
 21 19  1  0
 21 22  1  0
 22 23  1  0
 23 24  1  0
 25 24  1  6
 25 27  1  0
 25 26  1  0
 26 16  1  0
 27 29  1  0
 28 27  2  0
M  END
$$$$
