NKR.pdb
     RDKit          3D

 29 28  0  0  1  0  0  0  0  0999 V2000
   28.5445  -20.0440  -18.4349 N   0  0  0  0  0  0  0  0  0  0  0  0
   27.9898  -18.8569  -17.8541 C   0  0  0  0  0  0  0  0  0  0  0  0
   27.8775  -17.8318  -18.5815 O   0  0  0  0  0  0  0  0  0  0  0  0
   27.5650  -18.8426  -16.4458 C   0  0  0  0  0  0  0  0  0  0  0  0
   27.9414  -20.1466  -15.8064 C   0  0  2  0  0  0  0  0  0  0  0  0
   28.3164  -21.1479  -16.7781 N   0  0  0  0  0  0  0  0  0  0  0  0
   26.9023  -20.7098  -14.9280 C   0  0  0  0  0  0  0  0  0  0  0  0
   25.9841  -21.4636  -15.3947 O   0  0  0  0  0  0  0  0  0  0  0  0
   26.8393  -20.4676  -13.5352 N   0  0  0  0  0  0  0  0  0  0  0  0
   25.8011  -21.0522  -12.6759 C   0  0  1  0  0  0  0  0  0  0  0  0
   26.1024  -20.7566  -11.2412 C   0  0  0  0  0  0  0  0  0  0  0  0
   25.1037  -21.2339  -10.2357 C   0  0  0  0  0  0  0  0  0  0  0  0
   25.6853  -20.8421   -8.8654 C   0  0  0  0  0  0  0  0  0  0  0  0
   24.7451  -21.2169   -7.7585 C   0  0  0  0  0  0  0  0  0  0  0  0
   25.3370  -20.8697   -6.4870 N   0  0  0  0  0  0  0  0  0  0  0  0
   24.5341  -20.4139  -13.0957 C   0  0  0  0  0  0  0  0  0  0  0  0
   24.4626  -19.1388  -13.2236 O   0  0  0  0  0  0  0  0  0  0  0  0
   21.2757  -16.4858  -18.2156 N   0  0  0  0  0  0  0  0  0  0  0  0
   20.0093  -17.0296  -17.8841 C   0  0  0  0  0  0  0  0  0  0  0  0
   18.9411  -16.4629  -18.3118 N   0  0  0  0  0  0  0  0  0  0  0  0
   19.9364  -18.1898  -17.0866 N   0  0  0  0  0  0  0  0  0  0  0  0
   21.1381  -18.7281  -16.5110 C   0  0  0  0  0  0  0  0  0  0  0  0
   20.7212  -20.0425  -15.8241 C   0  0  0  0  0  0  0  0  0  0  0  0
   21.9658  -20.6112  -15.2429 C   0  0  0  0  0  0  0  0  0  0  0  0
   22.1392  -20.3598  -13.7497 C   0  0  2  0  0  0  0  0  0  0  0  0
   23.3322  -21.1085  -13.3905 N   0  0  0  0  0  0  0  0  0  0  0  0
   20.9349  -20.8310  -13.0461 C   0  0  0  0  0  0  0  0  0  0  0  0
   19.9212  -20.1572  -12.8269 O   0  0  0  0  0  0  0  0  0  0  0  0
   20.9526  -22.1652  -12.5896 O   0  0  0  0  0  0  0  0  0  0  0  0
  1  2  1  0
  2  3  2  0
  4  5  1  0
  4  2  1  0
  5  6  1  6
  7  5  1  0
  7  8  2  0
  9  7  1  0
 10  9  1  0
 11 12  1  0
 10 11  1  1
 12 13  1  0
 13 14  1  0
 14 15  1  0
 16 17  2  0
 16 10  1  0
 18 19  1  0
 19 20  2  0
 21 19  1  0
 21 22  1  0
 22 23  1  0
 23 24  1  0
 25 24  1  6
 25 27  1  0
 25 26  1  0
 26 16  1  0
 27 29  1  0
 28 27  2  0
M  END
$$$$
