NKR.pdb
     RDKit          3D

 29 28  0  0  1  0  0  0  0  0999 V2000
   16.5034  -24.6229  -10.2833 N   0  0  0  0  0  0  0  0  0  0  0  0
   17.1030  -23.7358   -9.3305 C   0  0  0  0  0  0  0  0  0  0  0  0
   16.6436  -23.7218   -8.1552 O   0  0  0  0  0  0  0  0  0  0  0  0
   18.2245  -22.8676   -9.7209 C   0  0  0  0  0  0  0  0  0  0  0  0
   18.5255  -23.0789  -11.1754 C   0  0  2  0  0  0  0  0  0  0  0  0
   19.0123  -24.4115  -11.4486 N   0  0  0  0  0  0  0  0  0  0  0  0
   19.4746  -22.1063  -11.7426 C   0  0  0  0  0  0  0  0  0  0  0  0
   19.3326  -20.8540  -11.5403 O   0  0  0  0  0  0  0  0  0  0  0  0
   20.5886  -22.4706  -12.5353 N   0  0  0  0  0  0  0  0  0  0  0  0
   21.5335  -21.4836  -13.0747 C   0  0  1  0  0  0  0  0  0  0  0  0
   22.7710  -22.1732  -13.5541 C   0  0  0  0  0  0  0  0  0  0  0  0
   23.8396  -21.3029  -14.1348 C   0  0  0  0  0  0  0  0  0  0  0  0
   24.9693  -22.2640  -14.5464 C   0  0  0  0  0  0  0  0  0  0  0  0
   26.1386  -21.5074  -15.1035 C   0  0  0  0  0  0  0  0  0  0  0  0
   27.2288  -22.4224  -15.3518 N   0  0  0  0  0  0  0  0  0  0  0  0
   20.8235  -20.8263  -14.1940 C   0  0  0  0  0  0  0  0  0  0  0  0
   20.2201  -21.5308  -15.0810 O   0  0  0  0  0  0  0  0  0  0  0  0
   20.9151  -15.0249  -18.9969 N   0  0  0  0  0  0  0  0  0  0  0  0
   19.7334  -14.3269  -18.6420 C   0  0  0  0  0  0  0  0  0  0  0  0
   19.1124  -13.6353  -19.5259 N   0  0  0  0  0  0  0  0  0  0  0  0
   19.2517  -14.4000  -17.3191 N   0  0  0  0  0  0  0  0  0  0  0  0
   19.9871  -15.1520  -16.3400 C   0  0  0  0  0  0  0  0  0  0  0  0
   19.6409  -16.6304  -16.6007 C   0  0  0  0  0  0  0  0  0  0  0  0
   20.3091  -17.4022  -15.5198 C   0  0  0  0  0  0  0  0  0  0  0  0
   20.0440  -18.9026  -15.5569 C   0  0  2  0  0  0  0  0  0  0  0  0
   20.7355  -19.4235  -14.3894 N   0  0  0  0  0  0  0  0  0  0  0  0
   20.5674  -19.4459  -16.8213 C   0  0  0  0  0  0  0  0  0  0  0  0
   21.7587  -19.6662  -17.0699 O   0  0  0  0  0  0  0  0  0  0  0  0
   19.6189  -19.7349  -17.8241 O   0  0  0  0  0  0  0  0  0  0  0  0
  1  2  1  0
  2  3  2  0
  4  5  1  0
  4  2  1  0
  5  6  1  1
  7  5  1  0
  7  8  2  0
  9  7  1  0
 10  9  1  0
 11 12  1  0
 10 11  1  6
 12 13  1  0
 13 14  1  0
 14 15  1  0
 16 17  2  0
 16 10  1  0
 18 19  1  0
 19 20  2  0
 21 19  1  0
 21 22  1  0
 22 23  1  0
 23 24  1  0
 25 24  1  6
 25 27  1  0
 25 26  1  0
 26 16  1  0
 27 29  1  0
 28 27  2  0
M  END
$$$$
