NKR.pdb
     RDKit          3D

 29 28  0  0  1  0  0  0  0  0999 V2000
   27.2261  -23.0451  -15.5126 N   0  0  0  0  0  0  0  0  0  0  0  0
   27.3176  -21.6274  -15.3230 C   0  0  0  0  0  0  0  0  0  0  0  0
   28.3715  -21.0414  -15.6952 O   0  0  0  0  0  0  0  0  0  0  0  0
   26.2072  -20.8826  -14.7096 C   0  0  0  0  0  0  0  0  0  0  0  0
   25.0923  -21.8356  -14.3938 C   0  0  2  0  0  0  0  0  0  0  0  0
   24.6897  -22.6119  -15.5439 N   0  0  0  0  0  0  0  0  0  0  0  0
   23.8979  -21.1966  -13.8164 C   0  0  0  0  0  0  0  0  0  0  0  0
   23.9075  -20.7397  -12.6246 O   0  0  0  0  0  0  0  0  0  0  0  0
   22.6776  -21.0419  -14.5158 N   0  0  0  0  0  0  0  0  0  0  0  0
   21.5000  -20.3962  -13.9207 C   0  0  1  0  0  0  0  0  0  0  0  0
   20.9013  -19.4325  -14.8952 C   0  0  0  0  0  0  0  0  0  0  0  0
   19.6516  -18.7339  -14.4634 C   0  0  0  0  0  0  0  0  0  0  0  0
   19.1658  -17.9632  -15.7041 C   0  0  0  0  0  0  0  0  0  0  0  0
   17.8846  -17.2384  -15.4156 C   0  0  0  0  0  0  0  0  0  0  0  0
   17.5230  -16.4290  -16.5565 N   0  0  0  0  0  0  0  0  0  0  0  0
   20.5586  -21.4955  -13.6135 C   0  0  0  0  0  0  0  0  0  0  0  0
   20.5017  -22.5301  -14.3709 O   0  0  0  0  0  0  0  0  0  0  0  0
   16.9008  -26.1807   -8.3063 N   0  0  0  0  0  0  0  0  0  0  0  0
   18.0941  -25.5518   -7.8704 C   0  0  0  0  0  0  0  0  0  0  0  0
   18.9692  -26.2274   -7.2201 N   0  0  0  0  0  0  0  0  0  0  0  0
   18.3075  -24.1880   -8.1567 N   0  0  0  0  0  0  0  0  0  0  0  0
   17.2995  -23.4488   -8.8656 C   0  0  0  0  0  0  0  0  0  0  0  0
   17.5578  -23.7159  -10.3607 C   0  0  0  0  0  0  0  0  0  0  0  0
   18.4997  -22.6559  -10.8073 C   0  0  0  0  0  0  0  0  0  0  0  0
   18.8145  -22.6765  -12.2984 C   0  0  2  0  0  0  0  0  0  0  0  0
   19.6725  -21.5216  -12.5053 N   0  0  0  0  0  0  0  0  0  0  0  0
   17.5520  -22.5932  -13.0512 C   0  0  0  0  0  0  0  0  0  0  0  0
   16.8999  -23.5574  -13.4691 O   0  0  0  0  0  0  0  0  0  0  0  0
   17.0562  -21.2986  -13.3098 O   0  0  0  0  0  0  0  0  0  0  0  0
  1  2  1  0
  2  3  2  0
  4  5  1  0
  4  2  1  0
  5  6  1  6
  7  5  1  0
  7  8  2  0
  9  7  1  0
 10  9  1  0
 11 12  1  0
 10 11  1  6
 12 13  1  0
 13 14  1  0
 14 15  1  0
 16 17  2  0
 16 10  1  0
 18 19  1  0
 19 20  2  0
 21 19  1  0
 21 22  1  0
 22 23  1  0
 23 24  1  0
 25 24  1  1
 25 27  1  0
 25 26  1  0
 26 16  1  0
 27 29  1  0
 28 27  2  0
M  END
$$$$
