NKR.pdb
     RDKit          3D

 29 28  0  0  1  0  0  0  0  0999 V2000
   28.4247  -22.3995  -15.7215 N   0  0  0  0  0  0  0  0  0  0  0  0
   27.8513  -21.2522  -16.3613 C   0  0  0  0  0  0  0  0  0  0  0  0
   28.2468  -20.9553  -17.5222 O   0  0  0  0  0  0  0  0  0  0  0  0
   26.8289  -20.4474  -15.6751 C   0  0  0  0  0  0  0  0  0  0  0  0
   25.4719  -20.8499  -16.1727 C   0  0  2  0  0  0  0  0  0  0  0  0
   25.3031  -20.5877  -17.5834 N   0  0  0  0  0  0  0  0  0  0  0  0
   24.3534  -20.2305  -15.4422 C   0  0  0  0  0  0  0  0  0  0  0  0
   24.3197  -20.2323  -14.1663 O   0  0  0  0  0  0  0  0  0  0  0  0
   23.2565  -19.6015  -16.0775 N   0  0  0  0  0  0  0  0  0  0  0  0
   22.1534  -18.9861  -15.3276 C   0  0  1  0  0  0  0  0  0  0  0  0
   21.5983  -17.8297  -16.0966 C   0  0  0  0  0  0  0  0  0  0  0  0
   20.3980  -17.1537  -15.5147 C   0  0  0  0  0  0  0  0  0  0  0  0
   20.0913  -15.9802  -16.4626 C   0  0  0  0  0  0  0  0  0  0  0  0
   18.8415  -15.2655  -16.0418 C   0  0  0  0  0  0  0  0  0  0  0  0
   18.6170  -14.1359  -16.9143 N   0  0  0  0  0  0  0  0  0  0  0  0
   21.1408  -20.0527  -15.1664 C   0  0  0  0  0  0  0  0  0  0  0  0
   20.9503  -20.9114  -16.1010 O   0  0  0  0  0  0  0  0  0  0  0  0
   18.5223  -24.0609   -7.9713 N   0  0  0  0  0  0  0  0  0  0  0  0
   17.8914  -24.8001   -9.0033 C   0  0  0  0  0  0  0  0  0  0  0  0
   17.2838  -25.8943   -8.7230 N   0  0  0  0  0  0  0  0  0  0  0  0
   17.9381  -24.3244  -10.3296 N   0  0  0  0  0  0  0  0  0  0  0  0
   18.6857  -23.1338  -10.6271 C   0  0  0  0  0  0  0  0  0  0  0  0
   18.5585  -22.9286  -12.1487 C   0  0  0  0  0  0  0  0  0  0  0  0
   19.4390  -21.7773  -12.4797 C   0  0  0  0  0  0  0  0  0  0  0  0
   19.4254  -21.3723  -13.9490 C   0  0  2  0  0  0  0  0  0  0  0  0
   20.3230  -20.2313  -14.0204 N   0  0  0  0  0  0  0  0  0  0  0  0
   18.0447  -21.0389  -14.3365 C   0  0  0  0  0  0  0  0  0  0  0  0
   17.5565  -19.9026  -14.3488 O   0  0  0  0  0  0  0  0  0  0  0  0
   17.2210  -22.1158  -14.7244 O   0  0  0  0  0  0  0  0  0  0  0  0
  1  2  1  0
  2  3  2  0
  4  5  1  0
  4  2  1  0
  5  6  1  6
  7  5  1  0
  7  8  2  0
  9  7  1  0
 10  9  1  0
 11 12  1  0
 10 11  1  6
 12 13  1  0
 13 14  1  0
 14 15  1  0
 16 17  2  0
 16 10  1  0
 18 19  1  0
 19 20  2  0
 21 19  1  0
 21 22  1  0
 22 23  1  0
 23 24  1  0
 25 24  1  1
 25 27  1  0
 25 26  1  0
 26 16  1  0
 27 29  1  0
 28 27  2  0
M  END
$$$$
