NKR.pdb
     RDKit          3D

 29 28  0  0  1  0  0  0  0  0999 V2000
   10.8302  -39.0297  -73.2083 N   0  0  0  0  0  0  0  0  0  0  0  0
    9.9849  -37.8966  -72.9713 C   0  0  0  0  0  0  0  0  0  0  0  0
    9.4816  -37.3077  -73.9675 O   0  0  0  0  0  0  0  0  0  0  0  0
    9.7165  -37.4390  -71.5993 C   0  0  0  0  0  0  0  0  0  0  0  0
   10.6807  -36.3441  -71.2496 C   0  0  2  0  0  0  0  0  0  0  0  0
   11.4275  -35.8814  -72.3967 N   0  0  0  0  0  0  0  0  0  0  0  0
   11.6307  -36.6954  -70.1808 C   0  0  0  0  0  0  0  0  0  0  0  0
   12.8825  -36.4882  -70.3190 O   0  0  0  0  0  0  0  0  0  0  0  0
   11.2438  -37.2750  -68.9492 N   0  0  0  0  0  0  0  0  0  0  0  0
   11.4422  -38.6987  -68.6468 C   0  0  1  0  0  0  0  0  0  0  0  0
   11.2369  -39.5148  -69.8833 C   0  0  0  0  0  0  0  0  0  0  0  0
   10.6394  -40.8729  -69.6970 C   0  0  0  0  0  0  0  0  0  0  0  0
    9.1162  -40.6609  -69.7632 C   0  0  0  0  0  0  0  0  0  0  0  0
    8.4022  -41.6278  -68.8659 C   0  0  0  0  0  0  0  0  0  0  0  0
    8.9261  -42.9574  -69.0785 N   0  0  0  0  0  0  0  0  0  0  0  0
   12.8354  -38.8100  -68.1615 C   0  0  0  0  0  0  0  0  0  0  0  0
   13.5185  -39.8719  -68.3915 O   0  0  0  0  0  0  0  0  0  0  0  0
   16.0354  -31.7905  -68.6434 N   0  0  0  0  0  0  0  0  0  0  0  0
   14.6808  -32.0112  -68.2885 C   0  0  0  0  0  0  0  0  0  0  0  0
   13.7440  -31.5409  -69.0275 N   0  0  0  0  0  0  0  0  0  0  0  0
   14.3764  -32.7468  -67.1249 N   0  0  0  0  0  0  0  0  0  0  0  0
   15.0110  -34.0174  -66.9062 C   0  0  0  0  0  0  0  0  0  0  0  0
   13.9831  -35.0793  -67.3410 C   0  0  0  0  0  0  0  0  0  0  0  0
   14.6885  -35.9552  -68.3135 C   0  0  0  0  0  0  0  0  0  0  0  0
   14.8566  -37.3998  -67.8578 C   0  0  2  0  0  0  0  0  0  0  0  0
   13.5263  -37.8055  -67.4352 N   0  0  0  0  0  0  0  0  0  0  0  0
   15.8414  -37.4408  -66.7642 C   0  0  0  0  0  0  0  0  0  0  0  0
   17.0073  -37.0337  -66.8316 O   0  0  0  0  0  0  0  0  0  0  0  0
   15.4044  -37.9932  -65.5424 O   0  0  0  0  0  0  0  0  0  0  0  0
  1  2  1  0
  2  3  2  0
  4  5  1  0
  4  2  1  0
  5  6  1  6
  7  5  1  0
  7  8  2  0
  9  7  1  0
 10  9  1  0
 11 12  1  0
 10 11  1  6
 12 13  1  0
 13 14  1  0
 14 15  1  0
 16 17  2  0
 16 10  1  0
 18 19  1  0
 19 20  2  0
 21 19  1  0
 21 22  1  0
 22 23  1  0
 23 24  1  0
 25 24  1  1
 25 27  1  0
 25 26  1  0
 26 16  1  0
 27 29  1  0
 28 27  2  0
M  END
$$$$
