NKR.pdb
     RDKit          3D

 29 28  0  0  1  0  0  0  0  0999 V2000
   26.8001  -25.8493  -16.4885 N   0  0  0  0  0  0  0  0  0  0  0  0
   26.1263  -24.6546  -16.9048 C   0  0  0  0  0  0  0  0  0  0  0  0
   26.2038  -24.3166  -18.1181 O   0  0  0  0  0  0  0  0  0  0  0  0
   25.3665  -23.8495  -15.9361 C   0  0  0  0  0  0  0  0  0  0  0  0
   25.8097  -22.4194  -16.0317 C   0  0  2  0  0  0  0  0  0  0  0  0
   27.2125  -22.2565  -15.7266 N   0  0  0  0  0  0  0  0  0  0  0  0
   25.0351  -21.4903  -15.1921 C   0  0  0  0  0  0  0  0  0  0  0  0
   25.2186  -21.4352  -13.9302 O   0  0  0  0  0  0  0  0  0  0  0  0
   24.0523  -20.6088  -15.7016 N   0  0  0  0  0  0  0  0  0  0  0  0
   23.3618  -19.6215  -14.8612 C   0  0  1  0  0  0  0  0  0  0  0  0
   23.4686  -18.2638  -15.4791 C   0  0  0  0  0  0  0  0  0  0  0  0
   24.7136  -17.4899  -15.1831 C   0  0  0  0  0  0  0  0  0  0  0  0
   24.4908  -16.1028  -15.8122 C   0  0  0  0  0  0  0  0  0  0  0  0
   25.6676  -15.2070  -15.5620 C   0  0  0  0  0  0  0  0  0  0  0  0
   25.3562  -13.8686  -16.0084 N   0  0  0  0  0  0  0  0  0  0  0  0
   21.9529  -20.0691  -14.8010 C   0  0  0  0  0  0  0  0  0  0  0  0
   21.4075  -20.6296  -15.8186 O   0  0  0  0  0  0  0  0  0  0  0  0
   18.7743  -24.1077   -8.4101 N   0  0  0  0  0  0  0  0  0  0  0  0
   17.6409  -24.0014   -9.2549 C   0  0  0  0  0  0  0  0  0  0  0  0
   16.5066  -24.4501   -8.8583 N   0  0  0  0  0  0  0  0  0  0  0  0
   17.7719  -23.4025  -10.5244 N   0  0  0  0  0  0  0  0  0  0  0  0
   18.1050  -22.0077  -10.6165 C   0  0  0  0  0  0  0  0  0  0  0  0
   18.2093  -21.7005  -12.1225 C   0  0  0  0  0  0  0  0  0  0  0  0
   19.5260  -21.0370  -12.3130 C   0  0  0  0  0  0  0  0  0  0  0  0
   19.7592  -20.4842  -13.7141 C   0  0  2  0  0  0  0  0  0  0  0  0
   21.1054  -19.9377  -13.6704 N   0  0  0  0  0  0  0  0  0  0  0  0
   18.7366  -19.4637  -13.9978 C   0  0  0  0  0  0  0  0  0  0  0  0
   18.9069  -18.2402  -13.9382 O   0  0  0  0  0  0  0  0  0  0  0  0
   17.4603  -19.9357  -14.3678 O   0  0  0  0  0  0  0  0  0  0  0  0
  1  2  1  0
  2  3  2  0
  4  5  1  0
  4  2  1  0
  5  6  1  1
  7  5  1  0
  7  8  2  0
  9  7  1  0
 10  9  1  0
 11 12  1  0
 10 11  1  6
 12 13  1  0
 13 14  1  0
 14 15  1  0
 16 17  2  0
 16 10  1  0
 18 19  1  0
 19 20  2  0
 21 19  1  0
 21 22  1  0
 22 23  1  0
 23 24  1  0
 25 24  1  1
 25 27  1  0
 25 26  1  0
 26 16  1  0
 27 29  1  0
 28 27  2  0
M  END
$$$$
