NKR.pdb
     RDKit          3D

 29 28  0  0  1  0  0  0  0  0999 V2000
   27.2772  -27.8930  -19.3609 N   0  0  0  0  0  0  0  0  0  0  0  0
   27.4136  -26.4662  -19.3624 C   0  0  0  0  0  0  0  0  0  0  0  0
   28.0406  -25.9267  -20.3154 O   0  0  0  0  0  0  0  0  0  0  0  0
   26.8346  -25.6594  -18.2771 C   0  0  0  0  0  0  0  0  0  0  0  0
   27.8834  -24.7280  -17.7447 C   0  0  2  0  0  0  0  0  0  0  0  0
   28.9898  -25.4333  -17.1399 N   0  0  0  0  0  0  0  0  0  0  0  0
   27.3763  -23.7354  -16.7825 C   0  0  0  0  0  0  0  0  0  0  0  0
   26.6342  -24.0862  -15.8050 O   0  0  0  0  0  0  0  0  0  0  0  0
   27.6622  -22.3518  -16.8614 N   0  0  0  0  0  0  0  0  0  0  0  0
   27.2080  -21.3901  -15.8481 C   0  0  1  0  0  0  0  0  0  0  0  0
   27.9842  -20.1176  -15.9703 C   0  0  0  0  0  0  0  0  0  0  0  0
   27.8788  -19.1573  -14.8288 C   0  0  0  0  0  0  0  0  0  0  0  0
   26.7309  -19.6900  -13.9525 C   0  0  0  0  0  0  0  0  0  0  0  0
   26.5175  -18.8092  -12.7572 C   0  0  0  0  0  0  0  0  0  0  0  0
   25.4581  -19.3554  -11.9407 N   0  0  0  0  0  0  0  0  0  0  0  0
   25.7728  -21.1667  -16.1295 C   0  0  0  0  0  0  0  0  0  0  0  0
   25.4015  -20.6884  -17.2612 O   0  0  0  0  0  0  0  0  0  0  0  0
   18.7619  -24.5718  -12.4907 N   0  0  0  0  0  0  0  0  0  0  0  0
   18.3285  -24.0217  -13.7232 C   0  0  0  0  0  0  0  0  0  0  0  0
   17.2130  -24.3985  -14.2318 N   0  0  0  0  0  0  0  0  0  0  0  0
   19.1292  -23.0642  -14.3787 N   0  0  0  0  0  0  0  0  0  0  0  0
   20.3438  -22.6139  -13.7566 C   0  0  0  0  0  0  0  0  0  0  0  0
   21.0207  -21.6852  -14.7827 C   0  0  0  0  0  0  0  0  0  0  0  0
   22.4839  -21.8806  -14.6063 C   0  0  0  0  0  0  0  0  0  0  0  0
   23.3493  -21.1048  -15.5922 C   0  0  2  0  0  0  0  0  0  0  0  0
   24.7137  -21.4486  -15.2279 N   0  0  0  0  0  0  0  0  0  0  0  0
   23.0631  -19.6680  -15.4464 C   0  0  0  0  0  0  0  0  0  0  0  0
   23.6232  -18.9008  -14.6543 O   0  0  0  0  0  0  0  0  0  0  0  0
   22.0642  -19.1353  -16.2873 O   0  0  0  0  0  0  0  0  0  0  0  0
  1  2  1  0
  2  3  2  0
  4  5  1  0
  4  2  1  0
  5  6  1  1
  7  5  1  0
  7  8  2  0
  9  7  1  0
 10  9  1  0
 11 12  1  0
 10 11  1  6
 12 13  1  0
 13 14  1  0
 14 15  1  0
 16 17  2  0
 16 10  1  0
 18 19  1  0
 19 20  2  0
 21 19  1  0
 21 22  1  0
 22 23  1  0
 23 24  1  0
 25 24  1  1
 25 27  1  0
 25 26  1  0
 26 16  1  0
 27 29  1  0
 28 27  2  0
M  END
$$$$
