NKR.pdb
     RDKit          3D

 29 28  0  0  1  0  0  0  0  0999 V2000
   19.6325  -11.4243    4.3409 N   0  0  0  0  0  0  0  0  0  0  0  0
   18.6167  -12.2216    4.9628 C   0  0  0  0  0  0  0  0  0  0  0  0
   17.4352  -11.7786    4.9785 O   0  0  0  0  0  0  0  0  0  0  0  0
   18.9515  -13.5214    5.5648 C   0  0  0  0  0  0  0  0  0  0  0  0
   17.7040  -14.1394    6.1237 C   0  0  2  0  0  0  0  0  0  0  0  0
   17.2048  -13.4251    7.2762 N   0  0  0  0  0  0  0  0  0  0  0  0
   17.8413  -15.5626    6.4760 C   0  0  0  0  0  0  0  0  0  0  0  0
   18.4032  -16.3862    5.6789 O   0  0  0  0  0  0  0  0  0  0  0  0
   17.3747  -16.1166    7.6915 N   0  0  0  0  0  0  0  0  0  0  0  0
   17.5777  -17.5270    8.0486 C   0  0  1  0  0  0  0  0  0  0  0  0
   17.4221  -17.7054    9.5253 C   0  0  0  0  0  0  0  0  0  0  0  0
   17.4531  -19.1104   10.0365 C   0  0  0  0  0  0  0  0  0  0  0  0
   18.6247  -19.1558   11.0338 C   0  0  0  0  0  0  0  0  0  0  0  0
   18.7673  -20.5251   11.6293 C   0  0  0  0  0  0  0  0  0  0  0  0
   19.9425  -20.5640   12.4689 N   0  0  0  0  0  0  0  0  0  0  0  0
   16.5375  -18.2761    7.3099 C   0  0  0  0  0  0  0  0  0  0  0  0
   15.3159  -17.8834    7.3347 O   0  0  0  0  0  0  0  0  0  0  0  0
   15.9437  -22.0208   -0.3379 N   0  0  0  0  0  0  0  0  0  0  0  0
   14.6424  -22.1617    0.2066 C   0  0  0  0  0  0  0  0  0  0  0  0
   13.6796  -22.5623   -0.5401 N   0  0  0  0  0  0  0  0  0  0  0  0
   14.4193  -21.8598    1.5655 N   0  0  0  0  0  0  0  0  0  0  0  0
   15.4482  -21.1994    2.3206 C   0  0  0  0  0  0  0  0  0  0  0  0
   14.9071  -21.0892    3.7588 C   0  0  0  0  0  0  0  0  0  0  0  0
   15.9186  -20.3059    4.5160 C   0  0  0  0  0  0  0  0  0  0  0  0
   15.6430  -20.1940    6.0108 C   0  0  2  0  0  0  0  0  0  0  0  0
   16.7709  -19.4410    6.5337 N   0  0  0  0  0  0  0  0  0  0  0  0
   15.5474  -21.5490    6.5785 C   0  0  0  0  0  0  0  0  0  0  0  0
   16.4920  -22.2063    7.0316 O   0  0  0  0  0  0  0  0  0  0  0  0
   14.2646  -22.1342    6.6013 O   0  0  0  0  0  0  0  0  0  0  0  0
  1  2  1  0
  2  3  2  0
  4  5  1  0
  4  2  1  0
  5  6  1  1
  7  5  1  0
  7  8  2  0
  9  7  1  0
 10  9  1  0
 11 12  1  0
 10 11  1  1
 12 13  1  0
 13 14  1  0
 14 15  1  0
 16 17  2  0
 16 10  1  0
 18 19  1  0
 19 20  2  0
 21 19  1  0
 21 22  1  0
 22 23  1  0
 23 24  1  0
 25 24  1  6
 25 27  1  0
 25 26  1  0
 26 16  1  0
 27 29  1  0
 28 27  2  0
M  END
$$$$
