NKR.pdb
     RDKit          3D

 29 28  0  0  1  0  0  0  0  0999 V2000
   28.7876  -20.4046  -19.1372 N   0  0  0  0  0  0  0  0  0  0  0  0
   29.5653  -21.0242  -18.1048 C   0  0  0  0  0  0  0  0  0  0  0  0
   30.7118  -21.4606  -18.4006 O   0  0  0  0  0  0  0  0  0  0  0  0
   29.0329  -21.1441  -16.7388 C   0  0  0  0  0  0  0  0  0  0  0  0
   27.6552  -20.5518  -16.6951 C   0  0  2  0  0  0  0  0  0  0  0  0
   27.6783  -19.1157  -16.5387 N   0  0  0  0  0  0  0  0  0  0  0  0
   26.7852  -21.1241  -15.6539 C   0  0  0  0  0  0  0  0  0  0  0  0
   26.2446  -22.2704  -15.8055 O   0  0  0  0  0  0  0  0  0  0  0  0
   26.4863  -20.4683  -14.4362 N   0  0  0  0  0  0  0  0  0  0  0  0
   25.6592  -21.0816  -13.3886 C   0  0  1  0  0  0  0  0  0  0  0  0
   26.0373  -20.5271  -12.0521 C   0  0  0  0  0  0  0  0  0  0  0  0
   25.2099  -20.9672  -10.8867 C   0  0  0  0  0  0  0  0  0  0  0  0
   25.8428  -20.2895   -9.6581 C   0  0  0  0  0  0  0  0  0  0  0  0
   25.1047  -20.6571   -8.4051 C   0  0  0  0  0  0  0  0  0  0  0  0
   25.7476  -20.0373   -7.2693 N   0  0  0  0  0  0  0  0  0  0  0  0
   24.2628  -20.7342  -13.7327 C   0  0  0  0  0  0  0  0  0  0  0  0
   23.9386  -19.5156  -13.9715 O   0  0  0  0  0  0  0  0  0  0  0  0
   16.4176  -22.3660  -15.1107 N   0  0  0  0  0  0  0  0  0  0  0  0
   17.1626  -22.9688  -16.1553 C   0  0  0  0  0  0  0  0  0  0  0  0
   16.6789  -23.0071  -17.3426 N   0  0  0  0  0  0  0  0  0  0  0  0
   18.4298  -23.5210  -15.8783 N   0  0  0  0  0  0  0  0  0  0  0  0
   18.8945  -23.5767  -14.5196 C   0  0  0  0  0  0  0  0  0  0  0  0
   19.5295  -22.2017  -14.2375 C   0  0  0  0  0  0  0  0  0  0  0  0
   20.9928  -22.4426  -14.1316 C   0  0  0  0  0  0  0  0  0  0  0  0
   21.8332  -21.1793  -13.9881 C   0  0  2  0  0  0  0  0  0  0  0  0
   23.1951  -21.6635  -13.8348 N   0  0  0  0  0  0  0  0  0  0  0  0
   21.3593  -20.4245  -12.8162 C   0  0  0  0  0  0  0  0  0  0  0  0
   20.5700  -19.4728  -12.8459 O   0  0  0  0  0  0  0  0  0  0  0  0
   21.8552  -20.8325  -11.5607 O   0  0  0  0  0  0  0  0  0  0  0  0
  1  2  1  0
  2  3  2  0
  4  5  1  0
  4  2  1  0
  5  6  1  1
  7  5  1  0
  7  8  2  0
  9  7  1  0
 10  9  1  0
 11 12  1  0
 10 11  1  1
 12 13  1  0
 13 14  1  0
 14 15  1  0
 16 17  2  0
 16 10  1  0
 18 19  1  0
 19 20  2  0
 21 19  1  0
 21 22  1  0
 22 23  1  0
 23 24  1  0
 25 24  1  1
 25 27  1  0
 25 26  1  0
 26 16  1  0
 27 29  1  0
 28 27  2  0
M  END
$$$$
