MSA.pdb
     RDKit          3D

 20 19  0  0  1  0  0  0  0  0999 V2000
    2.3230  -22.2821   23.3984 C   0  0  0  0  0  0  0  0  0  0  0  0
    4.0399  -21.9640   23.9166 S   0  0  0  0  0  0  0  0  0  0  0  0
    4.7330  -20.6724   22.8680 C   0  0  0  0  0  0  0  0  0  0  0  0
    6.1930  -20.4337   23.2243 C   0  0  0  0  0  0  0  0  0  0  0  0
    6.7803  -19.3157   22.3897 C   0  0  2  0  0  0  0  0  0  0  0  0
    7.1260  -19.8135   21.0886 N   0  0  0  0  0  0  0  0  0  0  0  0
    7.9703  -18.8094   23.1294 C   0  0  0  0  0  0  0  0  0  0  0  0
    9.0954  -19.2619   22.8192 O   0  0  0  0  0  0  0  0  0  0  0  0
    8.8832  -15.1091   24.5162 O   0  0  0  0  0  0  0  0  0  0  0  0
    8.8098  -16.0564   25.5256 C   0  0  0  0  0  0  0  0  0  0  0  0
    9.0494  -17.4200   24.9312 C   0  0  2  0  0  0  0  0  0  0  0  0
    7.8973  -17.8454   24.1633 N   0  0  0  0  0  0  0  0  0  0  0  0
    9.3815  -18.3508   26.0227 C   0  0  0  0  0  0  0  0  0  0  0  0
    8.4651  -18.7480   26.7879 O   0  0  0  0  0  0  0  0  0  0  0  0
   12.2959  -20.4196   27.2763 C   0  0  0  0  0  0  0  0  0  0  0  0
   10.9331  -19.7513   27.4092 C   0  0  2  0  0  0  0  0  0  0  0  0
   10.6880  -18.8484   26.2870 N   0  0  0  0  0  0  0  0  0  0  0  0
   10.8317  -18.9935   28.6551 C   0  0  0  0  0  0  0  0  0  0  0  0
   10.7613  -17.7521   28.6380 O   0  0  0  0  0  0  0  0  0  0  0  0
   10.8100  -19.6190   29.8949 O   0  0  0  0  0  0  0  0  0  0  0  0
  2  1  1  0
  3  4  1  0
  3  2  1  0
  5  4  1  0
  5  7  1  0
  5  6  1  6
  7  8  2  0
  9 10  1  0
 11 10  1  1
 11 13  1  0
 12 11  1  0
 12  7  1  0
 13 17  1  0
 13 14  2  0
 16 15  1  6
 16 18  1  0
 17 16  1  0
 18 19  2  0
 18 20  1  0
M  END
$$$$
