MSA.pdb
     RDKit          3D

 20 19  0  0  1  0  0  0  0  0999 V2000
    5.7897  -12.7480   26.8967 C   0  0  0  0  0  0  0  0  0  0  0  0
    6.9301  -11.6035   26.0560 S   0  0  0  0  0  0  0  0  0  0  0  0
    7.3107  -12.2597   24.4212 C   0  0  0  0  0  0  0  0  0  0  0  0
    7.6848  -13.7314   24.5200 C   0  0  0  0  0  0  0  0  0  0  0  0
    7.9602  -14.3152   23.1508 C   0  0  2  0  0  0  0  0  0  0  0  0
    6.7451  -14.3529   22.3876 N   0  0  0  0  0  0  0  0  0  0  0  0
    8.5245  -15.6762   23.3718 C   0  0  0  0  0  0  0  0  0  0  0  0
    7.7826  -16.5486   23.8772 O   0  0  0  0  0  0  0  0  0  0  0  0
   12.5222  -16.6353   22.5498 O   0  0  0  0  0  0  0  0  0  0  0  0
   11.5689  -17.6322   22.4117 C   0  0  0  0  0  0  0  0  0  0  0  0
   10.4179  -17.3361   23.3380 C   0  0  2  0  0  0  0  0  0  0  0  0
    9.8532  -16.0357   23.0415 N   0  0  0  0  0  0  0  0  0  0  0  0
   10.8984  -17.4454   24.7255 C   0  0  0  0  0  0  0  0  0  0  0  0
   11.4853  -16.4631   25.2487 O   0  0  0  0  0  0  0  0  0  0  0  0
   10.3834  -19.3922   27.8376 C   0  0  0  0  0  0  0  0  0  0  0  0
   11.3131  -18.6475   26.8876 C   0  0  2  0  0  0  0  0  0  0  0  0
   10.7480  -18.6016   25.5410 N   0  0  0  0  0  0  0  0  0  0  0  0
   12.6288  -19.2813   26.8255 C   0  0  0  0  0  0  0  0  0  0  0  0
   13.0332  -19.8005   25.7704 O   0  0  0  0  0  0  0  0  0  0  0  0
   13.4725  -19.3303   27.9276 O   0  0  0  0  0  0  0  0  0  0  0  0
  2  1  1  0
  3  4  1  0
  3  2  1  0
  5  4  1  0
  5  7  1  0
  5  6  1  6
  7  8  2  0
  9 10  1  0
 11 10  1  6
 11 13  1  0
 12 11  1  0
 12  7  1  0
 13 17  1  0
 13 14  2  0
 16 15  1  1
 16 18  1  0
 17 16  1  0
 18 19  2  0
 18 20  1  0
M  END
$$$$
