MSA.pdb
     RDKit          3D

 20 19  0  0  1  0  0  0  0  0999 V2000
    6.2720  -12.1224   27.2545 C   0  0  0  0  0  0  0  0  0  0  0  0
    5.9761  -11.3135   25.6495 S   0  0  0  0  0  0  0  0  0  0  0  0
    6.2353  -12.5191   24.3352 C   0  0  0  0  0  0  0  0  0  0  0  0
    7.0785  -13.6787   24.8449 C   0  0  0  0  0  0  0  0  0  0  0  0
    7.2097  -14.7590   23.7927 C   0  0  2  0  0  0  0  0  0  0  0  0
    5.9209  -15.3302   23.5224 N   0  0  0  0  0  0  0  0  0  0  0  0
    8.1664  -15.7663   24.3308 C   0  0  0  0  0  0  0  0  0  0  0  0
    7.8236  -16.4289   25.3360 O   0  0  0  0  0  0  0  0  0  0  0  0
   11.7531  -16.0907   22.6109 O   0  0  0  0  0  0  0  0  0  0  0  0
   11.5255  -17.2032   23.4061 C   0  0  0  0  0  0  0  0  0  0  0  0
   10.4212  -16.8864   24.3811 C   0  0  2  0  0  0  0  0  0  0  0  0
    9.4411  -16.0143   23.7674 N   0  0  0  0  0  0  0  0  0  0  0  0
   11.0236  -16.3035   25.5916 C   0  0  0  0  0  0  0  0  0  0  0  0
   12.0093  -15.5308   25.4731 O   0  0  0  0  0  0  0  0  0  0  0  0
   10.4885  -14.7363   28.5699 C   0  0  0  0  0  0  0  0  0  0  0  0
   11.2477  -15.9573   28.0658 C   0  0  2  0  0  0  0  0  0  0  0  0
   10.5681  -16.5510   26.9167 N   0  0  0  0  0  0  0  0  0  0  0  0
   11.3793  -16.9706   29.1110 C   0  0  0  0  0  0  0  0  0  0  0  0
   11.9687  -16.7113   30.1748 O   0  0  0  0  0  0  0  0  0  0  0  0
   10.8586  -18.2497   28.9630 O   0  0  0  0  0  0  0  0  0  0  0  0
  2  1  1  0
  3  4  1  0
  3  2  1  0
  5  4  1  0
  5  7  1  0
  5  6  1  1
  7  8  2  0
  9 10  1  0
 11 10  1  6
 11 13  1  0
 12 11  1  0
 12  7  1  0
 13 17  1  0
 13 14  2  0
 16 15  1  1
 16 18  1  0
 17 16  1  0
 18 19  2  0
 18 20  1  0
M  END
$$$$
