MSA.pdb
     RDKit          3D

 20 19  0  0  1  0  0  0  0  0999 V2000
    9.8850  -11.4811   19.3720 C   0  0  0  0  0  0  0  0  0  0  0  0
    8.1230  -11.9067   19.1935 S   0  0  0  0  0  0  0  0  0  0  0  0
    7.9439  -13.6966   19.3046 C   0  0  0  0  0  0  0  0  0  0  0  0
    7.4349  -14.2565   17.9844 C   0  0  0  0  0  0  0  0  0  0  0  0
    8.5238  -15.0207   17.2622 C   0  0  2  0  0  0  0  0  0  0  0  0
    7.9861  -15.6246   16.0763 N   0  0  0  0  0  0  0  0  0  0  0  0
    9.0421  -16.0360   18.2214 C   0  0  0  0  0  0  0  0  0  0  0  0
    8.2297  -16.8483   18.7183 O   0  0  0  0  0  0  0  0  0  0  0  0
   13.1446  -16.6527   18.9205 O   0  0  0  0  0  0  0  0  0  0  0  0
   12.2304  -17.6948   18.9222 C   0  0  0  0  0  0  0  0  0  0  0  0
   10.9144  -17.1863   19.4513 C   0  0  2  0  0  0  0  0  0  0  0  0
   10.4024  -16.1314   18.6012 N   0  0  0  0  0  0  0  0  0  0  0  0
   11.1109  -16.7506   20.8440 C   0  0  0  0  0  0  0  0  0  0  0  0
   11.4809  -15.5692   21.0688 O   0  0  0  0  0  0  0  0  0  0  0  0
   10.6256  -18.0108   24.3840 C   0  0  0  0  0  0  0  0  0  0  0  0
   11.2343  -17.1004   23.3246 C   0  0  2  0  0  0  0  0  0  0  0  0
   10.9107  -17.5796   21.9829 N   0  0  0  0  0  0  0  0  0  0  0  0
   12.6878  -17.0243   23.4604 C   0  0  0  0  0  0  0  0  0  0  0  0
   13.2043  -16.5139   24.4699 O   0  0  0  0  0  0  0  0  0  0  0  0
   13.5429  -17.5121   22.4808 O   0  0  0  0  0  0  0  0  0  0  0  0
  2  1  1  0
  3  4  1  0
  3  2  1  0
  5  4  1  0
  5  7  1  0
  5  6  1  6
  7  8  2  0
  9 10  1  0
 11 10  1  6
 11 13  1  0
 12 11  1  0
 12  7  1  0
 13 17  1  0
 13 14  2  0
 16 15  1  1
 16 18  1  0
 17 16  1  0
 18 19  2  0
 18 20  1  0
M  END
$$$$
