MSA.pdb
     RDKit          3D

 20 19  0  0  1  0  0  0  0  0999 V2000
    6.0411  -11.8614   28.1875 C   0  0  0  0  0  0  0  0  0  0  0  0
    6.7383  -11.7453   26.5088 S   0  0  0  0  0  0  0  0  0  0  0  0
    6.1815  -13.1656   25.5493 C   0  0  0  0  0  0  0  0  0  0  0  0
    7.3354  -14.1312   25.3225 C   0  0  0  0  0  0  0  0  0  0  0  0
    6.8965  -15.3164   24.4893 C   0  0  2  0  0  0  0  0  0  0  0  0
    6.0424  -16.1663   25.2692 N   0  0  0  0  0  0  0  0  0  0  0  0
    8.1375  -16.0170   24.0550 C   0  0  0  0  0  0  0  0  0  0  0  0
    8.5655  -16.9551   24.7646 O   0  0  0  0  0  0  0  0  0  0  0  0
    9.3159  -16.5456   20.1618 O   0  0  0  0  0  0  0  0  0  0  0  0
   10.3210  -16.0656   20.9871 C   0  0  0  0  0  0  0  0  0  0  0  0
    9.9990  -16.4361   22.4116 C   0  0  2  0  0  0  0  0  0  0  0  0
    8.8581  -15.6793   22.8844 N   0  0  0  0  0  0  0  0  0  0  0  0
   11.2035  -16.2220   23.2309 C   0  0  0  0  0  0  0  0  0  0  0  0
   11.5282  -15.0481   23.5461 O   0  0  0  0  0  0  0  0  0  0  0  0
   13.7769  -18.1952   25.1822 C   0  0  0  0  0  0  0  0  0  0  0  0
   13.2639  -16.9564   24.4585 C   0  0  2  0  0  0  0  0  0  0  0  0
   12.0497  -17.2627   23.7058 N   0  0  0  0  0  0  0  0  0  0  0  0
   14.2674  -16.4242   23.5386 C   0  0  0  0  0  0  0  0  0  0  0  0
   15.2033  -15.7214   23.9587 O   0  0  0  0  0  0  0  0  0  0  0  0
   14.2194  -16.6772   22.1738 O   0  0  0  0  0  0  0  0  0  0  0  0
  2  1  1  0
  3  4  1  0
  3  2  1  0
  5  4  1  0
  5  7  1  0
  5  6  1  1
  7  8  2  0
  9 10  1  0
 11 10  1  6
 11 13  1  0
 12 11  1  0
 12  7  1  0
 13 17  1  0
 13 14  2  0
 16 15  1  6
 16 18  1  0
 17 16  1  0
 18 19  2  0
 18 20  1  0
M  END
$$$$
