MSA.pdb
     RDKit          3D

 20 19  0  0  1  0  0  0  0  0999 V2000
    5.8784  -11.8307   26.2619 C   0  0  0  0  0  0  0  0  0  0  0  0
    7.2728  -12.6006   27.1452 S   0  0  0  0  0  0  0  0  0  0  0  0
    7.2733  -14.3694   26.8000 C   0  0  0  0  0  0  0  0  0  0  0  0
    6.9521  -14.6184   25.3336 C   0  0  0  0  0  0  0  0  0  0  0  0
    6.8251  -16.0998   25.0490 C   0  0  2  0  0  0  0  0  0  0  0  0
    6.6096  -16.8116   26.2767 N   0  0  0  0  0  0  0  0  0  0  0  0
    8.0871  -16.5156   24.3753 C   0  0  0  0  0  0  0  0  0  0  0  0
    8.7999  -17.3783   24.9362 O   0  0  0  0  0  0  0  0  0  0  0  0
    9.7146  -14.6054   21.0522 O   0  0  0  0  0  0  0  0  0  0  0  0
    9.6471  -15.9885   20.9854 C   0  0  0  0  0  0  0  0  0  0  0  0
    9.6315  -16.5428   22.3864 C   0  0  2  0  0  0  0  0  0  0  0  0
    8.5234  -15.9881   23.1363 N   0  0  0  0  0  0  0  0  0  0  0  0
   10.9364  -16.2661   23.0099 C   0  0  0  0  0  0  0  0  0  0  0  0
   11.0748  -15.2251   23.7028 O   0  0  0  0  0  0  0  0  0  0  0  0
   14.2029  -18.0022   23.7363 C   0  0  0  0  0  0  0  0  0  0  0  0
   13.3319  -16.7643   23.5620 C   0  0  2  0  0  0  0  0  0  0  0  0
   12.0806  -17.1030   22.8880 N   0  0  0  0  0  0  0  0  0  0  0  0
   14.0210  -15.7340   22.7872 C   0  0  0  0  0  0  0  0  0  0  0  0
   14.9205  -15.0479   23.3035 O   0  0  0  0  0  0  0  0  0  0  0  0
   13.7049  -15.4803   21.4588 O   0  0  0  0  0  0  0  0  0  0  0  0
  2  1  1  0
  3  4  1  0
  3  2  1  0
  5  4  1  0
  5  7  1  0
  5  6  1  1
  7  8  2  0
  9 10  1  0
 11 10  1  6
 11 13  1  0
 12 11  1  0
 12  7  1  0
 13 17  1  0
 13 14  2  0
 16 15  1  6
 16 18  1  0
 17 16  1  0
 18 19  2  0
 18 20  1  0
M  END
$$$$
