MSA.pdb
     RDKit          3D

 20 19  0  0  1  0  0  0  0  0999 V2000
    7.4407  -12.1132   19.5991 C   0  0  0  0  0  0  0  0  0  0  0  0
    8.3312  -13.1369   18.3840 S   0  0  0  0  0  0  0  0  0  0  0  0
    8.1701  -14.8691   18.8551 C   0  0  0  0  0  0  0  0  0  0  0  0
    7.6006  -14.9800   20.2618 C   0  0  0  0  0  0  0  0  0  0  0  0
    7.4805  -16.4279   20.6868 C   0  0  2  0  0  0  0  0  0  0  0  0
    6.5362  -17.1033   19.8429 N   0  0  0  0  0  0  0  0  0  0  0  0
    7.0509  -16.4207   22.1133 C   0  0  0  0  0  0  0  0  0  0  0  0
    5.8470  -16.1900   22.3667 O   0  0  0  0  0  0  0  0  0  0  0  0
    9.6176  -17.3990   25.2380 O   0  0  0  0  0  0  0  0  0  0  0  0
    8.2526  -17.5377   25.4361 C   0  0  0  0  0  0  0  0  0  0  0  0
    7.5320  -16.5261   24.5830 C   0  0  2  0  0  0  0  0  0  0  0  0
    7.9299  -16.6602   23.1967 N   0  0  0  0  0  0  0  0  0  0  0  0
    7.8019  -15.1843   25.1257 C   0  0  0  0  0  0  0  0  0  0  0  0
    8.8677  -14.5977   24.8049 O   0  0  0  0  0  0  0  0  0  0  0  0
    6.0840  -12.4192   27.0349 C   0  0  0  0  0  0  0  0  0  0  0  0
    7.3124  -13.1831   26.5565 C   0  0  2  0  0  0  0  0  0  0  0  0
    6.9319  -14.4816   26.0054 N   0  0  0  0  0  0  0  0  0  0  0  0
    8.2650  -13.3936   27.6450 C   0  0  0  0  0  0  0  0  0  0  0  0
    8.8019  -12.4266   28.2134 O   0  0  0  0  0  0  0  0  0  0  0  0
    8.6069  -14.6656   28.0854 O   0  0  0  0  0  0  0  0  0  0  0  0
  2  1  1  0
  3  4  1  0
  3  2  1  0
  5  4  1  0
  5  7  1  0
  5  6  1  6
  7  8  2  0
  9 10  1  0
 11 10  1  1
 11 13  1  0
 12 11  1  0
 12  7  1  0
 13 17  1  0
 13 14  2  0
 16 15  1  1
 16 18  1  0
 17 16  1  0
 18 19  2  0
 18 20  1  0
M  END
$$$$
