MSA.pdb
     RDKit          3D

 20 19  0  0  1  0  0  0  0  0999 V2000
    8.0387  -11.9429   27.2067 C   0  0  0  0  0  0  0  0  0  0  0  0
    7.4592  -12.0839   25.4856 S   0  0  0  0  0  0  0  0  0  0  0  0
    6.8008  -13.7417   25.2287 C   0  0  0  0  0  0  0  0  0  0  0  0
    6.3235  -13.9006   23.7926 C   0  0  0  0  0  0  0  0  0  0  0  0
    7.4768  -14.2334   22.8703 C   0  0  2  0  0  0  0  0  0  0  0  0
    7.0107  -14.2905   21.5140 N   0  0  0  0  0  0  0  0  0  0  0  0
    8.0274  -15.5398   23.3282 C   0  0  0  0  0  0  0  0  0  0  0  0
    7.2230  -16.4672   23.5724 O   0  0  0  0  0  0  0  0  0  0  0  0
   12.1010  -16.2133   23.5475 O   0  0  0  0  0  0  0  0  0  0  0  0
   11.2920  -17.3011   23.2578 C   0  0  0  0  0  0  0  0  0  0  0  0
    9.9393  -17.0816   23.8841 C   0  0  2  0  0  0  0  0  0  0  0  0
    9.4101  -15.7887   23.5021 N   0  0  0  0  0  0  0  0  0  0  0  0
   10.0725  -17.2341   25.3426 C   0  0  0  0  0  0  0  0  0  0  0  0
   10.3514  -16.2248   26.0401 O   0  0  0  0  0  0  0  0  0  0  0  0
    9.0201  -19.3428   28.1565 C   0  0  0  0  0  0  0  0  0  0  0  0
   10.1256  -18.5377   27.4848 C   0  0  2  0  0  0  0  0  0  0  0  0
    9.9069  -18.4620   26.0422 N   0  0  0  0  0  0  0  0  0  0  0  0
   11.4394  -19.1290   27.7321 C   0  0  0  0  0  0  0  0  0  0  0  0
   11.8588  -19.2786   28.8932 O   0  0  0  0  0  0  0  0  0  0  0  0
   12.2647  -19.5436   26.6949 O   0  0  0  0  0  0  0  0  0  0  0  0
  2  1  1  0
  3  4  1  0
  3  2  1  0
  5  4  1  0
  5  7  1  0
  5  6  1  6
  7  8  2  0
  9 10  1  0
 11 10  1  6
 11 13  1  0
 12 11  1  0
 12  7  1  0
 13 17  1  0
 13 14  2  0
 16 15  1  1
 16 18  1  0
 17 16  1  0
 18 19  2  0
 18 20  1  0
M  END
$$$$
