MSA.pdb
     RDKit          3D

 20 19  0  0  1  0  0  0  0  0999 V2000
    6.5088  -11.0934   26.1542 C   0  0  0  0  0  0  0  0  0  0  0  0
    6.6661  -12.4641   27.3433 S   0  0  0  0  0  0  0  0  0  0  0  0
    6.0924  -13.9819   26.5590 C   0  0  0  0  0  0  0  0  0  0  0  0
    7.2120  -14.6045   25.7379 C   0  0  0  0  0  0  0  0  0  0  0  0
    6.7465  -15.8752   25.0596 C   0  0  2  0  0  0  0  0  0  0  0  0
    6.4634  -16.8760   26.0488 N   0  0  0  0  0  0  0  0  0  0  0  0
    7.8398  -16.2932   24.1379 C   0  0  0  0  0  0  0  0  0  0  0  0
    8.6356  -17.1773   24.5276 O   0  0  0  0  0  0  0  0  0  0  0  0
    7.7831  -16.0921   19.9561 O   0  0  0  0  0  0  0  0  0  0  0  0
    8.8907  -15.5472   20.5871 C   0  0  0  0  0  0  0  0  0  0  0  0
    9.0546  -16.2028   21.9338 C   0  0  2  0  0  0  0  0  0  0  0  0
    8.0272  -15.7448   22.8464 N   0  0  0  0  0  0  0  0  0  0  0  0
   10.4155  -15.9254   22.4229 C   0  0  0  0  0  0  0  0  0  0  0  0
   10.6914  -14.7719   22.8427 O   0  0  0  0  0  0  0  0  0  0  0  0
   13.0243  -17.2037   24.3321 C   0  0  0  0  0  0  0  0  0  0  0  0
   12.7838  -16.5281   22.9877 C   0  0  2  0  0  0  0  0  0  0  0  0
   11.4684  -16.8817   22.4591 N   0  0  0  0  0  0  0  0  0  0  0  0
   13.8025  -16.9094   22.0112 C   0  0  0  0  0  0  0  0  0  0  0  0
   13.5004  -17.5811   21.0093 O   0  0  0  0  0  0  0  0  0  0  0  0
   15.1340  -16.5428   22.1586 O   0  0  0  0  0  0  0  0  0  0  0  0
  2  1  1  0
  3  4  1  0
  3  2  1  0
  5  4  1  0
  5  7  1  0
  5  6  1  1
  7  8  2  0
  9 10  1  0
 11 10  1  6
 11 13  1  0
 12 11  1  0
 12  7  1  0
 13 17  1  0
 13 14  2  0
 16 15  1  1
 16 18  1  0
 17 16  1  0
 18 19  2  0
 18 20  1  0
M  END
$$$$
