MSA.pdb
     RDKit          3D

 20 19  0  0  1  0  0  0  0  0999 V2000
    7.1033  -10.8118   26.8921 C   0  0  0  0  0  0  0  0  0  0  0  0
    7.5001  -12.5475   26.5086 S   0  0  0  0  0  0  0  0  0  0  0  0
    6.4903  -13.0794   25.1138 C   0  0  0  0  0  0  0  0  0  0  0  0
    6.7905  -14.5313   24.7714 C   0  0  0  0  0  0  0  0  0  0  0  0
    7.6746  -14.6293   23.5466 C   0  0  2  0  0  0  0  0  0  0  0  0
    6.8675  -14.5690   22.3612 N   0  0  0  0  0  0  0  0  0  0  0  0
    8.4142  -15.9181   23.6549 C   0  0  0  0  0  0  0  0  0  0  0  0
    7.7618  -16.9535   23.9178 O   0  0  0  0  0  0  0  0  0  0  0  0
   12.4546  -16.0373   23.1036 O   0  0  0  0  0  0  0  0  0  0  0  0
   11.8213  -17.2434   22.8467 C   0  0  0  0  0  0  0  0  0  0  0  0
   10.5274  -17.2872   23.6175 C   0  0  2  0  0  0  0  0  0  0  0  0
    9.8137  -16.0347   23.4769 N   0  0  0  0  0  0  0  0  0  0  0  0
   10.8332  -17.6141   25.0203 C   0  0  0  0  0  0  0  0  0  0  0  0
   11.1276  -16.6841   25.8148 O   0  0  0  0  0  0  0  0  0  0  0  0
   10.6184  -20.5157   27.4258 C   0  0  0  0  0  0  0  0  0  0  0  0
   11.1546  -19.1663   26.9641 C   0  0  2  0  0  0  0  0  0  0  0  0
   10.8219  -18.9300   25.5612 N   0  0  0  0  0  0  0  0  0  0  0  0
   12.6054  -19.0875   27.1244 C   0  0  0  0  0  0  0  0  0  0  0  0
   13.3581  -19.1807   26.1389 O   0  0  0  0  0  0  0  0  0  0  0  0
   13.1977  -18.9077   28.3677 O   0  0  0  0  0  0  0  0  0  0  0  0
  2  1  1  0
  3  4  1  0
  3  2  1  0
  5  4  1  0
  5  7  1  0
  5  6  1  6
  7  8  2  0
  9 10  1  0
 11 10  1  6
 11 13  1  0
 12 11  1  0
 12  7  1  0
 13 17  1  0
 13 14  2  0
 16 15  1  6
 16 18  1  0
 17 16  1  0
 18 19  2  0
 18 20  1  0
M  END
$$$$
