MSA.pdb
     RDKit          3D

 20 19  0  0  1  0  0  0  0  0999 V2000
    7.4362  -11.7500   20.6784 C   0  0  0  0  0  0  0  0  0  0  0  0
    8.1622  -12.3590   19.1229 S   0  0  0  0  0  0  0  0  0  0  0  0
    8.4764  -14.1265   19.2817 C   0  0  0  0  0  0  0  0  0  0  0  0
    8.3632  -14.5513   20.7385 C   0  0  0  0  0  0  0  0  0  0  0  0
    8.5420  -16.0474   20.8839 C   0  0  2  0  0  0  0  0  0  0  0  0
    7.5170  -16.7310   20.1475 N   0  0  0  0  0  0  0  0  0  0  0  0
    8.4773  -16.3462   22.3419 C   0  0  0  0  0  0  0  0  0  0  0  0
    7.3565  -16.3315   22.8990 O   0  0  0  0  0  0  0  0  0  0  0  0
   11.6751  -17.9128   24.3391 O   0  0  0  0  0  0  0  0  0  0  0  0
   10.4158  -18.1265   24.8779 C   0  0  0  0  0  0  0  0  0  0  0  0
    9.5381  -16.9478   24.5452 C   0  0  2  0  0  0  0  0  0  0  0  0
    9.6140  -16.6454   23.1308 N   0  0  0  0  0  0  0  0  0  0  0  0
    9.9426  -15.8136   25.3926 C   0  0  0  0  0  0  0  0  0  0  0  0
   11.0095  -15.2018   25.1273 O   0  0  0  0  0  0  0  0  0  0  0  0
    8.5994  -13.3127   27.7563 C   0  0  0  0  0  0  0  0  0  0  0  0
    9.7202  -14.2617   27.3505 C   0  0  2  0  0  0  0  0  0  0  0  0
    9.2048  -15.3436   26.5147 N   0  0  0  0  0  0  0  0  0  0  0  0
   10.3758  -14.8416   28.5212 C   0  0  0  0  0  0  0  0  0  0  0  0
   10.9339  -14.1136   29.3609 O   0  0  0  0  0  0  0  0  0  0  0  0
   10.4034  -16.2123   28.7431 O   0  0  0  0  0  0  0  0  0  0  0  0
  2  1  1  0
  3  4  1  0
  3  2  1  0
  5  4  1  0
  5  7  1  0
  5  6  1  6
  7  8  2  0
  9 10  1  0
 11 10  1  6
 11 13  1  0
 12 11  1  0
 12  7  1  0
 13 17  1  0
 13 14  2  0
 16 15  1  1
 16 18  1  0
 17 16  1  0
 18 19  2  0
 18 20  1  0
M  END
$$$$
