MSA.pdb
     RDKit          3D

 20 19  0  0  1  0  0  0  0  0999 V2000
    7.4992  -11.3789   25.8215 C   0  0  0  0  0  0  0  0  0  0  0  0
    6.9746  -12.4129   27.2262 S   0  0  0  0  0  0  0  0  0  0  0  0
    6.3372  -13.9746   26.5915 C   0  0  0  0  0  0  0  0  0  0  0  0
    7.3322  -14.5918   25.6196 C   0  0  0  0  0  0  0  0  0  0  0  0
    6.7842  -15.8683   25.0183 C   0  0  2  0  0  0  0  0  0  0  0  0
    6.3902  -16.7666   26.0662 N   0  0  0  0  0  0  0  0  0  0  0  0
    7.8663  -16.4399   24.1687 C   0  0  0  0  0  0  0  0  0  0  0  0
    8.6101  -17.3140   24.6680 O   0  0  0  0  0  0  0  0  0  0  0  0
    8.4152  -14.9619   20.5063 O   0  0  0  0  0  0  0  0  0  0  0  0
    8.9373  -16.2450   20.5598 C   0  0  0  0  0  0  0  0  0  0  0  0
    9.1374  -16.6289   22.0030 C   0  0  2  0  0  0  0  0  0  0  0  0
    8.0986  -16.0480   22.8284 N   0  0  0  0  0  0  0  0  0  0  0  0
   10.4892  -16.2118   22.4114 C   0  0  0  0  0  0  0  0  0  0  0  0
   10.6194  -15.2141   23.1668 O   0  0  0  0  0  0  0  0  0  0  0  0
   13.0217  -14.8177   22.2754 C   0  0  0  0  0  0  0  0  0  0  0  0
   12.9943  -16.3361   22.3991 C   0  0  2  0  0  0  0  0  0  0  0  0
   11.6886  -16.8634   22.0096 N   0  0  0  0  0  0  0  0  0  0  0  0
   13.2869  -16.7636   23.7660 C   0  0  0  0  0  0  0  0  0  0  0  0
   12.3665  -17.0548   24.5499 O   0  0  0  0  0  0  0  0  0  0  0  0
   14.5881  -16.8617   24.2416 O   0  0  0  0  0  0  0  0  0  0  0  0
  2  1  1  0
  3  4  1  0
  3  2  1  0
  5  4  1  0
  5  7  1  0
  5  6  1  1
  7  8  2  0
  9 10  1  0
 11 10  1  6
 11 13  1  0
 12 11  1  0
 12  7  1  0
 13 17  1  0
 13 14  2  0
 16 15  1  1
 16 18  1  0
 17 16  1  0
 18 19  2  0
 18 20  1  0
M  END
$$$$
