MSA.pdb
     RDKit          3D

 20 19  0  0  1  0  0  0  0  0999 V2000
    8.3265  -11.7036   20.1531 C   0  0  0  0  0  0  0  0  0  0  0  0
    8.7142  -13.3263   19.4223 S   0  0  0  0  0  0  0  0  0  0  0  0
    7.5918  -13.6256   18.0444 C   0  0  0  0  0  0  0  0  0  0  0  0
    7.8010  -15.0277   17.4915 C   0  0  0  0  0  0  0  0  0  0  0  0
    9.2749  -15.3389   17.3426 C   0  0  2  0  0  0  0  0  0  0  0  0
    9.5217  -15.9033   16.0461 N   0  0  0  0  0  0  0  0  0  0  0  0
    9.6256  -16.2834   18.4400 C   0  0  0  0  0  0  0  0  0  0  0  0
    8.7583  -16.5283   19.3087 O   0  0  0  0  0  0  0  0  0  0  0  0
   13.3655  -18.0834   18.7000 O   0  0  0  0  0  0  0  0  0  0  0  0
   12.2679  -18.8445   19.0711 C   0  0  0  0  0  0  0  0  0  0  0  0
   11.1782  -17.9230   19.5548 C   0  0  2  0  0  0  0  0  0  0  0  0
   10.8858  -16.9182   18.5535 N   0  0  0  0  0  0  0  0  0  0  0  0
   11.5989  -17.3408   20.8401 C   0  0  0  0  0  0  0  0  0  0  0  0
   12.2139  -16.2431   20.8423 O   0  0  0  0  0  0  0  0  0  0  0  0
   11.0673  -17.8503   24.5475 C   0  0  0  0  0  0  0  0  0  0  0  0
   11.8005  -17.2805   23.3395 C   0  0  2  0  0  0  0  0  0  0  0  0
   11.3592  -17.9354   22.1103 N   0  0  0  0  0  0  0  0  0  0  0  0
   13.2471  -17.4459   23.4688 C   0  0  0  0  0  0  0  0  0  0  0  0
   13.8511  -18.2954   22.7906 O   0  0  0  0  0  0  0  0  0  0  0  0
   13.9990  -16.6718   24.3430 O   0  0  0  0  0  0  0  0  0  0  0  0
  2  1  1  0
  3  4  1  0
  3  2  1  0
  5  4  1  0
  5  7  1  0
  5  6  1  6
  7  8  2  0
  9 10  1  0
 11 10  1  6
 11 13  1  0
 12 11  1  0
 12  7  1  0
 13 17  1  0
 13 14  2  0
 16 15  1  1
 16 18  1  0
 17 16  1  0
 18 19  2  0
 18 20  1  0
M  END
$$$$
