MSA.pdb
     RDKit          3D

 20 19  0  0  1  0  0  0  0  0999 V2000
    6.8209  -11.5527   25.4143 C   0  0  0  0  0  0  0  0  0  0  0  0
    6.9512  -12.6194   26.8848 S   0  0  0  0  0  0  0  0  0  0  0  0
    6.5996  -14.3197   26.4017 C   0  0  0  0  0  0  0  0  0  0  0  0
    6.7854  -14.4884   24.9009 C   0  0  0  0  0  0  0  0  0  0  0  0
    6.4541  -15.9004   24.4675 C   0  0  2  0  0  0  0  0  0  0  0  0
    5.6303  -16.5303   25.4598 N   0  0  0  0  0  0  0  0  0  0  0  0
    7.7526  -16.6082   24.2870 C   0  0  0  0  0  0  0  0  0  0  0  0
    8.1130  -17.4166   25.1720 O   0  0  0  0  0  0  0  0  0  0  0  0
   10.8224  -15.4143   21.8464 O   0  0  0  0  0  0  0  0  0  0  0  0
   10.4861  -16.7488   21.6793 C   0  0  0  0  0  0  0  0  0  0  0  0
    9.7717  -17.2288   22.9160 C   0  0  2  0  0  0  0  0  0  0  0  0
    8.6001  -16.4158   23.1696 N   0  0  0  0  0  0  0  0  0  0  0  0
   10.7259  -17.2182   24.0373 C   0  0  0  0  0  0  0  0  0  0  0  0
   10.9272  -16.1430   24.6589 O   0  0  0  0  0  0  0  0  0  0  0  0
   11.5772  -18.3370   26.9372 C   0  0  0  0  0  0  0  0  0  0  0  0
   12.3573  -18.2632   25.6304 C   0  0  2  0  0  0  0  0  0  0  0  0
   11.4560  -18.3548   24.4841 N   0  0  0  0  0  0  0  0  0  0  0  0
   13.3458  -19.3362   25.5399 C   0  0  0  0  0  0  0  0  0  0  0  0
   13.2819  -20.1820   24.6305 O   0  0  0  0  0  0  0  0  0  0  0  0
   14.3850  -19.4557   26.4535 O   0  0  0  0  0  0  0  0  0  0  0  0
  2  1  1  0
  3  4  1  0
  3  2  1  0
  5  4  1  0
  5  7  1  0
  5  6  1  1
  7  8  2  0
  9 10  1  0
 11 10  1  6
 11 13  1  0
 12 11  1  0
 12  7  1  0
 13 17  1  0
 13 14  2  0
 16 15  1  1
 16 18  1  0
 17 16  1  0
 18 19  2  0
 18 20  1  0
M  END
$$$$
