MSA.pdb
     RDKit          3D

 20 19  0  0  1  0  0  0  0  0999 V2000
    7.8944  -11.5354   26.0372 C   0  0  0  0  0  0  0  0  0  0  0  0
    6.5536  -12.3307   26.9791 S   0  0  0  0  0  0  0  0  0  0  0  0
    6.0356  -13.8202   26.1066 C   0  0  0  0  0  0  0  0  0  0  0  0
    7.2483  -14.5508   25.5489 C   0  0  0  0  0  0  0  0  0  0  0  0
    6.8287  -15.7417   24.7139 C   0  0  2  0  0  0  0  0  0  0  0  0
    6.1886  -16.7173   25.5497 N   0  0  0  0  0  0  0  0  0  0  0  0
    8.0658  -16.2751   24.0778 C   0  0  0  0  0  0  0  0  0  0  0  0
    8.6973  -17.1749   24.6765 O   0  0  0  0  0  0  0  0  0  0  0  0
    8.9022  -16.1441   19.9331 O   0  0  0  0  0  0  0  0  0  0  0  0
    9.9107  -15.7870   20.8147 C   0  0  0  0  0  0  0  0  0  0  0  0
    9.6612  -16.4623   22.1384 C   0  0  2  0  0  0  0  0  0  0  0  0
    8.5654  -15.8196   22.8341 N   0  0  0  0  0  0  0  0  0  0  0  0
   10.9142  -16.4462   22.9115 C   0  0  0  0  0  0  0  0  0  0  0  0
   11.2105  -15.4190   23.5749 O   0  0  0  0  0  0  0  0  0  0  0  0
   13.3914  -18.9329   24.2509 C   0  0  0  0  0  0  0  0  0  0  0  0
   12.9478  -17.5133   23.9200 C   0  0  2  0  0  0  0  0  0  0  0  0
   11.8387  -17.5263   22.9691 N   0  0  0  0  0  0  0  0  0  0  0  0
   14.0455  -16.7316   23.3536 C   0  0  0  0  0  0  0  0  0  0  0  0
   14.0663  -16.4534   22.1418 O   0  0  0  0  0  0  0  0  0  0  0  0
   15.0984  -16.2721   24.1341 O   0  0  0  0  0  0  0  0  0  0  0  0
  2  1  1  0
  3  4  1  0
  3  2  1  0
  5  4  1  0
  5  7  1  0
  5  6  1  1
  7  8  2  0
  9 10  1  0
 11 10  1  6
 11 13  1  0
 12 11  1  0
 12  7  1  0
 13 17  1  0
 13 14  2  0
 16 15  1  6
 16 18  1  0
 17 16  1  0
 18 19  2  0
 18 20  1  0
M  END
$$$$
