RDR.pdb
     RDKit          3D

 31 30  0  0  1  0  0  0  0  0999 V2000
   12.9600  -19.3102   17.0412 N   0  0  0  0  0  0  0  0  0  0  0  0
   12.3313  -20.5563   16.6958 C   0  0  0  0  0  0  0  0  0  0  0  0
   11.9649  -20.7658   15.4838 N   0  0  0  0  0  0  0  0  0  0  0  0
   12.1343  -21.5230   17.7091 N   0  0  0  0  0  0  0  0  0  0  0  0
   12.7078  -21.4390   19.0120 C   0  0  0  0  0  0  0  0  0  0  0  0
   11.7771  -21.0830   20.1163 C   0  0  0  0  0  0  0  0  0  0  0  0
   12.3678  -20.9307   21.4684 C   0  0  0  0  0  0  0  0  0  0  0  0
   11.7666  -21.8175   22.5354 C   0  0  2  0  0  0  0  0  0  0  0  0
   10.3278  -21.6361   22.5414 N   0  0  0  0  0  0  0  0  0  0  0  0
   12.2767  -21.4776   23.8784 C   0  0  0  0  0  0  0  0  0  0  0  0
   12.3719  -20.2795   24.2163 O   0  0  0  0  0  0  0  0  0  0  0  0
   11.5495  -21.6664   15.1987 N   0  0  0  0  0  0  0  0  0  0  0  0
   12.6842  -22.4591   24.8537 C   0  0  1  0  0  0  0  0  0  0  0  0
   13.1571  -22.0744   26.1559 C   0  0  0  0  0  0  0  0  0  0  0  0
   12.8780  -23.1568   27.1947 C   0  0  0  0  0  0  0  0  0  0  0  0
   11.4480  -23.3621   27.4203 O   0  0  0  0  0  0  0  0  0  0  0  0
   10.9705  -24.4650   27.7836 C   0  0  0  0  0  0  0  0  0  0  0  0
   14.6028  -21.7133   26.1655 O   0  0  0  0  0  0  0  0  0  0  0  0
   15.4396  -22.4002   25.4829 O   0  0  0  0  0  0  0  0  0  0  0  0
   10.5702  -22.3115   27.2314 N   0  0  0  0  0  0  0  0  0  0  0  0
   19.5449  -14.8741   25.8509 C   0  0  0  0  0  0  0  0  0  0  0  0
   20.4228  -15.8502   25.2514 N   0  0  0  0  0  0  0  0  0  0  0  0
   21.5889  -15.4706   24.8015 N   0  0  0  0  0  0  0  0  0  0  0  0
   19.9456  -17.1733   25.1937 C   0  0  0  0  0  0  0  0  0  0  0  0
   18.5556  -17.4106   25.6527 C   0  0  0  0  0  0  0  0  0  0  0  0
   18.1975  -18.8287   25.4869 C   0  0  0  0  0  0  0  0  0  0  0  0
   16.9051  -19.3796   25.8256 C   0  0  2  0  0  0  0  0  0  0  0  0
   16.5885  -20.2963   26.9107 N   0  0  0  0  0  0  0  0  0  0  0  0
   15.1288  -20.6282   26.8981 C   0  0  0  0  0  0  0  0  0  0  0  0
   17.0159  -19.9848   28.2538 O   0  0  0  0  0  0  0  0  0  0  0  0
   16.3070  -19.8461   29.2581 O   0  0  0  0  0  0  0  0  0  0  0  0
  1  2  1  0
  2  3  2  0
  4  2  1  0
  5  4  1  0
  6  5  1  0
  7  6  1  0
  8  9  1  1
  8 10  1  0
  8  7  1  0
 10 11  2  0
 12 10  1  0
 12 13  1  0
 13 17  1  0
 13 14  1  1
 15 14  1  0
 16 15  2  0
 17 18  2  0
 19 15  1  0
 20 21  1  0
 21 22  2  0
 21 23  1  0
 23 24  1  0
 24 25  1  0
 25 26  1  0
 27 26  1  6
 27 29  1  0
 28 17  1  0
 28 27  1  0
 29 30  2  0
 29 31  1  0
M  END
$$$$
