RDR.pdb
     RDKit          3D

 31 30  0  0  1  0  0  0  0  0999 V2000
    9.5274  -13.1526   16.9188 N   0  0  0  0  0  0  0  0  0  0  0  0
    8.2389  -13.5164   16.3947 C   0  0  0  0  0  0  0  0  0  0  0  0
    7.6431  -12.7280   15.5759 N   0  0  0  0  0  0  0  0  0  0  0  0
    7.6615  -14.7426   16.7988 N   0  0  0  0  0  0  0  0  0  0  0  0
    7.0477  -14.9534   18.0686 C   0  0  0  0  0  0  0  0  0  0  0  0
    7.8821  -14.6421   19.2599 C   0  0  0  0  0  0  0  0  0  0  0  0
    7.9581  -15.6812   20.3157 C   0  0  0  0  0  0  0  0  0  0  0  0
    9.3509  -16.1817   20.6252 C   0  0  2  0  0  0  0  0  0  0  0  0
    9.8584  -16.9013   19.4730 N   0  0  0  0  0  0  0  0  0  0  0  0
    9.3559  -17.1024   21.7791 C   0  0  0  0  0  0  0  0  0  0  0  0
    8.5803  -18.0806   21.7902 O   0  0  0  0  0  0  0  0  0  0  0  0
    6.7663  -13.0061   15.1080 N   0  0  0  0  0  0  0  0  0  0  0  0
   10.2171  -16.9467   22.9258 C   0  0  1  0  0  0  0  0  0  0  0  0
   10.5962  -18.0696   23.7399 C   0  0  0  0  0  0  0  0  0  0  0  0
   11.2955  -19.1470   22.9160 C   0  0  0  0  0  0  0  0  0  0  0  0
   11.7642  -20.2636   23.7355 O   0  0  0  0  0  0  0  0  0  0  0  0
   11.0043  -21.1834   24.1265 C   0  0  0  0  0  0  0  0  0  0  0  0
   11.4417  -17.6835   24.9045 O   0  0  0  0  0  0  0  0  0  0  0  0
   12.2076  -18.5483   25.4554 O   0  0  0  0  0  0  0  0  0  0  0  0
   13.0945  -20.3270   24.1047 N   0  0  0  0  0  0  0  0  0  0  0  0
    6.9786  -10.6995   25.9144 C   0  0  0  0  0  0  0  0  0  0  0  0
    6.1706  -11.8344   26.2913 N   0  0  0  0  0  0  0  0  0  0  0  0
    5.0839  -11.6420   26.9899 N   0  0  0  0  0  0  0  0  0  0  0  0
    6.6250  -13.0978   25.8678 C   0  0  0  0  0  0  0  0  0  0  0  0
    7.6022  -13.7917   26.7411 C   0  0  0  0  0  0  0  0  0  0  0  0
    7.9278  -15.1177   26.1911 C   0  0  0  0  0  0  0  0  0  0  0  0
    9.2228  -15.4744   25.6582 C   0  0  1  0  0  0  0  0  0  0  0  0
   10.4012  -15.8981   26.3999 N   0  0  0  0  0  0  0  0  0  0  0  0
   11.4576  -16.3857   25.4580 C   0  0  0  0  0  0  0  0  0  0  0  0
   10.2558  -16.8176   27.5030 O   0  0  0  0  0  0  0  0  0  0  0  0
   10.1626  -16.5441   28.7059 O   0  0  0  0  0  0  0  0  0  0  0  0
  1  2  1  0
  2  3  2  0
  4  2  1  0
  5  4  1  0
  6  5  1  0
  7  6  1  0
  8  9  1  6
  8 10  1  0
  8  7  1  0
 10 11  2  0
 12 10  1  0
 12 13  1  0
 13 17  1  0
 13 14  1  1
 15 14  1  0
 16 15  2  0
 17 18  2  0
 19 15  1  0
 20 21  1  0
 21 22  2  0
 21 23  1  0
 23 24  1  0
 24 25  1  0
 25 26  1  0
 27 26  1  6
 27 29  1  0
 28 17  1  0
 28 27  1  0
 29 30  2  0
 29 31  1  0
M  END
$$$$
