RDR.pdb
     RDKit          3D

 31 30  0  0  1  0  0  0  0  0999 V2000
    7.4298  -14.2765   13.6990 N   0  0  0  0  0  0  0  0  0  0  0  0
    8.0237  -13.7255   14.8869 C   0  0  0  0  0  0  0  0  0  0  0  0
    8.6274  -12.5946   14.8266 N   0  0  0  0  0  0  0  0  0  0  0  0
    7.9237  -14.4508   16.0969 N   0  0  0  0  0  0  0  0  0  0  0  0
    6.9572  -14.1801   17.1099 C   0  0  0  0  0  0  0  0  0  0  0  0
    6.9629  -15.0950   18.2826 C   0  0  0  0  0  0  0  0  0  0  0  0
    7.0727  -14.4677   19.6223 C   0  0  0  0  0  0  0  0  0  0  0  0
    8.4745  -14.0828   20.0382 C   0  0  2  0  0  0  0  0  0  0  0  0
    9.1786  -13.5554   18.8854 N   0  0  0  0  0  0  0  0  0  0  0  0
    9.2314  -15.2444   20.5453 C   0  0  0  0  0  0  0  0  0  0  0  0
    8.8242  -15.8507   21.5579 O   0  0  0  0  0  0  0  0  0  0  0  0
    9.0344  -12.1601   15.6695 N   0  0  0  0  0  0  0  0  0  0  0  0
   10.4411  -15.7413   19.9367 C   0  0  2  0  0  0  0  0  0  0  0  0
   11.1361  -16.8828   20.4671 C   0  0  0  0  0  0  0  0  0  0  0  0
   12.3634  -17.2294   19.6293 C   0  0  0  0  0  0  0  0  0  0  0  0
   12.9170  -18.5414   19.9616 O   0  0  0  0  0  0  0  0  0  0  0  0
   12.3335  -19.3498   20.7248 C   0  0  0  0  0  0  0  0  0  0  0  0
   11.5203  -16.7159   21.8972 O   0  0  0  0  0  0  0  0  0  0  0  0
   12.1201  -15.6519   22.2798 O   0  0  0  0  0  0  0  0  0  0  0  0
   14.1306  -18.9255   19.4235 N   0  0  0  0  0  0  0  0  0  0  0  0
   10.6152  -14.0034   30.0003 C   0  0  0  0  0  0  0  0  0  0  0  0
    9.8529  -14.1323   28.7816 N   0  0  0  0  0  0  0  0  0  0  0  0
    9.5639  -13.0614   28.0918 N   0  0  0  0  0  0  0  0  0  0  0  0
    9.4667  -15.4359   28.4166 C   0  0  0  0  0  0  0  0  0  0  0  0
    9.2359  -15.6932   26.9745 C   0  0  0  0  0  0  0  0  0  0  0  0
   10.4008  -16.3717   26.3834 C   0  0  0  0  0  0  0  0  0  0  0  0
   10.5001  -16.7366   24.9886 C   0  0  1  0  0  0  0  0  0  0  0  0
   11.5810  -17.4605   24.3360 N   0  0  0  0  0  0  0  0  0  0  0  0
   11.2570  -17.6818   22.8914 C   0  0  0  0  0  0  0  0  0  0  0  0
   12.0796  -18.6798   24.9261 O   0  0  0  0  0  0  0  0  0  0  0  0
   11.8490  -19.8410   24.5671 O   0  0  0  0  0  0  0  0  0  0  0  0
  1  2  1  0
  2  3  2  0
  4  2  1  0
  5  4  1  0
  6  5  1  0
  7  6  1  0
  8  9  1  6
  8 10  1  0
  8  7  1  0
 10 11  2  0
 12 10  1  0
 12 13  1  0
 13 17  1  0
 13 14  1  6
 15 14  1  0
 16 15  2  0
 17 18  2  0
 19 15  1  0
 20 21  1  0
 21 22  2  0
 21 23  1  0
 23 24  1  0
 24 25  1  0
 25 26  1  0
 27 26  1  6
 27 29  1  0
 28 17  1  0
 28 27  1  0
 29 30  2  0
 29 31  1  0
M  END
$$$$
