RDR.pdb
     RDKit          3D

 31 30  0  0  1  0  0  0  0  0999 V2000
    8.4942  -12.6122   16.5852 N   0  0  0  0  0  0  0  0  0  0  0  0
    7.6825  -13.7256   16.9961 C   0  0  0  0  0  0  0  0  0  0  0  0
    7.8728  -14.8780   16.4644 N   0  0  0  0  0  0  0  0  0  0  0  0
    6.6909  -13.5172   17.9829 N   0  0  0  0  0  0  0  0  0  0  0  0
    6.9580  -13.4724   19.3830 C   0  0  0  0  0  0  0  0  0  0  0  0
    6.3919  -14.5832   20.1942 C   0  0  0  0  0  0  0  0  0  0  0  0
    7.3598  -15.5067   20.8349 C   0  0  0  0  0  0  0  0  0  0  0  0
    7.6191  -16.7906   20.0794 C   0  0  2  0  0  0  0  0  0  0  0  0
    6.5961  -17.7568   20.4300 N   0  0  0  0  0  0  0  0  0  0  0  0
    8.9330  -17.3697   20.4225 C   0  0  0  0  0  0  0  0  0  0  0  0
    9.0247  -18.1645   21.3809 O   0  0  0  0  0  0  0  0  0  0  0  0
    7.2850  -15.6875   16.7177 N   0  0  0  0  0  0  0  0  0  0  0  0
   10.1511  -17.0734   19.7089 C   0  0  2  0  0  0  0  0  0  0  0  0
   11.4357  -17.4750   20.2145 C   0  0  0  0  0  0  0  0  0  0  0  0
   12.5495  -17.1708   19.2168 C   0  0  0  0  0  0  0  0  0  0  0  0
   13.8452  -17.6956   19.6456 O   0  0  0  0  0  0  0  0  0  0  0  0
   13.9629  -18.7648   20.2932 C   0  0  0  0  0  0  0  0  0  0  0  0
   11.7532  -16.8709   21.5392 O   0  0  0  0  0  0  0  0  0  0  0  0
   11.5587  -15.6214   21.7372 O   0  0  0  0  0  0  0  0  0  0  0  0
   14.9988  -17.0009   19.3348 N   0  0  0  0  0  0  0  0  0  0  0  0
   10.2337  -16.3201   29.6727 C   0  0  0  0  0  0  0  0  0  0  0  0
   10.1010  -14.9878   29.1339 N   0  0  0  0  0  0  0  0  0  0  0  0
    9.8684  -13.9903   29.9446 N   0  0  0  0  0  0  0  0  0  0  0  0
   10.2352  -14.8578   27.7386 C   0  0  0  0  0  0  0  0  0  0  0  0
   10.5952  -16.0790   26.9780 C   0  0  0  0  0  0  0  0  0  0  0  0
   10.6906  -15.7764   25.5406 C   0  0  0  0  0  0  0  0  0  0  0  0
   11.0455  -16.7497   24.5330 C   0  0  2  0  0  0  0  0  0  0  0  0
   12.3716  -17.0397   24.0081 N   0  0  0  0  0  0  0  0  0  0  0  0
   12.2683  -17.6075   22.6268 C   0  0  0  0  0  0  0  0  0  0  0  0
   13.2955  -17.8182   24.7979 O   0  0  0  0  0  0  0  0  0  0  0  0
   13.8302  -18.8914   24.4933 O   0  0  0  0  0  0  0  0  0  0  0  0
  1  2  1  0
  2  3  2  0
  4  2  1  0
  5  4  1  0
  6  5  1  0
  7  6  1  0
  8  9  1  1
  8 10  1  0
  8  7  1  0
 10 11  2  0
 12 10  1  0
 12 13  1  0
 13 17  1  0
 13 14  1  6
 15 14  1  0
 16 15  2  0
 17 18  2  0
 19 15  1  0
 20 21  1  0
 21 22  2  0
 21 23  1  0
 23 24  1  0
 24 25  1  0
 25 26  1  0
 27 26  1  6
 27 29  1  0
 28 17  1  0
 28 27  1  0
 29 30  2  0
 29 31  1  0
M  END
$$$$
