RDR.pdb
     RDKit          3D

 31 30  0  0  1  0  0  0  0  0999 V2000
    9.0900  -22.1980   15.1528 N   0  0  0  0  0  0  0  0  0  0  0  0
    8.2726  -21.6171   14.1224 C   0  0  0  0  0  0  0  0  0  0  0  0
    8.5495  -21.8463   12.8904 N   0  0  0  0  0  0  0  0  0  0  0  0
    7.1781  -20.8045   14.4992 N   0  0  0  0  0  0  0  0  0  0  0  0
    6.9331  -20.3679   15.8345 C   0  0  0  0  0  0  0  0  0  0  0  0
    8.1354  -20.0638   16.6557 C   0  0  0  0  0  0  0  0  0  0  0  0
    8.0685  -18.8629   17.5239 C   0  0  0  0  0  0  0  0  0  0  0  0
    9.0075  -17.7411   17.1418 C   0  0  2  0  0  0  0  0  0  0  0  0
   10.1003  -18.2883   16.3613 N   0  0  0  0  0  0  0  0  0  0  0  0
    9.5800  -17.0799   18.3311 C   0  0  0  0  0  0  0  0  0  0  0  0
   10.6213  -17.5354   18.8478 O   0  0  0  0  0  0  0  0  0  0  0  0
    7.9928  -21.4258   12.1300 N   0  0  0  0  0  0  0  0  0  0  0  0
    9.0051  -15.9134   18.9551 C   0  0  1  0  0  0  0  0  0  0  0  0
    9.5713  -15.3415   20.1466 C   0  0  0  0  0  0  0  0  0  0  0  0
    8.8480  -14.0599   20.5502 C   0  0  0  0  0  0  0  0  0  0  0  0
    7.6582  -13.8081   19.7383 O   0  0  0  0  0  0  0  0  0  0  0  0
    7.4502  -14.3856   18.6430 C   0  0  0  0  0  0  0  0  0  0  0  0
    9.6028  -16.2960   21.2905 O   0  0  0  0  0  0  0  0  0  0  0  0
    8.9912  -17.4172   21.2070 O   0  0  0  0  0  0  0  0  0  0  0  0
    6.7125  -12.9012   20.1777 N   0  0  0  0  0  0  0  0  0  0  0  0
   12.3452  -20.7508   18.8777 C   0  0  0  0  0  0  0  0  0  0  0  0
   11.9393  -21.7434   19.8436 N   0  0  0  0  0  0  0  0  0  0  0  0
   12.2663  -22.9934   19.6520 N   0  0  0  0  0  0  0  0  0  0  0  0
   11.2017  -21.2797   20.9493 C   0  0  0  0  0  0  0  0  0  0  0  0
   10.9531  -19.8200   21.0312 C   0  0  0  0  0  0  0  0  0  0  0  0
   11.9509  -19.1796   21.9036 C   0  0  0  0  0  0  0  0  0  0  0  0
   11.9578  -17.7702   22.2227 C   0  0  2  0  0  0  0  0  0  0  0  0
   11.1191  -17.0752   23.1879 N   0  0  0  0  0  0  0  0  0  0  0  0
   10.2856  -16.0402   22.4985 C   0  0  0  0  0  0  0  0  0  0  0  0
   11.7148  -16.5205   24.3800 O   0  0  0  0  0  0  0  0  0  0  0  0
   12.1307  -15.3678   24.5493 O   0  0  0  0  0  0  0  0  0  0  0  0
  1  2  1  0
  2  3  2  0
  4  2  1  0
  5  4  1  0
  6  5  1  0
  7  6  1  0
  8  9  1  6
  8 10  1  0
  8  7  1  0
 10 11  2  0
 12 10  1  0
 12 13  1  0
 13 17  1  0
 13 14  1  6
 15 14  1  0
 16 15  2  0
 17 18  2  0
 19 15  1  0
 20 21  1  0
 21 22  2  0
 21 23  1  0
 23 24  1  0
 24 25  1  0
 25 26  1  0
 27 26  1  6
 27 29  1  0
 28 17  1  0
 28 27  1  0
 29 30  2  0
 29 31  1  0
M  END
$$$$
