RDR.pdb
     RDKit          3D

 31 30  0  0  1  0  0  0  0  0999 V2000
   14.5461  -17.6558   17.4588 N   0  0  0  0  0  0  0  0  0  0  0  0
   14.4590  -19.0906   17.4252 C   0  0  0  0  0  0  0  0  0  0  0  0
   14.4794  -19.6997   16.2958 N   0  0  0  0  0  0  0  0  0  0  0  0
   14.3537  -19.7947   18.6473 N   0  0  0  0  0  0  0  0  0  0  0  0
   13.1352  -19.9578   19.3698 C   0  0  0  0  0  0  0  0  0  0  0  0
   12.1754  -18.8235   19.3010 C   0  0  0  0  0  0  0  0  0  0  0  0
   12.1965  -17.8579   20.4269 C   0  0  0  0  0  0  0  0  0  0  0  0
   11.0321  -17.9638   21.3856 C   0  0  2  0  0  0  0  0  0  0  0  0
    9.8792  -18.4753   20.6700 N   0  0  0  0  0  0  0  0  0  0  0  0
   10.6724  -16.6499   21.9543 C   0  0  0  0  0  0  0  0  0  0  0  0
   11.5039  -16.0314   22.6507 O   0  0  0  0  0  0  0  0  0  0  0  0
   14.4796  -20.7303   16.2439 N   0  0  0  0  0  0  0  0  0  0  0  0
    9.3932  -16.0134   21.7568 C   0  0  1  0  0  0  0  0  0  0  0  0
    9.0230  -14.8277   22.4811 C   0  0  0  0  0  0  0  0  0  0  0  0
    7.7817  -14.1718   21.8834 C   0  0  0  0  0  0  0  0  0  0  0  0
    7.9955  -13.7125   20.5118 O   0  0  0  0  0  0  0  0  0  0  0  0
    9.1312  -13.6788   19.9774 C   0  0  0  0  0  0  0  0  0  0  0  0
    8.8231  -15.0752   23.9369 O   0  0  0  0  0  0  0  0  0  0  0  0
    8.0539  -16.0210   24.3267 O   0  0  0  0  0  0  0  0  0  0  0  0
    6.9161  -13.2946   19.7566 N   0  0  0  0  0  0  0  0  0  0  0  0
   11.4076  -19.9396   29.3885 C   0  0  0  0  0  0  0  0  0  0  0  0
   11.3307  -18.9111   30.3982 N   0  0  0  0  0  0  0  0  0  0  0  0
   11.6049  -19.2118   31.6394 N   0  0  0  0  0  0  0  0  0  0  0  0
   10.9561  -17.6269   29.9599 C   0  0  0  0  0  0  0  0  0  0  0  0
   10.9298  -17.3939   28.4956 C   0  0  0  0  0  0  0  0  0  0  0  0
   10.5272  -16.0080   28.2056 C   0  0  0  0  0  0  0  0  0  0  0  0
   10.3375  -15.4852   26.8718 C   0  0  2  0  0  0  0  0  0  0  0  0
    9.2712  -14.6117   26.4048 N   0  0  0  0  0  0  0  0  0  0  0  0
    9.4467  -14.3142   24.9483 C   0  0  0  0  0  0  0  0  0  0  0  0
    8.9767  -13.3978   27.1283 O   0  0  0  0  0  0  0  0  0  0  0  0
    9.1824  -12.2337   26.7638 O   0  0  0  0  0  0  0  0  0  0  0  0
  1  2  1  0
  2  3  2  0
  4  2  1  0
  5  4  1  0
  6  5  1  0
  7  6  1  0
  8  9  1  6
  8 10  1  0
  8  7  1  0
 10 11  2  0
 12 10  1  0
 12 13  1  0
 13 17  1  0
 13 14  1  1
 15 14  1  0
 16 15  2  0
 17 18  2  0
 19 15  1  0
 20 21  1  0
 21 22  2  0
 21 23  1  0
 23 24  1  0
 24 25  1  0
 25 26  1  0
 27 26  1  6
 27 29  1  0
 28 17  1  0
 28 27  1  0
 29 30  2  0
 29 31  1  0
M  END
$$$$
