RDR.pdb
     RDKit          3D

 31 30  0  0  1  0  0  0  0  0999 V2000
   10.0964  -16.6948   14.2423 N   0  0  0  0  0  0  0  0  0  0  0  0
   11.0355  -16.4142   15.2943 C   0  0  0  0  0  0  0  0  0  0  0  0
   12.2614  -16.7696   15.1598 N   0  0  0  0  0  0  0  0  0  0  0  0
   10.5779  -15.7488   16.4554 N   0  0  0  0  0  0  0  0  0  0  0  0
    9.2150  -15.3996   16.6880 C   0  0  0  0  0  0  0  0  0  0  0  0
    8.9471  -14.5715   17.8942 C   0  0  0  0  0  0  0  0  0  0  0  0
    7.5283  -14.2542   18.1884 C   0  0  0  0  0  0  0  0  0  0  0  0
    7.3040  -13.3786   19.4006 C   0  0  2  0  0  0  0  0  0  0  0  0
    7.8980  -12.0783   19.1572 N   0  0  0  0  0  0  0  0  0  0  0  0
    7.9304  -13.9495   20.6093 C   0  0  0  0  0  0  0  0  0  0  0  0
    9.0813  -13.5912   20.9346 O   0  0  0  0  0  0  0  0  0  0  0  0
   12.9546  -16.5907   15.9031 N   0  0  0  0  0  0  0  0  0  0  0  0
    7.2888  -14.9185   21.4638 C   0  0  2  0  0  0  0  0  0  0  0  0
    7.9282  -15.4130   22.6529 C   0  0  0  0  0  0  0  0  0  0  0  0
    6.9990  -16.3241   23.4499 C   0  0  0  0  0  0  0  0  0  0  0  0
    7.6101  -16.8023   24.6893 O   0  0  0  0  0  0  0  0  0  0  0  0
    8.7774  -16.4929   25.0329 C   0  0  0  0  0  0  0  0  0  0  0  0
    9.2155  -16.1096   22.3733 O   0  0  0  0  0  0  0  0  0  0  0  0
    9.2241  -17.1887   21.6851 O   0  0  0  0  0  0  0  0  0  0  0  0
    6.8893  -17.6292   25.5300 N   0  0  0  0  0  0  0  0  0  0  0  0
   18.2934  -15.1873   19.1856 C   0  0  0  0  0  0  0  0  0  0  0  0
   17.0087  -14.5969   19.4752 N   0  0  0  0  0  0  0  0  0  0  0  0
   16.7902  -13.3504   19.1517 N   0  0  0  0  0  0  0  0  0  0  0  0
   16.0614  -15.4289   20.1014 C   0  0  0  0  0  0  0  0  0  0  0  0
   14.7495  -14.8248   20.4378 C   0  0  0  0  0  0  0  0  0  0  0  0
   13.9274  -15.7793   21.1994 C   0  0  0  0  0  0  0  0  0  0  0  0
   12.6135  -15.4769   21.7197 C   0  0  2  0  0  0  0  0  0  0  0  0
   11.7518  -16.3430   22.5105 N   0  0  0  0  0  0  0  0  0  0  0  0
   10.4670  -15.6436   22.8285 C   0  0  0  0  0  0  0  0  0  0  0  0
   12.2766  -16.9813   23.6940 O   0  0  0  0  0  0  0  0  0  0  0  0
   11.9473  -16.7790   24.8692 O   0  0  0  0  0  0  0  0  0  0  0  0
  1  2  1  0
  2  3  2  0
  4  2  1  0
  5  4  1  0
  6  5  1  0
  7  6  1  0
  8  9  1  6
  8 10  1  0
  8  7  1  0
 10 11  2  0
 12 10  1  0
 12 13  1  0
 13 17  1  0
 13 14  1  6
 15 14  1  0
 16 15  2  0
 17 18  2  0
 19 15  1  0
 20 21  1  0
 21 22  2  0
 21 23  1  0
 23 24  1  0
 24 25  1  0
 25 26  1  0
 27 26  1  6
 27 29  1  0
 28 17  1  0
 28 27  1  0
 29 30  2  0
 29 31  1  0
M  END
$$$$
