RDR.pdb
     RDKit          3D

 31 30  0  0  1  0  0  0  0  0999 V2000
    8.5521  -12.8747   13.4106 N   0  0  0  0  0  0  0  0  0  0  0  0
    8.3644  -13.9497   14.3468 C   0  0  0  0  0  0  0  0  0  0  0  0
    8.0857  -15.1251   13.9134 N   0  0  0  0  0  0  0  0  0  0  0  0
    8.4943  -13.6789   15.7289 N   0  0  0  0  0  0  0  0  0  0  0  0
    8.3154  -14.6561   16.7520 C   0  0  0  0  0  0  0  0  0  0  0  0
    9.2013  -15.8488   16.6814 C   0  0  0  0  0  0  0  0  0  0  0  0
   10.3243  -15.9083   17.6487 C   0  0  0  0  0  0  0  0  0  0  0  0
   11.2241  -17.1161   17.5146 C   0  0  2  0  0  0  0  0  0  0  0  0
   10.5034  -18.1639   16.8178 N   0  0  0  0  0  0  0  0  0  0  0  0
   11.6338  -17.6402   18.8324 C   0  0  0  0  0  0  0  0  0  0  0  0
   10.8130  -18.2775   19.5243 O   0  0  0  0  0  0  0  0  0  0  0  0
    8.0070  -15.9278   14.5573 N   0  0  0  0  0  0  0  0  0  0  0  0
   12.9514  -17.4626   19.3920 C   0  0  1  0  0  0  0  0  0  0  0  0
   13.2770  -17.9288   20.7126 C   0  0  0  0  0  0  0  0  0  0  0  0
   14.7768  -17.8455   20.9813 C   0  0  0  0  0  0  0  0  0  0  0  0
   15.5531  -18.7198   20.1032 O   0  0  0  0  0  0  0  0  0  0  0  0
   16.6793  -18.3988   19.6504 C   0  0  0  0  0  0  0  0  0  0  0  0
   12.5228  -17.2164   21.7823 O   0  0  0  0  0  0  0  0  0  0  0  0
   12.6844  -15.9580   21.9511 O   0  0  0  0  0  0  0  0  0  0  0  0
   15.0435  -19.9537   19.7459 N   0  0  0  0  0  0  0  0  0  0  0  0
    6.0602  -13.1705   21.5286 C   0  0  0  0  0  0  0  0  0  0  0  0
    7.4793  -12.9931   21.3343 N   0  0  0  0  0  0  0  0  0  0  0  0
    7.9017  -12.0735   20.5085 N   0  0  0  0  0  0  0  0  0  0  0  0
    8.3256  -13.8462   22.0677 C   0  0  0  0  0  0  0  0  0  0  0  0
    7.6768  -14.8371   22.9602 C   0  0  0  0  0  0  0  0  0  0  0  0
    8.6942  -15.6085   23.6927 C   0  0  0  0  0  0  0  0  0  0  0  0
    9.6769  -16.4561   23.0567 C   0  0  2  0  0  0  0  0  0  0  0  0
   10.8191  -17.1101   23.6777 N   0  0  0  0  0  0  0  0  0  0  0  0
   11.6108  -17.8554   22.6487 C   0  0  0  0  0  0  0  0  0  0  0  0
   10.6194  -17.9353   24.8450 O   0  0  0  0  0  0  0  0  0  0  0  0
   10.9145  -19.1285   24.9849 O   0  0  0  0  0  0  0  0  0  0  0  0
  1  2  1  0
  2  3  2  0
  4  2  1  0
  5  4  1  0
  6  5  1  0
  7  6  1  0
  8  9  1  1
  8 10  1  0
  8  7  1  0
 10 11  2  0
 12 10  1  0
 12 13  1  0
 13 17  1  0
 13 14  1  6
 15 14  1  0
 16 15  2  0
 17 18  2  0
 19 15  1  0
 20 21  1  0
 21 22  2  0
 21 23  1  0
 23 24  1  0
 24 25  1  0
 25 26  1  0
 27 26  1  6
 27 29  1  0
 28 17  1  0
 28 27  1  0
 29 30  2  0
 29 31  1  0
M  END
$$$$
