YIS.pdb
     RDKit          3D

 27 27  0  0  1  0  0  0  0  0999 V2000
    7.0408  -13.5492   15.4314 O   0  0  0  0  0  0  0  0  0  0  0  0
    7.1944  -13.9154   16.7681 C   0  0  0  0  0  0  0  0  0  0  0  0
    8.2338  -13.4363   17.5355 C   0  0  0  0  0  0  0  0  0  0  0  0
    8.3898  -13.7933   18.8512 C   0  0  0  0  0  0  0  0  0  0  0  0
    7.5102  -14.6527   19.4728 C   0  0  0  0  0  0  0  0  0  0  0  0
    7.6468  -15.0580   20.8842 C   0  0  0  0  0  0  0  0  0  0  0  0
    8.8197  -14.3270   21.5526 C   0  0  2  0  0  0  0  0  0  0  0  0
   10.0128  -14.7290   20.8800 N   0  0  0  0  0  0  0  0  0  0  0  0
    8.8361  -14.6248   23.0110 C   0  0  0  0  0  0  0  0  0  0  0  0
    9.7505  -15.3735   23.4295 O   0  0  0  0  0  0  0  0  0  0  0  0
    6.4592  -15.1422   18.7110 C   0  0  0  0  0  0  0  0  0  0  0  0
    6.3120  -14.7767   17.3894 C   0  0  0  0  0  0  0  0  0  0  0  0
    5.9407  -11.2078   26.3795 C   0  0  0  0  0  0  0  0  0  0  0  0
    7.0455  -12.0012   25.7386 C   0  0  0  0  0  0  0  0  0  0  0  0
    7.0597  -13.4393   26.1018 C   0  0  2  0  0  0  0  0  0  0  0  0
    7.1738  -13.5090   27.6174 C   0  0  0  0  0  0  0  0  0  0  0  0
    7.9324  -14.3448   25.3483 C   0  0  2  0  0  0  0  0  0  0  0  0
    7.8862  -14.1094   23.9148 N   0  0  0  0  0  0  0  0  0  0  0  0
    7.9438  -15.7731   25.7162 C   0  0  0  0  0  0  0  0  0  0  0  0
    6.9127  -16.4492   25.5485 O   0  0  0  0  0  0  0  0  0  0  0  0
   11.1473  -18.2480   25.5373 O   0  0  0  0  0  0  0  0  0  0  0  0
    9.8287  -18.6723   25.6520 C   0  0  0  0  0  0  0  0  0  0  0  0
    9.0362  -17.8481   26.6196 C   0  0  2  0  0  0  0  0  0  0  0  0
    9.0761  -16.4212   26.2596 N   0  0  0  0  0  0  0  0  0  0  0  0
    9.5018  -18.0284   28.0270 C   0  0  0  0  0  0  0  0  0  0  0  0
    9.8859  -17.0221   28.6753 O   0  0  0  0  0  0  0  0  0  0  0  0
    9.5298  -19.2544   28.6509 O   0  0  0  0  0  0  0  0  0  0  0  0
  2  3  2  0
  2  1  1  0
  4  3  1  0
  5  4  2  0
  6  5  1  0
  7  9  1  0
  7  6  1  0
  7  8  1  6
  9 18  1  0
 10  9  2  0
 11  5  1  0
 11 12  2  0
 12  2  1  0
 13 14  1  0
 15 17  1  0
 15 14  1  0
 15 16  1  1
 17 18  1  6
 19 20  2  0
 19 17  1  0
 22 21  1  0
 23 24  1  0
 23 22  1  6
 24 19  1  0
 25 23  1  0
 26 25  2  0
 27 25  1  0
M  END
$$$$
