YIS.pdb
     RDKit          3D

 27 27  0  0  1  0  0  0  0  0999 V2000
    6.7429  -18.7726   15.9105 O   0  0  0  0  0  0  0  0  0  0  0  0
    7.1686  -18.4164   17.1898 C   0  0  0  0  0  0  0  0  0  0  0  0
    8.4574  -18.6525   17.6164 C   0  0  0  0  0  0  0  0  0  0  0  0
    8.8815  -18.3042   18.8739 C   0  0  0  0  0  0  0  0  0  0  0  0
    8.0352  -17.6981   19.7767 C   0  0  0  0  0  0  0  0  0  0  0  0
    8.4565  -17.3102   21.1357 C   0  0  0  0  0  0  0  0  0  0  0  0
    8.7678  -15.8085   21.2047 C   0  0  2  0  0  0  0  0  0  0  0  0
    9.8391  -15.5521   20.2968 N   0  0  0  0  0  0  0  0  0  0  0  0
    9.0784  -15.4204   22.6078 C   0  0  0  0  0  0  0  0  0  0  0  0
   10.2352  -15.6660   23.0244 O   0  0  0  0  0  0  0  0  0  0  0  0
    6.7347  -17.4548   19.3595 C   0  0  0  0  0  0  0  0  0  0  0  0
    6.3190  -17.8091   18.0932 C   0  0  0  0  0  0  0  0  0  0  0  0
    7.0206  -11.6541   27.0968 C   0  0  0  0  0  0  0  0  0  0  0  0
    7.8600  -12.8403   26.7108 C   0  0  0  0  0  0  0  0  0  0  0  0
    7.6287  -13.3340   25.3313 C   0  0  2  0  0  0  0  0  0  0  0  0
    6.1223  -13.4522   25.1534 C   0  0  0  0  0  0  0  0  0  0  0  0
    8.4247  -14.4666   24.8486 C   0  0  2  0  0  0  0  0  0  0  0  0
    8.1442  -14.8029   23.4627 N   0  0  0  0  0  0  0  0  0  0  0  0
    8.5741  -15.6420   25.7271 C   0  0  0  0  0  0  0  0  0  0  0  0
    7.6003  -16.3978   25.8972 O   0  0  0  0  0  0  0  0  0  0  0  0
   12.0717  -17.5721   26.1838 O   0  0  0  0  0  0  0  0  0  0  0  0
   10.8533  -18.1551   26.5115 C   0  0  0  0  0  0  0  0  0  0  0  0
    9.9126  -17.1981   27.1770 C   0  0  2  0  0  0  0  0  0  0  0  0
    9.7779  -15.9566   26.3974 N   0  0  0  0  0  0  0  0  0  0  0  0
   10.3309  -16.8759   28.5738 C   0  0  0  0  0  0  0  0  0  0  0  0
   10.4893  -15.6722   28.9001 O   0  0  0  0  0  0  0  0  0  0  0  0
   10.5526  -17.8434   29.5267 O   0  0  0  0  0  0  0  0  0  0  0  0
  2  3  2  0
  2  1  1  0
  4  3  1  0
  5  4  2  0
  6  5  1  0
  7  9  1  0
  7  6  1  0
  7  8  1  6
  9 18  1  0
 10  9  2  0
 11  5  1  0
 11 12  2  0
 12  2  1  0
 13 14  1  0
 15 17  1  0
 15 14  1  0
 15 16  1  1
 17 18  1  6
 19 20  2  0
 19 17  1  0
 22 21  1  0
 23 24  1  0
 23 22  1  6
 24 19  1  0
 25 23  1  0
 26 25  2  0
 27 25  1  0
M  END
$$$$
