YIS.pdb
     RDKit          3D

 27 27  0  0  1  0  0  0  0  0999 V2000
    5.9969  -10.6485   28.2820 O   0  0  0  0  0  0  0  0  0  0  0  0
    6.4343  -11.8216   27.6679 C   0  0  0  0  0  0  0  0  0  0  0  0
    5.7563  -12.3795   26.6059 C   0  0  0  0  0  0  0  0  0  0  0  0
    6.1822  -13.5335   25.9979 C   0  0  0  0  0  0  0  0  0  0  0  0
    7.3145  -14.1946   26.4216 C   0  0  0  0  0  0  0  0  0  0  0  0
    7.8013  -15.4363   25.7922 C   0  0  0  0  0  0  0  0  0  0  0  0
    6.7786  -15.9757   24.7825 C   0  0  2  0  0  0  0  0  0  0  0  0
    6.1676  -17.1261   25.3662 N   0  0  0  0  0  0  0  0  0  0  0  0
    7.4505  -16.2595   23.4848 C   0  0  0  0  0  0  0  0  0  0  0  0
    7.6540  -17.4633   23.1996 O   0  0  0  0  0  0  0  0  0  0  0  0
    8.0063  -13.6430   27.4902 C   0  0  0  0  0  0  0  0  0  0  0  0
    7.5693  -12.4827   28.0938 C   0  0  0  0  0  0  0  0  0  0  0  0
    7.2400  -12.2022   19.8596 C   0  0  0  0  0  0  0  0  0  0  0  0
    7.0901  -13.6136   20.3556 C   0  0  0  0  0  0  0  0  0  0  0  0
    8.3487  -14.3987   20.3645 C   0  0  2  0  0  0  0  0  0  0  0  0
    8.6905  -14.6981   18.9125 C   0  0  0  0  0  0  0  0  0  0  0  0
    8.4683  -15.5223   21.2988 C   0  0  2  0  0  0  0  0  0  0  0  0
    7.8556  -15.2508   22.5885 N   0  0  0  0  0  0  0  0  0  0  0  0
    9.7642  -16.2206   21.3914 C   0  0  0  0  0  0  0  0  0  0  0  0
   10.6834  -15.7049   22.0528 O   0  0  0  0  0  0  0  0  0  0  0  0
   10.2258  -20.1406   20.2387 O   0  0  0  0  0  0  0  0  0  0  0  0
   11.2122  -19.5796   21.0414 C   0  0  0  0  0  0  0  0  0  0  0  0
   11.3428  -18.0997   20.8511 C   0  0  2  0  0  0  0  0  0  0  0  0
   10.0216  -17.4572   20.7573 N   0  0  0  0  0  0  0  0  0  0  0  0
   12.1595  -17.7559   19.6490 C   0  0  0  0  0  0  0  0  0  0  0  0
   11.6224  -17.1144   18.7108 O   0  0  0  0  0  0  0  0  0  0  0  0
   13.4823  -18.1120   19.5208 O   0  0  0  0  0  0  0  0  0  0  0  0
  2  3  2  0
  2  1  1  0
  4  3  1  0
  5  4  2  0
  6  5  1  0
  7  9  1  0
  7  6  1  0
  7  8  1  1
  9 18  1  0
 10  9  2  0
 11  5  1  0
 11 12  2  0
 12  2  1  0
 13 14  1  0
 15 17  1  0
 15 14  1  0
 15 16  1  6
 17 18  1  1
 19 20  2  0
 19 17  1  0
 22 21  1  0
 23 24  1  0
 23 22  1  6
 24 19  1  0
 25 23  1  0
 26 25  2  0
 27 25  1  0
M  END
$$$$
