YIS.pdb
     RDKit          3D

 27 27  0  0  1  0  0  0  0  0999 V2000
    7.6083  -14.3206   15.4959 O   0  0  0  0  0  0  0  0  0  0  0  0
    7.8541  -14.1534   16.8583 C   0  0  0  0  0  0  0  0  0  0  0  0
    7.2158  -13.1796   17.5954 C   0  0  0  0  0  0  0  0  0  0  0  0
    7.4539  -13.0107   18.9361 C   0  0  0  0  0  0  0  0  0  0  0  0
    8.3473  -13.8105   19.6148 C   0  0  0  0  0  0  0  0  0  0  0  0
    8.6278  -13.6576   21.0546 C   0  0  0  0  0  0  0  0  0  0  0  0
    8.5689  -15.0141   21.7709 C   0  0  2  0  0  0  0  0  0  0  0  0
    7.2307  -15.4982   21.6597 N   0  0  0  0  0  0  0  0  0  0  0  0
    9.0259  -14.8624   23.1794 C   0  0  0  0  0  0  0  0  0  0  0  0
   10.2436  -14.6259   23.3612 O   0  0  0  0  0  0  0  0  0  0  0  0
    8.9966  -14.7949   18.8840 C   0  0  0  0  0  0  0  0  0  0  0  0
    8.7498  -14.9559   17.5369 C   0  0  0  0  0  0  0  0  0  0  0  0
    6.1873  -11.9906   26.5445 C   0  0  0  0  0  0  0  0  0  0  0  0
    7.3109  -12.6762   25.8177 C   0  0  0  0  0  0  0  0  0  0  0  0
    7.7763  -13.9337   26.4523 C   0  0  2  0  0  0  0  0  0  0  0  0
    8.3113  -13.5607   27.8270 C   0  0  0  0  0  0  0  0  0  0  0  0
    8.6063  -14.8512   25.6658 C   0  0  2  0  0  0  0  0  0  0  0  0
    8.1622  -14.9721   24.2872 N   0  0  0  0  0  0  0  0  0  0  0  0
    9.0042  -16.1334   26.2768 C   0  0  0  0  0  0  0  0  0  0  0  0
    8.1234  -16.9589   26.5785 O   0  0  0  0  0  0  0  0  0  0  0  0
   12.6170  -17.4330   25.7177 O   0  0  0  0  0  0  0  0  0  0  0  0
   11.9017  -18.3692   26.4551 C   0  0  0  0  0  0  0  0  0  0  0  0
   10.6993  -17.7818   27.1280 C   0  0  2  0  0  0  0  0  0  0  0  0
   10.3488  -16.4762   26.5450 N   0  0  0  0  0  0  0  0  0  0  0  0
   10.8901  -17.6430   28.6025 C   0  0  0  0  0  0  0  0  0  0  0  0
   10.7965  -16.5031   29.1244 O   0  0  0  0  0  0  0  0  0  0  0  0
   11.1657  -18.7135   29.4218 O   0  0  0  0  0  0  0  0  0  0  0  0
  2  3  2  0
  2  1  1  0
  4  3  1  0
  5  4  2  0
  6  5  1  0
  7  9  1  0
  7  6  1  0
  7  8  1  1
  9 18  1  0
 10  9  2  0
 11  5  1  0
 11 12  2  0
 12  2  1  0
 13 14  1  0
 15 17  1  0
 15 14  1  0
 15 16  1  1
 17 18  1  6
 19 20  2  0
 19 17  1  0
 22 21  1  0
 23 24  1  0
 23 22  1  6
 24 19  1  0
 25 23  1  0
 26 25  2  0
 27 25  1  0
M  END
$$$$
