YIS.pdb
     RDKit          3D

 27 27  0  0  1  0  0  0  0  0999 V2000
   10.2697  -14.1913   31.1631 O   0  0  0  0  0  0  0  0  0  0  0  0
   10.1308  -14.6148   29.8417 C   0  0  0  0  0  0  0  0  0  0  0  0
   10.5740  -15.8519   29.4271 C   0  0  0  0  0  0  0  0  0  0  0  0
   10.4399  -16.2737   28.1284 C   0  0  0  0  0  0  0  0  0  0  0  0
    9.8524  -15.4769   27.1700 C   0  0  0  0  0  0  0  0  0  0  0  0
    9.6916  -15.8973   25.7656 C   0  0  0  0  0  0  0  0  0  0  0  0
    8.2199  -16.1982   25.4493 C   0  0  2  0  0  0  0  0  0  0  0  0
    7.8691  -17.3940   26.1454 N   0  0  0  0  0  0  0  0  0  0  0  0
    8.0290  -16.2960   23.9762 C   0  0  0  0  0  0  0  0  0  0  0  0
    7.9878  -17.4475   23.4820 O   0  0  0  0  0  0  0  0  0  0  0  0
    9.4018  -14.2287   27.5746 C   0  0  0  0  0  0  0  0  0  0  0  0
    9.5417  -13.8149   28.8826 C   0  0  0  0  0  0  0  0  0  0  0  0
    7.0760  -12.6684   18.9645 C   0  0  0  0  0  0  0  0  0  0  0  0
    7.6337  -13.9366   19.5489 C   0  0  0  0  0  0  0  0  0  0  0  0
    7.6157  -13.9900   21.0311 C   0  0  2  0  0  0  0  0  0  0  0  0
    8.2603  -12.7034   21.5254 C   0  0  0  0  0  0  0  0  0  0  0  0
    8.0497  -15.2234   21.6943 C   0  0  2  0  0  0  0  0  0  0  0  0
    7.8964  -15.1709   23.1387 N   0  0  0  0  0  0  0  0  0  0  0  0
    9.3100  -15.8494   21.2525 C   0  0  0  0  0  0  0  0  0  0  0  0
   10.3827  -15.4710   21.7571 O   0  0  0  0  0  0  0  0  0  0  0  0
   11.6807  -19.7211   19.9312 O   0  0  0  0  0  0  0  0  0  0  0  0
   10.5263  -19.0226   20.2650 C   0  0  0  0  0  0  0  0  0  0  0  0
   10.6266  -17.5587   19.9642 C   0  0  2  0  0  0  0  0  0  0  0  0
    9.3649  -16.8653   20.2715 N   0  0  0  0  0  0  0  0  0  0  0  0
   11.0139  -17.3001   18.5453 C   0  0  0  0  0  0  0  0  0  0  0  0
   12.1318  -17.7036   18.1357 O   0  0  0  0  0  0  0  0  0  0  0  0
   10.1971  -16.6355   17.6597 O   0  0  0  0  0  0  0  0  0  0  0  0
  2  3  2  0
  2  1  1  0
  4  3  1  0
  5  4  2  0
  6  5  1  0
  7  9  1  0
  7  6  1  0
  7  8  1  1
  9 18  1  0
 10  9  2  0
 11  5  1  0
 11 12  2  0
 12  2  1  0
 13 14  1  0
 15 17  1  0
 15 14  1  0
 15 16  1  1
 17 18  1  1
 19 20  2  0
 19 17  1  0
 22 21  1  0
 23 24  1  0
 23 22  1  6
 24 19  1  0
 25 23  1  0
 26 25  2  0
 27 25  1  0
M  END
$$$$
