YIS.pdb
     RDKit          3D

 27 27  0  0  1  0  0  0  0  0999 V2000
   10.2718  -14.4320   31.0478 O   0  0  0  0  0  0  0  0  0  0  0  0
   10.0975  -14.7446   29.7000 C   0  0  0  0  0  0  0  0  0  0  0  0
    9.6285  -13.8164   28.7960 C   0  0  0  0  0  0  0  0  0  0  0  0
    9.4550  -14.1185   27.4688 C   0  0  0  0  0  0  0  0  0  0  0  0
    9.7428  -15.3713   26.9723 C   0  0  0  0  0  0  0  0  0  0  0  0
    9.5686  -15.7311   25.5528 C   0  0  0  0  0  0  0  0  0  0  0  0
    8.0868  -15.6854   25.1543 C   0  0  2  0  0  0  0  0  0  0  0  0
    7.4021  -16.6586   25.9426 N   0  0  0  0  0  0  0  0  0  0  0  0
    7.9500  -15.9111   23.6892 C   0  0  0  0  0  0  0  0  0  0  0  0
    7.5499  -17.0410   23.3216 O   0  0  0  0  0  0  0  0  0  0  0  0
   10.2158  -16.3150   27.8725 C   0  0  0  0  0  0  0  0  0  0  0  0
   10.3863  -16.0006   29.2043 C   0  0  0  0  0  0  0  0  0  0  0  0
    7.3543  -11.6051   20.2534 C   0  0  0  0  0  0  0  0  0  0  0  0
    7.1917  -12.9350   20.9358 C   0  0  0  0  0  0  0  0  0  0  0  0
    8.1495  -13.9759   20.4892 C   0  0  2  0  0  0  0  0  0  0  0  0
    7.9073  -14.1873   19.0020 C   0  0  0  0  0  0  0  0  0  0  0  0
    8.2925  -15.1909   21.2971 C   0  0  2  0  0  0  0  0  0  0  0  0
    8.2459  -14.9269   22.7256 N   0  0  0  0  0  0  0  0  0  0  0  0
    9.3211  -16.1736   20.9074 C   0  0  0  0  0  0  0  0  0  0  0  0
   10.4975  -15.9944   21.2712 O   0  0  0  0  0  0  0  0  0  0  0  0
    8.3770  -19.8629   19.3499 O   0  0  0  0  0  0  0  0  0  0  0  0
    9.6748  -19.6631   19.8056 C   0  0  0  0  0  0  0  0  0  0  0  0
   10.1113  -18.2338   19.7050 C   0  0  2  0  0  0  0  0  0  0  0  0
    9.0387  -17.3193   20.1297 N   0  0  0  0  0  0  0  0  0  0  0  0
   10.5636  -17.8783   18.3269 C   0  0  0  0  0  0  0  0  0  0  0  0
    9.9123  -17.0245   17.6732 O   0  0  0  0  0  0  0  0  0  0  0  0
   11.6685  -18.4467   17.7358 O   0  0  0  0  0  0  0  0  0  0  0  0
  2  3  2  0
  2  1  1  0
  4  3  1  0
  5  4  2  0
  6  5  1  0
  7  9  1  0
  7  6  1  0
  7  8  1  1
  9 18  1  0
 10  9  2  0
 11  5  1  0
 11 12  2  0
 12  2  1  0
 13 14  1  0
 15 17  1  0
 15 14  1  0
 15 16  1  6
 17 18  1  1
 19 20  2  0
 19 17  1  0
 22 21  1  0
 23 24  1  0
 23 22  1  6
 24 19  1  0
 25 23  1  0
 26 25  2  0
 27 25  1  0
M  END
$$$$
