YIS.pdb
     RDKit          3D

 27 27  0  0  1  0  0  0  0  0999 V2000
    7.3774  -13.6868   15.1807 O   0  0  0  0  0  0  0  0  0  0  0  0
    7.3978  -14.0070   16.5378 C   0  0  0  0  0  0  0  0  0  0  0  0
    7.3012  -15.3098   16.9763 C   0  0  0  0  0  0  0  0  0  0  0  0
    7.3207  -15.6304   18.3103 C   0  0  0  0  0  0  0  0  0  0  0  0
    7.4385  -14.6605   19.2819 C   0  0  0  0  0  0  0  0  0  0  0  0
    7.4630  -14.9684   20.7240 C   0  0  0  0  0  0  0  0  0  0  0  0
    8.8192  -14.5973   21.3401 C   0  0  2  0  0  0  0  0  0  0  0  0
    9.8257  -15.3018   20.6134 N   0  0  0  0  0  0  0  0  0  0  0  0
    8.8157  -14.9092   22.7957 C   0  0  0  0  0  0  0  0  0  0  0  0
    9.5860  -15.8183   23.1856 O   0  0  0  0  0  0  0  0  0  0  0  0
    7.5367  -13.3447   18.8535 C   0  0  0  0  0  0  0  0  0  0  0  0
    7.5160  -13.0337   17.5102 C   0  0  0  0  0  0  0  0  0  0  0  0
    6.9193  -11.9981   27.9918 C   0  0  0  0  0  0  0  0  0  0  0  0
    7.6186  -13.1699   27.3604 C   0  0  0  0  0  0  0  0  0  0  0  0
    7.4673  -13.2548   25.8872 C   0  0  2  0  0  0  0  0  0  0  0  0
    5.9769  -13.1720   25.5927 C   0  0  0  0  0  0  0  0  0  0  0  0
    8.2097  -14.2919   25.1642 C   0  0  2  0  0  0  0  0  0  0  0  0
    7.9995  -14.2375   23.7270 N   0  0  0  0  0  0  0  0  0  0  0  0
    8.2138  -15.6610   25.7129 C   0  0  0  0  0  0  0  0  0  0  0  0
    7.1562  -16.3166   25.7110 O   0  0  0  0  0  0  0  0  0  0  0  0
   11.4426  -18.0833   25.7195 O   0  0  0  0  0  0  0  0  0  0  0  0
   10.1604  -18.5711   25.9429 C   0  0  0  0  0  0  0  0  0  0  0  0
    9.3256  -17.6480   26.7763 C   0  0  2  0  0  0  0  0  0  0  0  0
    9.3682  -16.2732   26.2513 N   0  0  0  0  0  0  0  0  0  0  0  0
    9.7390  -17.6550   28.2112 C   0  0  0  0  0  0  0  0  0  0  0  0
   10.0312  -16.5656   28.7664 O   0  0  0  0  0  0  0  0  0  0  0  0
    9.8153  -18.8077   28.9586 O   0  0  0  0  0  0  0  0  0  0  0  0
  2  3  2  0
  2  1  1  0
  4  3  1  0
  5  4  2  0
  6  5  1  0
  7  9  1  0
  7  6  1  0
  7  8  1  6
  9 18  1  0
 10  9  2  0
 11  5  1  0
 11 12  2  0
 12  2  1  0
 13 14  1  0
 15 17  1  0
 15 14  1  0
 15 16  1  1
 17 18  1  6
 19 20  2  0
 19 17  1  0
 22 21  1  0
 23 24  1  0
 23 22  1  6
 24 19  1  0
 25 23  1  0
 26 25  2  0
 27 25  1  0
M  END
$$$$
