YIS.pdb
     RDKit          3D

 27 27  0  0  1  0  0  0  0  0999 V2000
    1.2789  -19.6312   19.8278 O   0  0  0  0  0  0  0  0  0  0  0  0
    2.3981  -19.1948   20.5361 C   0  0  0  0  0  0  0  0  0  0  0  0
    3.2166  -18.1966   20.0539 C   0  0  0  0  0  0  0  0  0  0  0  0
    4.3190  -17.7633   20.7465 C   0  0  0  0  0  0  0  0  0  0  0  0
    4.6634  -18.3078   21.9646 C   0  0  0  0  0  0  0  0  0  0  0  0
    5.8403  -17.8672   22.7363 C   0  0  0  0  0  0  0  0  0  0  0  0
    6.4645  -16.6107   22.1132 C   0  0  2  0  0  0  0  0  0  0  0  0
    6.9556  -16.9726   20.8228 N   0  0  0  0  0  0  0  0  0  0  0  0
    7.5182  -16.0693   23.0146 C   0  0  0  0  0  0  0  0  0  0  0  0
    8.7068  -16.3588   22.7402 O   0  0  0  0  0  0  0  0  0  0  0  0
    3.8473  -19.3138   22.4611 C   0  0  0  0  0  0  0  0  0  0  0  0
    2.7417  -19.7416   21.7566 C   0  0  0  0  0  0  0  0  0  0  0  0
    8.3961  -12.0247   27.6789 C   0  0  0  0  0  0  0  0  0  0  0  0
    8.7725  -13.3270   27.0284 C   0  0  0  0  0  0  0  0  0  0  0  0
    7.9025  -13.7211   25.8934 C   0  0  2  0  0  0  0  0  0  0  0  0
    6.4649  -13.5641   26.3662 C   0  0  0  0  0  0  0  0  0  0  0  0
    8.2106  -14.9582   25.1696 C   0  0  2  0  0  0  0  0  0  0  0  0
    7.2359  -15.2643   24.1358 N   0  0  0  0  0  0  0  0  0  0  0  0
    8.6420  -16.1351   25.9471 C   0  0  0  0  0  0  0  0  0  0  0  0
    7.7797  -16.8624   26.4724 O   0  0  0  0  0  0  0  0  0  0  0  0
   11.2535  -18.4367   24.6792 O   0  0  0  0  0  0  0  0  0  0  0  0
   11.4583  -18.4488   26.0539 C   0  0  0  0  0  0  0  0  0  0  0  0
   10.3790  -17.7343   26.8075 C   0  0  2  0  0  0  0  0  0  0  0  0
    9.9994  -16.4821   26.1330 N   0  0  0  0  0  0  0  0  0  0  0  0
   10.7715  -17.4497   28.2200 C   0  0  0  0  0  0  0  0  0  0  0  0
   10.7678  -16.2597   28.6253 O   0  0  0  0  0  0  0  0  0  0  0  0
   11.1397  -18.4375   29.1041 O   0  0  0  0  0  0  0  0  0  0  0  0
  2  3  2  0
  2  1  1  0
  4  3  1  0
  5  4  2  0
  6  5  1  0
  7  9  1  0
  7  6  1  0
  7  8  1  6
  9 18  1  0
 10  9  2  0
 11  5  1  0
 11 12  2  0
 12  2  1  0
 13 14  1  0
 15 17  1  0
 15 14  1  0
 15 16  1  1
 17 18  1  1
 19 20  2  0
 19 17  1  0
 22 21  1  0
 23 24  1  0
 23 22  1  6
 24 19  1  0
 25 23  1  0
 26 25  2  0
 27 25  1  0
M  END
$$$$
