YIS.pdb
     RDKit          3D

 27 27  0  0  1  0  0  0  0  0999 V2000
   12.0213  -16.0421   32.5296 O   0  0  0  0  0  0  0  0  0  0  0  0
   11.7417  -16.1992   31.1725 C   0  0  0  0  0  0  0  0  0  0  0  0
   12.0342  -17.3677   30.5032 C   0  0  0  0  0  0  0  0  0  0  0  0
   11.7613  -17.5278   29.1681 C   0  0  0  0  0  0  0  0  0  0  0  0
   11.1784  -16.5229   28.4271 C   0  0  0  0  0  0  0  0  0  0  0  0
   10.8710  -16.6598   26.9913 C   0  0  0  0  0  0  0  0  0  0  0  0
    9.4212  -17.1195   26.7832 C   0  0  2  0  0  0  0  0  0  0  0  0
    9.4112  -18.5453   26.8511 N   0  0  0  0  0  0  0  0  0  0  0  0
    8.9020  -16.5871   25.4937 C   0  0  0  0  0  0  0  0  0  0  0  0
    8.7221  -17.4125   24.5673 O   0  0  0  0  0  0  0  0  0  0  0  0
   10.8788  -15.3412   29.0893 C   0  0  0  0  0  0  0  0  0  0  0  0
   11.1574  -15.1911   30.4315 C   0  0  0  0  0  0  0  0  0  0  0  0
    6.4949  -12.0546   26.0221 C   0  0  0  0  0  0  0  0  0  0  0  0
    6.3989  -13.2845   25.1626 C   0  0  0  0  0  0  0  0  0  0  0  0
    7.4686  -13.4060   24.1421 C   0  0  2  0  0  0  0  0  0  0  0  0
    6.9201  -12.8050   22.8564 C   0  0  0  0  0  0  0  0  0  0  0  0
    8.1669  -14.6880   24.0066 C   0  0  2  0  0  0  0  0  0  0  0  0
    8.6129  -15.2246   25.2816 N   0  0  0  0  0  0  0  0  0  0  0  0
    9.1546  -14.8358   22.9212 C   0  0  0  0  0  0  0  0  0  0  0  0
   10.2922  -14.3538   23.0689 O   0  0  0  0  0  0  0  0  0  0  0  0
   12.0447  -17.0655   21.7148 O   0  0  0  0  0  0  0  0  0  0  0  0
   10.6643  -17.1653   21.8427 C   0  0  0  0  0  0  0  0  0  0  0  0
    9.9290  -16.2036   20.9606 C   0  0  2  0  0  0  0  0  0  0  0  0
    8.8724  -15.4999   21.7060 N   0  0  0  0  0  0  0  0  0  0  0  0
    9.3424  -16.8737   19.7619 C   0  0  0  0  0  0  0  0  0  0  0  0
    8.2228  -17.4362   19.8652 O   0  0  0  0  0  0  0  0  0  0  0  0
    9.9759  -16.9038   18.5409 O   0  0  0  0  0  0  0  0  0  0  0  0
  2  3  2  0
  2  1  1  0
  4  3  1  0
  5  4  2  0
  6  5  1  0
  7  9  1  0
  7  6  1  0
  7  8  1  6
  9 18  1  0
 10  9  2  0
 11  5  1  0
 11 12  2  0
 12  2  1  0
 13 14  1  0
 15 17  1  0
 15 14  1  0
 15 16  1  6
 17 18  1  1
 19 20  2  0
 19 17  1  0
 22 21  1  0
 23 24  1  0
 23 22  1  1
 24 19  1  0
 25 23  1  0
 26 25  2  0
 27 25  1  0
M  END
$$$$
