YIS.pdb
     RDKit          3D

 27 27  0  0  1  0  0  0  0  0999 V2000
   12.6186  -17.4856   32.6357 O   0  0  0  0  0  0  0  0  0  0  0  0
   12.0528  -17.3073   31.3737 C   0  0  0  0  0  0  0  0  0  0  0  0
   11.4176  -16.1357   31.0235 C   0  0  0  0  0  0  0  0  0  0  0  0
   10.8591  -15.9549   29.7833 C   0  0  0  0  0  0  0  0  0  0  0  0
   10.9063  -16.9411   28.8221 C   0  0  0  0  0  0  0  0  0  0  0  0
   10.3172  -16.7817   27.4796 C   0  0  0  0  0  0  0  0  0  0  0  0
    8.7864  -16.8805   27.5382 C   0  0  2  0  0  0  0  0  0  0  0  0
    8.4578  -18.2284   27.8738 N   0  0  0  0  0  0  0  0  0  0  0  0
    8.2009  -16.4357   26.2438 C   0  0  0  0  0  0  0  0  0  0  0  0
    7.7297  -17.3248   25.4960 O   0  0  0  0  0  0  0  0  0  0  0  0
   11.5431  -18.1258   29.1622 C   0  0  0  0  0  0  0  0  0  0  0  0
   12.1010  -18.2968   30.4116 C   0  0  0  0  0  0  0  0  0  0  0  0
    6.5235  -11.6796   26.2589 C   0  0  0  0  0  0  0  0  0  0  0  0
    6.2005  -12.8943   25.4339 C   0  0  0  0  0  0  0  0  0  0  0  0
    7.2615  -13.2849   24.4737 C   0  0  2  0  0  0  0  0  0  0  0  0
    6.8351  -12.7614   23.1102 C   0  0  0  0  0  0  0  0  0  0  0  0
    7.7651  -14.6615   24.5059 C   0  0  2  0  0  0  0  0  0  0  0  0
    8.1582  -15.0870   25.8390 N   0  0  0  0  0  0  0  0  0  0  0  0
    8.6963  -15.0911   23.4459 C   0  0  0  0  0  0  0  0  0  0  0  0
    9.8884  -14.7398   23.5091 O   0  0  0  0  0  0  0  0  0  0  0  0
    9.3216  -18.5261   22.1223 O   0  0  0  0  0  0  0  0  0  0  0  0
    9.1766  -17.7305   20.9919 C   0  0  0  0  0  0  0  0  0  0  0  0
    9.2613  -16.2667   21.2980 C   0  0  2  0  0  0  0  0  0  0  0  0
    8.3007  -15.8866   22.3468 N   0  0  0  0  0  0  0  0  0  0  0  0
    9.0457  -15.4238   20.0843 C   0  0  0  0  0  0  0  0  0  0  0  0
    8.0319  -14.6824   20.0297 O   0  0  0  0  0  0  0  0  0  0  0  0
    9.9123  -15.4215   19.0156 O   0  0  0  0  0  0  0  0  0  0  0  0
  2  3  2  0
  2  1  1  0
  4  3  1  0
  5  4  2  0
  6  5  1  0
  7  9  1  0
  7  6  1  0
  7  8  1  6
  9 18  1  0
 10  9  2  0
 11  5  1  0
 11 12  2  0
 12  2  1  0
 13 14  1  0
 15 17  1  0
 15 14  1  0
 15 16  1  6
 17 18  1  1
 19 20  2  0
 19 17  1  0
 22 21  1  0
 23 24  1  0
 23 22  1  6
 24 19  1  0
 25 23  1  0
 26 25  2  0
 27 25  1  0
M  END
$$$$
