YIS.pdb
     RDKit          3D

 27 27  0  0  1  0  0  0  0  0999 V2000
    6.8027  -13.4262   15.4569 O   0  0  0  0  0  0  0  0  0  0  0  0
    7.0511  -13.8835   16.7506 C   0  0  0  0  0  0  0  0  0  0  0  0
    6.3532  -14.9414   17.2916 C   0  0  0  0  0  0  0  0  0  0  0  0
    6.5935  -15.3953   18.5639 C   0  0  0  0  0  0  0  0  0  0  0  0
    7.5494  -14.8127   19.3673 C   0  0  0  0  0  0  0  0  0  0  0  0
    7.8344  -15.2741   20.7388 C   0  0  0  0  0  0  0  0  0  0  0  0
    8.9171  -14.4057   21.3946 C   0  0  2  0  0  0  0  0  0  0  0  0
   10.1383  -14.6450   20.6955 N   0  0  0  0  0  0  0  0  0  0  0  0
    9.0002  -14.7135   22.8487 C   0  0  0  0  0  0  0  0  0  0  0  0
   10.0141  -15.3370   23.2423 O   0  0  0  0  0  0  0  0  0  0  0  0
    8.2592  -13.7465   18.8344 C   0  0  0  0  0  0  0  0  0  0  0  0
    8.0095  -13.2984   17.5544 C   0  0  0  0  0  0  0  0  0  0  0  0
    6.0256  -11.4691   26.2825 C   0  0  0  0  0  0  0  0  0  0  0  0
    7.1035  -12.2273   25.5586 C   0  0  0  0  0  0  0  0  0  0  0  0
    7.2461  -13.6431   25.9776 C   0  0  2  0  0  0  0  0  0  0  0  0
    7.4487  -13.6371   27.4856 C   0  0  0  0  0  0  0  0  0  0  0  0
    8.1418  -14.5149   25.2113 C   0  0  2  0  0  0  0  0  0  0  0  0
    8.0066  -14.3393   23.7749 N   0  0  0  0  0  0  0  0  0  0  0  0
    8.2731  -15.9236   25.6283 C   0  0  0  0  0  0  0  0  0  0  0  0
    7.2679  -16.6567   25.6078 O   0  0  0  0  0  0  0  0  0  0  0  0
   11.6168  -18.1554   25.3173 O   0  0  0  0  0  0  0  0  0  0  0  0
   10.3867  -18.7287   25.6173 C   0  0  0  0  0  0  0  0  0  0  0  0
    9.5604  -17.8817   26.5356 C   0  0  2  0  0  0  0  0  0  0  0  0
    9.4939  -16.4903   26.0593 N   0  0  0  0  0  0  0  0  0  0  0  0
   10.0679  -17.9124   27.9398 C   0  0  0  0  0  0  0  0  0  0  0  0
   10.2218  -19.0233   28.5078 O   0  0  0  0  0  0  0  0  0  0  0  0
   10.3769  -16.7722   28.6451 O   0  0  0  0  0  0  0  0  0  0  0  0
  2  3  2  0
  2  1  1  0
  4  3  1  0
  5  4  2  0
  6  5  1  0
  7  9  1  0
  7  6  1  0
  7  8  1  6
  9 18  1  0
 10  9  2  0
 11  5  1  0
 11 12  2  0
 12  2  1  0
 13 14  1  0
 15 17  1  0
 15 14  1  0
 15 16  1  1
 17 18  1  6
 19 20  2  0
 19 17  1  0
 22 21  1  0
 23 24  1  0
 23 22  1  6
 24 19  1  0
 25 23  1  0
 26 25  2  0
 27 25  1  0
M  END
$$$$
