YIS.pdb
     RDKit          3D

 27 27  0  0  1  0  0  0  0  0999 V2000
    2.4388  -23.5918   23.0855 O   0  0  0  0  0  0  0  0  0  0  0  0
    3.3737  -22.5827   23.3143 C   0  0  0  0  0  0  0  0  0  0  0  0
    3.0737  -21.4775   24.0806 C   0  0  0  0  0  0  0  0  0  0  0  0
    3.9897  -20.4817   24.3089 C   0  0  0  0  0  0  0  0  0  0  0  0
    5.2610  -20.5383   23.7806 C   0  0  0  0  0  0  0  0  0  0  0  0
    6.2707  -19.4871   24.0051 C   0  0  0  0  0  0  0  0  0  0  0  0
    5.7774  -18.1326   23.4772 C   0  0  2  0  0  0  0  0  0  0  0  0
    5.4775  -18.2977   22.0914 N   0  0  0  0  0  0  0  0  0  0  0  0
    6.8021  -17.0847   23.7378 C   0  0  0  0  0  0  0  0  0  0  0  0
    7.6904  -16.9271   22.8672 O   0  0  0  0  0  0  0  0  0  0  0  0
    5.5757  -21.6462   23.0070 C   0  0  0  0  0  0  0  0  0  0  0  0
    4.6473  -22.6412   22.7840 C   0  0  0  0  0  0  0  0  0  0  0  0
    5.6002  -12.6106   26.6219 C   0  0  0  0  0  0  0  0  0  0  0  0
    6.2640  -13.4432   25.5603 C   0  0  0  0  0  0  0  0  0  0  0  0
    7.4315  -14.2261   26.0340 C   0  0  2  0  0  0  0  0  0  0  0  0
    8.5020  -13.2212   26.4330 C   0  0  0  0  0  0  0  0  0  0  0  0
    7.8854  -15.3652   25.2303 C   0  0  2  0  0  0  0  0  0  0  0  0
    6.8099  -16.2844   24.8972 N   0  0  0  0  0  0  0  0  0  0  0  0
    9.1428  -16.0348   25.6127 C   0  0  0  0  0  0  0  0  0  0  0  0
    9.1798  -16.6964   26.6659 O   0  0  0  0  0  0  0  0  0  0  0  0
   12.7730  -15.8747   23.3386 O   0  0  0  0  0  0  0  0  0  0  0  0
   12.2582  -17.0702   23.8260 C   0  0  0  0  0  0  0  0  0  0  0  0
   11.4436  -16.8869   25.0695 C   0  0  2  0  0  0  0  0  0  0  0  0
   10.3232  -15.9602   24.8391 N   0  0  0  0  0  0  0  0  0  0  0  0
   12.2687  -16.4079   26.2183 C   0  0  0  0  0  0  0  0  0  0  0  0
   11.9489  -15.3367   26.7934 O   0  0  0  0  0  0  0  0  0  0  0  0
   13.3709  -17.0904   26.6793 O   0  0  0  0  0  0  0  0  0  0  0  0
  2  3  2  0
  2  1  1  0
  4  3  1  0
  5  4  2  0
  6  5  1  0
  7  9  1  0
  7  6  1  0
  7  8  1  6
  9 18  1  0
 10  9  2  0
 11  5  1  0
 11 12  2  0
 12  2  1  0
 13 14  1  0
 15 17  1  0
 15 14  1  0
 15 16  1  6
 17 18  1  1
 19 20  2  0
 19 17  1  0
 22 21  1  0
 23 24  1  0
 23 22  1  6
 24 19  1  0
 25 23  1  0
 26 25  2  0
 27 25  1  0
M  END
$$$$
