EKA.pdb
     RDKit          3D

 24 23  0  0  1  0  0  0  0  0999 V2000
   24.0305  -16.6258  -17.9059 N   0  0  0  0  0  0  0  0  0  0  0  0
   23.1594  -16.6215  -16.7074 C   0  0  1  0  0  0  0  0  0  0  0  0
   22.0858  -15.6095  -16.9292 C   0  0  0  0  0  0  0  0  0  0  0  0
   22.4935  -14.1841  -16.9478 C   0  0  0  0  0  0  0  0  0  0  0  0
   22.4774  -13.5552  -18.2873 C   0  0  0  0  0  0  0  0  0  0  0  0
   21.4450  -13.6165  -18.9913 O   0  0  0  0  0  0  0  0  0  0  0  0
   22.6344  -18.0057  -16.5064 C   0  0  0  0  0  0  0  0  0  0  0  0
   22.0373  -18.5826  -17.4776 O   0  0  0  0  0  0  0  0  0  0  0  0
   23.6200  -12.8921  -18.7637 O   0  0  0  0  0  0  0  0  0  0  0  0
   22.7465  -18.7440  -15.3126 N   0  0  0  0  0  0  0  0  0  0  0  0
   22.3790  -20.1772  -15.2551 C   0  0  1  0  0  0  0  0  0  0  0  0
   23.7089  -20.8568  -14.9485 C   0  0  0  0  0  0  0  0  0  0  0  0
   24.3403  -21.5590  -16.0726 C   0  0  0  0  0  0  0  0  0  0  0  0
   25.6409  -22.1966  -15.6881 C   0  0  0  0  0  0  0  0  0  0  0  0
   26.4456  -22.8197  -16.7715 C   0  0  0  0  0  0  0  0  0  0  0  0
   27.6631  -23.4444  -16.3618 N   0  0  0  0  0  0  0  0  0  0  0  0
   21.3495  -20.3640  -14.2431 C   0  0  0  0  0  0  0  0  0  0  0  0
   21.5498  -19.9011  -13.0618 O   0  0  0  0  0  0  0  0  0  0  0  0
   17.8696  -21.8054  -13.8376 C   0  0  0  0  0  0  0  0  0  0  0  0
   19.1423  -21.1688  -13.3284 C   0  0  2  0  0  0  0  0  0  0  0  0
   20.1070  -21.0108  -14.3956 N   0  0  0  0  0  0  0  0  0  0  0  0
   19.6369  -21.9443  -12.2007 C   0  0  0  0  0  0  0  0  0  0  0  0
   20.5735  -22.7594  -12.3416 O   0  0  0  0  0  0  0  0  0  0  0  0
   19.0773  -21.7926  -10.9491 O   0  0  0  0  0  0  0  0  0  0  0  0
  2  1  1  6
  2  7  1  0
  2  3  1  0
  3  4  1  0
  4  5  1  0
  5  9  1  0
  6  5  2  0
  7  8  2  0
 10 11  1  0
 10  7  1  0
 11 12  1  1
 12 13  1  0
 13 14  1  0
 14 15  1  0
 16 15  1  0
 17 18  2  0
 17 11  1  0
 20 19  1  6
 20 21  1  0
 21 17  1  0
 22 20  1  0
 22 24  1  0
 23 22  2  0
M  END
$$$$
