EKA.pdb
     RDKit          3D

 24 23  0  0  1  0  0  0  0  0999 V2000
   21.3882  -11.7233  -19.5041 N   0  0  0  0  0  0  0  0  0  0  0  0
   22.1808  -11.1758  -18.3784 C   0  0  1  0  0  0  0  0  0  0  0  0
   23.5196  -10.7882  -18.9110 C   0  0  0  0  0  0  0  0  0  0  0  0
   23.8396  -11.1985  -20.2994 C   0  0  0  0  0  0  0  0  0  0  0  0
   25.2044  -10.8439  -20.7486 C   0  0  0  0  0  0  0  0  0  0  0  0
   26.1141  -11.7020  -20.7121 O   0  0  0  0  0  0  0  0  0  0  0  0
   21.4251  -10.0299  -17.7886 C   0  0  0  0  0  0  0  0  0  0  0  0
   20.9736   -9.1254  -18.5699 O   0  0  0  0  0  0  0  0  0  0  0  0
   25.4740   -9.5466  -21.2139 O   0  0  0  0  0  0  0  0  0  0  0  0
   21.1614   -9.8607  -16.4158 N   0  0  0  0  0  0  0  0  0  0  0  0
   20.3056   -8.7563  -15.9256 C   0  0  1  0  0  0  0  0  0  0  0  0
   19.3500   -9.4647  -14.9719 C   0  0  0  0  0  0  0  0  0  0  0  0
   18.1865  -10.1071  -15.5954 C   0  0  0  0  0  0  0  0  0  0  0  0
   17.2575  -10.7079  -14.5844 C   0  0  0  0  0  0  0  0  0  0  0  0
   16.0417  -11.3948  -15.0938 C   0  0  0  0  0  0  0  0  0  0  0  0
   15.2751  -12.1063  -14.1208 N   0  0  0  0  0  0  0  0  0  0  0  0
   21.1463   -7.7418  -15.3069 C   0  0  0  0  0  0  0  0  0  0  0  0
   22.0219   -8.1058  -14.4404 O   0  0  0  0  0  0  0  0  0  0  0  0
   21.8614   -4.0278  -15.4843 C   0  0  0  0  0  0  0  0  0  0  0  0
   22.0046   -5.4087  -14.8868 C   0  0  2  0  0  0  0  0  0  0  0  0
   21.1280   -6.3531  -15.5456 N   0  0  0  0  0  0  0  0  0  0  0  0
   21.7987   -5.3220  -13.4487 C   0  0  0  0  0  0  0  0  0  0  0  0
   20.7773   -5.8045  -12.9147 O   0  0  0  0  0  0  0  0  0  0  0  0
   22.7328   -4.7021  -12.6452 O   0  0  0  0  0  0  0  0  0  0  0  0
  2  1  1  6
  2  7  1  0
  2  3  1  0
  3  4  1  0
  4  5  1  0
  5  9  1  0
  6  5  2  0
  7  8  2  0
 10 11  1  0
 10  7  1  0
 11 12  1  1
 12 13  1  0
 13 14  1  0
 14 15  1  0
 16 15  1  0
 17 18  2  0
 17 11  1  0
 20 19  1  6
 20 21  1  0
 21 17  1  0
 22 20  1  0
 22 24  1  0
 23 22  2  0
M  END
$$$$
