EKA.pdb
     RDKit          3D

 24 23  0  0  1  0  0  0  0  0999 V2000
   33.2622  -36.7093   -4.1374 N   0  0  0  0  0  0  0  0  0  0  0  0
   31.9224  -37.1971   -4.5402 C   0  0  1  0  0  0  0  0  0  0  0  0
   31.6649  -38.4732   -3.8112 C   0  0  0  0  0  0  0  0  0  0  0  0
   31.5013  -38.3904   -2.3399 C   0  0  0  0  0  0  0  0  0  0  0  0
   31.2288  -39.6845   -1.6756 C   0  0  0  0  0  0  0  0  0  0  0  0
   32.1791  -40.3769   -1.2482 O   0  0  0  0  0  0  0  0  0  0  0  0
   30.9243  -36.1289   -4.2323 C   0  0  0  0  0  0  0  0  0  0  0  0
   31.2160  -35.2524   -3.3494 O   0  0  0  0  0  0  0  0  0  0  0  0
   29.9056  -40.1308   -1.5272 O   0  0  0  0  0  0  0  0  0  0  0  0
   29.6641  -36.0030   -4.8475 N   0  0  0  0  0  0  0  0  0  0  0  0
   28.7985  -34.8277   -4.5984 C   0  0  1  0  0  0  0  0  0  0  0  0
   28.1398  -34.5975   -5.9539 C   0  0  0  0  0  0  0  0  0  0  0  0
   27.2511  -33.4322   -6.0414 C   0  0  0  0  0  0  0  0  0  0  0  0
   26.6408  -33.2818   -7.4019 C   0  0  0  0  0  0  0  0  0  0  0  0
   25.5411  -32.2935   -7.5544 C   0  0  0  0  0  0  0  0  0  0  0  0
   25.0499  -32.1090   -8.8830 N   0  0  0  0  0  0  0  0  0  0  0  0
   27.8764  -35.1372   -3.5154 C   0  0  0  0  0  0  0  0  0  0  0  0
   27.2067  -36.2323   -3.5648 O   0  0  0  0  0  0  0  0  0  0  0  0
   26.8001  -33.8482   -0.1269 C   0  0  0  0  0  0  0  0  0  0  0  0
   26.6626  -34.7360   -1.3423 C   0  0  2  0  0  0  0  0  0  0  0  0
   27.6121  -34.3622   -2.3686 N   0  0  0  0  0  0  0  0  0  0  0  0
   25.2774  -34.7113   -1.7877 C   0  0  0  0  0  0  0  0  0  0  0  0
   24.3555  -35.1116   -1.0453 O   0  0  0  0  0  0  0  0  0  0  0  0
   24.9558  -34.2430   -3.0446 O   0  0  0  0  0  0  0  0  0  0  0  0
  2  1  1  1
  2  7  1  0
  2  3  1  0
  3  4  1  0
  4  5  1  0
  5  9  1  0
  6  5  2  0
  7  8  2  0
 10 11  1  0
 10  7  1  0
 11 12  1  6
 12 13  1  0
 13 14  1  0
 14 15  1  0
 16 15  1  0
 17 18  2  0
 17 11  1  0
 20 19  1  1
 20 21  1  0
 21 17  1  0
 22 20  1  0
 22 24  1  0
 23 22  2  0
M  END
$$$$
