EKA.pdb
     RDKit          3D

 24 23  0  0  1  0  0  0  0  0999 V2000
   24.2587  -33.6349  -15.6585 N   0  0  0  0  0  0  0  0  0  0  0  0
   22.9154  -33.2423  -15.1719 C   0  0  1  0  0  0  0  0  0  0  0  0
   22.1316  -34.4911  -14.9433 C   0  0  0  0  0  0  0  0  0  0  0  0
   21.2765  -34.9662  -16.0574 C   0  0  0  0  0  0  0  0  0  0  0  0
   19.8975  -34.4292  -16.0492 C   0  0  0  0  0  0  0  0  0  0  0  0
   19.4912  -33.7727  -15.0648 O   0  0  0  0  0  0  0  0  0  0  0  0
   23.0880  -32.4185  -13.9375 C   0  0  0  0  0  0  0  0  0  0  0  0
   24.2686  -32.2258  -13.4885 O   0  0  0  0  0  0  0  0  0  0  0  0
   19.0500  -34.6579  -17.1454 O   0  0  0  0  0  0  0  0  0  0  0  0
   22.0374  -31.8226  -13.2138 N   0  0  0  0  0  0  0  0  0  0  0  0
   22.3011  -30.9775  -12.0269 C   0  0  1  0  0  0  0  0  0  0  0  0
   21.0733  -30.0753  -11.9728 C   0  0  0  0  0  0  0  0  0  0  0  0
   21.0309  -29.1224  -10.8568 C   0  0  0  0  0  0  0  0  0  0  0  0
   19.8286  -28.2296  -10.9152 C   0  0  0  0  0  0  0  0  0  0  0  0
   19.7189  -27.1596   -9.8892 C   0  0  0  0  0  0  0  0  0  0  0  0
   18.6184  -26.2618  -10.0416 N   0  0  0  0  0  0  0  0  0  0  0  0
   22.4822  -31.8339  -10.8639 C   0  0  0  0  0  0  0  0  0  0  0  0
   21.6746  -32.8168  -10.6856 O   0  0  0  0  0  0  0  0  0  0  0  0
   24.7890  -32.2938   -7.8944 C   0  0  0  0  0  0  0  0  0  0  0  0
   23.5541  -32.5941   -8.7123 C   0  0  2  0  0  0  0  0  0  0  0  0
   23.4712  -31.7246   -9.8662 N   0  0  0  0  0  0  0  0  0  0  0  0
   22.3882  -32.5289   -7.8438 C   0  0  0  0  0  0  0  0  0  0  0  0
   21.5226  -31.6404   -7.9942 O   0  0  0  0  0  0  0  0  0  0  0  0
   22.2169  -33.4522   -6.8334 O   0  0  0  0  0  0  0  0  0  0  0  0
  2  1  1  1
  2  7  1  0
  2  3  1  0
  3  4  1  0
  4  5  1  0
  5  9  1  0
  6  5  2  0
  7  8  2  0
 10 11  1  0
 10  7  1  0
 11 12  1  1
 12 13  1  0
 13 14  1  0
 14 15  1  0
 16 15  1  0
 17 18  2  0
 17 11  1  0
 20 19  1  1
 20 21  1  0
 21 17  1  0
 22 20  1  0
 22 24  1  0
 23 22  2  0
M  END
$$$$
