EKA.pdb
     RDKit          3D

 24 23  0  0  1  0  0  0  0  0999 V2000
   16.1757  -10.3536  -16.8449 N   0  0  0  0  0  0  0  0  0  0  0  0
   17.0818  -10.9169  -15.8168 C   0  0  1  0  0  0  0  0  0  0  0  0
   17.2612  -12.3679  -16.1144 C   0  0  0  0  0  0  0  0  0  0  0  0
   16.0808  -13.2465  -15.9325 C   0  0  0  0  0  0  0  0  0  0  0  0
   15.4877  -13.2104  -14.5772 C   0  0  0  0  0  0  0  0  0  0  0  0
   14.6886  -12.2975  -14.2717 O   0  0  0  0  0  0  0  0  0  0  0  0
   18.3604  -10.1448  -15.8472 C   0  0  0  0  0  0  0  0  0  0  0  0
   19.3378  -10.5478  -15.1296 O   0  0  0  0  0  0  0  0  0  0  0  0
   15.8233  -14.1998  -13.6389 O   0  0  0  0  0  0  0  0  0  0  0  0
   18.5842   -8.9879  -16.6179 N   0  0  0  0  0  0  0  0  0  0  0  0
   19.9278   -8.3729  -16.7131 C   0  0  1  0  0  0  0  0  0  0  0  0
   19.9023   -7.7119  -18.0867 C   0  0  0  0  0  0  0  0  0  0  0  0
   21.0747   -6.8947  -18.4230 C   0  0  0  0  0  0  0  0  0  0  0  0
   22.2333   -7.7242  -18.8873 C   0  0  0  0  0  0  0  0  0  0  0  0
   23.4978   -7.0141  -19.2131 C   0  0  0  0  0  0  0  0  0  0  0  0
   24.5831   -7.8394  -19.6390 N   0  0  0  0  0  0  0  0  0  0  0  0
   20.1116   -7.4567  -15.5970 C   0  0  0  0  0  0  0  0  0  0  0  0
   19.2447   -6.5279  -15.4077 O   0  0  0  0  0  0  0  0  0  0  0  0
   21.9474   -7.1248  -12.3699 C   0  0  0  0  0  0  0  0  0  0  0  0
   21.2674   -6.5045  -13.5688 C   0  0  2  0  0  0  0  0  0  0  0  0
   21.1587   -7.4557  -14.6541 N   0  0  0  0  0  0  0  0  0  0  0  0
   21.9716   -5.2826  -13.9281 C   0  0  0  0  0  0  0  0  0  0  0  0
   22.5745   -5.1842  -15.0181 O   0  0  0  0  0  0  0  0  0  0  0  0
   21.9860   -4.2053  -13.0668 O   0  0  0  0  0  0  0  0  0  0  0  0
  2  1  1  6
  2  7  1  0
  2  3  1  0
  3  4  1  0
  4  5  1  0
  5  9  1  0
  6  5  2  0
  7  8  2  0
 10 11  1  0
 10  7  1  0
 11 12  1  6
 12 13  1  0
 13 14  1  0
 14 15  1  0
 16 15  1  0
 17 18  2  0
 17 11  1  0
 20 19  1  1
 20 21  1  0
 21 17  1  0
 22 20  1  0
 22 24  1  0
 23 22  2  0
M  END
$$$$
