EKA.pdb
     RDKit          3D

 24 23  0  0  1  0  0  0  0  0999 V2000
   19.7105  -11.4507  -16.0661 N   0  0  0  0  0  0  0  0  0  0  0  0
   18.7590  -10.3567  -16.3715 C   0  0  1  0  0  0  0  0  0  0  0  0
   17.7341  -10.3297  -15.2875 C   0  0  0  0  0  0  0  0  0  0  0  0
   16.7302  -11.4208  -15.2786 C   0  0  0  0  0  0  0  0  0  0  0  0
   15.6506  -11.2578  -14.2796 C   0  0  0  0  0  0  0  0  0  0  0  0
   14.7525  -12.1238  -14.1871 O   0  0  0  0  0  0  0  0  0  0  0  0
   19.5320   -9.0834  -16.4859 C   0  0  0  0  0  0  0  0  0  0  0  0
   20.7974   -9.1159  -16.3113 O   0  0  0  0  0  0  0  0  0  0  0  0
   15.6376  -10.1327  -13.4394 O   0  0  0  0  0  0  0  0  0  0  0  0
   18.9720   -7.8250  -16.7780 N   0  0  0  0  0  0  0  0  0  0  0  0
   19.8252   -6.6471  -17.0557 C   0  0  1  0  0  0  0  0  0  0  0  0
   19.0646   -5.9309  -18.1660 C   0  0  0  0  0  0  0  0  0  0  0  0
   19.6351   -4.6522  -18.6075 C   0  0  0  0  0  0  0  0  0  0  0  0
   18.8657   -4.0464  -19.7420 C   0  0  0  0  0  0  0  0  0  0  0  0
   19.3522   -2.7515  -20.2861 C   0  0  0  0  0  0  0  0  0  0  0  0
   20.3978   -2.1191  -19.5464 N   0  0  0  0  0  0  0  0  0  0  0  0
   19.9869   -5.8776  -15.8307 C   0  0  0  0  0  0  0  0  0  0  0  0
   18.9407   -5.5506  -15.1609 O   0  0  0  0  0  0  0  0  0  0  0  0
   22.4155   -5.2209  -13.1560 C   0  0  0  0  0  0  0  0  0  0  0  0
   21.2700   -4.7116  -14.0002 C   0  0  2  0  0  0  0  0  0  0  0  0
   21.1919   -5.4270  -15.2558 N   0  0  0  0  0  0  0  0  0  0  0  0
   21.4040   -3.2706  -14.1536 C   0  0  0  0  0  0  0  0  0  0  0  0
   21.6105   -2.7592  -15.2749 O   0  0  0  0  0  0  0  0  0  0  0  0
   21.3048   -2.4390  -13.0576 O   0  0  0  0  0  0  0  0  0  0  0  0
  2  1  1  1
  2  7  1  0
  2  3  1  0
  3  4  1  0
  4  5  1  0
  5  9  1  0
  6  5  2  0
  7  8  2  0
 10 11  1  0
 10  7  1  0
 11 12  1  6
 12 13  1  0
 13 14  1  0
 14 15  1  0
 16 15  1  0
 17 18  2  0
 17 11  1  0
 20 19  1  6
 20 21  1  0
 21 17  1  0
 22 20  1  0
 22 24  1  0
 23 22  2  0
M  END
$$$$
