EKA.pdb
     RDKit          3D

 24 23  0  0  1  0  0  0  0  0999 V2000
   21.2136  -11.8497  -20.4857 N   0  0  0  0  0  0  0  0  0  0  0  0
   21.6186  -11.7119  -19.0671 C   0  0  1  0  0  0  0  0  0  0  0  0
   23.1048  -11.5859  -19.0286 C   0  0  0  0  0  0  0  0  0  0  0  0
   23.7363  -10.7155  -20.0494 C   0  0  0  0  0  0  0  0  0  0  0  0
   25.2150  -10.6808  -20.0012 C   0  0  0  0  0  0  0  0  0  0  0  0
   25.8781  -11.5452  -20.6161 O   0  0  0  0  0  0  0  0  0  0  0  0
   20.9102  -10.5291  -18.4917 C   0  0  0  0  0  0  0  0  0  0  0  0
   20.6309   -9.5473  -19.2603 O   0  0  0  0  0  0  0  0  0  0  0  0
   25.8688   -9.6786  -19.2661 O   0  0  0  0  0  0  0  0  0  0  0  0
   20.5142  -10.4037  -17.1463 N   0  0  0  0  0  0  0  0  0  0  0  0
   19.7194   -9.2442  -16.6814 C   0  0  1  0  0  0  0  0  0  0  0  0
   18.5869   -9.9002  -15.8993 C   0  0  0  0  0  0  0  0  0  0  0  0
   17.5924   -8.9840  -15.3278 C   0  0  0  0  0  0  0  0  0  0  0  0
   16.4885   -9.7102  -14.6206 C   0  0  0  0  0  0  0  0  0  0  0  0
   15.4414   -8.8887  -13.9587 C   0  0  0  0  0  0  0  0  0  0  0  0
   14.2860   -9.5979  -13.5087 N   0  0  0  0  0  0  0  0  0  0  0  0
   20.5745   -8.3650  -15.8974 C   0  0  0  0  0  0  0  0  0  0  0  0
   21.4425   -8.8868  -15.1073 O   0  0  0  0  0  0  0  0  0  0  0  0
   21.3249   -4.6891  -15.3895 C   0  0  0  0  0  0  0  0  0  0  0  0
   21.4129   -6.1532  -15.0246 C   0  0  2  0  0  0  0  0  0  0  0  0
   20.5783   -6.9558  -15.8928 N   0  0  0  0  0  0  0  0  0  0  0  0
   21.1043   -6.3043  -13.6105 C   0  0  0  0  0  0  0  0  0  0  0  0
   20.0518   -6.8654  -13.2379 O   0  0  0  0  0  0  0  0  0  0  0  0
   21.9731   -5.8281  -12.6509 O   0  0  0  0  0  0  0  0  0  0  0  0
  2  1  1  6
  2  7  1  0
  2  3  1  0
  3  4  1  0
  4  5  1  0
  5  9  1  0
  6  5  2  0
  7  8  2  0
 10 11  1  0
 10  7  1  0
 11 12  1  1
 12 13  1  0
 13 14  1  0
 14 15  1  0
 16 15  1  0
 17 18  2  0
 17 11  1  0
 20 19  1  6
 20 21  1  0
 21 17  1  0
 22 20  1  0
 22 24  1  0
 23 22  2  0
M  END
$$$$
