EKA.pdb
     RDKit          3D

 24 23  0  0  1  0  0  0  0  0999 V2000
   20.0226  -11.9087  -17.0227 N   0  0  0  0  0  0  0  0  0  0  0  0
   20.4167  -10.7291  -16.2173 C   0  0  1  0  0  0  0  0  0  0  0  0
   21.7909  -10.3292  -16.6389 C   0  0  0  0  0  0  0  0  0  0  0  0
   22.9243  -11.0868  -16.0560 C   0  0  0  0  0  0  0  0  0  0  0  0
   23.8293  -10.2844  -15.2033 C   0  0  0  0  0  0  0  0  0  0  0  0
   23.6656   -9.0473  -15.1136 O   0  0  0  0  0  0  0  0  0  0  0  0
   19.3980   -9.6571  -16.4294 C   0  0  0  0  0  0  0  0  0  0  0  0
   19.0154   -9.4012  -17.6214 O   0  0  0  0  0  0  0  0  0  0  0  0
   24.8681  -10.9133  -14.4980 O   0  0  0  0  0  0  0  0  0  0  0  0
   18.8104   -8.8906  -15.4048 N   0  0  0  0  0  0  0  0  0  0  0  0
   17.6937   -7.9588  -15.6827 C   0  0  1  0  0  0  0  0  0  0  0  0
   16.6288   -8.3971  -14.6837 C   0  0  0  0  0  0  0  0  0  0  0  0
   15.6184   -9.3303  -15.1970 C   0  0  0  0  0  0  0  0  0  0  0  0
   14.6039   -9.7001  -14.1578 C   0  0  0  0  0  0  0  0  0  0  0  0
   13.5837  -10.7162  -14.5267 C   0  0  0  0  0  0  0  0  0  0  0  0
   14.0865  -11.9216  -15.1050 N   0  0  0  0  0  0  0  0  0  0  0  0
   18.1628   -6.5910  -15.5154 C   0  0  0  0  0  0  0  0  0  0  0  0
   18.8637   -6.2979  -14.4796 O   0  0  0  0  0  0  0  0  0  0  0  0
   18.4884   -3.3798  -17.4554 C   0  0  0  0  0  0  0  0  0  0  0  0
   18.5062   -4.1818  -16.1744 C   0  0  2  0  0  0  0  0  0  0  0  0
   17.9429   -5.4991  -16.3786 N   0  0  0  0  0  0  0  0  0  0  0  0
   17.8419   -3.4152  -15.1309 C   0  0  0  0  0  0  0  0  0  0  0  0
   16.7797   -3.8201  -14.6122 O   0  0  0  0  0  0  0  0  0  0  0  0
   18.3762   -2.2211  -14.6936 O   0  0  0  0  0  0  0  0  0  0  0  0
  2  1  1  6
  2  7  1  0
  2  3  1  0
  3  4  1  0
  4  5  1  0
  5  9  1  0
  6  5  2  0
  7  8  2  0
 10 11  1  0
 10  7  1  0
 11 12  1  1
 12 13  1  0
 13 14  1  0
 14 15  1  0
 16 15  1  0
 17 18  2  0
 17 11  1  0
 20 19  1  6
 20 21  1  0
 21 17  1  0
 22 20  1  0
 22 24  1  0
 23 22  2  0
M  END
$$$$
