EKA.pdb
     RDKit          3D

 24 23  0  0  1  0  0  0  0  0999 V2000
   18.2443  -12.5061  -15.9555 N   0  0  0  0  0  0  0  0  0  0  0  0
   18.4940  -11.1672  -16.5388 C   0  0  1  0  0  0  0  0  0  0  0  0
   17.2374  -10.3733  -16.4098 C   0  0  0  0  0  0  0  0  0  0  0  0
   16.2096  -10.5582  -17.4624 C   0  0  0  0  0  0  0  0  0  0  0  0
   16.6837  -10.2986  -18.8400 C   0  0  0  0  0  0  0  0  0  0  0  0
   17.3468  -11.1703  -19.4446 O   0  0  0  0  0  0  0  0  0  0  0  0
   19.6553  -10.5558  -15.8250 C   0  0  0  0  0  0  0  0  0  0  0  0
   19.6625  -10.5617  -14.5472 O   0  0  0  0  0  0  0  0  0  0  0  0
   16.3882   -9.0756  -19.4639 O   0  0  0  0  0  0  0  0  0  0  0  0
   20.7664   -9.9632  -16.4550 N   0  0  0  0  0  0  0  0  0  0  0  0
   21.9193   -9.4617  -15.6729 C   0  0  1  0  0  0  0  0  0  0  0  0
   23.0852  -10.2716  -16.2290 C   0  0  0  0  0  0  0  0  0  0  0  0
   24.4068   -9.9484  -15.6774 C   0  0  0  0  0  0  0  0  0  0  0  0
   25.4887  -10.8168  -16.2441 C   0  0  0  0  0  0  0  0  0  0  0  0
   26.8666  -10.6246  -15.7208 C   0  0  0  0  0  0  0  0  0  0  0  0
   27.8765  -11.4449  -16.3104 N   0  0  0  0  0  0  0  0  0  0  0  0
   22.0308   -8.0224  -15.8596 C   0  0  0  0  0  0  0  0  0  0  0  0
   22.0203   -7.5492  -17.0538 O   0  0  0  0  0  0  0  0  0  0  0  0
   21.8220   -4.7794  -13.9960 C   0  0  0  0  0  0  0  0  0  0  0  0
   22.3420   -5.6282  -15.1334 C   0  0  2  0  0  0  0  0  0  0  0  0
   22.1507   -7.0364  -14.8600 N   0  0  0  0  0  0  0  0  0  0  0  0
   23.7264   -5.2645  -15.3960 C   0  0  0  0  0  0  0  0  0  0  0  0
   24.6562   -5.7271  -14.7012 O   0  0  0  0  0  0  0  0  0  0  0  0
   24.0385   -4.3976  -16.4225 O   0  0  0  0  0  0  0  0  0  0  0  0
  2  1  1  1
  2  7  1  0
  2  3  1  0
  3  4  1  0
  4  5  1  0
  5  9  1  0
  6  5  2  0
  7  8  2  0
 10 11  1  0
 10  7  1  0
 11 12  1  6
 12 13  1  0
 13 14  1  0
 14 15  1  0
 16 15  1  0
 17 18  2  0
 17 11  1  0
 20 19  1  1
 20 21  1  0
 21 17  1  0
 22 20  1  0
 22 24  1  0
 23 22  2  0
M  END
$$$$
