EKA.pdb
     RDKit          3D

 24 23  0  0  1  0  0  0  0  0999 V2000
   15.9302   -9.7464  -11.1386 N   0  0  0  0  0  0  0  0  0  0  0  0
   15.9211   -9.1404  -12.4907 C   0  0  1  0  0  0  0  0  0  0  0  0
   15.0965   -7.8986  -12.4268 C   0  0  0  0  0  0  0  0  0  0  0  0
   13.6261   -8.0670  -12.3365 C   0  0  0  0  0  0  0  0  0  0  0  0
   12.8555   -6.8053  -12.4000 C   0  0  0  0  0  0  0  0  0  0  0  0
   13.4578   -5.7096  -12.4436 O   0  0  0  0  0  0  0  0  0  0  0  0
   17.3359   -8.8900  -12.9000 C   0  0  0  0  0  0  0  0  0  0  0  0
   18.2444   -8.8937  -12.0016 O   0  0  0  0  0  0  0  0  0  0  0  0
   11.4517   -6.8415  -12.4112 O   0  0  0  0  0  0  0  0  0  0  0  0
   17.7612   -8.6474  -14.2202 N   0  0  0  0  0  0  0  0  0  0  0  0
   19.1986   -8.5458  -14.5607 C   0  0  1  0  0  0  0  0  0  0  0  0
   19.2336   -8.9837  -16.0206 C   0  0  0  0  0  0  0  0  0  0  0  0
   20.5373   -8.8771  -16.6873 C   0  0  0  0  0  0  0  0  0  0  0  0
   21.0269  -10.1989  -17.1963 C   0  0  0  0  0  0  0  0  0  0  0  0
   22.3124  -10.2126  -17.9424 C   0  0  0  0  0  0  0  0  0  0  0  0
   22.6078  -11.4170  -18.6513 N   0  0  0  0  0  0  0  0  0  0  0  0
   19.6491   -7.1827  -14.3204 C   0  0  0  0  0  0  0  0  0  0  0  0
   18.9116   -6.2072  -14.7136 O   0  0  0  0  0  0  0  0  0  0  0  0
   22.3591   -5.2673  -12.5152 C   0  0  0  0  0  0  0  0  0  0  0  0
   21.2246   -5.3907  -13.5062 C   0  0  2  0  0  0  0  0  0  0  0  0
   20.8374   -6.7739  -13.6829 N   0  0  0  0  0  0  0  0  0  0  0  0
   21.6071   -4.7261  -14.7431 C   0  0  0  0  0  0  0  0  0  0  0  0
   21.8294   -3.4968  -14.7710 O   0  0  0  0  0  0  0  0  0  0  0  0
   21.7316   -5.4455  -15.9134 O   0  0  0  0  0  0  0  0  0  0  0  0
  2  1  1  1
  2  7  1  0
  2  3  1  0
  3  4  1  0
  4  5  1  0
  5  9  1  0
  6  5  2  0
  7  8  2  0
 10 11  1  0
 10  7  1  0
 11 12  1  6
 12 13  1  0
 13 14  1  0
 14 15  1  0
 16 15  1  0
 17 18  2  0
 17 11  1  0
 20 19  1  1
 20 21  1  0
 21 17  1  0
 22 20  1  0
 22 24  1  0
 23 22  2  0
M  END
$$$$
