EKA.pdb
     RDKit          3D

 24 23  0  0  1  0  0  0  0  0999 V2000
   18.8081  -25.7687  -10.0038 N   0  0  0  0  0  0  0  0  0  0  0  0
   18.8847  -24.8817   -8.8194 C   0  0  1  0  0  0  0  0  0  0  0  0
   18.5130  -23.5048   -9.2577 C   0  0  0  0  0  0  0  0  0  0  0  0
   17.6008  -23.3884  -10.4207 C   0  0  0  0  0  0  0  0  0  0  0  0
   17.1688  -22.0073  -10.7303 C   0  0  0  0  0  0  0  0  0  0  0  0
   17.6927  -21.0422  -10.1308 O   0  0  0  0  0  0  0  0  0  0  0  0
   17.9797  -25.4308   -7.7652 C   0  0  0  0  0  0  0  0  0  0  0  0
   16.8758  -25.9663   -8.1220 O   0  0  0  0  0  0  0  0  0  0  0  0
   16.1729  -21.7843  -11.6950 O   0  0  0  0  0  0  0  0  0  0  0  0
   18.2477  -25.4094   -6.3830 N   0  0  0  0  0  0  0  0  0  0  0  0
   17.2572  -25.9006   -5.3980 C   0  0  1  0  0  0  0  0  0  0  0  0
   18.1179  -26.2180   -4.1802 C   0  0  0  0  0  0  0  0  0  0  0  0
   17.4270  -26.8778   -3.0655 C   0  0  0  0  0  0  0  0  0  0  0  0
   18.3514  -27.1939   -1.9291 C   0  0  0  0  0  0  0  0  0  0  0  0
   17.7976  -27.9744   -0.7917 C   0  0  0  0  0  0  0  0  0  0  0  0
   18.7164  -28.2823    0.2577 N   0  0  0  0  0  0  0  0  0  0  0  0
   16.2498  -24.8721   -5.1832 C   0  0  0  0  0  0  0  0  0  0  0  0
   16.5177  -23.6616   -5.5192 O   0  0  0  0  0  0  0  0  0  0  0  0
   14.7118  -22.9061   -3.4740 C   0  0  0  0  0  0  0  0  0  0  0  0
   14.0565  -23.9424   -4.3577 C   0  0  2  0  0  0  0  0  0  0  0  0
   14.9623  -25.0366   -4.6345 N   0  0  0  0  0  0  0  0  0  0  0  0
   13.5468  -23.2863   -5.5525 C   0  0  0  0  0  0  0  0  0  0  0  0
   13.9162  -23.6452   -6.6910 O   0  0  0  0  0  0  0  0  0  0  0  0
   12.6417  -22.2506   -5.4489 O   0  0  0  0  0  0  0  0  0  0  0  0
  2  1  1  6
  2  7  1  0
  2  3  1  0
  3  4  1  0
  4  5  1  0
  5  9  1  0
  6  5  2  0
  7  8  2  0
 10 11  1  0
 10  7  1  0
 11 12  1  1
 12 13  1  0
 13 14  1  0
 14 15  1  0
 16 15  1  0
 17 18  2  0
 17 11  1  0
 20 19  1  1
 20 21  1  0
 21 17  1  0
 22 20  1  0
 22 24  1  0
 23 22  2  0
M  END
$$$$
