EQM.pdb
     RDKit          3D

 27 26  0  0  1  0  0  0  0  0999 V2000
    8.4629  -17.5451   18.2088 N   0  0  0  0  0  0  0  0  0  0  0  0
    9.1568  -18.0434   19.3829 C   0  0  1  0  0  0  0  0  0  0  0  0
   10.6050  -17.6468   19.3671 C   0  0  0  0  0  0  0  0  0  0  0  0
   11.2422  -17.8520   18.0096 C   0  0  0  0  0  0  0  0  0  0  0  0
   12.6880  -17.5420   18.1421 C   0  0  0  0  0  0  0  0  0  0  0  0
   13.2014  -16.4933   17.6698 O   0  0  0  0  0  0  0  0  0  0  0  0
    8.5519  -17.5034   20.6179 C   0  0  0  0  0  0  0  0  0  0  0  0
    7.9448  -16.4104   20.5640 O   0  0  0  0  0  0  0  0  0  0  0  0
   13.5044  -18.4551   18.8191 O   0  0  0  0  0  0  0  0  0  0  0  0
    7.4856  -21.0770   25.4483 N   0  0  0  0  0  0  0  0  0  0  0  0
    6.8366  -19.9066   25.9281 C   0  0  0  0  0  0  0  0  0  0  0  0
    6.1795  -19.9623   26.9802 O   0  0  0  0  0  0  0  0  0  0  0  0
    6.9567  -18.6247   25.1551 C   0  0  0  0  0  0  0  0  0  0  0  0
    7.7596  -18.9086   23.9220 C   0  0  0  0  0  0  0  0  0  0  0  0
    8.0185  -17.7392   23.0441 C   0  0  2  0  0  0  0  0  0  0  0  0
    8.6717  -18.2276   21.8250 N   0  0  0  0  0  0  0  0  0  0  0  0
    8.9379  -16.7801   23.6963 C   0  0  0  0  0  0  0  0  0  0  0  0
    9.5973  -15.9084   23.0433 O   0  0  0  0  0  0  0  0  0  0  0  0
    7.1172  -10.5394   26.1958 C   0  0  0  0  0  0  0  0  0  0  0  0
    7.1180  -12.1309   25.3188 S   0  0  0  0  0  0  0  0  0  0  0  0
    8.0914  -13.3655   26.2408 C   0  0  0  0  0  0  0  0  0  0  0  0
    8.1541  -14.6532   25.4990 C   0  0  0  0  0  0  0  0  0  0  0  0
    9.2675  -15.5789   25.8800 C   0  0  2  0  0  0  0  0  0  0  0  0
    9.1151  -16.8067   25.0994 N   0  0  0  0  0  0  0  0  0  0  0  0
    9.2992  -15.8977   27.3297 C   0  0  0  0  0  0  0  0  0  0  0  0
    8.8009  -16.9728   27.7807 O   0  0  0  0  0  0  0  0  0  0  0  0
    9.8899  -14.9949   28.1930 O   0  0  0  0  0  0  0  0  0  0  0  0
  2  1  1  6
  3  4  1  0
  3  2  1  0
  5  4  1  0
  5  6  2  0
  7  2  1  0
  7  8  2  0
  9  5  1  0
 10 11  1  0
 11 13  1  0
 12 11  2  0
 13 14  1  0
 15 14  1  1
 15 16  1  0
 16  7  1  0
 17 15  1  0
 18 17  2  0
 19 20  1  0
 20 21  1  0
 21 22  1  0
 23 22  1  1
 23 24  1  0
 23 25  1  0
 24 17  1  0
 25 27  1  0
 26 25  2  0
M  END
$$$$
