EQM.pdb
     RDKit          3D

 27 26  0  0  1  0  0  0  0  0999 V2000
   10.2262  -13.9788   18.5551 N   0  0  0  0  0  0  0  0  0  0  0  0
    8.8340  -14.0006   18.9669 C   0  0  1  0  0  0  0  0  0  0  0  0
    7.9469  -14.4875   17.8576 C   0  0  0  0  0  0  0  0  0  0  0  0
    8.3309  -13.9019   16.5157 C   0  0  0  0  0  0  0  0  0  0  0  0
    7.3518  -14.3956   15.5149 C   0  0  0  0  0  0  0  0  0  0  0  0
    7.3160  -13.9631   14.3325 O   0  0  0  0  0  0  0  0  0  0  0  0
    8.6442  -14.8966   20.1262 C   0  0  0  0  0  0  0  0  0  0  0  0
    7.5076  -14.9816   20.6429 O   0  0  0  0  0  0  0  0  0  0  0  0
    6.4374  -15.3793   15.9086 O   0  0  0  0  0  0  0  0  0  0  0  0
   12.3781  -19.5380   21.2822 N   0  0  0  0  0  0  0  0  0  0  0  0
   11.6620  -19.6069   22.5084 C   0  0  0  0  0  0  0  0  0  0  0  0
   11.9154  -20.5195   23.3114 O   0  0  0  0  0  0  0  0  0  0  0  0
   10.6127  -18.5761   22.8111 C   0  0  0  0  0  0  0  0  0  0  0  0
   10.5881  -17.6017   21.6728 C   0  0  0  0  0  0  0  0  0  0  0  0
    9.5706  -16.5249   21.7745 C   0  0  2  0  0  0  0  0  0  0  0  0
    9.7429  -15.6327   20.6230 N   0  0  0  0  0  0  0  0  0  0  0  0
    9.7695  -15.7221   23.0019 C   0  0  0  0  0  0  0  0  0  0  0  0
   10.7724  -14.9551   23.1659 O   0  0  0  0  0  0  0  0  0  0  0  0
    6.2653  -10.8326   27.7366 C   0  0  0  0  0  0  0  0  0  0  0  0
    6.2621  -12.0306   26.3703 S   0  0  0  0  0  0  0  0  0  0  0  0
    7.7223  -13.1164   26.4722 C   0  0  0  0  0  0  0  0  0  0  0  0
    7.7841  -14.0334   25.3027 C   0  0  0  0  0  0  0  0  0  0  0  0
    8.9565  -14.9636   25.2567 C   0  0  2  0  0  0  0  0  0  0  0  0
    8.8270  -15.7871   24.0546 N   0  0  0  0  0  0  0  0  0  0  0  0
    9.0696  -15.8293   26.4575 C   0  0  0  0  0  0  0  0  0  0  0  0
    9.2876  -15.3400   27.6066 O   0  0  0  0  0  0  0  0  0  0  0  0
    8.9297  -17.1954   26.3038 O   0  0  0  0  0  0  0  0  0  0  0  0
  2  1  1  6
  3  4  1  0
  3  2  1  0
  5  4  1  0
  5  6  2  0
  7  2  1  0
  7  8  2  0
  9  5  1  0
 10 11  1  0
 11 13  1  0
 12 11  2  0
 13 14  1  0
 15 14  1  6
 15 16  1  0
 16  7  1  0
 17 15  1  0
 18 17  2  0
 19 20  1  0
 20 21  1  0
 21 22  1  0
 23 22  1  1
 23 24  1  0
 23 25  1  0
 24 17  1  0
 25 27  1  0
 26 25  2  0
M  END
$$$$
