EQM.pdb
     RDKit          3D

 27 26  0  0  1  0  0  0  0  0999 V2000
   12.1697  -16.7906   19.2382 N   0  0  0  0  0  0  0  0  0  0  0  0
   12.7360  -15.7204   20.0397 C   0  0  1  0  0  0  0  0  0  0  0  0
   13.5541  -14.7850   19.1968 C   0  0  0  0  0  0  0  0  0  0  0  0
   13.4705  -15.1178   17.7226 C   0  0  0  0  0  0  0  0  0  0  0  0
   14.5315  -14.3458   17.0283 C   0  0  0  0  0  0  0  0  0  0  0  0
   15.3257  -13.5844   17.6414 O   0  0  0  0  0  0  0  0  0  0  0  0
   11.6692  -14.9308   20.6888 C   0  0  0  0  0  0  0  0  0  0  0  0
   11.9839  -13.8992   21.3236 O   0  0  0  0  0  0  0  0  0  0  0  0
   14.6467  -14.4748   15.6395 O   0  0  0  0  0  0  0  0  0  0  0  0
    8.2210  -12.4229   19.6820 N   0  0  0  0  0  0  0  0  0  0  0  0
    8.1118  -13.4082   18.6630 C   0  0  0  0  0  0  0  0  0  0  0  0
    8.1216  -13.0567   17.4721 O   0  0  0  0  0  0  0  0  0  0  0  0
    7.9865  -14.8555   19.0439 C   0  0  0  0  0  0  0  0  0  0  0  0
    7.9777  -14.9346   20.5404 C   0  0  0  0  0  0  0  0  0  0  0  0
    9.2545  -14.5744   21.2075 C   0  0  2  0  0  0  0  0  0  0  0  0
   10.3260  -15.3551   20.5798 N   0  0  0  0  0  0  0  0  0  0  0  0
    9.2200  -14.9279   22.6443 C   0  0  0  0  0  0  0  0  0  0  0  0
    9.8777  -15.9054   23.1270 O   0  0  0  0  0  0  0  0  0  0  0  0
    5.3866  -11.3483   26.6024 C   0  0  0  0  0  0  0  0  0  0  0  0
    6.3642  -12.2851   27.8143 S   0  0  0  0  0  0  0  0  0  0  0  0
    7.0939  -13.7636   27.0375 C   0  0  0  0  0  0  0  0  0  0  0  0
    7.4910  -13.4829   25.6318 C   0  0  0  0  0  0  0  0  0  0  0  0
    8.3026  -14.5424   24.9530 C   0  0  2  0  0  0  0  0  0  0  0  0
    8.4342  -14.1707   23.5442 N   0  0  0  0  0  0  0  0  0  0  0  0
    7.7141  -15.9004   25.0686 C   0  0  0  0  0  0  0  0  0  0  0  0
    6.9070  -16.3470   24.1987 O   0  0  0  0  0  0  0  0  0  0  0  0
    8.0648  -16.6835   26.1517 O   0  0  0  0  0  0  0  0  0  0  0  0
  2  1  1  6
  3  4  1  0
  3  2  1  0
  5  4  1  0
  5  6  2  0
  7  2  1  0
  7  8  2  0
  9  5  1  0
 10 11  1  0
 11 13  1  0
 12 11  2  0
 13 14  1  0
 15 14  1  6
 15 16  1  0
 16  7  1  0
 17 15  1  0
 18 17  2  0
 19 20  1  0
 20 21  1  0
 21 22  1  0
 23 22  1  1
 23 24  1  0
 23 25  1  0
 24 17  1  0
 25 27  1  0
 26 25  2  0
M  END
$$$$
