EQM.pdb
     RDKit          3D

 27 26  0  0  1  0  0  0  0  0999 V2000
    6.9289  -16.1824   17.6575 N   0  0  0  0  0  0  0  0  0  0  0  0
    8.0186  -15.6468   18.4538 C   0  0  1  0  0  0  0  0  0  0  0  0
    8.0221  -14.1454   18.4297 C   0  0  0  0  0  0  0  0  0  0  0  0
    7.9514  -13.5931   17.0222 C   0  0  0  0  0  0  0  0  0  0  0  0
    9.2118  -13.9647   16.3315 C   0  0  0  0  0  0  0  0  0  0  0  0
   10.1333  -14.6053   16.9030 O   0  0  0  0  0  0  0  0  0  0  0  0
    7.8999  -16.0777   19.8620 C   0  0  0  0  0  0  0  0  0  0  0  0
    6.8034  -15.9307   20.4472 O   0  0  0  0  0  0  0  0  0  0  0  0
    9.3739  -13.5847   14.9943 O   0  0  0  0  0  0  0  0  0  0  0  0
   11.3268  -20.7067   24.4567 N   0  0  0  0  0  0  0  0  0  0  0  0
   10.7735  -20.1591   23.2670 C   0  0  0  0  0  0  0  0  0  0  0  0
   11.0543  -20.6729   22.1720 O   0  0  0  0  0  0  0  0  0  0  0  0
    9.8601  -18.9703   23.3550 C   0  0  0  0  0  0  0  0  0  0  0  0
    9.7898  -18.3468   21.9941 C   0  0  0  0  0  0  0  0  0  0  0  0
    8.8890  -17.1724   21.8744 C   0  0  2  0  0  0  0  0  0  0  0  0
    9.0195  -16.6420   20.5131 N   0  0  0  0  0  0  0  0  0  0  0  0
    9.2857  -16.1019   22.8164 C   0  0  0  0  0  0  0  0  0  0  0  0
   10.3955  -15.4845   22.7264 O   0  0  0  0  0  0  0  0  0  0  0  0
    6.3166  -10.5759   27.5730 C   0  0  0  0  0  0  0  0  0  0  0  0
    6.1260  -11.8932   26.3361 S   0  0  0  0  0  0  0  0  0  0  0  0
    7.6816  -12.8251   26.1534 C   0  0  0  0  0  0  0  0  0  0  0  0
    7.5619  -13.8531   25.0852 C   0  0  0  0  0  0  0  0  0  0  0  0
    8.7827  -14.6812   24.8286 C   0  0  2  0  0  0  0  0  0  0  0  0
    8.4209  -15.7261   23.8707 N   0  0  0  0  0  0  0  0  0  0  0  0
    9.3503  -15.2911   26.0574 C   0  0  0  0  0  0  0  0  0  0  0  0
    9.0234  -16.4590   26.4269 O   0  0  0  0  0  0  0  0  0  0  0  0
   10.2548  -14.5588   26.8024 O   0  0  0  0  0  0  0  0  0  0  0  0
  2  1  1  6
  3  4  1  0
  3  2  1  0
  5  4  1  0
  5  6  2  0
  7  2  1  0
  7  8  2  0
  9  5  1  0
 10 11  1  0
 11 13  1  0
 12 11  2  0
 13 14  1  0
 15 14  1  6
 15 16  1  0
 16  7  1  0
 17 15  1  0
 18 17  2  0
 19 20  1  0
 20 21  1  0
 21 22  1  0
 23 22  1  1
 23 24  1  0
 23 25  1  0
 24 17  1  0
 25 27  1  0
 26 25  2  0
M  END
$$$$
