EQM.pdb
     RDKit          3D

 27 26  0  0  1  0  0  0  0  0999 V2000
   10.3815  -17.1061   19.5562 N   0  0  0  0  0  0  0  0  0  0  0  0
    9.1328  -16.3672   19.6121 C   0  0  1  0  0  0  0  0  0  0  0  0
    8.1499  -16.8845   18.6017 C   0  0  0  0  0  0  0  0  0  0  0  0
    8.6607  -16.7524   17.1830 C   0  0  0  0  0  0  0  0  0  0  0  0
    7.6748  -17.4100   16.2889 C   0  0  0  0  0  0  0  0  0  0  0  0
    6.6199  -17.9448   16.7217 O   0  0  0  0  0  0  0  0  0  0  0  0
    8.5138  -16.4843   20.9485 C   0  0  0  0  0  0  0  0  0  0  0  0
    7.4291  -15.8986   21.1640 O   0  0  0  0  0  0  0  0  0  0  0  0
    7.9353  -17.4316   14.9140 O   0  0  0  0  0  0  0  0  0  0  0  0
    6.2048  -19.6977   24.7524 N   0  0  0  0  0  0  0  0  0  0  0  0
    6.3779  -19.7930   23.3445 C   0  0  0  0  0  0  0  0  0  0  0  0
    5.3782  -19.8633   22.6113 O   0  0  0  0  0  0  0  0  0  0  0  0
    7.7649  -19.8070   22.7691 C   0  0  0  0  0  0  0  0  0  0  0  0
    8.6113  -18.8869   23.5953 C   0  0  0  0  0  0  0  0  0  0  0  0
    8.5131  -17.4457   23.2511 C   0  0  2  0  0  0  0  0  0  0  0  0
    9.1560  -17.2495   21.9474 N   0  0  0  0  0  0  0  0  0  0  0  0
    9.2344  -16.6141   24.2405 C   0  0  0  0  0  0  0  0  0  0  0  0
   10.4915  -16.4195   24.1876 O   0  0  0  0  0  0  0  0  0  0  0  0
    6.2669  -10.7247   25.7294 C   0  0  0  0  0  0  0  0  0  0  0  0
    6.5925  -12.1768   26.7722 S   0  0  0  0  0  0  0  0  0  0  0  0
    7.9967  -13.1329   26.1120 C   0  0  0  0  0  0  0  0  0  0  0  0
    8.2916  -14.3073   26.9758 C   0  0  0  0  0  0  0  0  0  0  0  0
    9.2228  -15.3296   26.4016 C   0  0  2  0  0  0  0  0  0  0  0  0
    8.5291  -15.9974   25.3002 N   0  0  0  0  0  0  0  0  0  0  0  0
    9.6836  -16.3315   27.3954 C   0  0  0  0  0  0  0  0  0  0  0  0
    9.2373  -17.5183   27.3928 O   0  0  0  0  0  0  0  0  0  0  0  0
   10.6211  -15.9483   28.3354 O   0  0  0  0  0  0  0  0  0  0  0  0
  2  1  1  1
  3  4  1  0
  3  2  1  0
  5  4  1  0
  5  6  2  0
  7  2  1  0
  7  8  2  0
  9  5  1  0
 10 11  1  0
 11 13  1  0
 12 11  2  0
 13 14  1  0
 15 14  1  1
 15 16  1  0
 16  7  1  0
 17 15  1  0
 18 17  2  0
 19 20  1  0
 20 21  1  0
 21 22  1  0
 23 22  1  1
 23 24  1  0
 23 25  1  0
 24 17  1  0
 25 27  1  0
 26 25  2  0
M  END
$$$$
