EQM.pdb
     RDKit          3D

 27 26  0  0  1  0  0  0  0  0999 V2000
    9.4431  -17.9433   20.1549 N   0  0  0  0  0  0  0  0  0  0  0  0
    8.3729  -17.0433   19.7637 C   0  0  1  0  0  0  0  0  0  0  0  0
    7.7287  -17.4897   18.4829 C   0  0  0  0  0  0  0  0  0  0  0  0
    8.6970  -17.4828   17.3196 C   0  0  0  0  0  0  0  0  0  0  0  0
    7.9464  -17.9026   16.1096 C   0  0  0  0  0  0  0  0  0  0  0  0
    6.7293  -18.2246   16.1459 O   0  0  0  0  0  0  0  0  0  0  0  0
    7.3254  -16.9908   20.8043 C   0  0  0  0  0  0  0  0  0  0  0  0
    6.3343  -16.2480   20.6252 O   0  0  0  0  0  0  0  0  0  0  0  0
    8.6247  -17.9391   14.8859 O   0  0  0  0  0  0  0  0  0  0  0  0
    5.2435  -21.1710   24.8622 N   0  0  0  0  0  0  0  0  0  0  0  0
    6.6394  -21.1308   24.5954 C   0  0  0  0  0  0  0  0  0  0  0  0
    7.3889  -21.9529   25.1470 O   0  0  0  0  0  0  0  0  0  0  0  0
    7.1826  -20.0962   23.6521 C   0  0  0  0  0  0  0  0  0  0  0  0
    6.0442  -19.2148   23.2363 C   0  0  0  0  0  0  0  0  0  0  0  0
    6.3961  -17.7959   22.9756 C   0  0  2  0  0  0  0  0  0  0  0  0
    7.4650  -17.7746   21.9713 N   0  0  0  0  0  0  0  0  0  0  0  0
    6.9132  -17.1445   24.1998 C   0  0  0  0  0  0  0  0  0  0  0  0
    6.2049  -16.9885   25.2462 O   0  0  0  0  0  0  0  0  0  0  0  0
    6.1242  -10.9878   27.0592 C   0  0  0  0  0  0  0  0  0  0  0  0
    5.9550  -12.4583   26.0052 S   0  0  0  0  0  0  0  0  0  0  0  0
    7.5002  -13.4248   26.0080 C   0  0  0  0  0  0  0  0  0  0  0  0
    7.3907  -14.6026   25.1061 C   0  0  0  0  0  0  0  0  0  0  0  0
    8.6067  -15.4705   25.0062 C   0  0  2  0  0  0  0  0  0  0  0  0
    8.2428  -16.6637   24.2420 N   0  0  0  0  0  0  0  0  0  0  0  0
    9.1623  -15.8611   26.3264 C   0  0  0  0  0  0  0  0  0  0  0  0
    9.1732  -17.0704   26.7070 O   0  0  0  0  0  0  0  0  0  0  0  0
    9.6773  -14.8746   27.1456 O   0  0  0  0  0  0  0  0  0  0  0  0
  2  1  1  1
  3  4  1  0
  3  2  1  0
  5  4  1  0
  5  6  2  0
  7  2  1  0
  7  8  2  0
  9  5  1  0
 10 11  1  0
 11 13  1  0
 12 11  2  0
 13 14  1  0
 15 14  1  1
 15 16  1  0
 16  7  1  0
 17 15  1  0
 18 17  2  0
 19 20  1  0
 20 21  1  0
 21 22  1  0
 23 22  1  1
 23 24  1  0
 23 25  1  0
 24 17  1  0
 25 27  1  0
 26 25  2  0
M  END
$$$$
