EQM.pdb
     RDKit          3D

 27 26  0  0  1  0  0  0  0  0999 V2000
    8.6946  -18.8679   18.8760 N   0  0  0  0  0  0  0  0  0  0  0  0
    9.0303  -19.2196   20.2442 C   0  0  1  0  0  0  0  0  0  0  0  0
   10.4616  -18.8881   20.5547 C   0  0  0  0  0  0  0  0  0  0  0  0
   11.0893  -18.0052   19.4977 C   0  0  0  0  0  0  0  0  0  0  0  0
   12.4906  -17.7399   19.9101 C   0  0  0  0  0  0  0  0  0  0  0  0
   12.9942  -18.2345   20.9532 O   0  0  0  0  0  0  0  0  0  0  0  0
    8.1766  -18.4835   21.1992 C   0  0  0  0  0  0  0  0  0  0  0  0
    7.4235  -17.5832   20.7649 O   0  0  0  0  0  0  0  0  0  0  0  0
   13.2747  -16.9075   19.1033 O   0  0  0  0  0  0  0  0  0  0  0  0
    5.9586  -21.0842   26.1277 N   0  0  0  0  0  0  0  0  0  0  0  0
    7.0593  -20.3311   26.6202 C   0  0  0  0  0  0  0  0  0  0  0  0
    7.4899  -20.5576   27.7626 O   0  0  0  0  0  0  0  0  0  0  0  0
    7.6816  -19.2761   25.7514 C   0  0  0  0  0  0  0  0  0  0  0  0
    6.8674  -19.1790   24.4970 C   0  0  0  0  0  0  0  0  0  0  0  0
    7.3185  -18.1564   23.5193 C   0  0  2  0  0  0  0  0  0  0  0  0
    8.2291  -18.8093   22.5728 N   0  0  0  0  0  0  0  0  0  0  0  0
    8.0683  -17.0729   24.1936 C   0  0  0  0  0  0  0  0  0  0  0  0
    9.3397  -17.0546   24.2577 O   0  0  0  0  0  0  0  0  0  0  0  0
    6.0101  -10.8685   28.2281 C   0  0  0  0  0  0  0  0  0  0  0  0
    6.2031  -11.3253   26.4800 S   0  0  0  0  0  0  0  0  0  0  0  0
    7.5430  -12.5452   26.2849 C   0  0  0  0  0  0  0  0  0  0  0  0
    7.0525  -13.7653   25.5897 C   0  0  0  0  0  0  0  0  0  0  0  0
    8.0755  -14.8242   25.3177 C   0  0  2  0  0  0  0  0  0  0  0  0
    7.3751  -16.0005   24.8021 N   0  0  0  0  0  0  0  0  0  0  0  0
    8.8761  -15.1913   26.5128 C   0  0  0  0  0  0  0  0  0  0  0  0
    8.5399  -16.1574   27.2620 O   0  0  0  0  0  0  0  0  0  0  0  0
   10.0105  -14.4567   26.8005 O   0  0  0  0  0  0  0  0  0  0  0  0
  2  1  1  6
  3  4  1  0
  3  2  1  0
  5  4  1  0
  5  6  2  0
  7  2  1  0
  7  8  2  0
  9  5  1  0
 10 11  1  0
 11 13  1  0
 12 11  2  0
 13 14  1  0
 15 14  1  1
 15 16  1  0
 16  7  1  0
 17 15  1  0
 18 17  2  0
 19 20  1  0
 20 21  1  0
 21 22  1  0
 23 22  1  1
 23 24  1  0
 23 25  1  0
 24 17  1  0
 25 27  1  0
 26 25  2  0
M  END
$$$$
