EQM.pdb
     RDKit          3D

 27 26  0  0  1  0  0  0  0  0999 V2000
    7.9093  -18.5856   18.8889 N   0  0  0  0  0  0  0  0  0  0  0  0
    8.7305  -17.5694   19.5225 C   0  0  1  0  0  0  0  0  0  0  0  0
    8.3767  -16.1974   19.0253 C   0  0  0  0  0  0  0  0  0  0  0  0
    8.5354  -16.0711   17.5253 C   0  0  0  0  0  0  0  0  0  0  0  0
    8.0635  -14.7180   17.1374 C   0  0  0  0  0  0  0  0  0  0  0  0
    7.5076  -14.4865   16.0312 O   0  0  0  0  0  0  0  0  0  0  0  0
    8.5437  -17.5831   20.9880 C   0  0  0  0  0  0  0  0  0  0  0  0
    7.4149  -17.3108   21.4545 O   0  0  0  0  0  0  0  0  0  0  0  0
    8.2472  -13.6654   18.0412 O   0  0  0  0  0  0  0  0  0  0  0  0
   12.4257  -20.5921   24.5779 N   0  0  0  0  0  0  0  0  0  0  0  0
   11.6188  -20.0615   25.6213 C   0  0  0  0  0  0  0  0  0  0  0  0
   11.8742  -20.3581   26.7997 O   0  0  0  0  0  0  0  0  0  0  0  0
   10.4729  -19.1525   25.2807 C   0  0  0  0  0  0  0  0  0  0  0  0
   10.4705  -18.9580   23.7947 C   0  0  0  0  0  0  0  0  0  0  0  0
    9.4429  -18.0211   23.2740 C   0  0  2  0  0  0  0  0  0  0  0  0
    9.6366  -17.9006   21.8251 N   0  0  0  0  0  0  0  0  0  0  0  0
    9.6057  -16.6740   23.8653 C   0  0  0  0  0  0  0  0  0  0  0  0
   10.5154  -15.8654   23.4916 O   0  0  0  0  0  0  0  0  0  0  0  0
    5.8016  -10.7976   27.4357 C   0  0  0  0  0  0  0  0  0  0  0  0
    5.8255  -12.3762   26.5361 S   0  0  0  0  0  0  0  0  0  0  0  0
    7.5004  -13.0945   26.5549 C   0  0  0  0  0  0  0  0  0  0  0  0
    7.5526  -14.3401   25.7436 C   0  0  0  0  0  0  0  0  0  0  0  0
    8.9091  -14.9440   25.5512 C   0  0  2  0  0  0  0  0  0  0  0  0
    8.7331  -16.2366   24.8890 N   0  0  0  0  0  0  0  0  0  0  0  0
    9.6615  -15.1195   26.8190 C   0  0  0  0  0  0  0  0  0  0  0  0
   10.0032  -14.1251   27.5274 O   0  0  0  0  0  0  0  0  0  0  0  0
    9.9869  -16.4000   27.2235 O   0  0  0  0  0  0  0  0  0  0  0  0
  2  1  1  6
  3  4  1  0
  3  2  1  0
  5  4  1  0
  5  6  2  0
  7  2  1  0
  7  8  2  0
  9  5  1  0
 10 11  1  0
 11 13  1  0
 12 11  2  0
 13 14  1  0
 15 14  1  1
 15 16  1  0
 16  7  1  0
 17 15  1  0
 18 17  2  0
 19 20  1  0
 20 21  1  0
 21 22  1  0
 23 22  1  1
 23 24  1  0
 23 25  1  0
 24 17  1  0
 25 27  1  0
 26 25  2  0
M  END
$$$$
