EQM.pdb
     RDKit          3D

 27 26  0  0  1  0  0  0  0  0999 V2000
    9.5583  -18.4948   19.3933 N   0  0  0  0  0  0  0  0  0  0  0  0
    8.4869  -17.5274   19.2361 C   0  0  1  0  0  0  0  0  0  0  0  0
    7.5192  -17.9567   18.1713 C   0  0  0  0  0  0  0  0  0  0  0  0
    8.1751  -18.8146   17.1107 C   0  0  0  0  0  0  0  0  0  0  0  0
    7.1355  -19.1621   16.1096 C   0  0  0  0  0  0  0  0  0  0  0  0
    7.3747  -19.8907   15.1105 O   0  0  0  0  0  0  0  0  0  0  0  0
    7.7335  -17.3700   20.4973 C   0  0  0  0  0  0  0  0  0  0  0  0
    6.7281  -16.6251   20.5101 O   0  0  0  0  0  0  0  0  0  0  0  0
    5.8430  -18.6566   16.2906 O   0  0  0  0  0  0  0  0  0  0  0  0
    7.8990  -20.7657   26.6688 N   0  0  0  0  0  0  0  0  0  0  0  0
    7.0048  -20.5569   25.5834 C   0  0  0  0  0  0  0  0  0  0  0  0
    6.3631  -21.5180   25.1292 O   0  0  0  0  0  0  0  0  0  0  0  0
    6.8518  -19.1792   25.0057 C   0  0  0  0  0  0  0  0  0  0  0  0
    7.4778  -19.1830   23.6441 C   0  0  0  0  0  0  0  0  0  0  0  0
    7.4450  -17.8861   22.9215 C   0  0  2  0  0  0  0  0  0  0  0  0
    8.1622  -18.0591   21.6537 N   0  0  0  0  0  0  0  0  0  0  0  0
    8.1398  -16.8315   23.6934 C   0  0  0  0  0  0  0  0  0  0  0  0
    9.4082  -16.7248   23.7227 O   0  0  0  0  0  0  0  0  0  0  0  0
    6.5899   -9.9821   27.4618 C   0  0  0  0  0  0  0  0  0  0  0  0
    6.0285  -11.4309   26.5196 S   0  0  0  0  0  0  0  0  0  0  0  0
    7.3910  -12.6239   26.3145 C   0  0  0  0  0  0  0  0  0  0  0  0
    6.9592  -13.7860   25.4925 C   0  0  0  0  0  0  0  0  0  0  0  0
    8.0341  -14.7533   25.1043 C   0  0  2  0  0  0  0  0  0  0  0  0
    7.3947  -15.8893   24.4403 N   0  0  0  0  0  0  0  0  0  0  0  0
    8.8451  -15.2262   26.2543 C   0  0  0  0  0  0  0  0  0  0  0  0
    9.7079  -14.4787   26.8061 O   0  0  0  0  0  0  0  0  0  0  0  0
    8.6424  -16.5099   26.7237 O   0  0  0  0  0  0  0  0  0  0  0  0
  2  1  1  1
  3  4  1  0
  3  2  1  0
  5  4  1  0
  5  6  2  0
  7  2  1  0
  7  8  2  0
  9  5  1  0
 10 11  1  0
 11 13  1  0
 12 11  2  0
 13 14  1  0
 15 14  1  1
 15 16  1  0
 16  7  1  0
 17 15  1  0
 18 17  2  0
 19 20  1  0
 20 21  1  0
 21 22  1  0
 23 22  1  1
 23 24  1  0
 23 25  1  0
 24 17  1  0
 25 27  1  0
 26 25  2  0
M  END
$$$$
