EQM.pdb
     RDKit          3D

 27 26  0  0  1  0  0  0  0  0999 V2000
   14.6592  -18.0026   19.1597 N   0  0  0  0  0  0  0  0  0  0  0  0
   14.9370  -18.1718   20.5748 C   0  0  1  0  0  0  0  0  0  0  0  0
   16.3170  -17.6901   20.9188 C   0  0  0  0  0  0  0  0  0  0  0  0
   16.8934  -16.7867   19.8499 C   0  0  0  0  0  0  0  0  0  0  0  0
   18.1836  -16.2573   20.3589 C   0  0  0  0  0  0  0  0  0  0  0  0
   18.4709  -16.2385   21.5851 O   0  0  0  0  0  0  0  0  0  0  0  0
   13.9727  -17.4083   21.3933 C   0  0  0  0  0  0  0  0  0  0  0  0
   13.8197  -16.1878   21.1629 O   0  0  0  0  0  0  0  0  0  0  0  0
   19.1102  -15.7623   19.4342 O   0  0  0  0  0  0  0  0  0  0  0  0
    8.5601  -19.3186   22.6221 N   0  0  0  0  0  0  0  0  0  0  0  0
    9.5973  -19.7821   21.7673 C   0  0  0  0  0  0  0  0  0  0  0  0
    9.3718  -20.7256   20.9922 O   0  0  0  0  0  0  0  0  0  0  0  0
   10.9460  -19.1235   21.8164 C   0  0  0  0  0  0  0  0  0  0  0  0
   10.9181  -18.1075   22.9177 C   0  0  0  0  0  0  0  0  0  0  0  0
   12.1849  -17.3632   23.1334 C   0  0  2  0  0  0  0  0  0  0  0  0
   13.2496  -18.0683   22.4118 N   0  0  0  0  0  0  0  0  0  0  0  0
   12.5490  -17.3413   24.5679 C   0  0  0  0  0  0  0  0  0  0  0  0
   13.5335  -16.6701   25.0163 O   0  0  0  0  0  0  0  0  0  0  0  0
    9.9718  -12.7928   28.8772 C   0  0  0  0  0  0  0  0  0  0  0  0
   11.0398  -14.0194   28.0667 S   0  0  0  0  0  0  0  0  0  0  0  0
   10.1039  -15.5421   27.7104 C   0  0  0  0  0  0  0  0  0  0  0  0
   10.6610  -16.2412   26.5215 C   0  0  0  0  0  0  0  0  0  0  0  0
   11.3907  -17.5204   26.7920 C   0  0  2  0  0  0  0  0  0  0  0  0
   11.7943  -18.0857   25.5045 N   0  0  0  0  0  0  0  0  0  0  0  0
   10.5854  -18.5090   27.5523 C   0  0  0  0  0  0  0  0  0  0  0  0
   10.6989  -18.6266   28.8096 O   0  0  0  0  0  0  0  0  0  0  0  0
    9.6957  -19.3093   26.8614 O   0  0  0  0  0  0  0  0  0  0  0  0
  2  1  1  6
  3  4  1  0
  3  2  1  0
  5  4  1  0
  5  6  2  0
  7  2  1  0
  7  8  2  0
  9  5  1  0
 10 11  1  0
 11 13  1  0
 12 11  2  0
 13 14  1  0
 15 14  1  1
 15 16  1  0
 16  7  1  0
 17 15  1  0
 18 17  2  0
 19 20  1  0
 20 21  1  0
 21 22  1  0
 23 22  1  6
 23 24  1  0
 23 25  1  0
 24 17  1  0
 25 27  1  0
 26 25  2  0
M  END
$$$$
