EQM.pdb
     RDKit          3D

 27 26  0  0  1  0  0  0  0  0999 V2000
    9.6199  -17.9625   18.3501 N   0  0  0  0  0  0  0  0  0  0  0  0
    9.9898  -18.5579   19.6217 C   0  0  1  0  0  0  0  0  0  0  0  0
   11.4322  -18.2945   19.9456 C   0  0  0  0  0  0  0  0  0  0  0  0
   11.9181  -16.9789   19.3763 C   0  0  0  0  0  0  0  0  0  0  0  0
   13.3512  -16.8369   19.7367 C   0  0  0  0  0  0  0  0  0  0  0  0
   14.2727  -16.8862   18.8795 O   0  0  0  0  0  0  0  0  0  0  0  0
    9.1698  -18.0035   20.7184 C   0  0  0  0  0  0  0  0  0  0  0  0
    8.6678  -16.8655   20.5800 O   0  0  0  0  0  0  0  0  0  0  0  0
   13.6820  -16.6411   21.0824 O   0  0  0  0  0  0  0  0  0  0  0  0
    4.5408  -20.4346   22.1011 N   0  0  0  0  0  0  0  0  0  0  0  0
    5.4334  -19.9488   23.0953 C   0  0  0  0  0  0  0  0  0  0  0  0
    5.0542  -19.0561   23.8706 O   0  0  0  0  0  0  0  0  0  0  0  0
    6.8178  -20.5228   23.1906 C   0  0  0  0  0  0  0  0  0  0  0  0
    7.7070  -19.4740   23.7866 C   0  0  0  0  0  0  0  0  0  0  0  0
    8.0112  -18.3177   22.9060 C   0  0  2  0  0  0  0  0  0  0  0  0
    8.9722  -18.7648   21.8920 N   0  0  0  0  0  0  0  0  0  0  0  0
    8.6412  -17.2192   23.6723 C   0  0  0  0  0  0  0  0  0  0  0  0
    9.9036  -17.0876   23.7723 O   0  0  0  0  0  0  0  0  0  0  0  0
    6.7545  -10.3635   27.2824 C   0  0  0  0  0  0  0  0  0  0  0  0
    6.2784  -11.8303   26.3214 S   0  0  0  0  0  0  0  0  0  0  0  0
    7.7057  -12.9437   26.1097 C   0  0  0  0  0  0  0  0  0  0  0  0
    7.3443  -14.1151   25.2673 C   0  0  0  0  0  0  0  0  0  0  0  0
    8.4222  -15.1332   25.0583 C   0  0  2  0  0  0  0  0  0  0  0  0
    7.8373  -16.2609   24.3328 N   0  0  0  0  0  0  0  0  0  0  0  0
    9.0395  -15.6063   26.3229 C   0  0  0  0  0  0  0  0  0  0  0  0
    8.5960  -16.6248   26.9340 O   0  0  0  0  0  0  0  0  0  0  0  0
   10.1213  -14.9128   26.8310 O   0  0  0  0  0  0  0  0  0  0  0  0
  2  1  1  6
  3  4  1  0
  3  2  1  0
  5  4  1  0
  5  6  2  0
  7  2  1  0
  7  8  2  0
  9  5  1  0
 10 11  1  0
 11 13  1  0
 12 11  2  0
 13 14  1  0
 15 14  1  1
 15 16  1  0
 16  7  1  0
 17 15  1  0
 18 17  2  0
 19 20  1  0
 20 21  1  0
 21 22  1  0
 23 22  1  1
 23 24  1  0
 23 25  1  0
 24 17  1  0
 25 27  1  0
 26 25  2  0
M  END
$$$$
