CIQ.pdb
     RDKit          3D

 24 23  0  0  1  0  0  0  0  0999 V2000
   10.0662  -17.6798   16.2462 N   0  0  0  0  0  0  0  0  0  0  0  0
    9.1536  -17.7548   17.3428 C   0  0  1  0  0  0  0  0  0  0  0  0
    9.0605  -19.1632   17.9213 C   0  0  0  0  0  0  0  0  0  0  0  0
    7.6317  -20.0333   17.2131 S   0  0  0  0  0  0  0  0  0  0  0  0
    9.4984  -16.8441   18.4561 C   0  0  0  0  0  0  0  0  0  0  0  0
   10.7138  -16.6590   18.7236 O   0  0  0  0  0  0  0  0  0  0  0  0
    6.5802  -12.3649   20.1623 C   0  0  0  0  0  0  0  0  0  0  0  0
    7.7372  -13.2484   19.7207 C   0  0  0  0  0  0  0  0  0  0  0  0
    7.8725  -14.3402   20.7522 C   0  0  2  0  0  0  0  0  0  0  0  0
    8.1562  -13.7316   22.0896 C   0  0  0  0  0  0  0  0  0  0  0  0
    8.9263  -15.3562   20.3819 C   0  0  2  0  0  0  0  0  0  0  0  0
    8.5380  -16.1601   19.2486 N   0  0  0  0  0  0  0  0  0  0  0  0
    9.2004  -16.2006   21.5827 C   0  0  0  0  0  0  0  0  0  0  0  0
    8.3562  -17.0797   21.8910 O   0  0  0  0  0  0  0  0  0  0  0  0
   15.2739  -18.8493   24.6426 N   0  0  0  0  0  0  0  0  0  0  0  0
   14.4195  -18.5146   23.5711 C   0  0  0  0  0  0  0  0  0  0  0  0
   14.7958  -18.3370   22.3870 O   0  0  0  0  0  0  0  0  0  0  0  0
   12.9554  -18.3582   23.8608 C   0  0  0  0  0  0  0  0  0  0  0  0
   12.3491  -17.3005   22.9899 C   0  0  0  0  0  0  0  0  0  0  0  0
   10.8888  -17.1610   23.2183 C   0  0  2  0  0  0  0  0  0  0  0  0
   10.3478  -16.0603   22.3778 N   0  0  0  0  0  0  0  0  0  0  0  0
   10.5714  -16.7857   24.5939 C   0  0  0  0  0  0  0  0  0  0  0  0
   10.1781  -15.5007   24.9094 O   0  0  0  0  0  0  0  0  0  0  0  0
   10.6433  -17.6045   25.5266 O   0  0  0  0  0  0  0  0  0  0  0  0
  2  1  1  6
  3  2  1  0
  4  3  1  0
  5  2  1  0
  5  6  2  0
  7  8  1  0
  8  9  1  0
  9 11  1  0
  9 10  1  1
 11 12  1  6
 12  5  1  0
 13 11  1  0
 14 13  2  0
 16 15  1  0
 17 16  2  0
 18 16  1  0
 19 18  1  0
 20 19  1  1
 20 21  1  0
 21 13  1  0
 22 20  1  0
 23 22  1  0
 24 22  2  0
M  END
$$$$
