CIQ.pdb
     RDKit          3D

 24 23  0  0  1  0  0  0  0  0999 V2000
    8.0785  -15.3888   19.7023 N   0  0  0  0  0  0  0  0  0  0  0  0
    7.2427  -15.5694   20.8468 C   0  0  1  0  0  0  0  0  0  0  0  0
    6.7453  -17.0056   20.9779 C   0  0  0  0  0  0  0  0  0  0  0  0
    5.8610  -17.4976   19.4693 S   0  0  0  0  0  0  0  0  0  0  0  0
    7.9073  -15.2164   22.1201 C   0  0  0  0  0  0  0  0  0  0  0  0
    9.1062  -15.5607   22.2850 O   0  0  0  0  0  0  0  0  0  0  0  0
    7.3332  -11.5985   27.0969 C   0  0  0  0  0  0  0  0  0  0  0  0
    8.0649  -12.7637   26.4480 C   0  0  0  0  0  0  0  0  0  0  0  0
    7.3014  -13.1176   25.1966 C   0  0  2  0  0  0  0  0  0  0  0  0
    5.8896  -13.4625   25.5534 C   0  0  0  0  0  0  0  0  0  0  0  0
    7.9547  -14.2349   24.4188 C   0  0  2  0  0  0  0  0  0  0  0  0
    7.2742  -14.5084   23.1764 N   0  0  0  0  0  0  0  0  0  0  0  0
    8.0025  -15.4443   25.2935 C   0  0  0  0  0  0  0  0  0  0  0  0
    7.0370  -16.2478   25.2427 O   0  0  0  0  0  0  0  0  0  0  0  0
    9.7942  -20.8598   24.4271 N   0  0  0  0  0  0  0  0  0  0  0  0
   10.6060  -19.7539   24.0988 C   0  0  0  0  0  0  0  0  0  0  0  0
   11.0205  -19.4907   22.9438 O   0  0  0  0  0  0  0  0  0  0  0  0
   11.0061  -18.8216   25.2046 C   0  0  0  0  0  0  0  0  0  0  0  0
   10.3154  -17.4995   25.0641 C   0  0  0  0  0  0  0  0  0  0  0  0
    9.6449  -17.0851   26.3222 C   0  0  2  0  0  0  0  0  0  0  0  0
    9.0670  -15.7245   26.1635 N   0  0  0  0  0  0  0  0  0  0  0  0
   10.5759  -16.9789   27.4430 C   0  0  0  0  0  0  0  0  0  0  0  0
   10.9392  -18.0912   28.1754 O   0  0  0  0  0  0  0  0  0  0  0  0
   11.0726  -15.8895   27.7774 O   0  0  0  0  0  0  0  0  0  0  0  0
  2  1  1  6
  3  2  1  0
  4  3  1  0
  5  2  1  0
  5  6  2  0
  7  8  1  0
  8  9  1  0
  9 11  1  0
  9 10  1  1
 11 12  1  6
 12  5  1  0
 13 11  1  0
 14 13  2  0
 16 15  1  0
 17 16  2  0
 18 16  1  0
 19 18  1  0
 20 19  1  6
 20 21  1  0
 21 13  1  0
 22 20  1  0
 23 22  1  0
 24 22  2  0
M  END
$$$$
