CIQ.pdb
     RDKit          3D

 24 23  0  0  1  0  0  0  0  0999 V2000
    7.9989  -15.0843   19.6428 N   0  0  0  0  0  0  0  0  0  0  0  0
    7.3622  -15.5170   20.8462 C   0  0  1  0  0  0  0  0  0  0  0  0
    7.2479  -17.0362   20.9251 C   0  0  0  0  0  0  0  0  0  0  0  0
    6.4232  -17.5184   22.4703 S   0  0  0  0  0  0  0  0  0  0  0  0
    8.0550  -15.0641   22.0720 C   0  0  0  0  0  0  0  0  0  0  0  0
    9.3115  -15.1212   22.1052 O   0  0  0  0  0  0  0  0  0  0  0  0
    7.2769  -11.7708   27.2216 C   0  0  0  0  0  0  0  0  0  0  0  0
    8.1288  -12.8000   26.4941 C   0  0  0  0  0  0  0  0  0  0  0  0
    7.3322  -13.2621   25.2999 C   0  0  2  0  0  0  0  0  0  0  0  0
    6.0491  -13.8775   25.7630 C   0  0  0  0  0  0  0  0  0  0  0  0
    8.1079  -14.2156   24.4230 C   0  0  2  0  0  0  0  0  0  0  0  0
    7.3879  -14.5649   23.2226 N   0  0  0  0  0  0  0  0  0  0  0  0
    8.4405  -15.4257   25.2324 C   0  0  0  0  0  0  0  0  0  0  0  0
    7.4962  -16.1753   25.5885 O   0  0  0  0  0  0  0  0  0  0  0  0
   11.3138  -19.9930   25.0365 N   0  0  0  0  0  0  0  0  0  0  0  0
   11.5942  -19.0221   24.0523 C   0  0  0  0  0  0  0  0  0  0  0  0
   11.8099  -19.2745   22.8419 O   0  0  0  0  0  0  0  0  0  0  0  0
   11.6395  -17.5832   24.4759 C   0  0  0  0  0  0  0  0  0  0  0  0
   11.4597  -17.4573   25.9580 C   0  0  0  0  0  0  0  0  0  0  0  0
   10.0847  -17.0279   26.3175 C   0  0  2  0  0  0  0  0  0  0  0  0
    9.7485  -15.7633   25.6117 N   0  0  0  0  0  0  0  0  0  0  0  0
    9.9484  -16.7224   27.7395 C   0  0  0  0  0  0  0  0  0  0  0  0
    9.9422  -15.4178   28.1907 O   0  0  0  0  0  0  0  0  0  0  0  0
    9.8336  -17.6203   28.5916 O   0  0  0  0  0  0  0  0  0  0  0  0
  2  1  1  6
  3  2  1  0
  4  3  1  0
  5  2  1  0
  5  6  2  0
  7  8  1  0
  8  9  1  0
  9 11  1  0
  9 10  1  1
 11 12  1  6
 12  5  1  0
 13 11  1  0
 14 13  2  0
 16 15  1  0
 17 16  2  0
 18 16  1  0
 19 18  1  0
 20 19  1  1
 20 21  1  0
 21 13  1  0
 22 20  1  0
 23 22  1  0
 24 22  2  0
M  END
$$$$
