CIQ.pdb
     RDKit          3D

 24 23  0  0  1  0  0  0  0  0999 V2000
    8.4999  -15.5223   19.8532 N   0  0  0  0  0  0  0  0  0  0  0  0
    7.5701  -15.6186   20.9336 C   0  0  1  0  0  0  0  0  0  0  0  0
    6.9955  -17.0244   21.0775 C   0  0  0  0  0  0  0  0  0  0  0  0
    6.1308  -17.5019   19.5529 S   0  0  0  0  0  0  0  0  0  0  0  0
    8.1502  -15.2447   22.2418 C   0  0  0  0  0  0  0  0  0  0  0  0
    9.3394  -15.5753   22.4857 O   0  0  0  0  0  0  0  0  0  0  0  0
    7.2076  -11.5754   27.1226 C   0  0  0  0  0  0  0  0  0  0  0  0
    8.0150  -12.7182   26.5259 C   0  0  0  0  0  0  0  0  0  0  0  0
    7.3024  -13.1475   25.2681 C   0  0  2  0  0  0  0  0  0  0  0  0
    5.9112  -13.5832   25.6060 C   0  0  0  0  0  0  0  0  0  0  0  0
    8.0465  -14.2308   24.5246 C   0  0  2  0  0  0  0  0  0  0  0  0
    7.4455  -14.5310   23.2478 N   0  0  0  0  0  0  0  0  0  0  0  0
    8.1041  -15.4398   25.3992 C   0  0  0  0  0  0  0  0  0  0  0  0
    7.1086  -16.2074   25.4112 O   0  0  0  0  0  0  0  0  0  0  0  0
   12.1509  -18.9149   23.8280 N   0  0  0  0  0  0  0  0  0  0  0  0
   11.8693  -19.6867   24.9747 C   0  0  0  0  0  0  0  0  0  0  0  0
   12.3624  -20.8158   25.2137 O   0  0  0  0  0  0  0  0  0  0  0  0
   10.9129  -19.1235   25.9847 C   0  0  0  0  0  0  0  0  0  0  0  0
   10.4995  -17.7328   25.6107 C   0  0  0  0  0  0  0  0  0  0  0  0
    9.5515  -17.1505   26.5936 C   0  0  2  0  0  0  0  0  0  0  0  0
    9.2094  -15.7573   26.2030 N   0  0  0  0  0  0  0  0  0  0  0  0
   10.1286  -17.0439   27.9314 C   0  0  0  0  0  0  0  0  0  0  0  0
   10.3537  -18.1668   28.7020 O   0  0  0  0  0  0  0  0  0  0  0  0
   10.4367  -15.9445   28.4231 O   0  0  0  0  0  0  0  0  0  0  0  0
  2  1  1  6
  3  2  1  0
  4  3  1  0
  5  2  1  0
  5  6  2  0
  7  8  1  0
  8  9  1  0
  9 11  1  0
  9 10  1  1
 11 12  1  6
 12  5  1  0
 13 11  1  0
 14 13  2  0
 16 15  1  0
 17 16  2  0
 18 16  1  0
 19 18  1  0
 20 19  1  6
 20 21  1  0
 21 13  1  0
 22 20  1  0
 23 22  1  0
 24 22  2  0
M  END
$$$$
