CIQ.pdb
     RDKit          3D

 24 23  0  0  1  0  0  0  0  0999 V2000
    9.1444  -15.0851   20.5498 N   0  0  0  0  0  0  0  0  0  0  0  0
    8.1108  -15.3709   21.4938 C   0  0  1  0  0  0  0  0  0  0  0  0
    7.5824  -16.7955   21.3580 C   0  0  0  0  0  0  0  0  0  0  0  0
    6.9242  -17.0579   19.6853 S   0  0  0  0  0  0  0  0  0  0  0  0
    8.5343  -15.1912   22.8995 C   0  0  0  0  0  0  0  0  0  0  0  0
    9.7289  -15.4450   23.2020 O   0  0  0  0  0  0  0  0  0  0  0  0
    6.0471  -11.5695   26.2264 C   0  0  0  0  0  0  0  0  0  0  0  0
    7.1330  -12.3129   25.4632 C   0  0  0  0  0  0  0  0  0  0  0  0
    7.2667  -13.6713   26.1043 C   0  0  2  0  0  0  0  0  0  0  0  0
    7.7905  -13.5169   27.4976 C   0  0  0  0  0  0  0  0  0  0  0  0
    8.1344  -14.6072   25.2972 C   0  0  2  0  0  0  0  0  0  0  0  0
    7.6722  -14.7472   23.9377 N   0  0  0  0  0  0  0  0  0  0  0  0
    8.1752  -15.9247   25.9990 C   0  0  0  0  0  0  0  0  0  0  0  0
    7.2011  -16.7047   25.8470 O   0  0  0  0  0  0  0  0  0  0  0  0
   10.7970  -19.9441   23.8587 N   0  0  0  0  0  0  0  0  0  0  0  0
   11.7517  -19.0722   24.4230 C   0  0  0  0  0  0  0  0  0  0  0  0
   12.9228  -18.9241   23.9969 O   0  0  0  0  0  0  0  0  0  0  0  0
   11.3444  -18.2612   25.6182 C   0  0  0  0  0  0  0  0  0  0  0  0
    9.9096  -18.5120   25.9695 C   0  0  0  0  0  0  0  0  0  0  0  0
    9.4903  -17.7518   27.1739 C   0  0  2  0  0  0  0  0  0  0  0  0
    9.2424  -16.3306   26.8145 N   0  0  0  0  0  0  0  0  0  0  0  0
   10.5291  -17.7131   28.2002 C   0  0  0  0  0  0  0  0  0  0  0  0
   11.1622  -16.5314   28.5292 O   0  0  0  0  0  0  0  0  0  0  0  0
   10.8799  -18.7368   28.8122 O   0  0  0  0  0  0  0  0  0  0  0  0
  2  1  1  6
  3  2  1  0
  4  3  1  0
  5  2  1  0
  5  6  2  0
  7  8  1  0
  8  9  1  0
  9 11  1  0
  9 10  1  1
 11 12  1  6
 12  5  1  0
 13 11  1  0
 14 13  2  0
 16 15  1  0
 17 16  2  0
 18 16  1  0
 19 18  1  0
 20 19  1  6
 20 21  1  0
 21 13  1  0
 22 20  1  0
 23 22  1  0
 24 22  2  0
M  END
$$$$
