CIQ.pdb
     RDKit          3D

 24 23  0  0  1  0  0  0  0  0999 V2000
    7.4483  -15.0534   20.1612 N   0  0  0  0  0  0  0  0  0  0  0  0
    6.9888  -15.5017   21.4375 C   0  0  1  0  0  0  0  0  0  0  0  0
    6.9869  -17.0232   21.5489 C   0  0  0  0  0  0  0  0  0  0  0  0
    6.2362  -17.5305   23.1234 S   0  0  0  0  0  0  0  0  0  0  0  0
    7.7897  -14.9794   22.5659 C   0  0  0  0  0  0  0  0  0  0  0  0
    8.9753  -14.6217   22.3435 O   0  0  0  0  0  0  0  0  0  0  0  0
    5.4622  -11.9950   26.5935 C   0  0  0  0  0  0  0  0  0  0  0  0
    6.3965  -12.4218   25.4713 C   0  0  0  0  0  0  0  0  0  0  0  0
    7.2017  -13.5860   25.9912 C   0  0  2  0  0  0  0  0  0  0  0  0
    8.0161  -13.1450   27.1667 C   0  0  0  0  0  0  0  0  0  0  0  0
    8.0745  -14.2053   24.9259 C   0  0  2  0  0  0  0  0  0  0  0  0
    7.3025  -14.8548   23.8945 N   0  0  0  0  0  0  0  0  0  0  0  0
    9.0119  -15.1596   25.5896 C   0  0  0  0  0  0  0  0  0  0  0  0
    9.8188  -14.7007   26.4375 O   0  0  0  0  0  0  0  0  0  0  0  0
   13.5180  -16.2158   23.8498 N   0  0  0  0  0  0  0  0  0  0  0  0
   13.1440  -17.5570   23.6236 C   0  0  0  0  0  0  0  0  0  0  0  0
   13.7291  -18.3376   22.8340 O   0  0  0  0  0  0  0  0  0  0  0  0
   11.9633  -18.0951   24.3776 C   0  0  0  0  0  0  0  0  0  0  0  0
   11.4097  -17.0616   25.3105 C   0  0  0  0  0  0  0  0  0  0  0  0
   10.0799  -17.4492   25.8448 C   0  0  2  0  0  0  0  0  0  0  0  0
    9.0348  -16.5350   25.3134 N   0  0  0  0  0  0  0  0  0  0  0  0
   10.0017  -17.3191   27.2978 C   0  0  0  0  0  0  0  0  0  0  0  0
    9.8533  -16.0838   27.8957 O   0  0  0  0  0  0  0  0  0  0  0  0
   10.0657  -18.3099   28.0458 O   0  0  0  0  0  0  0  0  0  0  0  0
  2  1  1  6
  3  2  1  0
  4  3  1  0
  5  2  1  0
  5  6  2  0
  7  8  1  0
  8  9  1  0
  9 11  1  0
  9 10  1  1
 11 12  1  6
 12  5  1  0
 13 11  1  0
 14 13  2  0
 16 15  1  0
 17 16  2  0
 18 16  1  0
 19 18  1  0
 20 19  1  6
 20 21  1  0
 21 13  1  0
 22 20  1  0
 23 22  1  0
 24 22  2  0
M  END
$$$$
