CIQ.pdb
     RDKit          3D

 24 23  0  0  1  0  0  0  0  0999 V2000
    7.3335  -14.9624   20.2160 N   0  0  0  0  0  0  0  0  0  0  0  0
    6.9726  -15.4496   21.5096 C   0  0  1  0  0  0  0  0  0  0  0  0
    7.1441  -16.9610   21.6260 C   0  0  0  0  0  0  0  0  0  0  0  0
    5.5327  -17.7495   21.9118 S   0  0  0  0  0  0  0  0  0  0  0  0
    7.7502  -14.8332   22.6064 C   0  0  0  0  0  0  0  0  0  0  0  0
    8.9229  -14.4465   22.3650 O   0  0  0  0  0  0  0  0  0  0  0  0
    5.4980  -11.7844   26.6338 C   0  0  0  0  0  0  0  0  0  0  0  0
    6.3632  -12.2778   25.4839 C   0  0  0  0  0  0  0  0  0  0  0  0
    7.2237  -13.3895   26.0295 C   0  0  2  0  0  0  0  0  0  0  0  0
    8.0812  -12.8606   27.1360 C   0  0  0  0  0  0  0  0  0  0  0  0
    8.0609  -14.0490   24.9598 C   0  0  2  0  0  0  0  0  0  0  0  0
    7.2542  -14.6485   23.9247 N   0  0  0  0  0  0  0  0  0  0  0  0
    8.9447  -15.0575   25.6169 C   0  0  0  0  0  0  0  0  0  0  0  0
    9.7256  -14.6597   26.5182 O   0  0  0  0  0  0  0  0  0  0  0  0
   12.4178  -18.5820   22.1567 N   0  0  0  0  0  0  0  0  0  0  0  0
   12.3491  -17.8743   23.3751 C   0  0  0  0  0  0  0  0  0  0  0  0
   13.3446  -17.4525   24.0125 O   0  0  0  0  0  0  0  0  0  0  0  0
   10.9923  -17.6030   23.9559 C   0  0  0  0  0  0  0  0  0  0  0  0
   11.0322  -17.6560   25.4527 C   0  0  0  0  0  0  0  0  0  0  0  0
    9.6910  -17.4451   26.0533 C   0  0  2  0  0  0  0  0  0  0  0  0
    8.9448  -16.4190   25.2780 N   0  0  0  0  0  0  0  0  0  0  0  0
    9.7643  -16.9202   27.4146 C   0  0  0  0  0  0  0  0  0  0  0  0
   10.3855  -17.6327   28.4206 O   0  0  0  0  0  0  0  0  0  0  0  0
    9.2728  -15.8190   27.7164 O   0  0  0  0  0  0  0  0  0  0  0  0
  2  1  1  6
  3  2  1  0
  4  3  1  0
  5  2  1  0
  5  6  2  0
  7  8  1  0
  8  9  1  0
  9 11  1  0
  9 10  1  1
 11 12  1  6
 12  5  1  0
 13 11  1  0
 14 13  2  0
 16 15  1  0
 17 16  2  0
 18 16  1  0
 19 18  1  0
 20 19  1  6
 20 21  1  0
 21 13  1  0
 22 20  1  0
 23 22  1  0
 24 22  2  0
M  END
$$$$
