CIQ.pdb
     RDKit          3D

 24 23  0  0  1  0  0  0  0  0999 V2000
    7.9192  -14.4792   19.3989 N   0  0  0  0  0  0  0  0  0  0  0  0
    7.0660  -14.3153   20.5330 C   0  0  1  0  0  0  0  0  0  0  0  0
    6.0181  -15.4195   20.6316 C   0  0  0  0  0  0  0  0  0  0  0  0
    6.8312  -17.0381   20.7689 S   0  0  0  0  0  0  0  0  0  0  0  0
    7.7976  -14.2874   21.8182 C   0  0  0  0  0  0  0  0  0  0  0  0
    8.9765  -14.7260   21.8456 O   0  0  0  0  0  0  0  0  0  0  0  0
    7.6303  -11.5139   27.3238 C   0  0  0  0  0  0  0  0  0  0  0  0
    8.3425  -12.5098   26.4210 C   0  0  0  0  0  0  0  0  0  0  0  0
    7.4145  -12.7963   25.2674 C   0  0  2  0  0  0  0  0  0  0  0  0
    6.1322  -13.3663   25.7873 C   0  0  0  0  0  0  0  0  0  0  0  0
    8.0380  -13.7086   24.2383 C   0  0  2  0  0  0  0  0  0  0  0  0
    7.2503  -13.7935   23.0326 N   0  0  0  0  0  0  0  0  0  0  0  0
    8.2285  -15.0518   24.8623 C   0  0  0  0  0  0  0  0  0  0  0  0
    7.2692  -15.8633   24.8208 O   0  0  0  0  0  0  0  0  0  0  0  0
   13.8652  -19.5121   25.0015 N   0  0  0  0  0  0  0  0  0  0  0  0
   12.8074  -18.8062   24.3910 C   0  0  0  0  0  0  0  0  0  0  0  0
   12.8145  -18.3948   23.2053 O   0  0  0  0  0  0  0  0  0  0  0  0
   11.5834  -18.5239   25.2121 C   0  0  0  0  0  0  0  0  0  0  0  0
   11.0081  -17.1837   24.8691 C   0  0  0  0  0  0  0  0  0  0  0  0
    9.7999  -16.8738   25.6743 C   0  0  2  0  0  0  0  0  0  0  0  0
    9.4197  -15.4485   25.4887 N   0  0  0  0  0  0  0  0  0  0  0  0
   10.0299  -17.0266   27.1088 C   0  0  0  0  0  0  0  0  0  0  0  0
    9.9946  -18.2698   27.7077 O   0  0  0  0  0  0  0  0  0  0  0  0
   10.2644  -16.0487   27.8396 O   0  0  0  0  0  0  0  0  0  0  0  0
  2  1  1  6
  3  2  1  0
  4  3  1  0
  5  2  1  0
  5  6  2  0
  7  8  1  0
  8  9  1  0
  9 11  1  0
  9 10  1  1
 11 12  1  6
 12  5  1  0
 13 11  1  0
 14 13  2  0
 16 15  1  0
 17 16  2  0
 18 16  1  0
 19 18  1  0
 20 19  1  6
 20 21  1  0
 21 13  1  0
 22 20  1  0
 23 22  1  0
 24 22  2  0
M  END
$$$$
