CIQ.pdb
     RDKit          3D

 24 23  0  0  1  0  0  0  0  0999 V2000
    7.7381  -15.2369   20.0347 N   0  0  0  0  0  0  0  0  0  0  0  0
    7.2716  -15.7133   21.2982 C   0  0  1  0  0  0  0  0  0  0  0  0
    7.3281  -17.2345   21.3986 C   0  0  0  0  0  0  0  0  0  0  0  0
    6.2090  -17.9803   20.1774 S   0  0  0  0  0  0  0  0  0  0  0  0
    8.0285  -15.1686   22.4463 C   0  0  0  0  0  0  0  0  0  0  0  0
    9.2789  -15.0702   22.3464 O   0  0  0  0  0  0  0  0  0  0  0  0
    5.5809  -11.9154   26.2437 C   0  0  0  0  0  0  0  0  0  0  0  0
    6.5392  -12.3943   25.1637 C   0  0  0  0  0  0  0  0  0  0  0  0
    7.3696  -13.4960   25.7727 C   0  0  2  0  0  0  0  0  0  0  0  0
    8.2138  -12.9351   26.8737 C   0  0  0  0  0  0  0  0  0  0  0  0
    8.2166  -14.2131   24.7488 C   0  0  2  0  0  0  0  0  0  0  0  0
    7.4298  -14.7463   23.6634 N   0  0  0  0  0  0  0  0  0  0  0  0
    8.9816  -15.2878   25.4486 C   0  0  0  0  0  0  0  0  0  0  0  0
    8.3871  -16.3664   25.7014 O   0  0  0  0  0  0  0  0  0  0  0  0
   10.9042  -15.1877   30.4195 N   0  0  0  0  0  0  0  0  0  0  0  0
   11.1267  -16.5706   30.2526 C   0  0  0  0  0  0  0  0  0  0  0  0
   11.6959  -17.3085   31.0933 O   0  0  0  0  0  0  0  0  0  0  0  0
   10.6514  -17.2115   28.9816 C   0  0  0  0  0  0  0  0  0  0  0  0
   10.1240  -16.1819   28.0295 C   0  0  0  0  0  0  0  0  0  0  0  0
   10.9765  -16.0528   26.8209 C   0  0  2  0  0  0  0  0  0  0  0  0
   10.3236  -15.1518   25.8348 N   0  0  0  0  0  0  0  0  0  0  0  0
   11.1526  -17.3238   26.1226 C   0  0  0  0  0  0  0  0  0  0  0  0
   12.4020  -17.8947   25.9860 O   0  0  0  0  0  0  0  0  0  0  0  0
   10.1898  -17.9352   25.6281 O   0  0  0  0  0  0  0  0  0  0  0  0
  2  1  1  6
  3  2  1  0
  4  3  1  0
  5  2  1  0
  5  6  2  0
  7  8  1  0
  8  9  1  0
  9 11  1  0
  9 10  1  1
 11 12  1  6
 12  5  1  0
 13 11  1  0
 14 13  2  0
 16 15  1  0
 17 16  2  0
 18 16  1  0
 19 18  1  0
 20 19  1  1
 20 21  1  0
 21 13  1  0
 22 20  1  0
 23 22  1  0
 24 22  2  0
M  END
$$$$
