CIQ.pdb
     RDKit          3D

 24 23  0  0  1  0  0  0  0  0999 V2000
    5.3539  -18.9845   23.9643 N   0  0  0  0  0  0  0  0  0  0  0  0
    5.8718  -18.2526   25.0765 C   0  0  1  0  0  0  0  0  0  0  0  0
    6.8360  -19.0842   25.9166 C   0  0  0  0  0  0  0  0  0  0  0  0
    6.1642  -19.3146   27.5887 S   0  0  0  0  0  0  0  0  0  0  0  0
    6.5836  -17.0166   24.6850 C   0  0  0  0  0  0  0  0  0  0  0  0
    7.2490  -17.0216   23.6172 O   0  0  0  0  0  0  0  0  0  0  0  0
    5.4136  -11.9256   26.6943 C   0  0  0  0  0  0  0  0  0  0  0  0
    5.7049  -13.0334   25.6932 C   0  0  0  0  0  0  0  0  0  0  0  0
    7.1254  -13.4787   25.9343 C   0  0  2  0  0  0  0  0  0  0  0  0
    8.0629  -12.3615   25.5995 C   0  0  0  0  0  0  0  0  0  0  0  0
    7.4753  -14.7313   25.1672 C   0  0  2  0  0  0  0  0  0  0  0  0
    6.5639  -15.8152   25.4429 N   0  0  0  0  0  0  0  0  0  0  0  0
    8.8828  -15.1027   25.5003 C   0  0  0  0  0  0  0  0  0  0  0  0
    9.2129  -15.1369   26.7129 O   0  0  0  0  0  0  0  0  0  0  0  0
   10.8277  -18.4730   27.7883 N   0  0  0  0  0  0  0  0  0  0  0  0
   11.9010  -18.8639   26.9606 C   0  0  0  0  0  0  0  0  0  0  0  0
   12.8915  -19.5323   27.3445 O   0  0  0  0  0  0  0  0  0  0  0  0
   11.8621  -18.4547   25.5173 C   0  0  0  0  0  0  0  0  0  0  0  0
   10.6705  -17.5899   25.2398 C   0  0  0  0  0  0  0  0  0  0  0  0
   11.0620  -16.2187   24.8267 C   0  0  2  0  0  0  0  0  0  0  0  0
    9.8479  -15.4132   24.5304 N   0  0  0  0  0  0  0  0  0  0  0  0
   11.8412  -16.2081   23.5911 C   0  0  0  0  0  0  0  0  0  0  0  0
   13.1698  -16.5828   23.5832 O   0  0  0  0  0  0  0  0  0  0  0  0
   11.3402  -15.8632   22.5069 O   0  0  0  0  0  0  0  0  0  0  0  0
  2  1  1  6
  3  2  1  0
  4  3  1  0
  5  2  1  0
  5  6  2  0
  7  8  1  0
  8  9  1  0
  9 11  1  0
  9 10  1  6
 11 12  1  1
 12  5  1  0
 13 11  1  0
 14 13  2  0
 16 15  1  0
 17 16  2  0
 18 16  1  0
 19 18  1  0
 20 19  1  6
 20 21  1  0
 21 13  1  0
 22 20  1  0
 23 22  1  0
 24 22  2  0
M  END
$$$$
