CIQ.pdb
     RDKit          3D

 24 23  0  0  1  0  0  0  0  0999 V2000
    8.6651  -14.7696   19.6306 N   0  0  0  0  0  0  0  0  0  0  0  0
    7.7861  -15.1343   20.6962 C   0  0  1  0  0  0  0  0  0  0  0  0
    7.4093  -16.6120   20.6540 C   0  0  0  0  0  0  0  0  0  0  0  0
    6.3160  -17.0150   22.0476 S   0  0  0  0  0  0  0  0  0  0  0  0
    8.3459  -14.8616   22.0378 C   0  0  0  0  0  0  0  0  0  0  0  0
    9.5557  -15.1354   22.2486 O   0  0  0  0  0  0  0  0  0  0  0  0
    7.3099  -11.6962   27.2283 C   0  0  0  0  0  0  0  0  0  0  0  0
    8.1198  -12.7883   26.5460 C   0  0  0  0  0  0  0  0  0  0  0  0
    7.4529  -13.0653   25.2221 C   0  0  2  0  0  0  0  0  0  0  0  0
    6.0265  -13.4543   25.4528 C   0  0  0  0  0  0  0  0  0  0  0  0
    8.1805  -14.1163   24.4184 C   0  0  2  0  0  0  0  0  0  0  0  0
    7.5997  -14.3061   23.1114 N   0  0  0  0  0  0  0  0  0  0  0  0
    8.1816  -15.3854   25.2054 C   0  0  0  0  0  0  0  0  0  0  0  0
    7.0951  -16.0063   25.3256 O   0  0  0  0  0  0  0  0  0  0  0  0
   11.7034  -19.8795   24.1755 N   0  0  0  0  0  0  0  0  0  0  0  0
   12.3228  -18.6609   24.5236 C   0  0  0  0  0  0  0  0  0  0  0  0
   13.4892  -18.3338   24.1953 O   0  0  0  0  0  0  0  0  0  0  0  0
   11.5368  -17.6812   25.3449 C   0  0  0  0  0  0  0  0  0  0  0  0
   10.1539  -18.1940   25.6083 C   0  0  0  0  0  0  0  0  0  0  0  0
    9.3636  -17.2585   26.4475 C   0  0  2  0  0  0  0  0  0  0  0  0
    9.3304  -15.9142   25.8131 N   0  0  0  0  0  0  0  0  0  0  0  0
    9.9609  -17.0476   27.7639 C   0  0  0  0  0  0  0  0  0  0  0  0
   10.1063  -18.0910   28.6559 O   0  0  0  0  0  0  0  0  0  0  0  0
   10.3581  -15.9273   28.1281 O   0  0  0  0  0  0  0  0  0  0  0  0
  2  1  1  6
  3  2  1  0
  4  3  1  0
  5  2  1  0
  5  6  2  0
  7  8  1  0
  8  9  1  0
  9 11  1  0
  9 10  1  1
 11 12  1  6
 12  5  1  0
 13 11  1  0
 14 13  2  0
 16 15  1  0
 17 16  2  0
 18 16  1  0
 19 18  1  0
 20 19  1  6
 20 21  1  0
 21 13  1  0
 22 20  1  0
 23 22  1  0
 24 22  2  0
M  END
$$$$
