CIQ.pdb
     RDKit          3D

 24 23  0  0  1  0  0  0  0  0999 V2000
    9.4399  -15.8307   20.3721 N   0  0  0  0  0  0  0  0  0  0  0  0
    8.5424  -16.1094   21.4481 C   0  0  1  0  0  0  0  0  0  0  0  0
    8.4277  -17.6038   21.7323 C   0  0  0  0  0  0  0  0  0  0  0  0
    7.2336  -18.3635   20.5935 S   0  0  0  0  0  0  0  0  0  0  0  0
    8.9231  -15.4489   22.7156 C   0  0  0  0  0  0  0  0  0  0  0  0
   10.1453  -15.3608   23.0011 O   0  0  0  0  0  0  0  0  0  0  0  0
    6.7002  -11.5942   26.9838 C   0  0  0  0  0  0  0  0  0  0  0  0
    7.8546  -12.4849   26.5498 C   0  0  0  0  0  0  0  0  0  0  0  0
    7.3506  -13.3278   25.4053 C   0  0  2  0  0  0  0  0  0  0  0  0
    6.1582  -14.1144   25.8514 C   0  0  0  0  0  0  0  0  0  0  0  0
    8.4195  -14.2327   24.8410 C   0  0  2  0  0  0  0  0  0  0  0  0
    7.9904  -14.9035   23.6379 N   0  0  0  0  0  0  0  0  0  0  0  0
    8.8098  -15.2089   25.9014 C   0  0  0  0  0  0  0  0  0  0  0  0
    8.0722  -16.2109   26.0816 O   0  0  0  0  0  0  0  0  0  0  0  0
   13.5093  -18.6124   27.2384 N   0  0  0  0  0  0  0  0  0  0  0  0
   12.9147  -18.3218   25.9926 C   0  0  0  0  0  0  0  0  0  0  0  0
   13.1349  -18.9551   24.9316 O   0  0  0  0  0  0  0  0  0  0  0  0
   11.9491  -17.1751   25.9240 C   0  0  0  0  0  0  0  0  0  0  0  0
   11.8570  -16.4752   27.2455 C   0  0  0  0  0  0  0  0  0  0  0  0
   10.4557  -16.1351   27.5989 C   0  0  2  0  0  0  0  0  0  0  0  0
    9.9534  -15.0618   26.7010 N   0  0  0  0  0  0  0  0  0  0  0  0
   10.3357  -15.5932   28.9502 C   0  0  0  0  0  0  0  0  0  0  0  0
    9.9817  -14.2757   29.1608 O   0  0  0  0  0  0  0  0  0  0  0  0
   10.5469  -16.2939   29.9551 O   0  0  0  0  0  0  0  0  0  0  0  0
  2  1  1  6
  3  2  1  0
  4  3  1  0
  5  2  1  0
  5  6  2  0
  7  8  1  0
  8  9  1  0
  9 11  1  0
  9 10  1  1
 11 12  1  6
 12  5  1  0
 13 11  1  0
 14 13  2  0
 16 15  1  0
 17 16  2  0
 18 16  1  0
 19 18  1  0
 20 19  1  6
 20 21  1  0
 21 13  1  0
 22 20  1  0
 23 22  1  0
 24 22  2  0
M  END
$$$$
