CIQ.pdb
     RDKit          3D

 24 23  0  0  1  0  0  0  0  0999 V2000
    7.9359  -13.8511   19.8011 N   0  0  0  0  0  0  0  0  0  0  0  0
    7.3246  -14.5887   20.8610 C   0  0  1  0  0  0  0  0  0  0  0  0
    7.3547  -16.0931   20.6099 C   0  0  0  0  0  0  0  0  0  0  0  0
    6.2047  -16.9347   21.7365 S   0  0  0  0  0  0  0  0  0  0  0  0
    7.9519  -14.3504   22.1792 C   0  0  0  0  0  0  0  0  0  0  0  0
    9.2077  -14.3164   22.2471 O   0  0  0  0  0  0  0  0  0  0  0  0
    5.5575  -11.3933   26.1406 C   0  0  0  0  0  0  0  0  0  0  0  0
    6.6099  -11.9051   25.1688 C   0  0  0  0  0  0  0  0  0  0  0  0
    7.0343  -13.2662   25.6602 C   0  0  2  0  0  0  0  0  0  0  0  0
    7.7462  -13.1254   26.9689 C   0  0  0  0  0  0  0  0  0  0  0  0
    7.8855  -14.0032   24.6540 C   0  0  2  0  0  0  0  0  0  0  0  0
    7.2218  -14.1560   23.3822 N   0  0  0  0  0  0  0  0  0  0  0  0
    8.2566  -15.3261   25.2391 C   0  0  0  0  0  0  0  0  0  0  0  0
    7.3457  -16.1780   25.3971 O   0  0  0  0  0  0  0  0  0  0  0  0
   13.3274  -18.1730   23.6581 N   0  0  0  0  0  0  0  0  0  0  0  0
   12.9904  -19.0452   24.7144 C   0  0  0  0  0  0  0  0  0  0  0  0
   13.6255  -20.0865   25.0103 O   0  0  0  0  0  0  0  0  0  0  0  0
   11.7881  -18.7101   25.5475 C   0  0  0  0  0  0  0  0  0  0  0  0
   11.2049  -17.3924   25.1371 C   0  0  0  0  0  0  0  0  0  0  0  0
    9.9887  -17.0543   25.9184 C   0  0  2  0  0  0  0  0  0  0  0  0
    9.5653  -15.6610   25.6184 N   0  0  0  0  0  0  0  0  0  0  0  0
   10.2245  -17.0824   27.3598 C   0  0  0  0  0  0  0  0  0  0  0  0
   10.2059  -15.9223   28.1077 O   0  0  0  0  0  0  0  0  0  0  0  0
   10.4496  -18.1456   27.9634 O   0  0  0  0  0  0  0  0  0  0  0  0
  2  1  1  6
  3  2  1  0
  4  3  1  0
  5  2  1  0
  5  6  2  0
  7  8  1  0
  8  9  1  0
  9 11  1  0
  9 10  1  1
 11 12  1  6
 12  5  1  0
 13 11  1  0
 14 13  2  0
 16 15  1  0
 17 16  2  0
 18 16  1  0
 19 18  1  0
 20 19  1  6
 20 21  1  0
 21 13  1  0
 22 20  1  0
 23 22  1  0
 24 22  2  0
M  END
$$$$
