CIQ.pdb
     RDKit          3D

 24 23  0  0  1  0  0  0  0  0999 V2000
    8.2515  -15.6168   20.2498 N   0  0  0  0  0  0  0  0  0  0  0  0
    7.6459  -15.9830   21.4908 C   0  0  1  0  0  0  0  0  0  0  0  0
    7.7126  -17.4857   21.7448 C   0  0  0  0  0  0  0  0  0  0  0  0
    6.8511  -17.8940   23.2911 S   0  0  0  0  0  0  0  0  0  0  0  0
    8.2535  -15.3121   22.6605 C   0  0  0  0  0  0  0  0  0  0  0  0
    9.5029  -15.1653   22.6842 O   0  0  0  0  0  0  0  0  0  0  0  0
    6.8609  -11.4303   27.2215 C   0  0  0  0  0  0  0  0  0  0  0  0
    7.9200  -12.3104   26.5751 C   0  0  0  0  0  0  0  0  0  0  0  0
    7.2124  -13.1737   25.5612 C   0  0  2  0  0  0  0  0  0  0  0  0
    6.0943  -13.9124   26.2273 C   0  0  0  0  0  0  0  0  0  0  0  0
    8.1508  -14.1252   24.8584 C   0  0  2  0  0  0  0  0  0  0  0  0
    7.5114  -14.8192   23.7671 N   0  0  0  0  0  0  0  0  0  0  0  0
    8.6900  -15.0800   25.8721 C   0  0  0  0  0  0  0  0  0  0  0  0
    7.9826  -16.0714   26.1839 O   0  0  0  0  0  0  0  0  0  0  0  0
   14.6582  -15.6023   25.6265 N   0  0  0  0  0  0  0  0  0  0  0  0
   13.9422  -16.6776   25.0599 C   0  0  0  0  0  0  0  0  0  0  0  0
   14.3952  -17.4539   24.1839 O   0  0  0  0  0  0  0  0  0  0  0  0
   12.5384  -16.9158   25.5337 C   0  0  0  0  0  0  0  0  0  0  0  0
   12.1559  -15.9240   26.5895 C   0  0  0  0  0  0  0  0  0  0  0  0
   10.7373  -16.0695   27.0024 C   0  0  2  0  0  0  0  0  0  0  0  0
    9.9405  -14.9241   26.4889 N   0  0  0  0  0  0  0  0  0  0  0  0
   10.5709  -16.0338   28.4533 C   0  0  0  0  0  0  0  0  0  0  0  0
    9.8577  -15.0220   29.0641 O   0  0  0  0  0  0  0  0  0  0  0  0
   11.0625  -16.9078   29.1880 O   0  0  0  0  0  0  0  0  0  0  0  0
  2  1  1  6
  3  2  1  0
  4  3  1  0
  5  2  1  0
  5  6  2  0
  7  8  1  0
  8  9  1  0
  9 11  1  0
  9 10  1  1
 11 12  1  6
 12  5  1  0
 13 11  1  0
 14 13  2  0
 16 15  1  0
 17 16  2  0
 18 16  1  0
 19 18  1  0
 20 19  1  1
 20 21  1  0
 21 13  1  0
 22 20  1  0
 23 22  1  0
 24 22  2  0
M  END
$$$$
