CIQ.pdb
     RDKit          3D

 24 23  0  0  1  0  0  0  0  0999 V2000
   10.1664  -17.5109   16.4009 N   0  0  0  0  0  0  0  0  0  0  0  0
    9.1314  -17.6201   17.3796 C   0  0  1  0  0  0  0  0  0  0  0  0
    8.8695  -19.0675   17.7841 C   0  0  0  0  0  0  0  0  0  0  0  0
    7.4833  -19.1447   18.9556 S   0  0  0  0  0  0  0  0  0  0  0  0
    9.4127  -16.8616   18.6178 C   0  0  0  0  0  0  0  0  0  0  0  0
   10.6053  -16.7753   19.0092 O   0  0  0  0  0  0  0  0  0  0  0  0
    6.7346  -12.2820   19.9474 C   0  0  0  0  0  0  0  0  0  0  0  0
    7.8255  -13.3032   19.6621 C   0  0  0  0  0  0  0  0  0  0  0  0
    7.8004  -14.2984   20.7948 C   0  0  2  0  0  0  0  0  0  0  0  0
    8.0951  -13.5965   22.0832 C   0  0  0  0  0  0  0  0  0  0  0  0
    8.7516  -15.4498   20.5723 C   0  0  2  0  0  0  0  0  0  0  0  0
    8.4151  -16.2196   19.3993 N   0  0  0  0  0  0  0  0  0  0  0  0
    8.7506  -16.2980   21.8013 C   0  0  0  0  0  0  0  0  0  0  0  0
    7.7599  -17.0455   22.0017 O   0  0  0  0  0  0  0  0  0  0  0  0
   11.5944  -20.0745   20.0761 N   0  0  0  0  0  0  0  0  0  0  0  0
   12.2002  -20.3289   21.3244 C   0  0  0  0  0  0  0  0  0  0  0  0
   13.1041  -21.1776   21.5192 O   0  0  0  0  0  0  0  0  0  0  0  0
   11.7355  -19.5316   22.5078 C   0  0  0  0  0  0  0  0  0  0  0  0
   10.9340  -18.3440   22.0697 C   0  0  0  0  0  0  0  0  0  0  0  0
   10.4444  -17.5468   23.2225 C   0  0  2  0  0  0  0  0  0  0  0  0
    9.7962  -16.3000   22.7369 N   0  0  0  0  0  0  0  0  0  0  0  0
   11.5282  -17.1019   24.0951 C   0  0  0  0  0  0  0  0  0  0  0  0
   12.2048  -15.9245   23.8474 O   0  0  0  0  0  0  0  0  0  0  0  0
   11.8799  -17.7631   25.0873 O   0  0  0  0  0  0  0  0  0  0  0  0
  2  1  1  6
  3  2  1  0
  4  3  1  0
  5  2  1  0
  5  6  2  0
  7  8  1  0
  8  9  1  0
  9 11  1  0
  9 10  1  1
 11 12  1  6
 12  5  1  0
 13 11  1  0
 14 13  2  0
 16 15  1  0
 17 16  2  0
 18 16  1  0
 19 18  1  0
 20 19  1  6
 20 21  1  0
 21 13  1  0
 22 20  1  0
 23 22  1  0
 24 22  2  0
M  END
$$$$
