CIQ.pdb
     RDKit          3D

 24 23  0  0  1  0  0  0  0  0999 V2000
    8.3702  -17.9290   16.0469 N   0  0  0  0  0  0  0  0  0  0  0  0
    7.7426  -17.9277   17.3303 C   0  0  1  0  0  0  0  0  0  0  0  0
    7.5767  -19.3356   17.8936 C   0  0  0  0  0  0  0  0  0  0  0  0
    6.6440  -19.2764   19.4513 S   0  0  0  0  0  0  0  0  0  0  0  0
    8.4750  -17.1335   18.3405 C   0  0  0  0  0  0  0  0  0  0  0  0
    9.7327  -17.1664   18.3310 O   0  0  0  0  0  0  0  0  0  0  0  0
    6.7900  -12.2423   20.3900 C   0  0  0  0  0  0  0  0  0  0  0  0
    7.6709  -13.3186   19.7738 C   0  0  0  0  0  0  0  0  0  0  0  0
    7.8569  -14.3856   20.8231 C   0  0  2  0  0  0  0  0  0  0  0  0
    8.5424  -13.7985   22.0168 C   0  0  0  0  0  0  0  0  0  0  0  0
    8.6092  -15.5853   20.2989 C   0  0  2  0  0  0  0  0  0  0  0  0
    7.8447  -16.3300   19.3281 N   0  0  0  0  0  0  0  0  0  0  0  0
    8.9934  -16.4383   21.4628 C   0  0  0  0  0  0  0  0  0  0  0  0
    8.0793  -17.0445   22.0774 O   0  0  0  0  0  0  0  0  0  0  0  0
   14.2425  -20.7709   23.7853 N   0  0  0  0  0  0  0  0  0  0  0  0
   13.9695  -19.4048   23.5637 C   0  0  0  0  0  0  0  0  0  0  0  0
   14.8072  -18.5678   23.1478 O   0  0  0  0  0  0  0  0  0  0  0  0
   12.5804  -18.9103   23.8432 C   0  0  0  0  0  0  0  0  0  0  0  0
   12.0819  -18.0552   22.7185 C   0  0  0  0  0  0  0  0  0  0  0  0
   10.7085  -17.5504   22.9694 C   0  0  2  0  0  0  0  0  0  0  0  0
   10.3174  -16.5942   21.9002 N   0  0  0  0  0  0  0  0  0  0  0  0
   10.6095  -16.7949   24.2157 C   0  0  0  0  0  0  0  0  0  0  0  0
   10.3484  -17.4282   25.4142 O   0  0  0  0  0  0  0  0  0  0  0  0
   10.7557  -15.5607   24.2437 O   0  0  0  0  0  0  0  0  0  0  0  0
  2  1  1  6
  3  2  1  0
  4  3  1  0
  5  2  1  0
  5  6  2  0
  7  8  1  0
  8  9  1  0
  9 11  1  0
  9 10  1  1
 11 12  1  6
 12  5  1  0
 13 11  1  0
 14 13  2  0
 16 15  1  0
 17 16  2  0
 18 16  1  0
 19 18  1  0
 20 19  1  6
 20 21  1  0
 21 13  1  0
 22 20  1  0
 23 22  1  0
 24 22  2  0
M  END
$$$$
