CIQ.pdb
     RDKit          3D

 24 23  0  0  1  0  0  0  0  0999 V2000
    6.7403  -19.4078   26.7529 N   0  0  0  0  0  0  0  0  0  0  0  0
    7.1694  -18.1070   27.1589 C   0  0  1  0  0  0  0  0  0  0  0  0
    8.5290  -18.1369   27.8501 C   0  0  0  0  0  0  0  0  0  0  0  0
    8.3526  -18.7745   29.5420 S   0  0  0  0  0  0  0  0  0  0  0  0
    7.2664  -17.1453   26.0394 C   0  0  0  0  0  0  0  0  0  0  0  0
    7.3336  -17.5965   24.8668 O   0  0  0  0  0  0  0  0  0  0  0  0
    5.8997  -11.9445   26.8285 C   0  0  0  0  0  0  0  0  0  0  0  0
    5.8702  -13.2145   25.9916 C   0  0  0  0  0  0  0  0  0  0  0  0
    7.2594  -13.4052   25.4367 C   0  0  2  0  0  0  0  0  0  0  0  0
    7.4465  -12.5218   24.2434 C   0  0  0  0  0  0  0  0  0  0  0  0
    7.5522  -14.8472   25.0977 C   0  0  2  0  0  0  0  0  0  0  0  0
    7.2888  -15.7345   26.2044 N   0  0  0  0  0  0  0  0  0  0  0  0
    8.9736  -14.9400   24.6491 C   0  0  0  0  0  0  0  0  0  0  0  0
    9.8724  -14.6119   25.4646 O   0  0  0  0  0  0  0  0  0  0  0  0
   12.4579  -20.2797   23.7769 N   0  0  0  0  0  0  0  0  0  0  0  0
   12.4583  -19.0186   24.4089 C   0  0  0  0  0  0  0  0  0  0  0  0
   12.6295  -18.8368   25.6389 O   0  0  0  0  0  0  0  0  0  0  0  0
   12.2389  -17.8037   23.5557 C   0  0  0  0  0  0  0  0  0  0  0  0
   10.9086  -17.1794   23.8480 C   0  0  0  0  0  0  0  0  0  0  0  0
   10.6947  -15.9341   23.0687 C   0  0  2  0  0  0  0  0  0  0  0  0
    9.3508  -15.3734   23.3691 N   0  0  0  0  0  0  0  0  0  0  0  0
   10.6995  -16.1691   21.6269 C   0  0  0  0  0  0  0  0  0  0  0  0
    9.5235  -16.3776   20.9349 O   0  0  0  0  0  0  0  0  0  0  0  0
   11.7566  -16.1904   20.9730 O   0  0  0  0  0  0  0  0  0  0  0  0
  2  1  1  6
  3  2  1  0
  4  3  1  0
  5  2  1  0
  5  6  2  0
  7  8  1  0
  8  9  1  0
  9 11  1  0
  9 10  1  6
 11 12  1  1
 12  5  1  0
 13 11  1  0
 14 13  2  0
 16 15  1  0
 17 16  2  0
 18 16  1  0
 19 18  1  0
 20 19  1  1
 20 21  1  0
 21 13  1  0
 22 20  1  0
 23 22  1  0
 24 22  2  0
M  END
$$$$
