MLN.pdb
     RDKit          3D

 25 24  0  0  1  0  0  0  0  0999 V2000
    8.6209  -11.4866   19.3437 C   0  0  0  0  0  0  0  0  0  0  0  0
    7.2993  -12.6330   18.9500 S   0  0  0  0  0  0  0  0  0  0  0  0
    7.3638  -14.1508   19.8930 C   0  0  0  0  0  0  0  0  0  0  0  0
    8.6885  -14.8177   19.9810 C   0  0  0  0  0  0  0  0  0  0  0  0
    8.7449  -16.0026   20.8787 C   0  0  2  0  0  0  0  0  0  0  0  0
    7.5639  -16.8300   20.7374 N   0  0  0  0  0  0  0  0  0  0  0  0
    8.9331  -15.5687   22.2933 C   0  0  0  0  0  0  0  0  0  0  0  0
   10.0660  -15.1861   22.6645 O   0  0  0  0  0  0  0  0  0  0  0  0
    8.3301  -12.6569   26.4450 C   0  0  0  0  0  0  0  0  0  0  0  0
    7.1791  -13.6862   26.5169 C   0  0  1  0  0  0  0  0  0  0  0  0
    5.9569  -12.8473   26.9165 C   0  0  0  0  0  0  0  0  0  0  0  0
    6.9981  -14.2141   25.1416 C   0  0  0  0  0  0  0  0  0  0  0  0
    8.0946  -15.0884   24.6045 C   0  0  2  0  0  0  0  0  0  0  0  0
    7.8966  -15.5614   23.2599 N   0  0  0  0  0  0  0  0  0  0  0  0
    8.3764  -16.2527   25.4912 C   0  0  0  0  0  0  0  0  0  0  0  0
    7.4468  -17.0224   25.8471 O   0  0  0  0  0  0  0  0  0  0  0  0
   11.3722  -18.6768   23.6929 N   0  0  0  0  0  0  0  0  0  0  0  0
   10.6719  -19.0867   24.8530 C   0  0  0  0  0  0  0  0  0  0  0  0
    9.6961  -19.8957   24.7110 O   0  0  0  0  0  0  0  0  0  0  0  0
   11.0566  -18.5969   26.1731 C   0  0  0  0  0  0  0  0  0  0  0  0
   10.0112  -17.7168   26.7618 C   0  0  2  0  0  0  0  0  0  0  0  0
    9.6793  -16.5512   25.9726 N   0  0  0  0  0  0  0  0  0  0  0  0
   10.3697  -17.3095   28.1636 C   0  0  0  0  0  0  0  0  0  0  0  0
   10.4400  -18.3048   29.1205 O   0  0  0  0  0  0  0  0  0  0  0  0
   10.6037  -16.1302   28.4984 O   0  0  0  0  0  0  0  0  0  0  0  0
  1  2  1  0
  3  2  1  0
  4  3  1  0
  5  4  1  0
  5  6  1  1
  7  8  2  0
  7  5  1  0
 10  9  1  6
 10 12  1  0
 11 10  1  0
 13 12  1  1
 13 14  1  0
 14  7  1  0
 15 13  1  0
 15 22  1  0
 16 15  2  0
 17 18  1  0
 18 20  1  0
 18 19  2  0
 21 20  1  6
 21 22  1  0
 21 23  1  0
 23 25  2  0
 23 24  1  0
M  END
$$$$
