MLN.pdb
     RDKit          3D

 25 24  0  0  1  0  0  0  0  0999 V2000
    7.8926  -11.6467   19.1966 C   0  0  0  0  0  0  0  0  0  0  0  0
    7.5367  -13.2493   18.4749 S   0  0  0  0  0  0  0  0  0  0  0  0
    7.9890  -14.6237   19.5253 C   0  0  0  0  0  0  0  0  0  0  0  0
    8.4569  -14.2829   20.8936 C   0  0  0  0  0  0  0  0  0  0  0  0
    8.7704  -15.4464   21.7661 C   0  0  2  0  0  0  0  0  0  0  0  0
    7.7488  -16.4695   21.6707 N   0  0  0  0  0  0  0  0  0  0  0  0
    8.9540  -14.9978   23.1767 C   0  0  0  0  0  0  0  0  0  0  0  0
   10.0223  -14.4294   23.4979 O   0  0  0  0  0  0  0  0  0  0  0  0
    5.3949  -12.4698   26.5117 C   0  0  0  0  0  0  0  0  0  0  0  0
    6.6859  -12.8558   25.7542 C   0  0  1  0  0  0  0  0  0  0  0  0
    7.6946  -11.7747   26.1673 C   0  0  0  0  0  0  0  0  0  0  0  0
    7.1127  -14.1723   26.2905 C   0  0  0  0  0  0  0  0  0  0  0  0
    8.2388  -14.8602   25.5736 C   0  0  2  0  0  0  0  0  0  0  0  0
    7.9827  -15.1762   24.1932 N   0  0  0  0  0  0  0  0  0  0  0  0
    8.6889  -16.0941   26.2779 C   0  0  0  0  0  0  0  0  0  0  0  0
    8.9443  -16.0676   27.5097 O   0  0  0  0  0  0  0  0  0  0  0  0
    6.2763  -19.3095   24.8588 N   0  0  0  0  0  0  0  0  0  0  0  0
    7.0609  -19.5232   26.0177 C   0  0  0  0  0  0  0  0  0  0  0  0
    6.4777  -19.4945   27.1516 O   0  0  0  0  0  0  0  0  0  0  0  0
    8.4961  -19.7693   25.9163 C   0  0  0  0  0  0  0  0  0  0  0  0
    9.2896  -18.5577   26.2575 C   0  0  2  0  0  0  0  0  0  0  0  0
    8.8508  -17.3394   25.6135 N   0  0  0  0  0  0  0  0  0  0  0  0
   10.7550  -18.7789   26.0060 C   0  0  0  0  0  0  0  0  0  0  0  0
   11.3756  -19.8012   26.6994 O   0  0  0  0  0  0  0  0  0  0  0  0
   11.4276  -18.0915   25.2106 O   0  0  0  0  0  0  0  0  0  0  0  0
  1  2  1  0
  3  2  1  0
  4  3  1  0
  5  4  1  0
  5  6  1  1
  7  8  2  0
  7  5  1  0
 10  9  1  1
 10 12  1  0
 11 10  1  0
 13 12  1  1
 13 14  1  0
 14  7  1  0
 15 13  1  0
 15 22  1  0
 16 15  2  0
 17 18  1  0
 18 20  1  0
 18 19  2  0
 21 20  1  6
 21 22  1  0
 21 23  1  0
 23 25  2  0
 23 24  1  0
M  END
$$$$
