MLN.pdb
     RDKit          3D

 25 24  0  0  1  0  0  0  0  0999 V2000
    6.8726  -20.9742   27.9096 C   0  0  0  0  0  0  0  0  0  0  0  0
    6.7527  -21.8636   26.3571 S   0  0  0  0  0  0  0  0  0  0  0  0
    6.3406  -20.8204   24.9646 C   0  0  0  0  0  0  0  0  0  0  0  0
    6.4406  -19.3546   25.1852 C   0  0  0  0  0  0  0  0  0  0  0  0
    5.9271  -18.5084   24.0746 C   0  0  2  0  0  0  0  0  0  0  0  0
    6.0673  -19.1732   22.7948 N   0  0  0  0  0  0  0  0  0  0  0  0
    6.6168  -17.1858   24.0735 C   0  0  0  0  0  0  0  0  0  0  0  0
    7.4047  -16.9138   23.1393 O   0  0  0  0  0  0  0  0  0  0  0  0
    6.9843  -11.8962   24.5963 C   0  0  0  0  0  0  0  0  0  0  0  0
    7.2720  -12.5729   25.9560 C   0  0  1  0  0  0  0  0  0  0  0  0
    6.6147  -11.6379   26.9811 C   0  0  0  0  0  0  0  0  0  0  0  0
    6.5624  -13.8764   25.9376 C   0  0  0  0  0  0  0  0  0  0  0  0
    7.1571  -14.9566   25.0804 C   0  0  2  0  0  0  0  0  0  0  0  0
    6.4354  -16.2015   25.0770 N   0  0  0  0  0  0  0  0  0  0  0  0
    8.5843  -15.2246   25.4158 C   0  0  0  0  0  0  0  0  0  0  0  0
    9.4172  -14.2823   25.4565 O   0  0  0  0  0  0  0  0  0  0  0  0
   11.7823  -15.9403   22.7328 N   0  0  0  0  0  0  0  0  0  0  0  0
   11.8161  -16.6625   23.9500 C   0  0  0  0  0  0  0  0  0  0  0  0
   12.1803  -17.8843   23.9134 O   0  0  0  0  0  0  0  0  0  0  0  0
   11.4446  -16.0259   25.2099 C   0  0  0  0  0  0  0  0  0  0  0  0
   10.4585  -16.8403   25.9703 C   0  0  2  0  0  0  0  0  0  0  0  0
    9.0722  -16.5279   25.7016 N   0  0  0  0  0  0  0  0  0  0  0  0
   10.7272  -16.7791   27.4480 C   0  0  0  0  0  0  0  0  0  0  0  0
    9.6543  -16.5290   28.2832 O   0  0  0  0  0  0  0  0  0  0  0  0
   11.8589  -16.9417   27.9485 O   0  0  0  0  0  0  0  0  0  0  0  0
  1  2  1  0
  3  2  1  0
  4  3  1  0
  5  4  1  0
  5  6  1  6
  7  8  2  0
  7  5  1  0
 10  9  1  6
 10 12  1  0
 11 10  1  0
 13 12  1  1
 13 14  1  0
 14  7  1  0
 15 13  1  0
 15 22  1  0
 16 15  2  0
 17 18  1  0
 18 20  1  0
 18 19  2  0
 21 20  1  6
 21 22  1  0
 21 23  1  0
 23 25  2  0
 23 24  1  0
M  END
$$$$
