MLN.pdb
     RDKit          3D

 25 24  0  0  1  0  0  0  0  0999 V2000
    5.7739  -11.8694   26.7420 C   0  0  0  0  0  0  0  0  0  0  0  0
    7.4185  -12.5268   27.0232 S   0  0  0  0  0  0  0  0  0  0  0  0
    7.5530  -14.2805   26.7016 C   0  0  0  0  0  0  0  0  0  0  0  0
    6.8118  -14.7940   25.5208 C   0  0  0  0  0  0  0  0  0  0  0  0
    6.9512  -16.2535   25.2686 C   0  0  2  0  0  0  0  0  0  0  0  0
    7.7111  -16.9015   26.3184 N   0  0  0  0  0  0  0  0  0  0  0  0
    7.5696  -16.4885   23.9317 C   0  0  0  0  0  0  0  0  0  0  0  0
    7.8275  -17.6624   23.5811 O   0  0  0  0  0  0  0  0  0  0  0  0
    8.1486  -12.2495   20.0616 C   0  0  0  0  0  0  0  0  0  0  0  0
    7.6322  -13.4005   20.9549 C   0  0  1  0  0  0  0  0  0  0  0  0
    6.3180  -13.8273   20.2855 C   0  0  0  0  0  0  0  0  0  0  0  0
    8.6281  -14.4960   20.8501 C   0  0  0  0  0  0  0  0  0  0  0  0
    8.3816  -15.7150   21.6917 C   0  0  2  0  0  0  0  0  0  0  0  0
    7.8895  -15.4531   23.0184 N   0  0  0  0  0  0  0  0  0  0  0  0
    9.5833  -16.5916   21.7848 C   0  0  0  0  0  0  0  0  0  0  0  0
    9.6685  -17.6329   21.0836 O   0  0  0  0  0  0  0  0  0  0  0  0
   13.9071  -14.8261   22.9447 N   0  0  0  0  0  0  0  0  0  0  0  0
   13.3080  -15.3633   21.7798 C   0  0  0  0  0  0  0  0  0  0  0  0
   13.1189  -14.5842   20.7879 O   0  0  0  0  0  0  0  0  0  0  0  0
   12.9185  -16.7686   21.7171 C   0  0  0  0  0  0  0  0  0  0  0  0
   11.8807  -17.0998   22.7307 C   0  0  2  0  0  0  0  0  0  0  0  0
   10.6737  -16.3071   22.6500 N   0  0  0  0  0  0  0  0  0  0  0  0
   12.4443  -17.0466   24.1232 C   0  0  0  0  0  0  0  0  0  0  0  0
   11.7045  -16.3884   25.0878 O   0  0  0  0  0  0  0  0  0  0  0  0
   13.5345  -17.5626   24.4439 O   0  0  0  0  0  0  0  0  0  0  0  0
  1  2  1  0
  3  2  1  0
  4  3  1  0
  5  4  1  0
  5  6  1  1
  7  8  2  0
  7  5  1  0
 10  9  1  6
 10 12  1  0
 11 10  1  0
 13 12  1  1
 13 14  1  0
 14  7  1  0
 15 13  1  0
 15 22  1  0
 16 15  2  0
 17 18  1  0
 18 20  1  0
 18 19  2  0
 21 20  1  6
 21 22  1  0
 21 23  1  0
 23 25  2  0
 23 24  1  0
M  END
$$$$
