MLN.pdb
     RDKit          3D

 25 24  0  0  1  0  0  0  0  0999 V2000
    8.2055  -11.4507   19.7791 C   0  0  0  0  0  0  0  0  0  0  0  0
    7.2521  -12.8357   19.1557 S   0  0  0  0  0  0  0  0  0  0  0  0
    7.3417  -14.2903   20.1915 C   0  0  0  0  0  0  0  0  0  0  0  0
    8.6428  -14.5441   20.8623 C   0  0  0  0  0  0  0  0  0  0  0  0
    8.6646  -15.7098   21.7864 C   0  0  2  0  0  0  0  0  0  0  0  0
    7.4100  -16.4339   21.7540 N   0  0  0  0  0  0  0  0  0  0  0  0
    8.9939  -15.2634   23.1710 C   0  0  0  0  0  0  0  0  0  0  0  0
   10.1313  -14.7940   23.4022 O   0  0  0  0  0  0  0  0  0  0  0  0
    5.7803  -12.3480   26.5134 C   0  0  0  0  0  0  0  0  0  0  0  0
    7.0147  -12.8432   25.7257 C   0  0  1  0  0  0  0  0  0  0  0  0
    8.0911  -11.7899   26.0243 C   0  0  0  0  0  0  0  0  0  0  0  0
    7.4046  -14.1437   26.3255 C   0  0  0  0  0  0  0  0  0  0  0  0
    8.4481  -14.9384   25.5942 C   0  0  2  0  0  0  0  0  0  0  0  0
    8.0888  -15.3375   24.2591 N   0  0  0  0  0  0  0  0  0  0  0  0
    8.8834  -16.1411   26.3591 C   0  0  0  0  0  0  0  0  0  0  0  0
    9.2393  -16.0374   27.5615 O   0  0  0  0  0  0  0  0  0  0  0  0
    6.3912  -19.4850   25.0226 N   0  0  0  0  0  0  0  0  0  0  0  0
    7.1544  -19.6713   26.2003 C   0  0  0  0  0  0  0  0  0  0  0  0
    6.5434  -19.6609   27.3199 O   0  0  0  0  0  0  0  0  0  0  0  0
    8.5990  -19.8696   26.1340 C   0  0  0  0  0  0  0  0  0  0  0  0
    9.3433  -18.6315   26.4902 C   0  0  2  0  0  0  0  0  0  0  0  0
    8.9199  -17.4410   25.7867 N   0  0  0  0  0  0  0  0  0  0  0  0
   10.8260  -18.8253   26.3366 C   0  0  0  0  0  0  0  0  0  0  0  0
   11.3952  -18.4723   25.1273 O   0  0  0  0  0  0  0  0  0  0  0  0
   11.5566  -19.2840   27.2386 O   0  0  0  0  0  0  0  0  0  0  0  0
  1  2  1  0
  3  2  1  0
  4  3  1  0
  5  4  1  0
  5  6  1  1
  7  8  2  0
  7  5  1  0
 10  9  1  1
 10 12  1  0
 11 10  1  0
 13 12  1  1
 13 14  1  0
 14  7  1  0
 15 13  1  0
 15 22  1  0
 16 15  2  0
 17 18  1  0
 18 20  1  0
 18 19  2  0
 21 20  1  6
 21 22  1  0
 21 23  1  0
 23 25  2  0
 23 24  1  0
M  END
$$$$
