MLN.pdb
     RDKit          3D

 25 24  0  0  1  0  0  0  0  0999 V2000
    8.2712  -11.4033   19.0117 C   0  0  0  0  0  0  0  0  0  0  0  0
    7.1918  -12.7217   18.4527 S   0  0  0  0  0  0  0  0  0  0  0  0
    7.4016  -14.2502   19.3564 C   0  0  0  0  0  0  0  0  0  0  0  0
    8.6332  -14.3672   20.1791 C   0  0  0  0  0  0  0  0  0  0  0  0
    8.7254  -15.5949   21.0140 C   0  0  2  0  0  0  0  0  0  0  0  0
    7.5514  -16.4298   20.8584 N   0  0  0  0  0  0  0  0  0  0  0  0
    8.9418  -15.2304   22.4441 C   0  0  0  0  0  0  0  0  0  0  0  0
   10.0733  -14.8328   22.8037 O   0  0  0  0  0  0  0  0  0  0  0  0
    8.2616  -12.6524   26.8704 C   0  0  0  0  0  0  0  0  0  0  0  0
    7.2006  -13.7766   26.8674 C   0  0  1  0  0  0  0  0  0  0  0  0
    5.9289  -13.0864   27.3808 C   0  0  0  0  0  0  0  0  0  0  0  0
    7.0164  -14.1798   25.4509 C   0  0  0  0  0  0  0  0  0  0  0  0
    8.1596  -14.9055   24.8016 C   0  0  2  0  0  0  0  0  0  0  0  0
    7.9343  -15.3061   23.4379 N   0  0  0  0  0  0  0  0  0  0  0  0
    8.5975  -16.0925   25.5894 C   0  0  0  0  0  0  0  0  0  0  0  0
    7.7606  -16.9567   25.9582 O   0  0  0  0  0  0  0  0  0  0  0  0
   10.4632  -18.9429   24.3822 N   0  0  0  0  0  0  0  0  0  0  0  0
   11.6948  -18.5588   24.9653 C   0  0  0  0  0  0  0  0  0  0  0  0
   12.7605  -18.7316   24.2863 O   0  0  0  0  0  0  0  0  0  0  0  0
   11.7422  -17.9818   26.3052 C   0  0  0  0  0  0  0  0  0  0  0  0
   10.4187  -17.4453   26.7226 C   0  0  2  0  0  0  0  0  0  0  0  0
    9.9521  -16.3091   25.9590 N   0  0  0  0  0  0  0  0  0  0  0  0
   10.4000  -17.1263   28.1914 C   0  0  0  0  0  0  0  0  0  0  0  0
   10.5111  -18.1823   29.0766 O   0  0  0  0  0  0  0  0  0  0  0  0
   10.2904  -15.9676   28.6421 O   0  0  0  0  0  0  0  0  0  0  0  0
  1  2  1  0
  3  2  1  0
  4  3  1  0
  5  4  1  0
  5  6  1  1
  7  8  2  0
  7  5  1  0
 10  9  1  6
 10 12  1  0
 11 10  1  0
 13 12  1  1
 13 14  1  0
 14  7  1  0
 15 13  1  0
 15 22  1  0
 16 15  2  0
 17 18  1  0
 18 20  1  0
 18 19  2  0
 21 20  1  6
 21 22  1  0
 21 23  1  0
 23 25  2  0
 23 24  1  0
M  END
$$$$
