MLN.pdb
     RDKit          3D

 25 24  0  0  1  0  0  0  0  0999 V2000
    9.9503  -13.1939   28.9055 C   0  0  0  0  0  0  0  0  0  0  0  0
   10.2124  -14.8759   29.4696 S   0  0  0  0  0  0  0  0  0  0  0  0
    9.1890  -16.0794   28.6322 C   0  0  0  0  0  0  0  0  0  0  0  0
    8.8790  -15.8040   27.2055 C   0  0  0  0  0  0  0  0  0  0  0  0
    7.8358  -16.6763   26.6022 C   0  0  2  0  0  0  0  0  0  0  0  0
    7.9645  -18.0463   27.0562 N   0  0  0  0  0  0  0  0  0  0  0  0
    7.8930  -16.5939   25.1140 C   0  0  0  0  0  0  0  0  0  0  0  0
    7.9970  -17.6514   24.4519 O   0  0  0  0  0  0  0  0  0  0  0  0
    6.5942  -14.3614   20.3146 C   0  0  0  0  0  0  0  0  0  0  0  0
    7.9409  -13.8557   20.8803 C   0  0  1  0  0  0  0  0  0  0  0  0
    7.9903  -12.3811   20.4557 C   0  0  0  0  0  0  0  0  0  0  0  0
    7.8404  -13.9498   22.3581 C   0  0  0  0  0  0  0  0  0  0  0  0
    7.9113  -15.3269   22.9530 C   0  0  2  0  0  0  0  0  0  0  0  0
    7.8365  -15.3773   24.3893 N   0  0  0  0  0  0  0  0  0  0  0  0
    9.1187  -16.0764   22.5040 C   0  0  0  0  0  0  0  0  0  0  0  0
    9.0903  -16.7546   21.4445 O   0  0  0  0  0  0  0  0  0  0  0  0
   13.4217  -17.4479   20.5135 N   0  0  0  0  0  0  0  0  0  0  0  0
   13.4400  -16.1696   21.1216 C   0  0  0  0  0  0  0  0  0  0  0  0
   14.5447  -15.5327   21.1477 O   0  0  0  0  0  0  0  0  0  0  0  0
   12.2287  -15.5980   21.7018 C   0  0  0  0  0  0  0  0  0  0  0  0
   11.6092  -16.5125   22.6987 C   0  0  2  0  0  0  0  0  0  0  0  0
   10.3400  -16.0670   23.2299 N   0  0  0  0  0  0  0  0  0  0  0  0
   12.5619  -16.8198   23.8202 C   0  0  0  0  0  0  0  0  0  0  0  0
   12.0192  -17.1742   25.0412 O   0  0  0  0  0  0  0  0  0  0  0  0
   13.8032  -16.7704   23.7008 O   0  0  0  0  0  0  0  0  0  0  0  0
  1  2  1  0
  3  2  1  0
  4  3  1  0
  5  4  1  0
  5  6  1  6
  7  8  2  0
  7  5  1  0
 10  9  1  6
 10 12  1  0
 11 10  1  0
 13 12  1  1
 13 14  1  0
 14  7  1  0
 15 13  1  0
 15 22  1  0
 16 15  2  0
 17 18  1  0
 18 20  1  0
 18 19  2  0
 21 20  1  6
 21 22  1  0
 21 23  1  0
 23 25  2  0
 23 24  1  0
M  END
$$$$
