MLN.pdb
     RDKit          3D

 25 24  0  0  1  0  0  0  0  0999 V2000
   10.3430  -21.8364   19.6940 C   0  0  0  0  0  0  0  0  0  0  0  0
   10.1008  -21.7799   17.9181 S   0  0  0  0  0  0  0  0  0  0  0  0
   10.1870  -20.1292   17.2361 C   0  0  0  0  0  0  0  0  0  0  0  0
   10.2929  -19.0156   18.2139 C   0  0  0  0  0  0  0  0  0  0  0  0
   10.2774  -17.6495   17.6251 C   0  0  2  0  0  0  0  0  0  0  0  0
   11.2539  -17.5203   16.5625 N   0  0  0  0  0  0  0  0  0  0  0  0
   10.4996  -16.6276   18.6887 C   0  0  0  0  0  0  0  0  0  0  0  0
   11.6603  -16.2024   18.8877 O   0  0  0  0  0  0  0  0  0  0  0  0
    6.4456  -13.0750   20.5297 C   0  0  0  0  0  0  0  0  0  0  0  0
    7.7354  -13.6134   19.8694 C   0  0  1  0  0  0  0  0  0  0  0  0
    8.4925  -12.3457   19.4486 C   0  0  0  0  0  0  0  0  0  0  0  0
    8.4914  -14.3201   20.9334 C   0  0  0  0  0  0  0  0  0  0  0  0
    9.7055  -15.0907   20.5005 C   0  0  2  0  0  0  0  0  0  0  0  0
    9.4661  -16.0984   19.5014 N   0  0  0  0  0  0  0  0  0  0  0  0
   10.4236  -15.7093   21.6505 C   0  0  0  0  0  0  0  0  0  0  0  0
   10.8162  -14.9999   22.6128 O   0  0  0  0  0  0  0  0  0  0  0  0
   11.4338  -19.9520   25.2745 N   0  0  0  0  0  0  0  0  0  0  0  0
   12.0231  -19.7735   23.9997 C   0  0  0  0  0  0  0  0  0  0  0  0
   13.2410  -20.1205   23.8472 O   0  0  0  0  0  0  0  0  0  0  0  0
   11.2580  -19.2086   22.8925 C   0  0  0  0  0  0  0  0  0  0  0  0
   11.4330  -17.7342   22.7958 C   0  0  2  0  0  0  0  0  0  0  0  0
   10.6984  -17.1013   21.7228 N   0  0  0  0  0  0  0  0  0  0  0  0
   12.8877  -17.3634   22.7180 C   0  0  0  0  0  0  0  0  0  0  0  0
   13.4540  -17.2566   21.4614 O   0  0  0  0  0  0  0  0  0  0  0  0
   13.5976  -17.1503   23.7220 O   0  0  0  0  0  0  0  0  0  0  0  0
  1  2  1  0
  3  2  1  0
  4  3  1  0
  5  4  1  0
  5  6  1  6
  7  8  2  0
  7  5  1  0
 10  9  1  1
 10 12  1  0
 11 10  1  0
 13 12  1  1
 13 14  1  0
 14  7  1  0
 15 13  1  0
 15 22  1  0
 16 15  2  0
 17 18  1  0
 18 20  1  0
 18 19  2  0
 21 20  1  6
 21 22  1  0
 21 23  1  0
 23 25  2  0
 23 24  1  0
M  END
$$$$
