MLN.pdb
     RDKit          3D

 25 24  0  0  1  0  0  0  0  0999 V2000
    8.7220  -11.3861   19.3023 C   0  0  0  0  0  0  0  0  0  0  0  0
    7.4086  -12.4367   18.6803 S   0  0  0  0  0  0  0  0  0  0  0  0
    7.3062  -14.0193   19.5061 C   0  0  0  0  0  0  0  0  0  0  0  0
    8.5742  -14.5562   20.0640 C   0  0  0  0  0  0  0  0  0  0  0  0
    8.4281  -15.7508   20.9385 C   0  0  2  0  0  0  0  0  0  0  0  0
    7.1162  -16.3501   20.8005 N   0  0  0  0  0  0  0  0  0  0  0  0
    8.7083  -15.3875   22.3578 C   0  0  0  0  0  0  0  0  0  0  0  0
    9.8980  -15.2764   22.7316 O   0  0  0  0  0  0  0  0  0  0  0  0
    8.5445  -12.2976   26.5050 C   0  0  0  0  0  0  0  0  0  0  0  0
    7.3111  -13.2239   26.6053 C   0  0  1  0  0  0  0  0  0  0  0  0
    6.1826  -12.2890   27.0634 C   0  0  0  0  0  0  0  0  0  0  0  0
    7.0343  -13.7092   25.2303 C   0  0  0  0  0  0  0  0  0  0  0  0
    7.9956  -14.7138   24.6629 C   0  0  2  0  0  0  0  0  0  0  0  0
    7.6995  -15.1565   23.3261 N   0  0  0  0  0  0  0  0  0  0  0  0
    8.1552  -15.9053   25.5439 C   0  0  0  0  0  0  0  0  0  0  0  0
    7.1462  -16.5413   25.9447 O   0  0  0  0  0  0  0  0  0  0  0  0
    9.9739  -20.9767   25.6017 N   0  0  0  0  0  0  0  0  0  0  0  0
   10.8125  -19.8595   25.8325 C   0  0  0  0  0  0  0  0  0  0  0  0
   11.8897  -20.0429   26.4903 O   0  0  0  0  0  0  0  0  0  0  0  0
   10.4534  -18.5364   25.3316 C   0  0  0  0  0  0  0  0  0  0  0  0
    9.7034  -17.7469   26.3455 C   0  0  2  0  0  0  0  0  0  0  0  0
    9.4254  -16.3782   25.9699 N   0  0  0  0  0  0  0  0  0  0  0  0
   10.3884  -17.7891   27.6829 C   0  0  0  0  0  0  0  0  0  0  0  0
   11.4363  -16.9121   27.8925 O   0  0  0  0  0  0  0  0  0  0  0  0
   10.0588  -18.5687   28.6000 O   0  0  0  0  0  0  0  0  0  0  0  0
  1  2  1  0
  3  2  1  0
  4  3  1  0
  5  4  1  0
  5  6  1  1
  7  8  2  0
  7  5  1  0
 10  9  1  6
 10 12  1  0
 11 10  1  0
 13 12  1  1
 13 14  1  0
 14  7  1  0
 15 13  1  0
 15 22  1  0
 16 15  2  0
 17 18  1  0
 18 20  1  0
 18 19  2  0
 21 20  1  6
 21 22  1  0
 21 23  1  0
 23 25  2  0
 23 24  1  0
M  END
$$$$
