MLN.pdb
     RDKit          3D

 25 24  0  0  1  0  0  0  0  0999 V2000
    8.6277  -11.5632   18.9135 C   0  0  0  0  0  0  0  0  0  0  0  0
    7.1408  -12.5654   18.9344 S   0  0  0  0  0  0  0  0  0  0  0  0
    7.2866  -14.0417   19.9325 C   0  0  0  0  0  0  0  0  0  0  0  0
    8.5278  -14.1739   20.7383 C   0  0  0  0  0  0  0  0  0  0  0  0
    8.6484  -15.4358   21.5169 C   0  0  2  0  0  0  0  0  0  0  0  0
    7.4686  -16.2637   21.3685 N   0  0  0  0  0  0  0  0  0  0  0  0
    8.9166  -15.1318   22.9524 C   0  0  0  0  0  0  0  0  0  0  0  0
   10.0095  -14.6082   23.2672 O   0  0  0  0  0  0  0  0  0  0  0  0
    5.8725  -12.6982   26.8653 C   0  0  0  0  0  0  0  0  0  0  0  0
    7.0470  -13.1230   25.9544 C   0  0  1  0  0  0  0  0  0  0  0  0
    8.2306  -12.2880   26.4633 C   0  0  0  0  0  0  0  0  0  0  0  0
    7.2932  -14.5613   26.2259 C   0  0  0  0  0  0  0  0  0  0  0  0
    8.3407  -15.2365   25.3881 C   0  0  2  0  0  0  0  0  0  0  0  0
    8.0006  -15.4016   23.9996 N   0  0  0  0  0  0  0  0  0  0  0  0
    8.7493  -16.5562   25.9472 C   0  0  0  0  0  0  0  0  0  0  0  0
    7.9018  -17.3041   26.5002 O   0  0  0  0  0  0  0  0  0  0  0  0
   12.4355  -18.3000   23.3630 N   0  0  0  0  0  0  0  0  0  0  0  0
   11.5081  -18.9271   24.2295 C   0  0  0  0  0  0  0  0  0  0  0  0
   10.5039  -19.5169   23.7091 O   0  0  0  0  0  0  0  0  0  0  0  0
   11.6966  -18.8990   25.6766 C   0  0  0  0  0  0  0  0  0  0  0  0
   10.5160  -18.3242   26.3763 C   0  0  2  0  0  0  0  0  0  0  0  0
   10.0866  -17.0322   25.8884 N   0  0  0  0  0  0  0  0  0  0  0  0
   10.7376  -18.2703   27.8621 C   0  0  0  0  0  0  0  0  0  0  0  0
   10.5456  -17.0556   28.4936 O   0  0  0  0  0  0  0  0  0  0  0  0
   11.0820  -19.2584   28.5422 O   0  0  0  0  0  0  0  0  0  0  0  0
  1  2  1  0
  3  2  1  0
  4  3  1  0
  5  4  1  0
  5  6  1  1
  7  8  2  0
  7  5  1  0
 10  9  1  1
 10 12  1  0
 11 10  1  0
 13 12  1  1
 13 14  1  0
 14  7  1  0
 15 13  1  0
 15 22  1  0
 16 15  2  0
 17 18  1  0
 18 20  1  0
 18 19  2  0
 21 20  1  6
 21 22  1  0
 21 23  1  0
 23 25  2  0
 23 24  1  0
M  END
$$$$
