MLN.pdb
     RDKit          3D

 25 24  0  0  1  0  0  0  0  0999 V2000
    6.6658  -20.9566   24.6873 C   0  0  0  0  0  0  0  0  0  0  0  0
    6.7094  -20.9613   22.8945 S   0  0  0  0  0  0  0  0  0  0  0  0
    7.0146  -19.3502   22.1817 C   0  0  0  0  0  0  0  0  0  0  0  0
    6.7578  -18.1800   23.0604 C   0  0  0  0  0  0  0  0  0  0  0  0
    6.8984  -16.8513   22.4064 C   0  0  2  0  0  0  0  0  0  0  0  0
    7.5144  -16.9673   21.1000 N   0  0  0  0  0  0  0  0  0  0  0  0
    7.6680  -15.9235   23.2848 C   0  0  0  0  0  0  0  0  0  0  0  0
    8.8453  -15.6316   22.9744 O   0  0  0  0  0  0  0  0  0  0  0  0
    5.6053  -11.8875   26.9512 C   0  0  0  0  0  0  0  0  0  0  0  0
    6.2939  -12.5663   25.7452 C   0  0  1  0  0  0  0  0  0  0  0  0
    7.1989  -11.4678   25.1694 C   0  0  0  0  0  0  0  0  0  0  0  0
    7.1259  -13.6646   26.2969 C   0  0  0  0  0  0  0  0  0  0  0  0
    7.9204  -14.4706   25.3099 C   0  0  2  0  0  0  0  0  0  0  0  0
    7.1452  -15.3419   24.4668 N   0  0  0  0  0  0  0  0  0  0  0  0
    8.9996  -15.2634   25.9641 C   0  0  0  0  0  0  0  0  0  0  0  0
    9.8120  -14.7083   26.7484 O   0  0  0  0  0  0  0  0  0  0  0  0
   10.6991  -18.6766   29.4836 N   0  0  0  0  0  0  0  0  0  0  0  0
    9.7437  -19.1019   28.5294 C   0  0  0  0  0  0  0  0  0  0  0  0
    9.5454  -20.3547   28.3953 O   0  0  0  0  0  0  0  0  0  0  0  0
    9.0073  -18.1336   27.7228 C   0  0  0  0  0  0  0  0  0  0  0  0
    9.8562  -17.5498   26.6493 C   0  0  2  0  0  0  0  0  0  0  0  0
    9.1672  -16.6569   25.7439 N   0  0  0  0  0  0  0  0  0  0  0  0
   10.5698  -18.6235   25.8762 C   0  0  0  0  0  0  0  0  0  0  0  0
   10.3632  -18.6725   24.5102 O   0  0  0  0  0  0  0  0  0  0  0  0
   11.3298  -19.4611   26.4040 O   0  0  0  0  0  0  0  0  0  0  0  0
  1  2  1  0
  3  2  1  0
  4  3  1  0
  5  4  1  0
  5  6  1  6
  7  8  2  0
  7  5  1  0
 10  9  1  1
 10 12  1  0
 11 10  1  0
 13 12  1  1
 13 14  1  0
 14  7  1  0
 15 13  1  0
 15 22  1  0
 16 15  2  0
 17 18  1  0
 18 20  1  0
 18 19  2  0
 21 20  1  1
 21 22  1  0
 21 23  1  0
 23 25  2  0
 23 24  1  0
M  END
$$$$
