MLN.pdb
     RDKit          3D

 25 24  0  0  1  0  0  0  0  0999 V2000
    7.0353  -11.7352   19.7440 C   0  0  0  0  0  0  0  0  0  0  0  0
    6.6543  -13.4277   19.2899 S   0  0  0  0  0  0  0  0  0  0  0  0
    7.7572  -14.6304   20.0207 C   0  0  0  0  0  0  0  0  0  0  0  0
    8.0837  -14.4396   21.4574 C   0  0  0  0  0  0  0  0  0  0  0  0
    8.9782  -15.4711   22.0481 C   0  0  2  0  0  0  0  0  0  0  0  0
    8.5855  -16.8060   21.6440 N   0  0  0  0  0  0  0  0  0  0  0  0
    9.0018  -15.3427   23.5340 C   0  0  0  0  0  0  0  0  0  0  0  0
    9.9437  -15.8647   24.1727 O   0  0  0  0  0  0  0  0  0  0  0  0
    5.5480  -11.7167   26.3600 C   0  0  0  0  0  0  0  0  0  0  0  0
    6.8705  -12.2770   25.7887 C   0  0  1  0  0  0  0  0  0  0  0  0
    7.9502  -11.3729   26.4005 C   0  0  0  0  0  0  0  0  0  0  0  0
    7.0096  -13.6558   26.3201 C   0  0  0  0  0  0  0  0  0  0  0  0
    8.0854  -14.5085   25.7111 C   0  0  2  0  0  0  0  0  0  0  0  0
    8.0116  -14.6577   24.2817 N   0  0  0  0  0  0  0  0  0  0  0  0
    8.1594  -15.8594   26.3363 C   0  0  0  0  0  0  0  0  0  0  0  0
    8.2684  -15.9790   27.5841 O   0  0  0  0  0  0  0  0  0  0  0  0
    7.8466  -21.7156   25.4640 N   0  0  0  0  0  0  0  0  0  0  0  0
    7.1592  -20.6507   26.0946 C   0  0  0  0  0  0  0  0  0  0  0  0
    6.5779  -20.8853   27.2054 O   0  0  0  0  0  0  0  0  0  0  0  0
    7.1177  -19.3228   25.4900 C   0  0  0  0  0  0  0  0  0  0  0  0
    8.0690  -18.3866   26.1476 C   0  0  2  0  0  0  0  0  0  0  0  0
    8.1120  -17.0587   25.5762 N   0  0  0  0  0  0  0  0  0  0  0  0
    9.4527  -18.9708   26.2077 C   0  0  0  0  0  0  0  0  0  0  0  0
   10.3130  -18.6858   25.1637 O   0  0  0  0  0  0  0  0  0  0  0  0
    9.8549  -19.6913   27.1440 O   0  0  0  0  0  0  0  0  0  0  0  0
  1  2  1  0
  3  2  1  0
  4  3  1  0
  5  4  1  0
  5  6  1  1
  7  8  2  0
  7  5  1  0
 10  9  1  1
 10 12  1  0
 11 10  1  0
 13 12  1  1
 13 14  1  0
 14  7  1  0
 15 13  1  0
 15 22  1  0
 16 15  2  0
 17 18  1  0
 18 20  1  0
 18 19  2  0
 21 20  1  6
 21 22  1  0
 21 23  1  0
 23 25  2  0
 23 24  1  0
M  END
$$$$
