MLN.pdb
     RDKit          3D

 25 24  0  0  1  0  0  0  0  0999 V2000
    9.0167  -11.4414   19.3170 C   0  0  0  0  0  0  0  0  0  0  0  0
    7.9861  -12.6041   18.4215 S   0  0  0  0  0  0  0  0  0  0  0  0
    7.5693  -14.0649   19.3646 C   0  0  0  0  0  0  0  0  0  0  0  0
    8.3757  -14.3137   20.5873 C   0  0  0  0  0  0  0  0  0  0  0  0
    8.0723  -15.5833   21.3010 C   0  0  2  0  0  0  0  0  0  0  0  0
    6.6577  -15.8929   21.2515 N   0  0  0  0  0  0  0  0  0  0  0  0
    8.5596  -15.5119   22.7090 C   0  0  0  0  0  0  0  0  0  0  0  0
    9.7772  -15.6914   22.9388 O   0  0  0  0  0  0  0  0  0  0  0  0
    5.8466  -12.5910   26.8760 C   0  0  0  0  0  0  0  0  0  0  0  0
    6.9142  -12.9825   25.8290 C   0  0  1  0  0  0  0  0  0  0  0  0
    8.1004  -12.0614   26.1479 C   0  0  0  0  0  0  0  0  0  0  0  0
    7.2836  -14.3925   26.1092 C   0  0  0  0  0  0  0  0  0  0  0  0
    8.2363  -15.0443   25.1486 C   0  0  2  0  0  0  0  0  0  0  0  0
    7.7208  -15.2503   23.8209 N   0  0  0  0  0  0  0  0  0  0  0  0
    8.7687  -16.3359   25.6676 C   0  0  0  0  0  0  0  0  0  0  0  0
    7.9994  -17.3145   25.8518 O   0  0  0  0  0  0  0  0  0  0  0  0
   12.5070  -20.5088   25.5023 N   0  0  0  0  0  0  0  0  0  0  0  0
   12.6782  -19.2819   26.1876 C   0  0  0  0  0  0  0  0  0  0  0  0
   13.3782  -19.2821   27.2538 O   0  0  0  0  0  0  0  0  0  0  0  0
   12.0706  -18.0526   25.6873 C   0  0  0  0  0  0  0  0  0  0  0  0
   10.7346  -17.8097   26.2955 C   0  0  2  0  0  0  0  0  0  0  0  0
   10.1420  -16.5298   25.9760 N   0  0  0  0  0  0  0  0  0  0  0  0
   10.7714  -18.0072   27.7852 C   0  0  0  0  0  0  0  0  0  0  0  0
   11.0223  -16.8980   28.5712 O   0  0  0  0  0  0  0  0  0  0  0  0
   10.5881  -19.1114   28.3372 O   0  0  0  0  0  0  0  0  0  0  0  0
  1  2  1  0
  3  2  1  0
  4  3  1  0
  5  4  1  0
  5  6  1  1
  7  8  2  0
  7  5  1  0
 10  9  1  1
 10 12  1  0
 11 10  1  0
 13 12  1  1
 13 14  1  0
 14  7  1  0
 15 13  1  0
 15 22  1  0
 16 15  2  0
 17 18  1  0
 18 20  1  0
 18 19  2  0
 21 20  1  1
 21 22  1  0
 21 23  1  0
 23 25  2  0
 23 24  1  0
M  END
$$$$
