MLN.pdb
     RDKit          3D

 25 24  0  0  1  0  0  0  0  0999 V2000
    7.0207  -11.2321   26.5114 C   0  0  0  0  0  0  0  0  0  0  0  0
    6.2434  -12.6936   27.2010 S   0  0  0  0  0  0  0  0  0  0  0  0
    7.0187  -14.2231   26.6947 C   0  0  0  0  0  0  0  0  0  0  0  0
    7.0417  -14.5002   25.2353 C   0  0  0  0  0  0  0  0  0  0  0  0
    8.0811  -15.4661   24.7882 C   0  0  2  0  0  0  0  0  0  0  0  0
    9.3918  -15.1009   25.2863 N   0  0  0  0  0  0  0  0  0  0  0  0
    8.0801  -15.5719   23.3003 C   0  0  0  0  0  0  0  0  0  0  0  0
    7.0873  -16.0778   22.7293 O   0  0  0  0  0  0  0  0  0  0  0  0
    8.1919  -11.7233   19.9826 C   0  0  0  0  0  0  0  0  0  0  0  0
    7.9610  -13.0421   20.7551 C   0  0  1  0  0  0  0  0  0  0  0  0
    6.5692  -13.5005   20.2968 C   0  0  0  0  0  0  0  0  0  0  0  0
    8.9887  -13.9988   20.2741 C   0  0  0  0  0  0  0  0  0  0  0  0
    9.1339  -15.2783   21.0467 C   0  0  2  0  0  0  0  0  0  0  0  0
    9.1467  -15.1304   22.4781 N   0  0  0  0  0  0  0  0  0  0  0  0
   10.3328  -16.0591   20.6295 C   0  0  0  0  0  0  0  0  0  0  0  0
   10.4225  -16.5124   19.4591 O   0  0  0  0  0  0  0  0  0  0  0  0
   13.3533  -14.1316   19.5592 N   0  0  0  0  0  0  0  0  0  0  0  0
   13.5121  -15.5379   19.5223 C   0  0  0  0  0  0  0  0  0  0  0  0
   13.4252  -16.1227   18.3922 O   0  0  0  0  0  0  0  0  0  0  0  0
   13.7680  -16.2957   20.7433 C   0  0  0  0  0  0  0  0  0  0  0  0
   12.5852  -17.1006   21.1519 C   0  0  2  0  0  0  0  0  0  0  0  0
   11.4155  -16.3287   21.5090 N   0  0  0  0  0  0  0  0  0  0  0  0
   12.9339  -18.0564   22.2584 C   0  0  0  0  0  0  0  0  0  0  0  0
   12.1234  -18.0615   23.3782 O   0  0  0  0  0  0  0  0  0  0  0  0
   13.9083  -18.8350   22.2128 O   0  0  0  0  0  0  0  0  0  0  0  0
  1  2  1  0
  3  2  1  0
  4  3  1  0
  5  4  1  0
  5  6  1  6
  7  8  2  0
  7  5  1  0
 10  9  1  6
 10 12  1  0
 11 10  1  0
 13 12  1  6
 13 14  1  0
 14  7  1  0
 15 13  1  0
 15 22  1  0
 16 15  2  0
 17 18  1  0
 18 20  1  0
 18 19  2  0
 21 20  1  1
 21 22  1  0
 21 23  1  0
 23 25  2  0
 23 24  1  0
M  END
$$$$
