VHL.pdb
     RDKit          3D

 26 26  0  0  1  0  0  0  0  0999 V2000
    8.4845  -12.0135   18.6217 C   0  0  0  0  0  0  0  0  0  0  0  0
    8.4190  -12.9107   19.8458 C   0  0  1  0  0  0  0  0  0  0  0  0
    6.9702  -13.0380   20.2749 C   0  0  0  0  0  0  0  0  0  0  0  0
    8.8746  -14.2924   19.4241 C   0  0  2  0  0  0  0  0  0  0  0  0
    8.0997  -14.7494   18.2866 N   0  0  0  0  0  0  0  0  0  0  0  0
    8.7558  -15.2870   20.4966 C   0  0  0  0  0  0  0  0  0  0  0  0
    7.8168  -16.1560   20.4808 O   0  0  0  0  0  0  0  0  0  0  0  0
    9.6247  -15.3841   21.6057 N   0  0  0  0  0  0  0  0  0  0  0  0
    9.4239  -16.4098   22.6737 C   0  0  1  0  0  0  0  0  0  0  0  0
   10.4719  -17.4213   22.4189 C   0  0  0  0  0  0  0  0  0  0  0  0
   10.5367  -18.5707   23.3399 C   0  0  0  0  0  0  0  0  0  0  0  0
    9.7614  -18.9428   24.4062 C   0  0  0  0  0  0  0  0  0  0  0  0
   10.1769  -20.1295   24.9010 N   0  0  0  0  0  0  0  0  0  0  0  0
   11.2078  -20.5024   24.1482 C   0  0  0  0  0  0  0  0  0  0  0  0
   11.4440  -19.6003   23.2160 N   0  0  0  0  0  0  0  0  0  0  0  0
    9.6081  -15.6810   23.9630 C   0  0  0  0  0  0  0  0  0  0  0  0
   10.6425  -14.9949   24.1237 O   0  0  0  0  0  0  0  0  0  0  0  0
    5.6855  -12.9414   26.5585 C   0  0  0  0  0  0  0  0  0  0  0  0
    7.0563  -13.3242   25.9823 C   0  0  1  0  0  0  0  0  0  0  0  0
    8.0323  -12.1919   26.1274 C   0  0  0  0  0  0  0  0  0  0  0  0
    7.4738  -14.5778   26.6716 C   0  0  0  0  0  0  0  0  0  0  0  0
    8.7946  -15.1287   26.2251 C   0  0  2  0  0  0  0  0  0  0  0  0
    8.6132  -15.7836   24.9675 N   0  0  0  0  0  0  0  0  0  0  0  0
    9.2069  -16.1379   27.2583 C   0  0  0  0  0  0  0  0  0  0  0  0
    9.9863  -15.8096   28.3512 O   0  0  0  0  0  0  0  0  0  0  0  0
    8.8369  -17.3335   27.1394 O   0  0  0  0  0  0  0  0  0  0  0  0
  2  4  1  0
  2  1  1  6
  3  2  1  0
  4  5  1  6
  6  4  1  0
  6  7  2  0
  8  6  1  0
  9  8  1  0
  9 10  1  6
 11 10  1  0
 11 12  2  0
 13 12  1  0
 14 15  2  0
 14 13  1  0
 15 11  1  0
 16  9  1  0
 17 16  2  0
 19 18  1  1
 19 21  1  0
 20 19  1  0
 22 21  1  1
 22 23  1  0
 22 24  1  0
 23 16  1  0
 24 26  2  0
 24 25  1  0
M  END
$$$$
