VHL.pdb
     RDKit          3D

 26 26  0  0  1  0  0  0  0  0999 V2000
    8.5995  -12.4631   20.6418 C   0  0  0  0  0  0  0  0  0  0  0  0
    7.9756  -13.2816   19.5244 C   0  0  1  0  0  0  0  0  0  0  0  0
    8.3472  -12.6497   18.1970 C   0  0  0  0  0  0  0  0  0  0  0  0
    8.6159  -14.6541   19.5514 C   0  0  2  0  0  0  0  0  0  0  0  0
    8.0993  -15.4688   18.4686 N   0  0  0  0  0  0  0  0  0  0  0  0
    8.3926  -15.3657   20.8153 C   0  0  0  0  0  0  0  0  0  0  0  0
    7.2541  -15.8864   21.0796 O   0  0  0  0  0  0  0  0  0  0  0  0
    9.3653  -15.5418   21.8240 N   0  0  0  0  0  0  0  0  0  0  0  0
    9.1120  -16.4042   23.0177 C   0  0  1  0  0  0  0  0  0  0  0  0
   10.0381  -17.5453   22.8547 C   0  0  0  0  0  0  0  0  0  0  0  0
    9.6166  -18.6309   21.9506 C   0  0  0  0  0  0  0  0  0  0  0  0
   10.0207  -18.9925   20.6927 C   0  0  0  0  0  0  0  0  0  0  0  0
    9.3833  -20.1160   20.2964 N   0  0  0  0  0  0  0  0  0  0  0  0
    8.5832  -20.4601   21.3014 C   0  0  0  0  0  0  0  0  0  0  0  0
    8.6998  -19.6004   22.2943 N   0  0  0  0  0  0  0  0  0  0  0  0
    9.4306  -15.5496   24.1991 C   0  0  0  0  0  0  0  0  0  0  0  0
   10.5399  -14.9714   24.2414 O   0  0  0  0  0  0  0  0  0  0  0  0
    5.5045  -12.8630   26.9828 C   0  0  0  0  0  0  0  0  0  0  0  0
    6.8068  -13.1744   26.2312 C   0  0  1  0  0  0  0  0  0  0  0  0
    7.5880  -11.9181   25.9721 C   0  0  0  0  0  0  0  0  0  0  0  0
    7.5373  -14.1867   27.0451 C   0  0  0  0  0  0  0  0  0  0  0  0
    8.8054  -14.6924   26.4257 C   0  0  2  0  0  0  0  0  0  0  0  0
    8.4751  -15.4150   25.2373 N   0  0  0  0  0  0  0  0  0  0  0  0
    9.4233  -15.6294   27.4238 C   0  0  0  0  0  0  0  0  0  0  0  0
   10.1151  -15.1847   28.5344 O   0  0  0  0  0  0  0  0  0  0  0  0
    9.3164  -16.8710   27.2575 O   0  0  0  0  0  0  0  0  0  0  0  0
  2  4  1  0
  2  1  1  1
  3  2  1  0
  4  5  1  6
  6  4  1  0
  6  7  2  0
  8  6  1  0
  9  8  1  0
  9 10  1  6
 11 10  1  0
 11 12  2  0
 13 12  1  0
 14 15  2  0
 14 13  1  0
 15 11  1  0
 16  9  1  0
 17 16  2  0
 19 18  1  1
 19 21  1  0
 20 19  1  0
 22 21  1  1
 22 23  1  0
 22 24  1  0
 23 16  1  0
 24 26  2  0
 24 25  1  0
M  END
$$$$
