VHL.pdb
     RDKit          3D

 26 26  0  0  1  0  0  0  0  0999 V2000
    8.3115  -12.4369   20.9313 C   0  0  0  0  0  0  0  0  0  0  0  0
    7.6672  -13.2265   19.8048 C   0  0  1  0  0  0  0  0  0  0  0  0
    7.7895  -12.4266   18.5224 C   0  0  0  0  0  0  0  0  0  0  0  0
    8.4782  -14.4913   19.6118 C   0  0  2  0  0  0  0  0  0  0  0  0
    7.9871  -15.2306   18.4649 N   0  0  0  0  0  0  0  0  0  0  0  0
    8.4474  -15.3758   20.7823 C   0  0  0  0  0  0  0  0  0  0  0  0
    7.4148  -16.0873   21.0367 O   0  0  0  0  0  0  0  0  0  0  0  0
    9.5046  -15.5269   21.7066 N   0  0  0  0  0  0  0  0  0  0  0  0
    9.4099  -16.4709   22.8611 C   0  0  1  0  0  0  0  0  0  0  0  0
   10.5001  -17.4440   22.6355 C   0  0  0  0  0  0  0  0  0  0  0  0
   10.2129  -18.5824   21.7438 C   0  0  0  0  0  0  0  0  0  0  0  0
    9.0463  -19.2124   21.3993 C   0  0  0  0  0  0  0  0  0  0  0  0
    9.2824  -20.1740   20.4798 N   0  0  0  0  0  0  0  0  0  0  0  0
   10.5914  -20.1475   20.2463 C   0  0  0  0  0  0  0  0  0  0  0  0
   11.1684  -19.2157   20.9794 N   0  0  0  0  0  0  0  0  0  0  0  0
    9.6114  -15.6304   24.0779 C   0  0  0  0  0  0  0  0  0  0  0  0
   10.6163  -14.8865   24.1354 O   0  0  0  0  0  0  0  0  0  0  0  0
    5.8198  -12.7967   26.5643 C   0  0  0  0  0  0  0  0  0  0  0  0
    7.2013  -13.2007   26.0296 C   0  0  1  0  0  0  0  0  0  0  0  0
    8.1542  -12.0409   26.0801 C   0  0  0  0  0  0  0  0  0  0  0  0
    7.6387  -14.3812   26.8271 C   0  0  0  0  0  0  0  0  0  0  0  0
    8.9164  -15.0130   26.3625 C   0  0  2  0  0  0  0  0  0  0  0  0
    8.6657  -15.6954   25.1317 N   0  0  0  0  0  0  0  0  0  0  0  0
    9.3065  -16.0104   27.4156 C   0  0  0  0  0  0  0  0  0  0  0  0
    9.2818  -17.3745   27.1956 O   0  0  0  0  0  0  0  0  0  0  0  0
    9.6725  -15.6052   28.5480 O   0  0  0  0  0  0  0  0  0  0  0  0
  2  4  1  0
  2  1  1  1
  3  2  1  0
  4  5  1  6
  6  4  1  0
  6  7  2  0
  8  6  1  0
  9  8  1  0
  9 10  1  6
 11 10  1  0
 11 12  2  0
 13 12  1  0
 14 15  2  0
 14 13  1  0
 15 11  1  0
 16  9  1  0
 17 16  2  0
 19 18  1  1
 19 21  1  0
 20 19  1  0
 22 21  1  1
 22 23  1  0
 22 24  1  0
 23 16  1  0
 24 26  2  0
 24 25  1  0
M  END
$$$$
