VHL.pdb
     RDKit          3D

 26 26  0  0  1  0  0  0  0  0999 V2000
    8.8702  -12.3582   18.3360 C   0  0  0  0  0  0  0  0  0  0  0  0
    8.5347  -13.0428   19.6499 C   0  0  1  0  0  0  0  0  0  0  0  0
    7.0449  -12.9082   19.8985 C   0  0  0  0  0  0  0  0  0  0  0  0
    8.8193  -14.5210   19.4802 C   0  0  2  0  0  0  0  0  0  0  0  0
    8.1317  -15.0320   18.3100 N   0  0  0  0  0  0  0  0  0  0  0  0
    8.4138  -15.3196   20.6427 C   0  0  0  0  0  0  0  0  0  0  0  0
    7.2197  -15.7682   20.7428 O   0  0  0  0  0  0  0  0  0  0  0  0
    9.2596  -15.6603   21.7212 N   0  0  0  0  0  0  0  0  0  0  0  0
    8.7652  -16.4537   22.8870 C   0  0  1  0  0  0  0  0  0  0  0  0
    9.4146  -17.7739   22.7399 C   0  0  0  0  0  0  0  0  0  0  0  0
    8.7373  -18.7661   21.8853 C   0  0  0  0  0  0  0  0  0  0  0  0
    7.5671  -18.7251   21.1744 C   0  0  0  0  0  0  0  0  0  0  0  0
    7.3976  -19.8701   20.4772 N   0  0  0  0  0  0  0  0  0  0  0  0
    8.4573  -20.6267   20.7474 C   0  0  0  0  0  0  0  0  0  0  0  0
    9.2677  -20.0000   21.5775 N   0  0  0  0  0  0  0  0  0  0  0  0
    9.2174  -15.7050   24.0964 C   0  0  0  0  0  0  0  0  0  0  0  0
   10.4100  -15.3305   24.1610 O   0  0  0  0  0  0  0  0  0  0  0  0
    8.2743  -12.3742   25.7647 C   0  0  0  0  0  0  0  0  0  0  0  0
    7.3063  -12.8238   26.8686 C   0  0  1  0  0  0  0  0  0  0  0  0
    5.8896  -12.4751   26.5119 C   0  0  0  0  0  0  0  0  0  0  0  0
    7.5398  -14.2815   27.0728 C   0  0  0  0  0  0  0  0  0  0  0  0
    8.7333  -14.8322   26.3520 C   0  0  2  0  0  0  0  0  0  0  0  0
    8.2908  -15.4386   25.1355 N   0  0  0  0  0  0  0  0  0  0  0  0
    9.3246  -15.8833   27.2472 C   0  0  0  0  0  0  0  0  0  0  0  0
   10.1754  -15.5790   28.2928 O   0  0  0  0  0  0  0  0  0  0  0  0
    9.0448  -17.0932   27.0515 O   0  0  0  0  0  0  0  0  0  0  0  0
  2  4  1  0
  2  1  1  6
  3  2  1  0
  4  5  1  6
  6  4  1  0
  6  7  2  0
  8  6  1  0
  9  8  1  0
  9 10  1  1
 11 10  1  0
 11 12  2  0
 13 12  1  0
 14 15  2  0
 14 13  1  0
 15 11  1  0
 16  9  1  0
 17 16  2  0
 19 18  1  6
 19 21  1  0
 20 19  1  0
 22 21  1  1
 22 23  1  0
 22 24  1  0
 23 16  1  0
 24 26  2  0
 24 25  1  0
M  END
$$$$
