VHL.pdb
     RDKit          3D

 26 26  0  0  1  0  0  0  0  0999 V2000
    8.4432  -12.4711   20.6333 C   0  0  0  0  0  0  0  0  0  0  0  0
    7.7663  -13.2260   19.5022 C   0  0  1  0  0  0  0  0  0  0  0  0
    7.8729  -12.3978   18.2365 C   0  0  0  0  0  0  0  0  0  0  0  0
    8.5569  -14.4959   19.2634 C   0  0  2  0  0  0  0  0  0  0  0  0
    7.9998  -15.2290   18.1430 N   0  0  0  0  0  0  0  0  0  0  0  0
    8.5827  -15.3830   20.4321 C   0  0  0  0  0  0  0  0  0  0  0  0
    7.5471  -16.0577   20.7634 O   0  0  0  0  0  0  0  0  0  0  0  0
    9.7006  -15.5756   21.2735 N   0  0  0  0  0  0  0  0  0  0  0  0
    9.6444  -16.4832   22.4592 C   0  0  1  0  0  0  0  0  0  0  0  0
   10.8495  -17.3310   22.3353 C   0  0  0  0  0  0  0  0  0  0  0  0
   10.7901  -18.4503   21.3776 C   0  0  0  0  0  0  0  0  0  0  0  0
    9.7985  -19.3406   21.0601 C   0  0  0  0  0  0  0  0  0  0  0  0
   10.1959  -20.1517   20.0551 N   0  0  0  0  0  0  0  0  0  0  0  0
   11.4311  -19.7718   19.7412 C   0  0  0  0  0  0  0  0  0  0  0  0
   11.8095  -18.7670   20.5064 N   0  0  0  0  0  0  0  0  0  0  0  0
    9.6758  -15.5831   23.6493 C   0  0  0  0  0  0  0  0  0  0  0  0
   10.0324  -14.3934   23.4944 O   0  0  0  0  0  0  0  0  0  0  0  0
    8.4014  -12.4194   26.9389 C   0  0  0  0  0  0  0  0  0  0  0  0
    7.3303  -13.5032   26.7490 C   0  0  1  0  0  0  0  0  0  0  0  0
    5.9866  -12.8864   26.4851 C   0  0  0  0  0  0  0  0  0  0  0  0
    7.8144  -14.3945   25.6572 C   0  0  0  0  0  0  0  0  0  0  0  0
    9.0310  -15.2008   25.9992 C   0  0  2  0  0  0  0  0  0  0  0  0
    9.3036  -16.0949   24.9177 N   0  0  0  0  0  0  0  0  0  0  0  0
    8.6858  -15.9938   27.2272 C   0  0  0  0  0  0  0  0  0  0  0  0
    8.1223  -17.2541   27.1664 O   0  0  0  0  0  0  0  0  0  0  0  0
    8.9119  -15.5064   28.3638 O   0  0  0  0  0  0  0  0  0  0  0  0
  2  4  1  0
  2  1  1  1
  3  2  1  0
  4  5  1  6
  6  4  1  0
  6  7  2  0
  8  6  1  0
  9  8  1  0
  9 10  1  1
 11 10  1  0
 11 12  2  0
 13 12  1  0
 14 15  2  0
 14 13  1  0
 15 11  1  0
 16  9  1  0
 17 16  2  0
 19 18  1  6
 19 21  1  0
 20 19  1  0
 22 21  1  6
 22 23  1  0
 22 24  1  0
 23 16  1  0
 24 26  2  0
 24 25  1  0
M  END
$$$$
