VHL.pdb
     RDKit          3D

 26 26  0  0  1  0  0  0  0  0999 V2000
    8.7677  -12.7765   20.0105 C   0  0  0  0  0  0  0  0  0  0  0  0
    8.0888  -13.4641   18.8384 C   0  0  1  0  0  0  0  0  0  0  0  0
    8.7370  -12.9836   17.5546 C   0  0  0  0  0  0  0  0  0  0  0  0
    8.3793  -14.9468   18.9482 C   0  0  2  0  0  0  0  0  0  0  0  0
    7.8474  -15.6477   17.7954 N   0  0  0  0  0  0  0  0  0  0  0  0
    7.8163  -15.5527   20.1604 C   0  0  0  0  0  0  0  0  0  0  0  0
    6.5505  -15.5925   20.3437 O   0  0  0  0  0  0  0  0  0  0  0  0
    8.5770  -16.1279   21.2021 N   0  0  0  0  0  0  0  0  0  0  0  0
    7.9428  -16.5985   22.4706 C   0  0  1  0  0  0  0  0  0  0  0  0
    8.4755  -17.9637   22.6679 C   0  0  0  0  0  0  0  0  0  0  0  0
    8.2212  -18.6040   23.9713 C   0  0  0  0  0  0  0  0  0  0  0  0
    7.0673  -18.8574   24.6647 C   0  0  0  0  0  0  0  0  0  0  0  0
    7.3381  -19.5395   25.7992 N   0  0  0  0  0  0  0  0  0  0  0  0
    8.6561  -19.7156   25.8180 C   0  0  0  0  0  0  0  0  0  0  0  0
    9.2057  -19.1732   24.7493 N   0  0  0  0  0  0  0  0  0  0  0  0
    8.3887  -15.6338   23.5185 C   0  0  0  0  0  0  0  0  0  0  0  0
    9.5496  -15.1704   23.4545 O   0  0  0  0  0  0  0  0  0  0  0  0
    7.7547  -11.3839   26.3002 C   0  0  0  0  0  0  0  0  0  0  0  0
    6.9844  -12.5022   27.0170 C   0  0  1  0  0  0  0  0  0  0  0  0
    5.7570  -11.9590   27.6908 C   0  0  0  0  0  0  0  0  0  0  0  0
    6.7027  -13.5491   25.9945 C   0  0  0  0  0  0  0  0  0  0  0  0
    7.9001  -14.3401   25.5608 C   0  0  2  0  0  0  0  0  0  0  0  0
    7.4919  -15.2689   24.5538 N   0  0  0  0  0  0  0  0  0  0  0  0
    8.3750  -15.0927   26.7707 C   0  0  0  0  0  0  0  0  0  0  0  0
    9.4592  -14.6846   27.5241 O   0  0  0  0  0  0  0  0  0  0  0  0
    7.7737  -16.1380   27.1263 O   0  0  0  0  0  0  0  0  0  0  0  0
  2  4  1  0
  2  1  1  1
  3  2  1  0
  4  5  1  6
  6  4  1  0
  6  7  2  0
  8  6  1  0
  9  8  1  0
  9 10  1  1
 11 10  1  0
 11 12  2  0
 13 12  1  0
 14 15  2  0
 14 13  1  0
 15 11  1  0
 16  9  1  0
 17 16  2  0
 19 18  1  6
 19 21  1  0
 20 19  1  0
 22 21  1  1
 22 23  1  0
 22 24  1  0
 23 16  1  0
 24 26  2  0
 24 25  1  0
M  END
$$$$
