VHL.pdb
     RDKit          3D

 26 26  0  0  1  0  0  0  0  0999 V2000
    8.6816  -12.3430   20.6499 C   0  0  0  0  0  0  0  0  0  0  0  0
    7.9962  -13.1302   19.5461 C   0  0  1  0  0  0  0  0  0  0  0  0
    8.2712  -12.4451   18.2216 C   0  0  0  0  0  0  0  0  0  0  0  0
    8.6549  -14.4927   19.4803 C   0  0  2  0  0  0  0  0  0  0  0  0
    8.1258  -15.2509   18.3630 N   0  0  0  0  0  0  0  0  0  0  0  0
    8.4682  -15.2791   20.7051 C   0  0  0  0  0  0  0  0  0  0  0  0
    7.3381  -15.8179   20.9697 O   0  0  0  0  0  0  0  0  0  0  0  0
    9.4691  -15.5121   21.6738 N   0  0  0  0  0  0  0  0  0  0  0  0
    9.2410  -16.4241   22.8354 C   0  0  1  0  0  0  0  0  0  0  0  0
   10.2135  -17.5210   22.6429 C   0  0  0  0  0  0  0  0  0  0  0  0
    9.7749  -18.6768   21.8395 C   0  0  0  0  0  0  0  0  0  0  0  0
    8.5592  -19.2915   21.6954 C   0  0  0  0  0  0  0  0  0  0  0  0
    8.6363  -20.2820   20.7796 N   0  0  0  0  0  0  0  0  0  0  0  0
    9.8944  -20.2889   20.3488 C   0  0  0  0  0  0  0  0  0  0  0  0
   10.5919  -19.3500   20.9576 N   0  0  0  0  0  0  0  0  0  0  0  0
    9.5155  -15.5980   24.0478 C   0  0  0  0  0  0  0  0  0  0  0  0
   10.5959  -14.9697   24.1155 O   0  0  0  0  0  0  0  0  0  0  0  0
    5.7329  -12.6795   26.7813 C   0  0  0  0  0  0  0  0  0  0  0  0
    7.0713  -13.0568   26.1301 C   0  0  1  0  0  0  0  0  0  0  0  0
    8.0300  -11.9013   26.1702 C   0  0  0  0  0  0  0  0  0  0  0  0
    7.5598  -14.2757   26.8348 C   0  0  0  0  0  0  0  0  0  0  0  0
    8.8394  -14.8409   26.2958 C   0  0  2  0  0  0  0  0  0  0  0  0
    8.5519  -15.5461   25.0861 N   0  0  0  0  0  0  0  0  0  0  0  0
    9.3470  -15.8069   27.3279 C   0  0  0  0  0  0  0  0  0  0  0  0
   10.1363  -15.4140   28.3920 O   0  0  0  0  0  0  0  0  0  0  0  0
    9.0514  -17.0254   27.2351 O   0  0  0  0  0  0  0  0  0  0  0  0
  2  4  1  0
  2  1  1  1
  3  2  1  0
  4  5  1  6
  6  4  1  0
  6  7  2  0
  8  6  1  0
  9  8  1  0
  9 10  1  6
 11 10  1  0
 11 12  2  0
 13 12  1  0
 14 15  2  0
 14 13  1  0
 15 11  1  0
 16  9  1  0
 17 16  2  0
 19 18  1  1
 19 21  1  0
 20 19  1  0
 22 21  1  1
 22 23  1  0
 22 24  1  0
 23 16  1  0
 24 26  2  0
 24 25  1  0
M  END
$$$$
