VHL.pdb
     RDKit          3D

 26 26  0  0  1  0  0  0  0  0999 V2000
    8.6599  -12.3257   18.6253 C   0  0  0  0  0  0  0  0  0  0  0  0
    8.5033  -13.0764   19.9366 C   0  0  1  0  0  0  0  0  0  0  0  0
    7.0659  -12.9436   20.4009 C   0  0  0  0  0  0  0  0  0  0  0  0
    8.7386  -14.5456   19.6526 C   0  0  2  0  0  0  0  0  0  0  0  0
    7.8348  -15.0060   18.6160 N   0  0  0  0  0  0  0  0  0  0  0  0
    8.5583  -15.3940   20.8363 C   0  0  0  0  0  0  0  0  0  0  0  0
    7.4367  -15.9656   21.0658 O   0  0  0  0  0  0  0  0  0  0  0  0
    9.5568  -15.6557   21.8002 N   0  0  0  0  0  0  0  0  0  0  0  0
    9.2960  -16.5290   22.9843 C   0  0  1  0  0  0  0  0  0  0  0  0
   10.2206  -17.6704   22.8147 C   0  0  0  0  0  0  0  0  0  0  0  0
    9.7869  -18.7618   21.9235 C   0  0  0  0  0  0  0  0  0  0  0  0
    8.6289  -19.4904   21.8539 C   0  0  0  0  0  0  0  0  0  0  0  0
    8.6711  -20.3457   20.8087 N   0  0  0  0  0  0  0  0  0  0  0  0
    9.8497  -20.1545   20.2231 C   0  0  0  0  0  0  0  0  0  0  0  0
   10.5317  -19.2232   20.8601 N   0  0  0  0  0  0  0  0  0  0  0  0
    9.6108  -15.6864   24.1753 C   0  0  0  0  0  0  0  0  0  0  0  0
   10.6854  -15.0448   24.1911 O   0  0  0  0  0  0  0  0  0  0  0  0
    5.8020  -12.7146   26.5894 C   0  0  0  0  0  0  0  0  0  0  0  0
    7.1484  -13.1415   25.9872 C   0  0  1  0  0  0  0  0  0  0  0  0
    8.0594  -11.9589   25.8227 C   0  0  0  0  0  0  0  0  0  0  0  0
    7.6928  -14.2087   26.8734 C   0  0  0  0  0  0  0  0  0  0  0  0
    8.9731  -14.8263   26.3973 C   0  0  2  0  0  0  0  0  0  0  0  0
    8.6908  -15.6343   25.2524 N   0  0  0  0  0  0  0  0  0  0  0  0
    9.4667  -15.6998   27.5150 C   0  0  0  0  0  0  0  0  0  0  0  0
   10.1619  -15.2003   28.5998 O   0  0  0  0  0  0  0  0  0  0  0  0
    9.2473  -16.9372   27.4781 O   0  0  0  0  0  0  0  0  0  0  0  0
  2  4  1  0
  2  1  1  6
  3  2  1  0
  4  5  1  6
  6  4  1  0
  6  7  2  0
  8  6  1  0
  9  8  1  0
  9 10  1  6
 11 10  1  0
 11 12  2  0
 13 12  1  0
 14 15  2  0
 14 13  1  0
 15 11  1  0
 16  9  1  0
 17 16  2  0
 19 18  1  1
 19 21  1  0
 20 19  1  0
 22 21  1  1
 22 23  1  0
 22 24  1  0
 23 16  1  0
 24 26  2  0
 24 25  1  0
M  END
$$$$
