VHL.pdb
     RDKit          3D

 26 26  0  0  1  0  0  0  0  0999 V2000
    8.6499  -12.3351   20.7375 C   0  0  0  0  0  0  0  0  0  0  0  0
    8.0530  -13.0812   19.5566 C   0  0  1  0  0  0  0  0  0  0  0  0
    8.4203  -12.3440   18.2835 C   0  0  0  0  0  0  0  0  0  0  0  0
    8.7240  -14.4376   19.4871 C   0  0  2  0  0  0  0  0  0  0  0  0
    8.2228  -15.1863   18.3507 N   0  0  0  0  0  0  0  0  0  0  0  0
    8.5201  -15.2403   20.6986 C   0  0  0  0  0  0  0  0  0  0  0  0
    7.4001  -15.8190   20.9182 O   0  0  0  0  0  0  0  0  0  0  0  0
    9.4929  -15.4482   21.7010 N   0  0  0  0  0  0  0  0  0  0  0  0
    9.2625  -16.3930   22.8356 C   0  0  1  0  0  0  0  0  0  0  0  0
   10.2706  -17.4574   22.6431 C   0  0  0  0  0  0  0  0  0  0  0  0
    9.9683  -18.4987   21.6441 C   0  0  0  0  0  0  0  0  0  0  0  0
    9.1612  -19.6049   21.6806 C   0  0  0  0  0  0  0  0  0  0  0  0
    9.1540  -20.2243   20.4798 N   0  0  0  0  0  0  0  0  0  0  0  0
    9.9518  -19.5097   19.6915 C   0  0  0  0  0  0  0  0  0  0  0  0
   10.4478  -18.4823   20.3525 N   0  0  0  0  0  0  0  0  0  0  0  0
    9.4831  -15.5880   24.0729 C   0  0  0  0  0  0  0  0  0  0  0  0
   10.5140  -14.8831   24.1560 O   0  0  0  0  0  0  0  0  0  0  0  0
    5.3232  -13.5955   27.1000 C   0  0  0  0  0  0  0  0  0  0  0  0
    6.6529  -13.6752   26.3363 C   0  0  1  0  0  0  0  0  0  0  0  0
    7.2965  -12.3215   26.2407 C   0  0  0  0  0  0  0  0  0  0  0  0
    7.4853  -14.6952   27.0345 C   0  0  0  0  0  0  0  0  0  0  0  0
    8.7920  -15.0018   26.3669 C   0  0  2  0  0  0  0  0  0  0  0  0
    8.5256  -15.6417   25.1167 N   0  0  0  0  0  0  0  0  0  0  0  0
    9.5192  -15.9559   27.2707 C   0  0  0  0  0  0  0  0  0  0  0  0
   10.1960  -15.5415   28.4020 O   0  0  0  0  0  0  0  0  0  0  0  0
    9.5224  -17.1840   27.0021 O   0  0  0  0  0  0  0  0  0  0  0  0
  2  4  1  0
  2  1  1  1
  3  2  1  0
  4  5  1  6
  6  4  1  0
  6  7  2  0
  8  6  1  0
  9  8  1  0
  9 10  1  6
 11 10  1  0
 11 12  2  0
 13 12  1  0
 14 15  2  0
 14 13  1  0
 15 11  1  0
 16  9  1  0
 17 16  2  0
 19 18  1  1
 19 21  1  0
 20 19  1  0
 22 21  1  1
 22 23  1  0
 22 24  1  0
 23 16  1  0
 24 26  2  0
 24 25  1  0
M  END
$$$$
