VHL.pdb
     RDKit          3D

 26 26  0  0  1  0  0  0  0  0999 V2000
    8.8938  -12.3116   18.1961 C   0  0  0  0  0  0  0  0  0  0  0  0
    8.6204  -13.0764   19.4799 C   0  0  1  0  0  0  0  0  0  0  0  0
    7.1315  -13.0285   19.7633 C   0  0  0  0  0  0  0  0  0  0  0  0
    8.9729  -14.5283   19.2303 C   0  0  2  0  0  0  0  0  0  0  0  0
    8.3430  -14.9936   18.0096 N   0  0  0  0  0  0  0  0  0  0  0  0
    8.5674  -15.4133   20.3285 C   0  0  0  0  0  0  0  0  0  0  0  0
    7.9007  -16.4803   20.0957 O   0  0  0  0  0  0  0  0  0  0  0  0
    8.8573  -15.1900   21.6926 N   0  0  0  0  0  0  0  0  0  0  0  0
    8.6662  -16.2569   22.7212 C   0  0  1  0  0  0  0  0  0  0  0  0
    9.5268  -17.3699   22.2661 C   0  0  0  0  0  0  0  0  0  0  0  0
    9.5939  -18.5648   23.1269 C   0  0  0  0  0  0  0  0  0  0  0  0
    8.8815  -18.9455   24.2333 C   0  0  0  0  0  0  0  0  0  0  0  0
    9.2630  -20.1761   24.6406 N   0  0  0  0  0  0  0  0  0  0  0  0
   10.2100  -20.5678   23.7930 C   0  0  0  0  0  0  0  0  0  0  0  0
   10.4271  -19.6355   22.8862 N   0  0  0  0  0  0  0  0  0  0  0  0
    9.1165  -15.6513   24.0089 C   0  0  0  0  0  0  0  0  0  0  0  0
   10.3215  -15.3384   24.1375 O   0  0  0  0  0  0  0  0  0  0  0  0
    8.0683  -12.3899   25.5161 C   0  0  0  0  0  0  0  0  0  0  0  0
    7.4250  -12.7488   26.8634 C   0  0  1  0  0  0  0  0  0  0  0  0
    6.0641  -12.1259   26.9888 C   0  0  0  0  0  0  0  0  0  0  0  0
    7.4223  -14.2364   26.9518 C   0  0  0  0  0  0  0  0  0  0  0  0
    8.5958  -14.9052   26.3015 C   0  0  2  0  0  0  0  0  0  0  0  0
    8.1740  -15.4471   25.0478 N   0  0  0  0  0  0  0  0  0  0  0  0
    9.0092  -16.0238   27.2147 C   0  0  0  0  0  0  0  0  0  0  0  0
    9.8514  -15.8325   28.2935 O   0  0  0  0  0  0  0  0  0  0  0  0
    8.5810  -17.1869   27.0036 O   0  0  0  0  0  0  0  0  0  0  0  0
  2  4  1  0
  2  1  1  6
  3  2  1  0
  4  5  1  6
  6  4  1  0
  6  7  2  0
  8  6  1  0
  9  8  1  0
  9 10  1  6
 11 10  1  0
 11 12  2  0
 13 12  1  0
 14 15  2  0
 14 13  1  0
 15 11  1  0
 16  9  1  0
 17 16  2  0
 19 18  1  6
 19 21  1  0
 20 19  1  0
 22 21  1  1
 22 23  1  0
 22 24  1  0
 23 16  1  0
 24 26  2  0
 24 25  1  0
M  END
$$$$
