VHL.pdb
     RDKit          3D

 26 26  0  0  1  0  0  0  0  0999 V2000
    8.4728  -12.0633   18.6150 C   0  0  0  0  0  0  0  0  0  0  0  0
    8.4323  -12.9241   19.8660 C   0  0  1  0  0  0  0  0  0  0  0  0
    7.0340  -12.8636   20.4493 C   0  0  0  0  0  0  0  0  0  0  0  0
    8.6685  -14.3587   19.4408 C   0  0  2  0  0  0  0  0  0  0  0  0
    7.7023  -14.7472   18.4315 N   0  0  0  0  0  0  0  0  0  0  0  0
    8.5822  -15.3084   20.5563 C   0  0  0  0  0  0  0  0  0  0  0  0
    7.4768  -15.8892   20.8359 O   0  0  0  0  0  0  0  0  0  0  0  0
    9.6593  -15.6637   21.3977 N   0  0  0  0  0  0  0  0  0  0  0  0
    9.4875  -16.6212   22.5320 C   0  0  1  0  0  0  0  0  0  0  0  0
   10.5851  -17.5975   22.3633 C   0  0  0  0  0  0  0  0  0  0  0  0
   10.6980  -18.6652   23.3736 C   0  0  0  0  0  0  0  0  0  0  0  0
    9.9156  -19.0078   24.4447 C   0  0  0  0  0  0  0  0  0  0  0  0
   10.3944  -20.1208   25.0428 N   0  0  0  0  0  0  0  0  0  0  0  0
   11.4721  -20.4772   24.3498 C   0  0  0  0  0  0  0  0  0  0  0  0
   11.6765  -19.6351   23.3560 N   0  0  0  0  0  0  0  0  0  0  0  0
    9.6158  -15.7969   23.7696 C   0  0  0  0  0  0  0  0  0  0  0  0
   10.5490  -14.9661   23.8448 O   0  0  0  0  0  0  0  0  0  0  0  0
    5.9426  -12.9224   26.5889 C   0  0  0  0  0  0  0  0  0  0  0  0
    7.3051  -13.3407   26.0176 C   0  0  1  0  0  0  0  0  0  0  0  0
    8.3684  -12.3472   26.3893 C   0  0  0  0  0  0  0  0  0  0  0  0
    7.5673  -14.7230   26.5089 C   0  0  0  0  0  0  0  0  0  0  0  0
    8.8772  -15.3059   26.0711 C   0  0  2  0  0  0  0  0  0  0  0  0
    8.6837  -15.9744   24.8225 N   0  0  0  0  0  0  0  0  0  0  0  0
    9.2690  -16.3087   27.1185 C   0  0  0  0  0  0  0  0  0  0  0  0
    9.1073  -17.6700   26.9443 O   0  0  0  0  0  0  0  0  0  0  0  0
    9.7654  -15.9108   28.2029 O   0  0  0  0  0  0  0  0  0  0  0  0
  2  4  1  0
  2  1  1  6
  3  2  1  0
  4  5  1  6
  6  4  1  0
  6  7  2  0
  8  6  1  0
  9  8  1  0
  9 10  1  1
 11 10  1  0
 11 12  2  0
 13 12  1  0
 14 15  2  0
 14 13  1  0
 15 11  1  0
 16  9  1  0
 17 16  2  0
 19 18  1  1
 19 21  1  0
 20 19  1  0
 22 21  1  1
 22 23  1  0
 22 24  1  0
 23 16  1  0
 24 26  2  0
 24 25  1  0
M  END
$$$$
