VHL.pdb
     RDKit          3D

 26 26  0  0  1  0  0  0  0  0999 V2000
    8.1223  -13.1007   18.6223 C   0  0  0  0  0  0  0  0  0  0  0  0
    8.3737  -13.3353   20.1020 C   0  0  1  0  0  0  0  0  0  0  0  0
    7.0394  -13.3528   20.8221 C   0  0  0  0  0  0  0  0  0  0  0  0
    8.9702  -14.7199   20.2499 C   0  0  2  0  0  0  0  0  0  0  0  0
    8.0993  -15.7075   19.6421 N   0  0  0  0  0  0  0  0  0  0  0  0
    9.1973  -15.0993   21.6491 C   0  0  0  0  0  0  0  0  0  0  0  0
    9.8656  -14.3393   22.4321 O   0  0  0  0  0  0  0  0  0  0  0  0
    8.7242  -16.2870   22.2492 N   0  0  0  0  0  0  0  0  0  0  0  0
    9.6508  -17.2596   22.9038 C   0  0  1  0  0  0  0  0  0  0  0  0
   10.6057  -17.6366   21.8397 C   0  0  0  0  0  0  0  0  0  0  0  0
   11.6050  -18.6700   22.1667 C   0  0  0  0  0  0  0  0  0  0  0  0
   11.8766  -19.3581   23.3197 C   0  0  0  0  0  0  0  0  0  0  0  0
   12.8531  -20.2677   23.1082 N   0  0  0  0  0  0  0  0  0  0  0  0
   13.1928  -20.1529   21.8275 C   0  0  0  0  0  0  0  0  0  0  0  0
   12.4712  -19.2159   21.2447 N   0  0  0  0  0  0  0  0  0  0  0  0
   10.2850  -16.5086   24.0270 C   0  0  0  0  0  0  0  0  0  0  0  0
   11.1520  -15.6463   23.7600 O   0  0  0  0  0  0  0  0  0  0  0  0
   11.0189  -13.6770   28.0779 C   0  0  0  0  0  0  0  0  0  0  0  0
   10.1231  -14.8358   28.5387 C   0  0  1  0  0  0  0  0  0  0  0  0
    9.0791  -14.3532   29.5046 C   0  0  0  0  0  0  0  0  0  0  0  0
    9.5667  -15.4610   27.3056 C   0  0  0  0  0  0  0  0  0  0  0  0
   10.5749  -16.1709   26.4530 C   0  0  2  0  0  0  0  0  0  0  0  0
    9.8922  -16.7890   25.3597 N   0  0  0  0  0  0  0  0  0  0  0  0
   11.1941  -17.2311   27.3181 C   0  0  0  0  0  0  0  0  0  0  0  0
   10.4942  -18.3401   27.7538 O   0  0  0  0  0  0  0  0  0  0  0  0
   12.3963  -17.1208   27.6692 O   0  0  0  0  0  0  0  0  0  0  0  0
  2  4  1  0
  2  1  1  6
  3  2  1  0
  4  5  1  1
  6  4  1  0
  6  7  2  0
  8  6  1  0
  9  8  1  0
  9 10  1  6
 11 10  1  0
 11 12  2  0
 13 12  1  0
 14 15  2  0
 14 13  1  0
 15 11  1  0
 16  9  1  0
 17 16  2  0
 19 18  1  6
 19 21  1  0
 20 19  1  0
 22 21  1  1
 22 23  1  0
 22 24  1  0
 23 16  1  0
 24 26  2  0
 24 25  1  0
M  END
$$$$
