SWV.pdb
     RDKit          3D

 28 29  0  0  1  0  0  0  0  0999 V2000
   27.1749  -19.0235  -15.1452 O   0  0  0  0  0  0  0  0  0  0  0  0
   28.4631  -19.4262  -14.7769 C   0  0  0  0  0  0  0  0  0  0  0  0
   28.4939  -20.8762  -14.4516 C   0  0  2  0  0  0  0  0  0  0  0  0
   28.1157  -21.7128  -15.5674 N   0  0  0  0  0  0  0  0  0  0  0  0
   27.6323  -21.1701  -13.2581 C   0  0  0  0  0  0  0  0  0  0  0  0
   26.5419  -21.8132  -13.3993 O   0  0  0  0  0  0  0  0  0  0  0  0
   27.9497  -20.7731  -11.9436 N   0  0  0  0  0  0  0  0  0  0  0  0
   27.0299  -20.9333  -10.8104 C   0  0  1  0  0  0  0  0  0  0  0  0
   27.7730  -20.5867   -9.5799 C   0  0  0  0  0  0  0  0  0  0  0  0
   26.9995  -20.6685   -8.3262 C   0  0  0  0  0  0  0  0  0  0  0  0
   25.7427  -21.1173   -8.0325 C   0  0  0  0  0  0  0  0  0  0  0  0
   25.4564  -20.9712   -6.7157 N   0  0  0  0  0  0  0  0  0  0  0  0
   26.5414  -20.4236   -6.1594 C   0  0  0  0  0  0  0  0  0  0  0  0
   26.7618  -20.0712   -4.8269 C   0  0  0  0  0  0  0  0  0  0  0  0
   27.9600  -19.5156   -4.4498 C   0  0  0  0  0  0  0  0  0  0  0  0
   28.9522  -19.3072   -5.4126 C   0  0  0  0  0  0  0  0  0  0  0  0
   28.7167  -19.6579   -6.7096 C   0  0  0  0  0  0  0  0  0  0  0  0
   27.5077  -20.2210   -7.1003 C   0  0  0  0  0  0  0  0  0  0  0  0
   25.7508  -20.2440  -11.0006 C   0  0  0  0  0  0  0  0  0  0  0  0
   25.6913  -19.0037  -11.0270 O   0  0  0  0  0  0  0  0  0  0  0  0
   23.8007  -20.0833  -13.8483 C   0  0  0  0  0  0  0  0  0  0  0  0
   22.7938  -20.5762  -12.8362 C   0  0  1  0  0  0  0  0  0  0  0  0
   22.5723  -22.0516  -13.0726 C   0  0  0  0  0  0  0  0  0  0  0  0
   23.2695  -20.2672  -11.4279 C   0  0  2  0  0  0  0  0  0  0  0  0
   24.5205  -20.9678  -11.1643 N   0  0  0  0  0  0  0  0  0  0  0  0
   22.2129  -20.7269  -10.5092 C   0  0  0  0  0  0  0  0  0  0  0  0
   22.4441  -21.7278   -9.7468 O   0  0  0  0  0  0  0  0  0  0  0  0
   20.9648  -20.1652  -10.3869 O   0  0  0  0  0  0  0  0  0  0  0  0
  1  2  1  0
  3  2  1  0
  3  4  1  6
  5  3  1  0
  5  6  2  0
  7  5  1  0
  8  7  1  0
  8  9  1  1
 10  9  1  0
 10 11  2  0
 12 11  1  0
 13 18  2  0
 13 12  1  0
 14 13  1  0
 15 14  2  0
 16 15  1  0
 16 17  2  0
 17 18  1  0
 18 10  1  0
 19  8  1  0
 20 19  2  0
 22 21  1  6
 22 24  1  0
 23 22  1  0
 24 25  1  1
 25 19  1  0
 26 28  1  0
 26 24  1  0
 27 26  2  0
M  END
$$$$
