SWV.pdb
     RDKit          3D

 28 29  0  0  1  0  0  0  0  0999 V2000
   27.2433  -19.3957  -15.3663 O   0  0  0  0  0  0  0  0  0  0  0  0
   28.5289  -19.8381  -15.0364 C   0  0  0  0  0  0  0  0  0  0  0  0
   28.5061  -21.2581  -14.5978 C   0  0  2  0  0  0  0  0  0  0  0  0
   28.1223  -22.1681  -15.6526 N   0  0  0  0  0  0  0  0  0  0  0  0
   27.6124  -21.4298  -13.4040 C   0  0  0  0  0  0  0  0  0  0  0  0
   26.4561  -21.9465  -13.5397 O   0  0  0  0  0  0  0  0  0  0  0  0
   27.9687  -21.0477  -12.0950 N   0  0  0  0  0  0  0  0  0  0  0  0
   27.0245  -21.0518  -10.9705 C   0  0  1  0  0  0  0  0  0  0  0  0
   27.7689  -20.6393   -9.7613 C   0  0  0  0  0  0  0  0  0  0  0  0
   26.9801  -20.5902   -8.5154 C   0  0  0  0  0  0  0  0  0  0  0  0
   25.6621  -20.8181   -8.2357 C   0  0  0  0  0  0  0  0  0  0  0  0
   25.3916  -20.6280   -6.9212 N   0  0  0  0  0  0  0  0  0  0  0  0
   26.5486  -20.2753   -6.3523 C   0  0  0  0  0  0  0  0  0  0  0  0
   26.8124  -19.9686   -5.0163 C   0  0  0  0  0  0  0  0  0  0  0  0
   28.0840  -19.6270   -4.6255 C   0  0  0  0  0  0  0  0  0  0  0  0
   29.1070  -19.5894   -5.5779 C   0  0  0  0  0  0  0  0  0  0  0  0
   28.8282  -19.8919   -6.8784 C   0  0  0  0  0  0  0  0  0  0  0  0
   27.5448  -20.2389   -7.2830 C   0  0  0  0  0  0  0  0  0  0  0  0
   25.7915  -20.3097  -11.2467 C   0  0  0  0  0  0  0  0  0  0  0  0
   25.8096  -19.0784  -11.4083 O   0  0  0  0  0  0  0  0  0  0  0  0
   23.9936  -19.8951  -14.0059 C   0  0  0  0  0  0  0  0  0  0  0  0
   22.9148  -20.4259  -13.0920 C   0  0  1  0  0  0  0  0  0  0  0  0
   22.6789  -21.8778  -13.4356 C   0  0  0  0  0  0  0  0  0  0  0  0
   23.3062  -20.2173  -11.6400 C   0  0  2  0  0  0  0  0  0  0  0  0
   24.5189  -20.9698  -11.3424 N   0  0  0  0  0  0  0  0  0  0  0  0
   22.1808  -20.7002  -10.8201 C   0  0  0  0  0  0  0  0  0  0  0  0
   21.0828  -20.0440  -10.8233 O   0  0  0  0  0  0  0  0  0  0  0  0
   22.1968  -21.8239  -10.0295 O   0  0  0  0  0  0  0  0  0  0  0  0
  1  2  1  0
  3  2  1  0
  3  4  1  6
  5  3  1  0
  5  6  2  0
  7  5  1  0
  8  7  1  0
  8  9  1  1
 10  9  1  0
 10 11  2  0
 12 11  1  0
 13 18  2  0
 13 12  1  0
 14 13  1  0
 15 14  2  0
 16 15  1  0
 16 17  2  0
 17 18  1  0
 18 10  1  0
 19  8  1  0
 20 19  2  0
 22 21  1  6
 22 24  1  0
 23 22  1  0
 24 25  1  1
 25 19  1  0
 26 28  1  0
 26 24  1  0
 27 26  2  0
M  END
$$$$
