SWV.pdb
     RDKit          3D

 28 29  0  0  1  0  0  0  0  0999 V2000
   28.8257  -18.6108  -15.8836 O   0  0  0  0  0  0  0  0  0  0  0  0
   27.8763  -19.3256  -15.1453 C   0  0  0  0  0  0  0  0  0  0  0  0
   28.4964  -20.5003  -14.4783 C   0  0  2  0  0  0  0  0  0  0  0  0
   28.7097  -21.6116  -15.3768 N   0  0  0  0  0  0  0  0  0  0  0  0
   27.6793  -20.9303  -13.2947 C   0  0  0  0  0  0  0  0  0  0  0  0
   26.7914  -21.8342  -13.4249 O   0  0  0  0  0  0  0  0  0  0  0  0
   27.8250  -20.3889  -12.0017 N   0  0  0  0  0  0  0  0  0  0  0  0
   26.9050  -20.6861  -10.8966 C   0  0  1  0  0  0  0  0  0  0  0  0
   27.5755  -20.2914   -9.6392 C   0  0  0  0  0  0  0  0  0  0  0  0
   26.7771  -20.4672   -8.4110 C   0  0  0  0  0  0  0  0  0  0  0  0
   25.5028  -20.9035   -8.1807 C   0  0  0  0  0  0  0  0  0  0  0  0
   25.1966  -20.8732   -6.8606 N   0  0  0  0  0  0  0  0  0  0  0  0
   26.2864  -20.4131   -6.2383 C   0  0  0  0  0  0  0  0  0  0  0  0
   26.4922  -20.1943   -4.8751 C   0  0  0  0  0  0  0  0  0  0  0  0
   27.6986  -19.7129   -4.4286 C   0  0  0  0  0  0  0  0  0  0  0  0
   28.7139  -19.4451   -5.3518 C   0  0  0  0  0  0  0  0  0  0  0  0
   28.4923  -19.6651   -6.6796 C   0  0  0  0  0  0  0  0  0  0  0  0
   27.2752  -20.1523   -7.1406 C   0  0  0  0  0  0  0  0  0  0  0  0
   25.5592  -20.1435  -11.1014 C   0  0  0  0  0  0  0  0  0  0  0  0
   25.3625  -18.9176  -11.1314 O   0  0  0  0  0  0  0  0  0  0  0  0
   23.6003  -20.3709  -14.0231 C   0  0  0  0  0  0  0  0  0  0  0  0
   22.6674  -20.9108  -12.9653 C   0  0  1  0  0  0  0  0  0  0  0  0
   22.6302  -22.4155  -13.0940 C   0  0  0  0  0  0  0  0  0  0  0  0
   23.1075  -20.4452  -11.5889 C   0  0  2  0  0  0  0  0  0  0  0  0
   24.4188  -20.9999  -11.2758 N   0  0  0  0  0  0  0  0  0  0  0  0
   22.0969  -20.9277  -10.6309 C   0  0  0  0  0  0  0  0  0  0  0  0
   20.9189  -20.4305  -10.6666 O   0  0  0  0  0  0  0  0  0  0  0  0
   22.3037  -21.8923   -9.6743 O   0  0  0  0  0  0  0  0  0  0  0  0
  1  2  1  0
  3  2  1  0
  3  4  1  6
  5  3  1  0
  5  6  2  0
  7  5  1  0
  8  7  1  0
  8  9  1  1
 10  9  1  0
 10 11  2  0
 12 11  1  0
 13 18  2  0
 13 12  1  0
 14 13  1  0
 15 14  2  0
 16 15  1  0
 16 17  2  0
 17 18  1  0
 18 10  1  0
 19  8  1  0
 20 19  2  0
 22 21  1  6
 22 24  1  0
 23 22  1  0
 24 25  1  1
 25 19  1  0
 26 28  1  0
 26 24  1  0
 27 26  2  0
M  END
$$$$
