SWV.pdb
     RDKit          3D

 28 29  0  0  1  0  0  0  0  0999 V2000
   20.8929   -9.5738  -19.7726 O   0  0  0  0  0  0  0  0  0  0  0  0
   21.8163  -10.3117  -19.0241 C   0  0  0  0  0  0  0  0  0  0  0  0
   21.1326  -11.1047  -17.9692 C   0  0  2  0  0  0  0  0  0  0  0  0
   20.1984  -12.0685  -18.5043 N   0  0  0  0  0  0  0  0  0  0  0  0
   20.4493  -10.2002  -16.9852 C   0  0  0  0  0  0  0  0  0  0  0  0
   19.2162   -9.9149  -17.1281 O   0  0  0  0  0  0  0  0  0  0  0  0
   21.0929   -9.6202  -15.8736 N   0  0  0  0  0  0  0  0  0  0  0  0
   20.4257   -8.6931  -14.9509 C   0  0  1  0  0  0  0  0  0  0  0  0
   21.0368   -8.8744  -13.6166 C   0  0  0  0  0  0  0  0  0  0  0  0
   20.3763   -8.1533  -12.5119 C   0  0  0  0  0  0  0  0  0  0  0  0
   19.3950   -8.4995  -11.6262 C   0  0  0  0  0  0  0  0  0  0  0  0
   19.0971   -7.4770  -10.7877 N   0  0  0  0  0  0  0  0  0  0  0  0
   19.8963   -6.4649  -11.1394 C   0  0  0  0  0  0  0  0  0  0  0  0
   19.9866   -5.1854  -10.5888 C   0  0  0  0  0  0  0  0  0  0  0  0
   20.8840   -4.2781  -11.0965 C   0  0  0  0  0  0  0  0  0  0  0  0
   21.7025   -4.6494  -12.1676 C   0  0  0  0  0  0  0  0  0  0  0  0
   21.5983   -5.9044  -12.6917 C   0  0  0  0  0  0  0  0  0  0  0  0
   20.6935   -6.8291  -12.1843 C   0  0  0  0  0  0  0  0  0  0  0  0
   20.3750   -7.3160  -15.4493 C   0  0  0  0  0  0  0  0  0  0  0  0
   21.3713   -6.7882  -15.9703 O   0  0  0  0  0  0  0  0  0  0  0  0
   16.7152   -5.5167  -16.3435 C   0  0  0  0  0  0  0  0  0  0  0  0
   18.0301   -5.0675  -16.9352 C   0  0  1  0  0  0  0  0  0  0  0  0
   17.8520   -3.6652  -17.4680 C   0  0  0  0  0  0  0  0  0  0  0  0
   19.1354   -5.1712  -15.8995 C   0  0  2  0  0  0  0  0  0  0  0  0
   19.1797   -6.5240  -15.3582 N   0  0  0  0  0  0  0  0  0  0  0  0
   18.8205   -4.1973  -14.8391 C   0  0  0  0  0  0  0  0  0  0  0  0
   18.0689   -4.5564  -13.8684 O   0  0  0  0  0  0  0  0  0  0  0  0
   19.2724   -2.9006  -14.7898 O   0  0  0  0  0  0  0  0  0  0  0  0
  1  2  1  0
  3  2  1  0
  3  4  1  6
  5  3  1  0
  5  6  2  0
  7  5  1  0
  8  7  1  0
  8  9  1  1
 10  9  1  0
 10 11  2  0
 12 11  1  0
 13 18  2  0
 13 12  1  0
 14 13  1  0
 15 14  2  0
 16 15  1  0
 16 17  2  0
 17 18  1  0
 18 10  1  0
 19  8  1  0
 20 19  2  0
 22 21  1  1
 22 24  1  0
 23 22  1  0
 24 25  1  1
 25 19  1  0
 26 28  1  0
 26 24  1  0
 27 26  2  0
M  END
$$$$
