SWV.pdb
     RDKit          3D

 28 29  0  0  1  0  0  0  0  0999 V2000
   27.2799  -18.8831  -15.0307 O   0  0  0  0  0  0  0  0  0  0  0  0
   28.6073  -19.1711  -14.6954 C   0  0  0  0  0  0  0  0  0  0  0  0
   28.7721  -20.6114  -14.3678 C   0  0  2  0  0  0  0  0  0  0  0  0
   28.5309  -21.4783  -15.4984 N   0  0  0  0  0  0  0  0  0  0  0  0
   27.8936  -20.9964  -13.2131 C   0  0  0  0  0  0  0  0  0  0  0  0
   26.8731  -21.7343  -13.4041 O   0  0  0  0  0  0  0  0  0  0  0  0
   28.1202  -20.5874  -11.8836 N   0  0  0  0  0  0  0  0  0  0  0  0
   27.2042  -20.8982  -10.7789 C   0  0  1  0  0  0  0  0  0  0  0  0
   27.8872  -20.5378   -9.5179 C   0  0  0  0  0  0  0  0  0  0  0  0
   27.0603  -20.6274   -8.2993 C   0  0  0  0  0  0  0  0  0  0  0  0
   25.7670  -21.0070   -8.0748 C   0  0  0  0  0  0  0  0  0  0  0  0
   25.4377  -20.9039   -6.7640 N   0  0  0  0  0  0  0  0  0  0  0  0
   26.5318  -20.4540   -6.1417 C   0  0  0  0  0  0  0  0  0  0  0  0
   26.7201  -20.1788   -4.7863 C   0  0  0  0  0  0  0  0  0  0  0  0
   27.9347  -19.7201   -4.3382 C   0  0  0  0  0  0  0  0  0  0  0  0
   28.9760  -19.5320   -5.2521 C   0  0  0  0  0  0  0  0  0  0  0  0
   28.7712  -19.8062   -6.5726 C   0  0  0  0  0  0  0  0  0  0  0  0
   27.5459  -20.2710   -7.0350 C   0  0  0  0  0  0  0  0  0  0  0  0
   25.8632  -20.3367  -10.9629 C   0  0  0  0  0  0  0  0  0  0  0  0
   25.6907  -19.1098  -11.0493 O   0  0  0  0  0  0  0  0  0  0  0  0
   21.5643  -21.0144  -13.1328 C   0  0  0  0  0  0  0  0  0  0  0  0
   22.9342  -21.4806  -12.7007 C   0  0  1  0  0  0  0  0  0  0  0  0
   23.8514  -21.4218  -13.8996 C   0  0  0  0  0  0  0  0  0  0  0  0
   23.4304  -20.6448  -11.5344 C   0  0  2  0  0  0  0  0  0  0  0  0
   24.6997  -21.1750  -11.0515 N   0  0  0  0  0  0  0  0  0  0  0  0
   22.4007  -20.7238  -10.4830 C   0  0  0  0  0  0  0  0  0  0  0  0
   22.4907  -21.6371   -9.5920 O   0  0  0  0  0  0  0  0  0  0  0  0
   21.3203  -19.8833  -10.3624 O   0  0  0  0  0  0  0  0  0  0  0  0
  1  2  1  0
  3  2  1  0
  3  4  1  6
  5  3  1  0
  5  6  2  0
  7  5  1  0
  8  7  1  0
  8  9  1  1
 10  9  1  0
 10 11  2  0
 12 11  1  0
 13 18  2  0
 13 12  1  0
 14 13  1  0
 15 14  2  0
 16 15  1  0
 16 17  2  0
 17 18  1  0
 18 10  1  0
 19  8  1  0
 20 19  2  0
 22 21  1  6
 22 24  1  0
 23 22  1  0
 24 25  1  1
 25 19  1  0
 26 28  1  0
 26 24  1  0
 27 26  2  0
M  END
$$$$
