SWV.pdb
     RDKit          3D

 28 29  0  0  1  0  0  0  0  0999 V2000
   29.2051  -14.6975  -18.9560 O   0  0  0  0  0  0  0  0  0  0  0  0
   28.3040  -13.9440  -18.1959 C   0  0  0  0  0  0  0  0  0  0  0  0
   27.5929  -12.9521  -19.0441 C   0  0  2  0  0  0  0  0  0  0  0  0
   27.2895  -13.4537  -20.3648 N   0  0  0  0  0  0  0  0  0  0  0  0
   28.3748  -11.6739  -19.1337 C   0  0  0  0  0  0  0  0  0  0  0  0
   29.1840  -11.4855  -20.0991 O   0  0  0  0  0  0  0  0  0  0  0  0
   28.2785  -10.6270  -18.1950 N   0  0  0  0  0  0  0  0  0  0  0  0
   29.0559   -9.3852  -18.2921 C   0  0  1  0  0  0  0  0  0  0  0  0
   28.1316   -8.2591  -18.0391 C   0  0  0  0  0  0  0  0  0  0  0  0
   27.2841   -7.8639  -19.1803 C   0  0  0  0  0  0  0  0  0  0  0  0
   26.1281   -8.3705  -19.7038 C   0  0  0  0  0  0  0  0  0  0  0  0
   25.7230   -7.6680  -20.7899 N   0  0  0  0  0  0  0  0  0  0  0  0
   26.6287   -6.7005  -20.9639 C   0  0  0  0  0  0  0  0  0  0  0  0
   26.6735   -5.7055  -21.9419 C   0  0  0  0  0  0  0  0  0  0  0  0
   27.6989   -4.7918  -21.9494 C   0  0  0  0  0  0  0  0  0  0  0  0
   28.6939   -4.8700  -20.9702 C   0  0  0  0  0  0  0  0  0  0  0  0
   28.6321   -5.8502  -20.0237 C   0  0  0  0  0  0  0  0  0  0  0  0
   27.5982   -6.7788  -20.0080 C   0  0  0  0  0  0  0  0  0  0  0  0
   30.2788   -9.4026  -17.4848 C   0  0  0  0  0  0  0  0  0  0  0  0
   30.2254   -9.3878  -16.2441 O   0  0  0  0  0  0  0  0  0  0  0  0
   34.9334  -10.6209  -16.8402 C   0  0  0  0  0  0  0  0  0  0  0  0
   33.7232  -10.5437  -17.7403 C   0  0  1  0  0  0  0  0  0  0  0  0
   33.0680  -11.9046  -17.7661 C   0  0  0  0  0  0  0  0  0  0  0  0
   32.7871   -9.4450  -17.2696 C   0  0  2  0  0  0  0  0  0  0  0  0
   31.5817   -9.4382  -18.0894 N   0  0  0  0  0  0  0  0  0  0  0  0
   33.5173   -8.1724  -17.4087 C   0  0  0  0  0  0  0  0  0  0  0  0
   33.3876   -7.4958  -18.4865 O   0  0  0  0  0  0  0  0  0  0  0  0
   34.3483   -7.6241  -16.4616 O   0  0  0  0  0  0  0  0  0  0  0  0
  1  2  1  0
  3  2  1  0
  3  4  1  6
  5  3  1  0
  5  6  2  0
  7  5  1  0
  8  7  1  0
  8  9  1  1
 10  9  1  0
 10 11  2  0
 12 11  1  0
 13 18  2  0
 13 12  1  0
 14 13  1  0
 15 14  2  0
 16 15  1  0
 16 17  2  0
 17 18  1  0
 18 10  1  0
 19  8  1  0
 20 19  2  0
 22 21  1  1
 22 24  1  0
 23 22  1  0
 24 25  1  6
 25 19  1  0
 26 28  1  0
 26 24  1  0
 27 26  2  0
M  END
$$$$
