SWV.pdb
     RDKit          3D

 28 29  0  0  1  0  0  0  0  0999 V2000
   31.7244  -23.4965  -11.5725 O   0  0  0  0  0  0  0  0  0  0  0  0
   31.8259  -22.2318  -12.1621 C   0  0  0  0  0  0  0  0  0  0  0  0
   31.3893  -21.1692  -11.2190 C   0  0  2  0  0  0  0  0  0  0  0  0
   31.4393  -21.5866   -9.8366 N   0  0  0  0  0  0  0  0  0  0  0  0
   30.0145  -20.6799  -11.5712 C   0  0  0  0  0  0  0  0  0  0  0  0
   29.1260  -20.5628  -10.6662 O   0  0  0  0  0  0  0  0  0  0  0  0
   29.6170  -20.3277  -12.8767 N   0  0  0  0  0  0  0  0  0  0  0  0
   28.3469  -19.6549  -13.1770 C   0  0  1  0  0  0  0  0  0  0  0  0
   28.4704  -19.0470  -14.5193 C   0  0  0  0  0  0  0  0  0  0  0  0
   27.3303  -18.2136  -14.9467 C   0  0  0  0  0  0  0  0  0  0  0  0
   26.9295  -16.9466  -14.6288 C   0  0  0  0  0  0  0  0  0  0  0  0
   25.7848  -16.6098  -15.2719 N   0  0  0  0  0  0  0  0  0  0  0  0
   25.4488  -17.6721  -16.0103 C   0  0  0  0  0  0  0  0  0  0  0  0
   24.3534  -17.8403  -16.8590 C   0  0  0  0  0  0  0  0  0  0  0  0
   24.1835  -19.0211  -17.5396 C   0  0  0  0  0  0  0  0  0  0  0  0
   25.1164  -20.0491  -17.3725 C   0  0  0  0  0  0  0  0  0  0  0  0
   26.1795  -19.8649  -16.5379 C   0  0  0  0  0  0  0  0  0  0  0  0
   26.3599  -18.6735  -15.8455 C   0  0  0  0  0  0  0  0  0  0  0  0
   27.1750  -20.5094  -12.9674 C   0  0  0  0  0  0  0  0  0  0  0  0
   27.1815  -21.7003  -13.3199 O   0  0  0  0  0  0  0  0  0  0  0  0
   25.7568  -21.4232   -9.9098 C   0  0  0  0  0  0  0  0  0  0  0  0
   24.5208  -20.9926  -10.6633 C   0  0  1  0  0  0  0  0  0  0  0  0
   24.0283  -19.6984  -10.0597 C   0  0  0  0  0  0  0  0  0  0  0  0
   24.8231  -20.8766  -12.1467 C   0  0  2  0  0  0  0  0  0  0  0  0
   25.9780  -20.0102  -12.3490 N   0  0  0  0  0  0  0  0  0  0  0  0
   23.6247  -20.3021  -12.7836 C   0  0  0  0  0  0  0  0  0  0  0  0
   23.6693  -19.1018  -13.2237 O   0  0  0  0  0  0  0  0  0  0  0  0
   22.4269  -20.9525  -12.9580 O   0  0  0  0  0  0  0  0  0  0  0  0
  1  2  1  0
  3  2  1  0
  3  4  1  1
  5  3  1  0
  5  6  2  0
  7  5  1  0
  8  7  1  0
  8  9  1  6
 10  9  1  0
 10 11  2  0
 12 11  1  0
 13 18  2  0
 13 12  1  0
 14 13  1  0
 15 14  2  0
 16 15  1  0
 16 17  2  0
 17 18  1  0
 18 10  1  0
 19  8  1  0
 20 19  2  0
 22 21  1  1
 22 24  1  0
 23 22  1  0
 24 25  1  1
 25 19  1  0
 26 28  1  0
 26 24  1  0
 27 26  2  0
M  END
$$$$
