SWV.pdb
     RDKit          3D

 28 29  0  0  1  0  0  0  0  0999 V2000
   17.6738  -10.4181  -19.3343 O   0  0  0  0  0  0  0  0  0  0  0  0
   17.4341   -9.6178  -18.2120 C   0  0  0  0  0  0  0  0  0  0  0  0
   17.7410  -10.3550  -16.9584 C   0  0  2  0  0  0  0  0  0  0  0  0
   16.7281  -11.3257  -16.6124 N   0  0  0  0  0  0  0  0  0  0  0  0
   17.9634   -9.3993  -15.8224 C   0  0  0  0  0  0  0  0  0  0  0  0
   17.0018   -8.6843  -15.3905 O   0  0  0  0  0  0  0  0  0  0  0  0
   19.2023   -9.2259  -15.1733 N   0  0  0  0  0  0  0  0  0  0  0  0
   19.4049   -8.2851  -14.0643 C   0  0  1  0  0  0  0  0  0  0  0  0
   19.8051   -9.0726  -12.8784 C   0  0  0  0  0  0  0  0  0  0  0  0
   20.0430   -8.2930  -11.6486 C   0  0  0  0  0  0  0  0  0  0  0  0
   19.3120   -7.3465  -10.9876 C   0  0  0  0  0  0  0  0  0  0  0  0
   19.9628   -6.8915   -9.8891 N   0  0  0  0  0  0  0  0  0  0  0  0
   21.1230   -7.5539   -9.8454 C   0  0  0  0  0  0  0  0  0  0  0  0
   22.1554   -7.4554   -8.9110 C   0  0  0  0  0  0  0  0  0  0  0  0
   23.2799   -8.2331   -9.0416 C   0  0  0  0  0  0  0  0  0  0  0  0
   23.3784   -9.1207  -10.1174 C   0  0  0  0  0  0  0  0  0  0  0  0
   22.3587   -9.2013  -11.0199 C   0  0  0  0  0  0  0  0  0  0  0  0
   21.2171   -8.4187  -10.8957 C   0  0  0  0  0  0  0  0  0  0  0  0
   20.2794   -7.1613  -14.4105 C   0  0  0  0  0  0  0  0  0  0  0  0
   21.3670   -7.3499  -14.9797 O   0  0  0  0  0  0  0  0  0  0  0  0
   19.5048   -4.2203  -16.5843 C   0  0  0  0  0  0  0  0  0  0  0  0
   19.9675   -3.6586  -15.2610 C   0  0  1  0  0  0  0  0  0  0  0  0
   18.7512   -3.1906  -14.4970 C   0  0  0  0  0  0  0  0  0  0  0  0
   20.7788   -4.6952  -14.5046 C   0  0  2  0  0  0  0  0  0  0  0  0
   19.9182   -5.8036  -14.1093 N   0  0  0  0  0  0  0  0  0  0  0  0
   21.3350   -4.0206  -13.3182 C   0  0  0  0  0  0  0  0  0  0  0  0
   20.8901   -4.3322  -12.1601 O   0  0  0  0  0  0  0  0  0  0  0  0
   22.3178   -3.0605  -13.3364 O   0  0  0  0  0  0  0  0  0  0  0  0
  1  2  1  0
  3  2  1  0
  3  4  1  1
  5  3  1  0
  5  6  2  0
  7  5  1  0
  8  7  1  0
  8  9  1  1
 10  9  1  0
 10 11  2  0
 12 11  1  0
 13 18  2  0
 13 12  1  0
 14 13  1  0
 15 14  2  0
 16 15  1  0
 16 17  2  0
 17 18  1  0
 18 10  1  0
 19  8  1  0
 20 19  2  0
 22 21  1  6
 22 24  1  0
 23 22  1  0
 24 25  1  1
 25 19  1  0
 26 28  1  0
 26 24  1  0
 27 26  2  0
M  END
$$$$
