SWV.pdb
     RDKit          3D

 28 29  0  0  1  0  0  0  0  0999 V2000
   25.8467  -19.4016  -15.0269 O   0  0  0  0  0  0  0  0  0  0  0  0
   27.1069  -19.0663  -14.5200 C   0  0  0  0  0  0  0  0  0  0  0  0
   27.8140  -20.2716  -14.0137 C   0  0  2  0  0  0  0  0  0  0  0  0
   27.9022  -21.3280  -14.9957 N   0  0  0  0  0  0  0  0  0  0  0  0
   27.1684  -20.7756  -12.7557 C   0  0  0  0  0  0  0  0  0  0  0  0
   26.3477  -21.7485  -12.8035 O   0  0  0  0  0  0  0  0  0  0  0  0
   27.4099  -20.2332  -11.4775 N   0  0  0  0  0  0  0  0  0  0  0  0
   26.6857  -20.6583  -10.2731 C   0  0  1  0  0  0  0  0  0  0  0  0
   27.4916  -20.2530   -9.1014 C   0  0  0  0  0  0  0  0  0  0  0  0
   26.9199  -20.5999   -7.7862 C   0  0  0  0  0  0  0  0  0  0  0  0
   25.9472  -21.4753   -7.3930 C   0  0  0  0  0  0  0  0  0  0  0  0
   25.7489  -21.4310   -6.0528 N   0  0  0  0  0  0  0  0  0  0  0  0
   26.6042  -20.5179   -5.5821 C   0  0  0  0  0  0  0  0  0  0  0  0
   26.8011  -20.0957   -4.2663 C   0  0  0  0  0  0  0  0  0  0  0  0
   27.7418  -19.1355   -3.9839 C   0  0  0  0  0  0  0  0  0  0  0  0
   28.4964  -18.5877   -5.0257 C   0  0  0  0  0  0  0  0  0  0  0  0
   28.2880  -19.0136   -6.3047 C   0  0  0  0  0  0  0  0  0  0  0  0
   27.3388  -19.9847   -6.5999 C   0  0  0  0  0  0  0  0  0  0  0  0
   25.2826  -20.2357  -10.2613 C   0  0  0  0  0  0  0  0  0  0  0  0
   24.9718  -19.0476  -10.4465 O   0  0  0  0  0  0  0  0  0  0  0  0
   20.7740  -21.0207  -11.5667 C   0  0  0  0  0  0  0  0  0  0  0  0
   22.2318  -21.3919  -11.4338 C   0  0  1  0  0  0  0  0  0  0  0  0
   22.9428  -20.9678  -12.6973 C   0  0  0  0  0  0  0  0  0  0  0  0
   22.8222  -20.7647  -10.1835 C   0  0  2  0  0  0  0  0  0  0  0  0
   24.2148  -21.1706  -10.0378 N   0  0  0  0  0  0  0  0  0  0  0  0
   22.0193  -21.2443   -9.0445 C   0  0  0  0  0  0  0  0  0  0  0  0
   20.8197  -20.8216   -8.9077 O   0  0  0  0  0  0  0  0  0  0  0  0
   22.4474  -22.1314   -8.0864 O   0  0  0  0  0  0  0  0  0  0  0  0
  1  2  1  0
  3  2  1  0
  3  4  1  6
  5  3  1  0
  5  6  2  0
  7  5  1  0
  8  7  1  0
  8  9  1  1
 10  9  1  0
 10 11  2  0
 12 11  1  0
 13 18  2  0
 13 12  1  0
 14 13  1  0
 15 14  2  0
 16 15  1  0
 16 17  2  0
 17 18  1  0
 18 10  1  0
 19  8  1  0
 20 19  2  0
 22 21  1  6
 22 24  1  0
 23 22  1  0
 24 25  1  1
 25 19  1  0
 26 28  1  0
 26 24  1  0
 27 26  2  0
M  END
$$$$
