SWV.pdb
     RDKit          3D

 28 29  0  0  1  0  0  0  0  0999 V2000
   27.1701  -18.8550  -14.9701 O   0  0  0  0  0  0  0  0  0  0  0  0
   28.4942  -19.1899  -14.6667 C   0  0  0  0  0  0  0  0  0  0  0  0
   28.6163  -20.6359  -14.3457 C   0  0  2  0  0  0  0  0  0  0  0  0
   28.3425  -21.4903  -15.4784 N   0  0  0  0  0  0  0  0  0  0  0  0
   27.7326  -20.9984  -13.1877 C   0  0  0  0  0  0  0  0  0  0  0  0
   26.6284  -21.6004  -13.3898 O   0  0  0  0  0  0  0  0  0  0  0  0
   28.0431  -20.7119  -11.8432 N   0  0  0  0  0  0  0  0  0  0  0  0
   27.0943  -20.9056  -10.7394 C   0  0  1  0  0  0  0  0  0  0  0  0
   27.7926  -20.5549   -9.4840 C   0  0  0  0  0  0  0  0  0  0  0  0
   26.9599  -20.5773   -8.2662 C   0  0  0  0  0  0  0  0  0  0  0  0
   25.6739  -20.9692   -8.0220 C   0  0  0  0  0  0  0  0  0  0  0  0
   25.3338  -20.7819   -6.7233 N   0  0  0  0  0  0  0  0  0  0  0  0
   26.4136  -20.2649   -6.1288 C   0  0  0  0  0  0  0  0  0  0  0  0
   26.5870  -19.8911   -4.7951 C   0  0  0  0  0  0  0  0  0  0  0  0
   27.7882  -19.3748   -4.3744 C   0  0  0  0  0  0  0  0  0  0  0  0
   28.8311  -19.2279   -5.2942 C   0  0  0  0  0  0  0  0  0  0  0  0
   28.6410  -19.5987   -6.5930 C   0  0  0  0  0  0  0  0  0  0  0  0
   27.4293  -20.1223   -7.0277 C   0  0  0  0  0  0  0  0  0  0  0  0
   25.8055  -20.2442  -10.9605 C   0  0  0  0  0  0  0  0  0  0  0  0
   25.7237  -19.0061  -11.0143 O   0  0  0  0  0  0  0  0  0  0  0  0
   23.9995  -19.8372  -13.7318 C   0  0  0  0  0  0  0  0  0  0  0  0
   22.9539  -20.4812  -12.8527 C   0  0  1  0  0  0  0  0  0  0  0  0
   22.8139  -21.9265  -13.2691 C   0  0  0  0  0  0  0  0  0  0  0  0
   23.3256  -20.3202  -11.3895 C   0  0  2  0  0  0  0  0  0  0  0  0
   24.5908  -20.9940  -11.1243 N   0  0  0  0  0  0  0  0  0  0  0  0
   22.2380  -20.9285  -10.6026 C   0  0  0  0  0  0  0  0  0  0  0  0
   21.0900  -20.3646  -10.5889 O   0  0  0  0  0  0  0  0  0  0  0  0
   22.3408  -22.0805   -9.8607 O   0  0  0  0  0  0  0  0  0  0  0  0
  1  2  1  0
  3  2  1  0
  3  4  1  6
  5  3  1  0
  5  6  2  0
  7  5  1  0
  8  7  1  0
  8  9  1  1
 10  9  1  0
 10 11  2  0
 12 11  1  0
 13 18  2  0
 13 12  1  0
 14 13  1  0
 15 14  2  0
 16 15  1  0
 16 17  2  0
 17 18  1  0
 18 10  1  0
 19  8  1  0
 20 19  2  0
 22 21  1  6
 22 24  1  0
 23 22  1  0
 24 25  1  6
 25 19  1  0
 26 28  1  0
 26 24  1  0
 27 26  2  0
M  END
$$$$
