SWV.pdb
     RDKit          3D

 28 29  0  0  1  0  0  0  0  0999 V2000
   26.3118  -19.3515  -17.4870 O   0  0  0  0  0  0  0  0  0  0  0  0
   27.5560  -19.0750  -16.9100 C   0  0  0  0  0  0  0  0  0  0  0  0
   28.0293  -20.2225  -16.0924 C   0  0  2  0  0  0  0  0  0  0  0  0
   28.3414  -21.3894  -16.8853 N   0  0  0  0  0  0  0  0  0  0  0  0
   27.0282  -20.5630  -15.0270 C   0  0  0  0  0  0  0  0  0  0  0  0
   26.3345  -21.6274  -15.1179 O   0  0  0  0  0  0  0  0  0  0  0  0
   26.7879  -19.7640  -13.8911 N   0  0  0  0  0  0  0  0  0  0  0  0
   25.8241  -20.1239  -12.8435 C   0  0  1  0  0  0  0  0  0  0  0  0
   26.2582  -19.4658  -11.5925 C   0  0  0  0  0  0  0  0  0  0  0  0
   26.3951  -20.3535  -10.4220 C   0  0  0  0  0  0  0  0  0  0  0  0
   26.3010  -21.7071  -10.2612 C   0  0  0  0  0  0  0  0  0  0  0  0
   26.4885  -22.0697   -8.9686 N   0  0  0  0  0  0  0  0  0  0  0  0
   26.7057  -20.9363   -8.2940 C   0  0  0  0  0  0  0  0  0  0  0  0
   26.9547  -20.7594   -6.9320 C   0  0  0  0  0  0  0  0  0  0  0  0
   27.1566  -19.4986   -6.4261 C   0  0  0  0  0  0  0  0  0  0  0  0
   27.1093  -18.3985   -7.2879 C   0  0  0  0  0  0  0  0  0  0  0  0
   26.8640  -18.5928   -8.6155 C   0  0  0  0  0  0  0  0  0  0  0  0
   26.6589  -19.8648   -9.1363 C   0  0  0  0  0  0  0  0  0  0  0  0
   24.4305  -19.8965  -13.2355 C   0  0  0  0  0  0  0  0  0  0  0  0
   24.0748  -18.8148  -13.7316 O   0  0  0  0  0  0  0  0  0  0  0  0
   22.3703  -21.6311  -15.7048 C   0  0  0  0  0  0  0  0  0  0  0  0
   21.5731  -21.7166  -14.4249 C   0  0  1  0  0  0  0  0  0  0  0  0
   21.7044  -23.1199  -13.8814 C   0  0  0  0  0  0  0  0  0  0  0  0
   22.0389  -20.6559  -13.4436 C   0  0  2  0  0  0  0  0  0  0  0  0
   23.4240  -20.9075  -13.0649 N   0  0  0  0  0  0  0  0  0  0  0  0
   21.1546  -20.7433  -12.2679 C   0  0  0  0  0  0  0  0  0  0  0  0
   21.6214  -21.2099  -11.1722 O   0  0  0  0  0  0  0  0  0  0  0  0
   19.8362  -20.3577  -12.2333 O   0  0  0  0  0  0  0  0  0  0  0  0
  1  2  1  0
  3  2  1  0
  3  4  1  6
  5  3  1  0
  5  6  2  0
  7  5  1  0
  8  7  1  0
  8  9  1  1
 10  9  1  0
 10 11  2  0
 12 11  1  0
 13 18  2  0
 13 12  1  0
 14 13  1  0
 15 14  2  0
 16 15  1  0
 16 17  2  0
 17 18  1  0
 18 10  1  0
 19  8  1  0
 20 19  2  0
 22 21  1  6
 22 24  1  0
 23 22  1  0
 24 25  1  1
 25 19  1  0
 26 28  1  0
 26 24  1  0
 27 26  2  0
M  END
$$$$
