SWV.pdb
     RDKit          3D

 28 29  0  0  1  0  0  0  0  0999 V2000
   25.8158  -24.2815  -12.3035 O   0  0  0  0  0  0  0  0  0  0  0  0
   24.9379  -23.1994  -12.4290 C   0  0  0  0  0  0  0  0  0  0  0  0
   25.6820  -21.9134  -12.4692 C   0  0  2  0  0  0  0  0  0  0  0  0
   26.1629  -21.4990  -11.1712 N   0  0  0  0  0  0  0  0  0  0  0  0
   24.8421  -20.8340  -13.0881 C   0  0  0  0  0  0  0  0  0  0  0  0
   24.2113  -20.0112  -12.3482 O   0  0  0  0  0  0  0  0  0  0  0  0
   24.6922  -20.6555  -14.4780 N   0  0  0  0  0  0  0  0  0  0  0  0
   23.7898  -19.6591  -15.0686 C   0  0  1  0  0  0  0  0  0  0  0  0
   24.2530  -19.4000  -16.4488 C   0  0  0  0  0  0  0  0  0  0  0  0
   23.4914  -18.3791  -17.1935 C   0  0  0  0  0  0  0  0  0  0  0  0
   23.2412  -17.0544  -16.9706 C   0  0  0  0  0  0  0  0  0  0  0  0
   22.4586  -16.5247  -17.9423 N   0  0  0  0  0  0  0  0  0  0  0  0
   22.2051  -17.5203  -18.7973 C   0  0  0  0  0  0  0  0  0  0  0  0
   21.4466  -17.4995  -19.9690 C   0  0  0  0  0  0  0  0  0  0  0  0
   21.3060  -18.6411  -20.7196 C   0  0  0  0  0  0  0  0  0  0  0  0
   21.9286  -19.8199  -20.2978 C   0  0  0  0  0  0  0  0  0  0  0  0
   22.6649  -19.8193  -19.1495 C   0  0  0  0  0  0  0  0  0  0  0  0
   22.8129  -18.6690  -18.3839 C   0  0  0  0  0  0  0  0  0  0  0  0
   22.3727  -20.0028  -14.9235 C   0  0  0  0  0  0  0  0  0  0  0  0
   21.9832  -21.1750  -15.0529 O   0  0  0  0  0  0  0  0  0  0  0  0
   20.1493  -19.8244  -12.0635 C   0  0  0  0  0  0  0  0  0  0  0  0
   19.4689  -18.9854  -13.1189 C   0  0  1  0  0  0  0  0  0  0  0  0
   19.7026  -17.5304  -12.7866 C   0  0  0  0  0  0  0  0  0  0  0  0
   19.9740  -19.3657  -14.4993 C   0  0  2  0  0  0  0  0  0  0  0  0
   21.3811  -19.0064  -14.6266 N   0  0  0  0  0  0  0  0  0  0  0  0
   19.1572  -18.6207  -15.4738 C   0  0  0  0  0  0  0  0  0  0  0  0
   19.7075  -17.7011  -16.1722 O   0  0  0  0  0  0  0  0  0  0  0  0
   17.8200  -18.8264  -15.7137 O   0  0  0  0  0  0  0  0  0  0  0  0
  1  2  1  0
  3  2  1  0
  3  4  1  1
  5  3  1  0
  5  6  2  0
  7  5  1  0
  8  7  1  0
  8  9  1  6
 10  9  1  0
 10 11  2  0
 12 11  1  0
 13 18  2  0
 13 12  1  0
 14 13  1  0
 15 14  2  0
 16 15  1  0
 16 17  2  0
 17 18  1  0
 18 10  1  0
 19  8  1  0
 20 19  2  0
 22 21  1  1
 22 24  1  0
 23 22  1  0
 24 25  1  1
 25 19  1  0
 26 28  1  0
 26 24  1  0
 27 26  2  0
M  END
$$$$
