KDS.pdb
     RDKit          3D

 24 23  0  0  1  0  0  0  0  0999 V2000
   10.4402  -17.2338   18.1884 N   0  0  0  0  0  0  0  0  0  0  0  0
   11.3836  -16.2399   18.6725 C   0  0  1  0  0  0  0  0  0  0  0  0
   10.5569  -15.1966   19.4194 C   0  0  0  0  0  0  0  0  0  0  0  0
    9.6191  -14.5616   18.4308 C   0  0  0  0  0  0  0  0  0  0  0  0
    8.7093  -13.5931   19.1248 C   0  0  0  0  0  0  0  0  0  0  0  0
    7.6913  -13.0462   18.1496 C   0  0  0  0  0  0  0  0  0  0  0  0
    6.8298  -12.1290   18.8842 N   0  0  0  0  0  0  0  0  0  0  0  0
   12.2480  -16.8721   19.7577 C   0  0  0  0  0  0  0  0  0  0  0  0
   11.8894  -17.9143   20.3414 O   0  0  0  0  0  0  0  0  0  0  0  0
   13.4750  -16.2682   20.1065 N   0  0  0  0  0  0  0  0  0  0  0  0
   14.3655  -16.7605   21.1123 C   0  0  1  0  0  0  0  0  0  0  0  0
   15.7781  -16.3706   20.8704 C   0  0  0  0  0  0  0  0  0  0  0  0
   16.7435  -16.9448   21.8043 C   0  0  0  0  0  0  0  0  0  0  0  0
   16.4806  -18.0805   22.3636 O   0  0  0  0  0  0  0  0  0  0  0  0
   13.8881  -16.4380   22.4945 C   0  0  0  0  0  0  0  0  0  0  0  0
   14.1162  -15.3066   23.0338 O   0  0  0  0  0  0  0  0  0  0  0  0
   17.9465  -16.3974   22.1752 O   0  0  0  0  0  0  0  0  0  0  0  0
   10.4528  -17.5874   23.9017 O   0  0  0  0  0  0  0  0  0  0  0  0
   11.2247  -16.6257   24.5991 C   0  0  0  0  0  0  0  0  0  0  0  0
   12.6276  -17.1058   24.5830 C   0  0  2  0  0  0  0  0  0  0  0  0
   13.1693  -17.3687   23.2559 N   0  0  0  0  0  0  0  0  0  0  0  0
   12.7579  -18.3609   25.4261 C   0  0  0  0  0  0  0  0  0  0  0  0
   12.4006  -18.3454   26.7936 O   0  0  0  0  0  0  0  0  0  0  0  0
   13.1703  -19.4409   24.9811 O   0  0  0  0  0  0  0  0  0  0  0  0
  2  1  1  1
  3  2  1  0
  4  3  1  0
  5  6  1  0
  5  4  1  0
  6  7  1  0
  8  2  1  0
  8  9  2  0
 10  8  1  0
 11 12  1  6
 11 10  1  0
 13 12  1  0
 13 17  1  0
 14 13  2  0
 15 11  1  0
 16 15  2  0
 19 18  1  0
 20 19  1  6
 20 21  1  0
 21 15  1  0
 22 23  1  0
 22 20  1  0
 24 22  2  0
M  END
$$$$
