KDS.pdb
     RDKit          3D

 24 23  0  0  1  0  0  0  0  0999 V2000
    8.8893  -18.4196   19.1981 N   0  0  0  0  0  0  0  0  0  0  0  0
    9.7098  -17.2440   19.4364 C   0  0  1  0  0  0  0  0  0  0  0  0
    8.7678  -16.1687   19.9711 C   0  0  0  0  0  0  0  0  0  0  0  0
    8.8408  -14.9910   19.0396 C   0  0  0  0  0  0  0  0  0  0  0  0
    7.9433  -13.8908   19.5205 C   0  0  0  0  0  0  0  0  0  0  0  0
    7.9586  -12.7411   18.5384 C   0  0  0  0  0  0  0  0  0  0  0  0
    6.9155  -11.8070   18.9414 N   0  0  0  0  0  0  0  0  0  0  0  0
   10.6467  -17.5286   20.6050 C   0  0  0  0  0  0  0  0  0  0  0  0
   10.3059  -18.2880   21.5339 O   0  0  0  0  0  0  0  0  0  0  0  0
   11.9213  -16.9233   20.6355 N   0  0  0  0  0  0  0  0  0  0  0  0
   12.8674  -17.0755   21.6978 C   0  0  1  0  0  0  0  0  0  0  0  0
   14.2439  -16.6814   21.3028 C   0  0  0  0  0  0  0  0  0  0  0  0
   15.2649  -16.9054   22.3233 C   0  0  0  0  0  0  0  0  0  0  0  0
   15.3504  -16.0860   23.3198 O   0  0  0  0  0  0  0  0  0  0  0  0
   12.4029  -16.4246   22.9638 C   0  0  0  0  0  0  0  0  0  0  0  0
   12.8041  -15.2649   23.3058 O   0  0  0  0  0  0  0  0  0  0  0  0
   16.1839  -17.9248   22.3495 O   0  0  0  0  0  0  0  0  0  0  0  0
    8.8631  -17.1931   24.7539 O   0  0  0  0  0  0  0  0  0  0  0  0
    9.6504  -16.0818   25.1439 C   0  0  0  0  0  0  0  0  0  0  0  0
   11.0657  -16.5231   25.1083 C   0  0  2  0  0  0  0  0  0  0  0  0
   11.5058  -17.0646   23.8289 N   0  0  0  0  0  0  0  0  0  0  0  0
   11.3166  -17.5547   26.1927 C   0  0  0  0  0  0  0  0  0  0  0  0
   11.8631  -18.8172   25.8675 O   0  0  0  0  0  0  0  0  0  0  0  0
   11.0675  -17.3589   27.3902 O   0  0  0  0  0  0  0  0  0  0  0  0
  2  1  1  1
  3  2  1  0
  4  3  1  0
  5  6  1  0
  5  4  1  0
  6  7  1  0
  8  2  1  0
  8  9  2  0
 10  8  1  0
 11 12  1  6
 11 10  1  0
 13 12  1  0
 13 17  1  0
 14 13  2  0
 15 11  1  0
 16 15  2  0
 19 18  1  0
 20 19  1  6
 20 21  1  0
 21 15  1  0
 22 23  1  0
 22 20  1  0
 24 22  2  0
M  END
$$$$
