KDS.pdb
     RDKit          3D

 24 23  0  0  1  0  0  0  0  0999 V2000
    9.6307  -16.7089   16.7111 N   0  0  0  0  0  0  0  0  0  0  0  0
   10.0619  -15.5955   17.5396 C   0  0  1  0  0  0  0  0  0  0  0  0
    9.1806  -15.6256   18.7854 C   0  0  0  0  0  0  0  0  0  0  0  0
    8.0260  -14.6914   18.5527 C   0  0  0  0  0  0  0  0  0  0  0  0
    8.1720  -13.4628   19.3991 C   0  0  0  0  0  0  0  0  0  0  0  0
    6.9957  -12.5381   19.1800 C   0  0  0  0  0  0  0  0  0  0  0  0
    7.2598  -11.3108   19.9196 N   0  0  0  0  0  0  0  0  0  0  0  0
   11.4606  -15.8913   18.0694 C   0  0  0  0  0  0  0  0  0  0  0  0
   11.7740  -17.0344   18.4578 O   0  0  0  0  0  0  0  0  0  0  0  0
   12.4168  -14.8545   18.1201 N   0  0  0  0  0  0  0  0  0  0  0  0
   13.7283  -14.9858   18.6764 C   0  0  1  0  0  0  0  0  0  0  0  0
   14.7220  -14.0963   18.0225 C   0  0  0  0  0  0  0  0  0  0  0  0
   16.1080  -14.3208   18.4257 C   0  0  0  0  0  0  0  0  0  0  0  0
   17.0097  -13.4571   18.0903 O   0  0  0  0  0  0  0  0  0  0  0  0
   13.7211  -14.8727   20.1695 C   0  0  0  0  0  0  0  0  0  0  0  0
   13.2996  -13.8249   20.7589 O   0  0  0  0  0  0  0  0  0  0  0  0
   16.5866  -15.3860   19.1473 O   0  0  0  0  0  0  0  0  0  0  0  0
   11.8655  -16.7887   23.6930 O   0  0  0  0  0  0  0  0  0  0  0  0
   12.1874  -16.4623   22.3526 C   0  0  0  0  0  0  0  0  0  0  0  0
   13.6501  -16.2226   22.3072 C   0  0  2  0  0  0  0  0  0  0  0  0
   14.1793  -15.9162   20.9843 N   0  0  0  0  0  0  0  0  0  0  0  0
   14.3917  -17.4215   22.8692 C   0  0  0  0  0  0  0  0  0  0  0  0
   14.5963  -17.5485   24.2621 O   0  0  0  0  0  0  0  0  0  0  0  0
   14.8465  -18.3330   22.1644 O   0  0  0  0  0  0  0  0  0  0  0  0
  2  1  1  6
  3  2  1  0
  4  3  1  0
  5  6  1  0
  5  4  1  0
  6  7  1  0
  8  2  1  0
  8  9  2  0
 10  8  1  0
 11 12  1  6
 11 10  1  0
 13 12  1  0
 13 17  1  0
 14 13  2  0
 15 11  1  0
 16 15  2  0
 19 18  1  0
 20 19  1  6
 20 21  1  0
 21 15  1  0
 22 23  1  0
 22 20  1  0
 24 22  2  0
M  END
$$$$
