KDS.pdb
     RDKit          3D

 24 23  0  0  1  0  0  0  0  0999 V2000
    6.4194  -16.9859   19.9107 N   0  0  0  0  0  0  0  0  0  0  0  0
    7.5797  -16.1187   19.7932 C   0  0  1  0  0  0  0  0  0  0  0  0
    7.2573  -14.8646   20.6013 C   0  0  0  0  0  0  0  0  0  0  0  0
    7.7605  -13.6784   19.8268 C   0  0  0  0  0  0  0  0  0  0  0  0
    7.4553  -13.8420   18.3683 C   0  0  0  0  0  0  0  0  0  0  0  0
    8.2396  -12.8352   17.5573 C   0  0  0  0  0  0  0  0  0  0  0  0
    7.9039  -13.0454   16.1551 N   0  0  0  0  0  0  0  0  0  0  0  0
    8.7443  -16.7533   20.5450 C   0  0  0  0  0  0  0  0  0  0  0  0
    8.5677  -17.3351   21.6340 O   0  0  0  0  0  0  0  0  0  0  0  0
   10.0437  -16.6821   19.9988 N   0  0  0  0  0  0  0  0  0  0  0  0
   11.2182  -17.2054   20.6262 C   0  0  1  0  0  0  0  0  0  0  0  0
   12.3999  -17.2039   19.7264 C   0  0  0  0  0  0  0  0  0  0  0  0
   12.2100  -17.9070   18.4601 C   0  0  0  0  0  0  0  0  0  0  0  0
   11.7225  -19.1045   18.4710 O   0  0  0  0  0  0  0  0  0  0  0  0
   11.4811  -16.5647   21.9538 C   0  0  0  0  0  0  0  0  0  0  0  0
   11.9875  -15.3994   22.0454 O   0  0  0  0  0  0  0  0  0  0  0  0
   12.5018  -17.4272   17.2074 O   0  0  0  0  0  0  0  0  0  0  0  0
    9.1095  -16.6028   24.9644 O   0  0  0  0  0  0  0  0  0  0  0  0
   10.2762  -15.7994   24.9707 C   0  0  0  0  0  0  0  0  0  0  0  0
   11.3873  -16.6499   24.4798 C   0  0  2  0  0  0  0  0  0  0  0  0
   11.1817  -17.2209   23.1548 N   0  0  0  0  0  0  0  0  0  0  0  0
   11.6570  -17.7731   25.4640 C   0  0  0  0  0  0  0  0  0  0  0  0
   11.9775  -17.4843   26.8102 O   0  0  0  0  0  0  0  0  0  0  0  0
   11.6125  -18.9727   25.1579 O   0  0  0  0  0  0  0  0  0  0  0  0
  2  1  1  1
  3  2  1  0
  4  3  1  0
  5  6  1  0
  5  4  1  0
  6  7  1  0
  8  2  1  0
  8  9  2  0
 10  8  1  0
 11 12  1  6
 11 10  1  0
 13 12  1  0
 13 17  1  0
 14 13  2  0
 15 11  1  0
 16 15  2  0
 19 18  1  0
 20 19  1  1
 20 21  1  0
 21 15  1  0
 22 23  1  0
 22 20  1  0
 24 22  2  0
M  END
$$$$
