KDS.pdb
     RDKit          3D

 24 23  0  0  1  0  0  0  0  0999 V2000
    9.6732  -19.4844   19.2387 N   0  0  0  0  0  0  0  0  0  0  0  0
    9.3001  -18.2033   19.8145 C   0  0  1  0  0  0  0  0  0  0  0  0
    7.8757  -18.3701   20.3372 C   0  0  0  0  0  0  0  0  0  0  0  0
    7.0683  -19.0407   19.2609 C   0  0  0  0  0  0  0  0  0  0  0  0
    5.6170  -19.0616   19.6360 C   0  0  0  0  0  0  0  0  0  0  0  0
    4.7981  -19.6538   18.5113 C   0  0  0  0  0  0  0  0  0  0  0  0
    3.4099  -19.6902   18.9524 N   0  0  0  0  0  0  0  0  0  0  0  0
   10.1300  -17.9706   21.0721 C   0  0  0  0  0  0  0  0  0  0  0  0
   10.2167  -18.8446   21.9577 O   0  0  0  0  0  0  0  0  0  0  0  0
   10.8125  -16.7461   21.2361 N   0  0  0  0  0  0  0  0  0  0  0  0
   11.5342  -16.3699   22.4127 C   0  0  1  0  0  0  0  0  0  0  0  0
   12.5540  -15.3222   22.1513 C   0  0  0  0  0  0  0  0  0  0  0  0
   13.6040  -15.7064   21.2111 C   0  0  0  0  0  0  0  0  0  0  0  0
   14.1594  -16.8682   21.3269 O   0  0  0  0  0  0  0  0  0  0  0  0
   10.6210  -16.0393   23.5524 C   0  0  0  0  0  0  0  0  0  0  0  0
    9.8807  -15.0027   23.5373 O   0  0  0  0  0  0  0  0  0  0  0  0
   14.0923  -14.9473   20.1768 O   0  0  0  0  0  0  0  0  0  0  0  0
    7.8400  -17.7749   25.0264 O   0  0  0  0  0  0  0  0  0  0  0  0
    8.2340  -16.5056   25.5168 C   0  0  0  0  0  0  0  0  0  0  0  0
    9.6800  -16.5961   25.8331 C   0  0  2  0  0  0  0  0  0  0  0  0
   10.5419  -16.8570   24.6872 N   0  0  0  0  0  0  0  0  0  0  0  0
    9.9172  -17.6667   26.8822 C   0  0  0  0  0  0  0  0  0  0  0  0
   10.8337  -18.7155   26.6407 O   0  0  0  0  0  0  0  0  0  0  0  0
    9.3420  -17.6851   27.9792 O   0  0  0  0  0  0  0  0  0  0  0  0
  2  1  1  1
  3  2  1  0
  4  3  1  0
  5  6  1  0
  5  4  1  0
  6  7  1  0
  8  2  1  0
  8  9  2  0
 10  8  1  0
 11 12  1  6
 11 10  1  0
 13 12  1  0
 13 17  1  0
 14 13  2  0
 15 11  1  0
 16 15  2  0
 19 18  1  0
 20 19  1  6
 20 21  1  0
 21 15  1  0
 22 23  1  0
 22 20  1  0
 24 22  2  0
M  END
$$$$
