KDS.pdb
     RDKit          3D

 24 23  0  0  1  0  0  0  0  0999 V2000
   11.2261  -18.8717   15.2572 N   0  0  0  0  0  0  0  0  0  0  0  0
   10.2910  -19.0740   16.3512 C   0  0  1  0  0  0  0  0  0  0  0  0
    9.2119  -20.0140   15.8204 C   0  0  0  0  0  0  0  0  0  0  0  0
    9.1135  -19.8063   14.3348 C   0  0  0  0  0  0  0  0  0  0  0  0
    8.1228  -20.7615   13.7404 C   0  0  0  0  0  0  0  0  0  0  0  0
    6.7183  -20.2294   13.9156 C   0  0  0  0  0  0  0  0  0  0  0  0
    5.8004  -21.2399   13.4063 N   0  0  0  0  0  0  0  0  0  0  0  0
   10.9815  -19.8836   17.4431 C   0  0  0  0  0  0  0  0  0  0  0  0
   10.3244  -20.4424   18.3439 O   0  0  0  0  0  0  0  0  0  0  0  0
   12.3878  -20.0033   17.4335 N   0  0  0  0  0  0  0  0  0  0  0  0
   13.1400  -20.8139   18.3412 C   0  0  1  0  0  0  0  0  0  0  0  0
   14.3785  -21.3622   17.7316 C   0  0  0  0  0  0  0  0  0  0  0  0
   14.4415  -21.2674   16.2753 C   0  0  0  0  0  0  0  0  0  0  0  0
   15.2539  -20.4200   15.7334 O   0  0  0  0  0  0  0  0  0  0  0  0
   13.3761  -20.1246   19.6494 C   0  0  0  0  0  0  0  0  0  0  0  0
   13.8250  -18.9338   19.7065 O   0  0  0  0  0  0  0  0  0  0  0  0
   13.7082  -22.0013   15.3763 O   0  0  0  0  0  0  0  0  0  0  0  0
   11.9373  -21.7661   23.1418 O   0  0  0  0  0  0  0  0  0  0  0  0
   12.2052  -20.3750   23.1418 C   0  0  0  0  0  0  0  0  0  0  0  0
   13.3089  -20.1491   22.1776 C   0  0  2  0  0  0  0  0  0  0  0  0
   13.1137  -20.7612   20.8695 N   0  0  0  0  0  0  0  0  0  0  0  0
   14.6197  -20.6425   22.7620 C   0  0  0  0  0  0  0  0  0  0  0  0
   15.1344  -20.0726   23.9488 O   0  0  0  0  0  0  0  0  0  0  0  0
   15.2957  -21.5467   22.2519 O   0  0  0  0  0  0  0  0  0  0  0  0
  2  1  1  6
  3  2  1  0
  4  3  1  0
  5  6  1  0
  5  4  1  0
  6  7  1  0
  8  2  1  0
  8  9  2  0
 10  8  1  0
 11 12  1  6
 11 10  1  0
 13 12  1  0
 13 17  1  0
 14 13  2  0
 15 11  1  0
 16 15  2  0
 19 18  1  0
 20 19  1  1
 20 21  1  0
 21 15  1  0
 22 23  1  0
 22 20  1  0
 24 22  2  0
M  END
$$$$
