KDS.pdb
     RDKit          3D

 24 23  0  0  1  0  0  0  0  0999 V2000
    7.7240  -17.3771   19.8337 N   0  0  0  0  0  0  0  0  0  0  0  0
    8.7962  -16.4313   20.0945 C   0  0  1  0  0  0  0  0  0  0  0  0
    8.1804  -15.3079   20.9243 C   0  0  0  0  0  0  0  0  0  0  0  0
    7.2667  -14.5222   20.0255 C   0  0  0  0  0  0  0  0  0  0  0  0
    8.0544  -13.8524   18.9401 C   0  0  0  0  0  0  0  0  0  0  0  0
    7.1445  -12.9907   18.0939 C   0  0  0  0  0  0  0  0  0  0  0  0
    7.9460  -12.4428   17.0074 N   0  0  0  0  0  0  0  0  0  0  0  0
    9.8025  -17.0791   21.0390 C   0  0  0  0  0  0  0  0  0  0  0  0
    9.4676  -18.0119   21.7961 O   0  0  0  0  0  0  0  0  0  0  0  0
   11.1357  -16.6160   21.0557 N   0  0  0  0  0  0  0  0  0  0  0  0
   12.1500  -17.0933   21.9446 C   0  0  1  0  0  0  0  0  0  0  0  0
   13.5180  -16.7006   21.5198 C   0  0  0  0  0  0  0  0  0  0  0  0
   14.5900  -17.1506   22.4044 C   0  0  0  0  0  0  0  0  0  0  0  0
   14.4448  -18.2561   23.0588 O   0  0  0  0  0  0  0  0  0  0  0  0
   11.8516  -16.7570   23.3729 C   0  0  0  0  0  0  0  0  0  0  0  0
   12.0404  -15.5860   23.8378 O   0  0  0  0  0  0  0  0  0  0  0  0
   15.7825  -16.5106   22.6339 O   0  0  0  0  0  0  0  0  0  0  0  0
    8.9137  -18.3277   25.4838 O   0  0  0  0  0  0  0  0  0  0  0  0
    9.6446  -17.2239   25.9878 C   0  0  0  0  0  0  0  0  0  0  0  0
   11.0718  -17.4713   25.6704 C   0  0  2  0  0  0  0  0  0  0  0  0
   11.3516  -17.7177   24.2615 N   0  0  0  0  0  0  0  0  0  0  0  0
   11.5919  -18.6394   26.4878 C   0  0  0  0  0  0  0  0  0  0  0  0
   11.5527  -18.5989   27.9003 O   0  0  0  0  0  0  0  0  0  0  0  0
   12.0654  -19.6669   25.9833 O   0  0  0  0  0  0  0  0  0  0  0  0
  2  1  1  1
  3  2  1  0
  4  3  1  0
  5  6  1  0
  5  4  1  0
  6  7  1  0
  8  2  1  0
  8  9  2  0
 10  8  1  0
 11 12  1  6
 11 10  1  0
 13 12  1  0
 13 17  1  0
 14 13  2  0
 15 11  1  0
 16 15  2  0
 19 18  1  0
 20 19  1  6
 20 21  1  0
 21 15  1  0
 22 23  1  0
 22 20  1  0
 24 22  2  0
M  END
$$$$
