KDS.pdb
     RDKit          3D

 24 23  0  0  1  0  0  0  0  0999 V2000
    9.2734  -17.8321   18.0628 N   0  0  0  0  0  0  0  0  0  0  0  0
   10.1568  -16.8030   18.5851 C   0  0  1  0  0  0  0  0  0  0  0  0
    9.2534  -15.6707   19.0663 C   0  0  0  0  0  0  0  0  0  0  0  0
    8.6447  -15.0233   17.8537 C   0  0  0  0  0  0  0  0  0  0  0  0
    7.8439  -13.8206   18.2529 C   0  0  0  0  0  0  0  0  0  0  0  0
    7.2528  -13.1600   17.0278 C   0  0  0  0  0  0  0  0  0  0  0  0
    6.4965  -11.9989   17.4783 N   0  0  0  0  0  0  0  0  0  0  0  0
   10.8118  -17.3204   19.8609 C   0  0  0  0  0  0  0  0  0  0  0  0
   10.1907  -18.0603   20.6497 O   0  0  0  0  0  0  0  0  0  0  0  0
   12.1438  -16.9567   20.1534 N   0  0  0  0  0  0  0  0  0  0  0  0
   12.8562  -17.3581   21.3274 C   0  0  1  0  0  0  0  0  0  0  0  0
   14.3292  -17.3478   21.1378 C   0  0  0  0  0  0  0  0  0  0  0  0
   15.1012  -17.8064   22.2901 C   0  0  0  0  0  0  0  0  0  0  0  0
   16.2872  -17.3298   22.4842 O   0  0  0  0  0  0  0  0  0  0  0  0
   12.4080  -16.6071   22.5429 C   0  0  0  0  0  0  0  0  0  0  0  0
   12.7020  -15.3799   22.7171 O   0  0  0  0  0  0  0  0  0  0  0  0
   14.6999  -18.7233   23.2297 O   0  0  0  0  0  0  0  0  0  0  0  0
    8.9519  -17.0670   24.2037 O   0  0  0  0  0  0  0  0  0  0  0  0
    9.7842  -16.0046   24.6341 C   0  0  0  0  0  0  0  0  0  0  0  0
   11.1587  -16.5507   24.7413 C   0  0  2  0  0  0  0  0  0  0  0  0
   11.6451  -17.2234   23.5434 N   0  0  0  0  0  0  0  0  0  0  0  0
   11.2481  -17.5086   25.9151 C   0  0  0  0  0  0  0  0  0  0  0  0
   10.9188  -17.0753   27.2197 O   0  0  0  0  0  0  0  0  0  0  0  0
   11.6020  -18.6905   25.8046 O   0  0  0  0  0  0  0  0  0  0  0  0
  2  1  1  1
  3  2  1  0
  4  3  1  0
  5  6  1  0
  5  4  1  0
  6  7  1  0
  8  2  1  0
  8  9  2  0
 10  8  1  0
 11 12  1  6
 11 10  1  0
 13 12  1  0
 13 17  1  0
 14 13  2  0
 15 11  1  0
 16 15  2  0
 19 18  1  0
 20 19  1  6
 20 21  1  0
 21 15  1  0
 22 23  1  0
 22 20  1  0
 24 22  2  0
M  END
$$$$
