KDS.pdb
     RDKit          3D

 24 23  0  0  1  0  0  0  0  0999 V2000
    7.5502  -17.4300   16.0174 N   0  0  0  0  0  0  0  0  0  0  0  0
    8.8080  -16.7187   16.1724 C   0  0  1  0  0  0  0  0  0  0  0  0
    8.4492  -15.3257   16.6830 C   0  0  0  0  0  0  0  0  0  0  0  0
    7.6861  -14.6217   15.5958 C   0  0  0  0  0  0  0  0  0  0  0  0
    8.6141  -14.2052   14.4946 C   0  0  0  0  0  0  0  0  0  0  0  0
    7.8697  -13.3740   13.4742 C   0  0  0  0  0  0  0  0  0  0  0  0
    8.7720  -13.1451   12.3533 N   0  0  0  0  0  0  0  0  0  0  0  0
    9.5868  -17.3448   17.3239 C   0  0  0  0  0  0  0  0  0  0  0  0
    8.9979  -17.8527   18.2991 O   0  0  0  0  0  0  0  0  0  0  0  0
   10.9976  -17.3507   17.2850 N   0  0  0  0  0  0  0  0  0  0  0  0
   11.8356  -17.9177   18.2965 C   0  0  1  0  0  0  0  0  0  0  0  0
   13.0922  -18.4891   17.7485 C   0  0  0  0  0  0  0  0  0  0  0  0
   13.8820  -19.2653   18.7012 C   0  0  0  0  0  0  0  0  0  0  0  0
   13.5912  -20.5102   18.8944 O   0  0  0  0  0  0  0  0  0  0  0  0
   12.0597  -16.9737   19.4371 C   0  0  0  0  0  0  0  0  0  0  0  0
   12.4847  -15.7875   19.2500 O   0  0  0  0  0  0  0  0  0  0  0  0
   14.9398  -18.8097   19.4482 O   0  0  0  0  0  0  0  0  0  0  0  0
    9.6428  -16.1461   21.9219 O   0  0  0  0  0  0  0  0  0  0  0  0
   10.7466  -16.3845   22.7771 C   0  0  0  0  0  0  0  0  0  0  0  0
   11.9491  -16.4732   21.9138 C   0  0  2  0  0  0  0  0  0  0  0  0
   11.8119  -17.3556   20.7621 N   0  0  0  0  0  0  0  0  0  0  0  0
   13.1470  -16.9157   22.7338 C   0  0  0  0  0  0  0  0  0  0  0  0
   13.5763  -16.1529   23.8438 O   0  0  0  0  0  0  0  0  0  0  0  0
   13.7993  -17.9400   22.4892 O   0  0  0  0  0  0  0  0  0  0  0  0
  2  1  1  1
  3  2  1  0
  4  3  1  0
  5  6  1  0
  5  4  1  0
  6  7  1  0
  8  2  1  0
  8  9  2  0
 10  8  1  0
 11 12  1  6
 11 10  1  0
 13 12  1  0
 13 17  1  0
 14 13  2  0
 15 11  1  0
 16 15  2  0
 19 18  1  0
 20 19  1  1
 20 21  1  0
 21 15  1  0
 22 23  1  0
 22 20  1  0
 24 22  2  0
M  END
$$$$
