KDS.pdb
     RDKit          3D

 24 23  0  0  1  0  0  0  0  0999 V2000
    9.9597  -18.2524   16.6590 N   0  0  0  0  0  0  0  0  0  0  0  0
    9.0915  -17.3420   17.3866 C   0  0  1  0  0  0  0  0  0  0  0  0
    7.6647  -17.8230   17.1363 C   0  0  0  0  0  0  0  0  0  0  0  0
    7.7416  -19.2231   16.5943 C   0  0  0  0  0  0  0  0  0  0  0  0
    6.3641  -19.7739   16.3788 C   0  0  0  0  0  0  0  0  0  0  0  0
    6.4464  -21.2009   15.8853 C   0  0  0  0  0  0  0  0  0  0  0  0
    5.0826  -21.6845   15.7143 N   0  0  0  0  0  0  0  0  0  0  0  0
    9.2971  -17.5581   18.8818 C   0  0  0  0  0  0  0  0  0  0  0  0
    8.5940  -16.9616   19.7217 O   0  0  0  0  0  0  0  0  0  0  0  0
   10.2992  -18.4490   19.3225 N   0  0  0  0  0  0  0  0  0  0  0  0
   10.6432  -18.6705   20.6934 C   0  0  1  0  0  0  0  0  0  0  0  0
   11.6881  -19.7123   20.8630 C   0  0  0  0  0  0  0  0  0  0  0  0
   11.2613  -21.0707   20.5364 C   0  0  0  0  0  0  0  0  0  0  0  0
   11.9035  -21.7323   19.6300 O   0  0  0  0  0  0  0  0  0  0  0  0
   10.9557  -17.3931   21.4095 C   0  0  0  0  0  0  0  0  0  0  0  0
   11.7597  -16.5330   20.9230 O   0  0  0  0  0  0  0  0  0  0  0  0
   10.2140  -21.7559   21.1005 O   0  0  0  0  0  0  0  0  0  0  0  0
    8.3914  -15.4031   23.7404 O   0  0  0  0  0  0  0  0  0  0  0  0
    9.6072  -14.8253   23.2992 C   0  0  0  0  0  0  0  0  0  0  0  0
   10.6482  -15.8756   23.4094 C   0  0  2  0  0  0  0  0  0  0  0  0
   10.3768  -17.0885   22.6484 N   0  0  0  0  0  0  0  0  0  0  0  0
   10.8625  -16.2451   24.8657 C   0  0  0  0  0  0  0  0  0  0  0  0
   10.6283  -17.5660   25.3114 O   0  0  0  0  0  0  0  0  0  0  0  0
   11.2450  -15.4382   25.7242 O   0  0  0  0  0  0  0  0  0  0  0  0
  2  1  1  6
  3  2  1  0
  4  3  1  0
  5  6  1  0
  5  4  1  0
  6  7  1  0
  8  2  1  0
  8  9  2  0
 10  8  1  0
 11 12  1  6
 11 10  1  0
 13 12  1  0
 13 17  1  0
 14 13  2  0
 15 11  1  0
 16 15  2  0
 19 18  1  0
 20 19  1  1
 20 21  1  0
 21 15  1  0
 22 23  1  0
 22 20  1  0
 24 22  2  0
M  END
$$$$
