KDS.pdb
     RDKit          3D

 24 23  0  0  1  0  0  0  0  0999 V2000
    7.3094  -16.9762   19.1326 N   0  0  0  0  0  0  0  0  0  0  0  0
    8.7449  -16.7688   19.0398 C   0  0  1  0  0  0  0  0  0  0  0  0
    8.9515  -15.2597   18.9418 C   0  0  0  0  0  0  0  0  0  0  0  0
    8.1069  -14.6116   20.0033 C   0  0  0  0  0  0  0  0  0  0  0  0
    8.3127  -13.1267   19.9972 C   0  0  0  0  0  0  0  0  0  0  0  0
    7.4546  -12.4789   21.0604 C   0  0  0  0  0  0  0  0  0  0  0  0
    7.6085  -11.0360   20.9284 N   0  0  0  0  0  0  0  0  0  0  0  0
    9.3816  -17.1429   20.3736 C   0  0  0  0  0  0  0  0  0  0  0  0
    8.6808  -17.4505   21.3584 O   0  0  0  0  0  0  0  0  0  0  0  0
   10.7877  -17.1420   20.4954 N   0  0  0  0  0  0  0  0  0  0  0  0
   11.4998  -17.4853   21.6879 C   0  0  1  0  0  0  0  0  0  0  0  0
   12.9393  -17.7546   21.4406 C   0  0  0  0  0  0  0  0  0  0  0  0
   13.2101  -18.8568   20.5210 C   0  0  0  0  0  0  0  0  0  0  0  0
   12.5458  -19.9591   20.6453 O   0  0  0  0  0  0  0  0  0  0  0  0
   11.2600  -16.5011   22.7906 C   0  0  0  0  0  0  0  0  0  0  0  0
   10.9599  -15.2867   22.5497 O   0  0  0  0  0  0  0  0  0  0  0  0
   14.1260  -18.8614   19.4984 O   0  0  0  0  0  0  0  0  0  0  0  0
    8.4057  -15.8521   26.0622 O   0  0  0  0  0  0  0  0  0  0  0  0
    9.0566  -16.4151   24.9370 C   0  0  0  0  0  0  0  0  0  0  0  0
   10.5139  -16.3439   25.2021 C   0  0  2  0  0  0  0  0  0  0  0  0
   11.3563  -16.8740   24.1376 N   0  0  0  0  0  0  0  0  0  0  0  0
   10.8432  -17.0646   26.4964 C   0  0  0  0  0  0  0  0  0  0  0  0
   11.6891  -18.1971   26.4903 O   0  0  0  0  0  0  0  0  0  0  0  0
   10.4062  -16.7146   27.6015 O   0  0  0  0  0  0  0  0  0  0  0  0
  2  1  1  1
  3  2  1  0
  4  3  1  0
  5  6  1  0
  5  4  1  0
  6  7  1  0
  8  2  1  0
  8  9  2  0
 10  8  1  0
 11 12  1  6
 11 10  1  0
 13 12  1  0
 13 17  1  0
 14 13  2  0
 15 11  1  0
 16 15  2  0
 19 18  1  0
 20 19  1  6
 20 21  1  0
 21 15  1  0
 22 23  1  0
 22 20  1  0
 24 22  2  0
M  END
$$$$
