MTK.pdb
     RDKit          3D

 25 24  0  0  1  0  0  0  0  0999 V2000
   21.0981  -18.9476  -16.1040 C   0  0  0  0  0  0  0  0  0  0  0  0
   22.2315  -20.3622  -16.1000 S   0  0  0  0  0  0  0  0  0  0  0  0
   23.7544  -19.9313  -15.1986 C   0  0  0  0  0  0  0  0  0  0  0  0
   24.1346  -18.5111  -15.5610 C   0  0  0  0  0  0  0  0  0  0  0  0
   25.2659  -18.4762  -16.5675 C   0  0  2  0  0  0  0  0  0  0  0  0
   26.4091  -19.1169  -15.9757 N   0  0  0  0  0  0  0  0  0  0  0  0
   25.5023  -17.0729  -16.9248 C   0  0  0  0  0  0  0  0  0  0  0  0
   26.1082  -16.3424  -16.1024 O   0  0  0  0  0  0  0  0  0  0  0  0
   27.7820  -15.2556  -19.1215 C   0  0  0  0  0  0  0  0  0  0  0  0
   26.3848  -14.8321  -19.5020 C   0  0  1  0  0  0  0  0  0  0  0  0
   26.0026  -15.3246  -20.7464 O   0  0  0  0  0  0  0  0  0  0  0  0
   25.3758  -15.0839  -18.4318 C   0  0  2  0  0  0  0  0  0  0  0  0
   25.1137  -16.4453  -18.1170 N   0  0  0  0  0  0  0  0  0  0  0  0
   24.1074  -14.4238  -18.8550 C   0  0  0  0  0  0  0  0  0  0  0  0
   23.1293  -15.1089  -19.3080 O   0  0  0  0  0  0  0  0  0  0  0  0
   23.8979  -13.0279  -18.7883 N   0  0  0  0  0  0  0  0  0  0  0  0
   22.6519  -12.3963  -19.2794 C   0  0  1  0  0  0  0  0  0  0  0  0
   21.9171  -11.7499  -18.1638 C   0  0  0  0  0  0  0  0  0  0  0  0
   20.6889  -11.0474  -18.6514 C   0  0  0  0  0  0  0  0  0  0  0  0
   19.9647  -10.3055  -17.5366 C   0  0  0  0  0  0  0  0  0  0  0  0
   18.6763   -9.6946  -18.1059 C   0  0  0  0  0  0  0  0  0  0  0  0
   17.8970   -9.0566  -17.0614 N   0  0  0  0  0  0  0  0  0  0  0  0
   23.0799  -11.4151  -20.2770 C   0  0  0  0  0  0  0  0  0  0  0  0
   24.4030  -11.0525  -20.4010 O   0  0  0  0  0  0  0  0  0  0  0  0
   22.2586  -10.8781  -21.0441 O   0  0  0  0  0  0  0  0  0  0  0  0
  1  2  1  0
  3  2  1  0
  4  3  1  0
  5  4  1  0
  5  6  1  1
  7 13  1  0
  7  5  1  0
  8  7  2  0
 10 12  1  0
 10  9  1  1
 11 10  1  0
 12 13  1  6
 14 12  1  0
 14 15  2  0
 16 14  1  0
 17 16  1  0
 17 23  1  0
 17 18  1  1
 19 18  1  0
 20 19  1  0
 21 20  1  0
 21 22  1  0
 23 25  2  0
 23 24  1  0
M  END
$$$$
