MTK.pdb
     RDKit          3D

 25 24  0  0  1  0  0  0  0  0999 V2000
   28.0745   -6.0199  -20.0471 C   0  0  0  0  0  0  0  0  0  0  0  0
   28.3046   -7.6577  -20.7892 S   0  0  0  0  0  0  0  0  0  0  0  0
   27.9792   -8.9499  -19.5476 C   0  0  0  0  0  0  0  0  0  0  0  0
   27.9568   -8.2995  -18.1804 C   0  0  0  0  0  0  0  0  0  0  0  0
   27.7283   -9.3175  -17.0823 C   0  0  2  0  0  0  0  0  0  0  0  0
   28.5001  -10.4901  -17.3937 N   0  0  0  0  0  0  0  0  0  0  0  0
   26.2855   -9.5718  -17.0027 C   0  0  0  0  0  0  0  0  0  0  0  0
   25.8255  -10.5840  -17.5866 O   0  0  0  0  0  0  0  0  0  0  0  0
   24.1482  -10.9116  -14.4351 C   0  0  0  0  0  0  0  0  0  0  0  0
   23.5368   -9.5914  -14.8347 C   0  0  1  0  0  0  0  0  0  0  0  0
   23.6733   -8.6232  -13.8441 O   0  0  0  0  0  0  0  0  0  0  0  0
   23.9683   -9.1212  -16.1837 C   0  0  2  0  0  0  0  0  0  0  0  0
   25.3421   -8.7846  -16.3268 N   0  0  0  0  0  0  0  0  0  0  0  0
   23.1327   -7.9349  -16.5272 C   0  0  0  0  0  0  0  0  0  0  0  0
   23.6529   -6.7733  -16.6340 O   0  0  0  0  0  0  0  0  0  0  0  0
   21.7397   -8.0049  -16.7544 N   0  0  0  0  0  0  0  0  0  0  0  0
   20.9335   -6.8029  -17.0667 C   0  0  1  0  0  0  0  0  0  0  0  0
   19.6846   -7.1789  -17.7746 C   0  0  0  0  0  0  0  0  0  0  0  0
   18.7900   -5.9956  -17.9731 C   0  0  0  0  0  0  0  0  0  0  0  0
   17.4778   -6.3683  -18.6491 C   0  0  0  0  0  0  0  0  0  0  0  0
   16.6065   -5.1092  -18.7635 C   0  0  0  0  0  0  0  0  0  0  0  0
   15.3694   -5.3945  -19.4661 N   0  0  0  0  0  0  0  0  0  0  0  0
   20.6480   -6.1789  -15.7743 C   0  0  0  0  0  0  0  0  0  0  0  0
   20.4812   -4.8164  -15.6598 O   0  0  0  0  0  0  0  0  0  0  0  0
   20.5478   -6.8630  -14.7383 O   0  0  0  0  0  0  0  0  0  0  0  0
  1  2  1  0
  3  2  1  0
  4  3  1  0
  5  4  1  0
  5  6  1  6
  7 13  1  0
  7  5  1  0
  8  7  2  0
 10 12  1  0
 10  9  1  1
 11 10  1  0
 12 13  1  1
 14 12  1  0
 14 15  2  0
 16 14  1  0
 17 16  1  0
 17 23  1  0
 17 18  1  1
 19 18  1  0
 20 19  1  0
 21 20  1  0
 21 22  1  0
 23 25  2  0
 23 24  1  0
M  END
$$$$
