MTK.pdb
     RDKit          3D

 25 24  0  0  1  0  0  0  0  0999 V2000
   19.0087  -18.1351  -11.6341 C   0  0  0  0  0  0  0  0  0  0  0  0
   19.7675  -16.7311  -12.4936 S   0  0  0  0  0  0  0  0  0  0  0  0
   19.2435  -16.7180  -14.2379 C   0  0  0  0  0  0  0  0  0  0  0  0
   19.8252  -15.4862  -14.8989 C   0  0  0  0  0  0  0  0  0  0  0  0
   19.4583  -15.4151  -16.3668 C   0  0  2  0  0  0  0  0  0  0  0  0
   20.0429  -16.5504  -17.0279 N   0  0  0  0  0  0  0  0  0  0  0  0
   19.9357  -14.1279  -16.8843 C   0  0  0  0  0  0  0  0  0  0  0  0
   21.0168  -14.1061  -17.5229 O   0  0  0  0  0  0  0  0  0  0  0  0
   18.6997  -12.1085  -19.7010 C   0  0  0  0  0  0  0  0  0  0  0  0
   18.7377  -11.2204  -18.4818 C   0  0  1  0  0  0  0  0  0  0  0  0
   17.4652  -10.9292  -17.9990 O   0  0  0  0  0  0  0  0  0  0  0  0
   19.6745  -11.7025  -17.4249 C   0  0  2  0  0  0  0  0  0  0  0  0
   19.2967  -12.8883  -16.7377 N   0  0  0  0  0  0  0  0  0  0  0  0
   19.8392  -10.5946  -16.4406 C   0  0  0  0  0  0  0  0  0  0  0  0
   19.3468  -10.6810  -15.2652 O   0  0  0  0  0  0  0  0  0  0  0  0
   20.5339   -9.3977  -16.7265 N   0  0  0  0  0  0  0  0  0  0  0  0
   20.7489   -8.3504  -15.7021 C   0  0  1  0  0  0  0  0  0  0  0  0
   21.4820   -7.1961  -16.2786 C   0  0  0  0  0  0  0  0  0  0  0  0
   21.5379   -6.0485  -15.3196 C   0  0  0  0  0  0  0  0  0  0  0  0
   22.0953   -4.7848  -15.9600 C   0  0  0  0  0  0  0  0  0  0  0  0
   22.0978   -3.6610  -14.9139 C   0  0  0  0  0  0  0  0  0  0  0  0
   22.3972   -2.3803  -15.5267 N   0  0  0  0  0  0  0  0  0  0  0  0
   19.4107   -7.9637  -15.2538 C   0  0  0  0  0  0  0  0  0  0  0  0
   18.3561   -7.8862  -16.1365 O   0  0  0  0  0  0  0  0  0  0  0  0
   19.1862   -7.6926  -14.0591 O   0  0  0  0  0  0  0  0  0  0  0  0
  1  2  1  0
  3  2  1  0
  4  3  1  0
  5  4  1  0
  5  6  1  6
  7 13  1  0
  7  5  1  0
  8  7  2  0
 10 12  1  0
 10  9  1  6
 11 10  1  0
 12 13  1  1
 14 12  1  0
 14 15  2  0
 16 14  1  0
 17 16  1  0
 17 23  1  0
 17 18  1  6
 19 18  1  0
 20 19  1  0
 21 20  1  0
 21 22  1  0
 23 25  2  0
 23 24  1  0
M  END
$$$$
