MTK.pdb
     RDKit          3D

 25 24  0  0  1  0  0  0  0  0999 V2000
   27.2527  -26.0448  -15.6472 C   0  0  0  0  0  0  0  0  0  0  0  0
   27.5570  -25.7880  -17.4156 S   0  0  0  0  0  0  0  0  0  0  0  0
   27.1607  -24.0687  -17.8674 C   0  0  0  0  0  0  0  0  0  0  0  0
   26.5228  -23.3981  -16.6691 C   0  0  0  0  0  0  0  0  0  0  0  0
   26.0593  -21.9938  -16.9970 C   0  0  2  0  0  0  0  0  0  0  0  0
   27.2157  -21.2117  -17.3417 N   0  0  0  0  0  0  0  0  0  0  0  0
   25.3327  -21.4799  -15.8305 C   0  0  0  0  0  0  0  0  0  0  0  0
   25.8716  -20.5779  -15.1425 O   0  0  0  0  0  0  0  0  0  0  0  0
   24.1273  -18.8691  -14.8256 C   0  0  0  0  0  0  0  0  0  0  0  0
   22.9289  -19.7849  -14.7869 C   0  0  1  0  0  0  0  0  0  0  0  0
   22.1367  -19.6688  -15.9255 O   0  0  0  0  0  0  0  0  0  0  0  0
   23.2713  -21.1971  -14.4471 C   0  0  2  0  0  0  0  0  0  0  0  0
   24.0688  -21.8995  -15.3915 N   0  0  0  0  0  0  0  0  0  0  0  0
   21.9872  -21.9281  -14.2471 C   0  0  0  0  0  0  0  0  0  0  0  0
   21.4933  -22.6549  -15.1740 O   0  0  0  0  0  0  0  0  0  0  0  0
   21.2401  -21.8732  -13.0488 N   0  0  0  0  0  0  0  0  0  0  0  0
   20.1056  -22.7884  -12.7879 C   0  0  1  0  0  0  0  0  0  0  0  0
   19.8145  -22.8610  -11.3345 C   0  0  0  0  0  0  0  0  0  0  0  0
   18.5979  -23.6883  -11.0604 C   0  0  0  0  0  0  0  0  0  0  0  0
   18.6352  -24.3348   -9.6825 C   0  0  0  0  0  0  0  0  0  0  0  0
   17.4174  -25.2585   -9.5375 C   0  0  0  0  0  0  0  0  0  0  0  0
   17.4667  -25.9921   -8.2865 N   0  0  0  0  0  0  0  0  0  0  0  0
   18.9760  -22.2301  -13.5319 C   0  0  0  0  0  0  0  0  0  0  0  0
   17.9584  -23.0343  -13.9958 O   0  0  0  0  0  0  0  0  0  0  0  0
   18.9019  -21.0094  -13.7681 O   0  0  0  0  0  0  0  0  0  0  0  0
  1  2  1  0
  3  2  1  0
  4  3  1  0
  5  4  1  0
  5  6  1  1
  7 13  1  0
  7  5  1  0
  8  7  2  0
 10 12  1  0
 10  9  1  6
 11 10  1  0
 12 13  1  6
 14 12  1  0
 14 15  2  0
 16 14  1  0
 17 16  1  0
 17 23  1  0
 17 18  1  1
 19 18  1  0
 20 19  1  0
 21 20  1  0
 21 22  1  0
 23 25  2  0
 23 24  1  0
M  END
$$$$
