MTK.pdb
     RDKit          3D

 25 24  0  0  1  0  0  0  0  0999 V2000
   24.5227  -20.3130  -19.5895 C   0  0  0  0  0  0  0  0  0  0  0  0
   26.3093  -20.1384  -19.8416 S   0  0  0  0  0  0  0  0  0  0  0  0
   27.1958  -20.5935  -18.3170 C   0  0  0  0  0  0  0  0  0  0  0  0
   26.1718  -20.9699  -17.2670 C   0  0  0  0  0  0  0  0  0  0  0  0
   26.8134  -21.1736  -15.9101 C   0  0  2  0  0  0  0  0  0  0  0  0
   28.0060  -21.9557  -16.0937 N   0  0  0  0  0  0  0  0  0  0  0  0
   25.8221  -21.8153  -15.0395 C   0  0  0  0  0  0  0  0  0  0  0  0
   25.9612  -23.0353  -14.7758 O   0  0  0  0  0  0  0  0  0  0  0  0
   25.4171  -21.6458  -11.4765 C   0  0  0  0  0  0  0  0  0  0  0  0
   24.0722  -21.2954  -12.0638 C   0  0  1  0  0  0  0  0  0  0  0  0
   23.7631  -19.9468  -11.9116 O   0  0  0  0  0  0  0  0  0  0  0  0
   23.8866  -21.7901  -13.4595 C   0  0  2  0  0  0  0  0  0  0  0  0
   24.7078  -21.1953  -14.4560 N   0  0  0  0  0  0  0  0  0  0  0  0
   22.4533  -21.5834  -13.8154 C   0  0  0  0  0  0  0  0  0  0  0  0
   22.0980  -20.6258  -14.5821 O   0  0  0  0  0  0  0  0  0  0  0  0
   21.4085  -22.4097  -13.3438 N   0  0  0  0  0  0  0  0  0  0  0  0
   19.9920  -22.1644  -13.6986 C   0  0  1  0  0  0  0  0  0  0  0  0
   19.1401  -23.3017  -13.2710 C   0  0  0  0  0  0  0  0  0  0  0  0
   17.6968  -23.0500  -13.5764 C   0  0  0  0  0  0  0  0  0  0  0  0
   16.7983  -24.1853  -13.1057 C   0  0  0  0  0  0  0  0  0  0  0  0
   15.3592  -23.8946  -13.5548 C   0  0  0  0  0  0  0  0  0  0  0  0
   14.4966  -25.0350  -13.3079 N   0  0  0  0  0  0  0  0  0  0  0  0
   19.6245  -20.9304  -13.0033 C   0  0  0  0  0  0  0  0  0  0  0  0
   18.7931  -20.0009  -13.5883 O   0  0  0  0  0  0  0  0  0  0  0  0
   20.0540  -20.6841  -11.8604 O   0  0  0  0  0  0  0  0  0  0  0  0
  1  2  1  0
  3  2  1  0
  4  3  1  0
  5  4  1  0
  5  6  1  6
  7 13  1  0
  7  5  1  0
  8  7  2  0
 10 12  1  0
 10  9  1  6
 11 10  1  0
 12 13  1  6
 14 12  1  0
 14 15  2  0
 16 14  1  0
 17 16  1  0
 17 23  1  0
 17 18  1  1
 19 18  1  0
 20 19  1  0
 21 20  1  0
 21 22  1  0
 23 25  2  0
 23 24  1  0
M  END
$$$$
