MTK.pdb
     RDKit          3D

 25 24  0  0  1  0  0  0  0  0999 V2000
   24.6365  -20.0965   -8.1450 C   0  0  0  0  0  0  0  0  0  0  0  0
   26.4047  -20.4690   -8.2882 S   0  0  0  0  0  0  0  0  0  0  0  0
   26.8306  -20.7845  -10.0307 C   0  0  0  0  0  0  0  0  0  0  0  0
   25.5634  -21.1631  -10.7679 C   0  0  0  0  0  0  0  0  0  0  0  0
   25.8122  -21.3369  -12.2519 C   0  0  2  0  0  0  0  0  0  0  0  0
   27.2221  -21.5422  -12.4465 N   0  0  0  0  0  0  0  0  0  0  0  0
   25.2958  -20.1448  -12.9336 C   0  0  0  0  0  0  0  0  0  0  0  0
   24.3937  -19.4786  -12.3683 O   0  0  0  0  0  0  0  0  0  0  0  0
   26.9455  -16.7724  -14.1654 C   0  0  0  0  0  0  0  0  0  0  0  0
   26.2298  -17.4981  -15.2778 C   0  0  1  0  0  0  0  0  0  0  0  0
   27.1107  -18.0378  -16.2106 O   0  0  0  0  0  0  0  0  0  0  0  0
   25.2128  -18.4758  -14.7913 C   0  0  2  0  0  0  0  0  0  0  0  0
   25.7132  -19.6582  -14.1808 N   0  0  0  0  0  0  0  0  0  0  0  0
   24.3617  -18.8469  -15.9581 C   0  0  0  0  0  0  0  0  0  0  0  0
   24.2960  -20.0555  -16.3658 O   0  0  0  0  0  0  0  0  0  0  0  0
   23.5846  -17.9141  -16.6812 N   0  0  0  0  0  0  0  0  0  0  0  0
   22.2092  -18.2219  -17.1351 C   0  0  1  0  0  0  0  0  0  0  0  0
   21.3700  -18.6712  -15.9966 C   0  0  0  0  0  0  0  0  0  0  0  0
   20.8374  -20.0518  -16.2203 C   0  0  0  0  0  0  0  0  0  0  0  0
   19.9538  -20.5247  -15.0742 C   0  0  0  0  0  0  0  0  0  0  0  0
   19.5042  -21.9648  -15.3593 C   0  0  0  0  0  0  0  0  0  0  0  0
   18.5840  -22.4341  -14.3403 N   0  0  0  0  0  0  0  0  0  0  0  0
   21.7025  -16.9771  -17.7139 C   0  0  0  0  0  0  0  0  0  0  0  0
   21.7710  -16.7393  -19.0690 O   0  0  0  0  0  0  0  0  0  0  0  0
   21.1940  -16.0948  -16.9968 O   0  0  0  0  0  0  0  0  0  0  0  0
  1  2  1  0
  3  2  1  0
  4  3  1  0
  5  4  1  0
  5  6  1  1
  7 13  1  0
  7  5  1  0
  8  7  2  0
 10 12  1  0
 10  9  1  1
 11 10  1  0
 12 13  1  6
 14 12  1  0
 14 15  2  0
 16 14  1  0
 17 16  1  0
 17 23  1  0
 17 18  1  1
 19 18  1  0
 20 19  1  0
 21 20  1  0
 21 22  1  0
 23 25  2  0
 23 24  1  0
M  END
$$$$
