MTK.pdb
     RDKit          3D

 25 24  0  0  1  0  0  0  0  0999 V2000
   31.0582  -21.4176  -11.3201 C   0  0  0  0  0  0  0  0  0  0  0  0
   29.6509  -22.5593  -11.3632 S   0  0  0  0  0  0  0  0  0  0  0  0
   28.2592  -21.8605  -10.4186 C   0  0  0  0  0  0  0  0  0  0  0  0
   27.3773  -21.0865  -11.3755 C   0  0  0  0  0  0  0  0  0  0  0  0
   28.1378  -19.9642  -12.0511 C   0  0  2  0  0  0  0  0  0  0  0  0
   28.8521  -19.2363  -11.0373 N   0  0  0  0  0  0  0  0  0  0  0  0
   27.1662  -19.1445  -12.7838 C   0  0  0  0  0  0  0  0  0  0  0  0
   27.3267  -17.8991  -12.7970 O   0  0  0  0  0  0  0  0  0  0  0  0
   27.1762  -17.3188  -15.1409 C   0  0  0  0  0  0  0  0  0  0  0  0
   26.1030  -18.2854  -15.5771 C   0  0  1  0  0  0  0  0  0  0  0  0
   26.5861  -19.2529  -16.4534 O   0  0  0  0  0  0  0  0  0  0  0  0
   25.3196  -18.8550  -14.4419 C   0  0  2  0  0  0  0  0  0  0  0  0
   26.0495  -19.6163  -13.4886 N   0  0  0  0  0  0  0  0  0  0  0  0
   24.2428  -19.7034  -15.0288 C   0  0  0  0  0  0  0  0  0  0  0  0
   24.4728  -20.9111  -15.3750 O   0  0  0  0  0  0  0  0  0  0  0  0
   22.9222  -19.2471  -15.2402 N   0  0  0  0  0  0  0  0  0  0  0  0
   21.7949  -20.1808  -15.4633 C   0  0  1  0  0  0  0  0  0  0  0  0
   20.4980  -19.5087  -15.2012 C   0  0  0  0  0  0  0  0  0  0  0  0
   19.3436  -20.3619  -15.6246 C   0  0  0  0  0  0  0  0  0  0  0  0
   18.9166  -21.3393  -14.5383 C   0  0  0  0  0  0  0  0  0  0  0  0
   17.6928  -22.1234  -15.0331 C   0  0  0  0  0  0  0  0  0  0  0  0
   17.2525  -23.0833  -14.0380 N   0  0  0  0  0  0  0  0  0  0  0  0
   21.9069  -20.5995  -16.8610 C   0  0  0  0  0  0  0  0  0  0  0  0
   22.5212  -19.7999  -17.7995 O   0  0  0  0  0  0  0  0  0  0  0  0
   21.4492  -21.6930  -17.2432 O   0  0  0  0  0  0  0  0  0  0  0  0
  1  2  1  0
  3  2  1  0
  4  3  1  0
  5  4  1  0
  5  6  1  1
  7 13  1  0
  7  5  1  0
  8  7  2  0
 10 12  1  0
 10  9  1  1
 11 10  1  0
 12 13  1  1
 14 12  1  0
 14 15  2  0
 16 14  1  0
 17 16  1  0
 17 23  1  0
 17 18  1  6
 19 18  1  0
 20 19  1  0
 21 20  1  0
 21 22  1  0
 23 25  2  0
 23 24  1  0
M  END
$$$$
