MTK.pdb
     RDKit          3D

 25 24  0  0  1  0  0  0  0  0999 V2000
   17.6889  -19.1112  -15.4028 C   0  0  0  0  0  0  0  0  0  0  0  0
   19.2655  -20.0055  -15.4170 S   0  0  0  0  0  0  0  0  0  0  0  0
   20.3363  -19.3492  -16.7361 C   0  0  0  0  0  0  0  0  0  0  0  0
   20.6645  -17.9080  -16.4079 C   0  0  0  0  0  0  0  0  0  0  0  0
   19.8600  -16.9455  -17.2568 C   0  0  2  0  0  0  0  0  0  0  0  0
   20.0396  -17.3102  -18.6361 N   0  0  0  0  0  0  0  0  0  0  0  0
   20.3186  -15.5867  -16.9471 C   0  0  0  0  0  0  0  0  0  0  0  0
   20.2489  -15.1906  -15.7574 O   0  0  0  0  0  0  0  0  0  0  0  0
   23.6042  -13.4168  -18.3899 C   0  0  0  0  0  0  0  0  0  0  0  0
   22.2690  -12.7148  -18.4174 C   0  0  1  0  0  0  0  0  0  0  0  0
   21.8094  -12.5018  -19.7139 O   0  0  0  0  0  0  0  0  0  0  0  0
   21.2501  -13.3414  -17.5251 C   0  0  2  0  0  0  0  0  0  0  0  0
   20.8396  -14.6602  -17.8618 N   0  0  0  0  0  0  0  0  0  0  0  0
   20.0597  -12.4434  -17.5135 C   0  0  0  0  0  0  0  0  0  0  0  0
   18.9968  -12.7528  -18.1505 O   0  0  0  0  0  0  0  0  0  0  0  0
   20.0193  -11.2154  -16.8153 N   0  0  0  0  0  0  0  0  0  0  0  0
   18.8480  -10.3120  -16.8824 C   0  0  1  0  0  0  0  0  0  0  0  0
   17.9162  -10.5777  -15.7585 C   0  0  0  0  0  0  0  0  0  0  0  0
   16.7834   -9.5998  -15.7434 C   0  0  0  0  0  0  0  0  0  0  0  0
   15.8298   -9.8356  -14.5802 C   0  0  0  0  0  0  0  0  0  0  0  0
   14.7221   -8.7735  -14.6268 C   0  0  0  0  0  0  0  0  0  0  0  0
   13.8161   -8.9166  -13.5025 N   0  0  0  0  0  0  0  0  0  0  0  0
   19.3968   -8.9573  -16.8127 C   0  0  0  0  0  0  0  0  0  0  0  0
   20.7338   -8.7398  -16.5624 O   0  0  0  0  0  0  0  0  0  0  0  0
   18.6695   -7.9597  -16.9777 O   0  0  0  0  0  0  0  0  0  0  0  0
  1  2  1  0
  3  2  1  0
  4  3  1  0
  5  4  1  0
  5  6  1  6
  7 13  1  0
  7  5  1  0
  8  7  2  0
 10 12  1  0
 10  9  1  6
 11 10  1  0
 12 13  1  6
 14 12  1  0
 14 15  2  0
 16 14  1  0
 17 16  1  0
 17 23  1  0
 17 18  1  1
 19 18  1  0
 20 19  1  0
 21 20  1  0
 21 22  1  0
 23 25  2  0
 23 24  1  0
M  END
$$$$
