MTK.pdb
     RDKit          3D

 25 24  0  0  1  0  0  0  0  0999 V2000
   21.8112  -23.8614  -14.3386 C   0  0  0  0  0  0  0  0  0  0  0  0
   23.1979  -24.9366  -13.8841 S   0  0  0  0  0  0  0  0  0  0  0  0
   24.6902  -23.9325  -13.5975 C   0  0  0  0  0  0  0  0  0  0  0  0
   24.2775  -22.4772  -13.5317 C   0  0  0  0  0  0  0  0  0  0  0  0
   25.4665  -21.5708  -13.2886 C   0  0  2  0  0  0  0  0  0  0  0  0
   25.9508  -21.8179  -11.9574 N   0  0  0  0  0  0  0  0  0  0  0  0
   25.0246  -20.1881  -13.5023 C   0  0  0  0  0  0  0  0  0  0  0  0
   24.5523  -19.5556  -12.5256 O   0  0  0  0  0  0  0  0  0  0  0  0
   26.8011  -16.9138  -14.2645 C   0  0  0  0  0  0  0  0  0  0  0  0
   25.7472  -17.1730  -15.3126 C   0  0  1  0  0  0  0  0  0  0  0  0
   26.2983  -17.5047  -16.5470 O   0  0  0  0  0  0  0  0  0  0  0  0
   24.6856  -18.1217  -14.8656 C   0  0  2  0  0  0  0  0  0  0  0  0
   25.0752  -19.4803  -14.7118 N   0  0  0  0  0  0  0  0  0  0  0  0
   23.5722  -18.0380  -15.8539 C   0  0  0  0  0  0  0  0  0  0  0  0
   23.3019  -19.0202  -16.6243 O   0  0  0  0  0  0  0  0  0  0  0  0
   22.7543  -16.8960  -16.0084 N   0  0  0  0  0  0  0  0  0  0  0  0
   21.5893  -16.8821  -16.9223 C   0  0  1  0  0  0  0  0  0  0  0  0
   20.4212  -16.2374  -16.2726 C   0  0  0  0  0  0  0  0  0  0  0  0
   19.2633  -16.1260  -17.2141 C   0  0  0  0  0  0  0  0  0  0  0  0
   18.0965  -15.3576  -16.6092 C   0  0  0  0  0  0  0  0  0  0  0  0
   16.9679  -15.2763  -17.6469 C   0  0  0  0  0  0  0  0  0  0  0  0
   15.8642  -14.4738  -17.1538 N   0  0  0  0  0  0  0  0  0  0  0  0
   22.0273  -16.1318  -18.0998 C   0  0  0  0  0  0  0  0  0  0  0  0
   21.5064  -16.3929  -19.3480 O   0  0  0  0  0  0  0  0  0  0  0  0
   22.8856  -15.2340  -18.0075 O   0  0  0  0  0  0  0  0  0  0  0  0
  1  2  1  0
  3  2  1  0
  4  3  1  0
  5  4  1  0
  5  6  1  1
  7 13  1  0
  7  5  1  0
  8  7  2  0
 10 12  1  0
 10  9  1  1
 11 10  1  0
 12 13  1  6
 14 12  1  0
 14 15  2  0
 16 14  1  0
 17 16  1  0
 17 23  1  0
 17 18  1  1
 19 18  1  0
 20 19  1  0
 21 20  1  0
 21 22  1  0
 23 25  2  0
 23 24  1  0
M  END
$$$$
