MTK.pdb
     RDKit          3D

 25 24  0  0  1  0  0  0  0  0999 V2000
   22.0786  -20.3025   -8.8396 C   0  0  0  0  0  0  0  0  0  0  0  0
   23.2752  -21.3754   -8.0013 S   0  0  0  0  0  0  0  0  0  0  0  0
   24.8410  -20.4788   -7.7530 C   0  0  0  0  0  0  0  0  0  0  0  0
   25.2719  -19.8988   -9.0837 C   0  0  0  0  0  0  0  0  0  0  0  0
   25.9968  -20.9243   -9.9305 C   0  0  2  0  0  0  0  0  0  0  0  0
   27.2355  -21.2479   -9.2758 N   0  0  0  0  0  0  0  0  0  0  0  0
   26.1757  -20.3514  -11.2693 C   0  0  0  0  0  0  0  0  0  0  0  0
   26.9966  -19.4116  -11.4107 O   0  0  0  0  0  0  0  0  0  0  0  0
   27.8630  -21.2338  -14.3756 C   0  0  0  0  0  0  0  0  0  0  0  0
   26.4199  -20.9732  -14.7306 C   0  0  1  0  0  0  0  0  0  0  0  0
   25.7431  -22.1369  -15.0842 O   0  0  0  0  0  0  0  0  0  0  0  0
   25.6965  -20.1550  -13.7137 C   0  0  2  0  0  0  0  0  0  0  0  0
   25.5107  -20.7522  -12.4370 N   0  0  0  0  0  0  0  0  0  0  0  0
   24.3671  -19.8049  -14.2914 C   0  0  0  0  0  0  0  0  0  0  0  0
   23.2941  -20.3252  -13.8340 O   0  0  0  0  0  0  0  0  0  0  0  0
   24.1991  -18.8954  -15.3598 N   0  0  0  0  0  0  0  0  0  0  0  0
   22.8594  -18.4959  -15.8478 C   0  0  1  0  0  0  0  0  0  0  0  0
   22.9458  -17.2574  -16.6608 C   0  0  0  0  0  0  0  0  0  0  0  0
   21.6064  -16.8602  -17.1976 C   0  0  0  0  0  0  0  0  0  0  0  0
   21.6728  -15.5963  -18.0437 C   0  0  0  0  0  0  0  0  0  0  0  0
   20.2460  -15.1941  -18.4432 C   0  0  0  0  0  0  0  0  0  0  0  0
   20.2514  -13.9854  -19.2460 N   0  0  0  0  0  0  0  0  0  0  0  0
   22.3824  -19.6264  -16.6451 C   0  0  0  0  0  0  0  0  0  0  0  0
   21.0669  -20.0318  -16.5948 O   0  0  0  0  0  0  0  0  0  0  0  0
   23.1535  -20.2560  -17.3936 O   0  0  0  0  0  0  0  0  0  0  0  0
  1  2  1  0
  3  2  1  0
  4  3  1  0
  5  4  1  0
  5  6  1  1
  7 13  1  0
  7  5  1  0
  8  7  2  0
 10 12  1  0
 10  9  1  1
 11 10  1  0
 12 13  1  1
 14 12  1  0
 14 15  2  0
 16 14  1  0
 17 16  1  0
 17 23  1  0
 17 18  1  6
 19 18  1  0
 20 19  1  0
 21 20  1  0
 21 22  1  0
 23 25  2  0
 23 24  1  0
M  END
$$$$
