MRM.pdb
     RDKit          3D

 28 27  0  0  1  0  0  0  0  0999 V2000
    6.1563  -11.9449   28.0669 C   0  0  0  0  0  0  0  0  0  0  0  0
    6.2864  -11.9669   26.2450 S   0  0  0  0  0  0  0  0  0  0  0  0
    5.0294  -13.1175   25.5696 C   0  0  0  0  0  0  0  0  0  0  0  0
    5.6962  -14.4464   25.4276 C   0  0  0  0  0  0  0  0  0  0  0  0
    7.1521  -14.4038   25.1042 C   0  0  2  0  0  0  0  0  0  0  0  0
    7.5093  -13.3488   24.1796 N   0  0  0  0  0  0  0  0  0  0  0  0
    7.7042  -15.7321   24.6813 C   0  0  0  0  0  0  0  0  0  0  0  0
    7.3567  -16.7105   25.3830 O   0  0  0  0  0  0  0  0  0  0  0  0
    7.3269  -13.6483   19.0355 N   0  0  0  0  0  0  0  0  0  0  0  0
    8.7455  -13.4410   19.0706 C   0  0  0  0  0  0  0  0  0  0  0  0
    9.2617  -12.2461   18.9555 N   0  0  0  0  0  0  0  0  0  0  0  0
    9.6582  -14.5079   19.2308 N   0  0  0  0  0  0  0  0  0  0  0  0
    9.1750  -15.8405   19.5267 C   0  0  0  0  0  0  0  0  0  0  0  0
    8.7518  -15.9193   20.9812 C   0  0  0  0  0  0  0  0  0  0  0  0
    9.3994  -17.0377   21.7139 C   0  0  0  0  0  0  0  0  0  0  0  0
    9.1538  -17.1347   23.1766 C   0  0  2  0  0  0  0  0  0  0  0  0
    8.5579  -15.8438   23.5643 N   0  0  0  0  0  0  0  0  0  0  0  0
   10.3531  -17.2952   24.0258 C   0  0  0  0  0  0  0  0  0  0  0  0
   11.4618  -17.7216   23.5288 O   0  0  0  0  0  0  0  0  0  0  0  0
   10.2975  -12.1890   18.9633 C   0  0  0  0  0  0  0  0  0  0  0  0
   10.3150  -14.3973   29.9899 S   0  0  0  0  0  0  0  0  0  0  0  0
    9.6868  -14.4302   28.2698 C   0  0  0  0  0  0  0  0  0  0  0  0
   11.0758  -15.0242   27.2333 C   0  0  0  0  0  0  0  0  0  0  0  0
   11.3508  -16.4643   27.4995 C   0  0  2  0  0  0  0  0  0  0  0  0
   11.4766  -17.2413   26.2280 N   0  0  0  0  0  0  0  0  0  0  0  0
   10.2792  -16.9747   25.3922 C   0  0  0  0  0  0  0  0  0  0  0  0
   11.6260  -18.6875   26.4158 O   0  0  0  0  0  0  0  0  0  0  0  0
   10.7547  -19.4890   26.0523 O   0  0  0  0  0  0  0  0  0  0  0  0
  2  1  1  0
  3  2  1  0
  4  3  1  0
  5  4  1  0
  5  6  1  6
  7  8  2  0
  7  5  1  0
  9 10  1  0
 10 11  2  0
 12 10  1  0
 12 13  1  0
 13 14  1  0
 15 14  1  0
 16 15  1  6
 16 17  1  0
 17  7  1  0
 18 16  1  0
 18 19  2  0
 21 20  1  0
 22 23  1  0
 22 21  1  0
 24 25  1  0
 24 23  1  6
 25 18  1  0
 26 24  1  0
 27 26  2  0
 28 26  1  0
M  END
$$$$
