MRM.pdb
     RDKit          3D

 28 27  0  0  1  0  0  0  0  0999 V2000
    6.6754  -10.8083   24.4956 C   0  0  0  0  0  0  0  0  0  0  0  0
    6.1067  -11.6141   26.0333 S   0  0  0  0  0  0  0  0  0  0  0  0
    5.5189  -13.3053   25.6400 C   0  0  0  0  0  0  0  0  0  0  0  0
    6.7297  -14.1141   25.3078 C   0  0  0  0  0  0  0  0  0  0  0  0
    6.4648  -15.5079   24.8458 C   0  0  2  0  0  0  0  0  0  0  0  0
    5.6754  -16.2862   25.7767 N   0  0  0  0  0  0  0  0  0  0  0  0
    7.7034  -16.2347   24.4150 C   0  0  0  0  0  0  0  0  0  0  0  0
    8.1513  -17.0718   25.2329 O   0  0  0  0  0  0  0  0  0  0  0  0
   10.9939  -21.0402   20.1535 N   0  0  0  0  0  0  0  0  0  0  0  0
   11.7520  -20.0804   19.4047 C   0  0  0  0  0  0  0  0  0  0  0  0
   13.0330  -20.2359   19.1992 N   0  0  0  0  0  0  0  0  0  0  0  0
   11.1619  -18.9221   18.8508 N   0  0  0  0  0  0  0  0  0  0  0  0
   10.0551  -18.2758   19.5249 C   0  0  0  0  0  0  0  0  0  0  0  0
   10.5802  -17.1846   20.4384 C   0  0  0  0  0  0  0  0  0  0  0  0
    9.5063  -16.5079   21.2103 C   0  0  0  0  0  0  0  0  0  0  0  0
    9.4311  -16.7823   22.6692 C   0  0  2  0  0  0  0  0  0  0  0  0
    8.3048  -15.9724   23.1666 N   0  0  0  0  0  0  0  0  0  0  0  0
   10.6054  -16.3711   23.4673 C   0  0  0  0  0  0  0  0  0  0  0  0
   10.7587  -15.1462   23.8335 O   0  0  0  0  0  0  0  0  0  0  0  0
   13.5184  -19.4610   18.7090 C   0  0  0  0  0  0  0  0  0  0  0  0
   10.4333  -13.5694   28.6592 S   0  0  0  0  0  0  0  0  0  0  0  0
   10.3382  -15.3376   28.1915 C   0  0  0  0  0  0  0  0  0  0  0  0
   11.5720  -15.5771   26.8584 C   0  0  0  0  0  0  0  0  0  0  0  0
   11.3880  -16.9037   26.2054 C   0  0  2  0  0  0  0  0  0  0  0  0
   12.3441  -17.0922   25.0710 N   0  0  0  0  0  0  0  0  0  0  0  0
   11.5634  -17.3328   23.8316 C   0  0  0  0  0  0  0  0  0  0  0  0
   13.3010  -18.1862   25.2626 O   0  0  0  0  0  0  0  0  0  0  0  0
   12.9330  -19.3562   25.4341 O   0  0  0  0  0  0  0  0  0  0  0  0
  2  1  1  0
  3  2  1  0
  4  3  1  0
  5  4  1  0
  5  6  1  1
  7  8  2  0
  7  5  1  0
  9 10  1  0
 10 11  2  0
 12 10  1  0
 12 13  1  0
 13 14  1  0
 15 14  1  0
 16 15  1  6
 16 17  1  0
 17  7  1  0
 18 16  1  0
 18 19  2  0
 21 20  1  0
 22 23  1  0
 22 21  1  0
 24 25  1  0
 24 23  1  6
 25 18  1  0
 26 24  1  0
 27 26  2  0
 28 26  1  0
M  END
$$$$
