MRM.pdb
     RDKit          3D

 28 27  0  0  1  0  0  0  0  0999 V2000
   13.3661  -22.3734   23.1301 C   0  0  0  0  0  0  0  0  0  0  0  0
   11.7173  -23.1222   23.3710 S   0  0  0  0  0  0  0  0  0  0  0  0
   10.6773  -22.7624   21.9051 C   0  0  0  0  0  0  0  0  0  0  0  0
   10.7441  -21.2870   21.6830 C   0  0  0  0  0  0  0  0  0  0  0  0
    9.9854  -20.4545   22.6615 C   0  0  2  0  0  0  0  0  0  0  0  0
    8.5687  -20.7499   22.6970 N   0  0  0  0  0  0  0  0  0  0  0  0
   10.2495  -18.9855   22.5201 C   0  0  0  0  0  0  0  0  0  0  0  0
   11.4555  -18.6600   22.4197 O   0  0  0  0  0  0  0  0  0  0  0  0
    9.5835  -12.0361   19.1559 N   0  0  0  0  0  0  0  0  0  0  0  0
    8.4578  -12.8242   18.7457 C   0  0  0  0  0  0  0  0  0  0  0  0
    8.3960  -13.3532   17.5525 N   0  0  0  0  0  0  0  0  0  0  0  0
    7.3609  -13.0720   19.6015 N   0  0  0  0  0  0  0  0  0  0  0  0
    7.1715  -14.3860   20.1798 C   0  0  0  0  0  0  0  0  0  0  0  0
    8.3104  -14.6935   21.1333 C   0  0  0  0  0  0  0  0  0  0  0  0
    8.2183  -16.0518   21.7278 C   0  0  0  0  0  0  0  0  0  0  0  0
    9.4407  -16.6075   22.3653 C   0  0  2  0  0  0  0  0  0  0  0  0
    9.1914  -18.0532   22.5058 N   0  0  0  0  0  0  0  0  0  0  0  0
    9.7416  -16.1171   23.7269 C   0  0  0  0  0  0  0  0  0  0  0  0
   10.6107  -16.7136   24.4665 O   0  0  0  0  0  0  0  0  0  0  0  0
    7.6291  -14.0324   17.3889 C   0  0  0  0  0  0  0  0  0  0  0  0
    5.4657  -12.8998   27.4856 S   0  0  0  0  0  0  0  0  0  0  0  0
    6.5278  -11.7059   26.5906 C   0  0  0  0  0  0  0  0  0  0  0  0
    8.1265  -12.5568   26.3140 C   0  0  0  0  0  0  0  0  0  0  0  0
    7.9150  -14.0173   26.1087 C   0  0  2  0  0  0  0  0  0  0  0  0
    9.1731  -14.6957   25.6689 N   0  0  0  0  0  0  0  0  0  0  0  0
    9.0704  -14.9834   24.2163 C   0  0  0  0  0  0  0  0  0  0  0  0
    9.4747  -15.9360   26.3898 O   0  0  0  0  0  0  0  0  0  0  0  0
   10.2787  -15.9679   27.3312 O   0  0  0  0  0  0  0  0  0  0  0  0
  2  1  1  0
  3  2  1  0
  4  3  1  0
  5  4  1  0
  5  6  1  6
  7  8  2  0
  7  5  1  0
  9 10  1  0
 10 11  2  0
 12 10  1  0
 12 13  1  0
 13 14  1  0
 15 14  1  0
 16 15  1  1
 16 17  1  0
 17  7  1  0
 18 16  1  0
 18 19  2  0
 21 20  1  0
 22 23  1  0
 22 21  1  0
 24 25  1  0
 24 23  1  6
 25 18  1  0
 26 24  1  0
 27 26  2  0
 28 26  1  0
M  END
$$$$
