MRM.pdb
     RDKit          3D

 28 27  0  0  1  0  0  0  0  0999 V2000
    6.7214  -11.8487   26.4740 C   0  0  0  0  0  0  0  0  0  0  0  0
    6.0577  -12.6130   27.9946 S   0  0  0  0  0  0  0  0  0  0  0  0
    5.7012  -14.3813   27.6685 C   0  0  0  0  0  0  0  0  0  0  0  0
    6.5957  -14.8000   26.5481 C   0  0  0  0  0  0  0  0  0  0  0  0
    6.3662  -16.1774   26.0226 C   0  0  2  0  0  0  0  0  0  0  0  0
    6.4963  -17.2100   27.0287 N   0  0  0  0  0  0  0  0  0  0  0  0
    7.1700  -16.4848   24.7949 C   0  0  0  0  0  0  0  0  0  0  0  0
    7.9721  -17.4421   24.8993 O   0  0  0  0  0  0  0  0  0  0  0  0
   10.6589  -14.3308   18.0548 N   0  0  0  0  0  0  0  0  0  0  0  0
    9.4608  -13.5513   17.9385 C   0  0  0  0  0  0  0  0  0  0  0  0
    9.4974  -12.2451   17.9251 N   0  0  0  0  0  0  0  0  0  0  0  0
    8.1834  -14.1461   17.8322 N   0  0  0  0  0  0  0  0  0  0  0  0
    7.3416  -14.2763   19.0032 C   0  0  0  0  0  0  0  0  0  0  0  0
    8.1118  -14.9680   20.1119 C   0  0  0  0  0  0  0  0  0  0  0  0
    7.3066  -15.1592   21.3455 C   0  0  0  0  0  0  0  0  0  0  0  0
    7.9500  -15.8663   22.4837 C   0  0  2  0  0  0  0  0  0  0  0  0
    7.0149  -15.7290   23.6145 N   0  0  0  0  0  0  0  0  0  0  0  0
    9.2340  -15.3043   22.9533 C   0  0  0  0  0  0  0  0  0  0  0  0
    9.3387  -14.0561   23.2518 O   0  0  0  0  0  0  0  0  0  0  0  0
    8.5867  -11.7577   18.0219 C   0  0  0  0  0  0  0  0  0  0  0  0
   10.2197  -12.8970   27.5464 S   0  0  0  0  0  0  0  0  0  0  0  0
   11.0479  -14.4909   27.9043 C   0  0  0  0  0  0  0  0  0  0  0  0
   11.8376  -15.0160   26.3368 C   0  0  0  0  0  0  0  0  0  0  0  0
   10.8055  -15.3741   25.3235 C   0  0  1  0  0  0  0  0  0  0  0  0
   11.4280  -15.7309   24.0113 N   0  0  0  0  0  0  0  0  0  0  0  0
   10.3522  -16.1467   23.0769 C   0  0  0  0  0  0  0  0  0  0  0  0
   12.4392  -16.7893   24.0901 O   0  0  0  0  0  0  0  0  0  0  0  0
   13.5251  -16.6171   24.6600 O   0  0  0  0  0  0  0  0  0  0  0  0
  2  1  1  0
  3  2  1  0
  4  3  1  0
  5  4  1  0
  5  6  1  1
  7  8  2  0
  7  5  1  0
  9 10  1  0
 10 11  2  0
 12 10  1  0
 12 13  1  0
 13 14  1  0
 15 14  1  0
 16 15  1  6
 16 17  1  0
 17  7  1  0
 18 16  1  0
 18 19  2  0
 21 20  1  0
 22 23  1  0
 22 21  1  0
 24 25  1  0
 24 23  1  6
 25 18  1  0
 26 24  1  0
 27 26  2  0
 28 26  1  0
M  END
$$$$
