MRM.pdb
     RDKit          3D

 28 27  0  0  1  0  0  0  0  0999 V2000
    5.1059  -12.3584   26.2634 C   0  0  0  0  0  0  0  0  0  0  0  0
    6.3920  -13.0151   27.3821 S   0  0  0  0  0  0  0  0  0  0  0  0
    6.6686  -14.7866   27.0006 C   0  0  0  0  0  0  0  0  0  0  0  0
    5.7372  -15.1363   25.8867 C   0  0  0  0  0  0  0  0  0  0  0  0
    6.0072  -16.4369   25.2073 C   0  0  2  0  0  0  0  0  0  0  0  0
    6.0962  -17.5584   26.1182 N   0  0  0  0  0  0  0  0  0  0  0  0
    7.1736  -16.3833   24.2668 C   0  0  0  0  0  0  0  0  0  0  0  0
    8.0812  -17.2202   24.4824 O   0  0  0  0  0  0  0  0  0  0  0  0
    9.9417  -14.4472   17.2824 N   0  0  0  0  0  0  0  0  0  0  0  0
    8.5286  -14.2080   17.2315 C   0  0  0  0  0  0  0  0  0  0  0  0
    7.8004  -14.6422   16.2372 N   0  0  0  0  0  0  0  0  0  0  0  0
    7.8490  -13.4959   18.2452 N   0  0  0  0  0  0  0  0  0  0  0  0
    8.5910  -12.8895   19.3310 C   0  0  0  0  0  0  0  0  0  0  0  0
    9.0552  -13.9643   20.2954 C   0  0  0  0  0  0  0  0  0  0  0  0
    8.0370  -14.2999   21.3237 C   0  0  0  0  0  0  0  0  0  0  0  0
    8.3801  -15.3560   22.3118 C   0  0  2  0  0  0  0  0  0  0  0  0
    7.2212  -15.4413   23.2183 N   0  0  0  0  0  0  0  0  0  0  0  0
    9.5472  -15.0804   23.1761 C   0  0  0  0  0  0  0  0  0  0  0  0
    9.5491  -14.0768   23.9828 O   0  0  0  0  0  0  0  0  0  0  0  0
    6.7767  -14.4935   16.3166 C   0  0  0  0  0  0  0  0  0  0  0  0
    9.8107  -15.4434   28.1728 S   0  0  0  0  0  0  0  0  0  0  0  0
   11.3752  -14.5045   28.0145 C   0  0  0  0  0  0  0  0  0  0  0  0
   12.1551  -15.0762   26.4583 C   0  0  0  0  0  0  0  0  0  0  0  0
   11.1274  -15.2713   25.3972 C   0  0  1  0  0  0  0  0  0  0  0  0
   11.7472  -15.7144   24.1104 N   0  0  0  0  0  0  0  0  0  0  0  0
   10.6663  -15.9285   23.1157 C   0  0  0  0  0  0  0  0  0  0  0  0
   12.5572  -16.9316   24.2174 O   0  0  0  0  0  0  0  0  0  0  0  0
   12.1643  -18.0209   23.7786 O   0  0  0  0  0  0  0  0  0  0  0  0
  2  1  1  0
  3  2  1  0
  4  3  1  0
  5  4  1  0
  5  6  1  1
  7  8  2  0
  7  5  1  0
  9 10  1  0
 10 11  2  0
 12 10  1  0
 12 13  1  0
 13 14  1  0
 15 14  1  0
 16 15  1  6
 16 17  1  0
 17  7  1  0
 18 16  1  0
 18 19  2  0
 21 20  1  0
 22 23  1  0
 22 21  1  0
 24 25  1  0
 24 23  1  6
 25 18  1  0
 26 24  1  0
 27 26  2  0
 28 26  1  0
M  END
$$$$
