MRM.pdb
     RDKit          3D

 28 27  0  0  1  0  0  0  0  0999 V2000
    8.9287  -11.6029   20.4409 C   0  0  0  0  0  0  0  0  0  0  0  0
    8.1511  -11.7938   18.7990 S   0  0  0  0  0  0  0  0  0  0  0  0
    7.7852  -13.5671   18.5132 C   0  0  0  0  0  0  0  0  0  0  0  0
    7.9757  -14.2610   19.8219 C   0  0  0  0  0  0  0  0  0  0  0  0
    7.8563  -15.7478   19.7846 C   0  0  2  0  0  0  0  0  0  0  0  0
    6.6278  -16.2149   19.1778 N   0  0  0  0  0  0  0  0  0  0  0  0
    8.1086  -16.3961   21.1127 C   0  0  0  0  0  0  0  0  0  0  0  0
    7.1093  -16.5017   21.8615 O   0  0  0  0  0  0  0  0  0  0  0  0
   14.7962  -19.2642   21.5427 N   0  0  0  0  0  0  0  0  0  0  0  0
   14.2045  -19.8113   22.7290 C   0  0  0  0  0  0  0  0  0  0  0  0
   14.9178  -20.0490   23.7977 N   0  0  0  0  0  0  0  0  0  0  0  0
   12.8281  -20.1211   22.8093 N   0  0  0  0  0  0  0  0  0  0  0  0
   12.0405  -20.2538   21.6014 C   0  0  0  0  0  0  0  0  0  0  0  0
   10.7393  -19.4891   21.7533 C   0  0  0  0  0  0  0  0  0  0  0  0
   10.8707  -18.2863   22.6152 C   0  0  0  0  0  0  0  0  0  0  0  0
    9.6660  -17.4344   22.7948 C   0  0  2  0  0  0  0  0  0  0  0  0
    9.3963  -16.8463   21.4706 N   0  0  0  0  0  0  0  0  0  0  0  0
    9.8128  -16.2912   23.7202 C   0  0  0  0  0  0  0  0  0  0  0  0
   10.6248  -15.3275   23.4556 O   0  0  0  0  0  0  0  0  0  0  0  0
   14.4307  -20.5256   24.5800 C   0  0  0  0  0  0  0  0  0  0  0  0
    5.6408  -12.6263   25.6462 S   0  0  0  0  0  0  0  0  0  0  0  0
    6.5183  -12.4417   27.2432 C   0  0  0  0  0  0  0  0  0  0  0  0
    8.1068  -13.3350   27.0558 C   0  0  0  0  0  0  0  0  0  0  0  0
    8.0078  -14.3619   25.9808 C   0  0  1  0  0  0  0  0  0  0  0  0
    9.2836  -15.1288   25.8377 N   0  0  0  0  0  0  0  0  0  0  0  0
    9.0526  -16.2576   24.9019 C   0  0  0  0  0  0  0  0  0  0  0  0
    9.8226  -15.6458   27.0991 O   0  0  0  0  0  0  0  0  0  0  0  0
   10.0593  -14.9053   28.0631 O   0  0  0  0  0  0  0  0  0  0  0  0
  2  1  1  0
  3  2  1  0
  4  3  1  0
  5  4  1  0
  5  6  1  1
  7  8  2  0
  7  5  1  0
  9 10  1  0
 10 11  2  0
 12 10  1  0
 12 13  1  0
 13 14  1  0
 15 14  1  0
 16 15  1  6
 16 17  1  0
 17  7  1  0
 18 16  1  0
 18 19  2  0
 21 20  1  0
 22 23  1  0
 22 21  1  0
 24 25  1  0
 24 23  1  6
 25 18  1  0
 26 24  1  0
 27 26  2  0
 28 26  1  0
M  END
$$$$
