MRM.pdb
     RDKit          3D

 28 27  0  0  1  0  0  0  0  0999 V2000
    7.6302  -11.8776   27.5112 C   0  0  0  0  0  0  0  0  0  0  0  0
    5.9452  -12.5260   27.7888 S   0  0  0  0  0  0  0  0  0  0  0  0
    6.0141  -14.3561   27.8676 C   0  0  0  0  0  0  0  0  0  0  0  0
    6.8488  -14.8043   26.7130 C   0  0  0  0  0  0  0  0  0  0  0  0
    6.4555  -16.1080   26.1031 C   0  0  2  0  0  0  0  0  0  0  0  0
    6.3703  -17.1919   27.0588 N   0  0  0  0  0  0  0  0  0  0  0  0
    7.2823  -16.4766   24.9080 C   0  0  0  0  0  0  0  0  0  0  0  0
    8.1787  -17.3283   25.1124 O   0  0  0  0  0  0  0  0  0  0  0  0
    9.0612  -12.6254   18.6681 N   0  0  0  0  0  0  0  0  0  0  0  0
    8.8907  -13.5665   17.5995 C   0  0  0  0  0  0  0  0  0  0  0  0
    9.4499  -13.3804   16.4333 N   0  0  0  0  0  0  0  0  0  0  0  0
    8.1155  -14.7389   17.7459 N   0  0  0  0  0  0  0  0  0  0  0  0
    7.2652  -14.9089   18.9056 C   0  0  0  0  0  0  0  0  0  0  0  0
    8.0988  -15.3643   20.0881 C   0  0  0  0  0  0  0  0  0  0  0  0
    7.3085  -15.4942   21.3392 C   0  0  0  0  0  0  0  0  0  0  0  0
    8.0013  -16.0378   22.5367 C   0  0  2  0  0  0  0  0  0  0  0  0
    7.0465  -15.8865   23.6490 N   0  0  0  0  0  0  0  0  0  0  0  0
    9.2252  -15.3234   22.9573 C   0  0  0  0  0  0  0  0  0  0  0  0
    9.1540  -14.1711   23.5275 O   0  0  0  0  0  0  0  0  0  0  0  0
    9.2737  -14.1094   15.7164 C   0  0  0  0  0  0  0  0  0  0  0  0
   10.0715  -13.0144   27.0977 S   0  0  0  0  0  0  0  0  0  0  0  0
   11.1984  -14.3704   27.5932 C   0  0  0  0  0  0  0  0  0  0  0  0
   11.9769  -14.9738   26.0484 C   0  0  0  0  0  0  0  0  0  0  0  0
   10.9426  -15.2436   25.0103 C   0  0  1  0  0  0  0  0  0  0  0  0
   11.5645  -15.6174   23.7026 N   0  0  0  0  0  0  0  0  0  0  0  0
   10.4806  -15.9138   22.7328 C   0  0  0  0  0  0  0  0  0  0  0  0
   12.4793  -16.7607   23.7735 O   0  0  0  0  0  0  0  0  0  0  0  0
   12.1516  -17.8877   23.3785 O   0  0  0  0  0  0  0  0  0  0  0  0
  2  1  1  0
  3  2  1  0
  4  3  1  0
  5  4  1  0
  5  6  1  1
  7  8  2  0
  7  5  1  0
  9 10  1  0
 10 11  2  0
 12 10  1  0
 12 13  1  0
 13 14  1  0
 15 14  1  0
 16 15  1  6
 16 17  1  0
 17  7  1  0
 18 16  1  0
 18 19  2  0
 21 20  1  0
 22 23  1  0
 22 21  1  0
 24 25  1  0
 24 23  1  6
 25 18  1  0
 26 24  1  0
 27 26  2  0
 28 26  1  0
M  END
$$$$
