MRM.pdb
     RDKit          3D

 28 27  0  0  1  0  0  0  0  0999 V2000
    6.3994  -11.2049   26.0875 C   0  0  0  0  0  0  0  0  0  0  0  0
    5.6921  -12.2397   27.4163 S   0  0  0  0  0  0  0  0  0  0  0  0
    5.2543  -13.8810   26.7272 C   0  0  0  0  0  0  0  0  0  0  0  0
    6.4572  -14.3720   25.9906 C   0  0  0  0  0  0  0  0  0  0  0  0
    6.2528  -15.6044   25.1748 C   0  0  2  0  0  0  0  0  0  0  0  0
    5.8549  -16.7564   25.9559 N   0  0  0  0  0  0  0  0  0  0  0  0
    7.4058  -15.9123   24.2673 C   0  0  0  0  0  0  0  0  0  0  0  0
    8.1338  -16.8683   24.6230 O   0  0  0  0  0  0  0  0  0  0  0  0
    7.9830  -14.3886   15.9781 N   0  0  0  0  0  0  0  0  0  0  0  0
    8.6467  -14.0299   17.1977 C   0  0  0  0  0  0  0  0  0  0  0  0
    9.1324  -12.8307   17.3808 N   0  0  0  0  0  0  0  0  0  0  0  0
    8.8113  -14.9447   18.2620 N   0  0  0  0  0  0  0  0  0  0  0  0
    7.6580  -15.4215   18.9966 C   0  0  0  0  0  0  0  0  0  0  0  0
    7.4472  -14.5636   20.2296 C   0  0  0  0  0  0  0  0  0  0  0  0
    8.6569  -14.4733   21.0872 C   0  0  0  0  0  0  0  0  0  0  0  0
    8.7767  -15.4391   22.2107 C   0  0  2  0  0  0  0  0  0  0  0  0
    7.6336  -15.1582   23.0976 N   0  0  0  0  0  0  0  0  0  0  0  0
    9.9828  -15.3051   23.0546 C   0  0  0  0  0  0  0  0  0  0  0  0
   10.4819  -14.1468   23.3139 O   0  0  0  0  0  0  0  0  0  0  0  0
    9.6720  -12.6806   18.2541 C   0  0  0  0  0  0  0  0  0  0  0  0
   11.1856  -13.1031   27.8601 S   0  0  0  0  0  0  0  0  0  0  0  0
   11.2989  -14.8447   28.4153 C   0  0  0  0  0  0  0  0  0  0  0  0
   11.9852  -15.7850   27.0006 C   0  0  0  0  0  0  0  0  0  0  0  0
   10.9985  -15.8505   25.8860 C   0  0  1  0  0  0  0  0  0  0  0  0
   11.6460  -16.2748   24.6065 N   0  0  0  0  0  0  0  0  0  0  0  0
   10.5884  -16.4588   23.5813 C   0  0  0  0  0  0  0  0  0  0  0  0
   12.4415  -17.5018   24.7097 O   0  0  0  0  0  0  0  0  0  0  0  0
   12.0814  -18.5627   24.1819 O   0  0  0  0  0  0  0  0  0  0  0  0
  2  1  1  0
  3  2  1  0
  4  3  1  0
  5  4  1  0
  5  6  1  1
  7  8  2  0
  7  5  1  0
  9 10  1  0
 10 11  2  0
 12 10  1  0
 12 13  1  0
 13 14  1  0
 15 14  1  0
 16 15  1  6
 16 17  1  0
 17  7  1  0
 18 16  1  0
 18 19  2  0
 21 20  1  0
 22 23  1  0
 22 21  1  0
 24 25  1  0
 24 23  1  6
 25 18  1  0
 26 24  1  0
 27 26  2  0
 28 26  1  0
M  END
$$$$
