MRM.pdb
     RDKit          3D

 28 27  0  0  1  0  0  0  0  0999 V2000
    5.7441  -12.4990   26.3786 C   0  0  0  0  0  0  0  0  0  0  0  0
    6.8990  -13.4587   27.4188 S   0  0  0  0  0  0  0  0  0  0  0  0
    7.2735  -15.0484   26.5864 C   0  0  0  0  0  0  0  0  0  0  0  0
    6.2679  -15.2081   25.4938 C   0  0  0  0  0  0  0  0  0  0  0  0
    6.1369  -16.5861   24.9369 C   0  0  2  0  0  0  0  0  0  0  0  0
    5.6859  -17.5619   25.9065 N   0  0  0  0  0  0  0  0  0  0  0  0
    7.3603  -17.0474   24.2031 C   0  0  0  0  0  0  0  0  0  0  0  0
    7.2508  -18.1428   23.6042 O   0  0  0  0  0  0  0  0  0  0  0  0
    7.9309  -15.6270   17.9208 N   0  0  0  0  0  0  0  0  0  0  0  0
    8.2068  -14.2208   17.8645 C   0  0  0  0  0  0  0  0  0  0  0  0
    8.8250  -13.6890   16.8434 N   0  0  0  0  0  0  0  0  0  0  0  0
    7.8287  -13.3377   18.9008 N   0  0  0  0  0  0  0  0  0  0  0  0
    7.3783  -13.8603   20.1740 C   0  0  0  0  0  0  0  0  0  0  0  0
    8.5393  -14.5167   20.8964 C   0  0  0  0  0  0  0  0  0  0  0  0
    8.1309  -15.1972   22.1522 C   0  0  0  0  0  0  0  0  0  0  0  0
    9.1935  -15.8637   22.9497 C   0  0  2  0  0  0  0  0  0  0  0  0
    8.5436  -16.2801   24.2052 N   0  0  0  0  0  0  0  0  0  0  0  0
   10.3335  -15.0122   23.3503 C   0  0  0  0  0  0  0  0  0  0  0  0
   10.1693  -13.7571   23.5861 O   0  0  0  0  0  0  0  0  0  0  0  0
    9.0508  -12.6791   16.9166 C   0  0  0  0  0  0  0  0  0  0  0  0
   10.0330  -13.5247   27.8056 S   0  0  0  0  0  0  0  0  0  0  0  0
   10.2082  -15.2544   28.3816 C   0  0  0  0  0  0  0  0  0  0  0  0
   11.3345  -16.0741   27.1916 C   0  0  0  0  0  0  0  0  0  0  0  0
   10.9304  -15.7680   25.7904 C   0  0  2  0  0  0  0  0  0  0  0  0
   12.0723  -15.9444   24.8410 N   0  0  0  0  0  0  0  0  0  0  0  0
   11.6111  -15.5840   23.4769 C   0  0  0  0  0  0  0  0  0  0  0  0
   12.6384  -17.2966   24.8212 O   0  0  0  0  0  0  0  0  0  0  0  0
   12.3116  -18.1314   23.9668 O   0  0  0  0  0  0  0  0  0  0  0  0
  2  1  1  0
  3  2  1  0
  4  3  1  0
  5  4  1  0
  5  6  1  1
  7  8  2  0
  7  5  1  0
  9 10  1  0
 10 11  2  0
 12 10  1  0
 12 13  1  0
 13 14  1  0
 15 14  1  0
 16 15  1  6
 16 17  1  0
 17  7  1  0
 18 16  1  0
 18 19  2  0
 21 20  1  0
 22 23  1  0
 22 21  1  0
 24 25  1  0
 24 23  1  1
 25 18  1  0
 26 24  1  0
 27 26  2  0
 28 26  1  0
M  END
$$$$
