MRM.pdb
     RDKit          3D

 28 27  0  0  1  0  0  0  0  0999 V2000
    7.7157  -11.6550   27.1886 C   0  0  0  0  0  0  0  0  0  0  0  0
    6.0897  -11.6186   26.3569 S   0  0  0  0  0  0  0  0  0  0  0  0
    5.5176  -13.3391   26.0869 C   0  0  0  0  0  0  0  0  0  0  0  0
    6.6532  -14.0749   25.4548 C   0  0  0  0  0  0  0  0  0  0  0  0
    6.3814  -15.5000   25.1066 C   0  0  2  0  0  0  0  0  0  0  0  0
    5.6613  -16.2202   26.1354 N   0  0  0  0  0  0  0  0  0  0  0  0
    7.6022  -16.2420   24.6515 C   0  0  0  0  0  0  0  0  0  0  0  0
    8.1622  -16.9478   25.5225 O   0  0  0  0  0  0  0  0  0  0  0  0
    6.6858  -13.9689   19.2526 N   0  0  0  0  0  0  0  0  0  0  0  0
    7.9703  -13.4887   18.8329 C   0  0  0  0  0  0  0  0  0  0  0  0
    8.1983  -12.2131   18.6647 N   0  0  0  0  0  0  0  0  0  0  0  0
    9.0536  -14.3602   18.5802 N   0  0  0  0  0  0  0  0  0  0  0  0
    9.0850  -15.6761   19.1837 C   0  0  0  0  0  0  0  0  0  0  0  0
    9.1159  -15.5447   20.6945 C   0  0  0  0  0  0  0  0  0  0  0  0
    9.2035  -16.8551   21.3890 C   0  0  0  0  0  0  0  0  0  0  0  0
    9.2787  -16.8426   22.8734 C   0  0  2  0  0  0  0  0  0  0  0  0
    8.0686  -16.1329   23.3250 N   0  0  0  0  0  0  0  0  0  0  0  0
   10.4188  -16.1058   23.4584 C   0  0  0  0  0  0  0  0  0  0  0  0
   10.3806  -14.8253   23.5886 O   0  0  0  0  0  0  0  0  0  0  0  0
    9.1740  -11.9458   18.4350 C   0  0  0  0  0  0  0  0  0  0  0  0
   10.2061  -13.7912   28.6482 S   0  0  0  0  0  0  0  0  0  0  0  0
   10.6842  -15.5529   28.7963 C   0  0  0  0  0  0  0  0  0  0  0  0
   11.9325  -15.8518   27.4890 C   0  0  0  0  0  0  0  0  0  0  0  0
   11.2703  -16.2144   26.2044 C   0  0  1  0  0  0  0  0  0  0  0  0
   12.2623  -16.3296   25.0912 N   0  0  0  0  0  0  0  0  0  0  0  0
   11.5565  -16.8156   23.8792 C   0  0  0  0  0  0  0  0  0  0  0  0
   13.3957  -17.2132   25.3808 O   0  0  0  0  0  0  0  0  0  0  0  0
   13.3003  -18.4459   25.3099 O   0  0  0  0  0  0  0  0  0  0  0  0
  2  1  1  0
  3  2  1  0
  4  3  1  0
  5  4  1  0
  5  6  1  1
  7  8  2  0
  7  5  1  0
  9 10  1  0
 10 11  2  0
 12 10  1  0
 12 13  1  0
 13 14  1  0
 15 14  1  0
 16 15  1  6
 16 17  1  0
 17  7  1  0
 18 16  1  0
 18 19  2  0
 21 20  1  0
 22 23  1  0
 22 21  1  0
 24 25  1  0
 24 23  1  6
 25 18  1  0
 26 24  1  0
 27 26  2  0
 28 26  1  0
M  END
$$$$
