MRM.pdb
     RDKit          3D

 28 27  0  0  1  0  0  0  0  0999 V2000
   13.8189  -13.9914   18.3029 C   0  0  0  0  0  0  0  0  0  0  0  0
   15.0202  -15.2823   18.7798 S   0  0  0  0  0  0  0  0  0  0  0  0
   14.2771  -16.3394   20.0801 C   0  0  0  0  0  0  0  0  0  0  0  0
   13.1073  -17.0279   19.4571 C   0  0  0  0  0  0  0  0  0  0  0  0
   12.0775  -17.5351   20.4101 C   0  0  2  0  0  0  0  0  0  0  0  0
   11.0416  -18.3238   19.7773 N   0  0  0  0  0  0  0  0  0  0  0  0
   11.5085  -16.4648   21.2925 C   0  0  0  0  0  0  0  0  0  0  0  0
   12.3251  -15.9084   22.0632 O   0  0  0  0  0  0  0  0  0  0  0  0
    8.0685  -15.3775   16.2623 N   0  0  0  0  0  0  0  0  0  0  0  0
    8.1206  -14.2717   17.1740 C   0  0  0  0  0  0  0  0  0  0  0  0
    9.0104  -13.3237   17.0437 N   0  0  0  0  0  0  0  0  0  0  0  0
    7.2200  -14.1451   18.2555 N   0  0  0  0  0  0  0  0  0  0  0  0
    7.5002  -13.2166   19.3309 C   0  0  0  0  0  0  0  0  0  0  0  0
    8.7433  -13.6604   20.0782 C   0  0  0  0  0  0  0  0  0  0  0  0
    8.4376  -14.4975   21.2668 C   0  0  0  0  0  0  0  0  0  0  0  0
    9.5858  -15.0276   22.0479 C   0  0  2  0  0  0  0  0  0  0  0  0
   10.1400  -16.1281   21.2393 N   0  0  0  0  0  0  0  0  0  0  0  0
    9.2574  -15.6200   23.3618 C   0  0  0  0  0  0  0  0  0  0  0  0
   10.0208  -16.5098   23.8942 O   0  0  0  0  0  0  0  0  0  0  0  0
    9.0806  -12.6470   17.8269 C   0  0  0  0  0  0  0  0  0  0  0  0
    5.7342  -11.4738   27.1410 S   0  0  0  0  0  0  0  0  0  0  0  0
    7.4261  -11.7393   27.7899 C   0  0  0  0  0  0  0  0  0  0  0  0
    7.8698  -13.4641   27.3602 C   0  0  0  0  0  0  0  0  0  0  0  0
    7.8120  -13.6690   25.8855 C   0  0  2  0  0  0  0  0  0  0  0  0
    8.1694  -15.0728   25.5138 N   0  0  0  0  0  0  0  0  0  0  0  0
    8.0977  -15.2021   24.0369 C   0  0  0  0  0  0  0  0  0  0  0  0
    7.3218  -16.0962   26.1330 O   0  0  0  0  0  0  0  0  0  0  0  0
    6.2450  -16.4465   25.6316 O   0  0  0  0  0  0  0  0  0  0  0  0
  2  1  1  0
  3  2  1  0
  4  3  1  0
  5  4  1  0
  5  6  1  6
  7  8  2  0
  7  5  1  0
  9 10  1  0
 10 11  2  0
 12 10  1  0
 12 13  1  0
 13 14  1  0
 15 14  1  0
 16 15  1  6
 16 17  1  0
 17  7  1  0
 18 16  1  0
 18 19  2  0
 21 20  1  0
 22 23  1  0
 22 21  1  0
 24 25  1  0
 24 23  1  6
 25 18  1  0
 26 24  1  0
 27 26  2  0
 28 26  1  0
M  END
$$$$
