MRM.pdb
     RDKit          3D

 28 27  0  0  1  0  0  0  0  0999 V2000
    7.8879  -11.2039   21.1415 C   0  0  0  0  0  0  0  0  0  0  0  0
    8.4787  -11.9402   19.5776 S   0  0  0  0  0  0  0  0  0  0  0  0
    7.4443  -13.3992   19.1753 C   0  0  0  0  0  0  0  0  0  0  0  0
    7.4836  -14.2956   20.3693 C   0  0  0  0  0  0  0  0  0  0  0  0
    8.1486  -15.6149   20.1610 C   0  0  2  0  0  0  0  0  0  0  0  0
    7.5648  -16.3948   19.0903 N   0  0  0  0  0  0  0  0  0  0  0  0
    8.2920  -16.4119   21.4227 C   0  0  0  0  0  0  0  0  0  0  0  0
    7.2233  -16.8457   21.9128 O   0  0  0  0  0  0  0  0  0  0  0  0
   12.6403  -17.8106   18.9943 N   0  0  0  0  0  0  0  0  0  0  0  0
   11.5205  -18.6333   18.6394 C   0  0  0  0  0  0  0  0  0  0  0  0
   11.0385  -18.6395   17.4249 N   0  0  0  0  0  0  0  0  0  0  0  0
   10.8806  -19.4774   19.5747 N   0  0  0  0  0  0  0  0  0  0  0  0
   11.3575  -19.5439   20.9404 C   0  0  0  0  0  0  0  0  0  0  0  0
   10.1960  -19.3534   21.8971 C   0  0  0  0  0  0  0  0  0  0  0  0
   10.5399  -18.5015   23.0645 C   0  0  0  0  0  0  0  0  0  0  0  0
    9.6996  -17.3002   23.3102 C   0  0  2  0  0  0  0  0  0  0  0  0
    9.5583  -16.6414   21.9994 N   0  0  0  0  0  0  0  0  0  0  0  0
   10.2747  -16.2806   24.2128 C   0  0  0  0  0  0  0  0  0  0  0  0
   10.7073  -15.1590   23.7514 O   0  0  0  0  0  0  0  0  0  0  0  0
   10.2598  -19.3001   17.2416 C   0  0  0  0  0  0  0  0  0  0  0  0
    6.0055  -12.9128   27.2796 S   0  0  0  0  0  0  0  0  0  0  0  0
    7.5163  -12.3240   26.4280 C   0  0  0  0  0  0  0  0  0  0  0  0
    8.8823  -13.3903   27.0224 C   0  0  0  0  0  0  0  0  0  0  0  0
    9.0389  -14.5821   26.1418 C   0  0  2  0  0  0  0  0  0  0  0  0
   10.2430  -15.3854   26.5176 N   0  0  0  0  0  0  0  0  0  0  0  0
   10.3462  -16.5412   25.5920 C   0  0  0  0  0  0  0  0  0  0  0  0
   10.2387  -15.8697   27.9013 O   0  0  0  0  0  0  0  0  0  0  0  0
    9.7345  -16.9569   28.2134 O   0  0  0  0  0  0  0  0  0  0  0  0
  2  1  1  0
  3  2  1  0
  4  3  1  0
  5  4  1  0
  5  6  1  6
  7  8  2  0
  7  5  1  0
  9 10  1  0
 10 11  2  0
 12 10  1  0
 12 13  1  0
 13 14  1  0
 15 14  1  0
 16 15  1  6
 16 17  1  0
 17  7  1  0
 18 16  1  0
 18 19  2  0
 21 20  1  0
 22 23  1  0
 22 21  1  0
 24 25  1  0
 24 23  1  6
 25 18  1  0
 26 24  1  0
 27 26  2  0
 28 26  1  0
M  END
$$$$
