MRM.pdb
     RDKit          3D

 28 27  0  0  1  0  0  0  0  0999 V2000
    6.6858  -10.3102   26.0904 C   0  0  0  0  0  0  0  0  0  0  0  0
    6.2053  -11.8462   26.9546 S   0  0  0  0  0  0  0  0  0  0  0  0
    5.2410  -12.9013   25.8070 C   0  0  0  0  0  0  0  0  0  0  0  0
    6.0476  -14.1377   25.5804 C   0  0  0  0  0  0  0  0  0  0  0  0
    7.3226  -13.9449   24.8300 C   0  0  2  0  0  0  0  0  0  0  0  0
    7.1740  -13.1468   23.6315 N   0  0  0  0  0  0  0  0  0  0  0  0
    8.0534  -15.2268   24.5641 C   0  0  0  0  0  0  0  0  0  0  0  0
    8.0076  -16.0763   25.4843 O   0  0  0  0  0  0  0  0  0  0  0  0
    8.1866  -20.1843   18.1703 N   0  0  0  0  0  0  0  0  0  0  0  0
    9.5771  -20.3758   18.4641 C   0  0  0  0  0  0  0  0  0  0  0  0
   10.2765  -21.3056   17.8694 N   0  0  0  0  0  0  0  0  0  0  0  0
   10.2644  -19.5762   19.4049 N   0  0  0  0  0  0  0  0  0  0  0  0
    9.6231  -18.4098   19.9751 C   0  0  0  0  0  0  0  0  0  0  0  0
   10.4947  -17.8337   21.0747 C   0  0  0  0  0  0  0  0  0  0  0  0
    9.9264  -16.6016   21.6797 C   0  0  0  0  0  0  0  0  0  0  0  0
    9.5226  -16.6609   23.1090 C   0  0  2  0  0  0  0  0  0  0  0  0
    8.7404  -15.4354   23.3503 N   0  0  0  0  0  0  0  0  0  0  0  0
   10.6235  -16.6360   24.0951 C   0  0  0  0  0  0  0  0  0  0  0  0
   11.4652  -15.6619   24.1205 O   0  0  0  0  0  0  0  0  0  0  0  0
   11.2614  -21.4098   18.1784 C   0  0  0  0  0  0  0  0  0  0  0  0
    9.2352  -14.2278   28.7278 S   0  0  0  0  0  0  0  0  0  0  0  0
   10.3102  -15.6327   29.2024 C   0  0  0  0  0  0  0  0  0  0  0  0
   11.3804  -15.9653   27.7530 C   0  0  0  0  0  0  0  0  0  0  0  0
   11.2942  -17.3986   27.3551 C   0  0  2  0  0  0  0  0  0  0  0  0
   11.8660  -17.6230   25.9916 N   0  0  0  0  0  0  0  0  0  0  0  0
   10.7485  -17.6895   25.0168 C   0  0  0  0  0  0  0  0  0  0  0  0
   12.6876  -18.8313   25.8722 O   0  0  0  0  0  0  0  0  0  0  0  0
   12.2859  -19.8408   25.2779 O   0  0  0  0  0  0  0  0  0  0  0  0
  2  1  1  0
  3  2  1  0
  4  3  1  0
  5  4  1  0
  5  6  1  6
  7  8  2  0
  7  5  1  0
  9 10  1  0
 10 11  2  0
 12 10  1  0
 12 13  1  0
 13 14  1  0
 15 14  1  0
 16 15  1  6
 16 17  1  0
 17  7  1  0
 18 16  1  0
 18 19  2  0
 21 20  1  0
 22 23  1  0
 22 21  1  0
 24 25  1  0
 24 23  1  6
 25 18  1  0
 26 24  1  0
 27 26  2  0
 28 26  1  0
M  END
$$$$
