MRM.pdb
     RDKit          3D

 28 27  0  0  1  0  0  0  0  0999 V2000
    7.0263  -11.9498   27.9646 C   0  0  0  0  0  0  0  0  0  0  0  0
    5.8753  -11.6082   26.5879 S   0  0  0  0  0  0  0  0  0  0  0  0
    4.9458  -13.1377   26.1920 C   0  0  0  0  0  0  0  0  0  0  0  0
    5.9515  -14.2374   26.0919 C   0  0  0  0  0  0  0  0  0  0  0  0
    7.0892  -13.9852   25.1602 C   0  0  2  0  0  0  0  0  0  0  0  0
    6.8922  -12.8347   24.3039 N   0  0  0  0  0  0  0  0  0  0  0  0
    7.4993  -15.2001   24.3832 C   0  0  0  0  0  0  0  0  0  0  0  0
    7.3948  -16.2912   24.9906 O   0  0  0  0  0  0  0  0  0  0  0  0
    8.1233  -15.3768   15.9738 N   0  0  0  0  0  0  0  0  0  0  0  0
    8.6634  -14.5873   17.0423 C   0  0  0  0  0  0  0  0  0  0  0  0
    8.9154  -13.3145   16.8878 N   0  0  0  0  0  0  0  0  0  0  0  0
    8.9507  -15.1361   18.3124 N   0  0  0  0  0  0  0  0  0  0  0  0
    8.8514  -16.5647   18.5272 C   0  0  0  0  0  0  0  0  0  0  0  0
    9.1516  -16.8852   19.9791 C   0  0  0  0  0  0  0  0  0  0  0  0
    8.5543  -15.9072   20.9244 C   0  0  0  0  0  0  0  0  0  0  0  0
    8.6116  -16.2296   22.3743 C   0  0  2  0  0  0  0  0  0  0  0  0
    7.9698  -15.0926   23.0581 N   0  0  0  0  0  0  0  0  0  0  0  0
    9.9640  -16.3400   22.9607 C   0  0  0  0  0  0  0  0  0  0  0  0
   10.7197  -17.3474   22.6924 O   0  0  0  0  0  0  0  0  0  0  0  0
    9.3132  -12.8207   17.7089 C   0  0  0  0  0  0  0  0  0  0  0  0
    9.6792  -14.4646   28.8841 S   0  0  0  0  0  0  0  0  0  0  0  0
   11.4352  -14.8903   28.5846 C   0  0  0  0  0  0  0  0  0  0  0  0
   11.4272  -16.2245   27.3291 C   0  0  0  0  0  0  0  0  0  0  0  0
   10.5580  -15.8553   26.1766 C   0  0  2  0  0  0  0  0  0  0  0  0
   11.3494  -15.7249   24.9144 N   0  0  0  0  0  0  0  0  0  0  0  0
   10.4287  -15.3291   23.8194 C   0  0  0  0  0  0  0  0  0  0  0  0
   12.0723  -16.9397   24.5262 O   0  0  0  0  0  0  0  0  0  0  0  0
   13.3078  -16.9701   24.4468 O   0  0  0  0  0  0  0  0  0  0  0  0
  2  1  1  0
  3  2  1  0
  4  3  1  0
  5  4  1  0
  5  6  1  6
  7  8  2  0
  7  5  1  0
  9 10  1  0
 10 11  2  0
 12 10  1  0
 12 13  1  0
 13 14  1  0
 15 14  1  0
 16 15  1  6
 16 17  1  0
 17  7  1  0
 18 16  1  0
 18 19  2  0
 21 20  1  0
 22 23  1  0
 22 21  1  0
 24 25  1  0
 24 23  1  1
 25 18  1  0
 26 24  1  0
 27 26  2  0
 28 26  1  0
M  END
$$$$
