SQV.pdb
     RDKit          3D

 23 22  0  0  1  0  0  0  0  0999 V2000
   25.0764  -12.7568  -15.6332 O   0  0  0  0  0  0  0  0  0  0  0  0
   24.5568  -11.4992  -15.9452 C   0  0  0  0  0  0  0  0  0  0  0  0
   23.1905  -11.6316  -16.5632 C   0  0  2  0  0  0  0  0  0  0  0  0
   23.3230  -12.2220  -17.8607 N   0  0  0  0  0  0  0  0  0  0  0  0
   22.4627  -10.3544  -16.6182 C   0  0  0  0  0  0  0  0  0  0  0  0
   22.3892   -9.6704  -17.6567 O   0  0  0  0  0  0  0  0  0  0  0  0
   17.2659   -9.6831  -13.6067 N   0  0  0  0  0  0  0  0  0  0  0  0
   17.5887  -10.1632  -14.8993 C   0  0  0  0  0  0  0  0  0  0  0  0
   16.7587  -10.8590  -15.5307 O   0  0  0  0  0  0  0  0  0  0  0  0
   18.8839   -9.8479  -15.4928 C   0  0  0  0  0  0  0  0  0  0  0  0
   19.7644   -9.0214  -14.5936 C   0  0  0  0  0  0  0  0  0  0  0  0
   21.0367   -8.6830  -15.3797 C   0  0  2  0  0  0  0  0  0  0  0  0
   21.8176   -9.8726  -15.4565 N   0  0  0  0  0  0  0  0  0  0  0  0
   21.7234   -7.5171  -14.8467 C   0  0  0  0  0  0  0  0  0  0  0  0
   22.4080   -7.6222  -13.8009 O   0  0  0  0  0  0  0  0  0  0  0  0
   23.8836   -4.8584  -16.8308 C   0  0  0  0  0  0  0  0  0  0  0  0
   22.9038   -4.1481  -15.9251 C   0  0  1  0  0  0  0  0  0  0  0  0
   21.7313   -3.7200  -16.7753 C   0  0  0  0  0  0  0  0  0  0  0  0
   22.4047   -5.1086  -14.8841 C   0  0  2  0  0  0  0  0  0  0  0  0
   21.6808   -6.2263  -15.4329 N   0  0  0  0  0  0  0  0  0  0  0  0
   21.5233   -4.3655  -13.9495 C   0  0  0  0  0  0  0  0  0  0  0  0
   21.9603   -3.4096  -13.0595 O   0  0  0  0  0  0  0  0  0  0  0  0
   20.2662   -4.5987  -13.9378 O   0  0  0  0  0  0  0  0  0  0  0  0
  2  1  1  0
  3  2  1  0
  3  5  1  0
  3  4  1  6
  5  6  2  0
  7  8  1  0
  8  9  2  0
  8 10  1  0
 10 11  1  0
 12 11  1  1
 12 14  1  0
 13 12  1  0
 13  5  1  0
 14 20  1  0
 15 14  2  0
 17 16  1  6
 17 19  1  0
 18 17  1  0
 19 21  1  0
 19 20  1  6
 21 23  2  0
 21 22  1  0
M  END
$$$$
