SQV.pdb
     RDKit          3D

 23 22  0  0  1  0  0  0  0  0999 V2000
   15.6291  -14.9195  -13.9970 O   0  0  0  0  0  0  0  0  0  0  0  0
   16.6814  -14.0484  -14.2847 C   0  0  0  0  0  0  0  0  0  0  0  0
   16.6658  -13.6653  -15.7405 C   0  0  2  0  0  0  0  0  0  0  0  0
   16.9303  -14.8299  -16.5300 N   0  0  0  0  0  0  0  0  0  0  0  0
   17.5995  -12.5723  -16.0531 C   0  0  0  0  0  0  0  0  0  0  0  0
   18.7575  -12.7784  -16.4633 O   0  0  0  0  0  0  0  0  0  0  0  0
   15.5519   -6.6001  -16.9399 N   0  0  0  0  0  0  0  0  0  0  0  0
   16.9600   -6.5293  -17.0729 C   0  0  0  0  0  0  0  0  0  0  0  0
   17.5019   -5.4446  -17.3916 O   0  0  0  0  0  0  0  0  0  0  0  0
   17.7759   -7.7162  -16.8392 C   0  0  0  0  0  0  0  0  0  0  0  0
   16.9687   -8.9241  -16.4438 C   0  0  0  0  0  0  0  0  0  0  0  0
   17.9504  -10.0802  -16.2182 C   0  0  2  0  0  0  0  0  0  0  0  0
   17.1805  -11.2328  -15.8866 N   0  0  0  0  0  0  0  0  0  0  0  0
   19.0021   -9.7375  -15.2742 C   0  0  0  0  0  0  0  0  0  0  0  0
   18.7409   -9.6692  -14.0493 O   0  0  0  0  0  0  0  0  0  0  0  0
   22.6831  -11.0896  -14.8103 C   0  0  0  0  0  0  0  0  0  0  0  0
   22.7050   -9.5846  -14.9482 C   0  0  1  0  0  0  0  0  0  0  0  0
   23.0650   -9.2673  -16.3803 C   0  0  0  0  0  0  0  0  0  0  0  0
   21.3314   -9.0416  -14.6767 C   0  0  2  0  0  0  0  0  0  0  0  0
   20.3457   -9.4645  -15.6379 N   0  0  0  0  0  0  0  0  0  0  0  0
   21.4088   -7.5595  -14.6742 C   0  0  0  0  0  0  0  0  0  0  0  0
   20.7469   -6.7429  -15.5641 O   0  0  0  0  0  0  0  0  0  0  0  0
   22.1282   -6.9606  -13.8033 O   0  0  0  0  0  0  0  0  0  0  0  0
  2  1  1  0
  3  2  1  0
  3  5  1  0
  3  4  1  6
  5  6  2  0
  7  8  1  0
  8  9  2  0
  8 10  1  0
 10 11  1  0
 12 11  1  1
 12 14  1  0
 13 12  1  0
 13  5  1  0
 14 20  1  0
 15 14  2  0
 17 16  1  6
 17 19  1  0
 18 17  1  0
 19 21  1  0
 19 20  1  6
 21 23  2  0
 21 22  1  0
M  END
$$$$
