SQV.pdb
     RDKit          3D

 23 22  0  0  1  0  0  0  0  0999 V2000
   13.0425  -10.8044  -13.8332 O   0  0  0  0  0  0  0  0  0  0  0  0
   14.4300  -10.6938  -13.9409 C   0  0  0  0  0  0  0  0  0  0  0  0
   14.9380  -11.5278  -15.0866 C   0  0  2  0  0  0  0  0  0  0  0  0
   14.6603  -12.9061  -14.8166 N   0  0  0  0  0  0  0  0  0  0  0  0
   16.3650  -11.3049  -15.3661 C   0  0  0  0  0  0  0  0  0  0  0  0
   17.2664  -11.9563  -14.8050 O   0  0  0  0  0  0  0  0  0  0  0  0
   19.9068  -11.4241  -18.8578 N   0  0  0  0  0  0  0  0  0  0  0  0
   18.6108  -11.6358  -19.3880 C   0  0  0  0  0  0  0  0  0  0  0  0
   18.3952  -12.6220  -20.1314 O   0  0  0  0  0  0  0  0  0  0  0  0
   17.5310  -10.7078  -19.0688 C   0  0  0  0  0  0  0  0  0  0  0  0
   17.9717   -9.5587  -18.2013 C   0  0  0  0  0  0  0  0  0  0  0  0
   18.0707  -10.0796  -16.7626 C   0  0  2  0  0  0  0  0  0  0  0  0
   16.7424  -10.3176  -16.3045 N   0  0  0  0  0  0  0  0  0  0  0  0
   18.8795   -9.2172  -15.9158 C   0  0  0  0  0  0  0  0  0  0  0  0
   18.3509   -8.2343  -15.3432 O   0  0  0  0  0  0  0  0  0  0  0  0
   22.0527  -10.5008  -13.5976 C   0  0  0  0  0  0  0  0  0  0  0  0
   22.3089   -9.1983  -14.3205 C   0  0  1  0  0  0  0  0  0  0  0  0
   23.0971   -9.5212  -15.5678 C   0  0  0  0  0  0  0  0  0  0  0  0
   20.9976   -8.5951  -14.7353 C   0  0  2  0  0  0  0  0  0  0  0  0
   20.2651   -9.4030  -15.6763 N   0  0  0  0  0  0  0  0  0  0  0  0
   21.2664   -7.2652  -15.3367 C   0  0  0  0  0  0  0  0  0  0  0  0
   21.6503   -6.1508  -14.6243 O   0  0  0  0  0  0  0  0  0  0  0  0
   21.1448   -7.1003  -16.5988 O   0  0  0  0  0  0  0  0  0  0  0  0
  2  1  1  0
  3  2  1  0
  3  5  1  0
  3  4  1  1
  5  6  2  0
  7  8  1  0
  8  9  2  0
  8 10  1  0
 10 11  1  0
 12 11  1  6
 12 14  1  0
 13 12  1  0
 13  5  1  0
 14 20  1  0
 15 14  2  0
 17 16  1  6
 17 19  1  0
 18 17  1  0
 19 21  1  0
 19 20  1  6
 21 23  2  0
 21 22  1  0
M  END
$$$$
