SQV.pdb
     RDKit          3D

 23 22  0  0  1  0  0  0  0  0999 V2000
   18.1079  -13.0894  -14.7205 O   0  0  0  0  0  0  0  0  0  0  0  0
   18.6290  -12.0038  -15.4267 C   0  0  0  0  0  0  0  0  0  0  0  0
   17.5209  -11.2072  -16.0622 C   0  0  2  0  0  0  0  0  0  0  0  0
   17.1852  -11.8009  -17.3210 N   0  0  0  0  0  0  0  0  0  0  0  0
   17.8523   -9.7809  -16.2044 C   0  0  0  0  0  0  0  0  0  0  0  0
   18.4061   -9.3209  -17.2209 O   0  0  0  0  0  0  0  0  0  0  0  0
   14.1916   -5.3992  -14.3301 N   0  0  0  0  0  0  0  0  0  0  0  0
   14.4734   -5.8508  -15.6424 C   0  0  0  0  0  0  0  0  0  0  0  0
   13.6627   -5.6163  -16.5695 O   0  0  0  0  0  0  0  0  0  0  0  0
   15.7042   -6.5865  -15.9127 C   0  0  0  0  0  0  0  0  0  0  0  0
   16.5761   -6.7536  -14.6966 C   0  0  0  0  0  0  0  0  0  0  0  0
   17.8435   -7.4958  -15.1373 C   0  0  2  0  0  0  0  0  0  0  0  0
   17.5362   -8.8872  -15.1561 N   0  0  0  0  0  0  0  0  0  0  0  0
   19.0065   -7.1224  -14.3482 C   0  0  0  0  0  0  0  0  0  0  0  0
   19.0925   -7.4930  -13.1529 O   0  0  0  0  0  0  0  0  0  0  0  0
   22.4550   -8.1504  -14.8229 C   0  0  0  0  0  0  0  0  0  0  0  0
   22.5297   -6.6437  -14.7287 C   0  0  1  0  0  0  0  0  0  0  0  0
   22.5741   -6.1045  -16.1388 C   0  0  0  0  0  0  0  0  0  0  0  0
   21.2855   -6.1260  -14.0657 C   0  0  2  0  0  0  0  0  0  0  0  0
   20.0890   -6.3467  -14.8364 N   0  0  0  0  0  0  0  0  0  0  0  0
   21.4549   -4.6706  -13.8300 C   0  0  0  0  0  0  0  0  0  0  0  0
   22.3385   -4.1250  -12.9253 O   0  0  0  0  0  0  0  0  0  0  0  0
   20.7515   -3.8320  -14.4910 O   0  0  0  0  0  0  0  0  0  0  0  0
  2  1  1  0
  3  2  1  0
  3  5  1  0
  3  4  1  6
  5  6  2  0
  7  8  1  0
  8  9  2  0
  8 10  1  0
 10 11  1  0
 12 11  1  1
 12 14  1  0
 13 12  1  0
 13  5  1  0
 14 20  1  0
 15 14  2  0
 17 16  1  6
 17 19  1  0
 18 17  1  0
 19 21  1  0
 19 20  1  6
 21 23  2  0
 21 22  1  0
M  END
$$$$
