SQV.pdb
     RDKit          3D

 23 22  0  0  1  0  0  0  0  0999 V2000
   25.4604  -12.9565  -16.0485 O   0  0  0  0  0  0  0  0  0  0  0  0
   24.9621  -11.6622  -16.2077 C   0  0  0  0  0  0  0  0  0  0  0  0
   23.6219  -11.6937  -16.8926 C   0  0  2  0  0  0  0  0  0  0  0  0
   23.8062  -12.0914  -18.2556 N   0  0  0  0  0  0  0  0  0  0  0  0
   22.8990  -10.4164  -16.7915 C   0  0  0  0  0  0  0  0  0  0  0  0
   23.1009   -9.4696  -17.5753 O   0  0  0  0  0  0  0  0  0  0  0  0
   17.1616  -11.8435  -15.8460 N   0  0  0  0  0  0  0  0  0  0  0  0
   17.7345  -10.6661  -15.3068 C   0  0  0  0  0  0  0  0  0  0  0  0
   17.1810  -10.0898  -14.3407 O   0  0  0  0  0  0  0  0  0  0  0  0
   18.9653  -10.1267  -15.8753 C   0  0  0  0  0  0  0  0  0  0  0  0
   19.8684   -9.4968  -14.8483 C   0  0  0  0  0  0  0  0  0  0  0  0
   21.1542   -9.0693  -15.5661 C   0  0  2  0  0  0  0  0  0  0  0  0
   21.9364  -10.2428  -15.7713 N   0  0  0  0  0  0  0  0  0  0  0  0
   21.8314   -7.9770  -14.8856 C   0  0  0  0  0  0  0  0  0  0  0  0
   22.5609   -8.2184  -13.8942 O   0  0  0  0  0  0  0  0  0  0  0  0
   23.9741   -5.2166  -16.5198 C   0  0  0  0  0  0  0  0  0  0  0  0
   23.0349   -4.5455  -15.5440 C   0  0  1  0  0  0  0  0  0  0  0  0
   21.8912   -3.9669  -16.3429 C   0  0  0  0  0  0  0  0  0  0  0  0
   22.4784   -5.5753  -14.6032 C   0  0  2  0  0  0  0  0  0  0  0  0
   21.7309   -6.6138  -15.2644 N   0  0  0  0  0  0  0  0  0  0  0  0
   21.6000   -4.8862  -13.6254 C   0  0  0  0  0  0  0  0  0  0  0  0
   22.0464   -4.0228  -12.6497 O   0  0  0  0  0  0  0  0  0  0  0  0
   20.3366   -5.0801  -13.6567 O   0  0  0  0  0  0  0  0  0  0  0  0
  2  1  1  0
  3  2  1  0
  3  5  1  0
  3  4  1  6
  5  6  2  0
  7  8  1  0
  8  9  2  0
  8 10  1  0
 10 11  1  0
 12 11  1  1
 12 14  1  0
 13 12  1  0
 13  5  1  0
 14 20  1  0
 15 14  2  0
 17 16  1  6
 17 19  1  0
 18 17  1  0
 19 21  1  0
 19 20  1  6
 21 23  2  0
 21 22  1  0
M  END
$$$$
