SQV.pdb
     RDKit          3D

 23 22  0  0  1  0  0  0  0  0999 V2000
   27.4510  -16.4277  -18.7092 O   0  0  0  0  0  0  0  0  0  0  0  0
   27.0079  -16.8963  -17.4711 C   0  0  0  0  0  0  0  0  0  0  0  0
   25.5157  -16.7380  -17.3507 C   0  0  2  0  0  0  0  0  0  0  0  0
   25.1844  -15.3507  -17.4742 N   0  0  0  0  0  0  0  0  0  0  0  0
   24.9785  -17.3173  -16.1097 C   0  0  0  0  0  0  0  0  0  0  0  0
   25.1287  -16.7748  -14.9984 O   0  0  0  0  0  0  0  0  0  0  0  0
   19.9153  -18.9058  -15.0099 N   0  0  0  0  0  0  0  0  0  0  0  0
   20.4271  -19.8488  -14.0857 C   0  0  0  0  0  0  0  0  0  0  0  0
   19.7616  -20.1459  -13.0656 O   0  0  0  0  0  0  0  0  0  0  0  0
   21.7254  -20.4718  -14.3217 C   0  0  0  0  0  0  0  0  0  0  0  0
   22.4339  -19.9282  -15.5339 C   0  0  0  0  0  0  0  0  0  0  0  0
   23.6986  -19.2119  -15.0453 C   0  0  2  0  0  0  0  0  0  0  0  0
   24.2629  -18.5348  -16.1651 N   0  0  0  0  0  0  0  0  0  0  0  0
   24.6004  -20.1038  -14.3338 C   0  0  0  0  0  0  0  0  0  0  0  0
   25.2626  -20.9574  -14.9713 O   0  0  0  0  0  0  0  0  0  0  0  0
   26.0410  -19.3801  -10.4505 C   0  0  0  0  0  0  0  0  0  0  0  0
   25.7402  -20.8246  -10.7785 C   0  0  1  0  0  0  0  0  0  0  0  0
   24.3684  -21.1364  -10.2290 C   0  0  0  0  0  0  0  0  0  0  0  0
   25.7002  -20.9966  -12.2699 C   0  0  2  0  0  0  0  0  0  0  0  0
   24.7992  -20.0870  -12.9296 N   0  0  0  0  0  0  0  0  0  0  0  0
   25.2917  -22.3921  -12.5667 C   0  0  0  0  0  0  0  0  0  0  0  0
   26.0803  -23.4992  -12.3446 O   0  0  0  0  0  0  0  0  0  0  0  0
   24.1370  -22.6260  -13.0634 O   0  0  0  0  0  0  0  0  0  0  0  0
  2  1  1  0
  3  2  1  0
  3  5  1  0
  3  4  1  1
  5  6  2  0
  7  8  1  0
  8  9  2  0
  8 10  1  0
 10 11  1  0
 12 11  1  6
 12 14  1  0
 13 12  1  0
 13  5  1  0
 14 20  1  0
 15 14  2  0
 17 16  1  6
 17 19  1  0
 18 17  1  0
 19 21  1  0
 19 20  1  6
 21 23  2  0
 21 22  1  0
M  END
$$$$
