SQV.pdb
     RDKit          3D

 23 22  0  0  1  0  0  0  0  0999 V2000
   28.6612  -25.3896  -17.5633 O   0  0  0  0  0  0  0  0  0  0  0  0
   28.0619  -24.4837  -16.6863 C   0  0  0  0  0  0  0  0  0  0  0  0
   28.2407  -23.0734  -17.1816 C   0  0  2  0  0  0  0  0  0  0  0  0
   29.6260  -22.8544  -17.4694 N   0  0  0  0  0  0  0  0  0  0  0  0
   27.7141  -22.0685  -16.2451 C   0  0  0  0  0  0  0  0  0  0  0  0
   28.4204  -21.5370  -15.3673 O   0  0  0  0  0  0  0  0  0  0  0  0
   22.0937  -18.8695  -14.3947 N   0  0  0  0  0  0  0  0  0  0  0  0
   22.7841  -18.9227  -15.6301 C   0  0  0  0  0  0  0  0  0  0  0  0
   22.1483  -19.1280  -16.6909 O   0  0  0  0  0  0  0  0  0  0  0  0
   24.2312  -18.7389  -15.6661 C   0  0  0  0  0  0  0  0  0  0  0  0
   24.9409  -19.7712  -16.5013 C   0  0  0  0  0  0  0  0  0  0  0  0
   25.7357  -20.6693  -15.5458 C   0  0  2  0  0  0  0  0  0  0  0  0
   26.3576  -21.6817  -16.3328 N   0  0  0  0  0  0  0  0  0  0  0  0
   24.9280  -21.1480  -14.4352 C   0  0  0  0  0  0  0  0  0  0  0  0
   23.9957  -21.9596  -14.6483 O   0  0  0  0  0  0  0  0  0  0  0  0
   26.4362  -21.1218  -10.7221 C   0  0  0  0  0  0  0  0  0  0  0  0
   24.9280  -21.0534  -10.6480 C   0  0  1  0  0  0  0  0  0  0  0  0
   24.5584  -19.6418  -10.2584 C   0  0  0  0  0  0  0  0  0  0  0  0
   24.3515  -21.3331  -12.0063 C   0  0  2  0  0  0  0  0  0  0  0  0
   25.1147  -20.7586  -13.0842 N   0  0  0  0  0  0  0  0  0  0  0  0
   22.9686  -20.7959  -12.0446 C   0  0  0  0  0  0  0  0  0  0  0  0
   21.9004  -21.3438  -11.3695 O   0  0  0  0  0  0  0  0  0  0  0  0
   22.7085  -19.7549  -12.7400 O   0  0  0  0  0  0  0  0  0  0  0  0
  2  1  1  0
  3  2  1  0
  3  5  1  0
  3  4  1  1
  5  6  2  0
  7  8  1  0
  8  9  2  0
  8 10  1  0
 10 11  1  0
 12 11  1  6
 12 14  1  0
 13 12  1  0
 13  5  1  0
 14 20  1  0
 15 14  2  0
 17 16  1  6
 17 19  1  0
 18 17  1  0
 19 21  1  0
 19 20  1  6
 21 23  2  0
 21 22  1  0
M  END
$$$$
