SQV.pdb
     RDKit          3D

 23 22  0  0  1  0  0  0  0  0999 V2000
   21.3772  -13.2359  -18.3469 O   0  0  0  0  0  0  0  0  0  0  0  0
   20.7589  -11.9852  -18.3003 C   0  0  0  0  0  0  0  0  0  0  0  0
   19.9677  -11.8352  -17.0284 C   0  0  2  0  0  0  0  0  0  0  0  0
   18.9019  -12.7912  -17.0290 N   0  0  0  0  0  0  0  0  0  0  0  0
   19.4703  -10.4659  -16.8236 C   0  0  0  0  0  0  0  0  0  0  0  0
   18.5748   -9.9666  -17.5311 O   0  0  0  0  0  0  0  0  0  0  0  0
   15.6106   -7.8040  -15.1064 N   0  0  0  0  0  0  0  0  0  0  0  0
   16.4366   -6.8036  -14.5386 C   0  0  0  0  0  0  0  0  0  0  0  0
   15.9423   -5.6984  -14.2128 O   0  0  0  0  0  0  0  0  0  0  0  0
   17.8584   -7.0601  -14.3342 C   0  0  0  0  0  0  0  0  0  0  0  0
   18.2722   -8.4554  -14.7203 C   0  0  0  0  0  0  0  0  0  0  0  0
   19.6125   -8.3506  -15.4577 C   0  0  2  0  0  0  0  0  0  0  0  0
   20.0199   -9.6755  -15.7889 N   0  0  0  0  0  0  0  0  0  0  0  0
   20.5884   -7.5611  -14.7233 C   0  0  0  0  0  0  0  0  0  0  0  0
   21.0454   -7.9903  -13.6369 O   0  0  0  0  0  0  0  0  0  0  0  0
   23.5860   -5.5947  -16.5192 C   0  0  0  0  0  0  0  0  0  0  0  0
   22.9836   -4.7610  -15.4115 C   0  0  1  0  0  0  0  0  0  0  0  0
   22.0373   -3.7738  -16.0526 C   0  0  0  0  0  0  0  0  0  0  0  0
   22.1891   -5.6497  -14.4981 C   0  0  2  0  0  0  0  0  0  0  0  0
   21.0826   -6.3018  -15.1497 N   0  0  0  0  0  0  0  0  0  0  0  0
   21.6790   -4.8252  -13.3744 C   0  0  0  0  0  0  0  0  0  0  0  0
   22.4738   -4.2362  -12.4161 O   0  0  0  0  0  0  0  0  0  0  0  0
   20.4224   -4.6237  -13.2512 O   0  0  0  0  0  0  0  0  0  0  0  0
  2  1  1  0
  3  2  1  0
  3  5  1  0
  3  4  1  6
  5  6  2  0
  7  8  1  0
  8  9  2  0
  8 10  1  0
 10 11  1  0
 12 11  1  1
 12 14  1  0
 13 12  1  0
 13  5  1  0
 14 20  1  0
 15 14  2  0
 17 16  1  6
 17 19  1  0
 18 17  1  0
 19 21  1  0
 19 20  1  6
 21 23  2  0
 21 22  1  0
M  END
$$$$
