SQV.pdb
     RDKit          3D

 23 22  0  0  1  0  0  0  0  0999 V2000
   16.6559  -13.9369  -14.4074 O   0  0  0  0  0  0  0  0  0  0  0  0
   15.9529  -13.6343  -15.5749 C   0  0  0  0  0  0  0  0  0  0  0  0
   16.8371  -13.8031  -16.7816 C   0  0  2  0  0  0  0  0  0  0  0  0
   17.2673  -15.1667  -16.8548 N   0  0  0  0  0  0  0  0  0  0  0  0
   17.9761  -12.8721  -16.7894 C   0  0  0  0  0  0  0  0  0  0  0  0
   19.1298  -13.2238  -16.4782 O   0  0  0  0  0  0  0  0  0  0  0  0
   17.8370   -6.6796  -17.8912 N   0  0  0  0  0  0  0  0  0  0  0  0
   19.0479   -7.1065  -18.4886 C   0  0  0  0  0  0  0  0  0  0  0  0
   19.8736   -6.2569  -18.8989 O   0  0  0  0  0  0  0  0  0  0  0  0
   19.3319   -8.5311  -18.6254 C   0  0  0  0  0  0  0  0  0  0  0  0
   18.1943   -9.4098  -18.1774 C   0  0  0  0  0  0  0  0  0  0  0  0
   18.7938  -10.5531  -17.3500 C   0  0  2  0  0  0  0  0  0  0  0  0
   17.7683  -11.5247  -17.1620 N   0  0  0  0  0  0  0  0  0  0  0  0
   19.4371  -10.0792  -16.1350 C   0  0  0  0  0  0  0  0  0  0  0  0
   18.7550   -9.9058  -15.0967 O   0  0  0  0  0  0  0  0  0  0  0  0
   22.7465  -11.3436  -14.4719 C   0  0  0  0  0  0  0  0  0  0  0  0
   22.7940   -9.8351  -14.5543 C   0  0  1  0  0  0  0  0  0  0  0  0
   23.6552   -9.4744  -15.7414 C   0  0  0  0  0  0  0  0  0  0  0  0
   21.4093   -9.3081  -14.7999 C   0  0  2  0  0  0  0  0  0  0  0  0
   20.8206   -9.7867  -16.0241 N   0  0  0  0  0  0  0  0  0  0  0  0
   21.4748   -7.8258  -14.8347 C   0  0  0  0  0  0  0  0  0  0  0  0
   21.6884   -7.0288  -13.7319 O   0  0  0  0  0  0  0  0  0  0  0  0
   21.3278   -7.2074  -15.9441 O   0  0  0  0  0  0  0  0  0  0  0  0
  2  1  1  0
  3  2  1  0
  3  5  1  0
  3  4  1  1
  5  6  2  0
  7  8  1  0
  8  9  2  0
  8 10  1  0
 10 11  1  0
 12 11  1  1
 12 14  1  0
 13 12  1  0
 13  5  1  0
 14 20  1  0
 15 14  2  0
 17 16  1  6
 17 19  1  0
 18 17  1  0
 19 21  1  0
 19 20  1  6
 21 23  2  0
 21 22  1  0
M  END
$$$$
