SQV.pdb
     RDKit          3D

 23 22  0  0  1  0  0  0  0  0999 V2000
   15.8225  -12.8725  -10.5811 O   0  0  0  0  0  0  0  0  0  0  0  0
   15.9264  -11.6471  -11.2418 C   0  0  0  0  0  0  0  0  0  0  0  0
   15.2701  -10.5570  -10.4372 C   0  0  2  0  0  0  0  0  0  0  0  0
   13.8495  -10.7226  -10.5027 N   0  0  0  0  0  0  0  0  0  0  0  0
   15.6809   -9.2092  -10.8601 C   0  0  0  0  0  0  0  0  0  0  0  0
   15.3149   -8.7061  -11.9393 O   0  0  0  0  0  0  0  0  0  0  0  0
   15.2970   -4.5091   -7.3498 N   0  0  0  0  0  0  0  0  0  0  0  0
   14.4481   -5.2320   -8.2229 C   0  0  0  0  0  0  0  0  0  0  0  0
   13.2041   -5.1099   -8.1249 O   0  0  0  0  0  0  0  0  0  0  0  0
   15.0212   -6.1157   -9.2327 C   0  0  0  0  0  0  0  0  0  0  0  0
   16.5200   -6.2278   -9.1428 C   0  0  0  0  0  0  0  0  0  0  0  0
   16.9845   -7.1252  -10.2961 C   0  0  2  0  0  0  0  0  0  0  0  0
   16.5224   -8.4448  -10.0204 N   0  0  0  0  0  0  0  0  0  0  0  0
   18.4106   -7.0026  -10.5534 C   0  0  0  0  0  0  0  0  0  0  0  0
   19.2307   -7.2242   -9.6305 O   0  0  0  0  0  0  0  0  0  0  0  0
   20.6668   -8.9062  -12.7007 C   0  0  0  0  0  0  0  0  0  0  0  0
   20.8855   -7.4676  -13.1098 C   0  0  1  0  0  0  0  0  0  0  0  0
   20.0541   -7.2180  -14.3457 C   0  0  0  0  0  0  0  0  0  0  0  0
   20.3914   -6.5613  -12.0190 C   0  0  2  0  0  0  0  0  0  0  0  0
   18.9692   -6.6405  -11.8058 N   0  0  0  0  0  0  0  0  0  0  0  0
   20.7570   -5.1667  -12.3714 C   0  0  0  0  0  0  0  0  0  0  0  0
   22.0436   -4.6754  -12.3754 O   0  0  0  0  0  0  0  0  0  0  0  0
   19.8452   -4.3325  -12.6992 O   0  0  0  0  0  0  0  0  0  0  0  0
  2  1  1  0
  3  2  1  0
  3  5  1  0
  3  4  1  6
  5  6  2  0
  7  8  1  0
  8  9  2  0
  8 10  1  0
 10 11  1  0
 12 11  1  1
 12 14  1  0
 13 12  1  0
 13  5  1  0
 14 20  1  0
 15 14  2  0
 17 16  1  1
 17 19  1  0
 18 17  1  0
 19 21  1  0
 19 20  1  6
 21 23  2  0
 21 22  1  0
M  END
$$$$
