SQV.pdb
     RDKit          3D

 23 22  0  0  1  0  0  0  0  0999 V2000
   14.3429  -13.4905  -13.4488 O   0  0  0  0  0  0  0  0  0  0  0  0
   15.5517  -12.8885  -13.8027 C   0  0  0  0  0  0  0  0  0  0  0  0
   15.7615  -12.9623  -15.2916 C   0  0  2  0  0  0  0  0  0  0  0  0
   15.7829  -14.3372  -15.6900 N   0  0  0  0  0  0  0  0  0  0  0  0
   16.9696  -12.2488  -15.7339 C   0  0  0  0  0  0  0  0  0  0  0  0
   18.0609  -12.8241  -15.9065 O   0  0  0  0  0  0  0  0  0  0  0  0
   17.9841   -9.7996  -20.0998 N   0  0  0  0  0  0  0  0  0  0  0  0
   18.7358   -8.7478  -19.5219 C   0  0  0  0  0  0  0  0  0  0  0  0
   19.6387   -8.1883  -20.1880 O   0  0  0  0  0  0  0  0  0  0  0  0
   18.4590   -8.3179  -18.1553 C   0  0  0  0  0  0  0  0  0  0  0  0
   17.3348   -9.0822  -17.5079 C   0  0  0  0  0  0  0  0  0  0  0  0
   17.9604  -10.0627  -16.5087 C   0  0  2  0  0  0  0  0  0  0  0  0
   16.9045  -10.8578  -15.9759 N   0  0  0  0  0  0  0  0  0  0  0  0
   18.7968   -9.3931  -15.5254 C   0  0  0  0  0  0  0  0  0  0  0  0
   18.2640   -8.7353  -14.5998 O   0  0  0  0  0  0  0  0  0  0  0  0
   22.2396  -10.8666  -13.9674 C   0  0  0  0  0  0  0  0  0  0  0  0
   22.3687   -9.4067  -14.3369 C   0  0  1  0  0  0  0  0  0  0  0  0
   23.0635   -9.3393  -15.6762 C   0  0  0  0  0  0  0  0  0  0  0  0
   20.9986   -8.8100  -14.4869 C   0  0  2  0  0  0  0  0  0  0  0  0
   20.2149   -9.4241  -15.5276 N   0  0  0  0  0  0  0  0  0  0  0  0
   21.1506   -7.3626  -14.7774 C   0  0  0  0  0  0  0  0  0  0  0  0
   21.5733   -6.4240  -13.8624 O   0  0  0  0  0  0  0  0  0  0  0  0
   20.8807   -6.9152  -15.9444 O   0  0  0  0  0  0  0  0  0  0  0  0
  2  1  1  0
  3  2  1  0
  3  5  1  0
  3  4  1  1
  5  6  2  0
  7  8  1  0
  8  9  2  0
  8 10  1  0
 10 11  1  0
 12 11  1  6
 12 14  1  0
 13 12  1  0
 13  5  1  0
 14 20  1  0
 15 14  2  0
 17 16  1  6
 17 19  1  0
 18 17  1  0
 19 21  1  0
 19 20  1  6
 21 23  2  0
 21 22  1  0
M  END
$$$$
