SQV.pdb
     RDKit          3D

 23 22  0  0  1  0  0  0  0  0999 V2000
   15.1010  -13.9818  -17.2816 O   0  0  0  0  0  0  0  0  0  0  0  0
   16.0938  -13.1353  -16.7849 C   0  0  0  0  0  0  0  0  0  0  0  0
   17.4600  -13.6698  -17.1228 C   0  0  2  0  0  0  0  0  0  0  0  0
   17.5732  -15.0057  -16.6204 N   0  0  0  0  0  0  0  0  0  0  0  0
   18.5472  -12.8096  -16.6309 C   0  0  0  0  0  0  0  0  0  0  0  0
   18.9557  -12.8542  -15.4549 O   0  0  0  0  0  0  0  0  0  0  0  0
   22.5320   -9.7631  -20.5699 N   0  0  0  0  0  0  0  0  0  0  0  0
   22.9327   -9.3863  -19.2649 C   0  0  0  0  0  0  0  0  0  0  0  0
   23.9477   -8.6673  -19.1080 O   0  0  0  0  0  0  0  0  0  0  0  0
   22.1653   -9.8347  -18.1076 C   0  0  0  0  0  0  0  0  0  0  0  0
   20.9674  -10.6693  -18.4758 C   0  0  0  0  0  0  0  0  0  0  0  0
   20.2259  -11.0084  -17.1772 C   0  0  2  0  0  0  0  0  0  0  0  0
   19.1609  -11.8931  -17.5147 N   0  0  0  0  0  0  0  0  0  0  0  0
   19.8402   -9.8199  -16.4332 C   0  0  0  0  0  0  0  0  0  0  0  0
   18.8465   -9.1495  -16.8030 O   0  0  0  0  0  0  0  0  0  0  0  0
   21.6793   -8.5334  -12.7306 C   0  0  0  0  0  0  0  0  0  0  0  0
   20.2232   -8.3093  -13.0689 C   0  0  1  0  0  0  0  0  0  0  0  0
   19.8081   -7.0028  -12.4351 C   0  0  0  0  0  0  0  0  0  0  0  0
   20.0744   -8.1787  -14.5576 C   0  0  2  0  0  0  0  0  0  0  0  0
   20.5191   -9.3401  -15.2840 N   0  0  0  0  0  0  0  0  0  0  0  0
   20.8532   -6.9957  -15.0011 C   0  0  0  0  0  0  0  0  0  0  0  0
   20.4182   -5.6929  -14.8987 O   0  0  0  0  0  0  0  0  0  0  0  0
   22.0114   -7.1531  -15.5193 O   0  0  0  0  0  0  0  0  0  0  0  0
  2  1  1  0
  3  2  1  0
  3  5  1  0
  3  4  1  1
  5  6  2  0
  7  8  1  0
  8  9  2  0
  8 10  1  0
 10 11  1  0
 12 11  1  6
 12 14  1  0
 13 12  1  0
 13  5  1  0
 14 20  1  0
 15 14  2  0
 17 16  1  6
 17 19  1  0
 18 17  1  0
 19 21  1  0
 19 20  1  6
 21 23  2  0
 21 22  1  0
M  END
$$$$
