SQV.pdb
     RDKit          3D

 23 22  0  0  1  0  0  0  0  0999 V2000
   25.8287  -29.3372  -18.8718 O   0  0  0  0  0  0  0  0  0  0  0  0
   26.1224  -28.6475  -17.6942 C   0  0  0  0  0  0  0  0  0  0  0  0
   27.5703  -28.8289  -17.3239 C   0  0  2  0  0  0  0  0  0  0  0  0
   27.6855  -29.9436  -16.4329 N   0  0  0  0  0  0  0  0  0  0  0  0
   28.1706  -27.6127  -16.7543 C   0  0  0  0  0  0  0  0  0  0  0  0
   28.5497  -27.5454  -15.5696 O   0  0  0  0  0  0  0  0  0  0  0  0
   33.2686  -25.8439  -17.5314 N   0  0  0  0  0  0  0  0  0  0  0  0
   32.6797  -25.6270  -16.2619 C   0  0  0  0  0  0  0  0  0  0  0  0
   33.3998  -25.6096  -15.2358 O   0  0  0  0  0  0  0  0  0  0  0  0
   31.2389  -25.4248  -16.1506 C   0  0  0  0  0  0  0  0  0  0  0  0
   30.5198  -25.5331  -17.4690 C   0  0  0  0  0  0  0  0  0  0  0  0
   29.0303  -25.2845  -17.2027 C   0  0  2  0  0  0  0  0  0  0  0  0
   28.3294  -26.4696  -17.5702 N   0  0  0  0  0  0  0  0  0  0  0  0
   28.5541  -24.0582  -17.8225 C   0  0  0  0  0  0  0  0  0  0  0  0
   28.3107  -24.0366  -19.0528 O   0  0  0  0  0  0  0  0  0  0  0  0
   25.9848  -21.2880  -16.1846 C   0  0  0  0  0  0  0  0  0  0  0  0
   27.2079  -20.6750  -16.8272 C   0  0  1  0  0  0  0  0  0  0  0  0
   28.2047  -20.3965  -15.7272 C   0  0  0  0  0  0  0  0  0  0  0  0
   27.8187  -21.6657  -17.7763 C   0  0  2  0  0  0  0  0  0  0  0  0
   28.3347  -22.8424  -17.1255 N   0  0  0  0  0  0  0  0  0  0  0  0
   28.9175  -20.9905  -18.5106 C   0  0  0  0  0  0  0  0  0  0  0  0
   30.2490  -21.3255  -18.4019 O   0  0  0  0  0  0  0  0  0  0  0  0
   28.6528  -20.0270  -19.3084 O   0  0  0  0  0  0  0  0  0  0  0  0
  2  1  1  0
  3  2  1  0
  3  5  1  0
  3  4  1  1
  5  6  2  0
  7  8  1  0
  8  9  2  0
  8 10  1  0
 10 11  1  0
 12 11  1  6
 12 14  1  0
 13 12  1  0
 13  5  1  0
 14 20  1  0
 15 14  2  0
 17 16  1  1
 17 19  1  0
 18 17  1  0
 19 21  1  0
 19 20  1  1
 21 23  2  0
 21 22  1  0
M  END
$$$$
