NWH.pdb
     RDKit          3D

 33 35  0  0  1  0  0  0  0  0999 V2000
   27.2599  -18.9382  -17.1172 N   0  0  0  0  0  0  0  0  0  0  0  0
   27.5323  -18.7355  -15.7468 C   0  0  0  0  0  0  0  0  0  0  0  0
   28.5063  -18.0367  -15.3963 O   0  0  0  0  0  0  0  0  0  0  0  0
   26.6724  -19.3448  -14.7149 C   0  0  0  0  0  0  0  0  0  0  0  0
   27.4103  -20.5351  -14.1389 C   0  0  2  0  0  0  0  0  0  0  0  0
   27.4990  -21.6492  -15.0298 N   0  0  0  0  0  0  0  0  0  0  0  0
   26.8979  -20.9626  -12.8325 C   0  0  0  0  0  0  0  0  0  0  0  0
   25.9514  -21.7871  -12.7758 O   0  0  0  0  0  0  0  0  0  0  0  0
   27.4328  -20.4779  -11.6132 N   0  0  0  0  0  0  0  0  0  0  0  0
   26.8217  -20.8732  -10.3679 C   0  0  1  0  0  0  0  0  0  0  0  0
   27.6565  -20.5967   -9.1588 C   0  0  0  0  0  0  0  0  0  0  0  0
   26.9619  -20.7145   -7.8750 C   0  0  0  0  0  0  0  0  0  0  0  0
   25.7397  -21.2416   -7.5298 C   0  0  0  0  0  0  0  0  0  0  0  0
   25.5537  -21.0973   -6.1931 N   0  0  0  0  0  0  0  0  0  0  0  0
   26.6156  -20.4932   -5.6587 C   0  0  0  0  0  0  0  0  0  0  0  0
   26.9316  -20.1120   -4.3509 C   0  0  0  0  0  0  0  0  0  0  0  0
   28.1183  -19.4907   -4.0661 C   0  0  0  0  0  0  0  0  0  0  0  0
   28.9917  -19.2502   -5.0929 C   0  0  0  0  0  0  0  0  0  0  0  0
   28.6861  -19.6219   -6.3741 C   0  0  0  0  0  0  0  0  0  0  0  0
   27.4976  -20.2490   -6.6872 C   0  0  0  0  0  0  0  0  0  0  0  0
   25.5698  -20.0677  -10.2091 C   0  0  0  0  0  0  0  0  0  0  0  0
   25.6457  -18.8186  -10.2219 O   0  0  0  0  0  0  0  0  0  0  0  0
   24.3025  -20.6869  -10.0445 N   0  0  0  0  0  0  0  0  0  0  0  0
   23.1485  -20.0998  -10.6687 C   0  0  1  0  0  0  0  0  0  0  0  0
   23.3532  -19.8807  -12.1525 C   0  0  0  0  0  0  0  0  0  0  0  0
   22.2159  -19.2395  -12.8027 C   0  0  0  0  0  0  0  0  0  0  0  0
   21.0613  -18.8562  -12.1620 C   0  0  0  0  0  0  0  0  0  0  0  0
   20.2565  -18.3054  -13.0999 N   0  0  0  0  0  0  0  0  0  0  0  0
   20.8610  -18.3315  -14.2874 C   0  0  0  0  0  0  0  0  0  0  0  0
   22.0645  -18.9086  -14.0897 N   0  0  0  0  0  0  0  0  0  0  0  0
   21.9607  -20.9171  -10.3814 C   0  0  0  0  0  0  0  0  0  0  0  0
   21.9190  -22.2355  -10.7877 O   0  0  0  0  0  0  0  0  0  0  0  0
   20.9678  -20.4569   -9.7720 O   0  0  0  0  0  0  0  0  0  0  0  0
  2  4  1  0
  2  1  1  0
  3  2  2  0
  4  5  1  0
  5  6  1  6
  7  5  1  0
  7  8  2  0
  9  7  1  0
 10  9  1  0
 10 11  1  1
 12 11  1  0
 12 20  1  0
 13 14  1  0
 13 12  2  0
 14 15  1  0
 15 20  2  0
 15 16  1  0
 16 17  2  0
 17 18  1  0
 19 18  2  0
 20 19  1  0
 21 10  1  0
 22 21  2  0
 23 21  1  0
 24 25  1  6
 24 23  1  0
 25 26  1  0
 26 30  1  0
 26 27  2  0
 27 28  1  0
 29 28  1  0
 30 29  2  0
 31 32  1  0
 31 24  1  0
 33 31  2  0
M  END
$$$$
