NWH.pdb
     RDKit          3D

 33 35  0  0  1  0  0  0  0  0999 V2000
   29.0122  -21.9541  -19.1490 N   0  0  0  0  0  0  0  0  0  0  0  0
   28.8429  -23.2429  -18.5980 C   0  0  0  0  0  0  0  0  0  0  0  0
   29.2524  -24.2488  -19.2145 O   0  0  0  0  0  0  0  0  0  0  0  0
   28.1820  -23.4166  -17.2909 C   0  0  0  0  0  0  0  0  0  0  0  0
   27.7761  -22.0465  -16.7898 C   0  0  2  0  0  0  0  0  0  0  0  0
   28.8295  -21.0811  -16.8233 N   0  0  0  0  0  0  0  0  0  0  0  0
   27.1464  -22.0729  -15.4652 C   0  0  0  0  0  0  0  0  0  0  0  0
   26.2929  -22.9563  -15.2003 O   0  0  0  0  0  0  0  0  0  0  0  0
   27.4643  -21.1303  -14.4560 N   0  0  0  0  0  0  0  0  0  0  0  0
   26.8036  -21.2161  -13.1768 C   0  0  1  0  0  0  0  0  0  0  0  0
   27.3510  -20.2893  -12.1391 C   0  0  0  0  0  0  0  0  0  0  0  0
   26.6624  -20.3154  -10.8469 C   0  0  0  0  0  0  0  0  0  0  0  0
   25.3416  -20.1562  -10.4995 C   0  0  0  0  0  0  0  0  0  0  0  0
   25.2196  -20.2617   -9.1518 N   0  0  0  0  0  0  0  0  0  0  0  0
   26.4186  -20.4840   -8.6124 C   0  0  0  0  0  0  0  0  0  0  0  0
   26.8463  -20.6657   -7.2935 C   0  0  0  0  0  0  0  0  0  0  0  0
   28.1676  -20.8821   -7.0055 C   0  0  0  0  0  0  0  0  0  0  0  0
   29.0636  -20.9169   -8.0403 C   0  0  0  0  0  0  0  0  0  0  0  0
   28.6489  -20.7396   -9.3324 C   0  0  0  0  0  0  0  0  0  0  0  0
   27.3239  -20.5201   -9.6490 C   0  0  0  0  0  0  0  0  0  0  0  0
   25.3748  -20.8199  -13.3844 C   0  0  0  0  0  0  0  0  0  0  0  0
   25.1222  -19.7420  -13.9680 O   0  0  0  0  0  0  0  0  0  0  0  0
   24.3035  -21.6367  -12.9355 N   0  0  0  0  0  0  0  0  0  0  0  0
   22.9578  -21.2969  -13.3095 C   0  0  1  0  0  0  0  0  0  0  0  0
   22.2678  -22.4277  -14.0421 C   0  0  0  0  0  0  0  0  0  0  0  0
   20.8729  -22.1427  -14.3590 C   0  0  0  0  0  0  0  0  0  0  0  0
   20.1706  -21.0556  -13.8947 C   0  0  0  0  0  0  0  0  0  0  0  0
   18.9216  -21.1476  -14.4066 N   0  0  0  0  0  0  0  0  0  0  0  0
   18.8218  -22.2397  -15.1640 C   0  0  0  0  0  0  0  0  0  0  0  0
   20.0287  -22.8417  -15.1255 N   0  0  0  0  0  0  0  0  0  0  0  0
   22.2095  -20.8591  -12.1222 C   0  0  0  0  0  0  0  0  0  0  0  0
   21.1276  -20.0140  -12.2647 O   0  0  0  0  0  0  0  0  0  0  0  0
   22.5199  -21.2287  -10.9663 O   0  0  0  0  0  0  0  0  0  0  0  0
  2  4  1  0
  2  1  1  0
  3  2  2  0
  4  5  1  0
  5  6  1  1
  7  5  1  0
  7  8  2  0
  9  7  1  0
 10  9  1  0
 10 11  1  1
 12 11  1  0
 12 20  1  0
 13 14  1  0
 13 12  2  0
 14 15  1  0
 15 20  2  0
 15 16  1  0
 16 17  2  0
 17 18  1  0
 19 18  2  0
 20 19  1  0
 21 10  1  0
 22 21  2  0
 23 21  1  0
 24 25  1  1
 24 23  1  0
 25 26  1  0
 26 30  1  0
 26 27  2  0
 27 28  1  0
 29 28  1  0
 30 29  2  0
 31 32  1  0
 31 24  1  0
 33 31  2  0
M  END
$$$$
