NWH.pdb
     RDKit          3D

 33 35  0  0  1  0  0  0  0  0999 V2000
   26.0500  -22.9554  -18.0521 N   0  0  0  0  0  0  0  0  0  0  0  0
   26.3259  -22.0905  -16.9708 C   0  0  0  0  0  0  0  0  0  0  0  0
   27.3561  -21.3846  -16.9776 O   0  0  0  0  0  0  0  0  0  0  0  0
   25.4033  -22.0103  -15.8228 C   0  0  0  0  0  0  0  0  0  0  0  0
   26.1214  -22.5645  -14.6102 C   0  0  2  0  0  0  0  0  0  0  0  0
   26.4766  -23.9440  -14.7266 N   0  0  0  0  0  0  0  0  0  0  0  0
   25.4103  -22.3225  -13.3502 C   0  0  0  0  0  0  0  0  0  0  0  0
   24.4600  -23.0748  -13.0185 O   0  0  0  0  0  0  0  0  0  0  0  0
   25.7545  -21.2604  -12.4776 N   0  0  0  0  0  0  0  0  0  0  0  0
   24.9439  -21.0153  -11.3100 C   0  0  1  0  0  0  0  0  0  0  0  0
   25.6307  -20.2303  -10.2389 C   0  0  0  0  0  0  0  0  0  0  0  0
   26.9589  -20.7153   -9.8577 C   0  0  0  0  0  0  0  0  0  0  0  0
   27.8981  -21.4626  -10.5285 C   0  0  0  0  0  0  0  0  0  0  0  0
   28.9741  -21.6527   -9.7233 N   0  0  0  0  0  0  0  0  0  0  0  0
   28.7641  -21.0532   -8.5509 C   0  0  0  0  0  0  0  0  0  0  0  0
   29.5360  -20.9435   -7.3901 C   0  0  0  0  0  0  0  0  0  0  0  0
   29.0739  -20.2552   -6.2999 C   0  0  0  0  0  0  0  0  0  0  0  0
   27.8358  -19.6749   -6.3716 C   0  0  0  0  0  0  0  0  0  0  0  0
   27.0774  -19.7800   -7.5060 C   0  0  0  0  0  0  0  0  0  0  0  0
   27.5199  -20.4676   -8.6174 C   0  0  0  0  0  0  0  0  0  0  0  0
   23.7690  -20.1960  -11.7457 C   0  0  0  0  0  0  0  0  0  0  0  0
   23.9354  -19.3091  -12.6129 O   0  0  0  0  0  0  0  0  0  0  0  0
   22.4748  -20.4016  -11.1989 N   0  0  0  0  0  0  0  0  0  0  0  0
   21.3263  -20.3004  -12.0574 C   0  0  1  0  0  0  0  0  0  0  0  0
   21.4185  -21.2352  -13.2444 C   0  0  0  0  0  0  0  0  0  0  0  0
   20.3103  -21.0882  -14.1813 C   0  0  0  0  0  0  0  0  0  0  0  0
   20.1402  -20.0215  -15.0319 C   0  0  0  0  0  0  0  0  0  0  0  0
   19.0051  -20.2540  -15.7306 N   0  0  0  0  0  0  0  0  0  0  0  0
   18.4685  -21.4132  -15.3503 C   0  0  0  0  0  0  0  0  0  0  0  0
   19.2814  -21.9148  -14.3973 N   0  0  0  0  0  0  0  0  0  0  0  0
   20.1013  -20.5105  -11.2722 C   0  0  0  0  0  0  0  0  0  0  0  0
   18.9550  -19.8086  -11.5859 O   0  0  0  0  0  0  0  0  0  0  0  0
   20.0553  -21.3151  -10.3133 O   0  0  0  0  0  0  0  0  0  0  0  0
  2  4  1  0
  2  1  1  0
  3  2  2  0
  4  5  1  0
  5  6  1  6
  7  5  1  0
  7  8  2  0
  9  7  1  0
 10  9  1  0
 10 11  1  1
 12 11  1  0
 12 20  1  0
 13 14  1  0
 13 12  2  0
 14 15  1  0
 15 20  2  0
 15 16  1  0
 16 17  2  0
 17 18  1  0
 19 18  2  0
 20 19  1  0
 21 10  1  0
 22 21  2  0
 23 21  1  0
 24 25  1  6
 24 23  1  0
 25 26  1  0
 26 30  1  0
 26 27  2  0
 27 28  1  0
 29 28  1  0
 30 29  2  0
 31 32  1  0
 31 24  1  0
 33 31  2  0
M  END
$$$$
