NWH.pdb
     RDKit          3D

 33 35  0  0  1  0  0  0  0  0999 V2000
   24.0105   -9.0921  -22.3285 N   0  0  0  0  0  0  0  0  0  0  0  0
   23.1998  -10.2324  -22.1392 C   0  0  0  0  0  0  0  0  0  0  0  0
   22.6089  -10.7516  -23.1093 O   0  0  0  0  0  0  0  0  0  0  0  0
   23.0412  -10.8230  -20.7970 C   0  0  0  0  0  0  0  0  0  0  0  0
   23.7960   -9.9525  -19.8143 C   0  0  2  0  0  0  0  0  0  0  0  0
   25.1774  -10.2934  -19.6794 N   0  0  0  0  0  0  0  0  0  0  0  0
   23.1567   -9.8711  -18.4966 C   0  0  0  0  0  0  0  0  0  0  0  0
   23.6584  -10.4876  -17.5234 O   0  0  0  0  0  0  0  0  0  0  0  0
   21.9795   -9.1154  -18.2707 N   0  0  0  0  0  0  0  0  0  0  0  0
   21.4347   -9.0392  -16.9374 C   0  0  1  0  0  0  0  0  0  0  0  0
   21.1339   -7.6496  -16.4750 C   0  0  0  0  0  0  0  0  0  0  0  0
   22.3011   -6.7903  -16.2658 C   0  0  0  0  0  0  0  0  0  0  0  0
   23.5827   -6.8343  -16.7620 C   0  0  0  0  0  0  0  0  0  0  0  0
   24.2953   -5.7999  -16.2479 N   0  0  0  0  0  0  0  0  0  0  0  0
   23.5180   -5.0853  -15.4335 C   0  0  0  0  0  0  0  0  0  0  0  0
   23.7498   -3.9414  -14.6632 C   0  0  0  0  0  0  0  0  0  0  0  0
   22.7551   -3.3963  -13.8957 C   0  0  0  0  0  0  0  0  0  0  0  0
   21.5249   -3.9974  -13.8991 C   0  0  0  0  0  0  0  0  0  0  0  0
   21.2942   -5.1169  -14.6517 C   0  0  0  0  0  0  0  0  0  0  0  0
   22.2790   -5.6854  -15.4332 C   0  0  0  0  0  0  0  0  0  0  0  0
   20.1295   -9.7726  -16.9455 C   0  0  0  0  0  0  0  0  0  0  0  0
   19.3864   -9.6788  -17.9482 O   0  0  0  0  0  0  0  0  0  0  0  0
   19.7169  -10.5694  -15.8449 N   0  0  0  0  0  0  0  0  0  0  0  0
   18.4528  -11.2509  -15.9069 C   0  0  1  0  0  0  0  0  0  0  0  0
   18.5659  -12.7001  -15.4844 C   0  0  0  0  0  0  0  0  0  0  0  0
   17.2907  -13.4077  -15.5055 C   0  0  0  0  0  0  0  0  0  0  0  0
   16.5180  -13.5962  -16.6271 C   0  0  0  0  0  0  0  0  0  0  0  0
   15.4239  -14.2903  -16.2377 N   0  0  0  0  0  0  0  0  0  0  0  0
   15.4864  -14.5381  -14.9297 C   0  0  0  0  0  0  0  0  0  0  0  0
   16.6392  -13.9896  -14.4928 N   0  0  0  0  0  0  0  0  0  0  0  0
   17.4539  -10.5137  -15.1194 C   0  0  0  0  0  0  0  0  0  0  0  0
   16.1606  -10.3963  -15.5869 O   0  0  0  0  0  0  0  0  0  0  0  0
   17.7344   -9.9787  -14.0222 O   0  0  0  0  0  0  0  0  0  0  0  0
  2  4  1  0
  2  1  1  0
  3  2  2  0
  4  5  1  0
  5  6  1  1
  7  5  1  0
  7  8  2  0
  9  7  1  0
 10  9  1  0
 10 11  1  6
 12 11  1  0
 12 20  1  0
 13 14  1  0
 13 12  2  0
 14 15  1  0
 15 20  2  0
 15 16  1  0
 16 17  2  0
 17 18  1  0
 19 18  2  0
 20 19  1  0
 21 10  1  0
 22 21  2  0
 23 21  1  0
 24 25  1  1
 24 23  1  0
 25 26  1  0
 26 30  1  0
 26 27  2  0
 27 28  1  0
 29 28  1  0
 30 29  2  0
 31 32  1  0
 31 24  1  0
 33 31  2  0
M  END
$$$$
