NWH.pdb
     RDKit          3D

 33 35  0  0  1  0  0  0  0  0999 V2000
   29.5614  -18.3052  -14.1118 N   0  0  0  0  0  0  0  0  0  0  0  0
   28.4517  -18.9125  -14.7386 C   0  0  0  0  0  0  0  0  0  0  0  0
   28.0550  -18.5022  -15.8495 O   0  0  0  0  0  0  0  0  0  0  0  0
   27.7490  -20.0360  -14.0910 C   0  0  0  0  0  0  0  0  0  0  0  0
   28.4409  -20.3193  -12.7740 C   0  0  2  0  0  0  0  0  0  0  0  0
   29.6470  -21.0752  -12.9032 N   0  0  0  0  0  0  0  0  0  0  0  0
   27.5596  -20.9272  -11.7712 C   0  0  0  0  0  0  0  0  0  0  0  0
   27.2498  -22.1410  -11.8702 O   0  0  0  0  0  0  0  0  0  0  0  0
   27.0345  -20.1930  -10.6789 N   0  0  0  0  0  0  0  0  0  0  0  0
   25.8443  -20.6674  -10.0165 C   0  0  1  0  0  0  0  0  0  0  0  0
   25.6317  -20.0959   -8.6514 C   0  0  0  0  0  0  0  0  0  0  0  0
   26.8410  -19.6300   -7.9696 C   0  0  0  0  0  0  0  0  0  0  0  0
   27.7561  -18.6505   -8.2759 C   0  0  0  0  0  0  0  0  0  0  0  0
   28.7128  -18.6178   -7.3137 N   0  0  0  0  0  0  0  0  0  0  0  0
   28.4488  -19.5447   -6.3921 C   0  0  0  0  0  0  0  0  0  0  0  0
   29.1017  -19.9251   -5.2155 C   0  0  0  0  0  0  0  0  0  0  0  0
   28.6081  -20.9334   -4.4311 C   0  0  0  0  0  0  0  0  0  0  0  0
   27.4578  -21.5629   -4.8251 C   0  0  0  0  0  0  0  0  0  0  0  0
   26.8159  -21.1933   -5.9759 C   0  0  0  0  0  0  0  0  0  0  0  0
   27.2924  -20.1810   -6.7834 C   0  0  0  0  0  0  0  0  0  0  0  0
   24.6719  -20.2361  -10.8415 C   0  0  0  0  0  0  0  0  0  0  0  0
   24.8750  -19.5948  -11.8969 O   0  0  0  0  0  0  0  0  0  0  0  0
   23.3390  -20.5369  -10.4548 N   0  0  0  0  0  0  0  0  0  0  0  0
   22.3355  -20.7072  -11.4698 C   0  0  1  0  0  0  0  0  0  0  0  0
   22.6975  -21.8024  -12.4502 C   0  0  0  0  0  0  0  0  0  0  0  0
   21.6766  -22.0254  -13.4677 C   0  0  0  0  0  0  0  0  0  0  0  0
   20.4930  -21.3313  -13.5550 C   0  0  0  0  0  0  0  0  0  0  0  0
   19.8245  -21.8280  -14.6213 N   0  0  0  0  0  0  0  0  0  0  0  0
   20.5405  -22.7949  -15.1945 C   0  0  0  0  0  0  0  0  0  0  0  0
   21.6764  -22.9056  -14.4747 N   0  0  0  0  0  0  0  0  0  0  0  0
   21.0263  -20.9298  -10.8390 C   0  0  0  0  0  0  0  0  0  0  0  0
   20.9589  -21.3948   -9.5412 O   0  0  0  0  0  0  0  0  0  0  0  0
   19.9509  -20.7104  -11.4427 O   0  0  0  0  0  0  0  0  0  0  0  0
  2  4  1  0
  2  1  1  0
  3  2  2  0
  4  5  1  0
  5  6  1  6
  7  5  1  0
  7  8  2  0
  9  7  1  0
 10  9  1  0
 10 11  1  1
 12 11  1  0
 12 20  1  0
 13 14  1  0
 13 12  2  0
 14 15  1  0
 15 20  2  0
 15 16  1  0
 16 17  2  0
 17 18  1  0
 19 18  2  0
 20 19  1  0
 21 10  1  0
 22 21  2  0
 23 21  1  0
 24 25  1  6
 24 23  1  0
 25 26  1  0
 26 30  1  0
 26 27  2  0
 27 28  1  0
 29 28  1  0
 30 29  2  0
 31 32  1  0
 31 24  1  0
 33 31  2  0
M  END
$$$$
