NWH.pdb
     RDKit          3D

 33 35  0  0  1  0  0  0  0  0999 V2000
   28.7473  -20.4260  -16.5968 N   0  0  0  0  0  0  0  0  0  0  0  0
   29.0124  -21.6860  -16.0177 C   0  0  0  0  0  0  0  0  0  0  0  0
   29.7786  -22.4909  -16.5877 O   0  0  0  0  0  0  0  0  0  0  0  0
   28.3896  -22.0663  -14.7360 C   0  0  0  0  0  0  0  0  0  0  0  0
   27.4082  -20.9776  -14.3554 C   0  0  2  0  0  0  0  0  0  0  0  0
   28.0031  -19.6868  -14.2053 N   0  0  0  0  0  0  0  0  0  0  0  0
   26.5973  -21.3087  -13.1786 C   0  0  0  0  0  0  0  0  0  0  0  0
   25.8957  -22.3511  -13.1808 O   0  0  0  0  0  0  0  0  0  0  0  0
   26.5710  -20.4906  -12.0219 N   0  0  0  0  0  0  0  0  0  0  0  0
   25.6531  -20.8061  -10.9550 C   0  0  1  0  0  0  0  0  0  0  0  0
   26.0369  -20.2386   -9.6262 C   0  0  0  0  0  0  0  0  0  0  0  0
   27.3723  -20.6037   -9.1487 C   0  0  0  0  0  0  0  0  0  0  0  0
   28.3754  -21.3652   -9.7004 C   0  0  0  0  0  0  0  0  0  0  0  0
   29.4268  -21.4059   -8.8430 N   0  0  0  0  0  0  0  0  0  0  0  0
   29.1390  -20.6954   -7.7519 C   0  0  0  0  0  0  0  0  0  0  0  0
   29.8570  -20.4170   -6.5847 C   0  0  0  0  0  0  0  0  0  0  0  0
   29.3163  -19.6417   -5.5937 C   0  0  0  0  0  0  0  0  0  0  0  0
   28.0534  -19.1433   -5.7712 C   0  0  0  0  0  0  0  0  0  0  0  0
   27.3475  -19.4135   -6.9121 C   0  0  0  0  0  0  0  0  0  0  0  0
   27.8695  -20.1915   -7.9250 C   0  0  0  0  0  0  0  0  0  0  0  0
   24.3317  -20.1971  -11.3079 C   0  0  0  0  0  0  0  0  0  0  0  0
   24.2603  -18.9597  -11.4810 O   0  0  0  0  0  0  0  0  0  0  0  0
   23.1617  -20.9890  -11.4499 N   0  0  0  0  0  0  0  0  0  0  0  0
   22.1995  -20.6442  -12.4606 C   0  0  1  0  0  0  0  0  0  0  0  0
   22.8242  -20.5618  -13.8370 C   0  0  0  0  0  0  0  0  0  0  0  0
   21.8663  -20.2303  -14.8858 C   0  0  0  0  0  0  0  0  0  0  0  0
   20.5304  -19.9819  -14.6763 C   0  0  0  0  0  0  0  0  0  0  0  0
   19.9862  -19.7161  -15.8861 N   0  0  0  0  0  0  0  0  0  0  0  0
   20.9239  -19.7890  -16.8304 C   0  0  0  0  0  0  0  0  0  0  0  0
   22.0745  -20.1061  -16.2011 N   0  0  0  0  0  0  0  0  0  0  0  0
   21.0717  -21.5861  -12.4124 C   0  0  0  0  0  0  0  0  0  0  0  0
   19.8261  -21.1900  -12.8558 O   0  0  0  0  0  0  0  0  0  0  0  0
   21.1982  -22.7540  -11.9775 O   0  0  0  0  0  0  0  0  0  0  0  0
  2  4  1  0
  2  1  1  0
  3  2  2  0
  4  5  1  0
  5  6  1  1
  7  5  1  0
  7  8  2  0
  9  7  1  0
 10  9  1  0
 10 11  1  1
 12 11  1  0
 12 20  1  0
 13 14  1  0
 13 12  2  0
 14 15  1  0
 15 20  2  0
 15 16  1  0
 16 17  2  0
 17 18  1  0
 19 18  2  0
 20 19  1  0
 21 10  1  0
 22 21  2  0
 23 21  1  0
 24 25  1  6
 24 23  1  0
 25 26  1  0
 26 30  1  0
 26 27  2  0
 27 28  1  0
 29 28  1  0
 30 29  2  0
 31 32  1  0
 31 24  1  0
 33 31  2  0
M  END
$$$$
