NWH.pdb
     RDKit          3D

 33 35  0  0  1  0  0  0  0  0999 V2000
   29.5140  -20.3556  -16.3625 N   0  0  0  0  0  0  0  0  0  0  0  0
   28.2079  -19.9465  -16.7087 C   0  0  0  0  0  0  0  0  0  0  0  0
   28.0104  -19.2935  -17.7548 O   0  0  0  0  0  0  0  0  0  0  0  0
   27.0636  -20.2843  -15.8416 C   0  0  0  0  0  0  0  0  0  0  0  0
   27.5996  -21.0174  -14.6298 C   0  0  2  0  0  0  0  0  0  0  0  0
   28.3409  -22.1976  -14.9467 N   0  0  0  0  0  0  0  0  0  0  0  0
   26.5726  -21.3113  -13.6244 C   0  0  0  0  0  0  0  0  0  0  0  0
   25.6670  -22.1423  -13.8858 O   0  0  0  0  0  0  0  0  0  0  0  0
   26.5578  -20.6886  -12.3517 N   0  0  0  0  0  0  0  0  0  0  0  0
   25.5042  -21.0105  -11.4207 C   0  0  1  0  0  0  0  0  0  0  0  0
   25.7901  -20.6133  -10.0079 C   0  0  0  0  0  0  0  0  0  0  0  0
   27.1450  -20.9046   -9.5350 C   0  0  0  0  0  0  0  0  0  0  0  0
   28.1650  -21.6624  -10.0604 C   0  0  0  0  0  0  0  0  0  0  0  0
   29.2311  -21.6176   -9.2216 N   0  0  0  0  0  0  0  0  0  0  0  0
   28.9365  -20.8553   -8.1679 C   0  0  0  0  0  0  0  0  0  0  0  0
   29.6635  -20.4855   -7.0320 C   0  0  0  0  0  0  0  0  0  0  0  0
   29.1124  -19.6729   -6.0773 C   0  0  0  0  0  0  0  0  0  0  0  0
   27.8301  -19.2287   -6.2598 C   0  0  0  0  0  0  0  0  0  0  0  0
   27.1155  -19.5884   -7.3702 C   0  0  0  0  0  0  0  0  0  0  0  0
   27.6476  -20.4057   -8.3463 C   0  0  0  0  0  0  0  0  0  0  0  0
   24.2893  -20.2413  -11.8374 C   0  0  0  0  0  0  0  0  0  0  0  0
   24.4353  -19.1739  -12.4742 O   0  0  0  0  0  0  0  0  0  0  0  0
   22.9796  -20.6938  -11.5272 N   0  0  0  0  0  0  0  0  0  0  0  0
   21.8781  -20.2696  -12.3475 C   0  0  1  0  0  0  0  0  0  0  0  0
   22.0905  -20.6111  -13.8069 C   0  0  0  0  0  0  0  0  0  0  0  0
   20.9864  -20.1927  -14.6632 C   0  0  0  0  0  0  0  0  0  0  0  0
   20.7977  -18.9128  -15.1286 C   0  0  0  0  0  0  0  0  0  0  0  0
   19.6738  -18.9308  -15.8817 N   0  0  0  0  0  0  0  0  0  0  0  0
   19.1618  -20.1611  -15.9020 C   0  0  0  0  0  0  0  0  0  0  0  0
   19.9789  -20.9262  -15.1487 N   0  0  0  0  0  0  0  0  0  0  0  0
   20.6241  -20.8255  -11.8185 C   0  0  0  0  0  0  0  0  0  0  0  0
   19.4616  -20.0843  -11.8854 O   0  0  0  0  0  0  0  0  0  0  0  0
   20.5673  -21.9645  -11.3005 O   0  0  0  0  0  0  0  0  0  0  0  0
  2  4  1  0
  2  1  1  0
  3  2  2  0
  4  5  1  0
  5  6  1  6
  7  5  1  0
  7  8  2  0
  9  7  1  0
 10  9  1  0
 10 11  1  1
 12 11  1  0
 12 20  1  0
 13 14  1  0
 13 12  2  0
 14 15  1  0
 15 20  2  0
 15 16  1  0
 16 17  2  0
 17 18  1  0
 19 18  2  0
 20 19  1  0
 21 10  1  0
 22 21  2  0
 23 21  1  0
 24 25  1  6
 24 23  1  0
 25 26  1  0
 26 30  1  0
 26 27  2  0
 27 28  1  0
 29 28  1  0
 30 29  2  0
 31 32  1  0
 31 24  1  0
 33 31  2  0
M  END
$$$$
