NWH.pdb
     RDKit          3D

 33 35  0  0  1  0  0  0  0  0999 V2000
   31.4243  -36.2617  -19.6037 N   0  0  0  0  0  0  0  0  0  0  0  0
   31.4403  -35.5966  -18.3585 C   0  0  0  0  0  0  0  0  0  0  0  0
   31.8938  -36.1696  -17.3457 O   0  0  0  0  0  0  0  0  0  0  0  0
   30.9230  -34.2206  -18.2387 C   0  0  0  0  0  0  0  0  0  0  0  0
   32.0701  -33.3285  -17.8128 C   0  0  2  0  0  0  0  0  0  0  0  0
   32.3407  -33.3615  -16.4098 N   0  0  0  0  0  0  0  0  0  0  0  0
   31.9352  -31.9434  -18.2767 C   0  0  0  0  0  0  0  0  0  0  0  0
   31.4295  -31.0800  -17.5166 O   0  0  0  0  0  0  0  0  0  0  0  0
   32.3571  -31.5312  -19.5651 N   0  0  0  0  0  0  0  0  0  0  0  0
   32.2662  -30.1375  -19.9251 C   0  0  1  0  0  0  0  0  0  0  0  0
   33.2024  -29.7219  -21.0142 C   0  0  0  0  0  0  0  0  0  0  0  0
   33.2508  -28.2839  -21.2868 C   0  0  0  0  0  0  0  0  0  0  0  0
   33.1088  -27.1834  -20.4747 C   0  0  0  0  0  0  0  0  0  0  0  0
   33.2315  -26.0581  -21.2236 N   0  0  0  0  0  0  0  0  0  0  0  0
   33.4484  -26.3921  -22.4962 C   0  0  0  0  0  0  0  0  0  0  0  0
   33.6416  -25.6347  -23.6558 C   0  0  0  0  0  0  0  0  0  0  0  0
   33.8483  -26.2410  -24.8662 C   0  0  0  0  0  0  0  0  0  0  0  0
   33.8619  -27.6092  -24.9166 C   0  0  0  0  0  0  0  0  0  0  0  0
   33.6733  -28.3539  -23.7840 C   0  0  0  0  0  0  0  0  0  0  0  0
   33.4632  -27.7675  -22.5528 C   0  0  0  0  0  0  0  0  0  0  0  0
   30.8825  -29.8996  -20.4450 C   0  0  0  0  0  0  0  0  0  0  0  0
   30.3168  -30.8028  -21.1011 O   0  0  0  0  0  0  0  0  0  0  0  0
   30.2000  -28.6765  -20.2115 N   0  0  0  0  0  0  0  0  0  0  0  0
   28.9038  -28.4732  -20.7987 C   0  0  1  0  0  0  0  0  0  0  0  0
   27.8693  -28.0707  -19.7695 C   0  0  0  0  0  0  0  0  0  0  0  0
   26.5277  -27.9321  -20.3246 C   0  0  0  0  0  0  0  0  0  0  0  0
   26.2061  -28.1098  -21.6496 C   0  0  0  0  0  0  0  0  0  0  0  0
   24.8753  -27.8938  -21.7628 N   0  0  0  0  0  0  0  0  0  0  0  0
   24.3624  -27.5915  -20.5703 C   0  0  0  0  0  0  0  0  0  0  0  0
   25.3896  -27.6187  -19.6959 N   0  0  0  0  0  0  0  0  0  0  0  0
   29.0056  -27.5044  -21.8997 C   0  0  0  0  0  0  0  0  0  0  0  0
   28.2664  -27.6913  -23.0502 O   0  0  0  0  0  0  0  0  0  0  0  0
   29.7493  -26.4985  -21.8344 O   0  0  0  0  0  0  0  0  0  0  0  0
  2  4  1  0
  2  1  1  0
  3  2  2  0
  4  5  1  0
  5  6  1  1
  7  5  1  0
  7  8  2  0
  9  7  1  0
 10  9  1  0
 10 11  1  6
 12 11  1  0
 12 20  1  0
 13 14  1  0
 13 12  2  0
 14 15  1  0
 15 20  2  0
 15 16  1  0
 16 17  2  0
 17 18  1  0
 19 18  2  0
 20 19  1  0
 21 10  1  0
 22 21  2  0
 23 21  1  0
 24 25  1  1
 24 23  1  0
 25 26  1  0
 26 30  1  0
 26 27  2  0
 27 28  1  0
 29 28  1  0
 30 29  2  0
 31 32  1  0
 31 24  1  0
 33 31  2  0
M  END
$$$$
