NHN.pdb
     RDKit          3D

 27 27  0  0  1  0  0  0  0  0999 V2000
   13.4278  -10.4825  -15.7451 N   0  0  0  0  0  0  0  0  0  0  0  0
   13.7947  -10.0223  -14.4599 C   0  0  0  0  0  0  0  0  0  0  0  0
   12.8723   -9.6363  -13.7037 O   0  0  0  0  0  0  0  0  0  0  0  0
   15.2258  -10.0352  -14.1190 C   0  0  0  0  0  0  0  0  0  0  0  0
   16.1266  -10.5982  -15.1769 C   0  0  2  0  0  0  0  0  0  0  0  0
   15.9961  -12.0323  -15.2855 N   0  0  0  0  0  0  0  0  0  0  0  0
   17.5471  -10.1997  -14.9476 C   0  0  0  0  0  0  0  0  0  0  0  0
   18.1637  -10.8361  -14.0353 O   0  0  0  0  0  0  0  0  0  0  0  0
   18.2404   -9.2007  -15.6444 N   0  0  0  0  0  0  0  0  0  0  0  0
   19.6428   -8.8339  -15.3099 C   0  0  1  0  0  0  0  0  0  0  0  0
   20.4060   -8.9489  -16.5671 C   0  0  0  0  0  0  0  0  0  0  0  0
   20.6630  -10.2812  -17.1031 C   0  0  0  0  0  0  0  0  0  0  0  0
   20.0153  -10.8984  -18.1508 C   0  0  0  0  0  0  0  0  0  0  0  0
   20.5107  -12.1322  -18.3271 N   0  0  0  0  0  0  0  0  0  0  0  0
   21.4705  -12.3120  -17.4020 C   0  0  0  0  0  0  0  0  0  0  0  0
   21.5583  -11.1892  -16.6645 N   0  0  0  0  0  0  0  0  0  0  0  0
   19.6932   -7.6027  -14.5531 C   0  0  0  0  0  0  0  0  0  0  0  0
   18.9983   -6.6065  -14.9492 O   0  0  0  0  0  0  0  0  0  0  0  0
   17.9646   -5.5022  -11.3970 N   0  0  0  0  0  0  0  0  0  0  0  0
   19.0519   -5.9893  -10.6276 C   0  0  0  0  0  0  0  0  0  0  0  0
   18.8375   -6.2100   -9.4236 O   0  0  0  0  0  0  0  0  0  0  0  0
   20.3932   -6.2356  -11.1964 C   0  0  0  0  0  0  0  0  0  0  0  0
   20.4529   -6.0861  -12.6988 C   0  0  2  0  0  0  0  0  0  0  0  0
   20.4533   -7.3843  -13.3798 N   0  0  0  0  0  0  0  0  0  0  0  0
   21.5738   -5.2319  -13.0621 C   0  0  0  0  0  0  0  0  0  0  0  0
   22.6191   -5.7775  -13.4971 O   0  0  0  0  0  0  0  0  0  0  0  0
   21.5403   -3.8737  -12.9521 O   0  0  0  0  0  0  0  0  0  0  0  0
  2  3  2  0
  2  1  1  0
  4  2  1  0
  5  7  1  0
  5  4  1  0
  5  6  1  1
  7  8  2  0
  9 10  1  0
  9  7  1  0
 10 11  1  6
 11 12  1  0
 12 16  1  0
 13 12  2  0
 13 14  1  0
 14 15  1  0
 16 15  2  0
 17 24  1  0
 17 10  1  0
 18 17  2  0
 20 19  1  0
 21 20  2  0
 22 20  1  0
 23 24  1  0
 23 22  1  1
 25 27  1  0
 25 23  1  0
 26 25  2  0
M  END
$$$$
