NHN.pdb
     RDKit          3D

 27 27  0  0  1  0  0  0  0  0999 V2000
   29.8404  -21.2259   -9.0807 N   0  0  0  0  0  0  0  0  0  0  0  0
   30.3568  -21.3506  -10.3906 C   0  0  0  0  0  0  0  0  0  0  0  0
   31.5786  -21.6076  -10.5037 O   0  0  0  0  0  0  0  0  0  0  0  0
   29.4182  -21.1685  -11.5087 C   0  0  0  0  0  0  0  0  0  0  0  0
   28.0352  -20.7439  -11.1155 C   0  0  2  0  0  0  0  0  0  0  0  0
   27.5918  -21.4077   -9.9120 N   0  0  0  0  0  0  0  0  0  0  0  0
   27.0671  -20.9473  -12.2339 C   0  0  0  0  0  0  0  0  0  0  0  0
   27.2857  -20.2722  -13.2893 O   0  0  0  0  0  0  0  0  0  0  0  0
   25.9598  -21.8061  -12.2128 N   0  0  0  0  0  0  0  0  0  0  0  0
   25.0580  -21.9596  -13.3861 C   0  0  1  0  0  0  0  0  0  0  0  0
   24.8983  -23.4118  -13.5912 C   0  0  0  0  0  0  0  0  0  0  0  0
   23.9777  -23.8690  -14.6264 C   0  0  0  0  0  0  0  0  0  0  0  0
   23.2223  -23.0895  -15.4749 C   0  0  0  0  0  0  0  0  0  0  0  0
   22.4748  -23.8729  -16.2662 N   0  0  0  0  0  0  0  0  0  0  0  0
   22.7438  -25.1480  -15.9330 C   0  0  0  0  0  0  0  0  0  0  0  0
   23.6535  -25.1396  -14.9406 N   0  0  0  0  0  0  0  0  0  0  0  0
   23.8859  -21.1228  -13.2556 C   0  0  0  0  0  0  0  0  0  0  0  0
   23.8372  -20.2742  -12.3019 O   0  0  0  0  0  0  0  0  0  0  0  0
   20.6635  -17.5040  -15.1355 N   0  0  0  0  0  0  0  0  0  0  0  0
   22.0575  -17.6342  -15.3621 C   0  0  0  0  0  0  0  0  0  0  0  0
   22.6404  -16.6608  -15.8689 O   0  0  0  0  0  0  0  0  0  0  0  0
   22.8167  -18.8559  -15.0241 C   0  0  0  0  0  0  0  0  0  0  0  0
   21.9774  -19.9332  -14.3772 C   0  0  2  0  0  0  0  0  0  0  0  0
   22.7553  -21.1459  -14.1059 N   0  0  0  0  0  0  0  0  0  0  0  0
   20.7824  -20.1679  -15.1740 C   0  0  0  0  0  0  0  0  0  0  0  0
   20.9089  -20.7684  -16.2708 O   0  0  0  0  0  0  0  0  0  0  0  0
   19.5387  -19.7677  -14.7854 O   0  0  0  0  0  0  0  0  0  0  0  0
  2  3  2  0
  2  1  1  0
  4  2  1  0
  5  7  1  0
  5  4  1  0
  5  6  1  1
  7  8  2  0
  9 10  1  0
  9  7  1  0
 10 11  1  1
 11 12  1  0
 12 16  1  0
 13 12  2  0
 13 14  1  0
 14 15  1  0
 16 15  2  0
 17 24  1  0
 17 10  1  0
 18 17  2  0
 20 19  1  0
 21 20  2  0
 22 20  1  0
 23 24  1  0
 23 22  1  6
 25 27  1  0
 25 23  1  0
 26 25  2  0
M  END
$$$$
