NHN.pdb
     RDKit          3D

 27 27  0  0  1  0  0  0  0  0999 V2000
   18.0407  -13.5761  -16.4384 N   0  0  0  0  0  0  0  0  0  0  0  0
   19.1088  -13.8068  -15.5417 C   0  0  0  0  0  0  0  0  0  0  0  0
   19.2977  -14.9878  -15.1660 O   0  0  0  0  0  0  0  0  0  0  0  0
   19.9071  -12.6431  -15.1257 C   0  0  0  0  0  0  0  0  0  0  0  0
   19.5052  -11.3403  -15.7493 C   0  0  2  0  0  0  0  0  0  0  0  0
   19.7204  -11.3399  -17.1774 N   0  0  0  0  0  0  0  0  0  0  0  0
   20.1989  -10.1903  -15.0971 C   0  0  0  0  0  0  0  0  0  0  0  0
   20.1077  -10.1310  -13.8299 O   0  0  0  0  0  0  0  0  0  0  0  0
   20.9279   -9.1920  -15.7574 N   0  0  0  0  0  0  0  0  0  0  0  0
   21.6575   -8.1275  -15.0172 C   0  0  1  0  0  0  0  0  0  0  0  0
   22.9203   -7.9133  -15.7491 C   0  0  0  0  0  0  0  0  0  0  0  0
   23.9485   -8.9456  -15.6752 C   0  0  0  0  0  0  0  0  0  0  0  0
   23.9179  -10.1020  -14.9267 C   0  0  0  0  0  0  0  0  0  0  0  0
   25.0608  -10.7829  -15.0963 N   0  0  0  0  0  0  0  0  0  0  0  0
   25.8244  -10.0738  -15.9469 C   0  0  0  0  0  0  0  0  0  0  0  0
   25.1466   -8.9635  -16.2937 N   0  0  0  0  0  0  0  0  0  0  0  0
   20.7939   -7.0021  -14.7368 C   0  0  0  0  0  0  0  0  0  0  0  0
   20.0283   -6.5666  -15.6623 O   0  0  0  0  0  0  0  0  0  0  0  0
   18.3984   -6.8048  -10.4264 N   0  0  0  0  0  0  0  0  0  0  0  0
   18.3275   -6.0359  -11.6160 C   0  0  0  0  0  0  0  0  0  0  0  0
   17.3837   -6.2758  -12.3880 O   0  0  0  0  0  0  0  0  0  0  0  0
   19.3124   -4.9884  -11.9566 C   0  0  0  0  0  0  0  0  0  0  0  0
   19.8766   -5.1158  -13.3526 C   0  0  2  0  0  0  0  0  0  0  0  0
   20.7045   -6.3164  -13.5024 N   0  0  0  0  0  0  0  0  0  0  0  0
   20.5575   -3.8832  -13.7202 C   0  0  0  0  0  0  0  0  0  0  0  0
   21.7843   -3.9398  -13.9871 O   0  0  0  0  0  0  0  0  0  0  0  0
   19.9269   -2.6766  -13.7876 O   0  0  0  0  0  0  0  0  0  0  0  0
  2  3  2  0
  2  1  1  0
  4  2  1  0
  5  7  1  0
  5  4  1  0
  5  6  1  6
  7  8  2  0
  9 10  1  0
  9  7  1  0
 10 11  1  6
 11 12  1  0
 12 16  1  0
 13 12  2  0
 13 14  1  0
 14 15  1  0
 16 15  2  0
 17 24  1  0
 17 10  1  0
 18 17  2  0
 20 19  1  0
 21 20  2  0
 22 20  1  0
 23 24  1  0
 23 22  1  1
 25 27  1  0
 25 23  1  0
 26 25  2  0
M  END
$$$$
