NHN.pdb
     RDKit          3D

 27 27  0  0  1  0  0  0  0  0999 V2000
   19.7705  -13.0323  -17.8213 N   0  0  0  0  0  0  0  0  0  0  0  0
   18.6602  -12.9215  -16.9536 C   0  0  0  0  0  0  0  0  0  0  0  0
   17.8218  -13.8533  -16.9726 O   0  0  0  0  0  0  0  0  0  0  0  0
   18.5825  -11.7237  -16.1028 C   0  0  0  0  0  0  0  0  0  0  0  0
   19.7533  -10.7930  -16.2063 C   0  0  2  0  0  0  0  0  0  0  0  0
   20.9816  -11.4272  -15.7886 N   0  0  0  0  0  0  0  0  0  0  0  0
   19.5107   -9.5303  -15.4474 C   0  0  0  0  0  0  0  0  0  0  0  0
   18.5247   -8.8275  -15.8362 O   0  0  0  0  0  0  0  0  0  0  0  0
   20.2681   -9.0683  -14.3624 N   0  0  0  0  0  0  0  0  0  0  0  0
   19.9769   -7.7727  -13.6917 C   0  0  1  0  0  0  0  0  0  0  0  0
   20.0421   -8.0394  -12.2423 C   0  0  0  0  0  0  0  0  0  0  0  0
   19.9585   -6.9086  -11.3245 C   0  0  0  0  0  0  0  0  0  0  0  0
   19.8058   -5.5786  -11.6505 C   0  0  0  0  0  0  0  0  0  0  0  0
   19.8039   -4.8350  -10.5344 N   0  0  0  0  0  0  0  0  0  0  0  0
   19.9540   -5.6758   -9.4953 C   0  0  0  0  0  0  0  0  0  0  0  0
   20.0470   -6.9287   -9.9791 N   0  0  0  0  0  0  0  0  0  0  0  0
   20.7682   -6.7031  -14.2582 C   0  0  0  0  0  0  0  0  0  0  0  0
   22.0089   -6.9072  -14.4846 O   0  0  0  0  0  0  0  0  0  0  0  0
   22.4905   -3.3605  -18.3447 N   0  0  0  0  0  0  0  0  0  0  0  0
   21.5364   -3.0918  -17.3302 C   0  0  0  0  0  0  0  0  0  0  0  0
   21.3828   -1.9037  -17.0001 O   0  0  0  0  0  0  0  0  0  0  0  0
   20.7422   -4.1500  -16.6724 C   0  0  0  0  0  0  0  0  0  0  0  0
   21.1607   -4.4263  -15.2470 C   0  0  2  0  0  0  0  0  0  0  0  0
   20.2922   -5.4158  -14.6021 N   0  0  0  0  0  0  0  0  0  0  0  0
   21.2667   -3.1725  -14.5157 C   0  0  0  0  0  0  0  0  0  0  0  0
   20.2406   -2.7343  -13.9372 O   0  0  0  0  0  0  0  0  0  0  0  0
   22.4234   -2.4563  -14.4307 O   0  0  0  0  0  0  0  0  0  0  0  0
  2  3  2  0
  2  1  1  0
  4  2  1  0
  5  7  1  0
  5  4  1  0
  5  6  1  1
  7  8  2  0
  9 10  1  0
  9  7  1  0
 10 11  1  1
 11 12  1  0
 12 16  1  0
 13 12  2  0
 13 14  1  0
 14 15  1  0
 16 15  2  0
 17 24  1  0
 17 10  1  0
 18 17  2  0
 20 19  1  0
 21 20  2  0
 22 20  1  0
 23 24  1  0
 23 22  1  6
 25 27  1  0
 25 23  1  0
 26 25  2  0
M  END
$$$$
