NHN.pdb
     RDKit          3D

 27 27  0  0  1  0  0  0  0  0999 V2000
   16.0912  -15.5263  -15.6922 N   0  0  0  0  0  0  0  0  0  0  0  0
   17.3973  -15.4354  -15.1596 C   0  0  0  0  0  0  0  0  0  0  0  0
   17.5944  -15.9480  -14.0327 O   0  0  0  0  0  0  0  0  0  0  0  0
   18.4135  -14.7480  -15.9717 C   0  0  0  0  0  0  0  0  0  0  0  0
   18.3374  -13.2508  -15.9519 C   0  0  2  0  0  0  0  0  0  0  0  0
   17.0851  -12.7700  -16.4869 N   0  0  0  0  0  0  0  0  0  0  0  0
   19.4997  -12.6396  -16.6622 C   0  0  0  0  0  0  0  0  0  0  0  0
   20.6494  -12.9352  -16.2059 O   0  0  0  0  0  0  0  0  0  0  0  0
   19.4252  -11.7837  -17.7695 N   0  0  0  0  0  0  0  0  0  0  0  0
   20.6415  -11.2152  -18.4105 C   0  0  1  0  0  0  0  0  0  0  0  0
   20.3296  -11.0998  -19.8477 C   0  0  0  0  0  0  0  0  0  0  0  0
   21.3480  -10.5510  -20.7366 C   0  0  0  0  0  0  0  0  0  0  0  0
   21.4015   -9.2770  -21.2584 C   0  0  0  0  0  0  0  0  0  0  0  0
   22.4711   -9.1588  -22.0588 N   0  0  0  0  0  0  0  0  0  0  0  0
   23.1043  -10.3456  -22.0551 C   0  0  0  0  0  0  0  0  0  0  0  0
   22.4206  -11.1838  -21.2537 N   0  0  0  0  0  0  0  0  0  0  0  0
   21.1190  -10.0576  -17.6873 C   0  0  0  0  0  0  0  0  0  0  0  0
   22.1980   -9.4920  -18.0720 O   0  0  0  0  0  0  0  0  0  0  0  0
   22.6854   -5.0961  -16.2778 N   0  0  0  0  0  0  0  0  0  0  0  0
   21.5861   -5.9030  -15.8880 C   0  0  0  0  0  0  0  0  0  0  0  0
   20.9825   -5.5730  -14.8531 O   0  0  0  0  0  0  0  0  0  0  0  0
   21.1484   -7.0897  -16.6519 C   0  0  0  0  0  0  0  0  0  0  0  0
   21.1145   -8.3600  -15.8343 C   0  0  2  0  0  0  0  0  0  0  0  0
   20.4906   -9.4668  -16.5657 N   0  0  0  0  0  0  0  0  0  0  0  0
   20.5047   -8.0934  -14.5400 C   0  0  0  0  0  0  0  0  0  0  0  0
   19.2628   -8.2488  -14.4259 O   0  0  0  0  0  0  0  0  0  0  0  0
   21.2170   -7.6851  -13.4520 O   0  0  0  0  0  0  0  0  0  0  0  0
  2  3  2  0
  2  1  1  0
  4  2  1  0
  5  7  1  0
  5  4  1  0
  5  6  1  6
  7  8  2  0
  9 10  1  0
  9  7  1  0
 10 11  1  6
 11 12  1  0
 12 16  1  0
 13 12  2  0
 13 14  1  0
 14 15  1  0
 16 15  2  0
 17 24  1  0
 17 10  1  0
 18 17  2  0
 20 19  1  0
 21 20  2  0
 22 20  1  0
 23 24  1  0
 23 22  1  6
 25 27  1  0
 25 23  1  0
 26 25  2  0
M  END
$$$$
