NHN.pdb
     RDKit          3D

 27 27  0  0  1  0  0  0  0  0999 V2000
   28.8133  -19.0722   -5.8183 N   0  0  0  0  0  0  0  0  0  0  0  0
   27.5398  -19.5415   -6.2134 C   0  0  0  0  0  0  0  0  0  0  0  0
   26.8648  -20.1593   -5.3565 O   0  0  0  0  0  0  0  0  0  0  0  0
   27.1150  -19.2657   -7.5946 C   0  0  0  0  0  0  0  0  0  0  0  0
   26.0661  -20.1910   -8.1343 C   0  0  2  0  0  0  0  0  0  0  0  0
   26.3737  -21.5735   -7.8524 N   0  0  0  0  0  0  0  0  0  0  0  0
   25.8494  -19.9716   -9.5952 C   0  0  0  0  0  0  0  0  0  0  0  0
   26.2504  -18.8563  -10.0563 O   0  0  0  0  0  0  0  0  0  0  0  0
   25.2517  -20.8793  -10.4800 N   0  0  0  0  0  0  0  0  0  0  0  0
   25.1959  -20.6317  -11.9459 C   0  0  1  0  0  0  0  0  0  0  0  0
   26.1637  -21.5639  -12.5547 C   0  0  0  0  0  0  0  0  0  0  0  0
   27.5873  -21.2899  -12.3920 C   0  0  0  0  0  0  0  0  0  0  0  0
   28.4812  -21.9669  -11.5915 C   0  0  0  0  0  0  0  0  0  0  0  0
   29.6930  -21.3998  -11.6838 N   0  0  0  0  0  0  0  0  0  0  0  0
   29.5846  -20.3651  -12.5364 C   0  0  0  0  0  0  0  0  0  0  0  0
   28.3088  -20.3034  -12.9616 N   0  0  0  0  0  0  0  0  0  0  0  0
   23.8296  -20.6097  -12.4191 C   0  0  0  0  0  0  0  0  0  0  0  0
   22.9792  -21.3995  -11.8851 O   0  0  0  0  0  0  0  0  0  0  0  0
   19.7732  -18.9067  -16.6357 N   0  0  0  0  0  0  0  0  0  0  0  0
   20.1493  -18.7868  -15.2735 C   0  0  0  0  0  0  0  0  0  0  0  0
   19.2316  -18.7139  -14.4387 O   0  0  0  0  0  0  0  0  0  0  0  0
   21.5577  -18.7471  -14.8283 C   0  0  0  0  0  0  0  0  0  0  0  0
   21.9300  -19.8709  -13.8893 C   0  0  2  0  0  0  0  0  0  0  0  0
   23.3225  -19.7731  -13.4414 N   0  0  0  0  0  0  0  0  0  0  0  0
   21.5977  -21.1496  -14.4995 C   0  0  0  0  0  0  0  0  0  0  0  0
   20.4864  -21.6679  -14.2238 O   0  0  0  0  0  0  0  0  0  0  0  0
   22.4338  -21.8065  -15.3525 O   0  0  0  0  0  0  0  0  0  0  0  0
  2  3  2  0
  2  1  1  0
  4  2  1  0
  5  7  1  0
  5  4  1  0
  5  6  1  6
  7  8  2  0
  9 10  1  0
  9  7  1  0
 10 11  1  6
 11 12  1  0
 12 16  1  0
 13 12  2  0
 13 14  1  0
 14 15  1  0
 16 15  2  0
 17 24  1  0
 17 10  1  0
 18 17  2  0
 20 19  1  0
 21 20  2  0
 22 20  1  0
 23 24  1  0
 23 22  1  6
 25 27  1  0
 25 23  1  0
 26 25  2  0
M  END
$$$$
