NHN.pdb
     RDKit          3D

 27 27  0  0  1  0  0  0  0  0999 V2000
   24.1938  -16.9620  -19.9944 N   0  0  0  0  0  0  0  0  0  0  0  0
   23.3160  -17.2404  -18.9220 C   0  0  0  0  0  0  0  0  0  0  0  0
   22.2039  -16.6618  -18.9258 O   0  0  0  0  0  0  0  0  0  0  0  0
   23.7811  -18.1842  -17.8937 C   0  0  0  0  0  0  0  0  0  0  0  0
   25.2295  -18.5604  -17.9841 C   0  0  2  0  0  0  0  0  0  0  0  0
   25.5728  -19.0628  -19.2938 N   0  0  0  0  0  0  0  0  0  0  0  0
   25.6045  -19.5336  -16.9157 C   0  0  0  0  0  0  0  0  0  0  0  0
   25.1306  -20.7072  -17.0402 O   0  0  0  0  0  0  0  0  0  0  0  0
   26.4211  -19.2615  -15.8097 N   0  0  0  0  0  0  0  0  0  0  0  0
   26.7947  -20.3140  -14.8268 C   0  0  1  0  0  0  0  0  0  0  0  0
   28.2537  -20.4914  -14.9532 C   0  0  0  0  0  0  0  0  0  0  0  0
   28.7599  -21.3224  -16.0401 C   0  0  0  0  0  0  0  0  0  0  0  0
   29.2474  -20.8988  -17.2571 C   0  0  0  0  0  0  0  0  0  0  0  0
   29.5879  -21.9594  -18.0038 N   0  0  0  0  0  0  0  0  0  0  0  0
   29.3234  -23.0598  -17.2769 C   0  0  0  0  0  0  0  0  0  0  0  0
   28.8227  -22.6685  -16.0900 N   0  0  0  0  0  0  0  0  0  0  0  0
   26.2170  -20.0438  -13.5290 C   0  0  0  0  0  0  0  0  0  0  0  0
   26.4419  -18.9138  -12.9771 O   0  0  0  0  0  0  0  0  0  0  0  0
   23.4799  -19.9373   -9.0398 N   0  0  0  0  0  0  0  0  0  0  0  0
   22.7923  -20.6661  -10.0436 C   0  0  0  0  0  0  0  0  0  0  0  0
   21.6375  -21.0406   -9.7784 O   0  0  0  0  0  0  0  0  0  0  0  0
   23.3890  -20.9850  -11.3572 C   0  0  0  0  0  0  0  0  0  0  0  0
   24.8266  -20.5408  -11.4954 C   0  0  2  0  0  0  0  0  0  0  0  0
   25.3991  -20.9292  -12.7879 N   0  0  0  0  0  0  0  0  0  0  0  0
   25.5950  -21.0043  -10.3496 C   0  0  0  0  0  0  0  0  0  0  0  0
   26.2917  -22.0418  -10.4827 O   0  0  0  0  0  0  0  0  0  0  0  0
   25.5925  -20.3664   -9.1450 O   0  0  0  0  0  0  0  0  0  0  0  0
  2  3  2  0
  2  1  1  0
  4  2  1  0
  5  7  1  0
  5  4  1  0
  5  6  1  6
  7  8  2  0
  9 10  1  0
  9  7  1  0
 10 11  1  1
 11 12  1  0
 12 16  1  0
 13 12  2  0
 13 14  1  0
 14 15  1  0
 16 15  2  0
 17 24  1  0
 17 10  1  0
 18 17  2  0
 20 19  1  0
 21 20  2  0
 22 20  1  0
 23 24  1  0
 23 22  1  1
 25 27  1  0
 25 23  1  0
 26 25  2  0
M  END
$$$$
