NHN.pdb
     RDKit          3D

 27 27  0  0  1  0  0  0  0  0999 V2000
   18.6106  -13.9136  -17.8422 N   0  0  0  0  0  0  0  0  0  0  0  0
   17.8009  -13.1830  -16.9429 C   0  0  0  0  0  0  0  0  0  0  0  0
   16.5783  -13.4590  -16.9176 O   0  0  0  0  0  0  0  0  0  0  0  0
   18.4604  -12.1620  -16.1140 C   0  0  0  0  0  0  0  0  0  0  0  0
   19.9310  -11.9992  -16.3558 C   0  0  2  0  0  0  0  0  0  0  0  0
   20.6873  -13.1132  -15.8337 N   0  0  0  0  0  0  0  0  0  0  0  0
   20.4300  -10.7025  -15.8091 C   0  0  0  0  0  0  0  0  0  0  0  0
   20.3029  -10.5416  -14.5540 O   0  0  0  0  0  0  0  0  0  0  0  0
   21.0157   -9.6704  -16.5546 N   0  0  0  0  0  0  0  0  0  0  0  0
   21.4294   -8.3841  -15.9319 C   0  0  1  0  0  0  0  0  0  0  0  0
   22.8314   -8.1670  -16.3360 C   0  0  0  0  0  0  0  0  0  0  0  0
   23.8642   -9.0031  -15.7339 C   0  0  0  0  0  0  0  0  0  0  0  0
   23.6960   -9.9727  -14.7696 C   0  0  0  0  0  0  0  0  0  0  0  0
   24.8848  -10.5024  -14.4461 N   0  0  0  0  0  0  0  0  0  0  0  0
   25.8144   -9.8814  -15.1942 C   0  0  0  0  0  0  0  0  0  0  0  0
   25.1914   -8.9756  -15.9713 N   0  0  0  0  0  0  0  0  0  0  0  0
   20.4479   -7.3496  -16.1716 C   0  0  0  0  0  0  0  0  0  0  0  0
   19.7881   -7.3669  -17.2656 O   0  0  0  0  0  0  0  0  0  0  0  0
   16.9760   -3.4163  -15.9901 N   0  0  0  0  0  0  0  0  0  0  0  0
   16.9904   -4.2133  -14.8170 C   0  0  0  0  0  0  0  0  0  0  0  0
   16.0595   -4.0479  -14.0106 O   0  0  0  0  0  0  0  0  0  0  0  0
   18.0472   -5.2058  -14.5317 C   0  0  0  0  0  0  0  0  0  0  0  0
   19.0953   -5.3058  -15.6157 C   0  0  2  0  0  0  0  0  0  0  0  0
   20.1309   -6.2906  -15.2885 N   0  0  0  0  0  0  0  0  0  0  0  0
   19.6182   -3.9811  -15.9153 C   0  0  0  0  0  0  0  0  0  0  0  0
   20.6820   -3.6213  -15.3509 O   0  0  0  0  0  0  0  0  0  0  0  0
   19.0086   -3.1179  -16.7764 O   0  0  0  0  0  0  0  0  0  0  0  0
  2  3  2  0
  2  1  1  0
  4  2  1  0
  5  7  1  0
  5  4  1  0
  5  6  1  1
  7  8  2  0
  9 10  1  0
  9  7  1  0
 10 11  1  6
 11 12  1  0
 12 16  1  0
 13 12  2  0
 13 14  1  0
 14 15  1  0
 16 15  2  0
 17 24  1  0
 17 10  1  0
 18 17  2  0
 20 19  1  0
 21 20  2  0
 22 20  1  0
 23 24  1  0
 23 22  1  1
 25 27  1  0
 25 23  1  0
 26 25  2  0
M  END
$$$$
