NHN.pdb
     RDKit          3D

 27 27  0  0  1  0  0  0  0  0999 V2000
   19.1369  -17.2270  -16.8729 N   0  0  0  0  0  0  0  0  0  0  0  0
   19.8045  -17.3289  -15.6311 C   0  0  0  0  0  0  0  0  0  0  0  0
   19.4799  -18.2798  -14.8815 O   0  0  0  0  0  0  0  0  0  0  0  0
   20.8222  -16.3118  -15.3239 C   0  0  0  0  0  0  0  0  0  0  0  0
   21.0076  -15.2596  -16.3757 C   0  0  2  0  0  0  0  0  0  0  0  0
   21.4347  -15.8270  -17.6331 N   0  0  0  0  0  0  0  0  0  0  0  0
   21.9464  -14.1934  -15.9162 C   0  0  0  0  0  0  0  0  0  0  0  0
   21.6851  -13.6700  -14.7870 O   0  0  0  0  0  0  0  0  0  0  0  0
   23.0700  -13.7339  -16.6166 N   0  0  0  0  0  0  0  0  0  0  0  0
   23.9342  -12.6421  -16.0927 C   0  0  1  0  0  0  0  0  0  0  0  0
   25.3186  -13.0142  -16.4409 C   0  0  0  0  0  0  0  0  0  0  0  0
   26.3841  -12.0562  -16.1670 C   0  0  0  0  0  0  0  0  0  0  0  0
   26.2514  -10.7846  -15.6534 C   0  0  0  0  0  0  0  0  0  0  0  0
   27.4553  -10.1988  -15.5751 N   0  0  0  0  0  0  0  0  0  0  0  0
   28.3592  -11.0830  -16.0338 C   0  0  0  0  0  0  0  0  0  0  0  0
   27.7056  -12.2047  -16.3904 N   0  0  0  0  0  0  0  0  0  0  0  0
   23.4246  -11.3443  -16.4766 C   0  0  0  0  0  0  0  0  0  0  0  0
   23.1211  -11.1383  -17.7004 O   0  0  0  0  0  0  0  0  0  0  0  0
   20.1043   -9.9190  -16.9301 N   0  0  0  0  0  0  0  0  0  0  0  0
   20.1987   -9.0985  -15.7771 C   0  0  0  0  0  0  0  0  0  0  0  0
   19.1445   -8.8665  -15.1615 O   0  0  0  0  0  0  0  0  0  0  0  0
   21.4747   -8.5274  -15.2986 C   0  0  0  0  0  0  0  0  0  0  0  0
   22.6777   -8.9752  -16.0958 C   0  0  2  0  0  0  0  0  0  0  0  0
   23.2172  -10.2477  -15.6069 N   0  0  0  0  0  0  0  0  0  0  0  0
   23.6591   -7.9018  -16.1465 C   0  0  0  0  0  0  0  0  0  0  0  0
   24.7227   -8.0387  -15.4910 O   0  0  0  0  0  0  0  0  0  0  0  0
   23.4770   -6.7607  -16.8696 O   0  0  0  0  0  0  0  0  0  0  0  0
  2  3  2  0
  2  1  1  0
  4  2  1  0
  5  7  1  0
  5  4  1  0
  5  6  1  6
  7  8  2  0
  9 10  1  0
  9  7  1  0
 10 11  1  6
 11 12  1  0
 12 16  1  0
 13 12  2  0
 13 14  1  0
 14 15  1  0
 16 15  2  0
 17 24  1  0
 17 10  1  0
 18 17  2  0
 20 19  1  0
 21 20  2  0
 22 20  1  0
 23 24  1  0
 23 22  1  1
 25 27  1  0
 25 23  1  0
 26 25  2  0
M  END
$$$$
