NHN.pdb
     RDKit          3D

 27 27  0  0  1  0  0  0  0  0999 V2000
   25.7957  -22.5593  -11.0312 N   0  0  0  0  0  0  0  0  0  0  0  0
   25.7745  -21.2987  -10.3920 C   0  0  0  0  0  0  0  0  0  0  0  0
   26.0490  -21.2708   -9.1691 O   0  0  0  0  0  0  0  0  0  0  0  0
   25.4327  -20.1279  -11.2147 C   0  0  0  0  0  0  0  0  0  0  0  0
   25.0988  -20.4309  -12.6445 C   0  0  2  0  0  0  0  0  0  0  0  0
   25.9471  -21.4667  -13.1859 N   0  0  0  0  0  0  0  0  0  0  0  0
   25.1464  -19.1979  -13.4853 C   0  0  0  0  0  0  0  0  0  0  0  0
   24.3514  -18.2638  -13.1493 O   0  0  0  0  0  0  0  0  0  0  0  0
   25.9812  -18.9929  -14.5922 N   0  0  0  0  0  0  0  0  0  0  0  0
   25.9617  -17.7255  -15.3711 C   0  0  1  0  0  0  0  0  0  0  0  0
   27.2909  -17.6129  -16.0011 C   0  0  0  0  0  0  0  0  0  0  0  0
   27.5214  -16.5241  -16.9443 C   0  0  0  0  0  0  0  0  0  0  0  0
   26.5859  -15.6523  -17.4573 C   0  0  0  0  0  0  0  0  0  0  0  0
   27.1748  -14.8101  -18.3190 N   0  0  0  0  0  0  0  0  0  0  0  0
   28.4797  -15.1337  -18.3634 C   0  0  0  0  0  0  0  0  0  0  0  0
   28.6836  -16.1711  -17.5299 N   0  0  0  0  0  0  0  0  0  0  0  0
   24.7728  -17.6348  -16.1892 C   0  0  0  0  0  0  0  0  0  0  0  0
   24.3743  -18.6745  -16.8155 O   0  0  0  0  0  0  0  0  0  0  0  0
   20.3245  -16.2610  -18.6684 N   0  0  0  0  0  0  0  0  0  0  0  0
   20.3867  -15.7486  -17.3473 C   0  0  0  0  0  0  0  0  0  0  0  0
   19.3518  -15.2321  -16.8929 O   0  0  0  0  0  0  0  0  0  0  0  0
   21.6083  -15.8080  -16.5182 C   0  0  0  0  0  0  0  0  0  0  0  0
   22.7688  -16.4998  -17.1949 C   0  0  2  0  0  0  0  0  0  0  0  0
   23.9790  -16.4772  -16.3678 N   0  0  0  0  0  0  0  0  0  0  0  0
   22.9581  -15.9481  -18.5282 C   0  0  0  0  0  0  0  0  0  0  0  0
   23.6348  -14.8954  -18.6443 O   0  0  0  0  0  0  0  0  0  0  0  0
   22.4370  -16.5195  -19.6507 O   0  0  0  0  0  0  0  0  0  0  0  0
  2  3  2  0
  2  1  1  0
  4  2  1  0
  5  7  1  0
  5  4  1  0
  5  6  1  6
  7  8  2  0
  9 10  1  0
  9  7  1  0
 10 11  1  6
 11 12  1  0
 12 16  1  0
 13 12  2  0
 13 14  1  0
 14 15  1  0
 16 15  2  0
 17 24  1  0
 17 10  1  0
 18 17  2  0
 20 19  1  0
 21 20  2  0
 22 20  1  0
 23 24  1  0
 23 22  1  1
 25 27  1  0
 25 23  1  0
 26 25  2  0
M  END
$$$$
