NHN.pdb
     RDKit          3D

 27 27  0  0  1  0  0  0  0  0999 V2000
   22.5638  -22.2178   -8.7927 N   0  0  0  0  0  0  0  0  0  0  0  0
   21.6786  -21.2945   -9.3943 C   0  0  0  0  0  0  0  0  0  0  0  0
   20.4945  -21.2834   -8.9831 O   0  0  0  0  0  0  0  0  0  0  0  0
   22.2212  -20.4258  -10.4505 C   0  0  0  0  0  0  0  0  0  0  0  0
   23.6506  -20.6886  -10.8183 C   0  0  2  0  0  0  0  0  0  0  0  0
   24.5285  -20.5714   -9.6776 N   0  0  0  0  0  0  0  0  0  0  0  0
   24.0943  -19.8035  -11.9359 C   0  0  0  0  0  0  0  0  0  0  0  0
   24.3653  -18.6017  -11.6206 O   0  0  0  0  0  0  0  0  0  0  0  0
   24.2332  -20.1852  -13.2773 N   0  0  0  0  0  0  0  0  0  0  0  0
   24.7086  -19.2384  -14.3217 C   0  0  1  0  0  0  0  0  0  0  0  0
   26.0955  -19.6346  -14.6313 C   0  0  0  0  0  0  0  0  0  0  0  0
   26.7907  -18.9410  -15.7102 C   0  0  0  0  0  0  0  0  0  0  0  0
   27.3082  -17.6644  -15.6844 C   0  0  0  0  0  0  0  0  0  0  0  0
   27.8447  -17.3679  -16.8773 N   0  0  0  0  0  0  0  0  0  0  0  0
   27.6760  -18.4428  -17.6681 C   0  0  0  0  0  0  0  0  0  0  0  0
   27.0379  -19.3912  -16.9570 N   0  0  0  0  0  0  0  0  0  0  0  0
   23.7442  -19.1160  -15.3922 C   0  0  0  0  0  0  0  0  0  0  0  0
   23.1942  -20.1740  -15.8508 O   0  0  0  0  0  0  0  0  0  0  0  0
   19.6520  -16.8818  -16.1680 N   0  0  0  0  0  0  0  0  0  0  0  0
   20.8155  -16.1136  -16.4282 C   0  0  0  0  0  0  0  0  0  0  0  0
   20.9463  -15.0539  -15.7924 O   0  0  0  0  0  0  0  0  0  0  0  0
   21.8476  -16.5222  -17.4034 C   0  0  0  0  0  0  0  0  0  0  0  0
   22.4175  -17.8975  -17.1446 C   0  0  2  0  0  0  0  0  0  0  0  0
   23.3316  -17.9059  -15.9984 N   0  0  0  0  0  0  0  0  0  0  0  0
   23.0050  -18.4226  -18.3682 C   0  0  0  0  0  0  0  0  0  0  0  0
   22.3381  -19.2499  -19.0393 O   0  0  0  0  0  0  0  0  0  0  0  0
   24.2398  -18.0586  -18.8164 O   0  0  0  0  0  0  0  0  0  0  0  0
  2  3  2  0
  2  1  1  0
  4  2  1  0
  5  7  1  0
  5  4  1  0
  5  6  1  1
  7  8  2  0
  9 10  1  0
  9  7  1  0
 10 11  1  6
 11 12  1  0
 12 16  1  0
 13 12  2  0
 13 14  1  0
 14 15  1  0
 16 15  2  0
 17 24  1  0
 17 10  1  0
 18 17  2  0
 20 19  1  0
 21 20  2  0
 22 20  1  0
 23 24  1  0
 23 22  1  6
 25 27  1  0
 25 23  1  0
 26 25  2  0
M  END
$$$$
