NHN.pdb
     RDKit          3D

 27 27  0  0  1  0  0  0  0  0999 V2000
   28.1923  -14.1580  -17.9488 N   0  0  0  0  0  0  0  0  0  0  0  0
   29.3015  -13.2818  -17.9436 C   0  0  0  0  0  0  0  0  0  0  0  0
   30.4324  -13.7866  -18.1377 O   0  0  0  0  0  0  0  0  0  0  0  0
   29.0352  -11.8537  -17.7111 C   0  0  0  0  0  0  0  0  0  0  0  0
   27.5994  -11.5082  -17.4526 C   0  0  2  0  0  0  0  0  0  0  0  0
   26.7192  -12.1075  -18.4281 N   0  0  0  0  0  0  0  0  0  0  0  0
   27.4019  -10.0300  -17.3812 C   0  0  0  0  0  0  0  0  0  0  0  0
   28.0706   -9.4213  -16.4869 O   0  0  0  0  0  0  0  0  0  0  0  0
   26.5556   -9.2759  -18.2054 N   0  0  0  0  0  0  0  0  0  0  0  0
   26.4297   -7.7999  -18.0672 C   0  0  1  0  0  0  0  0  0  0  0  0
   26.8699   -7.2302  -19.3548 C   0  0  0  0  0  0  0  0  0  0  0  0
   28.2886   -7.2874  -19.6898 C   0  0  0  0  0  0  0  0  0  0  0  0
   29.0677   -8.4148  -19.8317 C   0  0  0  0  0  0  0  0  0  0  0  0
   30.3308   -8.0614  -20.1115 N   0  0  0  0  0  0  0  0  0  0  0  0
   30.3691   -6.7174  -20.1505 C   0  0  0  0  0  0  0  0  0  0  0  0
   29.1310   -6.2546  -19.8947 N   0  0  0  0  0  0  0  0  0  0  0  0
   25.1384   -7.4352  -17.5281 C   0  0  0  0  0  0  0  0  0  0  0  0
   24.8816   -6.2004  -17.3243 O   0  0  0  0  0  0  0  0  0  0  0  0
   20.7686   -8.9211  -14.9939 N   0  0  0  0  0  0  0  0  0  0  0  0
   21.7467   -8.0509  -14.4483 C   0  0  0  0  0  0  0  0  0  0  0  0
   21.6462   -7.7747  -13.2409 O   0  0  0  0  0  0  0  0  0  0  0  0
   22.8500   -7.4789  -15.2476 C   0  0  0  0  0  0  0  0  0  0  0  0
   22.7998   -7.8561  -16.7099 C   0  0  2  0  0  0  0  0  0  0  0  0
   24.0968   -8.3342  -17.1981 N   0  0  0  0  0  0  0  0  0  0  0  0
   22.2526   -6.7508  -17.4825 C   0  0  0  0  0  0  0  0  0  0  0  0
   21.7075   -7.0098  -18.5849 O   0  0  0  0  0  0  0  0  0  0  0  0
   22.3046   -5.4541  -17.0656 O   0  0  0  0  0  0  0  0  0  0  0  0
  2  3  2  0
  2  1  1  0
  4  2  1  0
  5  7  1  0
  5  4  1  0
  5  6  1  6
  7  8  2  0
  9 10  1  0
  9  7  1  0
 10 11  1  6
 11 12  1  0
 12 16  1  0
 13 12  2  0
 13 14  1  0
 14 15  1  0
 16 15  2  0
 17 24  1  0
 17 10  1  0
 18 17  2  0
 20 19  1  0
 21 20  2  0
 22 20  1  0
 23 24  1  0
 23 22  1  1
 25 27  1  0
 25 23  1  0
 26 25  2  0
M  END
$$$$
