NHN.pdb
     RDKit          3D

 27 27  0  0  1  0  0  0  0  0999 V2000
   21.3934  -14.7172  -19.8916 N   0  0  0  0  0  0  0  0  0  0  0  0
   22.4964  -15.0505  -19.0729 C   0  0  0  0  0  0  0  0  0  0  0  0
   22.7957  -16.2643  -18.9797 O   0  0  0  0  0  0  0  0  0  0  0  0
   23.1987  -13.9465  -18.4003 C   0  0  0  0  0  0  0  0  0  0  0  0
   22.6840  -12.5756  -18.7219 C   0  0  2  0  0  0  0  0  0  0  0  0
   23.0296  -12.1741  -20.0654 N   0  0  0  0  0  0  0  0  0  0  0  0
   23.1515  -11.5722  -17.7200 C   0  0  0  0  0  0  0  0  0  0  0  0
   22.8205  -11.7951  -16.5124 O   0  0  0  0  0  0  0  0  0  0  0  0
   23.9111  -10.4281  -17.9995 N   0  0  0  0  0  0  0  0  0  0  0  0
   24.2657   -9.4396  -16.9457 C   0  0  1  0  0  0  0  0  0  0  0  0
   25.7358   -9.3206  -16.9754 C   0  0  0  0  0  0  0  0  0  0  0  0
   26.5328  -10.4520  -16.5141 C   0  0  0  0  0  0  0  0  0  0  0  0
   26.0747  -11.6116  -15.9277 C   0  0  0  0  0  0  0  0  0  0  0  0
   27.1119  -12.4011  -15.6121 N   0  0  0  0  0  0  0  0  0  0  0  0
   28.2313  -11.7585  -15.9907 C   0  0  0  0  0  0  0  0  0  0  0  0
   27.8750  -10.5802  -16.5356 N   0  0  0  0  0  0  0  0  0  0  0  0
   23.4498   -8.2503  -17.0509 C   0  0  0  0  0  0  0  0  0  0  0  0
   23.1823   -7.7867  -18.2109 O   0  0  0  0  0  0  0  0  0  0  0  0
   19.7830   -4.5924  -16.5958 N   0  0  0  0  0  0  0  0  0  0  0  0
   19.6881   -5.8910  -17.1582 C   0  0  0  0  0  0  0  0  0  0  0  0
   18.6908   -6.1308  -17.8598 O   0  0  0  0  0  0  0  0  0  0  0  0
   20.7086   -6.9376  -16.9425 C   0  0  0  0  0  0  0  0  0  0  0  0
   21.9210   -6.4559  -16.1801 C   0  0  2  0  0  0  0  0  0  0  0  0
   22.8969   -7.5289  -15.9666 N   0  0  0  0  0  0  0  0  0  0  0  0
   21.4982   -5.7941  -14.9548 C   0  0  0  0  0  0  0  0  0  0  0  0
   21.2544   -6.5070  -13.9489 O   0  0  0  0  0  0  0  0  0  0  0  0
   21.3559   -4.4424  -14.8504 O   0  0  0  0  0  0  0  0  0  0  0  0
  2  3  2  0
  2  1  1  0
  4  2  1  0
  5  7  1  0
  5  4  1  0
  5  6  1  6
  7  8  2  0
  9 10  1  0
  9  7  1  0
 10 11  1  6
 11 12  1  0
 12 16  1  0
 13 12  2  0
 13 14  1  0
 14 15  1  0
 16 15  2  0
 17 24  1  0
 17 10  1  0
 18 17  2  0
 20 19  1  0
 21 20  2  0
 22 20  1  0
 23 24  1  0
 23 22  1  1
 25 27  1  0
 25 23  1  0
 26 25  2  0
M  END
$$$$
