NHN.pdb
     RDKit          3D

 27 27  0  0  1  0  0  0  0  0999 V2000
   26.9838  -35.0443  -13.9321 N   0  0  0  0  0  0  0  0  0  0  0  0
   26.5419  -33.7032  -13.9971 C   0  0  0  0  0  0  0  0  0  0  0  0
   26.7223  -33.0912  -15.0762 O   0  0  0  0  0  0  0  0  0  0  0  0
   25.9086  -33.1398  -12.7945 C   0  0  0  0  0  0  0  0  0  0  0  0
   25.6968  -34.1115  -11.6727 C   0  0  2  0  0  0  0  0  0  0  0  0
   24.6021  -35.0137  -11.9435 N   0  0  0  0  0  0  0  0  0  0  0  0
   25.5062  -33.4043  -10.3717 C   0  0  0  0  0  0  0  0  0  0  0  0
   26.4918  -32.7111   -9.9650 O   0  0  0  0  0  0  0  0  0  0  0  0
   24.3503  -33.4428   -9.5800 N   0  0  0  0  0  0  0  0  0  0  0  0
   24.2636  -32.7330   -8.2754 C   0  0  1  0  0  0  0  0  0  0  0  0
   22.8427  -32.3788   -8.0968 C   0  0  0  0  0  0  0  0  0  0  0  0
   22.3522  -31.1489   -8.7091 C   0  0  0  0  0  0  0  0  0  0  0  0
   23.0866  -30.2101   -9.4000 C   0  0  0  0  0  0  0  0  0  0  0  0
   22.2893  -29.2022   -9.7834 N   0  0  0  0  0  0  0  0  0  0  0  0
   21.0497  -29.4860   -9.3447 C   0  0  0  0  0  0  0  0  0  0  0  0
   21.0938  -30.6646   -8.6957 N   0  0  0  0  0  0  0  0  0  0  0  0
   24.9539  -33.4651   -7.2368 C   0  0  0  0  0  0  0  0  0  0  0  0
   24.8005  -34.7316   -7.1689 O   0  0  0  0  0  0  0  0  0  0  0  0
   27.8670  -35.1948   -3.2242 N   0  0  0  0  0  0  0  0  0  0  0  0
   28.2647  -33.8687   -3.5320 C   0  0  0  0  0  0  0  0  0  0  0  0
   29.2263  -33.4056   -2.8957 O   0  0  0  0  0  0  0  0  0  0  0  0
   27.5908  -33.0441   -4.5563 C   0  0  0  0  0  0  0  0  0  0  0  0
   26.4085  -33.7265   -5.2042 C   0  0  2  0  0  0  0  0  0  0  0  0
   25.8121  -32.9045   -6.2615 N   0  0  0  0  0  0  0  0  0  0  0  0
   25.4621  -34.1438   -4.1804 C   0  0  0  0  0  0  0  0  0  0  0  0
   25.8195  -35.0352   -3.3698 O   0  0  0  0  0  0  0  0  0  0  0  0
   24.2120  -33.6133   -4.0622 O   0  0  0  0  0  0  0  0  0  0  0  0
  2  3  2  0
  2  1  1  0
  4  2  1  0
  5  7  1  0
  5  4  1  0
  5  6  1  6
  7  8  2  0
  9 10  1  0
  9  7  1  0
 10 11  1  1
 11 12  1  0
 12 16  1  0
 13 12  2  0
 13 14  1  0
 14 15  1  0
 16 15  2  0
 17 24  1  0
 17 10  1  0
 18 17  2  0
 20 19  1  0
 21 20  2  0
 22 20  1  0
 23 24  1  0
 23 22  1  1
 25 27  1  0
 25 23  1  0
 26 25  2  0
M  END
$$$$
