NHN.pdb
     RDKit          3D

 27 27  0  0  1  0  0  0  0  0999 V2000
   19.1162  -12.7905  -19.8735 N   0  0  0  0  0  0  0  0  0  0  0  0
   18.4398  -11.7045  -19.2725 C   0  0  0  0  0  0  0  0  0  0  0  0
   17.3044  -11.4174  -19.7197 O   0  0  0  0  0  0  0  0  0  0  0  0
   19.1245  -11.0042  -18.1747 C   0  0  0  0  0  0  0  0  0  0  0  0
   20.5091  -11.4938  -17.8735 C   0  0  2  0  0  0  0  0  0  0  0  0
   20.5000  -12.8376  -17.3447 N   0  0  0  0  0  0  0  0  0  0  0  0
   21.2284  -10.5574  -16.9597 C   0  0  0  0  0  0  0  0  0  0  0  0
   20.9388  -10.6519  -15.7249 O   0  0  0  0  0  0  0  0  0  0  0  0
   22.1782   -9.6026  -17.3474 N   0  0  0  0  0  0  0  0  0  0  0  0
   22.9290   -8.7882  -16.3542 C   0  0  1  0  0  0  0  0  0  0  0  0
   24.3553   -8.9332  -16.7018 C   0  0  0  0  0  0  0  0  0  0  0  0
   25.0307  -10.1788  -16.3548 C   0  0  0  0  0  0  0  0  0  0  0  0
   24.4898  -11.2700  -15.7106 C   0  0  0  0  0  0  0  0  0  0  0  0
   25.4313  -12.2099  -15.5411 N   0  0  0  0  0  0  0  0  0  0  0  0
   26.5716  -11.7315  -16.0706 C   0  0  0  0  0  0  0  0  0  0  0  0
   26.3233  -10.5027  -16.5614 N   0  0  0  0  0  0  0  0  0  0  0  0
   22.3557   -7.4671  -16.2234 C   0  0  0  0  0  0  0  0  0  0  0  0
   22.0369   -6.8257  -17.2813 O   0  0  0  0  0  0  0  0  0  0  0  0
   20.0382   -3.0022  -14.7429 N   0  0  0  0  0  0  0  0  0  0  0  0
   19.3487   -4.2240  -14.5352 C   0  0  0  0  0  0  0  0  0  0  0  0
   18.1392   -4.1499  -14.2599 O   0  0  0  0  0  0  0  0  0  0  0  0
   20.0045   -5.5445  -14.6330 C   0  0  0  0  0  0  0  0  0  0  0  0
   21.4731   -5.4692  -14.9805 C   0  0  2  0  0  0  0  0  0  0  0  0
   22.0998   -6.7943  -15.0053 N   0  0  0  0  0  0  0  0  0  0  0  0
   22.1375   -4.5216  -14.0980 C   0  0  0  0  0  0  0  0  0  0  0  0
   22.7350   -4.9703  -13.0874 O   0  0  0  0  0  0  0  0  0  0  0  0
   22.1405   -3.1764  -14.3179 O   0  0  0  0  0  0  0  0  0  0  0  0
  2  3  2  0
  2  1  1  0
  4  2  1  0
  5  7  1  0
  5  4  1  0
  5  6  1  1
  7  8  2  0
  9 10  1  0
  9  7  1  0
 10 11  1  6
 11 12  1  0
 12 16  1  0
 13 12  2  0
 13 14  1  0
 14 15  1  0
 16 15  2  0
 17 24  1  0
 17 10  1  0
 18 17  2  0
 20 19  1  0
 21 20  2  0
 22 20  1  0
 23 24  1  0
 23 22  1  1
 25 27  1  0
 25 23  1  0
 26 25  2  0
M  END
$$$$
