KYW.pdb
     RDKit          3D

 36 38  0  0  1  0  0  0  0  0999 V2000
   28.2251  -28.4655  -23.1444 N   0  0  0  0  0  0  0  0  0  0  0  0
   27.0855  -28.1333  -23.9207 C   0  0  1  0  0  0  0  0  0  0  0  0
   25.9502  -29.1134  -23.5449 C   0  0  0  0  0  0  0  0  0  0  0  0
   26.6066  -30.3405  -23.0526 C   0  0  0  0  0  0  0  0  0  0  0  0
   26.3369  -31.6231  -23.7376 C   0  0  0  0  0  0  0  0  0  0  0  0
   27.0028  -32.7800  -23.0626 C   0  0  0  0  0  0  0  0  0  0  0  0
   26.7406  -33.9892  -23.7573 N   0  0  0  0  0  0  0  0  0  0  0  0
   26.5525  -26.7665  -23.7144 C   0  0  0  0  0  0  0  0  0  0  0  0
   27.1503  -25.9628  -22.9155 O   0  0  0  0  0  0  0  0  0  0  0  0
   24.6006  -18.4697  -24.4869 O   0  0  0  0  0  0  0  0  0  0  0  0
   24.9786  -19.8017  -24.4774 C   0  0  0  0  0  0  0  0  0  0  0  0
   25.7324  -20.3036  -23.4559 C   0  0  0  0  0  0  0  0  0  0  0  0
   26.1113  -21.6280  -23.4415 C   0  0  0  0  0  0  0  0  0  0  0  0
   25.7503  -22.4833  -24.4401 C   0  0  0  0  0  0  0  0  0  0  0  0
   26.1070  -23.8951  -24.4922 C   0  0  0  0  0  0  0  0  0  0  0  0
   25.0008  -24.8642  -24.1958 C   0  0  2  0  0  0  0  0  0  0  0  0
   25.3933  -26.2477  -24.3473 N   0  0  0  0  0  0  0  0  0  0  0  0
   23.7138  -24.5711  -24.8591 C   0  0  0  0  0  0  0  0  0  0  0  0
   23.6109  -24.7545  -26.0940 O   0  0  0  0  0  0  0  0  0  0  0  0
   24.9782  -21.9389  -25.4723 C   0  0  0  0  0  0  0  0  0  0  0  0
   24.5957  -20.6238  -25.4974 C   0  0  0  0  0  0  0  0  0  0  0  0
   22.5796  -24.0806  -24.1394 N   0  0  0  0  0  0  0  0  0  0  0  0
   21.3210  -23.8601  -24.8037 C   0  0  1  0  0  0  0  0  0  0  0  0
   20.6648  -25.1817  -25.1235 C   0  0  0  0  0  0  0  0  0  0  0  0
   20.2543  -25.9177  -23.9231 C   0  0  0  0  0  0  0  0  0  0  0  0
   20.0779  -25.3633  -22.6752 C   0  0  0  0  0  0  0  0  0  0  0  0
   19.7025  -26.3349  -21.8270 N   0  0  0  0  0  0  0  0  0  0  0  0
   19.6349  -27.4917  -22.4998 C   0  0  0  0  0  0  0  0  0  0  0  0
   19.3034  -28.7741  -22.1064 C   0  0  0  0  0  0  0  0  0  0  0  0
   19.3058  -29.8259  -23.0003 C   0  0  0  0  0  0  0  0  0  0  0  0
   19.6468  -29.5968  -24.3198 C   0  0  0  0  0  0  0  0  0  0  0  0
   19.9787  -28.3209  -24.7197 C   0  0  0  0  0  0  0  0  0  0  0  0
   19.9756  -27.2617  -23.8168 C   0  0  0  0  0  0  0  0  0  0  0  0
   20.4677  -22.9602  -24.0283 C   0  0  0  0  0  0  0  0  0  0  0  0
   19.2910  -22.4878  -24.5691 O   0  0  0  0  0  0  0  0  0  0  0  0
   20.7484  -22.5788  -22.8619 O   0  0  0  0  0  0  0  0  0  0  0  0
  2  3  1  0
  2  1  1  1
  4  3  1  0
  5  4  1  0
  5  6  1  0
  6  7  1  0
  8  2  1  0
  8 17  1  0
  9  8  2  0
 10 11  1  0
 11 21  2  0
 12 11  1  0
 12 13  2  0
 13 14  1  0
 14 20  2  0
 14 15  1  0
 16 15  1  6
 16 17  1  0
 18 16  1  0
 19 18  2  0
 21 20  1  0
 22 18  1  0
 23 34  1  0
 23 22  1  0
 23 24  1  1
 25 24  1  0
 26 25  2  0
 27 26  1  0
 28 27  1  0
 28 33  2  0
 29 28  1  0
 30 29  2  0
 30 31  1  0
 31 32  2  0
 32 33  1  0
 33 25  1  0
 34 35  1  0
 36 34  2  0
M  END
$$$$
