KYW.pdb
     RDKit          3D

 36 38  0  0  1  0  0  0  0  0999 V2000
   27.0445  -17.0605  -18.8012 N   0  0  0  0  0  0  0  0  0  0  0  0
   27.6098  -17.9170  -17.8221 C   0  0  1  0  0  0  0  0  0  0  0  0
   28.9419  -17.2891  -17.3512 C   0  0  0  0  0  0  0  0  0  0  0  0
   29.9154  -17.5164  -18.4374 C   0  0  0  0  0  0  0  0  0  0  0  0
   30.3294  -16.3743  -19.2808 C   0  0  0  0  0  0  0  0  0  0  0  0
   31.3284  -16.7683  -20.3221 C   0  0  0  0  0  0  0  0  0  0  0  0
   31.7062  -15.6493  -21.1085 N   0  0  0  0  0  0  0  0  0  0  0  0
   26.7861  -18.1257  -16.6086 C   0  0  0  0  0  0  0  0  0  0  0  0
   27.1875  -17.6723  -15.4795 O   0  0  0  0  0  0  0  0  0  0  0  0
   23.5250  -12.8019  -17.0406 O   0  0  0  0  0  0  0  0  0  0  0  0
   23.4942  -14.1374  -16.6761 C   0  0  0  0  0  0  0  0  0  0  0  0
   23.4000  -15.1152  -17.6241 C   0  0  0  0  0  0  0  0  0  0  0  0
   23.3691  -16.4453  -17.2670 C   0  0  0  0  0  0  0  0  0  0  0  0
   23.4311  -16.8344  -15.9617 C   0  0  0  0  0  0  0  0  0  0  0  0
   23.4093  -18.2185  -15.5068 C   0  0  0  0  0  0  0  0  0  0  0  0
   24.7447  -18.8904  -15.3813 C   0  0  2  0  0  0  0  0  0  0  0  0
   25.5433  -18.8102  -16.5841 N   0  0  0  0  0  0  0  0  0  0  0  0
   24.7105  -20.2571  -14.8216 C   0  0  0  0  0  0  0  0  0  0  0  0
   24.4368  -21.2171  -15.5783 O   0  0  0  0  0  0  0  0  0  0  0  0
   23.5271  -15.8090  -15.0142 C   0  0  0  0  0  0  0  0  0  0  0  0
   23.5586  -14.4833  -15.3574 C   0  0  0  0  0  0  0  0  0  0  0  0
   24.9760  -20.5227  -13.4417 N   0  0  0  0  0  0  0  0  0  0  0  0
   24.8646  -21.8567  -12.9106 C   0  0  1  0  0  0  0  0  0  0  0  0
   25.9305  -22.0902  -11.8670 C   0  0  0  0  0  0  0  0  0  0  0  0
   25.7209  -21.2948  -10.6526 C   0  0  0  0  0  0  0  0  0  0  0  0
   24.5342  -21.2031   -9.9604 C   0  0  0  0  0  0  0  0  0  0  0  0
   24.7175  -20.3895   -8.9074 N   0  0  0  0  0  0  0  0  0  0  0  0
   25.9871  -19.9610   -8.9100 C   0  0  0  0  0  0  0  0  0  0  0  0
   26.6827  -19.1201   -8.0625 C   0  0  0  0  0  0  0  0  0  0  0  0
   28.0132  -18.8210   -8.2756 C   0  0  0  0  0  0  0  0  0  0  0  0
   28.6694  -19.3722   -9.3598 C   0  0  0  0  0  0  0  0  0  0  0  0
   27.9827  -20.2116  -10.2094 C   0  0  0  0  0  0  0  0  0  0  0  0
   26.6410  -20.5120   -9.9927 C   0  0  0  0  0  0  0  0  0  0  0  0
   23.5096  -22.1182  -12.4259 C   0  0  0  0  0  0  0  0  0  0  0  0
   23.0483  -23.4138  -12.3312 O   0  0  0  0  0  0  0  0  0  0  0  0
   22.7140  -21.2067  -12.0784 O   0  0  0  0  0  0  0  0  0  0  0  0
  2  3  1  0
  2  1  1  6
  4  3  1  0
  5  4  1  0
  5  6  1  0
  6  7  1  0
  8  2  1  0
  8 17  1  0
  9  8  2  0
 10 11  1  0
 11 21  2  0
 12 11  1  0
 12 13  2  0
 13 14  1  0
 14 20  2  0
 14 15  1  0
 16 15  1  6
 16 17  1  0
 18 16  1  0
 19 18  2  0
 21 20  1  0
 22 18  1  0
 23 34  1  0
 23 22  1  0
 23 24  1  1
 25 24  1  0
 26 25  2  0
 27 26  1  0
 28 27  1  0
 28 33  2  0
 29 28  1  0
 30 29  2  0
 30 31  1  0
 31 32  2  0
 32 33  1  0
 33 25  1  0
 34 35  1  0
 36 34  2  0
M  END
$$$$
