KYW.pdb
     RDKit          3D

 36 38  0  0  1  0  0  0  0  0999 V2000
   28.8562  -22.3958  -17.8836 N   0  0  0  0  0  0  0  0  0  0  0  0
   28.2243  -21.2419  -17.3532 C   0  0  1  0  0  0  0  0  0  0  0  0
   27.1603  -20.7705  -18.3710 C   0  0  0  0  0  0  0  0  0  0  0  0
   27.8891  -20.4420  -19.6121 C   0  0  0  0  0  0  0  0  0  0  0  0
   27.3302  -20.8787  -20.9097 C   0  0  0  0  0  0  0  0  0  0  0  0
   28.1595  -20.4242  -22.0686 C   0  0  0  0  0  0  0  0  0  0  0  0
   27.6099  -20.8831  -23.2937 N   0  0  0  0  0  0  0  0  0  0  0  0
   27.5215  -21.4383  -16.0640 C   0  0  0  0  0  0  0  0  0  0  0  0
   26.6648  -22.3832  -15.9421 O   0  0  0  0  0  0  0  0  0  0  0  0
   24.3458  -20.2361   -7.8542 O   0  0  0  0  0  0  0  0  0  0  0  0
   25.1347  -20.2419   -8.9921 C   0  0  0  0  0  0  0  0  0  0  0  0
   25.3092  -19.1025   -9.7235 C   0  0  0  0  0  0  0  0  0  0  0  0
   26.0930  -19.1028  -10.8563 C   0  0  0  0  0  0  0  0  0  0  0  0
   26.7210  -20.2334  -11.2881 C   0  0  0  0  0  0  0  0  0  0  0  0
   27.5686  -20.3112  -12.4707 C   0  0  0  0  0  0  0  0  0  0  0  0
   26.9071  -20.8082  -13.7222 C   0  0  2  0  0  0  0  0  0  0  0  0
   27.7201  -20.6418  -14.9065 N   0  0  0  0  0  0  0  0  0  0  0  0
   25.5192  -20.3452  -13.9260 C   0  0  0  0  0  0  0  0  0  0  0  0
   25.3230  -19.1998  -14.3936 O   0  0  0  0  0  0  0  0  0  0  0  0
   26.5225  -21.3844  -10.5173 C   0  0  0  0  0  0  0  0  0  0  0  0
   25.7454  -21.3961   -9.3894 C   0  0  0  0  0  0  0  0  0  0  0  0
   24.3888  -21.1597  -13.6035 N   0  0  0  0  0  0  0  0  0  0  0  0
   23.0494  -20.6413  -13.7098 C   0  0  1  0  0  0  0  0  0  0  0  0
   22.7659  -20.2246  -15.1330 C   0  0  0  0  0  0  0  0  0  0  0  0
   21.4296  -19.6432  -15.2996 C   0  0  0  0  0  0  0  0  0  0  0  0
   21.0283  -18.4239  -14.8017 C   0  0  0  0  0  0  0  0  0  0  0  0
   19.7462  -18.2235  -15.1488 N   0  0  0  0  0  0  0  0  0  0  0  0
   19.3205  -19.2807  -15.8534 C   0  0  0  0  0  0  0  0  0  0  0  0
   18.1032  -19.5756  -16.4371 C   0  0  0  0  0  0  0  0  0  0  0  0
   17.9007  -20.7542  -17.1264 C   0  0  0  0  0  0  0  0  0  0  0  0
   18.9354  -21.6635  -17.2384 C   0  0  0  0  0  0  0  0  0  0  0  0
   20.1520  -21.3767  -16.6591 C   0  0  0  0  0  0  0  0  0  0  0  0
   20.3542  -20.1877  -15.9645 C   0  0  0  0  0  0  0  0  0  0  0  0
   22.0738  -21.5922  -13.1774 C   0  0  0  0  0  0  0  0  0  0  0  0
   21.0076  -21.1413  -12.4291 O   0  0  0  0  0  0  0  0  0  0  0  0
   22.1484  -22.8346  -13.3661 O   0  0  0  0  0  0  0  0  0  0  0  0
  2  3  1  0
  2  1  1  6
  4  3  1  0
  5  4  1  0
  5  6  1  0
  6  7  1  0
  8  2  1  0
  8 17  1  0
  9  8  2  0
 10 11  1  0
 11 21  2  0
 12 11  1  0
 12 13  2  0
 13 14  1  0
 14 20  2  0
 14 15  1  0
 16 15  1  1
 16 17  1  0
 18 16  1  0
 19 18  2  0
 21 20  1  0
 22 18  1  0
 23 34  1  0
 23 22  1  0
 23 24  1  6
 25 24  1  0
 26 25  2  0
 27 26  1  0
 28 27  1  0
 28 33  2  0
 29 28  1  0
 30 29  2  0
 30 31  1  0
 31 32  2  0
 32 33  1  0
 33 25  1  0
 34 35  1  0
 36 34  2  0
M  END
$$$$
