KYW.pdb
     RDKit          3D

 36 38  0  0  1  0  0  0  0  0999 V2000
   25.8276  -19.7406  -17.2941 N   0  0  0  0  0  0  0  0  0  0  0  0
   26.6417  -20.4247  -16.3555 C   0  0  1  0  0  0  0  0  0  0  0  0
   28.1139  -20.0427  -16.6333 C   0  0  0  0  0  0  0  0  0  0  0  0
   28.6971  -21.1635  -17.3968 C   0  0  0  0  0  0  0  0  0  0  0  0
   30.1189  -21.0959  -17.7979 C   0  0  0  0  0  0  0  0  0  0  0  0
   30.5329  -22.2701  -18.6268 C   0  0  0  0  0  0  0  0  0  0  0  0
   31.9433  -22.3096  -18.7777 N   0  0  0  0  0  0  0  0  0  0  0  0
   26.3801  -20.1023  -14.9334 C   0  0  0  0  0  0  0  0  0  0  0  0
   26.5308  -18.9011  -14.5137 O   0  0  0  0  0  0  0  0  0  0  0  0
   20.4270  -18.1271  -15.5764 O   0  0  0  0  0  0  0  0  0  0  0  0
   21.3321  -18.8167  -14.7874 C   0  0  0  0  0  0  0  0  0  0  0  0
   21.7640  -20.0602  -15.1491 C   0  0  0  0  0  0  0  0  0  0  0  0
   22.6644  -20.7507  -14.3679 C   0  0  0  0  0  0  0  0  0  0  0  0
   23.1560  -20.2224  -13.2110 C   0  0  0  0  0  0  0  0  0  0  0  0
   24.1128  -20.8877  -12.3363 C   0  0  0  0  0  0  0  0  0  0  0  0
   25.5613  -20.6295  -12.6291 C   0  0  2  0  0  0  0  0  0  0  0  0
   25.9614  -21.0420  -13.9560 N   0  0  0  0  0  0  0  0  0  0  0  0
   26.5047  -21.0918  -11.5905 C   0  0  0  0  0  0  0  0  0  0  0  0
   27.2768  -22.0433  -11.8509 O   0  0  0  0  0  0  0  0  0  0  0  0
   22.6941  -18.9469  -12.8677 C   0  0  0  0  0  0  0  0  0  0  0  0
   21.7991  -18.2510  -13.6364 C   0  0  0  0  0  0  0  0  0  0  0  0
   26.5647  -20.4921  -10.2937 N   0  0  0  0  0  0  0  0  0  0  0  0
   26.9515  -21.2622   -9.1399 C   0  0  1  0  0  0  0  0  0  0  0  0
   28.3056  -20.8124   -8.6462 C   0  0  0  0  0  0  0  0  0  0  0  0
   28.2184  -19.8899   -7.5092 C   0  0  0  0  0  0  0  0  0  0  0  0
   27.5768  -18.6718   -7.5245 C   0  0  0  0  0  0  0  0  0  0  0  0
   27.7039  -18.1085   -6.3117 N   0  0  0  0  0  0  0  0  0  0  0  0
   28.4081  -18.9337   -5.5252 C   0  0  0  0  0  0  0  0  0  0  0  0
   28.8147  -18.8358   -4.2082 C   0  0  0  0  0  0  0  0  0  0  0  0
   29.5478  -19.8368   -3.6035 C   0  0  0  0  0  0  0  0  0  0  0  0
   29.8857  -20.9648   -4.3270 C   0  0  0  0  0  0  0  0  0  0  0  0
   29.4840  -21.0698   -5.6406 C   0  0  0  0  0  0  0  0  0  0  0  0
   28.7448  -20.0593   -6.2485 C   0  0  0  0  0  0  0  0  0  0  0  0
   25.9145  -21.2222   -8.1092 C   0  0  0  0  0  0  0  0  0  0  0  0
   24.8382  -20.3718   -8.2454 O   0  0  0  0  0  0  0  0  0  0  0  0
   25.9434  -21.9382   -7.0741 O   0  0  0  0  0  0  0  0  0  0  0  0
  2  3  1  0
  2  1  1  6
  4  3  1  0
  5  4  1  0
  5  6  1  0
  6  7  1  0
  8  2  1  0
  8 17  1  0
  9  8  2  0
 10 11  1  0
 11 21  2  0
 12 11  1  0
 12 13  2  0
 13 14  1  0
 14 20  2  0
 14 15  1  0
 16 15  1  1
 16 17  1  0
 18 16  1  0
 19 18  2  0
 21 20  1  0
 22 18  1  0
 23 34  1  0
 23 22  1  0
 23 24  1  1
 25 24  1  0
 26 25  2  0
 27 26  1  0
 28 27  1  0
 28 33  2  0
 29 28  1  0
 30 29  2  0
 30 31  1  0
 31 32  2  0
 32 33  1  0
 33 25  1  0
 34 35  1  0
 36 34  2  0
M  END
$$$$
