KYW.pdb
     RDKit          3D

 36 38  0  0  1  0  0  0  0  0999 V2000
   29.0352  -18.4905  -19.7530 N   0  0  0  0  0  0  0  0  0  0  0  0
   28.9272  -17.5425  -18.7035 C   0  0  1  0  0  0  0  0  0  0  0  0
   29.1265  -16.1345  -19.3103 C   0  0  0  0  0  0  0  0  0  0  0  0
   30.4272  -16.1629  -20.0079 C   0  0  0  0  0  0  0  0  0  0  0  0
   30.6907  -17.2350  -20.9919 C   0  0  0  0  0  0  0  0  0  0  0  0
   31.9819  -17.0345  -21.7200 C   0  0  0  0  0  0  0  0  0  0  0  0
   32.2294  -18.1082  -22.6142 N   0  0  0  0  0  0  0  0  0  0  0  0
   27.6244  -17.5208  -17.9985 C   0  0  0  0  0  0  0  0  0  0  0  0
   27.4101  -16.6520  -17.0814 O   0  0  0  0  0  0  0  0  0  0  0  0
   19.2253  -18.7297  -15.4779 O   0  0  0  0  0  0  0  0  0  0  0  0
   20.4230  -18.6722  -16.1703 C   0  0  0  0  0  0  0  0  0  0  0  0
   21.1163  -19.8127  -16.4570 C   0  0  0  0  0  0  0  0  0  0  0  0
   22.3083  -19.7612  -17.1456 C   0  0  0  0  0  0  0  0  0  0  0  0
   22.8384  -18.5770  -17.5650 C   0  0  0  0  0  0  0  0  0  0  0  0
   24.0886  -18.4424  -18.3012 C   0  0  0  0  0  0  0  0  0  0  0  0
   25.3374  -18.3870  -17.4717 C   0  0  2  0  0  0  0  0  0  0  0  0
   26.5507  -18.4114  -18.2580 N   0  0  0  0  0  0  0  0  0  0  0  0
   25.3836  -19.3363  -16.3408 C   0  0  0  0  0  0  0  0  0  0  0  0
   25.7643  -20.5115  -16.5489 O   0  0  0  0  0  0  0  0  0  0  0  0
   22.1044  -17.4264  -17.2559 C   0  0  0  0  0  0  0  0  0  0  0  0
   20.9184  -17.4654  -16.5718 C   0  0  0  0  0  0  0  0  0  0  0  0
   25.0041  -18.9607  -15.0142 N   0  0  0  0  0  0  0  0  0  0  0  0
   25.0466  -19.9134  -13.9351 C   0  0  1  0  0  0  0  0  0  0  0  0
   26.2779  -19.6867  -13.0912 C   0  0  0  0  0  0  0  0  0  0  0  0
   26.3385  -20.5733  -11.9243 C   0  0  0  0  0  0  0  0  0  0  0  0
   26.4993  -21.9398  -11.9748 C   0  0  0  0  0  0  0  0  0  0  0  0
   26.5083  -22.4140  -10.7181 N   0  0  0  0  0  0  0  0  0  0  0  0
   26.3579  -21.3881   -9.8694 C   0  0  0  0  0  0  0  0  0  0  0  0
   26.3000  -21.3276   -8.4902 C   0  0  0  0  0  0  0  0  0  0  0  0
   26.1360  -20.1281   -7.8273 C   0  0  0  0  0  0  0  0  0  0  0  0
   26.0266  -18.9580   -8.5545 C   0  0  0  0  0  0  0  0  0  0  0  0
   26.0833  -19.0101   -9.9300 C   0  0  0  0  0  0  0  0  0  0  0  0
   26.2488  -20.2207  -10.5966 C   0  0  0  0  0  0  0  0  0  0  0  0
   23.8029  -19.8923  -13.1657 C   0  0  0  0  0  0  0  0  0  0  0  0
   23.2720  -21.0678  -12.6792 O   0  0  0  0  0  0  0  0  0  0  0  0
   23.1676  -18.8357  -12.9114 O   0  0  0  0  0  0  0  0  0  0  0  0
  2  3  1  0
  2  1  1  6
  4  3  1  0
  5  4  1  0
  5  6  1  0
  6  7  1  0
  8  2  1  0
  8 17  1  0
  9  8  2  0
 10 11  1  0
 11 21  2  0
 12 11  1  0
 12 13  2  0
 13 14  1  0
 14 20  2  0
 14 15  1  0
 16 15  1  6
 16 17  1  0
 18 16  1  0
 19 18  2  0
 21 20  1  0
 22 18  1  0
 23 34  1  0
 23 22  1  0
 23 24  1  1
 25 24  1  0
 26 25  2  0
 27 26  1  0
 28 27  1  0
 28 33  2  0
 29 28  1  0
 30 29  2  0
 30 31  1  0
 31 32  2  0
 32 33  1  0
 33 25  1  0
 34 35  1  0
 36 34  2  0
M  END
$$$$
