KYW.pdb
     RDKit          3D

 36 38  0  0  1  0  0  0  0  0999 V2000
   29.2255  -22.6898  -16.6417 N   0  0  0  0  0  0  0  0  0  0  0  0
   29.2112  -21.2717  -16.6157 C   0  0  1  0  0  0  0  0  0  0  0  0
   28.8885  -20.7717  -18.0427 C   0  0  0  0  0  0  0  0  0  0  0  0
   29.4008  -21.8005  -18.9692 C   0  0  0  0  0  0  0  0  0  0  0  0
   30.8488  -21.8413  -19.2669 C   0  0  0  0  0  0  0  0  0  0  0  0
   31.1747  -22.7858  -20.3801 C   0  0  0  0  0  0  0  0  0  0  0  0
   32.5778  -22.9617  -20.4988 N   0  0  0  0  0  0  0  0  0  0  0  0
   28.2052  -20.6629  -15.7145 C   0  0  0  0  0  0  0  0  0  0  0  0
   27.8167  -19.4583  -15.9136 O   0  0  0  0  0  0  0  0  0  0  0  0
   20.4774  -19.5873  -11.8649 O   0  0  0  0  0  0  0  0  0  0  0  0
   21.6337  -19.9330  -12.5435 C   0  0  0  0  0  0  0  0  0  0  0  0
   22.2158  -21.1525  -12.3497 C   0  0  0  0  0  0  0  0  0  0  0  0
   23.3663  -21.5016  -13.0222 C   0  0  0  0  0  0  0  0  0  0  0  0
   23.9642  -20.6485  -13.9019 C   0  0  0  0  0  0  0  0  0  0  0  0
   25.1764  -20.9472  -14.6533 C   0  0  0  0  0  0  0  0  0  0  0  0
   26.4695  -20.7618  -13.9156 C   0  0  2  0  0  0  0  0  0  0  0  0
   27.6101  -21.3206  -14.6068 N   0  0  0  0  0  0  0  0  0  0  0  0
   26.4388  -21.1407  -12.4881 C   0  0  0  0  0  0  0  0  0  0  0  0
   26.6096  -22.3413  -12.1741 O   0  0  0  0  0  0  0  0  0  0  0  0
   23.3436  -19.4067  -14.0787 C   0  0  0  0  0  0  0  0  0  0  0  0
   22.1999  -19.0487  -13.4155 C   0  0  0  0  0  0  0  0  0  0  0  0
   26.2164  -20.1828  -11.4498 N   0  0  0  0  0  0  0  0  0  0  0  0
   26.1131  -20.5945  -10.0736 C   0  0  1  0  0  0  0  0  0  0  0  0
   27.0967  -19.8236   -9.2263 C   0  0  0  0  0  0  0  0  0  0  0  0
   27.0196  -20.1748   -7.8044 C   0  0  0  0  0  0  0  0  0  0  0  0
   26.0270  -20.9358   -7.2287 C   0  0  0  0  0  0  0  0  0  0  0  0
   26.2846  -21.0483   -5.9152 N   0  0  0  0  0  0  0  0  0  0  0  0
   27.4128  -20.3805   -5.6388 C   0  0  0  0  0  0  0  0  0  0  0  0
   28.1073  -20.1827   -4.4607 C   0  0  0  0  0  0  0  0  0  0  0  0
   29.2707  -19.4409   -4.4253 C   0  0  0  0  0  0  0  0  0  0  0  0
   29.7566  -18.8810   -5.5916 C   0  0  0  0  0  0  0  0  0  0  0  0
   29.0699  -19.0736   -6.7702 C   0  0  0  0  0  0  0  0  0  0  0  0
   27.8968  -19.8220   -6.8038 C   0  0  0  0  0  0  0  0  0  0  0  0
   24.7337  -20.4959   -9.5975 C   0  0  0  0  0  0  0  0  0  0  0  0
   24.1606  -21.5498   -8.9185 O   0  0  0  0  0  0  0  0  0  0  0  0
   24.0149  -19.4775   -9.7734 O   0  0  0  0  0  0  0  0  0  0  0  0
  2  3  1  0
  2  1  1  6
  4  3  1  0
  5  4  1  0
  5  6  1  0
  6  7  1  0
  8  2  1  0
  8 17  1  0
  9  8  2  0
 10 11  1  0
 11 21  2  0
 12 11  1  0
 12 13  2  0
 13 14  1  0
 14 20  2  0
 14 15  1  0
 16 15  1  6
 16 17  1  0
 18 16  1  0
 19 18  2  0
 21 20  1  0
 22 18  1  0
 23 34  1  0
 23 22  1  0
 23 24  1  1
 25 24  1  0
 26 25  2  0
 27 26  1  0
 28 27  1  0
 28 33  2  0
 29 28  1  0
 30 29  2  0
 30 31  1  0
 31 32  2  0
 32 33  1  0
 33 25  1  0
 34 35  1  0
 36 34  2  0
M  END
$$$$
