KYW.pdb
     RDKit          3D

 36 38  0  0  1  0  0  0  0  0999 V2000
   24.4969  -19.3312  -16.6295 N   0  0  0  0  0  0  0  0  0  0  0  0
   25.0803  -20.1754  -15.6502 C   0  0  1  0  0  0  0  0  0  0  0  0
   26.6061  -19.9256  -15.6529 C   0  0  0  0  0  0  0  0  0  0  0  0
   27.1453  -20.6592  -16.8149 C   0  0  0  0  0  0  0  0  0  0  0  0
   28.2332  -21.6384  -16.6038 C   0  0  0  0  0  0  0  0  0  0  0  0
   27.9021  -22.9862  -17.1616 C   0  0  0  0  0  0  0  0  0  0  0  0
   28.9279  -23.9210  -16.8661 N   0  0  0  0  0  0  0  0  0  0  0  0
   24.6157  -19.9529  -14.2612 C   0  0  0  0  0  0  0  0  0  0  0  0
   24.5564  -18.7622  -13.7916 O   0  0  0  0  0  0  0  0  0  0  0  0
   18.2370  -18.3447  -13.7654 O   0  0  0  0  0  0  0  0  0  0  0  0
   19.3034  -19.0297  -13.2079 C   0  0  0  0  0  0  0  0  0  0  0  0
   19.7376  -18.7343  -11.9479 C   0  0  0  0  0  0  0  0  0  0  0  0
   20.7981  -19.4127  -11.3884 C   0  0  0  0  0  0  0  0  0  0  0  0
   21.4507  -20.3991  -12.0669 C   0  0  0  0  0  0  0  0  0  0  0  0
   22.5745  -21.1635  -11.5415 C   0  0  0  0  0  0  0  0  0  0  0  0
   23.9374  -20.7115  -11.9759 C   0  0  2  0  0  0  0  0  0  0  0  0
   24.2149  -20.9811  -13.3692 N   0  0  0  0  0  0  0  0  0  0  0  0
   25.0477  -21.1249  -11.0934 C   0  0  0  0  0  0  0  0  0  0  0  0
   25.5309  -22.2735  -11.2219 O   0  0  0  0  0  0  0  0  0  0  0  0
   20.9821  -20.6782  -13.3556 C   0  0  0  0  0  0  0  0  0  0  0  0
   19.9289  -20.0104  -13.9220 C   0  0  0  0  0  0  0  0  0  0  0  0
   25.5888  -20.2588  -10.0924 N   0  0  0  0  0  0  0  0  0  0  0  0
   26.5385  -20.7476   -9.1263 C   0  0  1  0  0  0  0  0  0  0  0  0
   27.6185  -19.7185   -8.8939 C   0  0  0  0  0  0  0  0  0  0  0  0
   28.5970  -20.1392   -7.8855 C   0  0  0  0  0  0  0  0  0  0  0  0
   29.5305  -21.1369   -8.0550 C   0  0  0  0  0  0  0  0  0  0  0  0
   30.2504  -21.2426   -6.9259 N   0  0  0  0  0  0  0  0  0  0  0  0
   29.8014  -20.3404   -6.0428 C   0  0  0  0  0  0  0  0  0  0  0  0
   30.1877  -20.0363   -4.7515 C   0  0  0  0  0  0  0  0  0  0  0  0
   29.5604  -19.0438   -4.0259 C   0  0  0  0  0  0  0  0  0  0  0  0
   28.5216  -18.3349   -4.5991 C   0  0  0  0  0  0  0  0  0  0  0  0
   28.1306  -18.6323   -5.8862 C   0  0  0  0  0  0  0  0  0  0  0  0
   28.7646  -19.6335   -6.6162 C   0  0  0  0  0  0  0  0  0  0  0  0
   25.8675  -21.1733   -7.8983 C   0  0  0  0  0  0  0  0  0  0  0  0
   24.6011  -20.7125   -7.6082 O   0  0  0  0  0  0  0  0  0  0  0  0
   26.3894  -21.9587   -7.0644 O   0  0  0  0  0  0  0  0  0  0  0  0
  2  3  1  0
  2  1  1  6
  4  3  1  0
  5  4  1  0
  5  6  1  0
  6  7  1  0
  8  2  1  0
  8 17  1  0
  9  8  2  0
 10 11  1  0
 11 21  2  0
 12 11  1  0
 12 13  2  0
 13 14  1  0
 14 20  2  0
 14 15  1  0
 16 15  1  1
 16 17  1  0
 18 16  1  0
 19 18  2  0
 21 20  1  0
 22 18  1  0
 23 34  1  0
 23 22  1  0
 23 24  1  1
 25 24  1  0
 26 25  2  0
 27 26  1  0
 28 27  1  0
 28 33  2  0
 29 28  1  0
 30 29  2  0
 30 31  1  0
 31 32  2  0
 32 33  1  0
 33 25  1  0
 34 35  1  0
 36 34  2  0
M  END
$$$$
