KYW.pdb
     RDKit          3D

 36 38  0  0  1  0  0  0  0  0999 V2000
   23.1145  -19.2882  -23.5819 N   0  0  0  0  0  0  0  0  0  0  0  0
   23.4258  -20.4711  -22.8637 C   0  0  1  0  0  0  0  0  0  0  0  0
   24.8972  -20.8385  -23.1645 C   0  0  0  0  0  0  0  0  0  0  0  0
   25.1217  -20.5220  -24.5888 C   0  0  0  0  0  0  0  0  0  0  0  0
   26.4501  -20.7871  -25.1823 C   0  0  0  0  0  0  0  0  0  0  0  0
   26.3551  -21.3004  -26.5840 C   0  0  0  0  0  0  0  0  0  0  0  0
   27.6420  -21.6044  -27.0988 N   0  0  0  0  0  0  0  0  0  0  0  0
   23.3056  -20.3702  -21.3906 C   0  0  0  0  0  0  0  0  0  0  0  0
   23.5966  -21.3791  -20.6565 O   0  0  0  0  0  0  0  0  0  0  0  0
   29.1657  -18.3492  -20.4799 O   0  0  0  0  0  0  0  0  0  0  0  0
   27.8496  -18.2704  -20.0570 C   0  0  0  0  0  0  0  0  0  0  0  0
   26.9626  -17.4502  -20.6926 C   0  0  0  0  0  0  0  0  0  0  0  0
   25.6521  -17.3680  -20.2760 C   0  0  0  0  0  0  0  0  0  0  0  0
   25.1930  -18.0979  -19.2198 C   0  0  0  0  0  0  0  0  0  0  0  0
   23.8229  -18.0690  -18.7246 C   0  0  0  0  0  0  0  0  0  0  0  0
   22.9116  -19.1393  -19.2486 C   0  0  2  0  0  0  0  0  0  0  0  0
   22.8800  -19.2104  -20.6926 N   0  0  0  0  0  0  0  0  0  0  0  0
   21.5581  -19.1576  -18.6571 C   0  0  0  0  0  0  0  0  0  0  0  0
   20.8039  -18.1732  -18.8344 O   0  0  0  0  0  0  0  0  0  0  0  0
   26.1261  -18.9288  -18.5895 C   0  0  0  0  0  0  0  0  0  0  0  0
   27.4314  -19.0186  -18.9948 C   0  0  0  0  0  0  0  0  0  0  0  0
   21.0790  -20.2610  -17.8838 N   0  0  0  0  0  0  0  0  0  0  0  0
   19.7371  -20.2705  -17.3611 C   0  0  1  0  0  0  0  0  0  0  0  0
   18.8652  -21.1858  -18.1867 C   0  0  0  0  0  0  0  0  0  0  0  0
   17.4878  -21.2609  -17.6884 C   0  0  0  0  0  0  0  0  0  0  0  0
   16.5967  -20.2117  -17.6611 C   0  0  0  0  0  0  0  0  0  0  0  0
   15.4385  -20.6504  -17.1409 N   0  0  0  0  0  0  0  0  0  0  0  0
   15.5674  -21.9489  -16.8366 C   0  0  0  0  0  0  0  0  0  0  0  0
   14.6896  -22.8629  -16.2858 C   0  0  0  0  0  0  0  0  0  0  0  0
   15.0598  -24.1735  -16.0618 C   0  0  0  0  0  0  0  0  0  0  0  0
   16.3361  -24.5865  -16.3940 C   0  0  0  0  0  0  0  0  0  0  0  0
   17.2171  -23.6812  -16.9435 C   0  0  0  0  0  0  0  0  0  0  0  0
   16.8419  -22.3599  -17.1687 C   0  0  0  0  0  0  0  0  0  0  0  0
   19.7307  -20.5927  -15.9345 C   0  0  0  0  0  0  0  0  0  0  0  0
   20.6828  -21.4433  -15.4145 O   0  0  0  0  0  0  0  0  0  0  0  0
   18.8850  -20.1273  -15.1264 O   0  0  0  0  0  0  0  0  0  0  0  0
  2  3  1  0
  2  1  1  6
  4  3  1  0
  5  4  1  0
  5  6  1  0
  6  7  1  0
  8  2  1  0
  8 17  1  0
  9  8  2  0
 10 11  1  0
 11 21  2  0
 12 11  1  0
 12 13  2  0
 13 14  1  0
 14 20  2  0
 14 15  1  0
 16 15  1  6
 16 17  1  0
 18 16  1  0
 19 18  2  0
 21 20  1  0
 22 18  1  0
 23 34  1  0
 23 22  1  0
 23 24  1  6
 25 24  1  0
 26 25  2  0
 27 26  1  0
 28 27  1  0
 28 33  2  0
 29 28  1  0
 30 29  2  0
 30 31  1  0
 31 32  2  0
 32 33  1  0
 33 25  1  0
 34 35  1  0
 36 34  2  0
M  END
$$$$
