KYW.pdb
     RDKit          3D

 36 38  0  0  1  0  0  0  0  0999 V2000
   28.7324  -20.1108  -13.5825 N   0  0  0  0  0  0  0  0  0  0  0  0
   27.5504  -20.1393  -14.3661 C   0  0  1  0  0  0  0  0  0  0  0  0
   27.7984  -21.0779  -15.5694 C   0  0  0  0  0  0  0  0  0  0  0  0
   27.5794  -20.2654  -16.7823 C   0  0  0  0  0  0  0  0  0  0  0  0
   28.6674  -19.3876  -17.2644 C   0  0  0  0  0  0  0  0  0  0  0  0
   28.2994  -18.6616  -18.5194 C   0  0  0  0  0  0  0  0  0  0  0  0
   29.3030  -17.7227  -18.8726 N   0  0  0  0  0  0  0  0  0  0  0  0
   26.3418  -20.6451  -13.6747 C   0  0  0  0  0  0  0  0  0  0  0  0
   25.5906  -21.5075  -14.2523 O   0  0  0  0  0  0  0  0  0  0  0  0
   29.8000  -20.4785   -7.8083 O   0  0  0  0  0  0  0  0  0  0  0  0
   28.5492  -20.4991   -8.4018 C   0  0  0  0  0  0  0  0  0  0  0  0
   27.5993  -19.5822   -8.0544 C   0  0  0  0  0  0  0  0  0  0  0  0
   26.3533  -19.5981   -8.6417 C   0  0  0  0  0  0  0  0  0  0  0  0
   26.0226  -20.5239   -9.5866 C   0  0  0  0  0  0  0  0  0  0  0  0
   24.7304  -20.6013  -10.2554 C   0  0  0  0  0  0  0  0  0  0  0  0
   24.7698  -20.8308  -11.7375 C   0  0  2  0  0  0  0  0  0  0  0  0
   25.9251  -20.2436  -12.3790 N   0  0  0  0  0  0  0  0  0  0  0  0
   23.5150  -20.5250  -12.4546 C   0  0  0  0  0  0  0  0  0  0  0  0
   23.2196  -19.3286  -12.6795 O   0  0  0  0  0  0  0  0  0  0  0  0
   27.0174  -21.4496   -9.9208 C   0  0  0  0  0  0  0  0  0  0  0  0
   28.2595  -21.4435   -9.3435 C   0  0  0  0  0  0  0  0  0  0  0  0
   22.6216  -21.5495  -12.8986 N   0  0  0  0  0  0  0  0  0  0  0  0
   21.3682  -21.2172  -13.5253 C   0  0  1  0  0  0  0  0  0  0  0  0
   21.3613  -21.6958  -14.9573 C   0  0  0  0  0  0  0  0  0  0  0  0
   20.1141  -21.3733  -15.6584 C   0  0  0  0  0  0  0  0  0  0  0  0
   19.7984  -20.1424  -16.1885 C   0  0  0  0  0  0  0  0  0  0  0  0
   18.5815  -20.2209  -16.7516 N   0  0  0  0  0  0  0  0  0  0  0  0
   18.1138  -21.4667  -16.5949 C   0  0  0  0  0  0  0  0  0  0  0  0
   16.9310  -22.0676  -16.9810 C   0  0  0  0  0  0  0  0  0  0  0  0
   16.6703  -23.3935  -16.6996 C   0  0  0  0  0  0  0  0  0  0  0  0
   17.6102  -24.1418  -16.0164 C   0  0  0  0  0  0  0  0  0  0  0  0
   18.7920  -23.5498  -15.6281 C   0  0  0  0  0  0  0  0  0  0  0  0
   19.0529  -22.2126  -15.9128 C   0  0  0  0  0  0  0  0  0  0  0  0
   20.2394  -21.7160  -12.7404 C   0  0  0  0  0  0  0  0  0  0  0  0
   20.3441  -22.9122  -12.0634 O   0  0  0  0  0  0  0  0  0  0  0  0
   19.1447  -21.1025  -12.6405 O   0  0  0  0  0  0  0  0  0  0  0  0
  2  3  1  0
  2  1  1  1
  4  3  1  0
  5  4  1  0
  5  6  1  0
  6  7  1  0
  8  2  1  0
  8 17  1  0
  9  8  2  0
 10 11  1  0
 11 21  2  0
 12 11  1  0
 12 13  2  0
 13 14  1  0
 14 20  2  0
 14 15  1  0
 16 15  1  1
 16 17  1  0
 18 16  1  0
 19 18  2  0
 21 20  1  0
 22 18  1  0
 23 34  1  0
 23 22  1  0
 23 24  1  6
 25 24  1  0
 26 25  2  0
 27 26  1  0
 28 27  1  0
 28 33  2  0
 29 28  1  0
 30 29  2  0
 30 31  1  0
 31 32  2  0
 32 33  1  0
 33 25  1  0
 34 35  1  0
 36 34  2  0
M  END
$$$$
