HEN.pdb
     RDKit          3D

 28 28  0  0  1  0  0  0  0  0999 V2000
   10.3163  -15.4009   20.0647 N   0  0  0  0  0  0  0  0  0  0  0  0
    9.3225  -15.5555   21.0817 C   0  0  1  0  0  0  0  0  0  0  0  0
    7.9185  -15.5979   20.5276 C   0  0  0  0  0  0  0  0  0  0  0  0
    7.7363  -14.3391   19.7336 C   0  0  0  0  0  0  0  0  0  0  0  0
    8.6173  -13.2556   19.6960 C   0  0  0  0  0  0  0  0  0  0  0  0
    8.1156  -12.3196   18.8783 N   0  0  0  0  0  0  0  0  0  0  0  0
    6.9543  -12.7699   18.3995 C   0  0  0  0  0  0  0  0  0  0  0  0
    6.7238  -13.9952   18.9182 N   0  0  0  0  0  0  0  0  0  0  0  0
    9.6142  -16.6675   22.0103 C   0  0  0  0  0  0  0  0  0  0  0  0
    8.6517  -17.2063   22.6085 O   0  0  0  0  0  0  0  0  0  0  0  0
   10.9660  -17.1333   22.2345 N   0  0  0  0  0  0  0  0  0  0  0  0
   11.1740  -18.1342   23.2158 C   0  0  1  0  0  0  0  0  0  0  0  0
   12.4899  -18.8457   23.0887 C   0  0  0  0  0  0  0  0  0  0  0  0
   12.6746  -19.7090   21.9008 C   0  0  0  0  0  0  0  0  0  0  0  0
   12.0246  -21.0254   21.9261 C   0  0  0  0  0  0  0  0  0  0  0  0
   12.0500  -21.7761   22.9574 O   0  0  0  0  0  0  0  0  0  0  0  0
   10.9404  -17.6492   24.6042 C   0  0  0  0  0  0  0  0  0  0  0  0
   11.6206  -16.6844   25.0189 O   0  0  0  0  0  0  0  0  0  0  0  0
   11.3502  -21.5142   20.8233 O   0  0  0  0  0  0  0  0  0  0  0  0
    6.7467  -19.3275   27.2643 N   0  0  0  0  0  0  0  0  0  0  0  0
    7.3580  -18.2525   26.5763 C   0  0  0  0  0  0  0  0  0  0  0  0
    6.9888  -18.0318   25.4012 O   0  0  0  0  0  0  0  0  0  0  0  0
    8.3897  -17.4071   27.1864 C   0  0  0  0  0  0  0  0  0  0  0  0
    9.7890  -17.8135   26.8374 C   0  0  2  0  0  0  0  0  0  0  0  0
    9.9877  -18.2207   25.4859 N   0  0  0  0  0  0  0  0  0  0  0  0
   10.2864  -18.8411   27.8172 C   0  0  0  0  0  0  0  0  0  0  0  0
   10.8547  -20.0233   27.4095 O   0  0  0  0  0  0  0  0  0  0  0  0
   10.1854  -18.6249   29.0607 O   0  0  0  0  0  0  0  0  0  0  0  0
  2  1  1  6
  2  9  1  0
  3  2  1  0
  4  3  1  0
  5  4  2  0
  6  7  1  0
  6  5  1  0
  7  8  2  0
  8  4  1  0
  9 11  1  0
 10  9  2  0
 11 12  1  0
 12 13  1  1
 13 14  1  0
 14 15  1  0
 15 16  2  0
 15 19  1  0
 17 18  2  0
 17 12  1  0
 20 21  1  0
 21 23  1  0
 21 22  2  0
 24 23  1  6
 24 25  1  0
 25 17  1  0
 26 24  1  0
 26 27  1  0
 28 26  2  0
M  END
$$$$
