HEN.pdb
     RDKit          3D

 28 28  0  0  1  0  0  0  0  0999 V2000
    9.3158  -13.4629   17.7981 N   0  0  0  0  0  0  0  0  0  0  0  0
    8.8108  -14.6934   18.3243 C   0  0  1  0  0  0  0  0  0  0  0  0
    8.5300  -15.7181   17.2515 C   0  0  0  0  0  0  0  0  0  0  0  0
    7.9836  -14.9647   16.0759 C   0  0  0  0  0  0  0  0  0  0  0  0
    7.9958  -13.5776   15.9102 C   0  0  0  0  0  0  0  0  0  0  0  0
    7.4191  -13.2779   14.7380 N   0  0  0  0  0  0  0  0  0  0  0  0
    7.0442  -14.4201   14.1589 C   0  0  0  0  0  0  0  0  0  0  0  0
    7.3866  -15.4438   14.9703 N   0  0  0  0  0  0  0  0  0  0  0  0
    9.6271  -15.2247   19.4356 C   0  0  0  0  0  0  0  0  0  0  0  0
    9.2839  -16.3154   19.9526 O   0  0  0  0  0  0  0  0  0  0  0  0
   10.7919  -14.5192   19.9257 N   0  0  0  0  0  0  0  0  0  0  0  0
   11.5285  -15.1013   20.9870 C   0  0  1  0  0  0  0  0  0  0  0  0
   12.9249  -14.5667   21.1225 C   0  0  0  0  0  0  0  0  0  0  0  0
   13.8513  -14.8146   19.9952 C   0  0  0  0  0  0  0  0  0  0  0  0
   15.2073  -14.2639   20.1135 C   0  0  0  0  0  0  0  0  0  0  0  0
   15.9395  -14.4749   21.1369 O   0  0  0  0  0  0  0  0  0  0  0  0
   10.8001  -15.0783   22.2856 C   0  0  0  0  0  0  0  0  0  0  0  0
    9.8761  -14.2479   22.4339 O   0  0  0  0  0  0  0  0  0  0  0  0
   15.7557  -13.4852   19.1122 O   0  0  0  0  0  0  0  0  0  0  0  0
    6.9817  -16.8936   25.2463 N   0  0  0  0  0  0  0  0  0  0  0  0
    8.0219  -17.6792   24.6955 C   0  0  0  0  0  0  0  0  0  0  0  0
    8.1215  -18.8642   25.0850 O   0  0  0  0  0  0  0  0  0  0  0  0
    8.9669  -17.1571   23.7027 C   0  0  0  0  0  0  0  0  0  0  0  0
   10.1342  -16.4329   24.3010 C   0  0  2  0  0  0  0  0  0  0  0  0
   11.0953  -15.9471   23.3672 N   0  0  0  0  0  0  0  0  0  0  0  0
   10.7651  -17.2736   25.3773 C   0  0  0  0  0  0  0  0  0  0  0  0
   12.0881  -17.6407   25.3352 O   0  0  0  0  0  0  0  0  0  0  0  0
   10.0685  -17.6634   26.3601 O   0  0  0  0  0  0  0  0  0  0  0  0
  2  1  1  6
  2  9  1  0
  3  2  1  0
  4  3  1  0
  5  4  2  0
  6  7  1  0
  6  5  1  0
  7  8  2  0
  8  4  1  0
  9 11  1  0
 10  9  2  0
 11 12  1  0
 12 13  1  1
 13 14  1  0
 14 15  1  0
 15 16  2  0
 15 19  1  0
 17 18  2  0
 17 12  1  0
 20 21  1  0
 21 23  1  0
 21 22  2  0
 24 23  1  6
 24 25  1  0
 25 17  1  0
 26 24  1  0
 26 27  1  0
 28 26  2  0
M  END
$$$$
