HEN.pdb
     RDKit          3D

 28 28  0  0  1  0  0  0  0  0999 V2000
    8.6321  -16.7483   19.1558 N   0  0  0  0  0  0  0  0  0  0  0  0
    8.4881  -15.7086   20.1275 C   0  0  1  0  0  0  0  0  0  0  0  0
    7.3661  -14.7525   19.8008 C   0  0  0  0  0  0  0  0  0  0  0  0
    7.6874  -14.1611   18.4610 C   0  0  0  0  0  0  0  0  0  0  0  0
    8.5252  -13.0687   18.2236 C   0  0  0  0  0  0  0  0  0  0  0  0
    8.5658  -12.8346   16.9046 N   0  0  0  0  0  0  0  0  0  0  0  0
    7.7875  -13.7353   16.3017 C   0  0  0  0  0  0  0  0  0  0  0  0
    7.2543  -14.5403   17.2457 N   0  0  0  0  0  0  0  0  0  0  0  0
    8.4328  -16.2173   21.5138 C   0  0  0  0  0  0  0  0  0  0  0  0
    7.3764  -16.7759   21.8971 O   0  0  0  0  0  0  0  0  0  0  0  0
    9.5561  -16.0826   22.4164 N   0  0  0  0  0  0  0  0  0  0  0  0
    9.3804  -16.4773   23.7659 C   0  0  1  0  0  0  0  0  0  0  0  0
   10.1132  -17.7355   24.1315 C   0  0  0  0  0  0  0  0  0  0  0  0
   11.3639  -18.0227   23.3939 C   0  0  0  0  0  0  0  0  0  0  0  0
   12.5574  -18.3193   24.1960 C   0  0  0  0  0  0  0  0  0  0  0  0
   13.5284  -17.4979   24.2989 O   0  0  0  0  0  0  0  0  0  0  0  0
    9.6497  -15.3798   24.7357 C   0  0  0  0  0  0  0  0  0  0  0  0
   10.6424  -14.6439   24.5395 O   0  0  0  0  0  0  0  0  0  0  0  0
   12.6833  -19.5126   24.8815 O   0  0  0  0  0  0  0  0  0  0  0  0
    5.6496  -12.6948   27.2128 N   0  0  0  0  0  0  0  0  0  0  0  0
    6.7316  -13.3306   26.5587 C   0  0  0  0  0  0  0  0  0  0  0  0
    6.4644  -14.2692   25.7754 O   0  0  0  0  0  0  0  0  0  0  0  0
    8.1273  -12.9308   26.7670 C   0  0  0  0  0  0  0  0  0  0  0  0
    9.0850  -14.0819   26.8182 C   0  0  2  0  0  0  0  0  0  0  0  0
    8.8425  -15.1208   25.8728 N   0  0  0  0  0  0  0  0  0  0  0  0
    9.1836  -14.6077   28.2243 C   0  0  0  0  0  0  0  0  0  0  0  0
    9.4930  -13.7950   29.2875 O   0  0  0  0  0  0  0  0  0  0  0  0
    8.9776  -15.8361   28.4521 O   0  0  0  0  0  0  0  0  0  0  0  0
  2  1  1  6
  2  9  1  0
  3  2  1  0
  4  3  1  0
  5  4  2  0
  6  7  1  0
  6  5  1  0
  7  8  2  0
  8  4  1  0
  9 11  1  0
 10  9  2  0
 11 12  1  0
 12 13  1  1
 13 14  1  0
 14 15  1  0
 15 16  2  0
 15 19  1  0
 17 18  2  0
 17 12  1  0
 20 21  1  0
 21 23  1  0
 21 22  2  0
 24 23  1  1
 24 25  1  0
 25 17  1  0
 26 24  1  0
 26 27  1  0
 28 26  2  0
M  END
$$$$
