HEN.pdb
     RDKit          3D

 28 28  0  0  1  0  0  0  0  0999 V2000
   10.0629  -15.4046   18.0461 N   0  0  0  0  0  0  0  0  0  0  0  0
   10.8516  -14.5769   18.9057 C   0  0  1  0  0  0  0  0  0  0  0  0
   10.0908  -14.0999   20.1196 C   0  0  0  0  0  0  0  0  0  0  0  0
    8.8507  -13.4298   19.6084 C   0  0  0  0  0  0  0  0  0  0  0  0
    8.7745  -12.1453   19.0646 C   0  0  0  0  0  0  0  0  0  0  0  0
    7.5029  -11.8965   18.7216 N   0  0  0  0  0  0  0  0  0  0  0  0
    6.7753  -12.9725   19.0275 C   0  0  0  0  0  0  0  0  0  0  0  0
    7.5928  -13.9030   19.5656 N   0  0  0  0  0  0  0  0  0  0  0  0
   12.1621  -15.1731   19.2387 C   0  0  0  0  0  0  0  0  0  0  0  0
   12.1769  -16.3111   19.7674 O   0  0  0  0  0  0  0  0  0  0  0  0
   13.4022  -14.4772   18.9694 N   0  0  0  0  0  0  0  0  0  0  0  0
   14.6144  -15.0921   19.3698 C   0  0  1  0  0  0  0  0  0  0  0  0
   15.8233  -14.5866   18.6371 C   0  0  0  0  0  0  0  0  0  0  0  0
   15.7847  -14.6429   17.1586 C   0  0  0  0  0  0  0  0  0  0  0  0
   16.9669  -14.1483   16.4418 C   0  0  0  0  0  0  0  0  0  0  0  0
   16.8920  -13.6509   15.2692 O   0  0  0  0  0  0  0  0  0  0  0  0
   14.8172  -15.0787   20.8450 C   0  0  0  0  0  0  0  0  0  0  0  0
   14.7442  -13.9831   21.4448 O   0  0  0  0  0  0  0  0  0  0  0  0
   18.2252  -14.2003   17.0109 O   0  0  0  0  0  0  0  0  0  0  0  0
   12.4695  -18.2920   22.8059 N   0  0  0  0  0  0  0  0  0  0  0  0
   13.1342  -17.2992   23.5644 C   0  0  0  0  0  0  0  0  0  0  0  0
   12.4374  -16.3859   24.0606 O   0  0  0  0  0  0  0  0  0  0  0  0
   14.5847  -17.3085   23.7818 C   0  0  0  0  0  0  0  0  0  0  0  0
   15.3175  -16.2481   23.0180 C   0  0  2  0  0  0  0  0  0  0  0  0
   15.0894  -16.2409   21.6110 N   0  0  0  0  0  0  0  0  0  0  0  0
   16.7834  -16.2917   23.3537 C   0  0  0  0  0  0  0  0  0  0  0  0
   17.6102  -17.2839   22.8860 O   0  0  0  0  0  0  0  0  0  0  0  0
   17.2870  -15.3927   24.0895 O   0  0  0  0  0  0  0  0  0  0  0  0
  2  1  1  1
  2  9  1  0
  3  2  1  0
  4  3  1  0
  5  4  2  0
  6  7  1  0
  6  5  1  0
  7  8  2  0
  8  4  1  0
  9 11  1  0
 10  9  2  0
 11 12  1  0
 12 13  1  6
 13 14  1  0
 14 15  1  0
 15 16  2  0
 15 19  1  0
 17 18  2  0
 17 12  1  0
 20 21  1  0
 21 23  1  0
 21 22  2  0
 24 23  1  6
 24 25  1  0
 25 17  1  0
 26 24  1  0
 26 27  1  0
 28 26  2  0
M  END
$$$$
