HEN.pdb
     RDKit          3D

 28 28  0  0  1  0  0  0  0  0999 V2000
    8.4441  -17.2355   19.7240 N   0  0  0  0  0  0  0  0  0  0  0  0
    9.3924  -16.4630   20.4655 C   0  0  1  0  0  0  0  0  0  0  0  0
    8.7572  -15.3140   21.2112 C   0  0  0  0  0  0  0  0  0  0  0  0
    8.1270  -14.4312   20.1760 C   0  0  0  0  0  0  0  0  0  0  0  0
    8.1462  -14.6404   18.7949 C   0  0  0  0  0  0  0  0  0  0  0  0
    7.4800  -13.6422   18.1979 N   0  0  0  0  0  0  0  0  0  0  0  0
    7.0421  -12.8130   19.1473 C   0  0  0  0  0  0  0  0  0  0  0  0
    7.4345  -13.2914   20.3476 N   0  0  0  0  0  0  0  0  0  0  0  0
   10.2735  -17.2909   21.3154 C   0  0  0  0  0  0  0  0  0  0  0  0
    9.7430  -18.1682   22.0390 O   0  0  0  0  0  0  0  0  0  0  0  0
   11.7090  -17.1073   21.3244 N   0  0  0  0  0  0  0  0  0  0  0  0
   12.4814  -17.9202   22.1907 C   0  0  1  0  0  0  0  0  0  0  0  0
   13.9274  -18.0219   21.8001 C   0  0  0  0  0  0  0  0  0  0  0  0
   14.2354  -17.9964   20.3526 C   0  0  0  0  0  0  0  0  0  0  0  0
   15.4566  -17.2911   19.9435 C   0  0  0  0  0  0  0  0  0  0  0  0
   16.5026  -17.2637   20.6738 O   0  0  0  0  0  0  0  0  0  0  0  0
   12.3215  -17.5606   23.6269 C   0  0  0  0  0  0  0  0  0  0  0  0
   11.9205  -16.4097   23.9102 O   0  0  0  0  0  0  0  0  0  0  0  0
   15.5278  -16.6192   18.7380 O   0  0  0  0  0  0  0  0  0  0  0  0
   15.2777  -17.9587   26.0861 N   0  0  0  0  0  0  0  0  0  0  0  0
   14.5183  -16.8513   26.5329 C   0  0  0  0  0  0  0  0  0  0  0  0
   15.1430  -15.8548   26.9602 O   0  0  0  0  0  0  0  0  0  0  0  0
   13.0519  -16.8368   26.5105 C   0  0  0  0  0  0  0  0  0  0  0  0
   12.4407  -18.1339   26.0758 C   0  0  2  0  0  0  0  0  0  0  0  0
   12.5990  -18.4513   24.6952 N   0  0  0  0  0  0  0  0  0  0  0  0
   11.0016  -18.1963   26.5097 C   0  0  0  0  0  0  0  0  0  0  0  0
   10.1555  -17.1210   26.3887 O   0  0  0  0  0  0  0  0  0  0  0  0
   10.5398  -19.2665   27.0042 O   0  0  0  0  0  0  0  0  0  0  0  0
  2  1  1  1
  2  9  1  0
  3  2  1  0
  4  3  1  0
  5  4  2  0
  6  7  1  0
  6  5  1  0
  7  8  2  0
  8  4  1  0
  9 11  1  0
 10  9  2  0
 11 12  1  0
 12 13  1  6
 13 14  1  0
 14 15  1  0
 15 16  2  0
 15 19  1  0
 17 18  2  0
 17 12  1  0
 20 21  1  0
 21 23  1  0
 21 22  2  0
 24 23  1  6
 24 25  1  0
 25 17  1  0
 26 24  1  0
 26 27  1  0
 28 26  2  0
M  END
$$$$
