HEN.pdb
     RDKit          3D

 28 28  0  0  1  0  0  0  0  0999 V2000
   13.4529  -15.1178   14.5614 N   0  0  0  0  0  0  0  0  0  0  0  0
   14.0942  -16.2540   15.1477 C   0  0  1  0  0  0  0  0  0  0  0  0
   15.6003  -16.1831   15.0676 C   0  0  0  0  0  0  0  0  0  0  0  0
   15.9521  -16.2388   13.6111 C   0  0  0  0  0  0  0  0  0  0  0  0
   15.0484  -16.3284   12.5496 C   0  0  0  0  0  0  0  0  0  0  0  0
   15.7355  -16.3555   11.3991 N   0  0  0  0  0  0  0  0  0  0  0  0
   17.0352  -16.2866   11.6932 C   0  0  0  0  0  0  0  0  0  0  0  0
   17.1670  -16.2158   13.0353 N   0  0  0  0  0  0  0  0  0  0  0  0
   13.5985  -16.5603   16.5057 C   0  0  0  0  0  0  0  0  0  0  0  0
   13.5511  -15.6263   17.3425 O   0  0  0  0  0  0  0  0  0  0  0  0
   13.1761  -17.8942   16.8759 N   0  0  0  0  0  0  0  0  0  0  0  0
   12.8180  -18.1313   18.2262 C   0  0  1  0  0  0  0  0  0  0  0  0
   11.7747  -19.1968   18.4002 C   0  0  0  0  0  0  0  0  0  0  0  0
   11.4346  -19.5836   19.7878 C   0  0  0  0  0  0  0  0  0  0  0  0
   10.4075  -20.6190   19.9582 C   0  0  0  0  0  0  0  0  0  0  0  0
   10.1795  -21.5031   19.0670 O   0  0  0  0  0  0  0  0  0  0  0  0
   13.9935  -18.3598   19.1113 C   0  0  0  0  0  0  0  0  0  0  0  0
   15.1040  -18.5809   18.5790 O   0  0  0  0  0  0  0  0  0  0  0  0
    9.6350  -20.6822   21.1023 O   0  0  0  0  0  0  0  0  0  0  0  0
   16.9878  -16.8357   23.0913 N   0  0  0  0  0  0  0  0  0  0  0  0
   16.5769  -16.0805   21.9672 C   0  0  0  0  0  0  0  0  0  0  0  0
   17.1743  -15.0043   21.7423 O   0  0  0  0  0  0  0  0  0  0  0  0
   15.4945  -16.5125   21.0766 C   0  0  0  0  0  0  0  0  0  0  0  0
   14.9698  -17.8822   21.3826 C   0  0  2  0  0  0  0  0  0  0  0  0
   13.9254  -18.3412   20.5279 N   0  0  0  0  0  0  0  0  0  0  0  0
   14.5944  -17.9769   22.8364 C   0  0  0  0  0  0  0  0  0  0  0  0
   15.2524  -18.8106   23.7074 O   0  0  0  0  0  0  0  0  0  0  0  0
   13.6438  -17.2725   23.2875 O   0  0  0  0  0  0  0  0  0  0  0  0
  2  1  1  1
  2  9  1  0
  3  2  1  0
  4  3  1  0
  5  4  2  0
  6  7  1  0
  6  5  1  0
  7  8  2  0
  8  4  1  0
  9 11  1  0
 10  9  2  0
 11 12  1  0
 12 13  1  6
 13 14  1  0
 14 15  1  0
 15 16  2  0
 15 19  1  0
 17 18  2  0
 17 12  1  0
 20 21  1  0
 21 23  1  0
 21 22  2  0
 24 23  1  6
 24 25  1  0
 25 17  1  0
 26 24  1  0
 26 27  1  0
 28 26  2  0
M  END
$$$$
