HEN.pdb
     RDKit          3D

 28 28  0  0  1  0  0  0  0  0999 V2000
    8.8194  -17.1733   19.8028 N   0  0  0  0  0  0  0  0  0  0  0  0
    9.1985  -16.2721   20.8468 C   0  0  1  0  0  0  0  0  0  0  0  0
    8.1021  -15.2986   21.2076 C   0  0  0  0  0  0  0  0  0  0  0  0
    7.9191  -14.4039   20.0184 C   0  0  0  0  0  0  0  0  0  0  0  0
    8.6712  -14.4360   18.8416 C   0  0  0  0  0  0  0  0  0  0  0  0
    8.2147  -13.4877   18.0117 N   0  0  0  0  0  0  0  0  0  0  0  0
    7.2057  -12.8596   18.6184 C   0  0  0  0  0  0  0  0  0  0  0  0
    7.0261  -13.4153   19.8360 N   0  0  0  0  0  0  0  0  0  0  0  0
    9.7754  -16.9586   22.0214 C   0  0  0  0  0  0  0  0  0  0  0  0
    9.1917  -17.9817   22.4542 O   0  0  0  0  0  0  0  0  0  0  0  0
   10.9786  -16.4772   22.6658 N   0  0  0  0  0  0  0  0  0  0  0  0
   11.4651  -17.1889   23.7904 C   0  0  1  0  0  0  0  0  0  0  0  0
   12.8982  -16.8912   24.1246 C   0  0  0  0  0  0  0  0  0  0  0  0
   13.9012  -17.1443   23.0661 C   0  0  0  0  0  0  0  0  0  0  0  0
   15.0339  -16.2135   22.9851 C   0  0  0  0  0  0  0  0  0  0  0  0
   15.3830  -15.6615   21.8890 O   0  0  0  0  0  0  0  0  0  0  0  0
   10.5833  -17.0690   24.9844 C   0  0  0  0  0  0  0  0  0  0  0  0
   10.1555  -15.9351   25.2955 O   0  0  0  0  0  0  0  0  0  0  0  0
   15.7793  -15.8910   24.1033 O   0  0  0  0  0  0  0  0  0  0  0  0
    7.5536  -17.1576   24.9677 N   0  0  0  0  0  0  0  0  0  0  0  0
    7.1768  -18.2421   25.7951 C   0  0  0  0  0  0  0  0  0  0  0  0
    6.0501  -18.7522   25.6045 O   0  0  0  0  0  0  0  0  0  0  0  0
    8.0488  -18.7748   26.8473 C   0  0  0  0  0  0  0  0  0  0  0  0
    9.3712  -18.0775   26.9474 C   0  0  2  0  0  0  0  0  0  0  0  0
   10.1998  -18.1705   25.7913 N   0  0  0  0  0  0  0  0  0  0  0  0
   10.0897  -18.5126   28.1955 C   0  0  0  0  0  0  0  0  0  0  0  0
    9.5606  -18.3174   29.4480 O   0  0  0  0  0  0  0  0  0  0  0  0
   11.2189  -19.0784   28.1060 O   0  0  0  0  0  0  0  0  0  0  0  0
  2  1  1  6
  2  9  1  0
  3  2  1  0
  4  3  1  0
  5  4  2  0
  6  7  1  0
  6  5  1  0
  7  8  2  0
  8  4  1  0
  9 11  1  0
 10  9  2  0
 11 12  1  0
 12 13  1  1
 13 14  1  0
 14 15  1  0
 15 16  2  0
 15 19  1  0
 17 18  2  0
 17 12  1  0
 20 21  1  0
 21 23  1  0
 21 22  2  0
 24 23  1  6
 24 25  1  0
 25 17  1  0
 26 24  1  0
 26 27  1  0
 28 26  2  0
M  END
$$$$
