HEN.pdb
     RDKit          3D

 28 28  0  0  1  0  0  0  0  0999 V2000
    9.0260  -17.2322   17.6695 N   0  0  0  0  0  0  0  0  0  0  0  0
    9.4167  -16.0150   18.3111 C   0  0  1  0  0  0  0  0  0  0  0  0
    8.3818  -15.5085   19.2869 C   0  0  0  0  0  0  0  0  0  0  0  0
    7.7470  -14.3090   18.6494 C   0  0  0  0  0  0  0  0  0  0  0  0
    8.0838  -13.7619   17.4090 C   0  0  0  0  0  0  0  0  0  0  0  0
    7.3006  -12.6988   17.1791 N   0  0  0  0  0  0  0  0  0  0  0  0
    6.4843  -12.5543   18.2247 C   0  0  0  0  0  0  0  0  0  0  0  0
    6.7548  -13.5311   19.1170 N   0  0  0  0  0  0  0  0  0  0  0  0
   10.7767  -16.0759   18.8861 C   0  0  0  0  0  0  0  0  0  0  0  0
   11.1183  -17.1231   19.4873 O   0  0  0  0  0  0  0  0  0  0  0  0
   11.7001  -14.9677   18.7682 N   0  0  0  0  0  0  0  0  0  0  0  0
   12.9932  -15.1125   19.3292 C   0  0  1  0  0  0  0  0  0  0  0  0
   14.0422  -14.2693   18.6640 C   0  0  0  0  0  0  0  0  0  0  0  0
   15.4316  -14.4165   19.1527 C   0  0  0  0  0  0  0  0  0  0  0  0
   16.4663  -13.6343   18.4646 C   0  0  0  0  0  0  0  0  0  0  0  0
   17.6151  -13.4256   18.9792 O   0  0  0  0  0  0  0  0  0  0  0  0
   13.0100  -14.9488   20.8092 C   0  0  0  0  0  0  0  0  0  0  0  0
   12.0798  -14.3074   21.3466 O   0  0  0  0  0  0  0  0  0  0  0  0
   16.2396  -13.0843   17.2173 O   0  0  0  0  0  0  0  0  0  0  0  0
   12.7527  -18.7698   24.9093 N   0  0  0  0  0  0  0  0  0  0  0  0
   12.5181  -17.4369   24.4956 C   0  0  0  0  0  0  0  0  0  0  0  0
   12.1150  -16.6250   25.3582 O   0  0  0  0  0  0  0  0  0  0  0  0
   12.7289  -16.9882   23.1153 C   0  0  0  0  0  0  0  0  0  0  0  0
   13.8099  -15.9608   22.9716 C   0  0  2  0  0  0  0  0  0  0  0  0
   14.0237  -15.4803   21.6468 N   0  0  0  0  0  0  0  0  0  0  0  0
   15.0805  -16.4581   23.6054 C   0  0  0  0  0  0  0  0  0  0  0  0
   15.5844  -15.9086   24.7591 O   0  0  0  0  0  0  0  0  0  0  0  0
   15.7179  -17.4128   23.0712 O   0  0  0  0  0  0  0  0  0  0  0  0
  2  1  1  1
  2  9  1  0
  3  2  1  0
  4  3  1  0
  5  4  2  0
  6  7  1  0
  6  5  1  0
  7  8  2  0
  8  4  1  0
  9 11  1  0
 10  9  2  0
 11 12  1  0
 12 13  1  6
 13 14  1  0
 14 15  1  0
 15 16  2  0
 15 19  1  0
 17 18  2  0
 17 12  1  0
 20 21  1  0
 21 23  1  0
 21 22  2  0
 24 23  1  6
 24 25  1  0
 25 17  1  0
 26 24  1  0
 26 27  1  0
 28 26  2  0
M  END
$$$$
