HEN.pdb
     RDKit          3D

 28 28  0  0  1  0  0  0  0  0999 V2000
   10.0737  -15.4180   17.4648 N   0  0  0  0  0  0  0  0  0  0  0  0
   10.8943  -14.7073   18.3961 C   0  0  1  0  0  0  0  0  0  0  0  0
   10.1854  -14.4131   19.6964 C   0  0  0  0  0  0  0  0  0  0  0  0
    8.9939  -13.5711   19.3504 C   0  0  0  0  0  0  0  0  0  0  0  0
    8.6457  -13.1238   18.0736 C   0  0  0  0  0  0  0  0  0  0  0  0
    7.5213  -12.3997   18.1618 N   0  0  0  0  0  0  0  0  0  0  0  0
    7.1474  -12.3729   19.4424 C   0  0  0  0  0  0  0  0  0  0  0  0
    8.0407  -13.0836   20.1639 N   0  0  0  0  0  0  0  0  0  0  0  0
   12.2224  -15.3268   18.5859 C   0  0  0  0  0  0  0  0  0  0  0  0
   12.2763  -16.5684   18.7604 O   0  0  0  0  0  0  0  0  0  0  0  0
   13.4359  -14.5381   18.5737 N   0  0  0  0  0  0  0  0  0  0  0  0
   14.6741  -15.2145   18.7039 C   0  0  1  0  0  0  0  0  0  0  0  0
   15.7200  -14.7610   17.7270 C   0  0  0  0  0  0  0  0  0  0  0  0
   15.4159  -14.9340   16.2888 C   0  0  0  0  0  0  0  0  0  0  0  0
   16.3887  -14.3917   15.3321 C   0  0  0  0  0  0  0  0  0  0  0  0
   17.4453  -13.7833   15.7082 O   0  0  0  0  0  0  0  0  0  0  0  0
   15.1906  -15.2249   20.1005 C   0  0  0  0  0  0  0  0  0  0  0  0
   14.8678  -14.2847   20.8603 O   0  0  0  0  0  0  0  0  0  0  0  0
   16.2011  -14.5172   13.9686 O   0  0  0  0  0  0  0  0  0  0  0  0
   18.3437  -15.7553   24.1707 N   0  0  0  0  0  0  0  0  0  0  0  0
   18.2196  -14.6794   23.2598 C   0  0  0  0  0  0  0  0  0  0  0  0
   18.7703  -13.5974   23.5626 O   0  0  0  0  0  0  0  0  0  0  0  0
   17.4805  -14.7923   21.9980 C   0  0  0  0  0  0  0  0  0  0  0  0
   16.8143  -16.1203   21.8040 C   0  0  2  0  0  0  0  0  0  0  0  0
   16.0302  -16.2431   20.6199 N   0  0  0  0  0  0  0  0  0  0  0  0
   16.0383  -16.4924   23.0379 C   0  0  0  0  0  0  0  0  0  0  0  0
   16.6436  -16.6509   24.2608 O   0  0  0  0  0  0  0  0  0  0  0  0
   14.7866  -16.6687   22.9643 O   0  0  0  0  0  0  0  0  0  0  0  0
  2  1  1  6
  2  9  1  0
  3  2  1  0
  4  3  1  0
  5  4  2  0
  6  7  1  0
  6  5  1  0
  7  8  2  0
  8  4  1  0
  9 11  1  0
 10  9  2  0
 11 12  1  0
 12 13  1  6
 13 14  1  0
 14 15  1  0
 15 16  2  0
 15 19  1  0
 17 18  2  0
 17 12  1  0
 20 21  1  0
 21 23  1  0
 21 22  2  0
 24 23  1  1
 24 25  1  0
 25 17  1  0
 26 24  1  0
 26 27  1  0
 28 26  2  0
M  END
$$$$
