HEN.pdb
     RDKit          3D

 28 28  0  0  1  0  0  0  0  0999 V2000
   10.4320  -15.8188   20.1602 N   0  0  0  0  0  0  0  0  0  0  0  0
    9.4897  -15.4709   21.1785 C   0  0  1  0  0  0  0  0  0  0  0  0
    8.0602  -15.5153   20.6942 C   0  0  0  0  0  0  0  0  0  0  0  0
    7.9261  -14.4338   19.6643 C   0  0  0  0  0  0  0  0  0  0  0  0
    8.9625  -13.6428   19.1626 C   0  0  0  0  0  0  0  0  0  0  0  0
    8.4565  -12.7892   18.2616 N   0  0  0  0  0  0  0  0  0  0  0  0
    7.1435  -13.0107   18.1757 C   0  0  0  0  0  0  0  0  0  0  0  0
    6.8213  -14.0085   19.0266 N   0  0  0  0  0  0  0  0  0  0  0  0
    9.6996  -16.2147   22.4381 C   0  0  0  0  0  0  0  0  0  0  0  0
    8.8732  -16.0483   23.3678 O   0  0  0  0  0  0  0  0  0  0  0  0
   10.8213  -17.1128   22.6106 N   0  0  0  0  0  0  0  0  0  0  0  0
   10.9555  -17.7842   23.8512 C   0  0  1  0  0  0  0  0  0  0  0  0
   12.0174  -18.8454   23.8562 C   0  0  0  0  0  0  0  0  0  0  0  0
   11.9728  -19.8453   22.7658 C   0  0  0  0  0  0  0  0  0  0  0  0
   13.0342  -20.8598   22.7481 C   0  0  0  0  0  0  0  0  0  0  0  0
   14.0355  -20.7822   21.9611 O   0  0  0  0  0  0  0  0  0  0  0  0
   11.0978  -16.8552   25.0062 C   0  0  0  0  0  0  0  0  0  0  0  0
   11.9514  -15.9434   24.9336 O   0  0  0  0  0  0  0  0  0  0  0  0
   12.9953  -21.9541   23.5913 O   0  0  0  0  0  0  0  0  0  0  0  0
   10.3758  -14.0867   29.3526 N   0  0  0  0  0  0  0  0  0  0  0  0
    9.3416  -14.0442   28.3875 C   0  0  0  0  0  0  0  0  0  0  0  0
    8.4778  -13.1462   28.5029 O   0  0  0  0  0  0  0  0  0  0  0  0
    9.2536  -15.0011   27.2794 C   0  0  0  0  0  0  0  0  0  0  0  0
   10.3626  -16.0084   27.2606 C   0  0  2  0  0  0  0  0  0  0  0  0
   10.3183  -16.9457   26.1876 N   0  0  0  0  0  0  0  0  0  0  0  0
   10.4660  -16.6856   28.6000 C   0  0  0  0  0  0  0  0  0  0  0  0
   10.3526  -18.0474   28.7402 O   0  0  0  0  0  0  0  0  0  0  0  0
   10.6637  -15.9928   29.6413 O   0  0  0  0  0  0  0  0  0  0  0  0
  2  1  1  6
  2  9  1  0
  3  2  1  0
  4  3  1  0
  5  4  2  0
  6  7  1  0
  6  5  1  0
  7  8  2  0
  8  4  1  0
  9 11  1  0
 10  9  2  0
 11 12  1  0
 12 13  1  6
 13 14  1  0
 14 15  1  0
 15 16  2  0
 15 19  1  0
 17 18  2  0
 17 12  1  0
 20 21  1  0
 21 23  1  0
 21 22  2  0
 24 23  1  1
 24 25  1  0
 25 17  1  0
 26 24  1  0
 26 27  1  0
 28 26  2  0
M  END
$$$$
