HEN.pdb
     RDKit          3D

 28 28  0  0  1  0  0  0  0  0999 V2000
    9.8201  -15.5324   20.1251 N   0  0  0  0  0  0  0  0  0  0  0  0
    8.8538  -15.0712   21.0736 C   0  0  1  0  0  0  0  0  0  0  0  0
    7.4746  -14.9189   20.4784 C   0  0  0  0  0  0  0  0  0  0  0  0
    7.6370  -14.1023   19.2314 C   0  0  0  0  0  0  0  0  0  0  0  0
    8.4774  -12.9973   19.0756 C   0  0  0  0  0  0  0  0  0  0  0  0
    8.3508  -12.5318   17.8251 N   0  0  0  0  0  0  0  0  0  0  0  0
    7.4648  -13.2990   17.1872 C   0  0  0  0  0  0  0  0  0  0  0  0
    7.0315  -14.2520   18.0401 N   0  0  0  0  0  0  0  0  0  0  0  0
    8.8615  -15.8484   22.3305 C   0  0  0  0  0  0  0  0  0  0  0  0
    8.0188  -15.5545   23.2127 O   0  0  0  0  0  0  0  0  0  0  0  0
    9.8075  -16.9209   22.5531 N   0  0  0  0  0  0  0  0  0  0  0  0
    9.7400  -17.6281   23.7792 C   0  0  1  0  0  0  0  0  0  0  0  0
   10.2128  -19.0500   23.6874 C   0  0  0  0  0  0  0  0  0  0  0  0
    9.4813  -19.9425   22.7606 C   0  0  0  0  0  0  0  0  0  0  0  0
   10.2437  -21.0392   22.1508 C   0  0  0  0  0  0  0  0  0  0  0  0
   10.5696  -22.0858   22.8040 O   0  0  0  0  0  0  0  0  0  0  0  0
   10.3856  -16.9033   24.9084 C   0  0  0  0  0  0  0  0  0  0  0  0
   11.5045  -16.3777   24.7149 O   0  0  0  0  0  0  0  0  0  0  0  0
   10.6462  -20.9859   20.8298 O   0  0  0  0  0  0  0  0  0  0  0  0
   10.8286  -13.3448   29.0368 N   0  0  0  0  0  0  0  0  0  0  0  0
   10.0643  -14.5235   29.2075 C   0  0  0  0  0  0  0  0  0  0  0  0
    9.9342  -14.9664   30.3706 O   0  0  0  0  0  0  0  0  0  0  0  0
    9.4333  -15.2268   28.0857 C   0  0  0  0  0  0  0  0  0  0  0  0
   10.3854  -16.0570   27.2799 C   0  0  2  0  0  0  0  0  0  0  0  0
    9.8025  -16.7746   26.1949 N   0  0  0  0  0  0  0  0  0  0  0  0
   11.1831  -16.9529   28.1877 C   0  0  0  0  0  0  0  0  0  0  0  0
   12.2538  -16.4903   28.9131 O   0  0  0  0  0  0  0  0  0  0  0  0
   10.8706  -18.1750   28.2982 O   0  0  0  0  0  0  0  0  0  0  0  0
  2  1  1  6
  2  9  1  0
  3  2  1  0
  4  3  1  0
  5  4  2  0
  6  7  1  0
  6  5  1  0
  7  8  2  0
  8  4  1  0
  9 11  1  0
 10  9  2  0
 11 12  1  0
 12 13  1  6
 13 14  1  0
 14 15  1  0
 15 16  2  0
 15 19  1  0
 17 18  2  0
 17 12  1  0
 20 21  1  0
 21 23  1  0
 21 22  2  0
 24 23  1  1
 24 25  1  0
 25 17  1  0
 26 24  1  0
 26 27  1  0
 28 26  2  0
M  END
$$$$
