HEN.pdb
     RDKit          3D

 28 28  0  0  1  0  0  0  0  0999 V2000
    8.6961  -16.2878   18.4235 N   0  0  0  0  0  0  0  0  0  0  0  0
    9.0220  -16.1828   19.8123 C   0  0  1  0  0  0  0  0  0  0  0  0
    8.3523  -15.0081   20.4843 C   0  0  0  0  0  0  0  0  0  0  0  0
    7.6493  -14.2433   19.4030 C   0  0  0  0  0  0  0  0  0  0  0  0
    7.6548  -14.5521   18.0406 C   0  0  0  0  0  0  0  0  0  0  0  0
    6.9172  -13.6423   17.3889 N   0  0  0  0  0  0  0  0  0  0  0  0
    6.4475  -12.7732   18.2859 C   0  0  0  0  0  0  0  0  0  0  0  0
    6.8915  -13.1375   19.5080 N   0  0  0  0  0  0  0  0  0  0  0  0
    8.8403  -17.4526   20.5459 C   0  0  0  0  0  0  0  0  0  0  0  0
    7.7413  -18.0481   20.4343 O   0  0  0  0  0  0  0  0  0  0  0  0
    9.8900  -18.0070   21.3739 N   0  0  0  0  0  0  0  0  0  0  0  0
   11.2349  -17.7702   20.9958 C   0  0  1  0  0  0  0  0  0  0  0  0
   11.4387  -17.6594   19.5126 C   0  0  0  0  0  0  0  0  0  0  0  0
   12.8358  -17.6715   19.0239 C   0  0  0  0  0  0  0  0  0  0  0  0
   13.1264  -18.5148   17.8575 C   0  0  0  0  0  0  0  0  0  0  0  0
   13.9333  -18.1497   16.9391 O   0  0  0  0  0  0  0  0  0  0  0  0
   11.8550  -16.6296   21.7251 C   0  0  0  0  0  0  0  0  0  0  0  0
   11.2413  -15.5397   21.7555 O   0  0  0  0  0  0  0  0  0  0  0  0
   12.5331  -19.7531   17.7014 O   0  0  0  0  0  0  0  0  0  0  0  0
   10.3928  -16.3731   25.0155 N   0  0  0  0  0  0  0  0  0  0  0  0
   11.4584  -17.1996   25.4447 C   0  0  0  0  0  0  0  0  0  0  0  0
   11.5510  -17.4361   26.6700 O   0  0  0  0  0  0  0  0  0  0  0  0
   12.4369  -17.7750   24.5159 C   0  0  0  0  0  0  0  0  0  0  0  0
   13.2696  -16.7525   23.8045 C   0  0  2  0  0  0  0  0  0  0  0  0
   13.1058  -16.7088   22.3892 N   0  0  0  0  0  0  0  0  0  0  0  0
   14.7131  -16.8960   24.2032 C   0  0  0  0  0  0  0  0  0  0  0  0
   15.7047  -17.1320   23.2824 O   0  0  0  0  0  0  0  0  0  0  0  0
   15.0415  -16.7988   25.4222 O   0  0  0  0  0  0  0  0  0  0  0  0
  2  1  1  6
  2  9  1  0
  3  2  1  0
  4  3  1  0
  5  4  2  0
  6  7  1  0
  6  5  1  0
  7  8  2  0
  8  4  1  0
  9 11  1  0
 10  9  2  0
 11 12  1  0
 12 13  1  6
 13 14  1  0
 14 15  1  0
 15 16  2  0
 15 19  1  0
 17 18  2  0
 17 12  1  0
 20 21  1  0
 21 23  1  0
 21 22  2  0
 24 23  1  6
 24 25  1  0
 25 17  1  0
 26 24  1  0
 26 27  1  0
 28 26  2  0
M  END
$$$$
