YSG.pdb
     RDKit          3D

 23 23  0  0  1  0  0  0  0  0999 V2000
    5.6275  -10.7665   28.2956 O   0  0  0  0  0  0  0  0  0  0  0  0
    6.2580  -11.6989   27.4598 C   0  0  0  0  0  0  0  0  0  0  0  0
    7.4558  -12.2761   27.8238 C   0  0  0  0  0  0  0  0  0  0  0  0
    8.0362  -13.1856   26.9707 C   0  0  0  0  0  0  0  0  0  0  0  0
    7.4735  -13.5523   25.7572 C   0  0  0  0  0  0  0  0  0  0  0  0
    8.1502  -14.5419   24.8783 C   0  0  0  0  0  0  0  0  0  0  0  0
    7.2458  -15.7229   24.5779 C   0  0  2  0  0  0  0  0  0  0  0  0
    7.0544  -16.5704   25.7131 N   0  0  0  0  0  0  0  0  0  0  0  0
    7.8883  -16.4990   23.4964 C   0  0  0  0  0  0  0  0  0  0  0  0
    8.6150  -17.4852   23.7451 O   0  0  0  0  0  0  0  0  0  0  0  0
    6.2751  -12.9745   25.3935 C   0  0  0  0  0  0  0  0  0  0  0  0
    5.6838  -12.0546   26.2516 C   0  0  0  0  0  0  0  0  0  0  0  0
    7.9005  -15.1816   19.3737 O   0  0  0  0  0  0  0  0  0  0  0  0
    7.8324  -16.5095   19.7174 C   0  0  0  0  0  0  0  0  0  0  0  0
    8.3684  -16.8242   21.0821 C   0  0  2  0  0  0  0  0  0  0  0  0
    7.7064  -16.1574   22.1495 N   0  0  0  0  0  0  0  0  0  0  0  0
    9.8293  -16.4649   21.1566 C   0  0  0  0  0  0  0  0  0  0  0  0
   10.2168  -15.3476   21.5881 O   0  0  0  0  0  0  0  0  0  0  0  0
   10.8441  -17.3745   20.7413 N   0  0  0  0  0  0  0  0  0  0  0  0
   12.2517  -17.1315   20.9534 C   0  0  0  0  0  0  0  0  0  0  0  0
   13.0868  -18.2573   20.4551 C   0  0  0  0  0  0  0  0  0  0  0  0
   14.2833  -18.0307   19.8341 O   0  0  0  0  0  0  0  0  0  0  0  0
   12.6748  -19.4314   20.6135 O   0  0  0  0  0  0  0  0  0  0  0  0
  1  2  1  0
  2 12  2  0
  2  3  1  0
  3  4  2  0
  4  5  1  0
  5  6  1  0
  6  7  1  0
  7  9  1  0
  7  8  1  1
  9 16  1  0
 10  9  2  0
 11  5  2  0
 12 11  1  0
 15 14  1  6
 14 13  1  0
 15 17  1  0
 16 15  1  0
 17 18  2  0
 17 19  1  0
 19 20  1  0
 20 21  1  0
 21 22  1  0
 23 21  2  0
M  END
$$$$
