YSG.pdb
     RDKit          3D

 23 23  0  0  1  0  0  0  0  0999 V2000
   -3.1243  -31.4156   30.2768 O   0  0  0  0  0  0  0  0  0  0  0  0
   -3.9016  -30.3649   29.7696 C   0  0  0  0  0  0  0  0  0  0  0  0
   -3.6965  -29.0684   30.1911 C   0  0  0  0  0  0  0  0  0  0  0  0
   -4.4841  -28.0711   29.6649 C   0  0  0  0  0  0  0  0  0  0  0  0
   -5.4787  -28.3064   28.7272 C   0  0  0  0  0  0  0  0  0  0  0  0
   -6.2973  -27.1852   28.1958 C   0  0  0  0  0  0  0  0  0  0  0  0
   -7.2421  -26.6423   29.2519 C   0  0  2  0  0  0  0  0  0  0  0  0
   -8.2221  -27.6012   29.6567 N   0  0  0  0  0  0  0  0  0  0  0  0
   -7.9246  -25.4703   28.6642 C   0  0  0  0  0  0  0  0  0  0  0  0
   -8.9929  -25.5902   28.0264 O   0  0  0  0  0  0  0  0  0  0  0  0
   -5.6835  -29.6037   28.3059 C   0  0  0  0  0  0  0  0  0  0  0  0
   -4.8905  -30.6158   28.8342 C   0  0  0  0  0  0  0  0  0  0  0  0
   -7.9674  -21.5280   30.2209 O   0  0  0  0  0  0  0  0  0  0  0  0
   -7.5786  -21.7274   28.9189 C   0  0  0  0  0  0  0  0  0  0  0  0
   -8.0594  -23.0151   28.3194 C   0  0  2  0  0  0  0  0  0  0  0  0
   -7.3984  -24.1786   28.8005 N   0  0  0  0  0  0  0  0  0  0  0  0
   -7.8903  -22.9808   26.8230 C   0  0  0  0  0  0  0  0  0  0  0  0
   -6.8064  -23.3034   26.2701 O   0  0  0  0  0  0  0  0  0  0  0  0
   -8.9513  -22.5809   25.9606 N   0  0  0  0  0  0  0  0  0  0  0  0
   -8.7966  -22.4557   24.5303 C   0  0  0  0  0  0  0  0  0  0  0  0
  -10.0277  -21.9230   23.8870 C   0  0  0  0  0  0  0  0  0  0  0  0
  -11.1754  -21.7312   24.6044 O   0  0  0  0  0  0  0  0  0  0  0  0
   -9.9996  -21.6485   22.6633 O   0  0  0  0  0  0  0  0  0  0  0  0
  1  2  1  0
  2 12  2  0
  2  3  1  0
  3  4  2  0
  4  5  1  0
  5  6  1  0
  6  7  1  0
  7  9  1  0
  7  8  1  6
  9 16  1  0
 10  9  2  0
 11  5  2  0
 12 11  1  0
 15 14  1  1
 14 13  1  0
 15 17  1  0
 16 15  1  0
 17 18  2  0
 17 19  1  0
 19 20  1  0
 20 21  1  0
 21 22  1  0
 23 21  2  0
M  END
$$$$
