YSG.pdb
     RDKit          3D

 23 23  0  0  1  0  0  0  0  0999 V2000
   -4.6544  -25.4350   14.5771 O   0  0  0  0  0  0  0  0  0  0  0  0
   -3.8972  -24.5367   15.3420 C   0  0  0  0  0  0  0  0  0  0  0  0
   -4.2940  -23.2244   15.4866 C   0  0  0  0  0  0  0  0  0  0  0  0
   -3.5184  -22.3804   16.2468 C   0  0  0  0  0  0  0  0  0  0  0  0
   -2.3517  -22.7861   16.8777 C   0  0  0  0  0  0  0  0  0  0  0  0
   -1.5561  -21.8256   17.6865 C   0  0  0  0  0  0  0  0  0  0  0  0
   -1.7446  -22.0665   19.1728 C   0  0  2  0  0  0  0  0  0  0  0  0
   -2.9889  -21.5566   19.6581 N   0  0  0  0  0  0  0  0  0  0  0  0
   -0.6353  -21.3810   19.8689 C   0  0  0  0  0  0  0  0  0  0  0  0
   -0.7721  -20.2303   20.3376 O   0  0  0  0  0  0  0  0  0  0  0  0
   -1.9552  -24.0992   16.7327 C   0  0  0  0  0  0  0  0  0  0  0  0
   -2.7351  -24.9568   15.9656 C   0  0  0  0  0  0  0  0  0  0  0  0
    0.9081  -22.0988   22.9456 O   0  0  0  0  0  0  0  0  0  0  0  0
    1.9731  -22.0666   22.0791 C   0  0  0  0  0  0  0  0  0  0  0  0
    1.6809  -21.4099   20.7629 C   0  0  2  0  0  0  0  0  0  0  0  0
    0.6132  -21.9967   20.0295 N   0  0  0  0  0  0  0  0  0  0  0  0
    2.9067  -21.4424   19.8882 C   0  0  0  0  0  0  0  0  0  0  0  0
    3.1798  -22.4359   19.1651 O   0  0  0  0  0  0  0  0  0  0  0  0
    3.8172  -20.3479   19.8377 N   0  0  0  0  0  0  0  0  0  0  0  0
    5.0395  -20.3774   19.0692 C   0  0  0  0  0  0  0  0  0  0  0  0
    6.2257  -20.6336   19.9296 C   0  0  0  0  0  0  0  0  0  0  0  0
    7.1211  -19.6409   20.2152 O   0  0  0  0  0  0  0  0  0  0  0  0
    6.3966  -21.7855   20.3956 O   0  0  0  0  0  0  0  0  0  0  0  0
  1  2  1  0
  2 12  2  0
  2  3  1  0
  3  4  2  0
  4  5  1  0
  5  6  1  0
  6  7  1  0
  7  9  1  0
  7  8  1  1
  9 16  1  0
 10  9  2  0
 11  5  2  0
 12 11  1  0
 15 14  1  1
 14 13  1  0
 15 17  1  0
 16 15  1  0
 17 18  2  0
 17 19  1  0
 19 20  1  0
 20 21  1  0
 21 22  1  0
 23 21  2  0
M  END
$$$$
