YSG.pdb
     RDKit          3D

 23 23  0  0  1  0  0  0  0  0999 V2000
    5.3190  -10.8664   28.2538 O   0  0  0  0  0  0  0  0  0  0  0  0
    6.0022  -11.7656   27.4232 C   0  0  0  0  0  0  0  0  0  0  0  0
    7.2906  -12.1583   27.7171 C   0  0  0  0  0  0  0  0  0  0  0  0
    7.9200  -13.0425   26.8723 C   0  0  0  0  0  0  0  0  0  0  0  0
    7.3199  -13.5609   25.7344 C   0  0  0  0  0  0  0  0  0  0  0  0
    8.0530  -14.5138   24.8603 C   0  0  0  0  0  0  0  0  0  0  0  0
    7.2586  -15.7887   24.6447 C   0  0  2  0  0  0  0  0  0  0  0  0
    7.1483  -16.5744   25.8339 N   0  0  0  0  0  0  0  0  0  0  0  0
    7.9655  -16.5723   23.6098 C   0  0  0  0  0  0  0  0  0  0  0  0
    8.6905  -17.5451   23.9108 O   0  0  0  0  0  0  0  0  0  0  0  0
    6.0308  -13.1678   25.4407 C   0  0  0  0  0  0  0  0  0  0  0  0
    5.3897  -12.2743   26.2909 C   0  0  0  0  0  0  0  0  0  0  0  0
    8.0499  -15.4079   19.4377 O   0  0  0  0  0  0  0  0  0  0  0  0
    8.0111  -16.7205   19.8398 C   0  0  0  0  0  0  0  0  0  0  0  0
    8.5351  -16.9597   21.2244 C   0  0  2  0  0  0  0  0  0  0  0  0
    7.8492  -16.2532   22.2503 N   0  0  0  0  0  0  0  0  0  0  0  0
    9.9890  -16.5730   21.2984 C   0  0  0  0  0  0  0  0  0  0  0  0
   10.3510  -15.4102   21.6171 O   0  0  0  0  0  0  0  0  0  0  0  0
   11.0256  -17.5068   21.0105 N   0  0  0  0  0  0  0  0  0  0  0  0
   12.4266  -17.2058   21.1905 C   0  0  0  0  0  0  0  0  0  0  0  0
   13.2943  -18.3214   20.7260 C   0  0  0  0  0  0  0  0  0  0  0  0
   14.4112  -18.0840   19.9744 O   0  0  0  0  0  0  0  0  0  0  0  0
   12.9851  -19.4968   21.0362 O   0  0  0  0  0  0  0  0  0  0  0  0
  1  2  1  0
  2 12  2  0
  2  3  1  0
  3  4  2  0
  4  5  1  0
  5  6  1  0
  6  7  1  0
  7  9  1  0
  7  8  1  1
  9 16  1  0
 10  9  2  0
 11  5  2  0
 12 11  1  0
 15 14  1  6
 14 13  1  0
 15 17  1  0
 16 15  1  0
 17 18  2  0
 17 19  1  0
 19 20  1  0
 20 21  1  0
 21 22  1  0
 23 21  2  0
M  END
$$$$
