YSG.pdb
     RDKit          3D

 23 23  0  0  1  0  0  0  0  0999 V2000
    5.0978  -10.5981   27.2123 O   0  0  0  0  0  0  0  0  0  0  0  0
    5.9423  -11.6357   26.7928 C   0  0  0  0  0  0  0  0  0  0  0  0
    6.2264  -12.6953   27.6276 C   0  0  0  0  0  0  0  0  0  0  0  0
    7.0603  -13.6895   27.1716 C   0  0  0  0  0  0  0  0  0  0  0  0
    7.6319  -13.6786   25.9080 C   0  0  0  0  0  0  0  0  0  0  0  0
    8.5259  -14.7836   25.4729 C   0  0  0  0  0  0  0  0  0  0  0  0
    7.7610  -15.8394   24.6963 C   0  0  2  0  0  0  0  0  0  0  0  0
    6.9563  -16.6663   25.5405 N   0  0  0  0  0  0  0  0  0  0  0  0
    8.7606  -16.6804   24.0047 C   0  0  0  0  0  0  0  0  0  0  0  0
    9.1754  -17.7468   24.5079 O   0  0  0  0  0  0  0  0  0  0  0  0
    7.3473  -12.6182   25.0731 C   0  0  0  0  0  0  0  0  0  0  0  0
    6.5051  -11.6104   25.5285 C   0  0  0  0  0  0  0  0  0  0  0  0
   10.3573  -15.3893   20.3358 O   0  0  0  0  0  0  0  0  0  0  0  0
   10.4745  -16.7225   20.6440 C   0  0  0  0  0  0  0  0  0  0  0  0
   10.3146  -17.0376   22.1014 C   0  0  2  0  0  0  0  0  0  0  0  0
    9.2816  -16.3127   22.7568 N   0  0  0  0  0  0  0  0  0  0  0  0
   11.6016  -16.7586   22.8325 C   0  0  0  0  0  0  0  0  0  0  0  0
   11.8474  -15.6318   23.3370 O   0  0  0  0  0  0  0  0  0  0  0  0
   12.6040  -17.7589   22.9880 N   0  0  0  0  0  0  0  0  0  0  0  0
   13.8477  -17.5235   23.6832 C   0  0  0  0  0  0  0  0  0  0  0  0
   14.9832  -17.3490   22.7381 C   0  0  0  0  0  0  0  0  0  0  0  0
   15.6092  -18.4267   22.1765 O   0  0  0  0  0  0  0  0  0  0  0  0
   15.3641  -16.1869   22.4592 O   0  0  0  0  0  0  0  0  0  0  0  0
  1  2  1  0
  2 12  2  0
  2  3  1  0
  3  4  2  0
  4  5  1  0
  5  6  1  0
  6  7  1  0
  7  9  1  0
  7  8  1  1
  9 16  1  0
 10  9  2  0
 11  5  2  0
 12 11  1  0
 15 14  1  6
 14 13  1  0
 15 17  1  0
 16 15  1  0
 17 18  2  0
 17 19  1  0
 19 20  1  0
 20 21  1  0
 21 22  1  0
 23 21  2  0
M  END
$$$$
