YSG.pdb
     RDKit          3D

 23 23  0  0  1  0  0  0  0  0999 V2000
    5.4090  -10.8323   28.0105 O   0  0  0  0  0  0  0  0  0  0  0  0
    6.0608  -11.8731   27.3342 C   0  0  0  0  0  0  0  0  0  0  0  0
    5.3785  -12.6692   26.4392 C   0  0  0  0  0  0  0  0  0  0  0  0
    6.0608  -13.6780   25.7999 C   0  0  0  0  0  0  0  0  0  0  0  0
    7.4072  -13.9349   26.0122 C   0  0  0  0  0  0  0  0  0  0  0  0
    8.0889  -15.0409   25.2900 C   0  0  0  0  0  0  0  0  0  0  0  0
    7.0886  -15.9441   24.5925 C   0  0  2  0  0  0  0  0  0  0  0  0
    6.6570  -17.0272   25.4197 N   0  0  0  0  0  0  0  0  0  0  0  0
    7.7570  -16.4880   23.3915 C   0  0  0  0  0  0  0  0  0  0  0  0
    8.4178  -17.5481   23.4372 O   0  0  0  0  0  0  0  0  0  0  0  0
    8.0894  -13.1380   26.9078 C   0  0  0  0  0  0  0  0  0  0  0  0
    7.4050  -12.1170   27.5569 C   0  0  0  0  0  0  0  0  0  0  0  0
    8.1682  -14.3092   19.6663 O   0  0  0  0  0  0  0  0  0  0  0  0
    7.8446  -15.6432   19.7074 C   0  0  0  0  0  0  0  0  0  0  0  0
    8.2641  -16.3437   20.9652 C   0  0  2  0  0  0  0  0  0  0  0  0
    7.6746  -15.8342   22.1547 N   0  0  0  0  0  0  0  0  0  0  0  0
    9.7595  -16.2610   21.1261 C   0  0  0  0  0  0  0  0  0  0  0  0
   10.2940  -15.5142   21.9870 O   0  0  0  0  0  0  0  0  0  0  0  0
   10.6418  -17.0256   20.3097 N   0  0  0  0  0  0  0  0  0  0  0  0
   12.0655  -17.0947   20.5419 C   0  0  0  0  0  0  0  0  0  0  0  0
   12.7554  -17.9024   19.5004 C   0  0  0  0  0  0  0  0  0  0  0  0
   13.8689  -17.4322   18.8619 O   0  0  0  0  0  0  0  0  0  0  0  0
   12.2976  -19.0339   19.2117 O   0  0  0  0  0  0  0  0  0  0  0  0
  1  2  1  0
  2 12  2  0
  2  3  1  0
  3  4  2  0
  4  5  1  0
  5  6  1  0
  6  7  1  0
  7  9  1  0
  7  8  1  1
  9 16  1  0
 10  9  2  0
 11  5  2  0
 12 11  1  0
 15 14  1  6
 14 13  1  0
 15 17  1  0
 16 15  1  0
 17 18  2  0
 17 19  1  0
 19 20  1  0
 20 21  1  0
 21 22  1  0
 23 21  2  0
M  END
$$$$
