YSG.pdb
     RDKit          3D

 23 23  0  0  1  0  0  0  0  0999 V2000
   11.9780  -18.5818   37.0455 O   0  0  0  0  0  0  0  0  0  0  0  0
   12.3988  -18.6520   35.7100 C   0  0  0  0  0  0  0  0  0  0  0  0
   11.5102  -18.4374   34.6781 C   0  0  0  0  0  0  0  0  0  0  0  0
   11.9698  -18.5169   33.3842 C   0  0  0  0  0  0  0  0  0  0  0  0
   13.2888  -18.8036   33.0650 C   0  0  0  0  0  0  0  0  0  0  0  0
   13.7248  -18.8756   31.6457 C   0  0  0  0  0  0  0  0  0  0  0  0
   13.0286  -20.0064   30.9110 C   0  0  2  0  0  0  0  0  0  0  0  0
   13.0434  -21.2311   31.6482 N   0  0  0  0  0  0  0  0  0  0  0  0
   13.7454  -20.2013   29.6330 C   0  0  0  0  0  0  0  0  0  0  0  0
   14.7312  -20.9652   29.5486 O   0  0  0  0  0  0  0  0  0  0  0  0
   14.1775  -19.0182   34.0978 C   0  0  0  0  0  0  0  0  0  0  0  0
   13.7187  -18.9391   35.4076 C   0  0  0  0  0  0  0  0  0  0  0  0
   12.6397  -18.1226   25.9928 O   0  0  0  0  0  0  0  0  0  0  0  0
   13.1260  -19.4067   26.0189 C   0  0  0  0  0  0  0  0  0  0  0  0
   13.9832  -19.7201   27.2088 C   0  0  2  0  0  0  0  0  0  0  0  0
   13.3456  -19.5356   28.4664 N   0  0  0  0  0  0  0  0  0  0  0  0
   15.2191  -18.8592   27.1938 C   0  0  0  0  0  0  0  0  0  0  0  0
   15.5092  -18.0978   28.1533 O   0  0  0  0  0  0  0  0  0  0  0  0
   16.1204  -18.8658   26.0905 N   0  0  0  0  0  0  0  0  0  0  0  0
   17.3040  -18.0402   26.0378 C   0  0  0  0  0  0  0  0  0  0  0  0
   18.0568  -18.2358   24.7697 C   0  0  0  0  0  0  0  0  0  0  0  0
   19.1520  -17.4739   24.4715 O   0  0  0  0  0  0  0  0  0  0  0  0
   17.6699  -19.1191   23.9675 O   0  0  0  0  0  0  0  0  0  0  0  0
  1  2  1  0
  2 12  2  0
  2  3  1  0
  3  4  2  0
  4  5  1  0
  5  6  1  0
  6  7  1  0
  7  9  1  0
  7  8  1  1
  9 16  1  0
 10  9  2  0
 11  5  2  0
 12 11  1  0
 15 14  1  6
 14 13  1  0
 15 17  1  0
 16 15  1  0
 17 18  2  0
 17 19  1  0
 19 20  1  0
 20 21  1  0
 21 22  1  0
 23 21  2  0
M  END
$$$$
