YSG.pdb
     RDKit          3D

 23 23  0  0  1  0  0  0  0  0999 V2000
    5.2828  -10.7155   28.2860 O   0  0  0  0  0  0  0  0  0  0  0  0
    5.9975  -11.6199   27.4880 C   0  0  0  0  0  0  0  0  0  0  0  0
    5.5634  -11.9366   26.2185 C   0  0  0  0  0  0  0  0  0  0  0  0
    6.2981  -12.8292   25.4734 C   0  0  0  0  0  0  0  0  0  0  0  0
    7.4592  -13.4289   25.9381 C   0  0  0  0  0  0  0  0  0  0  0  0
    8.2097  -14.3864   25.0840 C   0  0  0  0  0  0  0  0  0  0  0  0
    7.3248  -15.5329   24.6308 C   0  0  2  0  0  0  0  0  0  0  0  0
    6.9943  -16.4259   25.6972 N   0  0  0  0  0  0  0  0  0  0  0  0
    8.0705  -16.2739   23.5917 C   0  0  0  0  0  0  0  0  0  0  0  0
    8.5906  -17.3852   23.8304 O   0  0  0  0  0  0  0  0  0  0  0  0
    7.8932  -13.1116   27.2083 C   0  0  0  0  0  0  0  0  0  0  0  0
    7.1547  -12.2102   27.9661 C   0  0  0  0  0  0  0  0  0  0  0  0
    7.6224  -16.3365   19.4215 O   0  0  0  0  0  0  0  0  0  0  0  0
    8.8287  -15.9068   19.9179 C   0  0  0  0  0  0  0  0  0  0  0  0
    9.0998  -16.3234   21.3327 C   0  0  2  0  0  0  0  0  0  0  0  0
    8.2226  -15.7570   22.2981 N   0  0  0  0  0  0  0  0  0  0  0  0
   10.5064  -15.9478   21.7192 C   0  0  0  0  0  0  0  0  0  0  0  0
   10.7541  -14.9254   22.4106 O   0  0  0  0  0  0  0  0  0  0  0  0
   11.6256  -16.7335   21.3198 N   0  0  0  0  0  0  0  0  0  0  0  0
   12.9855  -16.4012   21.6742 C   0  0  0  0  0  0  0  0  0  0  0  0
   13.9649  -17.2985   21.0044 C   0  0  0  0  0  0  0  0  0  0  0  0
   15.3096  -17.0677   21.0885 O   0  0  0  0  0  0  0  0  0  0  0  0
   13.5368  -18.2816   20.3535 O   0  0  0  0  0  0  0  0  0  0  0  0
  1  2  1  0
  2 12  2  0
  2  3  1  0
  3  4  2  0
  4  5  1  0
  5  6  1  0
  6  7  1  0
  7  9  1  0
  7  8  1  1
  9 16  1  0
 10  9  2  0
 11  5  2  0
 12 11  1  0
 15 14  1  6
 14 13  1  0
 15 17  1  0
 16 15  1  0
 17 18  2  0
 17 19  1  0
 19 20  1  0
 20 21  1  0
 21 22  1  0
 23 21  2  0
M  END
$$$$
