YSG.pdb
     RDKit          3D

 23 23  0  0  1  0  0  0  0  0999 V2000
   10.3979  -14.0476   30.8229 O   0  0  0  0  0  0  0  0  0  0  0  0
   10.5173  -14.5342   29.5136 C   0  0  0  0  0  0  0  0  0  0  0  0
   11.2768  -15.6524   29.2430 C   0  0  0  0  0  0  0  0  0  0  0  0
   11.3640  -16.0922   27.9427 C   0  0  0  0  0  0  0  0  0  0  0  0
   10.7227  -15.4635   26.8857 C   0  0  0  0  0  0  0  0  0  0  0  0
   10.8558  -15.9875   25.5011 C   0  0  0  0  0  0  0  0  0  0  0  0
    9.7259  -16.9416   25.1608 C   0  0  2  0  0  0  0  0  0  0  0  0
    9.7137  -18.0994   25.9994 N   0  0  0  0  0  0  0  0  0  0  0  0
    9.9192  -17.3620   23.7570 C   0  0  0  0  0  0  0  0  0  0  0  0
   10.5075  -18.4271   23.4707 O   0  0  0  0  0  0  0  0  0  0  0  0
    9.9629  -14.3447   27.1570 C   0  0  0  0  0  0  0  0  0  0  0  0
    9.8711  -13.8956   28.4693 C   0  0  0  0  0  0  0  0  0  0  0  0
    9.2140  -16.3695   19.0262 O   0  0  0  0  0  0  0  0  0  0  0  0
    8.9711  -16.0466   20.3388 C   0  0  0  0  0  0  0  0  0  0  0  0
    9.7426  -16.8650   21.3307 C   0  0  2  0  0  0  0  0  0  0  0  0
    9.4492  -16.5807   22.6927 N   0  0  0  0  0  0  0  0  0  0  0  0
   11.2210  -16.6575   21.1301 C   0  0  0  0  0  0  0  0  0  0  0  0
   11.8610  -15.7822   21.7693 O   0  0  0  0  0  0  0  0  0  0  0  0
   11.9666  -17.4439   20.2053 N   0  0  0  0  0  0  0  0  0  0  0  0
   13.3947  -17.3132   20.0352 C   0  0  0  0  0  0  0  0  0  0  0  0
   13.8977  -18.1635   18.9229 C   0  0  0  0  0  0  0  0  0  0  0  0
   14.9009  -17.7328   18.1002 O   0  0  0  0  0  0  0  0  0  0  0  0
   13.3839  -19.2942   18.7469 O   0  0  0  0  0  0  0  0  0  0  0  0
  1  2  1  0
  2 12  2  0
  2  3  1  0
  3  4  2  0
  4  5  1  0
  5  6  1  0
  6  7  1  0
  7  9  1  0
  7  8  1  1
  9 16  1  0
 10  9  2  0
 11  5  2  0
 12 11  1  0
 15 14  1  6
 14 13  1  0
 15 17  1  0
 16 15  1  0
 17 18  2  0
 17 19  1  0
 19 20  1  0
 20 21  1  0
 21 22  1  0
 23 21  2  0
M  END
$$$$
