YSG.pdb
     RDKit          3D

 23 23  0  0  1  0  0  0  0  0999 V2000
   11.4099  -17.5761    7.4631 O   0  0  0  0  0  0  0  0  0  0  0  0
   11.6604  -17.4265    8.8343 C   0  0  0  0  0  0  0  0  0  0  0  0
   11.9351  -18.5219    9.6250 C   0  0  0  0  0  0  0  0  0  0  0  0
   12.1744  -18.3252   10.9650 C   0  0  0  0  0  0  0  0  0  0  0  0
   12.1529  -17.0738   11.5628 C   0  0  0  0  0  0  0  0  0  0  0  0
   12.4199  -16.9261   13.0176 C   0  0  0  0  0  0  0  0  0  0  0  0
   11.1571  -17.1294   13.8342 C   0  0  2  0  0  0  0  0  0  0  0  0
   10.2107  -16.0732   13.6538 N   0  0  0  0  0  0  0  0  0  0  0  0
   11.5612  -17.1806   15.2551 C   0  0  0  0  0  0  0  0  0  0  0  0
   11.5892  -16.1502   15.9622 O   0  0  0  0  0  0  0  0  0  0  0  0
   11.8779  -15.9781   10.7713 C   0  0  0  0  0  0  0  0  0  0  0  0
   11.6353  -16.1708    9.4162 C   0  0  0  0  0  0  0  0  0  0  0  0
   10.1583  -19.8018   17.6387 O   0  0  0  0  0  0  0  0  0  0  0  0
   11.5010  -19.6926   17.9058 C   0  0  0  0  0  0  0  0  0  0  0  0
   12.1671  -18.5146   17.2597 C   0  0  2  0  0  0  0  0  0  0  0  0
   11.9287  -18.3883   15.8635 N   0  0  0  0  0  0  0  0  0  0  0  0
   13.6577  -18.5912   17.4624 C   0  0  0  0  0  0  0  0  0  0  0  0
   14.4652  -18.4610   16.5055 O   0  0  0  0  0  0  0  0  0  0  0  0
   14.2257  -18.8150   18.7496 N   0  0  0  0  0  0  0  0  0  0  0  0
   15.6466  -18.7613   19.0016 C   0  0  0  0  0  0  0  0  0  0  0  0
   15.9580  -18.9439   20.4448 C   0  0  0  0  0  0  0  0  0  0  0  0
   17.2496  -19.0103   20.8877 O   0  0  0  0  0  0  0  0  0  0  0  0
   15.0096  -19.0372   21.2604 O   0  0  0  0  0  0  0  0  0  0  0  0
  1  2  1  0
  2 12  2  0
  2  3  1  0
  3  4  2  0
  4  5  1  0
  5  6  1  0
  6  7  1  0
  7  9  1  0
  7  8  1  1
  9 16  1  0
 10  9  2  0
 11  5  2  0
 12 11  1  0
 15 14  1  6
 14 13  1  0
 15 17  1  0
 16 15  1  0
 17 18  2  0
 17 19  1  0
 19 20  1  0
 20 21  1  0
 21 22  1  0
 23 21  2  0
M  END
$$$$
