YSG.pdb
     RDKit          3D

 23 23  0  0  1  0  0  0  0  0999 V2000
    5.1394  -10.5991   27.3702 O   0  0  0  0  0  0  0  0  0  0  0  0
    5.9705  -11.5767   26.8055 C   0  0  0  0  0  0  0  0  0  0  0  0
    5.8994  -11.8723   25.4609 C   0  0  0  0  0  0  0  0  0  0  0  0
    6.7351  -12.8392   24.9526 C   0  0  0  0  0  0  0  0  0  0  0  0
    7.6499  -13.5346   25.7294 C   0  0  0  0  0  0  0  0  0  0  0  0
    8.5265  -14.5694   25.1208 C   0  0  0  0  0  0  0  0  0  0  0  0
    7.7293  -15.7897   24.6987 C   0  0  2  0  0  0  0  0  0  0  0  0
    7.2777  -16.5627   25.8132 N   0  0  0  0  0  0  0  0  0  0  0  0
    8.6182  -16.6215   23.8603 C   0  0  0  0  0  0  0  0  0  0  0  0
    9.2187  -17.6119   24.3306 O   0  0  0  0  0  0  0  0  0  0  0  0
    7.7207  -13.2385   27.0747 C   0  0  0  0  0  0  0  0  0  0  0  0
    6.8785  -12.2622   27.5940 C   0  0  0  0  0  0  0  0  0  0  0  0
    8.4298  -17.2332   19.7144 O   0  0  0  0  0  0  0  0  0  0  0  0
    9.6252  -16.7900   20.2249 C   0  0  0  0  0  0  0  0  0  0  0  0
    9.7842  -17.0004   21.7012 C   0  0  2  0  0  0  0  0  0  0  0  0
    8.8210  -16.3304   22.5046 N   0  0  0  0  0  0  0  0  0  0  0  0
   11.1477  -16.5375   22.1431 C   0  0  0  0  0  0  0  0  0  0  0  0
   11.3010  -15.5148   22.8610 O   0  0  0  0  0  0  0  0  0  0  0  0
   12.3313  -17.2365   21.7688 N   0  0  0  0  0  0  0  0  0  0  0  0
   13.6585  -16.7340   22.0361 C   0  0  0  0  0  0  0  0  0  0  0  0
   14.3670  -17.5600   23.0504 C   0  0  0  0  0  0  0  0  0  0  0  0
   15.6221  -18.0477   22.8151 O   0  0  0  0  0  0  0  0  0  0  0  0
   13.7917  -17.8067   24.1374 O   0  0  0  0  0  0  0  0  0  0  0  0
  1  2  1  0
  2 12  2  0
  2  3  1  0
  3  4  2  0
  4  5  1  0
  5  6  1  0
  6  7  1  0
  7  9  1  0
  7  8  1  1
  9 16  1  0
 10  9  2  0
 11  5  2  0
 12 11  1  0
 15 14  1  6
 14 13  1  0
 15 17  1  0
 16 15  1  0
 17 18  2  0
 17 19  1  0
 19 20  1  0
 20 21  1  0
 21 22  1  0
 23 21  2  0
M  END
$$$$
