YSG.pdb
     RDKit          3D

 23 23  0  0  1  0  0  0  0  0999 V2000
   10.2064  -14.0358   30.6806 O   0  0  0  0  0  0  0  0  0  0  0  0
   10.0074  -14.4926   29.3701 C   0  0  0  0  0  0  0  0  0  0  0  0
   10.5410  -15.6932   28.9528 C   0  0  0  0  0  0  0  0  0  0  0  0
   10.3188  -16.0995   27.6577 C   0  0  0  0  0  0  0  0  0  0  0  0
    9.5812  -15.3577   26.7469 C   0  0  0  0  0  0  0  0  0  0  0  0
    9.3761  -15.8510   25.3598 C   0  0  0  0  0  0  0  0  0  0  0  0
    7.9999  -16.4680   25.1910 C   0  0  2  0  0  0  0  0  0  0  0  0
    7.8232  -17.6419   25.9874 N   0  0  0  0  0  0  0  0  0  0  0  0
    7.8548  -16.8242   23.7637 C   0  0  0  0  0  0  0  0  0  0  0  0
    8.1009  -17.9784   23.3518 O   0  0  0  0  0  0  0  0  0  0  0  0
    9.0475  -14.1565   27.1650 C   0  0  0  0  0  0  0  0  0  0  0  0
    9.2687  -13.7408   28.4728 C   0  0  0  0  0  0  0  0  0  0  0  0
    7.2253  -13.7237   20.9673 O   0  0  0  0  0  0  0  0  0  0  0  0
    6.9321  -15.0061   20.5727 C   0  0  0  0  0  0  0  0  0  0  0  0
    7.5654  -16.0732   21.4148 C   0  0  2  0  0  0  0  0  0  0  0  0
    7.4353  -15.8794   22.8176 N   0  0  0  0  0  0  0  0  0  0  0  0
    9.0358  -16.1701   21.1026 C   0  0  0  0  0  0  0  0  0  0  0  0
    9.9022  -15.5774   21.7973 O   0  0  0  0  0  0  0  0  0  0  0  0
    9.5167  -16.9389   20.0039 N   0  0  0  0  0  0  0  0  0  0  0  0
   10.9191  -17.2058   19.7857 C   0  0  0  0  0  0  0  0  0  0  0  0
   11.1449  -17.9821   18.5369 C   0  0  0  0  0  0  0  0  0  0  0  0
   12.2210  -17.7314   17.7320 O   0  0  0  0  0  0  0  0  0  0  0  0
   10.3259  -18.8804   18.2275 O   0  0  0  0  0  0  0  0  0  0  0  0
  1  2  1  0
  2 12  2  0
  2  3  1  0
  3  4  2  0
  4  5  1  0
  5  6  1  0
  6  7  1  0
  7  9  1  0
  7  8  1  1
  9 16  1  0
 10  9  2  0
 11  5  2  0
 12 11  1  0
 15 14  1  6
 14 13  1  0
 15 17  1  0
 16 15  1  0
 17 18  2  0
 17 19  1  0
 19 20  1  0
 20 21  1  0
 21 22  1  0
 23 21  2  0
M  END
$$$$
