YSG.pdb
     RDKit          3D

 23 23  0  0  1  0  0  0  0  0999 V2000
    6.7100  -13.5665   16.6131 O   0  0  0  0  0  0  0  0  0  0  0  0
    7.4590  -13.7618   17.7820 C   0  0  0  0  0  0  0  0  0  0  0  0
    8.3584  -14.8020   17.8781 C   0  0  0  0  0  0  0  0  0  0  0  0
    9.0704  -14.9531   19.0452 C   0  0  0  0  0  0  0  0  0  0  0  0
    8.9274  -14.1069   20.1348 C   0  0  0  0  0  0  0  0  0  0  0  0
    9.7264  -14.3226   21.3696 C   0  0  0  0  0  0  0  0  0  0  0  0
    9.4802  -15.7019   21.9526 C   0  0  2  0  0  0  0  0  0  0  0  0
    8.1297  -15.8819   22.3854 N   0  0  0  0  0  0  0  0  0  0  0  0
   10.3848  -15.8521   23.1120 C   0  0  0  0  0  0  0  0  0  0  0  0
   11.5760  -15.4764   23.0622 O   0  0  0  0  0  0  0  0  0  0  0  0
    8.0273  -13.0662   20.0381 C   0  0  0  0  0  0  0  0  0  0  0  0
    7.3050  -12.9086   18.8610 C   0  0  0  0  0  0  0  0  0  0  0  0
    9.2157  -15.9681   27.1219 O   0  0  0  0  0  0  0  0  0  0  0  0
   10.4904  -15.8182   26.6333 C   0  0  0  0  0  0  0  0  0  0  0  0
   10.7931  -16.6546   25.4259 C   0  0  2  0  0  0  0  0  0  0  0  0
    9.9399  -16.4222   24.3123 N   0  0  0  0  0  0  0  0  0  0  0  0
   10.6981  -18.1165   25.7757 C   0  0  0  0  0  0  0  0  0  0  0  0
    9.6473  -18.7800   25.5751 O   0  0  0  0  0  0  0  0  0  0  0  0
   11.7954  -18.8195   26.3513 N   0  0  0  0  0  0  0  0  0  0  0  0
   11.7534  -20.2313   26.6519 C   0  0  0  0  0  0  0  0  0  0  0  0
   13.0552  -20.7218   27.1791 C   0  0  0  0  0  0  0  0  0  0  0  0
   14.1721  -20.7519   26.3915 O   0  0  0  0  0  0  0  0  0  0  0  0
   13.1164  -21.1123   28.3695 O   0  0  0  0  0  0  0  0  0  0  0  0
  1  2  1  0
  2 12  2  0
  2  3  1  0
  3  4  2  0
  4  5  1  0
  5  6  1  0
  6  7  1  0
  7  9  1  0
  7  8  1  1
  9 16  1  0
 10  9  2  0
 11  5  2  0
 12 11  1  0
 15 14  1  1
 14 13  1  0
 15 17  1  0
 16 15  1  0
 17 18  2  0
 17 19  1  0
 19 20  1  0
 20 21  1  0
 21 22  1  0
 23 21  2  0
M  END
$$$$
