YSG.pdb
     RDKit          3D

 23 23  0  0  1  0  0  0  0  0999 V2000
    5.6777  -10.9260   28.4424 O   0  0  0  0  0  0  0  0  0  0  0  0
    6.2642  -11.8319   27.5475 C   0  0  0  0  0  0  0  0  0  0  0  0
    7.5193  -12.3489   27.7882 C   0  0  0  0  0  0  0  0  0  0  0  0
    8.0533  -13.2344   26.8813 C   0  0  0  0  0  0  0  0  0  0  0  0
    7.3884  -13.6347   25.7316 C   0  0  0  0  0  0  0  0  0  0  0  0
    8.0192  -14.5957   24.7892 C   0  0  0  0  0  0  0  0  0  0  0  0
    7.1240  -15.7961   24.5433 C   0  0  2  0  0  0  0  0  0  0  0  0
    7.0606  -16.6736   25.6701 N   0  0  0  0  0  0  0  0  0  0  0  0
    7.6861  -16.5291   23.3893 C   0  0  0  0  0  0  0  0  0  0  0  0
    8.2742  -17.6224   23.5354 O   0  0  0  0  0  0  0  0  0  0  0  0
    6.1327  -13.1171   25.4913 C   0  0  0  0  0  0  0  0  0  0  0  0
    5.5880  -12.2217   26.4044 C   0  0  0  0  0  0  0  0  0  0  0  0
    7.8384  -16.9695   18.5384 O   0  0  0  0  0  0  0  0  0  0  0  0
    7.4501  -16.2455   19.6389 C   0  0  0  0  0  0  0  0  0  0  0  0
    8.0124  -16.7426   20.9372 C   0  0  2  0  0  0  0  0  0  0  0  0
    7.5806  -16.0246   22.0862 N   0  0  0  0  0  0  0  0  0  0  0  0
    9.5171  -16.6843   20.9022 C   0  0  0  0  0  0  0  0  0  0  0  0
   10.1456  -15.6192   21.1370 O   0  0  0  0  0  0  0  0  0  0  0  0
   10.3021  -17.8343   20.6009 N   0  0  0  0  0  0  0  0  0  0  0  0
   11.7431  -17.8007   20.5119 C   0  0  0  0  0  0  0  0  0  0  0  0
   12.2590  -18.8022   19.5403 C   0  0  0  0  0  0  0  0  0  0  0  0
   12.4187  -20.1134   19.8923 O   0  0  0  0  0  0  0  0  0  0  0  0
   12.5493  -18.4245   18.3799 O   0  0  0  0  0  0  0  0  0  0  0  0
  1  2  1  0
  2 12  2  0
  2  3  1  0
  3  4  2  0
  4  5  1  0
  5  6  1  0
  6  7  1  0
  7  9  1  0
  7  8  1  1
  9 16  1  0
 10  9  2  0
 11  5  2  0
 12 11  1  0
 15 14  1  6
 14 13  1  0
 15 17  1  0
 16 15  1  0
 17 18  2  0
 17 19  1  0
 19 20  1  0
 20 21  1  0
 21 22  1  0
 23 21  2  0
M  END
$$$$
