YSG.pdb
     RDKit          3D

 23 23  0  0  1  0  0  0  0  0999 V2000
    9.6290  -14.0730   30.7160 O   0  0  0  0  0  0  0  0  0  0  0  0
   10.0620  -14.5631   29.4759 C   0  0  0  0  0  0  0  0  0  0  0  0
    9.4867  -14.1223   28.3032 C   0  0  0  0  0  0  0  0  0  0  0  0
    9.9452  -14.6321   27.1109 C   0  0  0  0  0  0  0  0  0  0  0  0
   10.9621  -15.5718   27.0298 C   0  0  0  0  0  0  0  0  0  0  0  0
   11.4139  -16.0850   25.7099 C   0  0  0  0  0  0  0  0  0  0  0  0
   10.5388  -17.2297   25.2336 C   0  0  2  0  0  0  0  0  0  0  0  0
   10.5369  -18.3338   26.1416 N   0  0  0  0  0  0  0  0  0  0  0  0
   11.0758  -17.6749   23.9303 C   0  0  0  0  0  0  0  0  0  0  0  0
   11.9381  -18.5766   23.8545 O   0  0  0  0  0  0  0  0  0  0  0  0
   11.5374  -16.0125   28.2034 C   0  0  0  0  0  0  0  0  0  0  0  0
   11.0781  -15.5008   29.4114 C   0  0  0  0  0  0  0  0  0  0  0  0
    9.4624  -16.0394   20.4551 O   0  0  0  0  0  0  0  0  0  0  0  0
   10.0948  -17.2525   20.3338 C   0  0  0  0  0  0  0  0  0  0  0  0
   11.0449  -17.5699   21.4498 C   0  0  2  0  0  0  0  0  0  0  0  0
   10.6374  -17.1015   22.7292 N   0  0  0  0  0  0  0  0  0  0  0  0
   12.3985  -16.9775   21.1575 C   0  0  0  0  0  0  0  0  0  0  0  0
   12.8030  -15.9319   21.7301 O   0  0  0  0  0  0  0  0  0  0  0  0
   13.2872  -17.5736   20.2171 N   0  0  0  0  0  0  0  0  0  0  0  0
   14.5416  -16.9714   19.8304 C   0  0  0  0  0  0  0  0  0  0  0  0
   15.6975  -17.6292   20.4968 C   0  0  0  0  0  0  0  0  0  0  0  0
   16.8915  -17.7878   19.8501 O   0  0  0  0  0  0  0  0  0  0  0  0
   15.5620  -18.0417   21.6736 O   0  0  0  0  0  0  0  0  0  0  0  0
  1  2  1  0
  2 12  2  0
  2  3  1  0
  3  4  2  0
  4  5  1  0
  5  6  1  0
  6  7  1  0
  7  9  1  0
  7  8  1  1
  9 16  1  0
 10  9  2  0
 11  5  2  0
 12 11  1  0
 15 14  1  6
 14 13  1  0
 15 17  1  0
 16 15  1  0
 17 18  2  0
 17 19  1  0
 19 20  1  0
 20 21  1  0
 21 22  1  0
 23 21  2  0
M  END
$$$$
