FCC.pdb
     RDKit          3D

 24 24  0  0  1  0  0  0  0  0999 V2000
    6.5645  -17.5836   26.2108 N   0  0  0  0  0  0  0  0  0  0  0  0
    6.8771  -16.4204   25.3627 C   0  0  1  0  0  0  0  0  0  0  0  0
    8.0142  -15.7057   26.0564 C   0  0  0  0  0  0  0  0  0  0  0  0
    7.6890  -14.3155   26.4500 C   0  0  0  0  0  0  0  0  0  0  0  0
    8.5944  -13.4748   27.0593 C   0  0  0  0  0  0  0  0  0  0  0  0
    8.2724  -12.1742   27.4130 C   0  0  0  0  0  0  0  0  0  0  0  0
    7.0084  -11.6728   27.1600 C   0  0  0  0  0  0  0  0  0  0  0  0
    6.0962  -12.4970   26.5546 C   0  0  0  0  0  0  0  0  0  0  0  0
    6.4263  -13.7791   26.2101 C   0  0  0  0  0  0  0  0  0  0  0  0
    7.3368  -16.8681   24.0270 C   0  0  0  0  0  0  0  0  0  0  0  0
    7.8121  -18.0259   23.8343 O   0  0  0  0  0  0  0  0  0  0  0  0
    7.2790  -16.0398   22.8741 N   0  0  0  0  0  0  0  0  0  0  0  0
    7.7314  -16.5358   21.5587 C   0  0  1  0  0  0  0  0  0  0  0  0
    7.4374  -15.3941   20.6000 C   0  0  0  0  0  0  0  0  0  0  0  0
    7.9270  -15.7179   18.9118 S   0  0  0  0  0  0  0  0  0  0  0  0
    9.1495  -16.8783   21.5899 C   0  0  0  0  0  0  0  0  0  0  0  0
    9.6253  -17.8258   20.8961 O   0  0  0  0  0  0  0  0  0  0  0  0
   10.0632  -16.1641   22.3984 N   0  0  0  0  0  0  0  0  0  0  0  0
   11.4984  -16.4586   22.3667 C   0  0  1  0  0  0  0  0  0  0  0  0
   12.3062  -15.1756   22.3534 C   0  0  0  0  0  0  0  0  0  0  0  0
   12.3183  -14.4070   20.7266 S   0  0  0  0  0  0  0  0  0  0  0  0
   11.8834  -17.2113   23.5768 C   0  0  0  0  0  0  0  0  0  0  0  0
   13.1453  -17.6989   23.8110 O   0  0  0  0  0  0  0  0  0  0  0  0
   11.0110  -17.4253   24.4536 O   0  0  0  0  0  0  0  0  0  0  0  0
  2  1  1  1
  2 10  1  0
  3  2  1  0
  4  3  1  0
  5  4  2  0
  6  5  1  0
  7  6  2  0
  7  8  1  0
  8  9  2  0
  9  4  1  0
 10 11  2  0
 12 10  1  0
 12 13  1  0
 13 14  1  6
 14 15  1  0
 16 17  2  0
 16 13  1  0
 18 16  1  0
 19 18  1  0
 19 20  1  1
 21 20  1  0
 22 19  1  0
 23 22  1  0
 24 22  2  0
M  END
$$$$
