FCC.pdb
     RDKit          3D

 24 24  0  0  1  0  0  0  0  0999 V2000
    5.8373  -18.1185   25.6339 N   0  0  0  0  0  0  0  0  0  0  0  0
    6.1326  -16.6915   25.4181 C   0  0  1  0  0  0  0  0  0  0  0  0
    6.7490  -16.2043   26.7095 C   0  0  0  0  0  0  0  0  0  0  0  0
    7.0127  -14.7471   26.7283 C   0  0  0  0  0  0  0  0  0  0  0  0
    8.2798  -14.2111   26.6592 C   0  0  0  0  0  0  0  0  0  0  0  0
    8.5050  -12.8438   26.6706 C   0  0  0  0  0  0  0  0  0  0  0  0
    7.4437  -11.9606   26.7535 C   0  0  0  0  0  0  0  0  0  0  0  0
    6.1767  -12.4784   26.8231 C   0  0  0  0  0  0  0  0  0  0  0  0
    5.9676  -13.8303   26.8109 C   0  0  0  0  0  0  0  0  0  0  0  0
    7.1209  -16.5317   24.3255 C   0  0  0  0  0  0  0  0  0  0  0  0
    8.1507  -17.2637   24.2400 O   0  0  0  0  0  0  0  0  0  0  0  0
    6.9880  -15.5549   23.3025 N   0  0  0  0  0  0  0  0  0  0  0  0
    8.0113  -15.4163   22.2466 C   0  0  1  0  0  0  0  0  0  0  0  0
    7.5339  -14.2443   21.4056 C   0  0  0  0  0  0  0  0  0  0  0  0
    8.6259  -13.8268   20.0537 S   0  0  0  0  0  0  0  0  0  0  0  0
    9.3295  -15.1787   22.8257 C   0  0  0  0  0  0  0  0  0  0  0  0
    9.5674  -14.1737   23.5598 O   0  0  0  0  0  0  0  0  0  0  0  0
   10.4069  -16.0643   22.5950 N   0  0  0  0  0  0  0  0  0  0  0  0
   11.7489  -15.7801   23.1104 C   0  0  1  0  0  0  0  0  0  0  0  0
   12.1310  -16.7801   24.1841 C   0  0  0  0  0  0  0  0  0  0  0  0
   10.9929  -16.7371   25.5770 S   0  0  0  0  0  0  0  0  0  0  0  0
   12.7400  -15.8983   22.0228 C   0  0  0  0  0  0  0  0  0  0  0  0
   14.0650  -15.5611   22.1489 O   0  0  0  0  0  0  0  0  0  0  0  0
   12.3595  -16.3330   20.9085 O   0  0  0  0  0  0  0  0  0  0  0  0
  2  1  1  1
  2 10  1  0
  3  2  1  0
  4  3  1  0
  5  4  2  0
  6  5  1  0
  7  6  2  0
  7  8  1  0
  8  9  2  0
  9  4  1  0
 10 11  2  0
 12 10  1  0
 12 13  1  0
 13 14  1  6
 14 15  1  0
 16 17  2  0
 16 13  1  0
 18 16  1  0
 19 18  1  0
 19 20  1  1
 21 20  1  0
 22 19  1  0
 23 22  1  0
 24 22  2  0
M  END
$$$$
