FCC.pdb
     RDKit          3D

 24 24  0  0  1  0  0  0  0  0999 V2000
    6.2769  -16.4536   24.6705 N   0  0  0  0  0  0  0  0  0  0  0  0
    7.3167  -15.9639   23.7490 C   0  0  1  0  0  0  0  0  0  0  0  0
    7.0128  -14.4986   23.5353 C   0  0  0  0  0  0  0  0  0  0  0  0
    7.0970  -13.6888   24.7723 C   0  0  0  0  0  0  0  0  0  0  0  0
    6.0983  -13.6582   25.7207 C   0  0  0  0  0  0  0  0  0  0  0  0
    6.1997  -12.8994   26.8758 C   0  0  0  0  0  0  0  0  0  0  0  0
    7.3280  -12.1358   27.1145 C   0  0  0  0  0  0  0  0  0  0  0  0
    8.3304  -12.1554   26.1802 C   0  0  0  0  0  0  0  0  0  0  0  0
    8.2183  -12.9089   25.0439 C   0  0  0  0  0  0  0  0  0  0  0  0
    8.6552  -16.0895   24.3724 C   0  0  0  0  0  0  0  0  0  0  0  0
    9.6827  -15.5453   23.8708 O   0  0  0  0  0  0  0  0  0  0  0  0
    8.8832  -16.8228   25.5677 N   0  0  0  0  0  0  0  0  0  0  0  0
   10.2499  -17.0108   26.0948 C   0  0  1  0  0  0  0  0  0  0  0  0
   10.0446  -17.4948   27.5205 C   0  0  0  0  0  0  0  0  0  0  0  0
    8.3555  -17.9373   27.9021 S   0  0  0  0  0  0  0  0  0  0  0  0
   10.9925  -17.9730   25.2873 C   0  0  0  0  0  0  0  0  0  0  0  0
   10.4777  -19.0661   24.9059 O   0  0  0  0  0  0  0  0  0  0  0  0
   12.3268  -17.7281   24.8897 N   0  0  0  0  0  0  0  0  0  0  0  0
   13.0425  -18.6592   24.0132 C   0  0  1  0  0  0  0  0  0  0  0  0
   13.4033  -17.9880   22.7025 C   0  0  0  0  0  0  0  0  0  0  0  0
   14.0267  -16.3188   22.9525 S   0  0  0  0  0  0  0  0  0  0  0  0
   14.3025  -19.0844   24.6542 C   0  0  0  0  0  0  0  0  0  0  0  0
   15.1548  -20.0237   24.1284 O   0  0  0  0  0  0  0  0  0  0  0  0
   14.6255  -18.5615   25.7486 O   0  0  0  0  0  0  0  0  0  0  0  0
  2  1  1  1
  2 10  1  0
  3  2  1  0
  4  3  1  0
  5  4  2  0
  6  5  1  0
  7  6  2  0
  7  8  1  0
  8  9  2  0
  9  4  1  0
 10 11  2  0
 12 10  1  0
 12 13  1  0
 13 14  1  1
 14 15  1  0
 16 17  2  0
 16 13  1  0
 18 16  1  0
 19 18  1  0
 19 20  1  6
 21 20  1  0
 22 19  1  0
 23 22  1  0
 24 22  2  0
M  END
$$$$
