FCC.pdb
     RDKit          3D

 24 24  0  0  1  0  0  0  0  0999 V2000
    6.6125  -18.2549   20.7145 N   0  0  0  0  0  0  0  0  0  0  0  0
    7.3338  -17.0266   21.0903 C   0  0  1  0  0  0  0  0  0  0  0  0
    6.3090  -15.9174   21.0244 C   0  0  0  0  0  0  0  0  0  0  0  0
    6.8617  -14.5797   21.3378 C   0  0  0  0  0  0  0  0  0  0  0  0
    7.5914  -13.8371   20.4356 C   0  0  0  0  0  0  0  0  0  0  0  0
    8.0937  -12.5835   20.7460 C   0  0  0  0  0  0  0  0  0  0  0  0
    7.8732  -12.0309   21.9946 C   0  0  0  0  0  0  0  0  0  0  0  0
    7.1491  -12.7574   22.9035 C   0  0  0  0  0  0  0  0  0  0  0  0
    6.6584  -13.9940   22.5848 C   0  0  0  0  0  0  0  0  0  0  0  0
    7.8368  -17.1320   22.4802 C   0  0  0  0  0  0  0  0  0  0  0  0
    7.0885  -17.4824   23.4397 O   0  0  0  0  0  0  0  0  0  0  0  0
    9.1831  -16.8505   22.8363 N   0  0  0  0  0  0  0  0  0  0  0  0
    9.6751  -17.1012   24.2060 C   0  0  1  0  0  0  0  0  0  0  0  0
   10.9718  -17.8685   24.0101 C   0  0  0  0  0  0  0  0  0  0  0  0
   12.1907  -16.9993   23.0338 S   0  0  0  0  0  0  0  0  0  0  0  0
    9.8793  -15.8475   24.9244 C   0  0  0  0  0  0  0  0  0  0  0  0
   10.3755  -14.8263   24.3619 O   0  0  0  0  0  0  0  0  0  0  0  0
    9.5296  -15.7130   26.2875 N   0  0  0  0  0  0  0  0  0  0  0  0
   10.0170  -14.5884   27.0905 C   0  0  1  0  0  0  0  0  0  0  0  0
    8.8685  -13.6865   27.4983 C   0  0  0  0  0  0  0  0  0  0  0  0
    7.7953  -13.2962   26.1079 S   0  0  0  0  0  0  0  0  0  0  0  0
   10.6463  -15.0903   28.3279 C   0  0  0  0  0  0  0  0  0  0  0  0
   11.2469  -14.2878   29.2662 O   0  0  0  0  0  0  0  0  0  0  0  0
   10.6381  -16.3262   28.5470 O   0  0  0  0  0  0  0  0  0  0  0  0
  2  1  1  1
  2 10  1  0
  3  2  1  0
  4  3  1  0
  5  4  2  0
  6  5  1  0
  7  6  2  0
  7  8  1  0
  8  9  2  0
  9  4  1  0
 10 11  2  0
 12 10  1  0
 12 13  1  0
 13 14  1  6
 14 15  1  0
 16 17  2  0
 16 13  1  0
 18 16  1  0
 19 18  1  0
 19 20  1  1
 21 20  1  0
 22 19  1  0
 23 22  1  0
 24 22  2  0
M  END
$$$$
