FCC.pdb
     RDKit          3D

 24 24  0  0  1  0  0  0  0  0999 V2000
    6.4792  -16.4481   25.8454 N   0  0  0  0  0  0  0  0  0  0  0  0
    6.9844  -15.4708   24.8657 C   0  0  1  0  0  0  0  0  0  0  0  0
    7.9505  -14.5933   25.6285 C   0  0  0  0  0  0  0  0  0  0  0  0
    7.2984  -13.4657   26.3329 C   0  0  0  0  0  0  0  0  0  0  0  0
    6.1521  -12.8543   25.8745 C   0  0  0  0  0  0  0  0  0  0  0  0
    5.5529  -11.8050   26.5528 C   0  0  0  0  0  0  0  0  0  0  0  0
    6.0987  -11.3317   27.7322 C   0  0  0  0  0  0  0  0  0  0  0  0
    7.2393  -11.9294   28.2014 C   0  0  0  0  0  0  0  0  0  0  0  0
    7.8212  -12.9647   27.5225 C   0  0  0  0  0  0  0  0  0  0  0  0
    7.7202  -16.1640   23.7822 C   0  0  0  0  0  0  0  0  0  0  0  0
    8.0401  -17.3865   23.8641 O   0  0  0  0  0  0  0  0  0  0  0  0
    8.1176  -15.5151   22.5824 N   0  0  0  0  0  0  0  0  0  0  0  0
    8.9809  -16.1991   21.5986 C   0  0  1  0  0  0  0  0  0  0  0  0
    8.8107  -15.3962   20.3199 C   0  0  0  0  0  0  0  0  0  0  0  0
    7.1194  -15.2803   19.7536 S   0  0  0  0  0  0  0  0  0  0  0  0
   10.3677  -16.2268   22.0519 C   0  0  0  0  0  0  0  0  0  0  0  0
   11.0680  -15.1738   22.1303 O   0  0  0  0  0  0  0  0  0  0  0  0
   10.9967  -17.4356   22.4282 N   0  0  0  0  0  0  0  0  0  0  0  0
   12.4006  -17.4644   22.8469 C   0  0  1  0  0  0  0  0  0  0  0  0
   12.5498  -18.2005   24.1640 C   0  0  0  0  0  0  0  0  0  0  0  0
   11.5633  -17.4496   25.4680 S   0  0  0  0  0  0  0  0  0  0  0  0
   13.2093  -18.1844   21.8436 C   0  0  0  0  0  0  0  0  0  0  0  0
   14.5751  -18.3116   21.9031 O   0  0  0  0  0  0  0  0  0  0  0  0
   12.6228  -18.7180   20.8705 O   0  0  0  0  0  0  0  0  0  0  0  0
  2  1  1  1
  2 10  1  0
  3  2  1  0
  4  3  1  0
  5  4  2  0
  6  5  1  0
  7  6  2  0
  7  8  1  0
  8  9  2  0
  9  4  1  0
 10 11  2  0
 12 10  1  0
 12 13  1  0
 13 14  1  6
 14 15  1  0
 16 17  2  0
 16 13  1  0
 18 16  1  0
 19 18  1  0
 19 20  1  1
 21 20  1  0
 22 19  1  0
 23 22  1  0
 24 22  2  0
M  END
$$$$
