FCC.pdb
     RDKit          3D

 24 24  0  0  1  0  0  0  0  0999 V2000
    5.8913  -18.0856   25.1907 N   0  0  0  0  0  0  0  0  0  0  0  0
    6.1764  -16.6545   24.9889 C   0  0  1  0  0  0  0  0  0  0  0  0
    6.5327  -16.1146   26.3551 C   0  0  0  0  0  0  0  0  0  0  0  0
    6.7131  -14.6450   26.3837 C   0  0  0  0  0  0  0  0  0  0  0  0
    5.6688  -13.7563   26.2516 C   0  0  0  0  0  0  0  0  0  0  0  0
    5.8577  -12.3840   26.2886 C   0  0  0  0  0  0  0  0  0  0  0  0
    7.1244  -11.8565   26.4624 C   0  0  0  0  0  0  0  0  0  0  0  0
    8.1740  -12.7277   26.5951 C   0  0  0  0  0  0  0  0  0  0  0  0
    7.9744  -14.0805   26.5569 C   0  0  0  0  0  0  0  0  0  0  0  0
    7.3411  -16.4855   24.0884 C   0  0  0  0  0  0  0  0  0  0  0  0
    8.3715  -17.2157   24.1801 O   0  0  0  0  0  0  0  0  0  0  0  0
    7.3880  -15.5011   23.0651 N   0  0  0  0  0  0  0  0  0  0  0  0
    8.5294  -15.4300   22.1307 C   0  0  1  0  0  0  0  0  0  0  0  0
    8.1184  -14.3855   21.1066 C   0  0  0  0  0  0  0  0  0  0  0  0
    6.7029  -14.8520   20.1201 S   0  0  0  0  0  0  0  0  0  0  0  0
    9.7553  -15.0624   22.8319 C   0  0  0  0  0  0  0  0  0  0  0  0
    9.7764  -14.1497   23.7105 O   0  0  0  0  0  0  0  0  0  0  0  0
   10.9818  -15.7119   22.5633 N   0  0  0  0  0  0  0  0  0  0  0  0
   11.9667  -15.9459   23.6228 C   0  0  1  0  0  0  0  0  0  0  0  0
   11.3763  -16.8114   24.7187 C   0  0  0  0  0  0  0  0  0  0  0  0
   11.7393  -16.1610   26.3565 S   0  0  0  0  0  0  0  0  0  0  0  0
   13.1344  -16.6627   23.0735 C   0  0  0  0  0  0  0  0  0  0  0  0
   14.4367  -16.3791   23.4033 O   0  0  0  0  0  0  0  0  0  0  0  0
   12.9371  -17.5916   22.2527 O   0  0  0  0  0  0  0  0  0  0  0  0
  2  1  1  1
  2 10  1  0
  3  2  1  0
  4  3  1  0
  5  4  2  0
  6  5  1  0
  7  6  2  0
  7  8  1  0
  8  9  2  0
  9  4  1  0
 10 11  2  0
 12 10  1  0
 12 13  1  0
 13 14  1  6
 14 15  1  0
 16 17  2  0
 16 13  1  0
 18 16  1  0
 19 18  1  0
 19 20  1  1
 21 20  1  0
 22 19  1  0
 23 22  1  0
 24 22  2  0
M  END
$$$$
