FCC.pdb
     RDKit          3D

 24 24  0  0  1  0  0  0  0  0999 V2000
    5.9453  -18.1748   25.2722 N   0  0  0  0  0  0  0  0  0  0  0  0
    6.2455  -16.7413   25.1129 C   0  0  1  0  0  0  0  0  0  0  0  0
    6.7057  -16.2691   26.4731 C   0  0  0  0  0  0  0  0  0  0  0  0
    6.8647  -14.7998   26.5684 C   0  0  0  0  0  0  0  0  0  0  0  0
    5.8023  -13.9238   26.5252 C   0  0  0  0  0  0  0  0  0  0  0  0
    5.9717  -12.5520   26.6236 C   0  0  0  0  0  0  0  0  0  0  0  0
    7.2365  -12.0120   26.7707 C   0  0  0  0  0  0  0  0  0  0  0  0
    8.3039  -12.8704   26.8152 C   0  0  0  0  0  0  0  0  0  0  0  0
    8.1235  -14.2229   26.7171 C   0  0  0  0  0  0  0  0  0  0  0  0
    7.3489  -16.5531   24.1419 C   0  0  0  0  0  0  0  0  0  0  0  0
    8.3437  -17.3353   24.0968 O   0  0  0  0  0  0  0  0  0  0  0  0
    7.3728  -15.4912   23.1983 N   0  0  0  0  0  0  0  0  0  0  0  0
    8.4707  -15.3703   22.2180 C   0  0  1  0  0  0  0  0  0  0  0  0
    8.0019  -14.2949   21.2524 C   0  0  0  0  0  0  0  0  0  0  0  0
    6.5055  -14.7130   20.3688 S   0  0  0  0  0  0  0  0  0  0  0  0
    9.7219  -15.0117   22.8777 C   0  0  0  0  0  0  0  0  0  0  0  0
    9.7489  -14.2729   23.9067 O   0  0  0  0  0  0  0  0  0  0  0  0
   10.9681  -15.4758   22.3979 N   0  0  0  0  0  0  0  0  0  0  0  0
   12.0715  -15.7770   23.3139 C   0  0  1  0  0  0  0  0  0  0  0  0
   11.7012  -16.9206   24.2379 C   0  0  0  0  0  0  0  0  0  0  0  0
   11.1624  -16.3327   25.8508 S   0  0  0  0  0  0  0  0  0  0  0  0
   13.2612  -16.1955   22.5466 C   0  0  0  0  0  0  0  0  0  0  0  0
   13.2367  -17.1207   21.5325 O   0  0  0  0  0  0  0  0  0  0  0  0
   14.3701  -15.6803   22.8299 O   0  0  0  0  0  0  0  0  0  0  0  0
  2  1  1  1
  2 10  1  0
  3  2  1  0
  4  3  1  0
  5  4  2  0
  6  5  1  0
  7  6  2  0
  7  8  1  0
  8  9  2  0
  9  4  1  0
 10 11  2  0
 12 10  1  0
 12 13  1  0
 13 14  1  6
 14 15  1  0
 16 17  2  0
 16 13  1  0
 18 16  1  0
 19 18  1  0
 19 20  1  1
 21 20  1  0
 22 19  1  0
 23 22  1  0
 24 22  2  0
M  END
$$$$
