FCC.pdb
     RDKit          3D

 24 24  0  0  1  0  0  0  0  0999 V2000
    6.1201  -18.2595   25.5817 N   0  0  0  0  0  0  0  0  0  0  0  0
    6.2347  -16.8088   25.3524 C   0  0  1  0  0  0  0  0  0  0  0  0
    6.8017  -16.2387   26.6325 C   0  0  0  0  0  0  0  0  0  0  0  0
    6.8648  -14.7592   26.6461 C   0  0  0  0  0  0  0  0  0  0  0  0
    5.7453  -13.9591   26.7117 C   0  0  0  0  0  0  0  0  0  0  0  0
    5.8262  -12.5758   26.7310 C   0  0  0  0  0  0  0  0  0  0  0  0
    7.0568  -11.9463   26.6838 C   0  0  0  0  0  0  0  0  0  0  0  0
    8.1802  -12.7285   26.6181 C   0  0  0  0  0  0  0  0  0  0  0  0
    8.0870  -14.0932   26.5998 C   0  0  0  0  0  0  0  0  0  0  0  0
    7.1827  -16.5376   24.2462 C   0  0  0  0  0  0  0  0  0  0  0  0
    8.2643  -17.1833   24.1161 O   0  0  0  0  0  0  0  0  0  0  0  0
    6.9510  -15.5428   23.2588 N   0  0  0  0  0  0  0  0  0  0  0  0
    7.8914  -15.3530   22.1360 C   0  0  1  0  0  0  0  0  0  0  0  0
    7.2968  -14.2099   21.3307 C   0  0  0  0  0  0  0  0  0  0  0  0
    8.2266  -13.7943   19.8619 S   0  0  0  0  0  0  0  0  0  0  0  0
    9.2315  -15.0446   22.6245 C   0  0  0  0  0  0  0  0  0  0  0  0
    9.4252  -14.2516   23.5936 O   0  0  0  0  0  0  0  0  0  0  0  0
   10.3812  -15.6208   22.0375 N   0  0  0  0  0  0  0  0  0  0  0  0
   11.6292  -15.7654   22.7918 C   0  0  1  0  0  0  0  0  0  0  0  0
   11.4255  -16.6686   23.9925 C   0  0  0  0  0  0  0  0  0  0  0  0
   12.2582  -16.0364   25.4569 S   0  0  0  0  0  0  0  0  0  0  0  0
   12.6616  -16.3879   21.9400 C   0  0  0  0  0  0  0  0  0  0  0  0
   13.9885  -16.0355   21.9567 O   0  0  0  0  0  0  0  0  0  0  0  0
   12.3170  -17.2974   21.1465 O   0  0  0  0  0  0  0  0  0  0  0  0
  2  1  1  1
  2 10  1  0
  3  2  1  0
  4  3  1  0
  5  4  2  0
  6  5  1  0
  7  6  2  0
  7  8  1  0
  8  9  2  0
  9  4  1  0
 10 11  2  0
 12 10  1  0
 12 13  1  0
 13 14  1  6
 14 15  1  0
 16 17  2  0
 16 13  1  0
 18 16  1  0
 19 18  1  0
 19 20  1  1
 21 20  1  0
 22 19  1  0
 23 22  1  0
 24 22  2  0
M  END
$$$$
