FCC.pdb
     RDKit          3D

 24 24  0  0  1  0  0  0  0  0999 V2000
    6.7772  -16.8587   25.9174 N   0  0  0  0  0  0  0  0  0  0  0  0
    7.1368  -15.7304   25.0411 C   0  0  1  0  0  0  0  0  0  0  0  0
    7.9364  -14.7830   25.9061 C   0  0  0  0  0  0  0  0  0  0  0  0
    7.1630  -13.6091   26.3720 C   0  0  0  0  0  0  0  0  0  0  0  0
    6.2253  -12.9685   25.5922 C   0  0  0  0  0  0  0  0  0  0  0  0
    5.5064  -11.8757   26.0497 C   0  0  0  0  0  0  0  0  0  0  0  0
    5.7137  -11.3868   27.3268 C   0  0  0  0  0  0  0  0  0  0  0  0
    6.6436  -12.0132   28.1149 C   0  0  0  0  0  0  0  0  0  0  0  0
    7.3467  -13.0913   27.6517 C   0  0  0  0  0  0  0  0  0  0  0  0
    7.9930  -16.1993   23.9263 C   0  0  0  0  0  0  0  0  0  0  0  0
    8.6706  -17.2663   24.0037 O   0  0  0  0  0  0  0  0  0  0  0  0
    8.1163  -15.4937   22.6993 N   0  0  0  0  0  0  0  0  0  0  0  0
    9.0409  -15.9578   21.6454 C   0  0  1  0  0  0  0  0  0  0  0  0
    8.5719  -15.2462   20.3874 C   0  0  0  0  0  0  0  0  0  0  0  0
    6.8995  -15.6508   19.9038 S   0  0  0  0  0  0  0  0  0  0  0  0
   10.4224  -15.6296   21.9821 C   0  0  0  0  0  0  0  0  0  0  0  0
   10.7201  -14.6046   22.6650 O   0  0  0  0  0  0  0  0  0  0  0  0
   11.4978  -16.4450   21.5614 N   0  0  0  0  0  0  0  0  0  0  0  0
   12.7405  -16.5236   22.3340 C   0  0  1  0  0  0  0  0  0  0  0  0
   12.4709  -17.0630   23.7251 C   0  0  0  0  0  0  0  0  0  0  0  0
   13.9861  -17.2535   24.6764 S   0  0  0  0  0  0  0  0  0  0  0  0
   13.6834  -17.4490   21.6756 C   0  0  0  0  0  0  0  0  0  0  0  0
   13.3466  -18.7034   21.2305 O   0  0  0  0  0  0  0  0  0  0  0  0
   14.8703  -17.0771   21.5066 O   0  0  0  0  0  0  0  0  0  0  0  0
  2  1  1  1
  2 10  1  0
  3  2  1  0
  4  3  1  0
  5  4  2  0
  6  5  1  0
  7  6  2  0
  7  8  1  0
  8  9  2  0
  9  4  1  0
 10 11  2  0
 12 10  1  0
 12 13  1  0
 13 14  1  6
 14 15  1  0
 16 17  2  0
 16 13  1  0
 18 16  1  0
 19 18  1  0
 19 20  1  1
 21 20  1  0
 22 19  1  0
 23 22  1  0
 24 22  2  0
M  END
$$$$
