FCC.pdb
     RDKit          3D

 24 24  0  0  1  0  0  0  0  0999 V2000
    7.9209  -13.2109   18.4711 N   0  0  0  0  0  0  0  0  0  0  0  0
    8.1086  -14.5286   19.1025 C   0  0  1  0  0  0  0  0  0  0  0  0
    9.0312  -15.2930   18.1808 C   0  0  0  0  0  0  0  0  0  0  0  0
    8.3650  -15.7943   16.9569 C   0  0  0  0  0  0  0  0  0  0  0  0
    8.2692  -15.0573   15.7970 C   0  0  0  0  0  0  0  0  0  0  0  0
    7.6480  -15.5478   14.6595 C   0  0  0  0  0  0  0  0  0  0  0  0
    7.0952  -16.8156   14.6556 C   0  0  0  0  0  0  0  0  0  0  0  0
    7.1821  -17.5614   15.8022 C   0  0  0  0  0  0  0  0  0  0  0  0
    7.7981  -17.0659   16.9186 C   0  0  0  0  0  0  0  0  0  0  0  0
    8.7674  -14.3763   20.4211 C   0  0  0  0  0  0  0  0  0  0  0  0
    9.5540  -13.4159   20.6712 O   0  0  0  0  0  0  0  0  0  0  0  0
    8.5676  -15.2876   21.4926 N   0  0  0  0  0  0  0  0  0  0  0  0
    9.2964  -15.1329   22.7677 C   0  0  1  0  0  0  0  0  0  0  0  0
    8.2059  -15.0670   23.8237 C   0  0  0  0  0  0  0  0  0  0  0  0
    6.5482  -15.0358   23.1563 S   0  0  0  0  0  0  0  0  0  0  0  0
   10.2087  -16.2508   22.9860 C   0  0  0  0  0  0  0  0  0  0  0  0
   10.0062  -17.3909   22.4715 O   0  0  0  0  0  0  0  0  0  0  0  0
   11.3672  -16.1124   23.7841 N   0  0  0  0  0  0  0  0  0  0  0  0
   12.3280  -17.2095   23.9272 C   0  0  1  0  0  0  0  0  0  0  0  0
   13.7481  -16.6784   23.9309 C   0  0  0  0  0  0  0  0  0  0  0  0
   14.0997  -15.6925   22.4674 S   0  0  0  0  0  0  0  0  0  0  0  0
   12.1114  -17.9024   25.2125 C   0  0  0  0  0  0  0  0  0  0  0  0
   12.8289  -18.9969   25.6275 O   0  0  0  0  0  0  0  0  0  0  0  0
   11.2181  -17.4732   25.9828 O   0  0  0  0  0  0  0  0  0  0  0  0
  2  1  1  6
  2 10  1  0
  3  2  1  0
  4  3  1  0
  5  4  2  0
  6  5  1  0
  7  6  2  0
  7  8  1  0
  8  9  2  0
  9  4  1  0
 10 11  2  0
 12 10  1  0
 12 13  1  0
 13 14  1  1
 14 15  1  0
 16 17  2  0
 16 13  1  0
 18 16  1  0
 19 18  1  0
 19 20  1  1
 21 20  1  0
 22 19  1  0
 23 22  1  0
 24 22  2  0
M  END
$$$$
