FCC.pdb
     RDKit          3D

 24 24  0  0  1  0  0  0  0  0999 V2000
   11.7693  -17.0960   26.4096 N   0  0  0  0  0  0  0  0  0  0  0  0
   10.5930  -16.6448   25.6461 C   0  0  1  0  0  0  0  0  0  0  0  0
   10.3755  -15.2041   26.0487 C   0  0  0  0  0  0  0  0  0  0  0  0
   10.4383  -14.9810   27.5114 C   0  0  0  0  0  0  0  0  0  0  0  0
   10.5497  -16.0064   28.4246 C   0  0  0  0  0  0  0  0  0  0  0  0
   10.6147  -15.7760   29.7895 C   0  0  0  0  0  0  0  0  0  0  0  0
   10.5684  -14.4852   30.2842 C   0  0  0  0  0  0  0  0  0  0  0  0
   10.4574  -13.4541   29.3883 C   0  0  0  0  0  0  0  0  0  0  0  0
   10.3943  -13.6946   28.0431 C   0  0  0  0  0  0  0  0  0  0  0  0
   10.8738  -16.6986   24.1920 C   0  0  0  0  0  0  0  0  0  0  0  0
   12.0280  -16.4722   23.7228 O   0  0  0  0  0  0  0  0  0  0  0  0
    9.8787  -17.0050   23.2255 N   0  0  0  0  0  0  0  0  0  0  0  0
   10.2200  -17.1186   21.7931 C   0  0  1  0  0  0  0  0  0  0  0  0
   11.0547  -18.3848   21.7001 C   0  0  0  0  0  0  0  0  0  0  0  0
   11.4920  -18.8465   20.0297 S   0  0  0  0  0  0  0  0  0  0  0  0
    9.0146  -17.1914   20.9739 C   0  0  0  0  0  0  0  0  0  0  0  0
    8.1756  -18.1326   21.0988 O   0  0  0  0  0  0  0  0  0  0  0  0
    8.7247  -16.2093   19.9994 N   0  0  0  0  0  0  0  0  0  0  0  0
    7.4319  -16.1798   19.3101 C   0  0  1  0  0  0  0  0  0  0  0  0
    6.8718  -14.7711   19.2859 C   0  0  0  0  0  0  0  0  0  0  0  0
    6.8422  -14.0324   20.9263 S   0  0  0  0  0  0  0  0  0  0  0  0
    7.5998  -16.6133   17.9090 C   0  0  0  0  0  0  0  0  0  0  0  0
    8.8092  -16.9280   17.3403 O   0  0  0  0  0  0  0  0  0  0  0  0
    6.5804  -16.7037   17.1822 O   0  0  0  0  0  0  0  0  0  0  0  0
  2  1  1  1
  2 10  1  0
  3  2  1  0
  4  3  1  0
  5  4  2  0
  6  5  1  0
  7  6  2  0
  7  8  1  0
  8  9  2  0
  9  4  1  0
 10 11  2  0
 12 10  1  0
 12 13  1  0
 13 14  1  1
 14 15  1  0
 16 17  2  0
 16 13  1  0
 18 16  1  0
 19 18  1  0
 19 20  1  6
 21 20  1  0
 22 19  1  0
 23 22  1  0
 24 22  2  0
M  END
$$$$
