FCC.pdb
     RDKit          3D

 24 24  0  0  1  0  0  0  0  0999 V2000
    6.5687  -18.1060   25.9312 N   0  0  0  0  0  0  0  0  0  0  0  0
    6.7400  -16.7145   25.4788 C   0  0  1  0  0  0  0  0  0  0  0  0
    7.3981  -15.9908   26.6314 C   0  0  0  0  0  0  0  0  0  0  0  0
    7.1032  -14.5400   26.6668 C   0  0  0  0  0  0  0  0  0  0  0  0
    5.9534  -13.9931   26.1408 C   0  0  0  0  0  0  0  0  0  0  0  0
    5.6925  -12.6330   26.1908 C   0  0  0  0  0  0  0  0  0  0  0  0
    6.5964  -11.7685   26.7813 C   0  0  0  0  0  0  0  0  0  0  0  0
    7.7454  -12.2973   27.3090 C   0  0  0  0  0  0  0  0  0  0  0  0
    7.9912  -13.6418   27.2535 C   0  0  0  0  0  0  0  0  0  0  0  0
    7.6420  -16.6644   24.3042 C   0  0  0  0  0  0  0  0  0  0  0  0
    8.5729  -17.5064   24.1366 O   0  0  0  0  0  0  0  0  0  0  0  0
    7.5307  -15.6775   23.2882 N   0  0  0  0  0  0  0  0  0  0  0  0
    8.4541  -15.6657   22.1358 C   0  0  1  0  0  0  0  0  0  0  0  0
    7.8177  -14.7022   21.1481 C   0  0  0  0  0  0  0  0  0  0  0  0
    6.2212  -15.2306   20.5426 S   0  0  0  0  0  0  0  0  0  0  0  0
    9.7890  -15.2380   22.5413 C   0  0  0  0  0  0  0  0  0  0  0  0
    9.9681  -14.3735   23.4502 O   0  0  0  0  0  0  0  0  0  0  0  0
   10.9500  -15.7724   21.9374 N   0  0  0  0  0  0  0  0  0  0  0  0
   12.2048  -15.9016   22.6832 C   0  0  1  0  0  0  0  0  0  0  0  0
   12.0333  -16.8466   23.8564 C   0  0  0  0  0  0  0  0  0  0  0  0
   13.3840  -16.7034   25.0364 S   0  0  0  0  0  0  0  0  0  0  0  0
   13.2523  -16.4662   21.8097 C   0  0  0  0  0  0  0  0  0  0  0  0
   14.5628  -16.0569   21.8159 O   0  0  0  0  0  0  0  0  0  0  0  0
   12.9373  -17.3781   21.0068 O   0  0  0  0  0  0  0  0  0  0  0  0
  2  1  1  1
  2 10  1  0
  3  2  1  0
  4  3  1  0
  5  4  2  0
  6  5  1  0
  7  6  2  0
  7  8  1  0
  8  9  2  0
  9  4  1  0
 10 11  2  0
 12 10  1  0
 12 13  1  0
 13 14  1  6
 14 15  1  0
 16 17  2  0
 16 13  1  0
 18 16  1  0
 19 18  1  0
 19 20  1  1
 21 20  1  0
 22 19  1  0
 23 22  1  0
 24 22  2  0
M  END
$$$$
