DHQ.pdb
     RDKit          3D

 28 28  0  0  1  0  0  0  0  0999 V2000
    8.4043  -17.4892   19.9485 N   0  0  0  0  0  0  0  0  0  0  0  0
    9.2763  -16.3275   19.9664 C   0  0  1  0  0  0  0  0  0  0  0  0
    8.7484  -15.3610   18.9211 C   0  0  0  0  0  0  0  0  0  0  0  0
    8.7852  -16.0193   17.5927 C   0  0  0  0  0  0  0  0  0  0  0  0
    9.0715  -17.2351   17.4820 O   0  0  0  0  0  0  0  0  0  0  0  0
    9.3239  -15.7202   21.3090 C   0  0  0  0  0  0  0  0  0  0  0  0
   10.0424  -14.7186   21.5161 O   0  0  0  0  0  0  0  0  0  0  0  0
    8.5025  -15.3040   16.4270 O   0  0  0  0  0  0  0  0  0  0  0  0
    8.5687  -16.2519   22.3836 N   0  0  0  0  0  0  0  0  0  0  0  0
    8.6099  -15.6929   23.7106 C   0  0  1  0  0  0  0  0  0  0  0  0
    7.2294  -15.6665   24.3005 C   0  0  0  0  0  0  0  0  0  0  0  0
    6.8277  -14.2987   24.7294 C   0  0  0  0  0  0  0  0  0  0  0  0
    7.5480  -13.1224   24.6000 C   0  0  0  0  0  0  0  0  0  0  0  0
    6.8493  -12.1056   25.0966 N   0  0  0  0  0  0  0  0  0  0  0  0
    5.6805  -12.6071   25.5483 C   0  0  0  0  0  0  0  0  0  0  0  0
    5.6710  -13.9348   25.3247 N   0  0  0  0  0  0  0  0  0  0  0  0
    9.5658  -16.4295   24.5851 C   0  0  0  0  0  0  0  0  0  0  0  0
    9.9557  -17.5767   24.1771 O   0  0  0  0  0  0  0  0  0  0  0  0
   11.3784  -16.1639   30.4575 N   0  0  0  0  0  0  0  0  0  0  0  0
   10.6083  -15.1208   29.8729 C   0  0  0  0  0  0  0  0  0  0  0  0
    9.8438  -14.4707   30.6552 O   0  0  0  0  0  0  0  0  0  0  0  0
   10.6950  -14.8005   28.4278 C   0  0  0  0  0  0  0  0  0  0  0  0
   11.6021  -15.6457   27.6223 C   0  0  0  0  0  0  0  0  0  0  0  0
   11.0259  -16.5885   26.6357 C   0  0  2  0  0  0  0  0  0  0  0  0
   10.0202  -15.8912   25.8040 N   0  0  0  0  0  0  0  0  0  0  0  0
   10.5389  -17.8848   27.0723 C   0  0  0  0  0  0  0  0  0  0  0  0
    9.2939  -18.1240   26.9918 O   0  0  0  0  0  0  0  0  0  0  0  0
   11.3307  -18.8957   27.5685 O   0  0  0  0  0  0  0  0  0  0  0  0
  2  1  1  1
  3  2  1  0
  3  4  1  0
  4  5  2  0
  6  2  1  0
  6  7  2  0
  8  4  1  0
  9  6  1  0
 10  9  1  0
 10 11  1  1
 11 12  1  0
 12 16  1  0
 13 12  2  0
 13 14  1  0
 14 15  1  0
 16 15  2  0
 17 10  1  0
 18 17  2  0
 20 21  2  0
 20 19  1  0
 22 20  1  0
 23 22  1  0
 24 23  1  1
 24 25  1  0
 25 17  1  0
 26 28  1  0
 26 24  1  0
 27 26  2  0
M  END
$$$$
