DHQ.pdb
     RDKit          3D

 28 28  0  0  1  0  0  0  0  0999 V2000
   12.5169  -16.5778   19.4387 N   0  0  0  0  0  0  0  0  0  0  0  0
   12.8890  -15.2651   19.9374 C   0  0  1  0  0  0  0  0  0  0  0  0
   13.2830  -14.4288   18.7328 C   0  0  0  0  0  0  0  0  0  0  0  0
   14.5435  -14.9651   18.1644 C   0  0  0  0  0  0  0  0  0  0  0  0
   15.2641  -15.7536   18.8210 O   0  0  0  0  0  0  0  0  0  0  0  0
   11.7844  -14.6539   20.6990 C   0  0  0  0  0  0  0  0  0  0  0  0
   11.9153  -13.5063   21.1765 O   0  0  0  0  0  0  0  0  0  0  0  0
   14.9640  -14.6070   16.8817 O   0  0  0  0  0  0  0  0  0  0  0  0
   10.5649  -15.3446   20.9078 N   0  0  0  0  0  0  0  0  0  0  0  0
    9.4506  -14.7556   21.6054 C   0  0  1  0  0  0  0  0  0  0  0  0
    8.1695  -15.0750   20.8904 C   0  0  0  0  0  0  0  0  0  0  0  0
    8.1563  -14.5472   19.4985 C   0  0  0  0  0  0  0  0  0  0  0  0
    8.0372  -13.2283   19.0916 C   0  0  0  0  0  0  0  0  0  0  0  0
    8.0758  -13.1579   17.7641 N   0  0  0  0  0  0  0  0  0  0  0  0
    8.2191  -14.4176   17.3013 C   0  0  0  0  0  0  0  0  0  0  0  0
    8.2672  -15.2559   18.3539 N   0  0  0  0  0  0  0  0  0  0  0  0
    9.4062  -15.1897   23.0304 C   0  0  0  0  0  0  0  0  0  0  0  0
   10.2096  -16.1222   23.3757 O   0  0  0  0  0  0  0  0  0  0  0  0
    5.3293  -12.6520   27.2441 N   0  0  0  0  0  0  0  0  0  0  0  0
    6.5794  -12.0807   26.8783 C   0  0  0  0  0  0  0  0  0  0  0  0
    6.7286  -10.8392   27.1142 O   0  0  0  0  0  0  0  0  0  0  0  0
    7.6576  -12.8891   26.2602 C   0  0  0  0  0  0  0  0  0  0  0  0
    7.3717  -14.3273   26.0700 C   0  0  0  0  0  0  0  0  0  0  0  0
    8.3336  -15.1617   25.3132 C   0  0  2  0  0  0  0  0  0  0  0  0
    8.5221  -14.6033   23.9560 N   0  0  0  0  0  0  0  0  0  0  0  0
    8.1633  -16.6030   25.2693 C   0  0  0  0  0  0  0  0  0  0  0  0
    7.4861  -17.1054   24.3191 O   0  0  0  0  0  0  0  0  0  0  0  0
    8.6904  -17.4852   26.1851 O   0  0  0  0  0  0  0  0  0  0  0  0
  2  1  1  6
  3  2  1  0
  3  4  1  0
  4  5  2  0
  6  2  1  0
  6  7  2  0
  8  4  1  0
  9  6  1  0
 10  9  1  0
 10 11  1  6
 11 12  1  0
 12 16  1  0
 13 12  2  0
 13 14  1  0
 14 15  1  0
 16 15  2  0
 17 10  1  0
 18 17  2  0
 20 21  2  0
 20 19  1  0
 22 20  1  0
 23 22  1  0
 24 23  1  6
 24 25  1  0
 25 17  1  0
 26 28  1  0
 26 24  1  0
 27 26  2  0
M  END
$$$$
