DHQ.pdb
     RDKit          3D

 28 28  0  0  1  0  0  0  0  0999 V2000
   13.1475  -14.3965   18.1700 N   0  0  0  0  0  0  0  0  0  0  0  0
   13.4139  -15.1812   19.3632 C   0  0  1  0  0  0  0  0  0  0  0  0
   14.8629  -14.9326   19.7427 C   0  0  0  0  0  0  0  0  0  0  0  0
   15.7405  -15.4660   18.6727 C   0  0  0  0  0  0  0  0  0  0  0  0
   15.5360  -16.5981   18.1741 O   0  0  0  0  0  0  0  0  0  0  0  0
   12.4866  -14.8233   20.4519 C   0  0  0  0  0  0  0  0  0  0  0  0
   12.7310  -13.8385   21.1818 O   0  0  0  0  0  0  0  0  0  0  0  0
   16.8198  -14.7227   18.1901 O   0  0  0  0  0  0  0  0  0  0  0  0
   11.3127  -15.5785   20.6959 N   0  0  0  0  0  0  0  0  0  0  0  0
   10.4605  -15.3401   21.8326 C   0  0  1  0  0  0  0  0  0  0  0  0
    9.0236  -15.5503   21.4509 C   0  0  0  0  0  0  0  0  0  0  0  0
    8.5233  -14.4862   20.5380 C   0  0  0  0  0  0  0  0  0  0  0  0
    9.2146  -13.3865   20.0564 C   0  0  0  0  0  0  0  0  0  0  0  0
    8.4279  -12.6696   19.2590 N   0  0  0  0  0  0  0  0  0  0  0  0
    7.2306  -13.2910   19.2157 C   0  0  0  0  0  0  0  0  0  0  0  0
    7.2918  -14.3899   19.9912 N   0  0  0  0  0  0  0  0  0  0  0  0
   10.8488  -16.1883   22.9949 C   0  0  0  0  0  0  0  0  0  0  0  0
   11.5542  -17.2245   22.7438 O   0  0  0  0  0  0  0  0  0  0  0  0
   10.0369  -14.6379   29.2164 N   0  0  0  0  0  0  0  0  0  0  0  0
   10.1660  -13.8888   28.0142 C   0  0  0  0  0  0  0  0  0  0  0  0
   10.0266  -12.6277   28.1116 O   0  0  0  0  0  0  0  0  0  0  0  0
   10.4552  -14.5403   26.7141 C   0  0  0  0  0  0  0  0  0  0  0  0
   10.5424  -16.0163   26.7255 C   0  0  0  0  0  0  0  0  0  0  0  0
   10.8040  -16.7348   25.4569 C   0  0  2  0  0  0  0  0  0  0  0  0
   10.4588  -15.8674   24.3090 N   0  0  0  0  0  0  0  0  0  0  0  0
   10.2946  -18.0815   25.2696 C   0  0  0  0  0  0  0  0  0  0  0  0
    9.4502  -18.2876   24.3430 O   0  0  0  0  0  0  0  0  0  0  0  0
   10.6633  -19.1733   26.0225 O   0  0  0  0  0  0  0  0  0  0  0  0
  2  1  1  6
  3  2  1  0
  3  4  1  0
  4  5  2  0
  6  2  1  0
  6  7  2  0
  8  4  1  0
  9  6  1  0
 10  9  1  0
 10 11  1  6
 11 12  1  0
 12 16  1  0
 13 12  2  0
 13 14  1  0
 14 15  1  0
 16 15  2  0
 17 10  1  0
 18 17  2  0
 20 21  2  0
 20 19  1  0
 22 20  1  0
 23 22  1  0
 24 23  1  1
 24 25  1  0
 25 17  1  0
 26 28  1  0
 26 24  1  0
 27 26  2  0
M  END
$$$$
