DHQ.pdb
     RDKit          3D

 28 28  0  0  1  0  0  0  0  0999 V2000
   13.4200  -14.3234   17.8842 N   0  0  0  0  0  0  0  0  0  0  0  0
   12.8496  -15.5262   18.4657 C   0  0  1  0  0  0  0  0  0  0  0  0
   14.0028  -16.4740   18.7435 C   0  0  0  0  0  0  0  0  0  0  0  0
   14.6327  -16.8578   17.4568 C   0  0  0  0  0  0  0  0  0  0  0  0
   13.9352  -17.2058   16.4746 O   0  0  0  0  0  0  0  0  0  0  0  0
   12.0828  -15.2138   19.6855 C   0  0  0  0  0  0  0  0  0  0  0  0
   12.5737  -14.4641   20.5568 O   0  0  0  0  0  0  0  0  0  0  0  0
   16.0206  -16.8431   17.3025 O   0  0  0  0  0  0  0  0  0  0  0  0
   10.7889  -15.7510   19.8984 N   0  0  0  0  0  0  0  0  0  0  0  0
   10.0120  -15.4571   21.0753 C   0  0  1  0  0  0  0  0  0  0  0  0
    8.5779  -15.2207   20.6989 C   0  0  0  0  0  0  0  0  0  0  0  0
    8.4345  -14.1461   19.6787 C   0  0  0  0  0  0  0  0  0  0  0  0
    8.2829  -12.7860   19.8937 C   0  0  0  0  0  0  0  0  0  0  0  0
    8.1953  -12.1496   18.7292 N   0  0  0  0  0  0  0  0  0  0  0  0
    8.2885  -13.0811   17.7570 C   0  0  0  0  0  0  0  0  0  0  0  0
    8.4329  -14.2885   18.3354 N   0  0  0  0  0  0  0  0  0  0  0  0
   10.1402  -16.5333   22.0982 C   0  0  0  0  0  0  0  0  0  0  0  0
   10.5817  -17.6635   21.6955 O   0  0  0  0  0  0  0  0  0  0  0  0
   14.1204  -19.5412   25.9392 N   0  0  0  0  0  0  0  0  0  0  0  0
   13.7936  -18.7771   24.7850 C   0  0  0  0  0  0  0  0  0  0  0  0
   14.7625  -18.2141   24.1820 O   0  0  0  0  0  0  0  0  0  0  0  0
   12.3976  -18.6471   24.3027 C   0  0  0  0  0  0  0  0  0  0  0  0
   11.7969  -17.2988   24.3894 C   0  0  0  0  0  0  0  0  0  0  0  0
   10.3283  -17.1695   24.5318 C   0  0  2  0  0  0  0  0  0  0  0  0
    9.7921  -16.3198   23.4455 N   0  0  0  0  0  0  0  0  0  0  0  0
    9.7548  -16.8053   25.8151 C   0  0  0  0  0  0  0  0  0  0  0  0
   10.0733  -17.4882   26.8379 O   0  0  0  0  0  0  0  0  0  0  0  0
    8.8846  -15.7584   26.0186 O   0  0  0  0  0  0  0  0  0  0  0  0
  2  1  1  1
  3  2  1  0
  3  4  1  0
  4  5  2  0
  6  2  1  0
  6  7  2  0
  8  4  1  0
  9  6  1  0
 10  9  1  0
 10 11  1  6
 11 12  1  0
 12 16  1  0
 13 12  2  0
 13 14  1  0
 14 15  1  0
 16 15  2  0
 17 10  1  0
 18 17  2  0
 20 21  2  0
 20 19  1  0
 22 20  1  0
 23 22  1  0
 24 23  1  1
 24 25  1  0
 25 17  1  0
 26 28  1  0
 26 24  1  0
 27 26  2  0
M  END
$$$$
