DHQ.pdb
     RDKit          3D

 28 28  0  0  1  0  0  0  0  0999 V2000
   10.9696  -18.2542   19.0558 N   0  0  0  0  0  0  0  0  0  0  0  0
   11.8935  -17.1961   19.4259 C   0  0  1  0  0  0  0  0  0  0  0  0
   12.1998  -16.4128   18.1617 C   0  0  0  0  0  0  0  0  0  0  0  0
   12.8541  -17.3140   17.1822 C   0  0  0  0  0  0  0  0  0  0  0  0
   13.6440  -18.2122   17.5583 O   0  0  0  0  0  0  0  0  0  0  0  0
   11.3248  -16.3409   20.4836 C   0  0  0  0  0  0  0  0  0  0  0  0
   11.9712  -15.3584   20.9071 O   0  0  0  0  0  0  0  0  0  0  0  0
   12.6095  -17.1877   15.8131 O   0  0  0  0  0  0  0  0  0  0  0  0
   10.0499  -16.6099   21.0405 N   0  0  0  0  0  0  0  0  0  0  0  0
    9.4775  -15.8059   22.0898 C   0  0  1  0  0  0  0  0  0  0  0  0
    8.0293  -15.5365   21.7993 C   0  0  0  0  0  0  0  0  0  0  0  0
    7.8433  -14.7607   20.5424 C   0  0  0  0  0  0  0  0  0  0  0  0
    7.9109  -13.3872   20.3745 C   0  0  0  0  0  0  0  0  0  0  0  0
    7.6961  -13.0749   19.0998 N   0  0  0  0  0  0  0  0  0  0  0  0
    7.4893  -14.2309   18.4347 C   0  0  0  0  0  0  0  0  0  0  0  0
    7.5788  -15.2492   19.3111 N   0  0  0  0  0  0  0  0  0  0  0  0
    9.6600  -16.4400   23.4261 C   0  0  0  0  0  0  0  0  0  0  0  0
    9.8918  -17.6971   23.4422 O   0  0  0  0  0  0  0  0  0  0  0  0
   10.0332  -13.1387   28.9590 N   0  0  0  0  0  0  0  0  0  0  0  0
   10.3164  -14.4799   29.3384 C   0  0  0  0  0  0  0  0  0  0  0  0
   10.5668  -14.6825   30.5694 O   0  0  0  0  0  0  0  0  0  0  0  0
   10.3138  -15.5883   28.3535 C   0  0  0  0  0  0  0  0  0  0  0  0
   10.0136  -15.2203   26.9533 C   0  0  0  0  0  0  0  0  0  0  0  0
    9.9117  -16.2876   25.9313 C   0  0  2  0  0  0  0  0  0  0  0  0
    9.5810  -15.6935   24.6171 N   0  0  0  0  0  0  0  0  0  0  0  0
    9.1044  -17.4658   26.1931 C   0  0  0  0  0  0  0  0  0  0  0  0
    7.9542  -17.5442   25.6597 O   0  0  0  0  0  0  0  0  0  0  0  0
    9.4932  -18.5260   26.9804 O   0  0  0  0  0  0  0  0  0  0  0  0
  2  1  1  6
  3  2  1  0
  3  4  1  0
  4  5  2  0
  6  2  1  0
  6  7  2  0
  8  4  1  0
  9  6  1  0
 10  9  1  0
 10 11  1  6
 11 12  1  0
 12 16  1  0
 13 12  2  0
 13 14  1  0
 14 15  1  0
 16 15  2  0
 17 10  1  0
 18 17  2  0
 20 21  2  0
 20 19  1  0
 22 20  1  0
 23 22  1  0
 24 23  1  1
 24 25  1  0
 25 17  1  0
 26 28  1  0
 26 24  1  0
 27 26  2  0
M  END
$$$$
