DHQ.pdb
     RDKit          3D

 28 28  0  0  1  0  0  0  0  0999 V2000
    1.7335  -24.9105   21.4422 N   0  0  0  0  0  0  0  0  0  0  0  0
    1.8900  -23.7442   22.2938 C   0  0  1  0  0  0  0  0  0  0  0  0
    1.0256  -23.9723   23.5211 C   0  0  0  0  0  0  0  0  0  0  0  0
   -0.3928  -23.7251   23.1651 C   0  0  0  0  0  0  0  0  0  0  0  0
   -0.7073  -22.8220   22.3541 O   0  0  0  0  0  0  0  0  0  0  0  0
    3.3057  -23.5296   22.6452 C   0  0  0  0  0  0  0  0  0  0  0  0
    4.1030  -24.4922   22.6404 O   0  0  0  0  0  0  0  0  0  0  0  0
   -1.4187  -24.4908   23.7233 O   0  0  0  0  0  0  0  0  0  0  0  0
    3.7899  -22.2446   22.9949 N   0  0  0  0  0  0  0  0  0  0  0  0
    5.1691  -22.0019   23.3324 C   0  0  1  0  0  0  0  0  0  0  0  0
    5.6887  -20.8256   22.5573 C   0  0  0  0  0  0  0  0  0  0  0  0
    7.0829  -20.4716   22.9408 C   0  0  0  0  0  0  0  0  0  0  0  0
    7.4988  -19.4597   23.7907 C   0  0  0  0  0  0  0  0  0  0  0  0
    8.8252  -19.4656   23.8881 N   0  0  0  0  0  0  0  0  0  0  0  0
    9.2782  -20.4713   23.1103 C   0  0  0  0  0  0  0  0  0  0  0  0
    8.2209  -21.0778   22.5382 N   0  0  0  0  0  0  0  0  0  0  0  0
    5.3483  -21.8140   24.7999 C   0  0  0  0  0  0  0  0  0  0  0  0
    4.5608  -20.9887   25.3771 O   0  0  0  0  0  0  0  0  0  0  0  0
    6.8433  -24.1670   30.4077 N   0  0  0  0  0  0  0  0  0  0  0  0
    7.2419  -24.9664   29.3009 C   0  0  0  0  0  0  0  0  0  0  0  0
    7.9567  -25.9859   29.5632 O   0  0  0  0  0  0  0  0  0  0  0  0
    6.8407  -24.6353   27.9124 C   0  0  0  0  0  0  0  0  0  0  0  0
    6.0123  -23.4226   27.7410 C   0  0  0  0  0  0  0  0  0  0  0  0
    6.5526  -22.2816   26.9663 C   0  0  2  0  0  0  0  0  0  0  0  0
    6.3372  -22.5103   25.5204 N   0  0  0  0  0  0  0  0  0  0  0  0
    7.8979  -21.8017   27.2275 C   0  0  0  0  0  0  0  0  0  0  0  0
    8.8002  -22.0233   26.3612 O   0  0  0  0  0  0  0  0  0  0  0  0
    8.2804  -21.1084   28.3535 O   0  0  0  0  0  0  0  0  0  0  0  0
  2  1  1  6
  3  2  1  0
  3  4  1  0
  4  5  2  0
  6  2  1  0
  6  7  2  0
  8  4  1  0
  9  6  1  0
 10  9  1  0
 10 11  1  6
 11 12  1  0
 12 16  1  0
 13 12  2  0
 13 14  1  0
 14 15  1  0
 16 15  2  0
 17 10  1  0
 18 17  2  0
 20 21  2  0
 20 19  1  0
 22 20  1  0
 23 22  1  0
 24 23  1  1
 24 25  1  0
 25 17  1  0
 26 28  1  0
 26 24  1  0
 27 26  2  0
M  END
$$$$
