DHQ.pdb
     RDKit          3D

 28 28  0  0  1  0  0  0  0  0999 V2000
   16.3698  -19.4110   12.8530 N   0  0  0  0  0  0  0  0  0  0  0  0
   15.6921  -20.5060   13.5253 C   0  0  1  0  0  0  0  0  0  0  0  0
   16.7547  -21.5272   13.8908 C   0  0  0  0  0  0  0  0  0  0  0  0
   17.4050  -22.0125   12.6493 C   0  0  0  0  0  0  0  0  0  0  0  0
   18.3998  -21.4206   12.1674 O   0  0  0  0  0  0  0  0  0  0  0  0
   14.9537  -20.0270   14.7080 C   0  0  0  0  0  0  0  0  0  0  0  0
   14.6935  -18.8107   14.8313 O   0  0  0  0  0  0  0  0  0  0  0  0
   16.9278  -23.1423   11.9814 O   0  0  0  0  0  0  0  0  0  0  0  0
   14.5291  -20.9214   15.7218 N   0  0  0  0  0  0  0  0  0  0  0  0
   13.7136  -20.5024   16.8328 C   0  0  1  0  0  0  0  0  0  0  0  0
   12.3551  -21.1354   16.7409 C   0  0  0  0  0  0  0  0  0  0  0  0
   11.4852  -20.4562   15.7418 C   0  0  0  0  0  0  0  0  0  0  0  0
   11.8554  -19.9185   14.5199 C   0  0  0  0  0  0  0  0  0  0  0  0
   10.7915  -19.4043   13.9096 N   0  0  0  0  0  0  0  0  0  0  0  0
    9.7314  -19.6015   14.7212 C   0  0  0  0  0  0  0  0  0  0  0  0
   10.1550  -20.2382   15.8294 N   0  0  0  0  0  0  0  0  0  0  0  0
   14.3705  -20.8009   18.1368 C   0  0  0  0  0  0  0  0  0  0  0  0
   14.7198  -22.0131   18.3436 O   0  0  0  0  0  0  0  0  0  0  0  0
   12.4042  -23.7006   22.7043 N   0  0  0  0  0  0  0  0  0  0  0  0
   12.4276  -22.2797   22.7650 C   0  0  0  0  0  0  0  0  0  0  0  0
   11.3707  -21.7106   23.1873 O   0  0  0  0  0  0  0  0  0  0  0  0
   13.6229  -21.4995   22.3642 C   0  0  0  0  0  0  0  0  0  0  0  0
   13.6533  -21.0184   20.9664 C   0  0  0  0  0  0  0  0  0  0  0  0
   14.7474  -20.1177   20.5354 C   0  0  2  0  0  0  0  0  0  0  0  0
   14.5971  -19.7980   19.0986 N   0  0  0  0  0  0  0  0  0  0  0  0
   16.1244  -20.4450   20.8595 C   0  0  0  0  0  0  0  0  0  0  0  0
   16.6879  -19.8230   21.8131 O   0  0  0  0  0  0  0  0  0  0  0  0
   16.8800  -21.3955   20.2110 O   0  0  0  0  0  0  0  0  0  0  0  0
  2  1  1  1
  3  2  1  0
  3  4  1  0
  4  5  2  0
  6  2  1  0
  6  7  2  0
  8  4  1  0
  9  6  1  0
 10  9  1  0
 10 11  1  1
 11 12  1  0
 12 16  1  0
 13 12  2  0
 13 14  1  0
 14 15  1  0
 16 15  2  0
 17 10  1  0
 18 17  2  0
 20 21  2  0
 20 19  1  0
 22 20  1  0
 23 22  1  0
 24 23  1  6
 24 25  1  0
 25 17  1  0
 26 28  1  0
 26 24  1  0
 27 26  2  0
M  END
$$$$
