DHQ.pdb
     RDKit          3D

 28 28  0  0  1  0  0  0  0  0999 V2000
   13.8922  -15.5695   17.4854 N   0  0  0  0  0  0  0  0  0  0  0  0
   12.8013  -16.4757   17.8002 C   0  0  1  0  0  0  0  0  0  0  0  0
   13.3808  -17.8791   17.8137 C   0  0  0  0  0  0  0  0  0  0  0  0
   13.8809  -18.2078   16.4567 C   0  0  0  0  0  0  0  0  0  0  0  0
   13.0873  -18.4093   15.5071 O   0  0  0  0  0  0  0  0  0  0  0  0
   12.1728  -16.1232   19.0863 C   0  0  0  0  0  0  0  0  0  0  0  0
   12.8782  -15.7210   20.0366 O   0  0  0  0  0  0  0  0  0  0  0  0
   15.2499  -18.3028   16.1979 O   0  0  0  0  0  0  0  0  0  0  0  0
   10.7726  -16.2329   19.2750 N   0  0  0  0  0  0  0  0  0  0  0  0
   10.1359  -15.9458   20.5349 C   0  0  1  0  0  0  0  0  0  0  0  0
    8.6823  -15.6384   20.3180 C   0  0  0  0  0  0  0  0  0  0  0  0
    8.4785  -14.3118   19.6741 C   0  0  0  0  0  0  0  0  0  0  0  0
    9.4443  -13.3896   19.3053 C   0  0  0  0  0  0  0  0  0  0  0  0
    8.8685  -12.3267   18.7508 N   0  0  0  0  0  0  0  0  0  0  0  0
    7.5369  -12.5467   18.7542 C   0  0  0  0  0  0  0  0  0  0  0  0
    7.3044  -13.7490   19.3140 N   0  0  0  0  0  0  0  0  0  0  0  0
   10.3217  -17.0591   21.5080 C   0  0  0  0  0  0  0  0  0  0  0  0
   10.3561  -18.2444   21.0301 O   0  0  0  0  0  0  0  0  0  0  0  0
   13.7195  -20.2849   21.7877 N   0  0  0  0  0  0  0  0  0  0  0  0
   13.9793  -20.1274   23.1773 C   0  0  0  0  0  0  0  0  0  0  0  0
   14.7887  -20.9568   23.7026 O   0  0  0  0  0  0  0  0  0  0  0  0
   13.3463  -19.0488   23.9737 C   0  0  0  0  0  0  0  0  0  0  0  0
   12.4733  -18.1131   23.2331 C   0  0  0  0  0  0  0  0  0  0  0  0
   11.1383  -17.7813   23.7826 C   0  0  2  0  0  0  0  0  0  0  0  0
   10.4530  -16.8212   22.8894 N   0  0  0  0  0  0  0  0  0  0  0  0
   11.0054  -17.3906   25.1747 C   0  0  0  0  0  0  0  0  0  0  0  0
   10.6909  -16.1887   25.4404 O   0  0  0  0  0  0  0  0  0  0  0  0
   11.1888  -18.2322   26.2484 O   0  0  0  0  0  0  0  0  0  0  0  0
  2  1  1  1
  3  2  1  0
  3  4  1  0
  4  5  2  0
  6  2  1  0
  6  7  2  0
  8  4  1  0
  9  6  1  0
 10  9  1  0
 10 11  1  6
 11 12  1  0
 12 16  1  0
 13 12  2  0
 13 14  1  0
 14 15  1  0
 16 15  2  0
 17 10  1  0
 18 17  2  0
 20 21  2  0
 20 19  1  0
 22 20  1  0
 23 22  1  0
 24 23  1  6
 24 25  1  0
 25 17  1  0
 26 28  1  0
 26 24  1  0
 27 26  2  0
M  END
$$$$
