DHQ.pdb
     RDKit          3D

 28 28  0  0  1  0  0  0  0  0999 V2000
   10.2503  -16.8684   16.9991 N   0  0  0  0  0  0  0  0  0  0  0  0
   11.4971  -16.2305   16.6133 C   0  0  1  0  0  0  0  0  0  0  0  0
   11.2711  -15.6049   15.2484 C   0  0  0  0  0  0  0  0  0  0  0  0
   10.9775  -16.6784   14.2681 C   0  0  0  0  0  0  0  0  0  0  0  0
   11.8990  -17.2387   13.6284 O   0  0  0  0  0  0  0  0  0  0  0  0
   11.9167  -15.2350   17.6166 C   0  0  0  0  0  0  0  0  0  0  0  0
   12.9699  -14.5836   17.4473 O   0  0  0  0  0  0  0  0  0  0  0  0
    9.6664  -17.0958   14.0292 O   0  0  0  0  0  0  0  0  0  0  0  0
   11.1479  -14.9977   18.7831 N   0  0  0  0  0  0  0  0  0  0  0  0
   11.5912  -14.1232   19.8384 C   0  0  1  0  0  0  0  0  0  0  0  0
   10.6034  -13.0091   20.0318 C   0  0  0  0  0  0  0  0  0  0  0  0
    9.3196  -13.2672   19.3238 C   0  0  0  0  0  0  0  0  0  0  0  0
    9.0103  -14.3257   18.4853 C   0  0  0  0  0  0  0  0  0  0  0  0
    7.7584  -14.2101   18.0517 N   0  0  0  0  0  0  0  0  0  0  0  0
    7.2482  -13.0870   18.5992 C   0  0  0  0  0  0  0  0  0  0  0  0
    8.1960  -12.5187   19.3683 N   0  0  0  0  0  0  0  0  0  0  0  0
   11.8289  -14.8714   21.1053 C   0  0  0  0  0  0  0  0  0  0  0  0
   10.8064  -15.3914   21.6696 O   0  0  0  0  0  0  0  0  0  0  0  0
   12.7870  -18.1854   25.8369 N   0  0  0  0  0  0  0  0  0  0  0  0
   12.1870  -18.3821   24.5624 C   0  0  0  0  0  0  0  0  0  0  0  0
   10.9213  -18.5114   24.5431 O   0  0  0  0  0  0  0  0  0  0  0  0
   12.9917  -18.4274   23.3180 C   0  0  0  0  0  0  0  0  0  0  0  0
   12.8208  -17.2930   22.3851 C   0  0  0  0  0  0  0  0  0  0  0  0
   13.4088  -15.9781   22.7305 C   0  0  2  0  0  0  0  0  0  0  0  0
   13.1171  -15.0012   21.6581 N   0  0  0  0  0  0  0  0  0  0  0  0
   14.7948  -15.8940   23.1549 C   0  0  0  0  0  0  0  0  0  0  0  0
   15.6730  -15.5646   22.2981 O   0  0  0  0  0  0  0  0  0  0  0  0
   15.2418  -16.1398   24.4335 O   0  0  0  0  0  0  0  0  0  0  0  0
  2  1  1  1
  3  2  1  0
  3  4  1  0
  4  5  2  0
  6  2  1  0
  6  7  2  0
  8  4  1  0
  9  6  1  0
 10  9  1  0
 10 11  1  1
 11 12  1  0
 12 16  1  0
 13 12  2  0
 13 14  1  0
 14 15  1  0
 16 15  2  0
 17 10  1  0
 18 17  2  0
 20 21  2  0
 20 19  1  0
 22 20  1  0
 23 22  1  0
 24 23  1  6
 24 25  1  0
 25 17  1  0
 26 28  1  0
 26 24  1  0
 27 26  2  0
M  END
$$$$
