DHQ.pdb
     RDKit          3D

 28 28  0  0  1  0  0  0  0  0999 V2000
    9.8738  -18.4348   19.8727 N   0  0  0  0  0  0  0  0  0  0  0  0
   11.0397  -17.6624   20.2654 C   0  0  1  0  0  0  0  0  0  0  0  0
   11.8636  -17.4345   19.0105 C   0  0  0  0  0  0  0  0  0  0  0  0
   12.2873  -18.7475   18.4664 C   0  0  0  0  0  0  0  0  0  0  0  0
   11.7924  -19.1974   17.4058 O   0  0  0  0  0  0  0  0  0  0  0  0
   10.6453  -16.3951   20.9072 C   0  0  0  0  0  0  0  0  0  0  0  0
   11.5016  -15.5094   21.1187 O   0  0  0  0  0  0  0  0  0  0  0  0
   13.2495  -19.5206   19.1199 O   0  0  0  0  0  0  0  0  0  0  0  0
    9.3045  -16.1545   21.2973 N   0  0  0  0  0  0  0  0  0  0  0  0
    8.9041  -14.9628   22.0006 C   0  0  1  0  0  0  0  0  0  0  0  0
    7.6321  -14.4224   21.4137 C   0  0  0  0  0  0  0  0  0  0  0  0
    7.7984  -14.0141   19.9918 C   0  0  0  0  0  0  0  0  0  0  0  0
    8.2183  -12.7873   19.5042 C   0  0  0  0  0  0  0  0  0  0  0  0
    8.2464  -12.8131   18.1748 N   0  0  0  0  0  0  0  0  0  0  0  0
    7.8492  -14.0444   17.7907 C   0  0  0  0  0  0  0  0  0  0  0  0
    7.5785  -14.7686   18.8931 N   0  0  0  0  0  0  0  0  0  0  0  0
    8.7711  -15.2100   23.4642 C   0  0  0  0  0  0  0  0  0  0  0  0
    7.8544  -16.0217   23.8321 O   0  0  0  0  0  0  0  0  0  0  0  0
    5.6615  -11.7938   25.8512 N   0  0  0  0  0  0  0  0  0  0  0  0
    6.2013  -12.2587   27.0823 C   0  0  0  0  0  0  0  0  0  0  0  0
    5.6276  -11.8550   28.1439 O   0  0  0  0  0  0  0  0  0  0  0  0
    7.3679  -13.1726   27.1291 C   0  0  0  0  0  0  0  0  0  0  0  0
    8.0805  -13.3919   25.8522 C   0  0  0  0  0  0  0  0  0  0  0  0
    9.1937  -14.3678   25.8040 C   0  0  2  0  0  0  0  0  0  0  0  0
    9.6130  -14.5811   24.4011 N   0  0  0  0  0  0  0  0  0  0  0  0
    9.0827  -15.6281   26.5164 C   0  0  0  0  0  0  0  0  0  0  0  0
    8.8288  -16.6806   25.8519 O   0  0  0  0  0  0  0  0  0  0  0  0
    9.2397  -15.7793   27.8756 O   0  0  0  0  0  0  0  0  0  0  0  0
  2  1  1  6
  3  2  1  0
  3  4  1  0
  4  5  2  0
  6  2  1  0
  6  7  2  0
  8  4  1  0
  9  6  1  0
 10  9  1  0
 10 11  1  6
 11 12  1  0
 12 16  1  0
 13 12  2  0
 13 14  1  0
 14 15  1  0
 16 15  2  0
 17 10  1  0
 18 17  2  0
 20 21  2  0
 20 19  1  0
 22 20  1  0
 23 22  1  0
 24 23  1  6
 24 25  1  0
 25 17  1  0
 26 28  1  0
 26 24  1  0
 27 26  2  0
M  END
$$$$
