DHQ.pdb
     RDKit          3D

 28 28  0  0  1  0  0  0  0  0999 V2000
   12.1233  -16.3624   18.3147 N   0  0  0  0  0  0  0  0  0  0  0  0
   12.8078  -15.6059   19.3488 C   0  0  1  0  0  0  0  0  0  0  0  0
   13.3401  -14.3430   18.6952 C   0  0  0  0  0  0  0  0  0  0  0  0
   14.1610  -14.7178   17.5183 C   0  0  0  0  0  0  0  0  0  0  0  0
   14.9166  -15.7180   17.5499 O   0  0  0  0  0  0  0  0  0  0  0  0
   11.9042  -15.3085   20.4751 C   0  0  0  0  0  0  0  0  0  0  0  0
   12.2811  -14.5505   21.3947 O   0  0  0  0  0  0  0  0  0  0  0  0
   14.1164  -13.9674   16.3414 O   0  0  0  0  0  0  0  0  0  0  0  0
   10.6047  -15.8695   20.5431 N   0  0  0  0  0  0  0  0  0  0  0  0
    9.6922  -15.5820   21.6200 C   0  0  1  0  0  0  0  0  0  0  0  0
    8.3313  -15.2658   21.0701 C   0  0  0  0  0  0  0  0  0  0  0  0
    8.3847  -14.2367   19.9957 C   0  0  0  0  0  0  0  0  0  0  0  0
    8.1939  -12.8701   20.1186 C   0  0  0  0  0  0  0  0  0  0  0  0
    8.3298  -12.2845   18.9324 N   0  0  0  0  0  0  0  0  0  0  0  0
    8.6076  -13.2555   18.0371 C   0  0  0  0  0  0  0  0  0  0  0  0
    8.6397  -14.4359   18.6842 N   0  0  0  0  0  0  0  0  0  0  0  0
    9.6395  -16.6990   22.6052 C   0  0  0  0  0  0  0  0  0  0  0  0
    9.4939  -17.8785   22.1341 O   0  0  0  0  0  0  0  0  0  0  0  0
   12.5132  -20.3804   23.1305 N   0  0  0  0  0  0  0  0  0  0  0  0
   12.9458  -20.0608   24.4472 C   0  0  0  0  0  0  0  0  0  0  0  0
   13.7228  -20.8968   25.0098 O   0  0  0  0  0  0  0  0  0  0  0  0
   12.5203  -18.8148   25.1291 C   0  0  0  0  0  0  0  0  0  0  0  0
   11.6727  -17.8935   24.3423 C   0  0  0  0  0  0  0  0  0  0  0  0
   10.3701  -17.4580   24.8970 C   0  0  2  0  0  0  0  0  0  0  0  0
    9.7442  -16.4703   23.9904 N   0  0  0  0  0  0  0  0  0  0  0  0
   10.2795  -17.0312   26.2819 C   0  0  0  0  0  0  0  0  0  0  0  0
   10.6664  -17.8309   27.1900 O   0  0  0  0  0  0  0  0  0  0  0  0
    9.8069  -15.8071   26.6979 O   0  0  0  0  0  0  0  0  0  0  0  0
  2  1  1  6
  3  2  1  0
  3  4  1  0
  4  5  2  0
  6  2  1  0
  6  7  2  0
  8  4  1  0
  9  6  1  0
 10  9  1  0
 10 11  1  6
 11 12  1  0
 12 16  1  0
 13 12  2  0
 13 14  1  0
 14 15  1  0
 16 15  2  0
 17 10  1  0
 18 17  2  0
 20 21  2  0
 20 19  1  0
 22 20  1  0
 23 22  1  0
 24 23  1  6
 24 25  1  0
 25 17  1  0
 26 28  1  0
 26 24  1  0
 27 26  2  0
M  END
$$$$
