DHQ.pdb
     RDKit          3D

 28 28  0  0  1  0  0  0  0  0999 V2000
   13.3101  -16.2877   13.4508 N   0  0  0  0  0  0  0  0  0  0  0  0
   12.2512  -16.8207   14.2903 C   0  0  1  0  0  0  0  0  0  0  0  0
   12.7264  -18.1696   14.8002 C   0  0  0  0  0  0  0  0  0  0  0  0
   12.6156  -19.1653   13.7066 C   0  0  0  0  0  0  0  0  0  0  0  0
   11.7716  -19.0264   12.7898 O   0  0  0  0  0  0  0  0  0  0  0  0
   11.9294  -15.8941   15.3910 C   0  0  0  0  0  0  0  0  0  0  0  0
   12.8219  -15.1641   15.8737 O   0  0  0  0  0  0  0  0  0  0  0  0
   13.4478  -20.2861   13.6669 O   0  0  0  0  0  0  0  0  0  0  0  0
   10.6188  -15.8118   15.9235 N   0  0  0  0  0  0  0  0  0  0  0  0
   10.2915  -14.9764   17.0505 C   0  0  1  0  0  0  0  0  0  0  0  0
    8.8038  -14.7953   17.1413 C   0  0  0  0  0  0  0  0  0  0  0  0
    8.4106  -13.9488   18.3010 C   0  0  0  0  0  0  0  0  0  0  0  0
    9.2377  -13.3767   19.2538 C   0  0  0  0  0  0  0  0  0  0  0  0
    8.5124  -12.6834   20.1268 N   0  0  0  0  0  0  0  0  0  0  0  0
    7.2207  -12.7975   19.7526 C   0  0  0  0  0  0  0  0  0  0  0  0
    7.1628  -13.5644   18.6473 N   0  0  0  0  0  0  0  0  0  0  0  0
   10.8559  -15.5214   18.3175 C   0  0  0  0  0  0  0  0  0  0  0  0
   10.7515  -16.7823   18.5012 O   0  0  0  0  0  0  0  0  0  0  0  0
   16.0375  -13.0189   20.6840 N   0  0  0  0  0  0  0  0  0  0  0  0
   15.7970  -14.1059   21.5693 C   0  0  0  0  0  0  0  0  0  0  0  0
   16.6956  -14.3412   22.4389 O   0  0  0  0  0  0  0  0  0  0  0  0
   14.5605  -14.9203   21.4898 C   0  0  0  0  0  0  0  0  0  0  0  0
   13.5463  -14.4781   20.5089 C   0  0  0  0  0  0  0  0  0  0  0  0
   12.2859  -15.2449   20.3769 C   0  0  2  0  0  0  0  0  0  0  0  0
   11.4752  -14.6903   19.2703 N   0  0  0  0  0  0  0  0  0  0  0  0
   11.4686  -15.5014   21.5493 C   0  0  0  0  0  0  0  0  0  0  0  0
   12.0013  -16.0831   22.5451 O   0  0  0  0  0  0  0  0  0  0  0  0
   10.1426  -15.1535   21.6747 O   0  0  0  0  0  0  0  0  0  0  0  0
  2  1  1  6
  3  2  1  0
  3  4  1  0
  4  5  2  0
  6  2  1  0
  6  7  2  0
  8  4  1  0
  9  6  1  0
 10  9  1  0
 10 11  1  1
 11 12  1  0
 12 16  1  0
 13 12  2  0
 13 14  1  0
 14 15  1  0
 16 15  2  0
 17 10  1  0
 18 17  2  0
 20 21  2  0
 20 19  1  0
 22 20  1  0
 23 22  1  0
 24 23  1  1
 24 25  1  0
 25 17  1  0
 26 28  1  0
 26 24  1  0
 27 26  2  0
M  END
$$$$
