DHQ.pdb
     RDKit          3D

 28 28  0  0  1  0  0  0  0  0999 V2000
   14.5711  -14.9074   16.1482 N   0  0  0  0  0  0  0  0  0  0  0  0
   14.8678  -15.0095   17.5666 C   0  0  1  0  0  0  0  0  0  0  0  0
   16.1261  -14.1971   17.8157 C   0  0  0  0  0  0  0  0  0  0  0  0
   17.1993  -14.6806   16.9135 C   0  0  0  0  0  0  0  0  0  0  0  0
   17.2530  -15.8823   16.5596 O   0  0  0  0  0  0  0  0  0  0  0  0
   13.7332  -14.5380   18.3814 C   0  0  0  0  0  0  0  0  0  0  0  0
   13.9411  -13.8346   19.3935 O   0  0  0  0  0  0  0  0  0  0  0  0
   18.1809  -13.8114   16.4325 O   0  0  0  0  0  0  0  0  0  0  0  0
   12.3975  -14.8687   18.0433 N   0  0  0  0  0  0  0  0  0  0  0  0
   11.2724  -14.4667   18.8481 C   0  0  1  0  0  0  0  0  0  0  0  0
   10.0473  -14.3354   17.9900 C   0  0  0  0  0  0  0  0  0  0  0  0
    8.8537  -13.9167   18.7750 C   0  0  0  0  0  0  0  0  0  0  0  0
    7.8616  -14.7239   19.3072 C   0  0  0  0  0  0  0  0  0  0  0  0
    6.9670  -13.9790   19.9502 N   0  0  0  0  0  0  0  0  0  0  0  0
    7.3660  -12.6942   19.8429 C   0  0  0  0  0  0  0  0  0  0  0  0
    8.5082  -12.6602   19.1306 N   0  0  0  0  0  0  0  0  0  0  0  0
   11.0485  -15.4059   19.9834 C   0  0  0  0  0  0  0  0  0  0  0  0
   11.1908  -16.6526   19.7385 O   0  0  0  0  0  0  0  0  0  0  0  0
   15.1193  -16.9728   22.2177 N   0  0  0  0  0  0  0  0  0  0  0  0
   14.3050  -16.3080   23.1758 C   0  0  0  0  0  0  0  0  0  0  0  0
   14.7206  -16.3144   24.3785 O   0  0  0  0  0  0  0  0  0  0  0  0
   13.0400  -15.6351   22.7946 C   0  0  0  0  0  0  0  0  0  0  0  0
   11.8317  -16.4862   22.7523 C   0  0  0  0  0  0  0  0  0  0  0  0
   10.5279  -15.8740   22.4066 C   0  0  2  0  0  0  0  0  0  0  0  0
   10.6963  -14.9460   21.2665 N   0  0  0  0  0  0  0  0  0  0  0  0
    9.7071  -15.2829   23.4483 C   0  0  0  0  0  0  0  0  0  0  0  0
    9.3259  -14.0789   23.3106 O   0  0  0  0  0  0  0  0  0  0  0  0
    9.2954  -15.9339   24.5891 O   0  0  0  0  0  0  0  0  0  0  0  0
  2  1  1  6
  3  2  1  0
  3  4  1  0
  4  5  2  0
  6  2  1  0
  6  7  2  0
  8  4  1  0
  9  6  1  0
 10  9  1  0
 10 11  1  6
 11 12  1  0
 12 16  1  0
 13 12  2  0
 13 14  1  0
 14 15  1  0
 16 15  2  0
 17 10  1  0
 18 17  2  0
 20 21  2  0
 20 19  1  0
 22 20  1  0
 23 22  1  0
 24 23  1  1
 24 25  1  0
 25 17  1  0
 26 28  1  0
 26 24  1  0
 27 26  2  0
M  END
$$$$
