DHQ.pdb
     RDKit          3D

 28 28  0  0  1  0  0  0  0  0999 V2000
   13.1724  -16.2928   18.6342 N   0  0  0  0  0  0  0  0  0  0  0  0
   13.6919  -15.2276   19.4743 C   0  0  1  0  0  0  0  0  0  0  0  0
   14.0518  -14.0738   18.5551 C   0  0  0  0  0  0  0  0  0  0  0  0
   15.2457  -14.4462   17.7579 C   0  0  0  0  0  0  0  0  0  0  0  0
   16.1042  -15.2390   18.2122 O   0  0  0  0  0  0  0  0  0  0  0  0
   12.7091  -14.8334   20.5000 C   0  0  0  0  0  0  0  0  0  0  0  0
   12.9811  -13.9177   21.3061 O   0  0  0  0  0  0  0  0  0  0  0  0
   15.4479  -13.9241   16.4785 O   0  0  0  0  0  0  0  0  0  0  0  0
   11.4500  -15.4763   20.5975 N   0  0  0  0  0  0  0  0  0  0  0  0
   10.4783  -15.1283   21.6023 C   0  0  1  0  0  0  0  0  0  0  0  0
    9.0951  -15.4451   21.1114 C   0  0  0  0  0  0  0  0  0  0  0  0
    8.6238  -14.4689   20.0911 C   0  0  0  0  0  0  0  0  0  0  0  0
    9.3188  -13.3955   19.5580 C   0  0  0  0  0  0  0  0  0  0  0  0
    8.5619  -12.7628   18.6662 N   0  0  0  0  0  0  0  0  0  0  0  0
    7.3805  -13.4129   18.6121 C   0  0  0  0  0  0  0  0  0  0  0  0
    7.4213  -14.4448   19.4761 N   0  0  0  0  0  0  0  0  0  0  0  0
   10.7674  -15.8024   22.8996 C   0  0  0  0  0  0  0  0  0  0  0  0
   11.4860  -16.8588   22.8542 O   0  0  0  0  0  0  0  0  0  0  0  0
    9.8864  -13.2506   28.7224 N   0  0  0  0  0  0  0  0  0  0  0  0
   10.1786  -14.6151   28.9977 C   0  0  0  0  0  0  0  0  0  0  0  0
   10.2396  -14.9479   30.2243 O   0  0  0  0  0  0  0  0  0  0  0  0
   10.3945  -15.6027   27.9131 C   0  0  0  0  0  0  0  0  0  0  0  0
   10.3471  -15.0795   26.5310 C   0  0  0  0  0  0  0  0  0  0  0  0
   10.4828  -16.0218   25.3962 C   0  0  2  0  0  0  0  0  0  0  0  0
   10.2741  -15.3029   24.1199 N   0  0  0  0  0  0  0  0  0  0  0  0
    9.7632  -17.2828   25.4126 C   0  0  0  0  0  0  0  0  0  0  0  0
    8.6604  -17.3605   24.7867 O   0  0  0  0  0  0  0  0  0  0  0  0
   10.1890  -18.4227   26.0562 O   0  0  0  0  0  0  0  0  0  0  0  0
  2  1  1  6
  3  2  1  0
  3  4  1  0
  4  5  2  0
  6  2  1  0
  6  7  2  0
  8  4  1  0
  9  6  1  0
 10  9  1  0
 10 11  1  6
 11 12  1  0
 12 16  1  0
 13 12  2  0
 13 14  1  0
 14 15  1  0
 16 15  2  0
 17 10  1  0
 18 17  2  0
 20 21  2  0
 20 19  1  0
 22 20  1  0
 23 22  1  0
 24 23  1  1
 24 25  1  0
 25 17  1  0
 26 28  1  0
 26 24  1  0
 27 26  2  0
M  END
$$$$
