DHQ.pdb
     RDKit          3D

 28 28  0  0  1  0  0  0  0  0999 V2000
   11.4130  -15.4327   14.7033 N   0  0  0  0  0  0  0  0  0  0  0  0
   11.9512  -16.2904   15.7449 C   0  0  1  0  0  0  0  0  0  0  0  0
   13.3433  -16.7048   15.3023 C   0  0  0  0  0  0  0  0  0  0  0  0
   13.2343  -17.5256   14.0719 C   0  0  0  0  0  0  0  0  0  0  0  0
   12.2228  -18.2344   13.8558 O   0  0  0  0  0  0  0  0  0  0  0  0
   11.9665  -15.5987   17.0468 C   0  0  0  0  0  0  0  0  0  0  0  0
   12.7710  -14.6635   17.2475 O   0  0  0  0  0  0  0  0  0  0  0  0
   14.2551  -17.5327   13.1189 O   0  0  0  0  0  0  0  0  0  0  0  0
   11.0832  -15.9742   18.0892 N   0  0  0  0  0  0  0  0  0  0  0  0
   11.1197  -15.3633   19.3933 C   0  0  1  0  0  0  0  0  0  0  0  0
    9.7539  -15.3987   20.0160 C   0  0  0  0  0  0  0  0  0  0  0  0
    8.8735  -14.3142   19.5014 C   0  0  0  0  0  0  0  0  0  0  0  0
    9.1859  -13.3366   18.5709 C   0  0  0  0  0  0  0  0  0  0  0  0
    8.1313  -12.5531   18.3645 N   0  0  0  0  0  0  0  0  0  0  0  0
    7.1342  -13.0102   19.1509 C   0  0  0  0  0  0  0  0  0  0  0  0
    7.5872  -14.0760   19.8379 N   0  0  0  0  0  0  0  0  0  0  0  0
   12.1390  -16.0061   20.2701 C   0  0  0  0  0  0  0  0  0  0  0  0
   12.3010  -17.2675   20.1391 O   0  0  0  0  0  0  0  0  0  0  0  0
   18.1177  -13.6148   22.8955 N   0  0  0  0  0  0  0  0  0  0  0  0
   17.7136  -14.6704   22.0321 C   0  0  0  0  0  0  0  0  0  0  0  0
   18.4308  -14.8675   20.9996 O   0  0  0  0  0  0  0  0  0  0  0  0
   16.5224  -15.5045   22.3213 C   0  0  0  0  0  0  0  0  0  0  0  0
   15.2626  -15.0992   21.6620 C   0  0  0  0  0  0  0  0  0  0  0  0
   14.0232  -15.8609   21.9408 C   0  0  2  0  0  0  0  0  0  0  0  0
   12.8900  -15.2631   21.2006 N   0  0  0  0  0  0  0  0  0  0  0  0
   13.6533  -16.1647   23.3117 C   0  0  0  0  0  0  0  0  0  0  0  0
   12.5398  -15.7372   23.7489 O   0  0  0  0  0  0  0  0  0  0  0  0
   14.4208  -16.8966   24.1892 O   0  0  0  0  0  0  0  0  0  0  0  0
  2  1  1  6
  3  2  1  0
  3  4  1  0
  4  5  2  0
  6  2  1  0
  6  7  2  0
  8  4  1  0
  9  6  1  0
 10  9  1  0
 10 11  1  1
 11 12  1  0
 12 16  1  0
 13 12  2  0
 13 14  1  0
 14 15  1  0
 16 15  2  0
 17 10  1  0
 18 17  2  0
 20 21  2  0
 20 19  1  0
 22 20  1  0
 23 22  1  0
 24 23  1  1
 24 25  1  0
 25 17  1  0
 26 28  1  0
 26 24  1  0
 27 26  2  0
M  END
$$$$
