WPI.pdb
     RDKit          3D

 30 32  0  0  1  0  0  0  0  0999 V2000
   23.0243  -22.1457  -13.2621 N   0  0  0  0  0  0  0  0  0  0  0  0
   23.9616  -21.0705  -12.9760 C   0  0  1  0  0  0  0  0  0  0  0  0
   23.1124  -19.8538  -12.7057 C   0  0  0  0  0  0  0  0  0  0  0  0
   22.3077  -19.3760  -13.8341 C   0  0  0  0  0  0  0  0  0  0  0  0
   20.9269  -19.4217  -13.9558 C   0  0  0  0  0  0  0  0  0  0  0  0
   20.5513  -18.9093  -15.1426 N   0  0  0  0  0  0  0  0  0  0  0  0
   21.6662  -18.5267  -15.8033 C   0  0  0  0  0  0  0  0  0  0  0  0
   21.8309  -17.9448  -17.0297 C   0  0  0  0  0  0  0  0  0  0  0  0
   23.1155  -17.6296  -17.4861 C   0  0  0  0  0  0  0  0  0  0  0  0
   24.2163  -17.8964  -16.7189 C   0  0  0  0  0  0  0  0  0  0  0  0
   24.0212  -18.4825  -15.4898 C   0  0  0  0  0  0  0  0  0  0  0  0
   22.7629  -18.8112  -15.0010 C   0  0  0  0  0  0  0  0  0  0  0  0
   24.9665  -21.3860  -11.9726 C   0  0  0  0  0  0  0  0  0  0  0  0
   24.6593  -22.3132  -11.1469 O   0  0  0  0  0  0  0  0  0  0  0  0
   26.2395  -20.7804  -11.8128 N   0  0  0  0  0  0  0  0  0  0  0  0
   26.8777  -19.7655  -12.6237 C   0  0  0  0  0  0  0  0  0  0  0  0
   28.3621  -20.0185  -12.5029 C   0  0  0  0  0  0  0  0  0  0  0  0
   28.4964  -21.0616  -11.4456 C   0  0  0  0  0  0  0  0  0  0  0  0
   27.1759  -21.0953  -10.7501 C   0  0  1  0  0  0  0  0  0  0  0  0
   27.0775  -20.1967   -9.5925 C   0  0  0  0  0  0  0  0  0  0  0  0
   26.5793  -19.0586   -9.7920 O   0  0  0  0  0  0  0  0  0  0  0  0
   29.5386  -20.6116   -4.2939 C   0  0  0  0  0  0  0  0  0  0  0  0
   29.1396  -20.0952   -5.6635 C   0  0  0  0  0  0  0  0  0  0  0  0
   27.6452  -20.2413   -5.8378 C   0  0  2  0  0  0  0  0  0  0  0  0
   27.2784  -21.6773   -5.6441 C   0  0  0  0  0  0  0  0  0  0  0  0
   27.1525  -19.6757   -7.1341 C   0  0  2  0  0  0  0  0  0  0  0  0
   27.4894  -20.4874   -8.2726 N   0  0  0  0  0  0  0  0  0  0  0  0
   27.5571  -18.2729   -7.2838 C   0  0  0  0  0  0  0  0  0  0  0  0
   28.4932  -17.9254   -8.0464 O   0  0  0  0  0  0  0  0  0  0  0  0
   26.9266  -17.2283   -6.5866 O   0  0  0  0  0  0  0  0  0  0  0  0
  2  1  1  1
  2 13  1  0
  2  3  1  0
  3  4  1  0
  4  5  2  0
  5  6  1  0
  7  8  2  0
  7  6  1  0
  9  8  1  0
 10  9  2  0
 11 10  1  0
 11 12  2  0
 12  4  1  0
 12  7  1  0
 13 14  2  0
 15 13  1  0
 15 19  1  0
 16 17  1  0
 16 15  1  0
 17 18  1  0
 18 19  1  0
 19 20  1  1
 20 21  2  0
 22 23  1  0
 23 24  1  0
 24 26  1  0
 24 25  1  6
 26 28  1  0
 26 27  1  6
 27 20  1  0
 28 30  1  0
 29 28  2  0
M  END
$$$$
