WPI.pdb
     RDKit          3D

 30 32  0  0  1  0  0  0  0  0999 V2000
   23.9016  -22.5968  -14.6405 N   0  0  0  0  0  0  0  0  0  0  0  0
   24.3372  -21.4478  -13.8617 C   0  0  1  0  0  0  0  0  0  0  0  0
   23.1303  -21.0159  -13.0670 C   0  0  0  0  0  0  0  0  0  0  0  0
   21.9540  -20.6332  -13.8539 C   0  0  0  0  0  0  0  0  0  0  0  0
   20.7393  -21.2991  -13.9207 C   0  0  0  0  0  0  0  0  0  0  0  0
   19.9087  -20.6597  -14.7656 N   0  0  0  0  0  0  0  0  0  0  0  0
   20.5604  -19.5820  -15.2552 C   0  0  0  0  0  0  0  0  0  0  0  0
   20.1624  -18.6105  -16.1313 C   0  0  0  0  0  0  0  0  0  0  0  0
   21.0398  -17.5751  -16.4715 C   0  0  0  0  0  0  0  0  0  0  0  0
   22.2980  -17.5195  -15.9374 C   0  0  0  0  0  0  0  0  0  0  0  0
   22.6721  -18.5100  -15.0592 C   0  0  0  0  0  0  0  0  0  0  0  0
   21.8310  -19.5547  -14.6964 C   0  0  0  0  0  0  0  0  0  0  0  0
   25.5629  -21.6510  -13.1051 C   0  0  0  0  0  0  0  0  0  0  0  0
   25.7591  -22.8368  -12.6677 O   0  0  0  0  0  0  0  0  0  0  0  0
   26.5553  -20.6832  -12.8028 N   0  0  0  0  0  0  0  0  0  0  0  0
   26.8090  -19.4056  -13.4337 C   0  0  0  0  0  0  0  0  0  0  0  0
   28.2915  -19.1598  -13.2792 C   0  0  0  0  0  0  0  0  0  0  0  0
   28.7747  -20.2403  -12.3719 C   0  0  0  0  0  0  0  0  0  0  0  0
   27.5458  -20.8175  -11.7510 C   0  0  1  0  0  0  0  0  0  0  0  0
   27.1515  -20.1843  -10.4858 C   0  0  0  0  0  0  0  0  0  0  0  0
   26.0391  -19.5966  -10.4620 O   0  0  0  0  0  0  0  0  0  0  0  0
   30.5031  -20.5122   -5.8432 C   0  0  0  0  0  0  0  0  0  0  0  0
   29.4972  -21.0613   -6.8373 C   0  0  0  0  0  0  0  0  0  0  0  0
   28.2811  -20.1640   -6.8664 C   0  0  2  0  0  0  0  0  0  0  0  0
   27.6182  -20.2119   -5.5275 C   0  0  0  0  0  0  0  0  0  0  0  0
   27.3514  -20.4804   -7.9972 C   0  0  2  0  0  0  0  0  0  0  0  0
   27.9026  -20.1711   -9.2892 N   0  0  0  0  0  0  0  0  0  0  0  0
   26.0293  -19.8835   -7.7744 C   0  0  0  0  0  0  0  0  0  0  0  0
   25.0832  -20.5293   -7.2584 O   0  0  0  0  0  0  0  0  0  0  0  0
   25.7346  -18.5542   -8.1221 O   0  0  0  0  0  0  0  0  0  0  0  0
  2  1  1  1
  2 13  1  0
  2  3  1  0
  3  4  1  0
  4  5  2  0
  5  6  1  0
  7  8  2  0
  7  6  1  0
  9  8  1  0
 10  9  2  0
 11 10  1  0
 11 12  2  0
 12  4  1  0
 12  7  1  0
 13 14  2  0
 15 13  1  0
 15 19  1  0
 16 17  1  0
 16 15  1  0
 17 18  1  0
 18 19  1  0
 19 20  1  1
 20 21  2  0
 22 23  1  0
 23 24  1  0
 24 26  1  0
 24 25  1  1
 26 28  1  0
 26 27  1  6
 27 20  1  0
 28 30  1  0
 29 28  2  0
M  END
$$$$
