WPI.pdb
     RDKit          3D

 30 32  0  0  1  0  0  0  0  0999 V2000
   23.7298  -21.2839  -14.4466 N   0  0  0  0  0  0  0  0  0  0  0  0
   24.8250  -20.4843  -13.9196 C   0  0  1  0  0  0  0  0  0  0  0  0
   24.2609  -19.0982  -13.7321 C   0  0  0  0  0  0  0  0  0  0  0  0
   24.1749  -18.2771  -14.9436 C   0  0  0  0  0  0  0  0  0  0  0  0
   23.0491  -18.0476  -15.7205 C   0  0  0  0  0  0  0  0  0  0  0  0
   23.3631  -17.2599  -16.7661 N   0  0  0  0  0  0  0  0  0  0  0  0
   24.6800  -16.9676  -16.6874 C   0  0  0  0  0  0  0  0  0  0  0  0
   25.4821  -16.2034  -17.4889 C   0  0  0  0  0  0  0  0  0  0  0  0
   26.8363  -16.0457  -17.1744 C   0  0  0  0  0  0  0  0  0  0  0  0
   27.3736  -16.6483  -16.0700 C   0  0  0  0  0  0  0  0  0  0  0  0
   26.5439  -17.4117  -15.2819 C   0  0  0  0  0  0  0  0  0  0  0  0
   25.1948  -17.5933  -15.5600 C   0  0  0  0  0  0  0  0  0  0  0  0
   25.5044  -21.0602  -12.7695 C   0  0  0  0  0  0  0  0  0  0  0  0
   24.8517  -21.9504  -12.1233 O   0  0  0  0  0  0  0  0  0  0  0  0
   26.8019  -20.7428  -12.2915 N   0  0  0  0  0  0  0  0  0  0  0  0
   27.7585  -19.7875  -12.8083 C   0  0  0  0  0  0  0  0  0  0  0  0
   29.1200  -20.3430  -12.4620 C   0  0  0  0  0  0  0  0  0  0  0  0
   28.8518  -21.5082  -11.5707 C   0  0  0  0  0  0  0  0  0  0  0  0
   27.4306  -21.3597  -11.1385 C   0  0  1  0  0  0  0  0  0  0  0  0
   27.2520  -20.6010   -9.8936 C   0  0  0  0  0  0  0  0  0  0  0  0
   27.0574  -19.3624  -10.0009 O   0  0  0  0  0  0  0  0  0  0  0  0
   23.5912  -22.0650   -6.4196 C   0  0  0  0  0  0  0  0  0  0  0  0
   24.5690  -21.3493   -7.3325 C   0  0  0  0  0  0  0  0  0  0  0  0
   25.8575  -21.0943   -6.5844 C   0  0  2  0  0  0  0  0  0  0  0  0
   25.5385  -20.3814   -5.3099 C   0  0  0  0  0  0  0  0  0  0  0  0
   26.8829  -20.3870   -7.4159 C   0  0  2  0  0  0  0  0  0  0  0  0
   27.2776  -21.1287   -8.5833 N   0  0  0  0  0  0  0  0  0  0  0  0
   28.0192  -19.9539   -6.5943 C   0  0  0  0  0  0  0  0  0  0  0  0
   29.0436  -20.6653   -6.4429 O   0  0  0  0  0  0  0  0  0  0  0  0
   28.0371  -18.7187   -5.9243 O   0  0  0  0  0  0  0  0  0  0  0  0
  2  1  1  1
  2 13  1  0
  2  3  1  0
  3  4  1  0
  4  5  2  0
  5  6  1  0
  7  8  2  0
  7  6  1  0
  9  8  1  0
 10  9  2  0
 11 10  1  0
 11 12  2  0
 12  4  1  0
 12  7  1  0
 13 14  2  0
 15 13  1  0
 15 19  1  0
 16 17  1  0
 16 15  1  0
 17 18  1  0
 18 19  1  0
 19 20  1  1
 20 21  2  0
 22 23  1  0
 23 24  1  0
 24 26  1  0
 24 25  1  1
 26 28  1  0
 26 27  1  6
 27 20  1  0
 28 30  1  0
 29 28  2  0
M  END
$$$$
