WPI.pdb
     RDKit          3D

 30 32  0  0  1  0  0  0  0  0999 V2000
   26.4385  -23.2984  -14.3703 N   0  0  0  0  0  0  0  0  0  0  0  0
   26.5429  -22.0595  -13.6148 C   0  0  1  0  0  0  0  0  0  0  0  0
   25.1509  -21.4796  -13.5932 C   0  0  0  0  0  0  0  0  0  0  0  0
   24.9899  -20.2398  -12.8275 C   0  0  0  0  0  0  0  0  0  0  0  0
   25.4925  -18.9875  -13.1477 C   0  0  0  0  0  0  0  0  0  0  0  0
   25.1581  -18.0986  -12.1936 N   0  0  0  0  0  0  0  0  0  0  0  0
   24.4419  -18.7489  -11.2503 C   0  0  0  0  0  0  0  0  0  0  0  0
   23.8639  -18.3049  -10.0933 C   0  0  0  0  0  0  0  0  0  0  0  0
   23.1509  -19.1950   -9.2827 C   0  0  0  0  0  0  0  0  0  0  0  0
   23.0223  -20.5113   -9.6324 C   0  0  0  0  0  0  0  0  0  0  0  0
   23.6143  -20.9307  -10.8011 C   0  0  0  0  0  0  0  0  0  0  0  0
   24.3306  -20.0789  -11.6328 C   0  0  0  0  0  0  0  0  0  0  0  0
   27.2053  -22.1834  -12.3256 C   0  0  0  0  0  0  0  0  0  0  0  0
   26.7573  -23.0992  -11.5533 O   0  0  0  0  0  0  0  0  0  0  0  0
   28.2853  -21.4037  -11.8372 N   0  0  0  0  0  0  0  0  0  0  0  0
   28.9547  -20.2794  -12.4558 C   0  0  0  0  0  0  0  0  0  0  0  0
   30.3754  -20.3163  -11.9433 C   0  0  0  0  0  0  0  0  0  0  0  0
   30.3812  -21.3637  -10.8818 C   0  0  0  0  0  0  0  0  0  0  0  0
   28.9446  -21.6139  -10.5619 C   0  0  1  0  0  0  0  0  0  0  0  0
   28.4109  -20.7791   -9.4778 C   0  0  0  0  0  0  0  0  0  0  0  0
   27.8215  -19.7180   -9.8095 O   0  0  0  0  0  0  0  0  0  0  0  0
   25.1701  -22.3819   -5.6786 C   0  0  0  0  0  0  0  0  0  0  0  0
   25.9109  -21.5705   -6.7248 C   0  0  0  0  0  0  0  0  0  0  0  0
   27.1007  -20.8938   -6.0835 C   0  0  2  0  0  0  0  0  0  0  0  0
   26.6121  -20.0047   -4.9859 C   0  0  0  0  0  0  0  0  0  0  0  0
   27.9707  -20.1844   -7.0750 C   0  0  2  0  0  0  0  0  0  0  0  0
   28.4953  -21.0530   -8.0943 N   0  0  0  0  0  0  0  0  0  0  0  0
   29.0069  -19.3965   -6.3970 C   0  0  0  0  0  0  0  0  0  0  0  0
   30.1666  -19.8408   -6.2070 O   0  0  0  0  0  0  0  0  0  0  0  0
   28.7716  -18.0969   -5.9168 O   0  0  0  0  0  0  0  0  0  0  0  0
  2  1  1  1
  2 13  1  0
  2  3  1  0
  3  4  1  0
  4  5  2  0
  5  6  1  0
  7  8  2  0
  7  6  1  0
  9  8  1  0
 10  9  2  0
 11 10  1  0
 11 12  2  0
 12  4  1  0
 12  7  1  0
 13 14  2  0
 15 13  1  0
 15 19  1  0
 16 17  1  0
 16 15  1  0
 17 18  1  0
 18 19  1  0
 19 20  1  1
 20 21  2  0
 22 23  1  0
 23 24  1  0
 24 26  1  0
 24 25  1  1
 26 28  1  0
 26 27  1  6
 27 20  1  0
 28 30  1  0
 29 28  2  0
M  END
$$$$
