WPI.pdb
     RDKit          3D

 30 32  0  0  1  0  0  0  0  0999 V2000
   24.5649  -20.6815  -15.1516 N   0  0  0  0  0  0  0  0  0  0  0  0
   25.5899  -20.0861  -14.3081 C   0  0  1  0  0  0  0  0  0  0  0  0
   24.9461  -18.8741  -13.6827 C   0  0  0  0  0  0  0  0  0  0  0  0
   24.5038  -17.8349  -14.6175 C   0  0  0  0  0  0  0  0  0  0  0  0
   23.1969  -17.4992  -14.9381 C   0  0  0  0  0  0  0  0  0  0  0  0
   23.1856  -16.5105  -15.8517 N   0  0  0  0  0  0  0  0  0  0  0  0
   24.4673  -16.1908  -16.1361 C   0  0  0  0  0  0  0  0  0  0  0  0
   24.9954  -15.2550  -16.9818 C   0  0  0  0  0  0  0  0  0  0  0  0
   26.3834  -15.1120  -17.0858 C   0  0  0  0  0  0  0  0  0  0  0  0
   27.2256  -15.8994  -16.3495 C   0  0  0  0  0  0  0  0  0  0  0  0
   26.6671  -16.8328  -15.5074 C   0  0  0  0  0  0  0  0  0  0  0  0
   25.2949  -17.0061  -15.3759 C   0  0  0  0  0  0  0  0  0  0  0  0
   26.2408  -21.0099  -13.3922 C   0  0  0  0  0  0  0  0  0  0  0  0
   25.6639  -22.1407  -13.2357 O   0  0  0  0  0  0  0  0  0  0  0  0
   27.4365  -20.7928  -12.6599 N   0  0  0  0  0  0  0  0  0  0  0  0
   28.2380  -19.5925  -12.5527 C   0  0  0  0  0  0  0  0  0  0  0  0
   29.6553  -20.0652  -12.3289 C   0  0  0  0  0  0  0  0  0  0  0  0
   29.5475  -21.5372  -12.1151 C   0  0  0  0  0  0  0  0  0  0  0  0
   28.1015  -21.7957  -11.8492 C   0  0  1  0  0  0  0  0  0  0  0  0
   27.7284  -21.7480  -10.4294 C   0  0  0  0  0  0  0  0  0  0  0  0
   28.0954  -22.7118   -9.7084 O   0  0  0  0  0  0  0  0  0  0  0  0
   28.8764  -19.4858   -6.1213 C   0  0  0  0  0  0  0  0  0  0  0  0
   28.3323  -20.4178   -7.1875 C   0  0  0  0  0  0  0  0  0  0  0  0
   26.8704  -20.1125   -7.4208 C   0  0  2  0  0  0  0  0  0  0  0  0
   26.1316  -20.2953   -6.1344 C   0  0  0  0  0  0  0  0  0  0  0  0
   26.2857  -20.8977   -8.5543 C   0  0  2  0  0  0  0  0  0  0  0  0
   26.9953  -20.7217   -9.7929 N   0  0  0  0  0  0  0  0  0  0  0  0
   24.8434  -20.6542   -8.6743 C   0  0  0  0  0  0  0  0  0  0  0  0
   24.3723  -19.8180   -9.4851 O   0  0  0  0  0  0  0  0  0  0  0  0
   23.8963  -21.3378   -7.8930 O   0  0  0  0  0  0  0  0  0  0  0  0
  2  1  1  1
  2 13  1  0
  2  3  1  0
  3  4  1  0
  4  5  2  0
  5  6  1  0
  7  8  2  0
  7  6  1  0
  9  8  1  0
 10  9  2  0
 11 10  1  0
 11 12  2  0
 12  4  1  0
 12  7  1  0
 13 14  2  0
 15 13  1  0
 15 19  1  0
 16 17  1  0
 16 15  1  0
 17 18  1  0
 18 19  1  0
 19 20  1  1
 20 21  2  0
 22 23  1  0
 23 24  1  0
 24 26  1  0
 24 25  1  1
 26 28  1  0
 26 27  1  6
 27 20  1  0
 28 30  1  0
 29 28  2  0
M  END
$$$$
