WPI.pdb
     RDKit          3D

 30 32  0  0  1  0  0  0  0  0999 V2000
   24.6767  -21.7864  -12.5267 N   0  0  0  0  0  0  0  0  0  0  0  0
   25.8459  -20.9787  -12.2148 C   0  0  1  0  0  0  0  0  0  0  0  0
   25.3608  -19.5507  -12.2044 C   0  0  0  0  0  0  0  0  0  0  0  0
   25.0546  -18.9732  -13.5166 C   0  0  0  0  0  0  0  0  0  0  0  0
   23.8008  -18.8081  -14.0861 C   0  0  0  0  0  0  0  0  0  0  0  0
   23.9190  -18.2632  -15.3115 N   0  0  0  0  0  0  0  0  0  0  0  0
   25.2335  -18.0671  -15.5557 C   0  0  0  0  0  0  0  0  0  0  0  0
   25.8788  -17.5372  -16.6385 C   0  0  0  0  0  0  0  0  0  0  0  0
   27.2739  -17.4304  -16.6365 C   0  0  0  0  0  0  0  0  0  0  0  0
   28.0069  -17.8508  -15.5607 C   0  0  0  0  0  0  0  0  0  0  0  0
   27.3319  -18.3802  -14.4854 C   0  0  0  0  0  0  0  0  0  0  0  0
   25.9484  -18.5038  -14.4486 C   0  0  0  0  0  0  0  0  0  0  0  0
   26.5924  -21.4101  -11.0432 C   0  0  0  0  0  0  0  0  0  0  0  0
   25.9568  -22.1528  -10.2184 O   0  0  0  0  0  0  0  0  0  0  0  0
   27.9381  -21.0978  -10.7200 N   0  0  0  0  0  0  0  0  0  0  0  0
   28.8848  -20.2753  -11.4424 C   0  0  0  0  0  0  0  0  0  0  0  0
   30.2473  -20.8478  -11.1291 C   0  0  0  0  0  0  0  0  0  0  0  0
   30.0094  -21.8618  -10.0618 C   0  0  0  0  0  0  0  0  0  0  0  0
   28.6378  -21.5802   -9.5440 C   0  0  1  0  0  0  0  0  0  0  0  0
   28.5979  -20.6472   -8.4104 C   0  0  0  0  0  0  0  0  0  0  0  0
   28.3670  -19.4382   -8.6718 O   0  0  0  0  0  0  0  0  0  0  0  0
   26.4948  -22.5102   -3.7177 C   0  0  0  0  0  0  0  0  0  0  0  0
   26.7623  -21.6653   -4.9491 C   0  0  0  0  0  0  0  0  0  0  0  0
   28.0118  -20.8432   -4.7304 C   0  0  2  0  0  0  0  0  0  0  0  0
   27.7967  -19.9487   -3.5523 C   0  0  0  0  0  0  0  0  0  0  0  0
   28.4460  -20.1063   -5.9598 C   0  0  2  0  0  0  0  0  0  0  0  0
   28.7941  -20.9768   -7.0506 N   0  0  0  0  0  0  0  0  0  0  0  0
   29.4928  -19.1272   -5.6444 C   0  0  0  0  0  0  0  0  0  0  0  0
   30.7143  -19.4181   -5.6870 O   0  0  0  0  0  0  0  0  0  0  0  0
   29.1997  -17.8034   -5.2749 O   0  0  0  0  0  0  0  0  0  0  0  0
  2  1  1  1
  2 13  1  0
  2  3  1  0
  3  4  1  0
  4  5  2  0
  5  6  1  0
  7  8  2  0
  7  6  1  0
  9  8  1  0
 10  9  2  0
 11 10  1  0
 11 12  2  0
 12  4  1  0
 12  7  1  0
 13 14  2  0
 15 13  1  0
 15 19  1  0
 16 17  1  0
 16 15  1  0
 17 18  1  0
 18 19  1  0
 19 20  1  1
 20 21  2  0
 22 23  1  0
 23 24  1  0
 24 26  1  0
 24 25  1  1
 26 28  1  0
 26 27  1  6
 27 20  1  0
 28 30  1  0
 29 28  2  0
M  END
$$$$
