WPI.pdb
     RDKit          3D

 30 32  0  0  1  0  0  0  0  0999 V2000
   23.3560  -21.9564  -13.2722 N   0  0  0  0  0  0  0  0  0  0  0  0
   24.3493  -20.9590  -12.9048 C   0  0  1  0  0  0  0  0  0  0  0  0
   23.5871  -19.6673  -12.7463 C   0  0  0  0  0  0  0  0  0  0  0  0
   23.2244  -18.9855  -13.9924 C   0  0  0  0  0  0  0  0  0  0  0  0
   21.9481  -18.7931  -14.4999 C   0  0  0  0  0  0  0  0  0  0  0  0
   22.0131  -18.1443  -15.6777 N   0  0  0  0  0  0  0  0  0  0  0  0
   23.3148  -17.9068  -15.9517 C   0  0  0  0  0  0  0  0  0  0  0  0
   23.9120  -17.2766  -17.0081 C   0  0  0  0  0  0  0  0  0  0  0  0
   25.3047  -17.1477  -17.0476 C   0  0  0  0  0  0  0  0  0  0  0  0
   26.0830  -17.6459  -16.0388 C   0  0  0  0  0  0  0  0  0  0  0  0
   25.4557  -18.2756  -14.9889 C   0  0  0  0  0  0  0  0  0  0  0  0
   24.0764  -18.4242  -14.9126 C   0  0  0  0  0  0  0  0  0  0  0  0
   25.2114  -21.3343  -11.7948 C   0  0  0  0  0  0  0  0  0  0  0  0
   24.7670  -22.2585  -11.0303 O   0  0  0  0  0  0  0  0  0  0  0  0
   26.4809  -20.7896  -11.4718 N   0  0  0  0  0  0  0  0  0  0  0  0
   27.2110  -19.7231  -12.1231 C   0  0  0  0  0  0  0  0  0  0  0  0
   28.6730  -20.0358  -11.9063 C   0  0  0  0  0  0  0  0  0  0  0  0
   28.6906  -21.1799  -10.9499 C   0  0  0  0  0  0  0  0  0  0  0  0
   27.3153  -21.2366  -10.3720 C   0  0  1  0  0  0  0  0  0  0  0  0
   27.1414  -20.4510   -9.1433 C   0  0  0  0  0  0  0  0  0  0  0  0
   26.5725  -19.3340   -9.2536 O   0  0  0  0  0  0  0  0  0  0  0  0
   30.0452  -20.9500   -4.1275 C   0  0  0  0  0  0  0  0  0  0  0  0
   29.4905  -20.4301   -5.4404 C   0  0  0  0  0  0  0  0  0  0  0  0
   27.9868  -20.5838   -5.4445 C   0  0  2  0  0  0  0  0  0  0  0  0
   27.6516  -22.0221   -5.2141 C   0  0  0  0  0  0  0  0  0  0  0  0
   27.3475  -20.0184   -6.6752 C   0  0  2  0  0  0  0  0  0  0  0  0
   27.5522  -20.8292   -7.8455 N   0  0  0  0  0  0  0  0  0  0  0  0
   27.7303  -18.6150   -6.8698 C   0  0  0  0  0  0  0  0  0  0  0  0
   27.1784  -17.6785   -6.2397 O   0  0  0  0  0  0  0  0  0  0  0  0
   28.7363  -18.2264   -7.7707 O   0  0  0  0  0  0  0  0  0  0  0  0
  2  1  1  1
  2 13  1  0
  2  3  1  0
  3  4  1  0
  4  5  2  0
  5  6  1  0
  7  8  2  0
  7  6  1  0
  9  8  1  0
 10  9  2  0
 11 10  1  0
 11 12  2  0
 12  4  1  0
 12  7  1  0
 13 14  2  0
 15 13  1  0
 15 19  1  0
 16 17  1  0
 16 15  1  0
 17 18  1  0
 18 19  1  0
 19 20  1  1
 20 21  2  0
 22 23  1  0
 23 24  1  0
 24 26  1  0
 24 25  1  6
 26 28  1  0
 26 27  1  6
 27 20  1  0
 28 30  1  0
 29 28  2  0
M  END
$$$$
