WPI.pdb
     RDKit          3D

 30 32  0  0  1  0  0  0  0  0999 V2000
   25.4606  -22.0879  -12.3352 N   0  0  0  0  0  0  0  0  0  0  0  0
   26.5305  -21.2160  -11.8751 C   0  0  1  0  0  0  0  0  0  0  0  0
   25.9224  -19.8383  -11.7910 C   0  0  0  0  0  0  0  0  0  0  0  0
   25.5467  -19.2294  -13.0706 C   0  0  0  0  0  0  0  0  0  0  0  0
   24.2637  -19.0392  -13.5619 C   0  0  0  0  0  0  0  0  0  0  0  0
   24.3164  -18.4692  -14.7804 N   0  0  0  0  0  0  0  0  0  0  0  0
   25.6165  -18.2813  -15.0971 C   0  0  0  0  0  0  0  0  0  0  0  0
   26.2034  -17.7348  -16.2046 C   0  0  0  0  0  0  0  0  0  0  0  0
   27.5973  -17.6424  -16.2823 C   0  0  0  0  0  0  0  0  0  0  0  0
   28.3871  -18.0934  -15.2605 C   0  0  0  0  0  0  0  0  0  0  0  0
   27.7701  -18.6390  -14.1587 C   0  0  0  0  0  0  0  0  0  0  0  0
   26.3899  -18.7491  -14.0433 C   0  0  0  0  0  0  0  0  0  0  0  0
   27.2303  -21.6808  -10.6876 C   0  0  0  0  0  0  0  0  0  0  0  0
   26.5484  -22.4083   -9.8865 O   0  0  0  0  0  0  0  0  0  0  0  0
   28.5762  -21.4157  -10.3257 N   0  0  0  0  0  0  0  0  0  0  0  0
   29.6014  -20.7135  -11.0677 C   0  0  0  0  0  0  0  0  0  0  0  0
   30.9122  -21.3303  -10.6392 C   0  0  0  0  0  0  0  0  0  0  0  0
   30.5671  -22.2316   -9.5023 C   0  0  0  0  0  0  0  0  0  0  0  0
   29.1928  -21.8304   -9.0794 C   0  0  1  0  0  0  0  0  0  0  0  0
   29.1573  -20.8003   -8.0330 C   0  0  0  0  0  0  0  0  0  0  0  0
   29.2033  -19.6004   -8.4091 O   0  0  0  0  0  0  0  0  0  0  0  0
   25.1356  -21.4405   -4.9499 C   0  0  0  0  0  0  0  0  0  0  0  0
   26.2463  -20.8575   -5.8033 C   0  0  0  0  0  0  0  0  0  0  0  0
   27.4153  -20.4878   -4.9193 C   0  0  2  0  0  0  0  0  0  0  0  0
   26.9571  -19.4789   -3.9162 C   0  0  0  0  0  0  0  0  0  0  0  0
   28.6156  -20.0440   -5.6973 C   0  0  2  0  0  0  0  0  0  0  0  0
   29.0763  -21.0270   -6.6408 N   0  0  0  0  0  0  0  0  0  0  0  0
   29.6737  -19.5607   -4.8025 C   0  0  0  0  0  0  0  0  0  0  0  0
   30.5251  -20.3336   -4.2963 O   0  0  0  0  0  0  0  0  0  0  0  0
   29.8046  -18.2058   -4.4533 O   0  0  0  0  0  0  0  0  0  0  0  0
  2  1  1  1
  2 13  1  0
  2  3  1  0
  3  4  1  0
  4  5  2  0
  5  6  1  0
  7  8  2  0
  7  6  1  0
  9  8  1  0
 10  9  2  0
 11 10  1  0
 11 12  2  0
 12  4  1  0
 12  7  1  0
 13 14  2  0
 15 13  1  0
 15 19  1  0
 16 17  1  0
 16 15  1  0
 17 18  1  0
 18 19  1  0
 19 20  1  1
 20 21  2  0
 22 23  1  0
 23 24  1  0
 24 26  1  0
 24 25  1  1
 26 28  1  0
 26 27  1  1
 27 20  1  0
 28 30  1  0
 29 28  2  0
M  END
$$$$
