SQN.pdb
     RDKit          3D

 24 23  0  0  1  0  0  0  0  0999 V2000
   -5.9811  -24.2345   17.9004 O   0  0  0  0  0  0  0  0  0  0  0  0
   -5.5641  -23.1029   17.2434 C   0  0  0  0  0  0  0  0  0  0  0  0
   -6.2891  -21.8585   17.7196 C   0  0  2  0  0  0  0  0  0  0  0  0
   -5.8385  -20.7362   16.9621 N   0  0  0  0  0  0  0  0  0  0  0  0
   -6.1350  -21.6457   19.1734 C   0  0  0  0  0  0  0  0  0  0  0  0
   -5.2221  -20.9269   19.6587 O   0  0  0  0  0  0  0  0  0  0  0  0
  -11.0083  -21.4046   22.8093 N   0  0  0  0  0  0  0  0  0  0  0  0
  -10.2038  -20.3062   22.3636 C   0  0  0  0  0  0  0  0  0  0  0  0
  -10.7338  -19.1797   22.3677 O   0  0  0  0  0  0  0  0  0  0  0  0
   -8.8145  -20.4692   21.9167 C   0  0  0  0  0  0  0  0  0  0  0  0
   -8.4237  -21.9230   21.9843 C   0  0  0  0  0  0  0  0  0  0  0  0
   -7.0142  -22.1339   21.4992 C   0  0  2  0  0  0  0  0  0  0  0  0
   -7.0450  -22.2723   20.0593 N   0  0  0  0  0  0  0  0  0  0  0  0
   -6.4983  -23.3614   22.1571 C   0  0  0  0  0  0  0  0  0  0  0  0
   -6.2126  -24.3292   21.4144 O   0  0  0  0  0  0  0  0  0  0  0  0
   -4.3869  -27.0093   25.0768 N   0  0  0  0  0  0  0  0  0  0  0  0
   -3.8158  -26.1721   24.0773 C   0  0  0  0  0  0  0  0  0  0  0  0
   -2.6512  -26.5237   23.6691 O   0  0  0  0  0  0  0  0  0  0  0  0
   -4.4507  -24.9765   23.5010 C   0  0  0  0  0  0  0  0  0  0  0  0
   -5.8046  -24.7497   24.1018 C   0  0  2  0  0  0  0  0  0  0  0  0
   -6.3219  -23.4735   23.5573 N   0  0  0  0  0  0  0  0  0  0  0  0
   -5.6471  -24.5804   25.5852 C   0  0  0  0  0  0  0  0  0  0  0  0
   -5.2380  -25.5605   26.2992 O   0  0  0  0  0  0  0  0  0  0  0  0
   -5.9137  -23.4220   26.2672 O   0  0  0  0  0  0  0  0  0  0  0  0
  2  1  1  0
  2  3  1  0
  3  4  1  6
  5  3  1  0
  5  6  2  0
  7  8  1  0
  8 10  1  0
  9  8  2  0
 10 11  1  0
 12 11  1  1
 12 13  1  0
 13  5  1  0
 14 12  1  0
 15 14  2  0
 16 17  1  0
 17 19  1  0
 18 17  2  0
 20 19  1  6
 20 21  1  0
 20 22  1  0
 21 14  1  0
 22 24  1  0
 23 22  2  0
M  END
$$$$
