SQN.pdb
     RDKit          3D

 24 23  0  0  1  0  0  0  0  0999 V2000
   15.3636  -17.8742   13.4037 O   0  0  0  0  0  0  0  0  0  0  0  0
   14.0590  -17.8475   12.9759 C   0  0  0  0  0  0  0  0  0  0  0  0
   13.5800  -16.4409   12.6708 C   0  0  2  0  0  0  0  0  0  0  0  0
   14.5205  -15.8039   11.8068 N   0  0  0  0  0  0  0  0  0  0  0  0
   13.3342  -15.6573   13.8988 C   0  0  0  0  0  0  0  0  0  0  0  0
   14.0567  -14.6823   14.2349 O   0  0  0  0  0  0  0  0  0  0  0  0
    8.1486  -17.0624   17.0166 N   0  0  0  0  0  0  0  0  0  0  0  0
    8.2212  -16.1374   15.9252 C   0  0  0  0  0  0  0  0  0  0  0  0
    7.1506  -15.8433   15.3618 O   0  0  0  0  0  0  0  0  0  0  0  0
    9.4851  -15.5455   15.4684 C   0  0  0  0  0  0  0  0  0  0  0  0
   10.5834  -15.8678   16.4485 C   0  0  0  0  0  0  0  0  0  0  0  0
   11.9124  -15.3444   15.9728 C   0  0  2  0  0  0  0  0  0  0  0  0
   12.2468  -16.0124   14.7337 N   0  0  0  0  0  0  0  0  0  0  0  0
   12.9082  -15.6315   17.0366 C   0  0  0  0  0  0  0  0  0  0  0  0
   13.4305  -16.7704   17.0363 O   0  0  0  0  0  0  0  0  0  0  0  0
   16.4871  -15.3254   20.8343 N   0  0  0  0  0  0  0  0  0  0  0  0
   16.2490  -14.0823   20.1832 C   0  0  0  0  0  0  0  0  0  0  0  0
   17.0862  -13.1502   20.4604 O   0  0  0  0  0  0  0  0  0  0  0  0
   15.1487  -13.8071   19.2459 C   0  0  0  0  0  0  0  0  0  0  0  0
   14.3564  -15.0497   18.9743 C   0  0  2  0  0  0  0  0  0  0  0  0
   13.2788  -14.6883   18.0251 N   0  0  0  0  0  0  0  0  0  0  0  0
   13.7063  -15.4913   20.2534 C   0  0  0  0  0  0  0  0  0  0  0  0
   14.4219  -15.9684   21.2010 O   0  0  0  0  0  0  0  0  0  0  0  0
   12.3605  -15.4249   20.5038 O   0  0  0  0  0  0  0  0  0  0  0  0
  2  1  1  0
  2  3  1  0
  3  4  1  6
  5  3  1  0
  5  6  2  0
  7  8  1  0
  8 10  1  0
  9  8  2  0
 10 11  1  0
 12 11  1  1
 12 13  1  0
 13  5  1  0
 14 12  1  0
 15 14  2  0
 16 17  1  0
 17 19  1  0
 18 17  2  0
 20 19  1  1
 20 21  1  0
 20 22  1  0
 21 14  1  0
 22 24  1  0
 23 22  2  0
M  END
$$$$
