SQN.pdb
     RDKit          3D

 24 23  0  0  1  0  0  0  0  0999 V2000
    5.1937  -20.4409   20.1778 O   0  0  0  0  0  0  0  0  0  0  0  0
    5.9093  -19.2915   20.4075 C   0  0  0  0  0  0  0  0  0  0  0  0
    6.2398  -18.5511   19.1255 C   0  0  2  0  0  0  0  0  0  0  0  0
    6.5541  -19.4990   18.1060 N   0  0  0  0  0  0  0  0  0  0  0  0
    7.3200  -17.5615   19.3160 C   0  0  0  0  0  0  0  0  0  0  0  0
    8.5112  -17.7864   18.9755 O   0  0  0  0  0  0  0  0  0  0  0  0
    8.5935  -12.7578   17.8113 N   0  0  0  0  0  0  0  0  0  0  0  0
    9.0558  -12.7183   19.1667 C   0  0  0  0  0  0  0  0  0  0  0  0
   10.2856  -12.6357   19.3419 O   0  0  0  0  0  0  0  0  0  0  0  0
    8.1458  -12.7705   20.3180 C   0  0  0  0  0  0  0  0  0  0  0  0
    7.2081  -13.9415   20.1749 C   0  0  0  0  0  0  0  0  0  0  0  0
    7.9631  -15.2424   20.1090 C   0  0  2  0  0  0  0  0  0  0  0  0
    7.0097  -16.3113   19.9045 N   0  0  0  0  0  0  0  0  0  0  0  0
    8.6928  -15.3966   21.3932 C   0  0  0  0  0  0  0  0  0  0  0  0
    8.0016  -15.5552   22.4262 O   0  0  0  0  0  0  0  0  0  0  0  0
   10.6862  -17.2001   25.2459 N   0  0  0  0  0  0  0  0  0  0  0  0
   10.3694  -17.9450   24.0751 C   0  0  0  0  0  0  0  0  0  0  0  0
   10.0345  -19.1670   24.2782 O   0  0  0  0  0  0  0  0  0  0  0  0
   10.3968  -17.4246   22.6992 C   0  0  0  0  0  0  0  0  0  0  0  0
   10.7399  -15.9660   22.6877 C   0  0  2  0  0  0  0  0  0  0  0  0
   10.1051  -15.3718   21.4891 N   0  0  0  0  0  0  0  0  0  0  0  0
   12.2264  -15.8257   22.5315 C   0  0  0  0  0  0  0  0  0  0  0  0
   12.9893  -15.9462   23.5519 O   0  0  0  0  0  0  0  0  0  0  0  0
   12.8618  -15.5701   21.3444 O   0  0  0  0  0  0  0  0  0  0  0  0
  2  1  1  0
  2  3  1  0
  3  4  1  6
  5  3  1  0
  5  6  2  0
  7  8  1  0
  8 10  1  0
  9  8  2  0
 10 11  1  0
 12 11  1  1
 12 13  1  0
 13  5  1  0
 14 12  1  0
 15 14  2  0
 16 17  1  0
 17 19  1  0
 18 17  2  0
 20 19  1  6
 20 21  1  0
 20 22  1  0
 21 14  1  0
 22 24  1  0
 23 22  2  0
M  END
$$$$
