SQN.pdb
     RDKit          3D

 24 23  0  0  1  0  0  0  0  0999 V2000
    7.5296  -17.6959   21.1197 O   0  0  0  0  0  0  0  0  0  0  0  0
    6.5630  -16.8154   20.6998 C   0  0  0  0  0  0  0  0  0  0  0  0
    7.1339  -15.4532   20.3539 C   0  0  2  0  0  0  0  0  0  0  0  0
    7.8077  -15.5339   19.0984 N   0  0  0  0  0  0  0  0  0  0  0  0
    8.0095  -14.9284   21.4217 C   0  0  0  0  0  0  0  0  0  0  0  0
    9.2310  -14.6852   21.2363 O   0  0  0  0  0  0  0  0  0  0  0  0
    5.3837  -12.5195   26.6452 N   0  0  0  0  0  0  0  0  0  0  0  0
    6.7807  -12.2501   26.8129 C   0  0  0  0  0  0  0  0  0  0  0  0
    7.1096  -11.5669   27.8004 O   0  0  0  0  0  0  0  0  0  0  0  0
    7.8022  -12.7433   25.8804 C   0  0  0  0  0  0  0  0  0  0  0  0
    7.1479  -13.5382   24.7801 C   0  0  0  0  0  0  0  0  0  0  0  0
    8.1644  -14.0433   23.7910 C   0  0  2  0  0  0  0  0  0  0  0  0
    7.4597  -14.6888   22.7046 N   0  0  0  0  0  0  0  0  0  0  0  0
    9.0497  -14.9933   24.5116 C   0  0  0  0  0  0  0  0  0  0  0  0
    9.7040  -14.5406   25.4795 O   0  0  0  0  0  0  0  0  0  0  0  0
   13.3581  -16.8758   23.2228 N   0  0  0  0  0  0  0  0  0  0  0  0
   12.5816  -17.1925   24.3729 C   0  0  0  0  0  0  0  0  0  0  0  0
   12.9198  -18.2705   24.9815 O   0  0  0  0  0  0  0  0  0  0  0  0
   11.4606  -16.3934   24.8921 C   0  0  0  0  0  0  0  0  0  0  0  0
   10.1853  -17.1796   24.8595 C   0  0  2  0  0  0  0  0  0  0  0  0
    9.1768  -16.3570   24.1532 N   0  0  0  0  0  0  0  0  0  0  0  0
    9.7073  -17.3737   26.2693 C   0  0  0  0  0  0  0  0  0  0  0  0
   10.1414  -16.6112   27.2008 O   0  0  0  0  0  0  0  0  0  0  0  0
    8.8111  -18.3342   26.6600 O   0  0  0  0  0  0  0  0  0  0  0  0
  2  1  1  0
  2  3  1  0
  3  4  1  6
  5  3  1  0
  5  6  2  0
  7  8  1  0
  8 10  1  0
  9  8  2  0
 10 11  1  0
 12 11  1  1
 12 13  1  0
 13  5  1  0
 14 12  1  0
 15 14  2  0
 16 17  1  0
 17 19  1  0
 18 17  2  0
 20 19  1  1
 20 21  1  0
 20 22  1  0
 21 14  1  0
 22 24  1  0
 23 22  2  0
M  END
$$$$
