SQN.pdb
     RDKit          3D

 24 23  0  0  1  0  0  0  0  0999 V2000
    7.8447  -16.9664   17.1757 O   0  0  0  0  0  0  0  0  0  0  0  0
    8.0751  -16.3926   18.4019 C   0  0  0  0  0  0  0  0  0  0  0  0
    9.0816  -17.1739   19.2250 C   0  0  2  0  0  0  0  0  0  0  0  0
    8.7239  -18.5554   19.2127 N   0  0  0  0  0  0  0  0  0  0  0  0
    9.2087  -16.6450   20.5986 C   0  0  0  0  0  0  0  0  0  0  0  0
    9.4498  -15.4323   20.8368 O   0  0  0  0  0  0  0  0  0  0  0  0
    6.2389  -20.7580   24.0237 N   0  0  0  0  0  0  0  0  0  0  0  0
    7.3910  -20.0861   24.5466 C   0  0  0  0  0  0  0  0  0  0  0  0
    7.5422  -20.1025   25.7822 O   0  0  0  0  0  0  0  0  0  0  0  0
    8.3674  -19.4006   23.6902 C   0  0  0  0  0  0  0  0  0  0  0  0
    8.3043  -17.9146   23.9323 C   0  0  0  0  0  0  0  0  0  0  0  0
    9.2979  -17.1777   23.0742 C   0  0  2  0  0  0  0  0  0  0  0  0
    9.0555  -17.5314   21.6924 N   0  0  0  0  0  0  0  0  0  0  0  0
   10.6551  -17.5887   23.5156 C   0  0  0  0  0  0  0  0  0  0  0  0
   11.0644  -18.7091   23.1320 O   0  0  0  0  0  0  0  0  0  0  0  0
   14.2167  -17.4035   22.2316 N   0  0  0  0  0  0  0  0  0  0  0  0
   14.4460  -16.3362   23.1450 C   0  0  0  0  0  0  0  0  0  0  0  0
   15.2868  -15.4504   22.7514 O   0  0  0  0  0  0  0  0  0  0  0  0
   13.8039  -16.1861   24.4603 C   0  0  0  0  0  0  0  0  0  0  0  0
   12.8211  -17.2909   24.7030 C   0  0  2  0  0  0  0  0  0  0  0  0
   11.4814  -16.7803   24.3327 N   0  0  0  0  0  0  0  0  0  0  0  0
   12.8004  -17.5981   26.1724 C   0  0  0  0  0  0  0  0  0  0  0  0
   13.8195  -18.1398   26.7253 O   0  0  0  0  0  0  0  0  0  0  0  0
   11.7434  -17.3383   27.0051 O   0  0  0  0  0  0  0  0  0  0  0  0
  2  1  1  0
  2  3  1  0
  3  4  1  1
  5  3  1  0
  5  6  2  0
  7  8  1  0
  8 10  1  0
  9  8  2  0
 10 11  1  0
 12 11  1  1
 12 13  1  0
 13  5  1  0
 14 12  1  0
 15 14  2  0
 16 17  1  0
 17 19  1  0
 18 17  2  0
 20 19  1  1
 20 21  1  0
 20 22  1  0
 21 14  1  0
 22 24  1  0
 23 22  2  0
M  END
$$$$
