SQN.pdb
     RDKit          3D

 24 23  0  0  1  0  0  0  0  0999 V2000
    9.8700  -18.1389   14.3897 O   0  0  0  0  0  0  0  0  0  0  0  0
   10.7295  -17.5109   15.2572 C   0  0  0  0  0  0  0  0  0  0  0  0
   10.6594  -15.9996   15.1467 C   0  0  2  0  0  0  0  0  0  0  0  0
   11.2805  -15.5906   13.9287 N   0  0  0  0  0  0  0  0  0  0  0  0
   11.2472  -15.3269   16.3234 C   0  0  0  0  0  0  0  0  0  0  0  0
   12.4671  -15.0218   16.3887 O   0  0  0  0  0  0  0  0  0  0  0  0
    7.3876  -13.0987   20.7412 N   0  0  0  0  0  0  0  0  0  0  0  0
    7.5649  -12.7276   19.3689 C   0  0  0  0  0  0  0  0  0  0  0  0
    6.6664  -12.0403   18.8490 O   0  0  0  0  0  0  0  0  0  0  0  0
    8.7415  -13.1237   18.5846 C   0  0  0  0  0  0  0  0  0  0  0  0
    9.6667  -13.9541   19.4362 C   0  0  0  0  0  0  0  0  0  0  0  0
   10.8709  -14.4073   18.6544 C   0  0  2  0  0  0  0  0  0  0  0  0
   10.4118  -15.0120   17.4227 N   0  0  0  0  0  0  0  0  0  0  0  0
   11.6085  -15.3795   19.5009 C   0  0  0  0  0  0  0  0  0  0  0  0
   11.6589  -16.5643   19.0965 O   0  0  0  0  0  0  0  0  0  0  0  0
   16.2878  -15.2600   20.9259 N   0  0  0  0  0  0  0  0  0  0  0  0
   15.0144  -15.4550   20.3206 C   0  0  0  0  0  0  0  0  0  0  0  0
   14.6857  -14.5782   19.4432 O   0  0  0  0  0  0  0  0  0  0  0  0
   14.0863  -16.5562   20.6217 C   0  0  0  0  0  0  0  0  0  0  0  0
   12.9512  -16.0785   21.4754 C   0  0  2  0  0  0  0  0  0  0  0  0
   12.2406  -15.0240   20.7167 N   0  0  0  0  0  0  0  0  0  0  0  0
   13.5176  -15.4448   22.7129 C   0  0  0  0  0  0  0  0  0  0  0  0
   14.2198  -16.1434   23.5232 O   0  0  0  0  0  0  0  0  0  0  0  0
   13.3409  -14.1317   23.0634 O   0  0  0  0  0  0  0  0  0  0  0  0
  2  1  1  0
  2  3  1  0
  3  4  1  6
  5  3  1  0
  5  6  2  0
  7  8  1  0
  8 10  1  0
  9  8  2  0
 10 11  1  0
 12 11  1  1
 12 13  1  0
 13  5  1  0
 14 12  1  0
 15 14  2  0
 16 17  1  0
 17 19  1  0
 18 17  2  0
 20 19  1  6
 20 21  1  0
 20 22  1  0
 21 14  1  0
 22 24  1  0
 23 22  2  0
M  END
$$$$
