SQN.pdb
     RDKit          3D

 24 23  0  0  1  0  0  0  0  0999 V2000
    8.1352  -20.3628   20.9756 O   0  0  0  0  0  0  0  0  0  0  0  0
    7.2812  -19.6294   20.1890 C   0  0  0  0  0  0  0  0  0  0  0  0
    7.9715  -19.0557   18.9662 C   0  0  2  0  0  0  0  0  0  0  0  0
    8.4791  -20.1263   18.1707 N   0  0  0  0  0  0  0  0  0  0  0  0
    9.0238  -18.0829   19.3253 C   0  0  0  0  0  0  0  0  0  0  0  0
   10.2510  -18.3416   19.2126 O   0  0  0  0  0  0  0  0  0  0  0  0
    7.1822  -12.2909   20.2929 N   0  0  0  0  0  0  0  0  0  0  0  0
    7.7128  -12.7861   19.0578 C   0  0  0  0  0  0  0  0  0  0  0  0
    7.3572  -12.2038   18.0165 O   0  0  0  0  0  0  0  0  0  0  0  0
    8.6361  -13.9260   18.9903 C   0  0  0  0  0  0  0  0  0  0  0  0
    8.8513  -14.4911   20.3706 C   0  0  0  0  0  0  0  0  0  0  0  0
    9.5673  -15.8143   20.3146 C   0  0  2  0  0  0  0  0  0  0  0  0
    8.6436  -16.8102   19.8164 N   0  0  0  0  0  0  0  0  0  0  0  0
   10.0233  -16.1299   21.6924 C   0  0  0  0  0  0  0  0  0  0  0  0
    9.1708  -16.5992   22.4816 O   0  0  0  0  0  0  0  0  0  0  0  0
   12.6247  -18.0660   25.6508 N   0  0  0  0  0  0  0  0  0  0  0  0
   12.1466  -18.7067   24.4731 C   0  0  0  0  0  0  0  0  0  0  0  0
   12.1400  -19.9892   24.5123 O   0  0  0  0  0  0  0  0  0  0  0  0
   11.6743  -18.0204   23.2604 C   0  0  0  0  0  0  0  0  0  0  0  0
   11.7698  -16.5333   23.4179 C   0  0  2  0  0  0  0  0  0  0  0  0
   11.3527  -15.9250   22.1339 N   0  0  0  0  0  0  0  0  0  0  0  0
   13.2077  -16.1683   23.6480 C   0  0  0  0  0  0  0  0  0  0  0  0
   13.9036  -15.6824   22.6903 O   0  0  0  0  0  0  0  0  0  0  0  0
   13.8649  -16.3160   24.8416 O   0  0  0  0  0  0  0  0  0  0  0  0
  2  1  1  0
  2  3  1  0
  3  4  1  1
  5  3  1  0
  5  6  2  0
  7  8  1  0
  8 10  1  0
  9  8  2  0
 10 11  1  0
 12 11  1  1
 12 13  1  0
 13  5  1  0
 14 12  1  0
 15 14  2  0
 16 17  1  0
 17 19  1  0
 18 17  2  0
 20 19  1  6
 20 21  1  0
 20 22  1  0
 21 14  1  0
 22 24  1  0
 23 22  2  0
M  END
$$$$
