SQN.pdb
     RDKit          3D

 24 23  0  0  1  0  0  0  0  0999 V2000
   10.8841  -18.4907   16.3207 O   0  0  0  0  0  0  0  0  0  0  0  0
   10.1769  -17.4772   16.9195 C   0  0  0  0  0  0  0  0  0  0  0  0
   10.4943  -16.1198   16.3214 C   0  0  2  0  0  0  0  0  0  0  0  0
   11.4227  -16.2864   15.2504 N   0  0  0  0  0  0  0  0  0  0  0  0
   10.9827  -15.1640   17.3365 C   0  0  0  0  0  0  0  0  0  0  0  0
   12.1877  -14.8048   17.4028 O   0  0  0  0  0  0  0  0  0  0  0  0
    7.3528  -14.6335   18.4032 N   0  0  0  0  0  0  0  0  0  0  0  0
    7.3888  -13.2159   18.1993 C   0  0  0  0  0  0  0  0  0  0  0  0
    6.5448  -12.7357   17.4202 O   0  0  0  0  0  0  0  0  0  0  0  0
    8.3641  -12.3424   18.8643 C   0  0  0  0  0  0  0  0  0  0  0  0
    9.1372  -13.1291   19.8911 C   0  0  0  0  0  0  0  0  0  0  0  0
   10.4117  -13.6821   19.3109 C   0  0  2  0  0  0  0  0  0  0  0  0
   10.0653  -14.6292   18.2734 N   0  0  0  0  0  0  0  0  0  0  0  0
   11.1578  -14.3311   20.4190 C   0  0  0  0  0  0  0  0  0  0  0  0
   11.6467  -13.5794   21.2942 O   0  0  0  0  0  0  0  0  0  0  0  0
   14.5383  -17.6979   21.5837 N   0  0  0  0  0  0  0  0  0  0  0  0
   14.5119  -16.2756   21.6294 C   0  0  0  0  0  0  0  0  0  0  0  0
   15.6473  -15.7016   21.4619 O   0  0  0  0  0  0  0  0  0  0  0  0
   13.3126  -15.4510   21.8450 C   0  0  0  0  0  0  0  0  0  0  0  0
   12.0674  -16.2693   21.6864 C   0  0  2  0  0  0  0  0  0  0  0  0
   11.3312  -15.7326   20.5191 N   0  0  0  0  0  0  0  0  0  0  0  0
   11.2055  -16.0684   22.8991 C   0  0  0  0  0  0  0  0  0  0  0  0
   10.0902  -15.4500   22.7936 O   0  0  0  0  0  0  0  0  0  0  0  0
   11.5223  -16.5071   24.1582 O   0  0  0  0  0  0  0  0  0  0  0  0
  2  1  1  0
  2  3  1  0
  3  4  1  6
  5  3  1  0
  5  6  2  0
  7  8  1  0
  8 10  1  0
  9  8  2  0
 10 11  1  0
 12 11  1  1
 12 13  1  0
 13  5  1  0
 14 12  1  0
 15 14  2  0
 16 17  1  0
 17 19  1  0
 18 17  2  0
 20 19  1  1
 20 21  1  0
 20 22  1  0
 21 14  1  0
 22 24  1  0
 23 22  2  0
M  END
$$$$
