SQN.pdb
     RDKit          3D

 24 23  0  0  1  0  0  0  0  0999 V2000
    8.7476  -20.3820   19.2905 O   0  0  0  0  0  0  0  0  0  0  0  0
    8.7319  -19.0419   19.5901 C   0  0  0  0  0  0  0  0  0  0  0  0
    9.3588  -18.1983   18.4963 C   0  0  2  0  0  0  0  0  0  0  0  0
   10.0754  -19.0493   17.6024 N   0  0  0  0  0  0  0  0  0  0  0  0
   10.2111  -17.1220   19.0420 C   0  0  0  0  0  0  0  0  0  0  0  0
   11.4680  -17.1957   19.0552 O   0  0  0  0  0  0  0  0  0  0  0  0
    6.8240  -12.9540   19.2358 N   0  0  0  0  0  0  0  0  0  0  0  0
    7.7908  -13.0216   18.1808 C   0  0  0  0  0  0  0  0  0  0  0  0
    7.3744  -12.8450   17.0209 O   0  0  0  0  0  0  0  0  0  0  0  0
    9.2148  -13.2851   18.4242 C   0  0  0  0  0  0  0  0  0  0  0  0
    9.4348  -13.5940   19.8826 C   0  0  0  0  0  0  0  0  0  0  0  0
   10.3138  -14.8035   20.0592 C   0  0  2  0  0  0  0  0  0  0  0  0
    9.5963  -15.9618   19.5725 N   0  0  0  0  0  0  0  0  0  0  0  0
   10.6232  -14.9187   21.5072 C   0  0  0  0  0  0  0  0  0  0  0  0
   11.4050  -14.0683   21.9926 O   0  0  0  0  0  0  0  0  0  0  0  0
    8.0252  -17.0690   23.0329 N   0  0  0  0  0  0  0  0  0  0  0  0
    8.2040  -16.2960   24.2146 C   0  0  0  0  0  0  0  0  0  0  0  0
    7.1553  -16.1559   24.9406 O   0  0  0  0  0  0  0  0  0  0  0  0
    9.4660  -15.6729   24.6438 C   0  0  0  0  0  0  0  0  0  0  0  0
   10.5866  -16.0496   23.7231 C   0  0  2  0  0  0  0  0  0  0  0  0
   10.0797  -15.9288   22.3370 N   0  0  0  0  0  0  0  0  0  0  0  0
   10.9330  -17.4916   23.9565 C   0  0  0  0  0  0  0  0  0  0  0  0
   10.7060  -18.3581   23.0426 O   0  0  0  0  0  0  0  0  0  0  0  0
   11.4930  -17.9791   25.1084 O   0  0  0  0  0  0  0  0  0  0  0  0
  2  1  1  0
  2  3  1  0
  3  4  1  6
  5  3  1  0
  5  6  2  0
  7  8  1  0
  8 10  1  0
  9  8  2  0
 10 11  1  0
 12 11  1  1
 12 13  1  0
 13  5  1  0
 14 12  1  0
 15 14  2  0
 16 17  1  0
 17 19  1  0
 18 17  2  0
 20 19  1  1
 20 21  1  0
 20 22  1  0
 21 14  1  0
 22 24  1  0
 23 22  2  0
M  END
$$$$
