SQN.pdb
     RDKit          3D

 24 23  0  0  1  0  0  0  0  0999 V2000
    9.7648  -17.2738   14.7844 O   0  0  0  0  0  0  0  0  0  0  0  0
    8.6825  -18.1186   14.8108 C   0  0  0  0  0  0  0  0  0  0  0  0
    7.6548  -17.7083   15.8483 C   0  0  2  0  0  0  0  0  0  0  0  0
    7.0348  -16.4908   15.4361 N   0  0  0  0  0  0  0  0  0  0  0  0
    8.2396  -17.6038   17.2010 C   0  0  0  0  0  0  0  0  0  0  0  0
    8.0113  -16.6277   17.9630 O   0  0  0  0  0  0  0  0  0  0  0  0
    5.8184  -21.3681   20.6596 N   0  0  0  0  0  0  0  0  0  0  0  0
    7.0951  -20.7186   20.6817 C   0  0  0  0  0  0  0  0  0  0  0  0
    7.7415  -20.7794   21.7440 O   0  0  0  0  0  0  0  0  0  0  0  0
    7.6439  -20.0060   19.5209 C   0  0  0  0  0  0  0  0  0  0  0  0
    8.5825  -18.9220   19.9842 C   0  0  0  0  0  0  0  0  0  0  0  0
    9.6812  -18.6845   18.9827 C   0  0  2  0  0  0  0  0  0  0  0  0
    9.0906  -18.6372   17.6627 N   0  0  0  0  0  0  0  0  0  0  0  0
   10.6476  -19.8048   19.1113 C   0  0  0  0  0  0  0  0  0  0  0  0
   10.4888  -20.7853   18.3475 O   0  0  0  0  0  0  0  0  0  0  0  0
   15.6436  -19.7564   18.2681 N   0  0  0  0  0  0  0  0  0  0  0  0
   14.6838  -18.7223   18.0799 C   0  0  0  0  0  0  0  0  0  0  0  0
   15.0408  -17.7834   17.2814 O   0  0  0  0  0  0  0  0  0  0  0  0
   13.3578  -18.6631   18.7147 C   0  0  0  0  0  0  0  0  0  0  0  0
   13.0993  -19.8965   19.5255 C   0  0  2  0  0  0  0  0  0  0  0  0
   11.7145  -19.8040   20.0419 N   0  0  0  0  0  0  0  0  0  0  0  0
   14.0260  -19.8951   20.7065 C   0  0  0  0  0  0  0  0  0  0  0  0
   15.2701  -20.1451   20.5415 O   0  0  0  0  0  0  0  0  0  0  0  0
   13.6397  -19.6392   21.9963 O   0  0  0  0  0  0  0  0  0  0  0  0
  2  1  1  0
  2  3  1  0
  3  4  1  6
  5  3  1  0
  5  6  2  0
  7  8  1  0
  8 10  1  0
  9  8  2  0
 10 11  1  0
 12 11  1  1
 12 13  1  0
 13  5  1  0
 14 12  1  0
 15 14  2  0
 16 17  1  0
 17 19  1  0
 18 17  2  0
 20 19  1  6
 20 21  1  0
 20 22  1  0
 21 14  1  0
 22 24  1  0
 23 22  2  0
M  END
$$$$
