SQN.pdb
     RDKit          3D

 24 23  0  0  1  0  0  0  0  0999 V2000
   10.0347  -15.3710   23.3028 O   0  0  0  0  0  0  0  0  0  0  0  0
    9.0123  -14.4542   23.3046 C   0  0  0  0  0  0  0  0  0  0  0  0
    7.8121  -14.9263   22.5060 C   0  0  2  0  0  0  0  0  0  0  0  0
    7.1646  -15.9820   23.2152 N   0  0  0  0  0  0  0  0  0  0  0  0
    8.1788  -15.3237   21.1311 C   0  0  0  0  0  0  0  0  0  0  0  0
    8.1051  -16.5146   20.7290 O   0  0  0  0  0  0  0  0  0  0  0  0
    8.7550  -13.6295   15.3374 N   0  0  0  0  0  0  0  0  0  0  0  0
    7.5439  -13.3844   16.0623 C   0  0  0  0  0  0  0  0  0  0  0  0
    6.4872  -13.3595   15.4047 O   0  0  0  0  0  0  0  0  0  0  0  0
    7.5174  -13.1690   17.5147 C   0  0  0  0  0  0  0  0  0  0  0  0
    8.9074  -13.3159   18.0780 C   0  0  0  0  0  0  0  0  0  0  0  0
    9.0465  -14.5913   18.8659 C   0  0  2  0  0  0  0  0  0  0  0  0
    8.6319  -14.3319   20.2276 N   0  0  0  0  0  0  0  0  0  0  0  0
   10.4719  -15.0022   18.7955 C   0  0  0  0  0  0  0  0  0  0  0  0
   10.9568  -15.1853   17.6548 O   0  0  0  0  0  0  0  0  0  0  0  0
   15.3735  -15.6039   18.2761 N   0  0  0  0  0  0  0  0  0  0  0  0
   14.8246  -14.5225   19.0213 C   0  0  0  0  0  0  0  0  0  0  0  0
   15.6837  -13.7125   19.5236 O   0  0  0  0  0  0  0  0  0  0  0  0
   13.3903  -14.2800   19.2426 C   0  0  0  0  0  0  0  0  0  0  0  0
   12.7122  -15.5171   19.7477 C   0  0  2  0  0  0  0  0  0  0  0  0
   11.2813  -15.1891   19.9419 N   0  0  0  0  0  0  0  0  0  0  0  0
   13.2860  -15.8622   21.0914 C   0  0  0  0  0  0  0  0  0  0  0  0
   12.6096  -15.6300   22.1525 O   0  0  0  0  0  0  0  0  0  0  0  0
   14.5195  -16.4264   21.2873 O   0  0  0  0  0  0  0  0  0  0  0  0
  2  1  1  0
  2  3  1  0
  3  4  1  1
  5  3  1  0
  5  6  2  0
  7  8  1  0
  8 10  1  0
  9  8  2  0
 10 11  1  0
 12 11  1  6
 12 13  1  0
 13  5  1  0
 14 12  1  0
 15 14  2  0
 16 17  1  0
 17 19  1  0
 18 17  2  0
 20 19  1  1
 20 21  1  0
 20 22  1  0
 21 14  1  0
 22 24  1  0
 23 22  2  0
M  END
$$$$
