SQN.pdb
     RDKit          3D

 24 23  0  0  1  0  0  0  0  0999 V2000
    9.4329  -19.3801   17.7475 O   0  0  0  0  0  0  0  0  0  0  0  0
    8.3198  -18.7751   17.2174 C   0  0  0  0  0  0  0  0  0  0  0  0
    8.5998  -17.3598   16.7489 C   0  0  2  0  0  0  0  0  0  0  0  0
    9.3404  -17.4087   15.5300 N   0  0  0  0  0  0  0  0  0  0  0  0
    9.2834  -16.5556   17.7826 C   0  0  0  0  0  0  0  0  0  0  0  0
   10.5165  -16.3044   17.7382 O   0  0  0  0  0  0  0  0  0  0  0  0
    9.6305  -12.6734   19.5716 N   0  0  0  0  0  0  0  0  0  0  0  0
    8.2346  -12.5931   19.2597 C   0  0  0  0  0  0  0  0  0  0  0  0
    7.8713  -11.6492   18.5338 O   0  0  0  0  0  0  0  0  0  0  0  0
    7.2524  -13.5646   19.7577 C   0  0  0  0  0  0  0  0  0  0  0  0
    7.9344  -14.5672   20.6525 C   0  0  0  0  0  0  0  0  0  0  0  0
    9.0746  -15.2476   19.9427 C   0  0  2  0  0  0  0  0  0  0  0  0
    8.5284  -16.0464   18.8671 N   0  0  0  0  0  0  0  0  0  0  0  0
    9.7823  -16.0860   20.9437 C   0  0  0  0  0  0  0  0  0  0  0  0
    9.3331  -17.2388   21.1415 O   0  0  0  0  0  0  0  0  0  0  0  0
   14.1104  -18.5533   23.0355 N   0  0  0  0  0  0  0  0  0  0  0  0
   13.9590  -17.1457   23.1837 C   0  0  0  0  0  0  0  0  0  0  0  0
   14.6140  -16.6244   24.1562 O   0  0  0  0  0  0  0  0  0  0  0  0
   13.1340  -16.2813   22.3252 C   0  0  0  0  0  0  0  0  0  0  0  0
   11.6826  -16.6308   22.4545 C   0  0  2  0  0  0  0  0  0  0  0  0
   10.9172  -15.6405   21.6632 N   0  0  0  0  0  0  0  0  0  0  0  0
   11.2792  -16.4738   23.8919 C   0  0  0  0  0  0  0  0  0  0  0  0
   10.5851  -15.4611   24.2528 O   0  0  0  0  0  0  0  0  0  0  0  0
   11.6025  -17.3557   24.8899 O   0  0  0  0  0  0  0  0  0  0  0  0
  2  1  1  0
  2  3  1  0
  3  4  1  6
  5  3  1  0
  5  6  2  0
  7  8  1  0
  8 10  1  0
  9  8  2  0
 10 11  1  0
 12 11  1  1
 12 13  1  0
 13  5  1  0
 14 12  1  0
 15 14  2  0
 16 17  1  0
 17 19  1  0
 18 17  2  0
 20 19  1  1
 20 21  1  0
 20 22  1  0
 21 14  1  0
 22 24  1  0
 23 22  2  0
M  END
$$$$
