SQN.pdb
     RDKit          3D

 24 23  0  0  1  0  0  0  0  0999 V2000
    7.5318  -16.6926   20.1005 O   0  0  0  0  0  0  0  0  0  0  0  0
    6.5728  -15.7104   20.0611 C   0  0  0  0  0  0  0  0  0  0  0  0
    7.1682  -14.3181   20.1512 C   0  0  2  0  0  0  0  0  0  0  0  0
    7.8889  -14.0393   18.9514 N   0  0  0  0  0  0  0  0  0  0  0  0
    8.0068  -14.1474   21.3555 C   0  0  0  0  0  0  0  0  0  0  0  0
    9.2651  -14.1676   21.3118 O   0  0  0  0  0  0  0  0  0  0  0  0
    5.5710  -12.1113   26.8401 N   0  0  0  0  0  0  0  0  0  0  0  0
    6.9466  -12.3773   27.1387 C   0  0  0  0  0  0  0  0  0  0  0  0
    7.3801  -11.9557   28.2269 O   0  0  0  0  0  0  0  0  0  0  0  0
    7.8304  -13.1110   26.2239 C   0  0  0  0  0  0  0  0  0  0  0  0
    7.1316  -13.3331   24.9073 C   0  0  0  0  0  0  0  0  0  0  0  0
    8.0732  -13.8953   23.8759 C   0  0  2  0  0  0  0  0  0  0  0  0
    7.3769  -13.9546   22.6090 N   0  0  0  0  0  0  0  0  0  0  0  0
    8.4836  -15.2451   24.3398 C   0  0  0  0  0  0  0  0  0  0  0  0
    7.6445  -16.1681   24.2217 O   0  0  0  0  0  0  0  0  0  0  0  0
   12.1131  -16.6174   22.3737 N   0  0  0  0  0  0  0  0  0  0  0  0
   11.4045  -17.4145   23.3163 C   0  0  0  0  0  0  0  0  0  0  0  0
   10.6974  -18.3591   22.8120 O   0  0  0  0  0  0  0  0  0  0  0  0
   11.4310  -17.2350   24.7764 C   0  0  0  0  0  0  0  0  0  0  0  0
   10.0644  -16.9102   25.2984 C   0  0  2  0  0  0  0  0  0  0  0  0
    9.7565  -15.5189   24.8957 N   0  0  0  0  0  0  0  0  0  0  0  0
   10.1035  -16.9512   26.7986 C   0  0  0  0  0  0  0  0  0  0  0  0
    9.9301  -15.8762   27.4709 O   0  0  0  0  0  0  0  0  0  0  0  0
   10.3170  -18.0845   27.5391 O   0  0  0  0  0  0  0  0  0  0  0  0
  2  1  1  0
  2  3  1  0
  3  4  1  6
  5  3  1  0
  5  6  2  0
  7  8  1  0
  8 10  1  0
  9  8  2  0
 10 11  1  0
 12 11  1  1
 12 13  1  0
 13  5  1  0
 14 12  1  0
 15 14  2  0
 16 17  1  0
 17 19  1  0
 18 17  2  0
 20 19  1  6
 20 21  1  0
 20 22  1  0
 21 14  1  0
 22 24  1  0
 23 22  2  0
M  END
$$$$
