SQN.pdb
     RDKit          3D

 24 23  0  0  1  0  0  0  0  0999 V2000
    7.5570  -15.8298   19.3212 O   0  0  0  0  0  0  0  0  0  0  0  0
    6.6406  -14.8198   19.4819 C   0  0  0  0  0  0  0  0  0  0  0  0
    7.2791  -13.5329   19.9689 C   0  0  2  0  0  0  0  0  0  0  0  0
    8.1407  -13.0242   18.9513 N   0  0  0  0  0  0  0  0  0  0  0  0
    7.9837  -13.7123   21.2550 C   0  0  0  0  0  0  0  0  0  0  0  0
    9.2365  -13.8130   21.3315 O   0  0  0  0  0  0  0  0  0  0  0  0
    5.6617  -11.7218   26.5145 N   0  0  0  0  0  0  0  0  0  0  0  0
    6.7411  -12.5536   26.9563 C   0  0  0  0  0  0  0  0  0  0  0  0
    7.2800  -12.2529   28.0375 O   0  0  0  0  0  0  0  0  0  0  0  0
    7.2133  -13.7149   26.1915 C   0  0  0  0  0  0  0  0  0  0  0  0
    6.6925  -13.6422   24.7793 C   0  0  0  0  0  0  0  0  0  0  0  0
    7.7950  -13.8603   23.7775 C   0  0  2  0  0  0  0  0  0  0  0  0
    7.2262  -13.7750   22.4499 N   0  0  0  0  0  0  0  0  0  0  0  0
    8.3738  -15.2024   24.0409 C   0  0  0  0  0  0  0  0  0  0  0  0
    7.6755  -16.1954   23.7305 O   0  0  0  0  0  0  0  0  0  0  0  0
   11.4473  -19.3199   24.5454 N   0  0  0  0  0  0  0  0  0  0  0  0
   12.1934  -18.1123   24.6505 C   0  0  0  0  0  0  0  0  0  0  0  0
   13.4572  -18.2625   24.8143 O   0  0  0  0  0  0  0  0  0  0  0  0
   11.6319  -16.7540   24.5831 C   0  0  0  0  0  0  0  0  0  0  0  0
   10.1475  -16.7800   24.7863 C   0  0  2  0  0  0  0  0  0  0  0  0
    9.6535  -15.3946   24.6151 N   0  0  0  0  0  0  0  0  0  0  0  0
    9.8660  -17.1913   26.2024 C   0  0  0  0  0  0  0  0  0  0  0  0
    9.8855  -18.4301   26.5227 O   0  0  0  0  0  0  0  0  0  0  0  0
    9.5788  -16.3210   27.2213 O   0  0  0  0  0  0  0  0  0  0  0  0
  2  1  1  0
  2  3  1  0
  3  4  1  6
  5  3  1  0
  5  6  2  0
  7  8  1  0
  8 10  1  0
  9  8  2  0
 10 11  1  0
 12 11  1  1
 12 13  1  0
 13  5  1  0
 14 12  1  0
 15 14  2  0
 16 17  1  0
 17 19  1  0
 18 17  2  0
 20 19  1  1
 20 21  1  0
 20 22  1  0
 21 14  1  0
 22 24  1  0
 23 22  2  0
M  END
$$$$
