SQN.pdb
     RDKit          3D

 24 23  0  0  1  0  0  0  0  0999 V2000
    7.7846  -15.6528   19.1979 O   0  0  0  0  0  0  0  0  0  0  0  0
    6.7388  -14.8035   19.4642 C   0  0  0  0  0  0  0  0  0  0  0  0
    7.2083  -13.4298   19.9042 C   0  0  2  0  0  0  0  0  0  0  0  0
    7.8281  -12.7717   18.8000 N   0  0  0  0  0  0  0  0  0  0  0  0
    8.0974  -13.4956   21.0822 C   0  0  0  0  0  0  0  0  0  0  0  0
    9.3427  -13.3278   20.9999 O   0  0  0  0  0  0  0  0  0  0  0  0
    5.6001  -13.3861   26.8382 N   0  0  0  0  0  0  0  0  0  0  0  0
    6.3621  -12.2667   26.3707 C   0  0  0  0  0  0  0  0  0  0  0  0
    6.1745  -11.1771   26.9431 O   0  0  0  0  0  0  0  0  0  0  0  0
    7.3281  -12.3678   25.2694 C   0  0  0  0  0  0  0  0  0  0  0  0
    7.3540  -13.7788   24.7410 C   0  0  0  0  0  0  0  0  0  0  0  0
    8.2965  -13.9090   23.5742 C   0  0  2  0  0  0  0  0  0  0  0  0
    7.5333  -13.7581   22.3543 N   0  0  0  0  0  0  0  0  0  0  0  0
    8.9289  -15.2498   23.6631 C   0  0  0  0  0  0  0  0  0  0  0  0
    8.2926  -16.2136   23.1771 O   0  0  0  0  0  0  0  0  0  0  0  0
   13.8170  -18.5098   24.7151 N   0  0  0  0  0  0  0  0  0  0  0  0
   12.7380  -18.1547   23.8573 C   0  0  0  0  0  0  0  0  0  0  0  0
   12.2978  -19.1014   23.1114 O   0  0  0  0  0  0  0  0  0  0  0  0
   12.1157  -16.8240   23.7752 C   0  0  0  0  0  0  0  0  0  0  0  0
   10.7159  -16.8562   24.3088 C   0  0  2  0  0  0  0  0  0  0  0  0
   10.1926  -15.4717   24.2614 N   0  0  0  0  0  0  0  0  0  0  0  0
   10.7630  -17.2753   25.7496 C   0  0  0  0  0  0  0  0  0  0  0  0
   11.2076  -18.4336   26.0628 O   0  0  0  0  0  0  0  0  0  0  0  0
   10.3553  -16.4941   26.7993 O   0  0  0  0  0  0  0  0  0  0  0  0
  2  1  1  0
  2  3  1  0
  3  4  1  6
  5  3  1  0
  5  6  2  0
  7  8  1  0
  8 10  1  0
  9  8  2  0
 10 11  1  0
 12 11  1  1
 12 13  1  0
 13  5  1  0
 14 12  1  0
 15 14  2  0
 16 17  1  0
 17 19  1  0
 18 17  2  0
 20 19  1  1
 20 21  1  0
 20 22  1  0
 21 14  1  0
 22 24  1  0
 23 22  2  0
M  END
$$$$
