NAH.pdb
     RDKit          3D

 24 24  0  0  1  0  0  0  0  0999 V2000
   15.7399  -11.5421  -17.1378 N   0  0  0  0  0  0  0  0  0  0  0  0
   16.1493  -12.0390  -15.8776 C   0  0  0  0  0  0  0  0  0  0  0  0
   15.4082  -12.8562  -15.2917 O   0  0  0  0  0  0  0  0  0  0  0  0
   17.4246  -11.5938  -15.2808 C   0  0  0  0  0  0  0  0  0  0  0  0
   18.0126  -10.5262  -16.1436 C   0  0  2  0  0  0  0  0  0  0  0  0
   18.6750  -11.1631  -17.2600 N   0  0  0  0  0  0  0  0  0  0  0  0
   18.9644   -9.6515  -15.4185 C   0  0  0  0  0  0  0  0  0  0  0  0
   18.5674   -8.9999  -14.4192 O   0  0  0  0  0  0  0  0  0  0  0  0
   22.6978   -8.9890  -15.4348 C   0  0  0  0  0  0  0  0  0  0  0  0
   21.2661   -8.6713  -15.1041 C   0  0  2  0  0  0  0  0  0  0  0  0
   20.3208   -9.5046  -15.7933 N   0  0  0  0  0  0  0  0  0  0  0  0
   21.0454   -7.2282  -15.3465 C   0  0  0  0  0  0  0  0  0  0  0  0
   20.7376   -6.8817  -16.5151 O   0  0  0  0  0  0  0  0  0  0  0  0
   21.1555   -6.2273  -14.3673 N   0  0  0  0  0  0  0  0  0  0  0  0
   20.9128   -4.8116  -14.6013 C   0  0  1  0  0  0  0  0  0  0  0  0
   19.6648   -4.3368  -13.9532 C   0  0  0  0  0  0  0  0  0  0  0  0
   18.4718   -4.8170  -14.6811 C   0  0  0  0  0  0  0  0  0  0  0  0
   18.3775   -5.5357  -15.8637 C   0  0  0  0  0  0  0  0  0  0  0  0
   17.0868   -5.7310  -16.1638 N   0  0  0  0  0  0  0  0  0  0  0  0
   16.3495   -5.1640  -15.2178 C   0  0  0  0  0  0  0  0  0  0  0  0
   17.1646   -4.6158  -14.3285 N   0  0  0  0  0  0  0  0  0  0  0  0
   22.0954   -4.0685  -14.1378 C   0  0  0  0  0  0  0  0  0  0  0  0
   22.3896   -2.7557  -14.4691 O   0  0  0  0  0  0  0  0  0  0  0  0
   22.9345   -4.6315  -13.3798 O   0  0  0  0  0  0  0  0  0  0  0  0
  2  1  1  0
  3  2  2  0
  4  5  1  0
  4  2  1  0
  5  6  1  6
  7 11  1  0
  7  5  1  0
  8  7  2  0
 10  9  1  6
 10 12  1  0
 10 11  1  0
 12 14  1  0
 13 12  2  0
 14 15  1  0
 15 16  1  1
 15 22  1  0
 17 16  1  0
 18 17  2  0
 19 20  1  0
 19 18  1  0
 20 21  2  0
 21 17  1  0
 22 24  2  0
 22 23  1  0
M  END
$$$$
