NAH.pdb
     RDKit          3D

 24 24  0  0  1  0  0  0  0  0999 V2000
   23.4978  -13.0995  -17.6610 N   0  0  0  0  0  0  0  0  0  0  0  0
   22.4939  -13.3097  -16.6859 C   0  0  0  0  0  0  0  0  0  0  0  0
   21.8595  -14.3855  -16.7084 O   0  0  0  0  0  0  0  0  0  0  0  0
   22.2132  -12.2736  -15.6716 C   0  0  0  0  0  0  0  0  0  0  0  0
   23.1224  -11.1124  -15.9059 C   0  0  2  0  0  0  0  0  0  0  0  0
   24.4532  -11.4902  -15.4853 N   0  0  0  0  0  0  0  0  0  0  0  0
   22.6928   -9.8852  -15.1945 C   0  0  0  0  0  0  0  0  0  0  0  0
   22.8333   -9.8121  -13.9473 O   0  0  0  0  0  0  0  0  0  0  0  0
   21.3331   -6.4551  -16.1098 C   0  0  0  0  0  0  0  0  0  0  0  0
   21.6322   -7.5977  -15.1798 C   0  0  2  0  0  0  0  0  0  0  0  0
   22.1224   -8.7691  -15.8509 N   0  0  0  0  0  0  0  0  0  0  0  0
   20.4226   -7.8624  -14.3694 C   0  0  0  0  0  0  0  0  0  0  0  0
   19.5487   -8.6152  -14.8694 O   0  0  0  0  0  0  0  0  0  0  0  0
   20.1865   -7.3340  -13.0896 N   0  0  0  0  0  0  0  0  0  0  0  0
   18.9680   -7.5412  -12.3215 C   0  0  1  0  0  0  0  0  0  0  0  0
   19.1866   -7.3883  -10.8614 C   0  0  0  0  0  0  0  0  0  0  0  0
   17.9326   -7.6055  -10.1105 C   0  0  0  0  0  0  0  0  0  0  0  0
   17.3207   -8.7869   -9.7182 C   0  0  0  0  0  0  0  0  0  0  0  0
   16.1798   -8.5048   -9.0755 N   0  0  0  0  0  0  0  0  0  0  0  0
   16.0369   -7.1863   -9.0412 C   0  0  0  0  0  0  0  0  0  0  0  0
   17.0760   -6.6396   -9.6553 N   0  0  0  0  0  0  0  0  0  0  0  0
   17.9498   -6.6084  -12.8303 C   0  0  0  0  0  0  0  0  0  0  0  0
   16.5944   -6.8819  -12.9188 O   0  0  0  0  0  0  0  0  0  0  0  0
   18.2927   -5.4600  -13.2294 O   0  0  0  0  0  0  0  0  0  0  0  0
  2  1  1  0
  3  2  2  0
  4  5  1  0
  4  2  1  0
  5  6  1  1
  7 11  1  0
  7  5  1  0
  8  7  2  0
 10  9  1  6
 10 12  1  0
 10 11  1  0
 12 14  1  0
 13 12  2  0
 14 15  1  0
 15 16  1  1
 15 22  1  0
 17 16  1  0
 18 17  2  0
 19 20  1  0
 19 18  1  0
 20 21  2  0
 21 17  1  0
 22 24  2  0
 22 23  1  0
M  END
$$$$
