NAH.pdb
     RDKit          3D

 24 24  0  0  1  0  0  0  0  0999 V2000
   13.3581  -12.5563  -15.0204 N   0  0  0  0  0  0  0  0  0  0  0  0
   14.2178  -12.0682  -14.0078 C   0  0  0  0  0  0  0  0  0  0  0  0
   13.8202  -12.1005  -12.8241 O   0  0  0  0  0  0  0  0  0  0  0  0
   15.5506  -11.5359  -14.3561 C   0  0  0  0  0  0  0  0  0  0  0  0
   15.6977  -11.5420  -15.8421 C   0  0  2  0  0  0  0  0  0  0  0  0
   15.7893  -12.9170  -16.2801 N   0  0  0  0  0  0  0  0  0  0  0  0
   16.8775  -10.7781  -16.3125 C   0  0  0  0  0  0  0  0  0  0  0  0
   17.8582  -11.3942  -16.8018 O   0  0  0  0  0  0  0  0  0  0  0  0
   17.8094   -7.1148  -16.7480 C   0  0  0  0  0  0  0  0  0  0  0  0
   18.0604   -8.5971  -16.7611 C   0  0  2  0  0  0  0  0  0  0  0  0
   16.9656   -9.3678  -16.2412 N   0  0  0  0  0  0  0  0  0  0  0  0
   19.3340   -8.8562  -16.0534 C   0  0  0  0  0  0  0  0  0  0  0  0
   19.2800   -8.9990  -14.8057 O   0  0  0  0  0  0  0  0  0  0  0  0
   20.5891   -8.9526  -16.6764 N   0  0  0  0  0  0  0  0  0  0  0  0
   21.8416   -9.2013  -15.9783 C   0  0  1  0  0  0  0  0  0  0  0  0
   22.9533   -9.5228  -16.9078 C   0  0  0  0  0  0  0  0  0  0  0  0
   24.1860   -9.8596  -16.1658 C   0  0  0  0  0  0  0  0  0  0  0  0
   24.3595  -10.6359  -15.0295 C   0  0  0  0  0  0  0  0  0  0  0  0
   25.6557  -10.6468  -14.6918 N   0  0  0  0  0  0  0  0  0  0  0  0
   26.3202   -9.9060  -15.5693 C   0  0  0  0  0  0  0  0  0  0  0  0
   25.4542   -9.4315  -16.4527 N   0  0  0  0  0  0  0  0  0  0  0  0
   22.1368   -8.0229  -15.1477 C   0  0  0  0  0  0  0  0  0  0  0  0
   22.6385   -8.0657  -13.8568 O   0  0  0  0  0  0  0  0  0  0  0  0
   21.9307   -6.8636  -15.6051 O   0  0  0  0  0  0  0  0  0  0  0  0
  2  1  1  0
  3  2  2  0
  4  5  1  0
  4  2  1  0
  5  6  1  1
  7 11  1  0
  7  5  1  0
  8  7  2  0
 10  9  1  1
 10 12  1  0
 10 11  1  0
 12 14  1  0
 13 12  2  0
 14 15  1  0
 15 16  1  6
 15 22  1  0
 17 16  1  0
 18 17  2  0
 19 20  1  0
 19 18  1  0
 20 21  2  0
 21 17  1  0
 22 24  2  0
 22 23  1  0
M  END
$$$$
