NAH.pdb
     RDKit          3D

 24 24  0  0  1  0  0  0  0  0999 V2000
   16.9786  -11.8049  -19.5373 N   0  0  0  0  0  0  0  0  0  0  0  0
   16.5288  -11.3444  -18.2771 C   0  0  0  0  0  0  0  0  0  0  0  0
   15.2986  -11.3001  -18.0650 O   0  0  0  0  0  0  0  0  0  0  0  0
   17.5013  -10.9291  -17.2462 C   0  0  0  0  0  0  0  0  0  0  0  0
   18.8816  -11.1072  -17.7875 C   0  0  2  0  0  0  0  0  0  0  0  0
   19.2455  -12.4993  -17.6445 N   0  0  0  0  0  0  0  0  0  0  0  0
   19.8847  -10.2472  -17.1160 C   0  0  0  0  0  0  0  0  0  0  0  0
   20.1262  -10.4173  -15.8939 O   0  0  0  0  0  0  0  0  0  0  0  0
   22.3644   -7.5486  -18.1305 C   0  0  0  0  0  0  0  0  0  0  0  0
   21.5679   -8.3703  -17.1556 C   0  0  2  0  0  0  0  0  0  0  0  0
   20.6003   -9.2256  -17.7840 N   0  0  0  0  0  0  0  0  0  0  0  0
   20.9664   -7.4534  -16.1619 C   0  0  0  0  0  0  0  0  0  0  0  0
   19.8080   -7.0271  -16.3999 O   0  0  0  0  0  0  0  0  0  0  0  0
   21.5970   -7.0304  -14.9803 N   0  0  0  0  0  0  0  0  0  0  0  0
   21.0304   -6.0794  -14.0356 C   0  0  1  0  0  0  0  0  0  0  0  0
   21.0530   -6.5857  -12.6406 C   0  0  0  0  0  0  0  0  0  0  0  0
   19.9864   -7.5843  -12.4201 C   0  0  0  0  0  0  0  0  0  0  0  0
   19.0270   -8.0729  -13.2946 C   0  0  0  0  0  0  0  0  0  0  0  0
   18.2469   -8.9526  -12.6529 N   0  0  0  0  0  0  0  0  0  0  0  0
   18.6701   -9.0463  -11.3990 C   0  0  0  0  0  0  0  0  0  0  0  0
   19.7067   -8.2349  -11.2486 N   0  0  0  0  0  0  0  0  0  0  0  0
   21.7639   -4.8114  -14.1771 C   0  0  0  0  0  0  0  0  0  0  0  0
   21.3936   -3.6096  -13.5954 O   0  0  0  0  0  0  0  0  0  0  0  0
   22.8162   -4.7683  -14.8745 O   0  0  0  0  0  0  0  0  0  0  0  0
  2  1  1  0
  3  2  2  0
  4  5  1  0
  4  2  1  0
  5  6  1  1
  7 11  1  0
  7  5  1  0
  8  7  2  0
 10  9  1  6
 10 12  1  0
 10 11  1  0
 12 14  1  0
 13 12  2  0
 14 15  1  0
 15 16  1  1
 15 22  1  0
 17 16  1  0
 18 17  2  0
 19 20  1  0
 19 18  1  0
 20 21  2  0
 21 17  1  0
 22 24  2  0
 22 23  1  0
M  END
$$$$
