NAH.pdb
     RDKit          3D

 24 24  0  0  1  0  0  0  0  0999 V2000
   29.1945  -18.4554  -16.6187 N   0  0  0  0  0  0  0  0  0  0  0  0
   28.0846  -17.6317  -16.3148 C   0  0  0  0  0  0  0  0  0  0  0  0
   28.2062  -16.3962  -16.4520 O   0  0  0  0  0  0  0  0  0  0  0  0
   26.8186  -18.2317  -15.8476 C   0  0  0  0  0  0  0  0  0  0  0  0
   26.9611  -19.7182  -15.8500 C   0  0  2  0  0  0  0  0  0  0  0  0
   26.9728  -20.1674  -17.2244 N   0  0  0  0  0  0  0  0  0  0  0  0
   25.8848  -20.4064  -15.0986 C   0  0  0  0  0  0  0  0  0  0  0  0
   24.7717  -20.5996  -15.6501 O   0  0  0  0  0  0  0  0  0  0  0  0
   25.4129  -21.8157  -11.5903 C   0  0  0  0  0  0  0  0  0  0  0  0
   24.9676  -21.3586  -12.9516 C   0  0  2  0  0  0  0  0  0  0  0  0
   26.0409  -20.8677  -13.7701 N   0  0  0  0  0  0  0  0  0  0  0  0
   23.8805  -20.3703  -12.7743 C   0  0  0  0  0  0  0  0  0  0  0  0
   24.2161  -19.1736  -12.5859 O   0  0  0  0  0  0  0  0  0  0  0  0
   22.5099  -20.6763  -12.8020 N   0  0  0  0  0  0  0  0  0  0  0  0
   21.4423  -19.6874  -12.8189 C   0  0  1  0  0  0  0  0  0  0  0  0
   21.6763  -18.6192  -13.8225 C   0  0  0  0  0  0  0  0  0  0  0  0
   20.5390  -17.6770  -13.8710 C   0  0  0  0  0  0  0  0  0  0  0  0
   19.3681  -17.6528  -13.1278 C   0  0  0  0  0  0  0  0  0  0  0  0
   18.6075  -16.6259  -13.5294 N   0  0  0  0  0  0  0  0  0  0  0  0
   19.2469  -15.9907  -14.5029 C   0  0  0  0  0  0  0  0  0  0  0  0
   20.3996  -16.6085  -14.7152 N   0  0  0  0  0  0  0  0  0  0  0  0
   20.1739  -20.3969  -13.0499 C   0  0  0  0  0  0  0  0  0  0  0  0
   18.9537  -20.0448  -12.4958 O   0  0  0  0  0  0  0  0  0  0  0  0
   20.1488  -21.4112  -13.8025 O   0  0  0  0  0  0  0  0  0  0  0  0
  2  1  1  0
  3  2  2  0
  4  5  1  0
  4  2  1  0
  5  6  1  6
  7 11  1  0
  7  5  1  0
  8  7  2  0
 10  9  1  1
 10 12  1  0
 10 11  1  0
 12 14  1  0
 13 12  2  0
 14 15  1  0
 15 16  1  6
 15 22  1  0
 17 16  1  0
 18 17  2  0
 19 20  1  0
 19 18  1  0
 20 21  2  0
 21 17  1  0
 22 24  2  0
 22 23  1  0
M  END
$$$$
