NAH.pdb
     RDKit          3D

 24 24  0  0  1  0  0  0  0  0999 V2000
   24.4903  -15.4402  -20.2971 N   0  0  0  0  0  0  0  0  0  0  0  0
   23.4171  -14.5947  -20.6658 C   0  0  0  0  0  0  0  0  0  0  0  0
   22.9723  -14.6724  -21.8304 O   0  0  0  0  0  0  0  0  0  0  0  0
   22.8458  -13.6476  -19.6871 C   0  0  0  0  0  0  0  0  0  0  0  0
   22.5282  -14.3883  -18.4299 C   0  0  2  0  0  0  0  0  0  0  0  0
   21.4690  -15.3298  -18.7172 N   0  0  0  0  0  0  0  0  0  0  0  0
   22.1285  -13.4968  -17.3154 C   0  0  0  0  0  0  0  0  0  0  0  0
   20.9273  -13.1417  -17.2077 O   0  0  0  0  0  0  0  0  0  0  0  0
   23.7938  -11.8937  -14.2915 C   0  0  0  0  0  0  0  0  0  0  0  0
   22.6916  -12.1005  -15.2928 C   0  0  2  0  0  0  0  0  0  0  0  0
   23.0389  -13.0128  -16.3464 N   0  0  0  0  0  0  0  0  0  0  0  0
   22.2696  -10.7743  -15.7956 C   0  0  0  0  0  0  0  0  0  0  0  0
   22.9201  -10.2895  -16.7559 O   0  0  0  0  0  0  0  0  0  0  0  0
   21.1999  -10.0262  -15.2769 N   0  0  0  0  0  0  0  0  0  0  0  0
   20.7309   -8.7631  -15.8269 C   0  0  1  0  0  0  0  0  0  0  0  0
   19.2516   -8.6459  -15.7937 C   0  0  0  0  0  0  0  0  0  0  0  0
   18.8057   -7.3711  -16.3934 C   0  0  0  0  0  0  0  0  0  0  0  0
   18.7483   -6.9828  -17.7237 C   0  0  0  0  0  0  0  0  0  0  0  0
   18.2992   -5.7232  -17.8005 N   0  0  0  0  0  0  0  0  0  0  0  0
   18.0667   -5.2889  -16.5686 C   0  0  0  0  0  0  0  0  0  0  0  0
   18.3652   -6.2629  -15.7214 N   0  0  0  0  0  0  0  0  0  0  0  0
   21.3898   -7.6759  -15.0857 C   0  0  0  0  0  0  0  0  0  0  0  0
   21.6705   -6.4200  -15.5991 O   0  0  0  0  0  0  0  0  0  0  0  0
   21.7459   -7.8577  -13.8874 O   0  0  0  0  0  0  0  0  0  0  0  0
  2  1  1  0
  3  2  2  0
  4  5  1  0
  4  2  1  0
  5  6  1  6
  7 11  1  0
  7  5  1  0
  8  7  2  0
 10  9  1  1
 10 12  1  0
 10 11  1  0
 12 14  1  0
 13 12  2  0
 14 15  1  0
 15 16  1  1
 15 22  1  0
 17 16  1  0
 18 17  2  0
 19 20  1  0
 19 18  1  0
 20 21  2  0
 21 17  1  0
 22 24  2  0
 22 23  1  0
M  END
$$$$
