NAH.pdb
     RDKit          3D

 24 24  0  0  1  0  0  0  0  0999 V2000
   30.0987   -8.5462  -18.5083 N   0  0  0  0  0  0  0  0  0  0  0  0
   29.4967   -9.6242  -19.1998 C   0  0  0  0  0  0  0  0  0  0  0  0
   30.1308  -10.1596  -20.1333 O   0  0  0  0  0  0  0  0  0  0  0  0
   28.1504  -10.0949  -18.8166 C   0  0  0  0  0  0  0  0  0  0  0  0
   27.6140   -9.2001  -17.7481 C   0  0  2  0  0  0  0  0  0  0  0  0
   28.4311   -9.3686  -16.5671 N   0  0  0  0  0  0  0  0  0  0  0  0
   26.1922   -9.4673  -17.4259 C   0  0  0  0  0  0  0  0  0  0  0  0
   25.3230   -9.3603  -18.3279 O   0  0  0  0  0  0  0  0  0  0  0  0
   24.1741  -10.4825  -14.3588 C   0  0  0  0  0  0  0  0  0  0  0  0
   24.3679   -9.9835  -15.7637 C   0  0  2  0  0  0  0  0  0  0  0  0
   25.7479   -9.8431  -16.1362 N   0  0  0  0  0  0  0  0  0  0  0  0
   23.5994   -8.7284  -15.9181 C   0  0  0  0  0  0  0  0  0  0  0  0
   24.1054   -7.6816  -15.4401 O   0  0  0  0  0  0  0  0  0  0  0  0
   22.3529   -8.6280  -16.5576 N   0  0  0  0  0  0  0  0  0  0  0  0
   21.6167   -7.3865  -16.7435 C   0  0  1  0  0  0  0  0  0  0  0  0
   21.6897   -6.8889  -18.1400 C   0  0  0  0  0  0  0  0  0  0  0  0
   20.9942   -5.5927  -18.2796 C   0  0  0  0  0  0  0  0  0  0  0  0
   20.4800   -4.7468  -17.3080 C   0  0  0  0  0  0  0  0  0  0  0  0
   19.9101   -3.6873  -17.8969 N   0  0  0  0  0  0  0  0  0  0  0  0
   20.0393   -3.8222  -19.2104 C   0  0  0  0  0  0  0  0  0  0  0  0
   20.6841   -4.9546  -19.4503 N   0  0  0  0  0  0  0  0  0  0  0  0
   20.2296   -7.6150  -16.3083 C   0  0  0  0  0  0  0  0  0  0  0  0
   19.3728   -6.6339  -15.8358 O   0  0  0  0  0  0  0  0  0  0  0  0
   19.7414   -8.7793  -16.3496 O   0  0  0  0  0  0  0  0  0  0  0  0
  2  1  1  0
  3  2  2  0
  4  5  1  0
  4  2  1  0
  5  6  1  1
  7 11  1  0
  7  5  1  0
  8  7  2  0
 10  9  1  1
 10 12  1  0
 10 11  1  0
 12 14  1  0
 13 12  2  0
 14 15  1  0
 15 16  1  6
 15 22  1  0
 17 16  1  0
 18 17  2  0
 19 20  1  0
 19 18  1  0
 20 21  2  0
 21 17  1  0
 22 24  2  0
 22 23  1  0
M  END
$$$$
