NAH.pdb
     RDKit          3D

 24 24  0  0  1  0  0  0  0  0999 V2000
   18.1883  -12.2810  -19.1169 N   0  0  0  0  0  0  0  0  0  0  0  0
   17.4682  -11.0910  -18.8557 C   0  0  0  0  0  0  0  0  0  0  0  0
   16.6938  -10.6596  -19.7358 O   0  0  0  0  0  0  0  0  0  0  0  0
   17.6377  -10.3859  -17.5692 C   0  0  0  0  0  0  0  0  0  0  0  0
   18.6473  -11.1189  -16.7484 C   0  0  2  0  0  0  0  0  0  0  0  0
   17.9465  -12.0762  -15.9218 N   0  0  0  0  0  0  0  0  0  0  0  0
   19.4704  -10.2222  -15.9027 C   0  0  0  0  0  0  0  0  0  0  0  0
   18.9150   -9.5306  -15.0117 O   0  0  0  0  0  0  0  0  0  0  0  0
   23.1556   -9.5755  -15.2939 C   0  0  0  0  0  0  0  0  0  0  0  0
   21.6930   -9.2312  -15.2430 C   0  0  2  0  0  0  0  0  0  0  0  0
   20.8727  -10.0972  -16.0431 N   0  0  0  0  0  0  0  0  0  0  0  0
   21.5420   -7.8031  -15.6007 C   0  0  0  0  0  0  0  0  0  0  0  0
   21.4362   -7.5240  -16.8218 O   0  0  0  0  0  0  0  0  0  0  0  0
   21.5092   -6.7467  -14.6756 N   0  0  0  0  0  0  0  0  0  0  0  0
   21.3529   -5.3435  -15.0283 C   0  0  1  0  0  0  0  0  0  0  0  0
   20.0400   -4.7963  -14.6041 C   0  0  0  0  0  0  0  0  0  0  0  0
   18.9500   -5.3028  -15.4638 C   0  0  0  0  0  0  0  0  0  0  0  0
   18.1147   -6.3969  -15.2936 C   0  0  0  0  0  0  0  0  0  0  0  0
   17.2853   -6.4905  -16.3413 N   0  0  0  0  0  0  0  0  0  0  0  0
   17.5578   -5.4972  -17.1774 C   0  0  0  0  0  0  0  0  0  0  0  0
   18.5487   -4.7825  -16.6646 N   0  0  0  0  0  0  0  0  0  0  0  0
   22.4791   -4.6020  -14.4388 C   0  0  0  0  0  0  0  0  0  0  0  0
   22.8066   -3.2882  -14.7327 O   0  0  0  0  0  0  0  0  0  0  0  0
   23.2327   -5.1676  -13.5975 O   0  0  0  0  0  0  0  0  0  0  0  0
  2  1  1  0
  3  2  2  0
  4  5  1  0
  4  2  1  0
  5  6  1  1
  7 11  1  0
  7  5  1  0
  8  7  2  0
 10  9  1  6
 10 12  1  0
 10 11  1  0
 12 14  1  0
 13 12  2  0
 14 15  1  0
 15 16  1  1
 15 22  1  0
 17 16  1  0
 18 17  2  0
 19 20  1  0
 19 18  1  0
 20 21  2  0
 21 17  1  0
 22 24  2  0
 22 23  1  0
M  END
$$$$
