NAH.pdb
     RDKit          3D

 24 24  0  0  1  0  0  0  0  0999 V2000
   23.5212  -13.4290  -22.8346 N   0  0  0  0  0  0  0  0  0  0  0  0
   22.5823  -13.6529  -21.7997 C   0  0  0  0  0  0  0  0  0  0  0  0
   21.5922  -14.3751  -22.0416 O   0  0  0  0  0  0  0  0  0  0  0  0
   22.7804  -13.0414  -20.4702 C   0  0  0  0  0  0  0  0  0  0  0  0
   24.0270  -12.2197  -20.4996 C   0  0  2  0  0  0  0  0  0  0  0  0
   25.1417  -13.0805  -20.1720 N   0  0  0  0  0  0  0  0  0  0  0  0
   23.9845  -11.0658  -19.5704 C   0  0  0  0  0  0  0  0  0  0  0  0
   24.1604  -11.2557  -18.3401 O   0  0  0  0  0  0  0  0  0  0  0  0
   23.5914   -7.2886  -19.8359 C   0  0  0  0  0  0  0  0  0  0  0  0
   23.6749   -8.6053  -19.1151 C   0  0  2  0  0  0  0  0  0  0  0  0
   23.7530   -9.7366  -19.9965 N   0  0  0  0  0  0  0  0  0  0  0  0
   22.5380   -8.6881  -18.1714 C   0  0  0  0  0  0  0  0  0  0  0  0
   21.4879   -9.2429  -18.5833 O   0  0  0  0  0  0  0  0  0  0  0  0
   22.5525   -8.1928  -16.8571 N   0  0  0  0  0  0  0  0  0  0  0  0
   21.4174   -8.2297  -15.9472 C   0  0  1  0  0  0  0  0  0  0  0  0
   21.8181   -8.5549  -14.5555 C   0  0  0  0  0  0  0  0  0  0  0  0
   20.6480   -8.5613  -13.6531 C   0  0  0  0  0  0  0  0  0  0  0  0
   19.2936   -8.5110  -13.9480 C   0  0  0  0  0  0  0  0  0  0  0  0
   18.5897   -8.5157  -12.8083 N   0  0  0  0  0  0  0  0  0  0  0  0
   19.4424   -8.5669  -11.7932 C   0  0  0  0  0  0  0  0  0  0  0  0
   20.6725   -8.5944  -12.2849 N   0  0  0  0  0  0  0  0  0  0  0  0
   20.7255   -6.9339  -16.0363 C   0  0  0  0  0  0  0  0  0  0  0  0
   19.3569   -6.7536  -15.9167 O   0  0  0  0  0  0  0  0  0  0  0  0
   21.3901   -5.8789  -16.2385 O   0  0  0  0  0  0  0  0  0  0  0  0
  2  1  1  0
  3  2  2  0
  4  5  1  0
  4  2  1  0
  5  6  1  1
  7 11  1  0
  7  5  1  0
  8  7  2  0
 10  9  1  6
 10 12  1  0
 10 11  1  0
 12 14  1  0
 13 12  2  0
 14 15  1  0
 15 16  1  1
 15 22  1  0
 17 16  1  0
 18 17  2  0
 19 20  1  0
 19 18  1  0
 20 21  2  0
 21 17  1  0
 22 24  2  0
 22 23  1  0
M  END
$$$$
