NAH.pdb
     RDKit          3D

 24 24  0  0  1  0  0  0  0  0999 V2000
   18.2610  -11.4501  -20.4409 N   0  0  0  0  0  0  0  0  0  0  0  0
   17.6009  -11.4686  -19.1892 C   0  0  0  0  0  0  0  0  0  0  0  0
   16.4440  -11.9364  -19.1343 O   0  0  0  0  0  0  0  0  0  0  0  0
   18.2753  -10.9442  -17.9846 C   0  0  0  0  0  0  0  0  0  0  0  0
   19.7411  -11.2044  -18.1023 C   0  0  2  0  0  0  0  0  0  0  0  0
   19.9679  -12.6145  -17.8765 N   0  0  0  0  0  0  0  0  0  0  0  0
   20.5518  -10.4006  -17.1570 C   0  0  0  0  0  0  0  0  0  0  0  0
   20.4087  -10.5712  -15.9196 O   0  0  0  0  0  0  0  0  0  0  0  0
   23.3730   -7.8587  -17.3701 C   0  0  0  0  0  0  0  0  0  0  0  0
   22.2793   -8.6266  -16.6814 C   0  0  2  0  0  0  0  0  0  0  0  0
   21.4960   -9.4333  -17.5750 N   0  0  0  0  0  0  0  0  0  0  0  0
   21.4616   -7.6691  -15.9040 C   0  0  0  0  0  0  0  0  0  0  0  0
   20.4577   -7.1733  -16.4755 O   0  0  0  0  0  0  0  0  0  0  0  0
   21.7289   -7.2796  -14.5812 N   0  0  0  0  0  0  0  0  0  0  0  0
   20.9879   -6.2601  -13.8538 C   0  0  1  0  0  0  0  0  0  0  0  0
   20.7675   -6.6266  -12.4325 C   0  0  0  0  0  0  0  0  0  0  0  0
   19.6907   -7.6303  -12.3030 C   0  0  0  0  0  0  0  0  0  0  0  0
   18.8678   -8.1859  -13.2715 C   0  0  0  0  0  0  0  0  0  0  0  0
   18.0147   -9.0413  -12.6929 N   0  0  0  0  0  0  0  0  0  0  0  0
   18.2595   -9.0547  -11.3891 C   0  0  0  0  0  0  0  0  0  0  0  0
   19.2568   -8.2172  -11.1450 N   0  0  0  0  0  0  0  0  0  0  0  0
   21.7157   -4.9885  -13.9919 C   0  0  0  0  0  0  0  0  0  0  0  0
   21.1828   -3.7356  -13.7351 O   0  0  0  0  0  0  0  0  0  0  0  0
   22.9201   -4.9916  -14.3728 O   0  0  0  0  0  0  0  0  0  0  0  0
  2  1  1  0
  3  2  2  0
  4  5  1  0
  4  2  1  0
  5  6  1  1
  7 11  1  0
  7  5  1  0
  8  7  2  0
 10  9  1  6
 10 12  1  0
 10 11  1  0
 12 14  1  0
 13 12  2  0
 14 15  1  0
 15 16  1  1
 15 22  1  0
 17 16  1  0
 18 17  2  0
 19 20  1  0
 19 18  1  0
 20 21  2  0
 21 17  1  0
 22 24  2  0
 22 23  1  0
M  END
$$$$
