NAH.pdb
     RDKit          3D

 24 24  0  0  1  0  0  0  0  0999 V2000
   15.2669  -14.2586   -9.4792 N   0  0  0  0  0  0  0  0  0  0  0  0
   14.3475  -13.3512  -10.0571 C   0  0  0  0  0  0  0  0  0  0  0  0
   13.1263  -13.5619   -9.9004 O   0  0  0  0  0  0  0  0  0  0  0  0
   14.8337  -12.1870  -10.8247 C   0  0  0  0  0  0  0  0  0  0  0  0
   14.1045  -10.9682  -10.3634 C   0  0  2  0  0  0  0  0  0  0  0  0
   12.7794  -10.9902  -10.9415 N   0  0  0  0  0  0  0  0  0  0  0  0
   14.7956   -9.7070  -10.7220 C   0  0  0  0  0  0  0  0  0  0  0  0
   14.9322   -9.3995  -11.9333 O   0  0  0  0  0  0  0  0  0  0  0  0
   16.3200   -6.7411   -8.8889 C   0  0  0  0  0  0  0  0  0  0  0  0
   16.0551   -7.6191  -10.0801 C   0  0  2  0  0  0  0  0  0  0  0  0
   15.3207   -8.8114   -9.7607 N   0  0  0  0  0  0  0  0  0  0  0  0
   17.3478   -7.8997  -10.7436 C   0  0  0  0  0  0  0  0  0  0  0  0
   18.1208   -8.7129  -10.1766 O   0  0  0  0  0  0  0  0  0  0  0  0
   17.7663   -7.3237  -11.9543 N   0  0  0  0  0  0  0  0  0  0  0  0
   18.9700   -7.7042  -12.6784 C   0  0  1  0  0  0  0  0  0  0  0  0
   18.6869   -8.0910  -14.0831 C   0  0  0  0  0  0  0  0  0  0  0  0
   19.9308   -8.4449  -14.7980 C   0  0  0  0  0  0  0  0  0  0  0  0
   21.0080   -7.6502  -15.1614 C   0  0  0  0  0  0  0  0  0  0  0  0
   21.9070   -8.3934  -15.8199 N   0  0  0  0  0  0  0  0  0  0  0  0
   21.4463   -9.6354  -15.8928 C   0  0  0  0  0  0  0  0  0  0  0  0
   20.2687   -9.6780  -15.2870 N   0  0  0  0  0  0  0  0  0  0  0  0
   19.9210   -6.5845  -12.5927 C   0  0  0  0  0  0  0  0  0  0  0  0
   19.5834   -5.2448  -12.6985 O   0  0  0  0  0  0  0  0  0  0  0  0
   21.1496   -6.8155  -12.4113 O   0  0  0  0  0  0  0  0  0  0  0  0
  2  1  1  0
  3  2  2  0
  4  5  1  0
  4  2  1  0
  5  6  1  6
  7 11  1  0
  7  5  1  0
  8  7  2  0
 10  9  1  1
 10 12  1  0
 10 11  1  0
 12 14  1  0
 13 12  2  0
 14 15  1  0
 15 16  1  6
 15 22  1  0
 17 16  1  0
 18 17  2  0
 19 20  1  0
 19 18  1  0
 20 21  2  0
 21 17  1  0
 22 24  2  0
 22 23  1  0
M  END
$$$$
