GMS.pdb
     RDKit          3D

 19 18  0  0  1  0  0  0  0  0999 V2000
    4.6682  -18.9791   22.5491 N   0  0  0  0  0  0  0  0  0  0  0  0
    5.3371  -18.7902   23.7973 C   0  0  0  0  0  0  0  0  0  0  0  0
    6.2719  -17.6251   23.7674 C   0  0  0  0  0  0  0  0  0  0  0  0
    7.0483  -17.4806   22.7759 O   0  0  0  0  0  0  0  0  0  0  0  0
    5.4950  -12.1033   26.5868 C   0  0  0  0  0  0  0  0  0  0  0  0
    7.2715  -12.1536   27.0167 S   0  0  0  0  0  0  0  0  0  0  0  0
    7.9928  -13.4717   25.9431 C   0  0  0  0  0  0  0  0  0  0  0  0
    7.0068  -14.5975   25.8139 C   0  0  0  0  0  0  0  0  0  0  0  0
    7.4094  -15.6421   24.8389 C   0  0  2  0  0  0  0  0  0  0  0  0
    6.3318  -16.6632   24.8078 N   0  0  0  0  0  0  0  0  0  0  0  0
    8.6709  -16.3156   24.9987 C   0  0  0  0  0  0  0  0  0  0  0  0
    8.7412  -17.2571   25.8698 O   0  0  0  0  0  0  0  0  0  0  0  0
   11.8713  -16.0624   22.3712 O   0  0  0  0  0  0  0  0  0  0  0  0
   11.5709  -17.2713   22.9538 C   0  0  0  0  0  0  0  0  0  0  0  0
   10.9767  -17.0281   24.3092 C   0  0  2  0  0  0  0  0  0  0  0  0
    9.8938  -16.0996   24.3203 N   0  0  0  0  0  0  0  0  0  0  0  0
   12.0842  -16.6123   25.2128 C   0  0  0  0  0  0  0  0  0  0  0  0
   11.9610  -15.4830   25.9919 O   0  0  0  0  0  0  0  0  0  0  0  0
   13.1679  -17.2583   25.3089 O   0  0  0  0  0  0  0  0  0  0  0  0
  1  2  1  0
  2  3  1  0
  3 10  1  0
  3  4  2  0
  6  5  1  0
  7  8  1  0
  7  6  1  0
  9  8  1  1
 10  9  1  0
 11  9  1  0
 11 16  1  0
 12 11  2  0
 14 13  1  0
 15 14  1  6
 15 16  1  0
 15 17  1  0
 17 18  1  0
 19 17  2  0
M  END
$$$$
