GMS.pdb
     RDKit          3D

 19 18  0  0  1  0  0  0  0  0999 V2000
    9.6039  -23.0153   31.6665 N   0  0  0  0  0  0  0  0  0  0  0  0
    9.8612  -21.6555   32.0214 C   0  0  0  0  0  0  0  0  0  0  0  0
   10.0542  -20.7849   30.8226 C   0  0  0  0  0  0  0  0  0  0  0  0
    9.7200  -21.2220   29.6807 O   0  0  0  0  0  0  0  0  0  0  0  0
    9.0815  -13.9701   29.0291 C   0  0  0  0  0  0  0  0  0  0  0  0
   10.7118  -14.5238   29.6448 S   0  0  0  0  0  0  0  0  0  0  0  0
   10.9175  -16.2403   28.9957 C   0  0  0  0  0  0  0  0  0  0  0  0
   10.6894  -17.2204   30.1110 C   0  0  0  0  0  0  0  0  0  0  0  0
   10.7546  -18.6416   29.6869 C   0  0  2  0  0  0  0  0  0  0  0  0
   10.5998  -19.4784   30.9037 N   0  0  0  0  0  0  0  0  0  0  0  0
   11.8988  -19.1126   28.9524 C   0  0  0  0  0  0  0  0  0  0  0  0
   12.9978  -19.2776   29.5967 O   0  0  0  0  0  0  0  0  0  0  0  0
   11.9566  -20.4947   25.0394 O   0  0  0  0  0  0  0  0  0  0  0  0
   12.8750  -21.0282   25.9130 C   0  0  0  0  0  0  0  0  0  0  0  0
   13.1682  -20.0253   26.9889 C   0  0  2  0  0  0  0  0  0  0  0  0
   12.0098  -19.4390   27.5800 N   0  0  0  0  0  0  0  0  0  0  0  0
   14.0823  -19.0040   26.4083 C   0  0  0  0  0  0  0  0  0  0  0  0
   13.7270  -17.6730   26.4039 O   0  0  0  0  0  0  0  0  0  0  0  0
   15.2038  -19.2985   25.9019 O   0  0  0  0  0  0  0  0  0  0  0  0
  1  2  1  0
  2  3  1  0
  3 10  1  0
  3  4  2  0
  6  5  1  0
  7  8  1  0
  7  6  1  0
  9  8  1  1
 10  9  1  0
 11  9  1  0
 11 16  1  0
 12 11  2  0
 14 13  1  0
 15 14  1  6
 15 16  1  0
 15 17  1  0
 17 18  1  0
 19 17  2  0
M  END
$$$$
