GMS.pdb
     RDKit          3D

 19 18  0  0  1  0  0  0  0  0999 V2000
    7.8662  -14.1704   18.7531 N   0  0  0  0  0  0  0  0  0  0  0  0
    7.1282  -14.6763   19.8669 C   0  0  0  0  0  0  0  0  0  0  0  0
    7.7949  -14.3774   21.1700 C   0  0  0  0  0  0  0  0  0  0  0  0
    9.0494  -14.1977   21.1959 O   0  0  0  0  0  0  0  0  0  0  0  0
    7.0727  -11.7804   28.5356 C   0  0  0  0  0  0  0  0  0  0  0  0
    6.2522  -12.0799   26.9292 S   0  0  0  0  0  0  0  0  0  0  0  0
    7.4783  -13.0316   25.9287 C   0  0  0  0  0  0  0  0  0  0  0  0
    6.9117  -13.2804   24.5600 C   0  0  0  0  0  0  0  0  0  0  0  0
    7.7980  -14.0799   23.6772 C   0  0  2  0  0  0  0  0  0  0  0  0
    7.0821  -14.2844   22.3926 N   0  0  0  0  0  0  0  0  0  0  0  0
    8.2927  -15.3526   24.1309 C   0  0  0  0  0  0  0  0  0  0  0  0
    7.5620  -16.3883   23.9221 O   0  0  0  0  0  0  0  0  0  0  0  0
   10.4125  -17.8072   23.0305 O   0  0  0  0  0  0  0  0  0  0  0  0
   10.9542  -17.5767   24.2733 C   0  0  0  0  0  0  0  0  0  0  0  0
    9.9053  -16.9765   25.1616 C   0  0  2  0  0  0  0  0  0  0  0  0
    9.5052  -15.6576   24.7937 N   0  0  0  0  0  0  0  0  0  0  0  0
   10.4148  -17.0412   26.5587 C   0  0  0  0  0  0  0  0  0  0  0  0
   10.8237  -18.2418   27.0964 O   0  0  0  0  0  0  0  0  0  0  0  0
   10.4962  -16.0228   27.3051 O   0  0  0  0  0  0  0  0  0  0  0  0
  1  2  1  0
  2  3  1  0
  3 10  1  0
  3  4  2  0
  6  5  1  0
  7  8  1  0
  7  6  1  0
  9  8  1  1
 10  9  1  0
 11  9  1  0
 11 16  1  0
 12 11  2  0
 14 13  1  0
 15 14  1  6
 15 16  1  0
 15 17  1  0
 17 18  1  0
 19 17  2  0
M  END
$$$$
