GMS.pdb
     RDKit          3D

 19 18  0  0  1  0  0  0  0  0999 V2000
    7.7269  -16.2939   19.1007 N   0  0  0  0  0  0  0  0  0  0  0  0
    6.9081  -16.1130   20.2574 C   0  0  0  0  0  0  0  0  0  0  0  0
    7.6616  -15.5025   21.3939 C   0  0  0  0  0  0  0  0  0  0  0  0
    8.9208  -15.3854   21.3089 O   0  0  0  0  0  0  0  0  0  0  0  0
    7.2865  -11.4956   28.1748 C   0  0  0  0  0  0  0  0  0  0  0  0
    6.3773  -12.1152   26.7144 S   0  0  0  0  0  0  0  0  0  0  0  0
    7.5968  -13.1443   25.7850 C   0  0  0  0  0  0  0  0  0  0  0  0
    6.9512  -13.6635   24.5320 C   0  0  0  0  0  0  0  0  0  0  0  0
    7.8259  -14.5533   23.7276 C   0  0  2  0  0  0  0  0  0  0  0  0
    7.0268  -15.0431   22.5760 N   0  0  0  0  0  0  0  0  0  0  0  0
    8.4609  -15.6822   24.3547 C   0  0  0  0  0  0  0  0  0  0  0  0
    7.7215  -16.6810   24.6799 O   0  0  0  0  0  0  0  0  0  0  0  0
   12.4747  -16.6640   24.2424 O   0  0  0  0  0  0  0  0  0  0  0  0
   11.5095  -17.6377   24.3489 C   0  0  0  0  0  0  0  0  0  0  0  0
   10.3646  -17.1065   25.1590 C   0  0  2  0  0  0  0  0  0  0  0  0
    9.8242  -15.8762   24.6801 N   0  0  0  0  0  0  0  0  0  0  0  0
   10.8262  -17.0073   26.5706 C   0  0  0  0  0  0  0  0  0  0  0  0
   11.4085  -18.0906   27.1911 O   0  0  0  0  0  0  0  0  0  0  0  0
   10.7102  -15.9498   27.2556 O   0  0  0  0  0  0  0  0  0  0  0  0
  1  2  1  0
  2  3  1  0
  3 10  1  0
  3  4  2  0
  6  5  1  0
  7  8  1  0
  7  6  1  0
  9  8  1  1
 10  9  1  0
 11  9  1  0
 11 16  1  0
 12 11  2  0
 14 13  1  0
 15 14  1  6
 15 16  1  0
 15 17  1  0
 17 18  1  0
 19 17  2  0
M  END
$$$$
