GMS.pdb
     RDKit          3D

 19 18  0  0  1  0  0  0  0  0999 V2000
    4.8160  -19.5083   22.6802 N   0  0  0  0  0  0  0  0  0  0  0  0
    5.3827  -19.0680   23.9156 C   0  0  0  0  0  0  0  0  0  0  0  0
    6.1724  -17.8095   23.7589 C   0  0  0  0  0  0  0  0  0  0  0  0
    6.6882  -17.5392   22.6331 O   0  0  0  0  0  0  0  0  0  0  0  0
    6.3433  -11.9998   27.7315 C   0  0  0  0  0  0  0  0  0  0  0  0
    6.7931  -12.0089   25.9592 S   0  0  0  0  0  0  0  0  0  0  0  0
    7.8169  -13.5280   25.7268 C   0  0  0  0  0  0  0  0  0  0  0  0
    6.9164  -14.7299   25.6945 C   0  0  0  0  0  0  0  0  0  0  0  0
    7.2868  -15.7329   24.6646 C   0  0  2  0  0  0  0  0  0  0  0  0
    6.3743  -16.8935   24.8227 N   0  0  0  0  0  0  0  0  0  0  0  0
    8.6389  -16.2214   24.6018 C   0  0  0  0  0  0  0  0  0  0  0  0
    9.0360  -17.0069   25.5374 O   0  0  0  0  0  0  0  0  0  0  0  0
   11.6296  -15.3897   21.7463 O   0  0  0  0  0  0  0  0  0  0  0  0
   11.5328  -16.6731   22.2307 C   0  0  0  0  0  0  0  0  0  0  0  0
   10.8972  -16.6379   23.5886 C   0  0  2  0  0  0  0  0  0  0  0  0
    9.6390  -15.9671   23.6336 N   0  0  0  0  0  0  0  0  0  0  0  0
   11.8866  -16.0425   24.5280 C   0  0  0  0  0  0  0  0  0  0  0  0
   13.1560  -16.5681   24.6283 O   0  0  0  0  0  0  0  0  0  0  0  0
   11.6191  -15.0486   25.2640 O   0  0  0  0  0  0  0  0  0  0  0  0
  1  2  1  0
  2  3  1  0
  3 10  1  0
  3  4  2  0
  6  5  1  0
  7  8  1  0
  7  6  1  0
  9  8  1  1
 10  9  1  0
 11  9  1  0
 11 16  1  0
 12 11  2  0
 14 13  1  0
 15 14  1  6
 15 16  1  0
 15 17  1  0
 17 18  1  0
 19 17  2  0
M  END
$$$$
