GMS.pdb
     RDKit          3D

 19 18  0  0  1  0  0  0  0  0999 V2000
    5.0976  -19.3052   23.1081 N   0  0  0  0  0  0  0  0  0  0  0  0
    5.4385  -18.5920   24.2982 C   0  0  0  0  0  0  0  0  0  0  0  0
    6.3717  -17.4567   24.0294 C   0  0  0  0  0  0  0  0  0  0  0  0
    6.8679  -17.3252   22.8705 O   0  0  0  0  0  0  0  0  0  0  0  0
    7.6451  -11.4023   26.6771 C   0  0  0  0  0  0  0  0  0  0  0  0
    6.0885  -12.3411   26.8749 S   0  0  0  0  0  0  0  0  0  0  0  0
    6.1825  -13.7030   25.6313 C   0  0  0  0  0  0  0  0  0  0  0  0
    7.5290  -14.3625   25.7223 C   0  0  0  0  0  0  0  0  0  0  0  0
    7.7344  -15.4517   24.7348 C   0  0  2  0  0  0  0  0  0  0  0  0
    6.7323  -16.5092   25.0212 N   0  0  0  0  0  0  0  0  0  0  0  0
    9.0285  -16.0700   24.6172 C   0  0  0  0  0  0  0  0  0  0  0  0
    9.3683  -16.9237   25.5149 O   0  0  0  0  0  0  0  0  0  0  0  0
   11.6064  -15.7547   21.3942 O   0  0  0  0  0  0  0  0  0  0  0  0
   11.5993  -16.9518   22.0710 C   0  0  0  0  0  0  0  0  0  0  0  0
   11.1776  -16.7103   23.4898 C   0  0  2  0  0  0  0  0  0  0  0  0
   10.0242  -15.8826   23.6294 N   0  0  0  0  0  0  0  0  0  0  0  0
   12.3552  -16.1624   24.2172 C   0  0  0  0  0  0  0  0  0  0  0  0
   12.2433  -15.0010   24.9494 O   0  0  0  0  0  0  0  0  0  0  0  0
   13.4903  -16.7211   24.2004 O   0  0  0  0  0  0  0  0  0  0  0  0
  1  2  1  0
  2  3  1  0
  3 10  1  0
  3  4  2  0
  6  5  1  0
  7  8  1  0
  7  6  1  0
  9  8  1  1
 10  9  1  0
 11  9  1  0
 11 16  1  0
 12 11  2  0
 14 13  1  0
 15 14  1  6
 15 16  1  0
 15 17  1  0
 17 18  1  0
 19 17  2  0
M  END
$$$$
