GMS.pdb
     RDKit          3D

 19 18  0  0  1  0  0  0  0  0999 V2000
    7.8509  -14.7392   19.1319 N   0  0  0  0  0  0  0  0  0  0  0  0
    6.9989  -14.6390   20.2743 C   0  0  0  0  0  0  0  0  0  0  0  0
    7.7716  -14.5204   21.5475 C   0  0  0  0  0  0  0  0  0  0  0  0
    9.0311  -14.6605   21.5217 O   0  0  0  0  0  0  0  0  0  0  0  0
    5.3970  -11.5693   26.7794 C   0  0  0  0  0  0  0  0  0  0  0  0
    7.1940  -11.5638   27.1170 S   0  0  0  0  0  0  0  0  0  0  0  0
    7.8414  -13.0989   26.3207 C   0  0  0  0  0  0  0  0  0  0  0  0
    7.1840  -13.2754   24.9816 C   0  0  0  0  0  0  0  0  0  0  0  0
    7.9685  -14.1010   24.0293 C   0  0  2  0  0  0  0  0  0  0  0  0
    7.1550  -14.2556   22.7969 N   0  0  0  0  0  0  0  0  0  0  0  0
    8.4359  -15.4008   24.4329 C   0  0  0  0  0  0  0  0  0  0  0  0
    7.6383  -16.3968   24.2848 O   0  0  0  0  0  0  0  0  0  0  0  0
   11.5106  -18.8081   24.1831 O   0  0  0  0  0  0  0  0  0  0  0  0
   11.1177  -17.5047   23.9880 C   0  0  0  0  0  0  0  0  0  0  0  0
   10.1541  -17.1161   25.0695 C   0  0  2  0  0  0  0  0  0  0  0  0
    9.6845  -15.7717   24.9857 N   0  0  0  0  0  0  0  0  0  0  0  0
   10.8100  -17.4031   26.3745 C   0  0  0  0  0  0  0  0  0  0  0  0
   11.2868  -18.6654   26.6520 O   0  0  0  0  0  0  0  0  0  0  0  0
   10.9593  -16.5249   27.2730 O   0  0  0  0  0  0  0  0  0  0  0  0
  1  2  1  0
  2  3  1  0
  3 10  1  0
  3  4  2  0
  6  5  1  0
  7  8  1  0
  7  6  1  0
  9  8  1  1
 10  9  1  0
 11  9  1  0
 11 16  1  0
 12 11  2  0
 14 13  1  0
 15 14  1  6
 15 16  1  0
 15 17  1  0
 17 18  1  0
 19 17  2  0
M  END
$$$$
