GMS.pdb
     RDKit          3D

 19 18  0  0  1  0  0  0  0  0999 V2000
    5.0585  -19.6074   22.6627 N   0  0  0  0  0  0  0  0  0  0  0  0
    5.3505  -18.9365   23.8898 C   0  0  0  0  0  0  0  0  0  0  0  0
    6.2044  -17.7279   23.6845 C   0  0  0  0  0  0  0  0  0  0  0  0
    6.8589  -17.6093   22.6055 O   0  0  0  0  0  0  0  0  0  0  0  0
    6.9794  -12.5991   27.9639 C   0  0  0  0  0  0  0  0  0  0  0  0
    6.9425  -11.8900   26.2789 S   0  0  0  0  0  0  0  0  0  0  0  0
    7.6408  -13.2035   25.1849 C   0  0  0  0  0  0  0  0  0  0  0  0
    6.7957  -14.4403   25.2971 C   0  0  0  0  0  0  0  0  0  0  0  0
    7.2625  -15.5679   24.4519 C   0  0  2  0  0  0  0  0  0  0  0  0
    6.3180  -16.6961   24.6509 N   0  0  0  0  0  0  0  0  0  0  0  0
    8.6043  -16.0641   24.6063 C   0  0  0  0  0  0  0  0  0  0  0  0
    8.8413  -16.8537   25.5914 O   0  0  0  0  0  0  0  0  0  0  0  0
   11.0429  -16.8104   21.5513 O   0  0  0  0  0  0  0  0  0  0  0  0
   11.1575  -17.5138   22.7274 C   0  0  0  0  0  0  0  0  0  0  0  0
   10.9516  -16.5774   23.8807 C   0  0  2  0  0  0  0  0  0  0  0  0
    9.7488  -15.8136   23.8127 N   0  0  0  0  0  0  0  0  0  0  0  0
   12.1615  -15.7153   23.9756 C   0  0  0  0  0  0  0  0  0  0  0  0
   13.4114  -16.2802   24.1028 O   0  0  0  0  0  0  0  0  0  0  0  0
   12.1052  -14.4516   23.9453 O   0  0  0  0  0  0  0  0  0  0  0  0
  1  2  1  0
  2  3  1  0
  3 10  1  0
  3  4  2  0
  6  5  1  0
  7  8  1  0
  7  6  1  0
  9  8  1  1
 10  9  1  0
 11  9  1  0
 11 16  1  0
 12 11  2  0
 14 13  1  0
 15 14  1  6
 15 16  1  0
 15 17  1  0
 17 18  1  0
 19 17  2  0
M  END
$$$$
