MIW.pdb
     RDKit          3D

 31 32  0  0  1  0  0  0  0  0999 V2000
   17.0091  -14.2199   19.2420 C   0  0  0  0  0  0  0  0  0  0  0  0
   16.6035  -15.7921   18.4226 S   0  0  0  0  0  0  0  0  0  0  0  0
   14.9014  -15.6666   17.7701 C   0  0  0  0  0  0  0  0  0  0  0  0
   14.0383  -15.0174   18.8289 C   0  0  0  0  0  0  0  0  0  0  0  0
   12.6031  -14.9702   18.4264 C   0  0  2  0  0  0  0  0  0  0  0  0
   12.3842  -14.2617   17.1898 N   0  0  0  0  0  0  0  0  0  0  0  0
   11.7161  -14.4035   19.5090 C   0  0  0  0  0  0  0  0  0  0  0  0
   11.8557  -13.2342   19.8877 O   0  0  0  0  0  0  0  0  0  0  0  0
    6.8168  -13.1721   19.4434 C   0  0  0  0  0  0  0  0  0  0  0  0
    8.2905  -13.4467   19.7523 C   0  0  0  0  0  0  0  0  0  0  0  0
    8.4187  -14.4667   20.8547 C   0  0  2  0  0  0  0  0  0  0  0  0
    7.6928  -13.9306   22.0645 C   0  0  0  0  0  0  0  0  0  0  0  0
    9.8265  -14.8776   21.1682 C   0  0  2  0  0  0  0  0  0  0  0  0
   10.7094  -15.1892   20.1152 N   0  0  0  0  0  0  0  0  0  0  0  0
    9.9930  -15.6887   22.3891 C   0  0  0  0  0  0  0  0  0  0  0  0
   10.4282  -16.8695   22.3841 O   0  0  0  0  0  0  0  0  0  0  0  0
    9.6602  -15.1587   23.6671 N   0  0  0  0  0  0  0  0  0  0  0  0
    9.9177  -15.9174   24.9024 C   0  0  1  0  0  0  0  0  0  0  0  0
    9.5575  -15.1112   26.0922 C   0  0  0  0  0  0  0  0  0  0  0  0
    8.1335  -14.7650   26.1332 C   0  0  0  0  0  0  0  0  0  0  0  0
    7.0340  -15.5688   25.8658 C   0  0  0  0  0  0  0  0  0  0  0  0
    5.8861  -14.8847   25.9706 N   0  0  0  0  0  0  0  0  0  0  0  0
    6.2297  -13.6166   26.3114 C   0  0  0  0  0  0  0  0  0  0  0  0
    5.4199  -12.5270   26.5576 C   0  0  0  0  0  0  0  0  0  0  0  0
    5.9743  -11.3260   26.9144 C   0  0  0  0  0  0  0  0  0  0  0  0
    7.3398  -11.1855   27.0328 C   0  0  0  0  0  0  0  0  0  0  0  0
    8.1270  -12.2837   26.7821 C   0  0  0  0  0  0  0  0  0  0  0  0
    7.5954  -13.5056   26.4204 C   0  0  0  0  0  0  0  0  0  0  0  0
    9.3064  -17.2429   24.8227 C   0  0  0  0  0  0  0  0  0  0  0  0
    8.3500  -17.4424   23.9904 O   0  0  0  0  0  0  0  0  0  0  0  0
    9.6562  -18.3546   25.5649 O   0  0  0  0  0  0  0  0  0  0  0  0
  2  1  1  0
  3  2  1  0
  4  3  1  0
  5  4  1  0
  5  6  1  6
  7  5  1  0
  8  7  2  0
  9 10  1  0
 11 13  1  0
 11 10  1  0
 11 12  1  1
 13 14  1  6
 14  7  1  0
 15 13  1  0
 15 17  1  0
 16 15  2  0
 18 17  1  0
 18 29  1  0
 18 19  1  1
 20 19  1  0
 20 21  2  0
 22 21  1  0
 23 22  1  0
 24 23  2  0
 25 24  1  0
 26 25  2  0
 26 27  1  0
 27 28  2  0
 28 23  1  0
 28 20  1  0
 29 31  1  0
 30 29  2  0
M  END
$$$$
