MIW.pdb
     RDKit          3D

 31 32  0  0  1  0  0  0  0  0999 V2000
    7.0105  -12.6509   20.3289 C   0  0  0  0  0  0  0  0  0  0  0  0
    7.7896  -12.3991   18.7051 S   0  0  0  0  0  0  0  0  0  0  0  0
    8.3700  -14.0222   18.0990 C   0  0  0  0  0  0  0  0  0  0  0  0
    8.7256  -14.8725   19.2981 C   0  0  0  0  0  0  0  0  0  0  0  0
    9.1512  -16.2456   18.9015 C   0  0  2  0  0  0  0  0  0  0  0  0
    8.1364  -16.9652   18.1724 N   0  0  0  0  0  0  0  0  0  0  0  0
    9.6226  -17.0683   20.0766 C   0  0  0  0  0  0  0  0  0  0  0  0
    8.8076  -17.6428   20.8086 O   0  0  0  0  0  0  0  0  0  0  0  0
   15.0735  -18.1115   20.1720 C   0  0  0  0  0  0  0  0  0  0  0  0
   13.6783  -18.5279   20.6439 C   0  0  0  0  0  0  0  0  0  0  0  0
   13.1399  -17.5358   21.6431 C   0  0  2  0  0  0  0  0  0  0  0  0
   13.6400  -17.9403   23.0085 C   0  0  0  0  0  0  0  0  0  0  0  0
   11.6514  -17.3568   21.6093 C   0  0  2  0  0  0  0  0  0  0  0  0
   10.9989  -17.2025   20.3700 N   0  0  0  0  0  0  0  0  0  0  0  0
   11.0819  -16.5729   22.7216 C   0  0  0  0  0  0  0  0  0  0  0  0
   10.9605  -15.3206   22.6974 O   0  0  0  0  0  0  0  0  0  0  0  0
   10.6296  -17.2143   23.9085 N   0  0  0  0  0  0  0  0  0  0  0  0
    9.7630  -16.5178   24.8739 C   0  0  1  0  0  0  0  0  0  0  0  0
    8.5886  -15.9296   24.1883 C   0  0  0  0  0  0  0  0  0  0  0  0
    7.6855  -15.2312   25.1080 C   0  0  0  0  0  0  0  0  0  0  0  0
    6.5902  -15.7304   25.7993 C   0  0  0  0  0  0  0  0  0  0  0  0
    5.9839  -14.7751   26.5182 N   0  0  0  0  0  0  0  0  0  0  0  0
    6.6853  -13.6336   26.3006 C   0  0  0  0  0  0  0  0  0  0  0  0
    6.4849  -12.3713   26.8202 C   0  0  0  0  0  0  0  0  0  0  0  0
    7.3325  -11.3483   26.4855 C   0  0  0  0  0  0  0  0  0  0  0  0
    8.3919  -11.5597   25.6304 C   0  0  0  0  0  0  0  0  0  0  0  0
    8.5720  -12.8246   25.1241 C   0  0  0  0  0  0  0  0  0  0  0  0
    7.7331  -13.8737   25.4440 C   0  0  0  0  0  0  0  0  0  0  0  0
    9.4669  -17.3867   26.0116 C   0  0  0  0  0  0  0  0  0  0  0  0
    9.0603  -16.8628   27.1104 O   0  0  0  0  0  0  0  0  0  0  0  0
    9.5717  -18.7641   26.0422 O   0  0  0  0  0  0  0  0  0  0  0  0
  2  1  1  0
  3  2  1  0
  4  3  1  0
  5  4  1  0
  5  6  1  1
  7  5  1  0
  8  7  2  0
  9 10  1  0
 11 13  1  0
 11 10  1  0
 11 12  1  1
 13 14  1  6
 14  7  1  0
 15 13  1  0
 15 17  1  0
 16 15  2  0
 18 17  1  0
 18 29  1  0
 18 19  1  6
 20 19  1  0
 20 21  2  0
 22 21  1  0
 23 22  1  0
 24 23  2  0
 25 24  1  0
 26 25  2  0
 26 27  1  0
 27 28  2  0
 28 23  1  0
 28 20  1  0
 29 31  1  0
 30 29  2  0
M  END
$$$$
