MIW.pdb
     RDKit          3D

 31 32  0  0  1  0  0  0  0  0999 V2000
    6.7828  -20.7810   23.7016 C   0  0  0  0  0  0  0  0  0  0  0  0
    6.8676  -21.9199   22.2862 S   0  0  0  0  0  0  0  0  0  0  0  0
    7.2260  -20.9352   20.7893 C   0  0  0  0  0  0  0  0  0  0  0  0
    7.8579  -19.6316   21.2237 C   0  0  0  0  0  0  0  0  0  0  0  0
    8.2084  -18.7670   20.0603 C   0  0  2  0  0  0  0  0  0  0  0  0
    8.9567  -19.4622   19.0425 N   0  0  0  0  0  0  0  0  0  0  0  0
    8.9401  -17.5116   20.4710 C   0  0  0  0  0  0  0  0  0  0  0  0
   10.1307  -17.3532   20.1754 O   0  0  0  0  0  0  0  0  0  0  0  0
    7.0731  -12.3612   19.7716 C   0  0  0  0  0  0  0  0  0  0  0  0
    7.9510  -13.6021   19.9509 C   0  0  0  0  0  0  0  0  0  0  0  0
    8.0126  -14.0011   21.4032 C   0  0  2  0  0  0  0  0  0  0  0  0
    8.5435  -12.8224   22.1823 C   0  0  0  0  0  0  0  0  0  0  0  0
    8.7815  -15.2596   21.6757 C   0  0  2  0  0  0  0  0  0  0  0  0
    8.2884  -16.4908   21.2000 N   0  0  0  0  0  0  0  0  0  0  0  0
    9.4596  -15.3172   22.9845 C   0  0  0  0  0  0  0  0  0  0  0  0
   10.2318  -14.4176   23.4063 O   0  0  0  0  0  0  0  0  0  0  0  0
    9.2667  -16.4245   23.8571 N   0  0  0  0  0  0  0  0  0  0  0  0
    9.9782  -16.5207   25.1426 C   0  0  1  0  0  0  0  0  0  0  0  0
    9.0149  -16.6253   26.2634 C   0  0  0  0  0  0  0  0  0  0  0  0
    7.8543  -15.7448   26.0982 C   0  0  0  0  0  0  0  0  0  0  0  0
    6.5898  -16.0524   25.6153 C   0  0  0  0  0  0  0  0  0  0  0  0
    5.8005  -14.9697   25.5758 N   0  0  0  0  0  0  0  0  0  0  0  0
    6.5499  -13.9365   26.0375 C   0  0  0  0  0  0  0  0  0  0  0  0
    6.2013  -12.6132   26.2135 C   0  0  0  0  0  0  0  0  0  0  0  0
    7.1126  -11.7247   26.7207 C   0  0  0  0  0  0  0  0  0  0  0  0
    8.3836  -12.1331   27.0612 C   0  0  0  0  0  0  0  0  0  0  0  0
    8.7092  -13.4554   26.8766 C   0  0  0  0  0  0  0  0  0  0  0  0
    7.8111  -14.3722   26.3671 C   0  0  0  0  0  0  0  0  0  0  0  0
   11.0002  -17.5642   25.0820 C   0  0  0  0  0  0  0  0  0  0  0  0
   11.1052  -18.2770   24.0200 O   0  0  0  0  0  0  0  0  0  0  0  0
   11.9087  -17.8825   26.0733 O   0  0  0  0  0  0  0  0  0  0  0  0
  2  1  1  0
  3  2  1  0
  4  3  1  0
  5  4  1  0
  5  6  1  6
  7  5  1  0
  8  7  2  0
  9 10  1  0
 11 13  1  0
 11 10  1  0
 11 12  1  1
 13 14  1  1
 14  7  1  0
 15 13  1  0
 15 17  1  0
 16 15  2  0
 18 17  1  0
 18 29  1  0
 18 19  1  1
 20 19  1  0
 20 21  2  0
 22 21  1  0
 23 22  1  0
 24 23  2  0
 25 24  1  0
 26 25  2  0
 26 27  1  0
 27 28  2  0
 28 23  1  0
 28 20  1  0
 29 31  1  0
 30 29  2  0
M  END
$$$$
