MIW.pdb
     RDKit          3D

 31 32  0  0  1  0  0  0  0  0999 V2000
    9.4104  -11.8505   19.6776 C   0  0  0  0  0  0  0  0  0  0  0  0
    8.6910  -12.0590   18.0204 S   0  0  0  0  0  0  0  0  0  0  0  0
    8.5896  -13.8493   17.6695 C   0  0  0  0  0  0  0  0  0  0  0  0
    8.4294  -14.5782   18.9850 C   0  0  0  0  0  0  0  0  0  0  0  0
    8.4347  -16.0587   18.8063 C   0  0  2  0  0  0  0  0  0  0  0  0
    7.4670  -16.5166   17.8404 N   0  0  0  0  0  0  0  0  0  0  0  0
    8.2533  -16.8003   20.1090 C   0  0  0  0  0  0  0  0  0  0  0  0
    7.1560  -16.8080   20.6800 O   0  0  0  0  0  0  0  0  0  0  0  0
    8.9049  -21.8878   21.2295 C   0  0  0  0  0  0  0  0  0  0  0  0
    8.6244  -20.3860   21.1364 C   0  0  0  0  0  0  0  0  0  0  0  0
    9.5523  -19.6175   22.0424 C   0  0  2  0  0  0  0  0  0  0  0  0
    9.3656  -20.1430   23.4450 C   0  0  0  0  0  0  0  0  0  0  0  0
    9.4099  -18.1266   21.9668 C   0  0  2  0  0  0  0  0  0  0  0  0
    9.3256  -17.5004   20.7074 N   0  0  0  0  0  0  0  0  0  0  0  0
   10.1405  -17.3670   22.9989 C   0  0  0  0  0  0  0  0  0  0  0  0
   11.2658  -16.8380   22.8052 O   0  0  0  0  0  0  0  0  0  0  0  0
    9.5913  -17.1912   24.2998 N   0  0  0  0  0  0  0  0  0  0  0  0
   10.2930  -16.4056   25.3286 C   0  0  1  0  0  0  0  0  0  0  0  0
    9.7923  -15.0113   25.3495 C   0  0  0  0  0  0  0  0  0  0  0  0
    8.3802  -14.9212   25.7333 C   0  0  0  0  0  0  0  0  0  0  0  0
    7.4419  -15.9378   25.8458 C   0  0  0  0  0  0  0  0  0  0  0  0
    6.2362  -15.4605   26.1850 N   0  0  0  0  0  0  0  0  0  0  0  0
    6.3786  -14.1155   26.2986 C   0  0  0  0  0  0  0  0  0  0  0  0
    5.4425  -13.1628   26.6445 C   0  0  0  0  0  0  0  0  0  0  0  0
    5.8026  -11.8433   26.7241 C   0  0  0  0  0  0  0  0  0  0  0  0
    7.0958  -11.4468   26.4619 C   0  0  0  0  0  0  0  0  0  0  0  0
    8.0112  -12.4125   26.1183 C   0  0  0  0  0  0  0  0  0  0  0  0
    7.6759  -13.7490   26.0301 C   0  0  0  0  0  0  0  0  0  0  0  0
   10.2710  -17.1092   26.6098 C   0  0  0  0  0  0  0  0  0  0  0  0
    9.5681  -18.1767   26.7259 O   0  0  0  0  0  0  0  0  0  0  0  0
   10.9517  -16.7484   27.7568 O   0  0  0  0  0  0  0  0  0  0  0  0
  2  1  1  0
  3  2  1  0
  4  3  1  0
  5  4  1  0
  5  6  1  6
  7  5  1  0
  8  7  2  0
  9 10  1  0
 11 13  1  0
 11 10  1  0
 11 12  1  1
 13 14  1  6
 14  7  1  0
 15 13  1  0
 15 17  1  0
 16 15  2  0
 18 17  1  0
 18 29  1  0
 18 19  1  1
 20 19  1  0
 20 21  2  0
 22 21  1  0
 23 22  1  0
 24 23  2  0
 25 24  1  0
 26 25  2  0
 26 27  1  0
 27 28  2  0
 28 23  1  0
 28 20  1  0
 29 31  1  0
 30 29  2  0
M  END
$$$$
