MIW.pdb
     RDKit          3D

 31 32  0  0  1  0  0  0  0  0999 V2000
    7.4462  -12.3695   15.7890 C   0  0  0  0  0  0  0  0  0  0  0  0
    7.3007  -13.6489   17.0732 S   0  0  0  0  0  0  0  0  0  0  0  0
    7.3202  -12.8201   18.7014 C   0  0  0  0  0  0  0  0  0  0  0  0
    7.3235  -13.8876   19.7728 C   0  0  0  0  0  0  0  0  0  0  0  0
    8.6948  -14.4132   20.0319 C   0  0  2  0  0  0  0  0  0  0  0  0
    9.2731  -15.0759   18.8893 N   0  0  0  0  0  0  0  0  0  0  0  0
    8.7490  -15.3217   21.2367 C   0  0  0  0  0  0  0  0  0  0  0  0
    8.3489  -14.9280   22.3390 O   0  0  0  0  0  0  0  0  0  0  0  0
    9.1493  -20.9890   20.2390 C   0  0  0  0  0  0  0  0  0  0  0  0
    8.7881  -19.5464   20.6012 C   0  0  0  0  0  0  0  0  0  0  0  0
    9.6635  -19.0477   21.7225 C   0  0  2  0  0  0  0  0  0  0  0  0
    9.5255  -20.0099   22.8771 C   0  0  0  0  0  0  0  0  0  0  0  0
    9.4120  -17.6264   22.1296 C   0  0  2  0  0  0  0  0  0  0  0  0
    9.2557  -16.6377   21.1380 N   0  0  0  0  0  0  0  0  0  0  0  0
   10.1075  -17.1851   23.3534 C   0  0  0  0  0  0  0  0  0  0  0  0
   11.1090  -16.4231   23.3462 O   0  0  0  0  0  0  0  0  0  0  0  0
    9.6659  -17.6123   24.6369 N   0  0  0  0  0  0  0  0  0  0  0  0
   10.0908  -16.9184   25.8640 C   0  0  1  0  0  0  0  0  0  0  0  0
    9.9381  -15.4526   25.7119 C   0  0  0  0  0  0  0  0  0  0  0  0
    8.5354  -15.0329   25.6359 C   0  0  0  0  0  0  0  0  0  0  0  0
    7.4186  -15.7853   25.2996 C   0  0  0  0  0  0  0  0  0  0  0  0
    6.3037  -15.0411   25.3022 N   0  0  0  0  0  0  0  0  0  0  0  0
    6.6869  -13.7846   25.6441 C   0  0  0  0  0  0  0  0  0  0  0  0
    5.9195  -12.6496   25.8059 C   0  0  0  0  0  0  0  0  0  0  0  0
    6.5078  -11.4706   26.1815 C   0  0  0  0  0  0  0  0  0  0  0  0
    7.8658  -11.3976   26.4025 C   0  0  0  0  0  0  0  0  0  0  0  0
    8.6107  -12.5402   26.2346 C   0  0  0  0  0  0  0  0  0  0  0  0
    8.0443  -13.7413   25.8563 C   0  0  0  0  0  0  0  0  0  0  0  0
    9.4413  -17.5082   27.0334 C   0  0  0  0  0  0  0  0  0  0  0  0
    9.8004  -17.1306   28.2062 O   0  0  0  0  0  0  0  0  0  0  0  0
    8.4396  -18.4598   27.0237 O   0  0  0  0  0  0  0  0  0  0  0  0
  2  1  1  0
  3  2  1  0
  4  3  1  0
  5  4  1  0
  5  6  1  6
  7  5  1  0
  8  7  2  0
  9 10  1  0
 11 13  1  0
 11 10  1  0
 11 12  1  1
 13 14  1  6
 14  7  1  0
 15 13  1  0
 15 17  1  0
 16 15  2  0
 18 17  1  0
 18 29  1  0
 18 19  1  6
 20 19  1  0
 20 21  2  0
 22 21  1  0
 23 22  1  0
 24 23  2  0
 25 24  1  0
 26 25  2  0
 26 27  1  0
 27 28  2  0
 28 23  1  0
 28 20  1  0
 29 31  1  0
 30 29  2  0
M  END
$$$$
