MIW.pdb
     RDKit          3D

 31 32  0  0  1  0  0  0  0  0999 V2000
    2.7934  -18.4208   21.8323 C   0  0  0  0  0  0  0  0  0  0  0  0
    3.8256  -19.8622   22.2377 S   0  0  0  0  0  0  0  0  0  0  0  0
    5.5428  -19.4854   21.7400 C   0  0  0  0  0  0  0  0  0  0  0  0
    5.5184  -18.9702   20.3183 C   0  0  0  0  0  0  0  0  0  0  0  0
    6.8776  -18.5840   19.8417 C   0  0  2  0  0  0  0  0  0  0  0  0
    7.7282  -19.7174   19.5753 N   0  0  0  0  0  0  0  0  0  0  0  0
    7.5717  -17.6285   20.7826 C   0  0  0  0  0  0  0  0  0  0  0  0
    8.4528  -18.0326   21.5512 O   0  0  0  0  0  0  0  0  0  0  0  0
    7.3767  -12.0467   19.4826 C   0  0  0  0  0  0  0  0  0  0  0  0
    7.7957  -13.4788   19.8238 C   0  0  0  0  0  0  0  0  0  0  0  0
    7.4744  -13.7953   21.2622 C   0  0  2  0  0  0  0  0  0  0  0  0
    8.2504  -12.8342   22.1294 C   0  0  0  0  0  0  0  0  0  0  0  0
    7.6962  -15.2258   21.6540 C   0  0  2  0  0  0  0  0  0  0  0  0
    7.2351  -16.2560   20.8106 N   0  0  0  0  0  0  0  0  0  0  0  0
    7.6058  -15.5084   23.0990 C   0  0  0  0  0  0  0  0  0  0  0  0
    6.5177  -15.5634   23.7288 O   0  0  0  0  0  0  0  0  0  0  0  0
    8.7785  -15.7392   23.8713 N   0  0  0  0  0  0  0  0  0  0  0  0
    8.6985  -16.1375   25.2865 C   0  0  1  0  0  0  0  0  0  0  0  0
    7.7245  -17.2401   25.4620 C   0  0  0  0  0  0  0  0  0  0  0  0
    8.3365  -18.5652   25.3246 C   0  0  0  0  0  0  0  0  0  0  0  0
    9.6546  -18.8897   25.0350 C   0  0  0  0  0  0  0  0  0  0  0  0
    9.8290  -20.2162   24.9526 N   0  0  0  0  0  0  0  0  0  0  0  0
    8.6149  -20.7742   25.1907 C   0  0  0  0  0  0  0  0  0  0  0  0
    8.2587  -22.1063   25.2391 C   0  0  0  0  0  0  0  0  0  0  0  0
    6.9659  -22.4616   25.5211 C   0  0  0  0  0  0  0  0  0  0  0  0
    6.0056  -21.5029   25.7594 C   0  0  0  0  0  0  0  0  0  0  0  0
    6.3825  -20.1824   25.7051 C   0  0  0  0  0  0  0  0  0  0  0  0
    7.6777  -19.7959   25.4227 C   0  0  0  0  0  0  0  0  0  0  0  0
   10.0364  -16.3783   25.8241 C   0  0  0  0  0  0  0  0  0  0  0  0
   11.0256  -16.4915   25.0143 O   0  0  0  0  0  0  0  0  0  0  0  0
   10.3764  -16.4972   27.1581 O   0  0  0  0  0  0  0  0  0  0  0  0
  2  1  1  0
  3  2  1  0
  4  3  1  0
  5  4  1  0
  5  6  1  1
  7  5  1  0
  8  7  2  0
  9 10  1  0
 11 13  1  0
 11 10  1  0
 11 12  1  1
 13 14  1  6
 14  7  1  0
 15 13  1  0
 15 17  1  0
 16 15  2  0
 18 17  1  0
 18 29  1  0
 18 19  1  6
 20 19  1  0
 20 21  2  0
 22 21  1  0
 23 22  1  0
 24 23  2  0
 25 24  1  0
 26 25  2  0
 26 27  1  0
 27 28  2  0
 28 23  1  0
 28 20  1  0
 29 31  1  0
 30 29  2  0
M  END
$$$$
