MIW.pdb
     RDKit          3D

 31 32  0  0  1  0  0  0  0  0999 V2000
    9.3553  -21.9324   20.5549 C   0  0  0  0  0  0  0  0  0  0  0  0
   10.0619  -22.1202   18.8897 S   0  0  0  0  0  0  0  0  0  0  0  0
    9.8700  -20.5293   18.0117 C   0  0  0  0  0  0  0  0  0  0  0  0
    9.8998  -19.4188   19.0380 C   0  0  0  0  0  0  0  0  0  0  0  0
    9.6469  -18.0841   18.4228 C   0  0  2  0  0  0  0  0  0  0  0  0
   10.4930  -17.8140   17.2869 N   0  0  0  0  0  0  0  0  0  0  0  0
    9.7499  -16.9567   19.4219 C   0  0  0  0  0  0  0  0  0  0  0  0
   10.8422  -16.4283   19.6625 O   0  0  0  0  0  0  0  0  0  0  0  0
    7.0656  -12.3901   19.7342 C   0  0  0  0  0  0  0  0  0  0  0  0
    7.9791  -13.6156   19.8138 C   0  0  0  0  0  0  0  0  0  0  0  0
    7.7884  -14.3332   21.1256 C   0  0  2  0  0  0  0  0  0  0  0  0
    8.1599  -13.3763   22.2320 C   0  0  0  0  0  0  0  0  0  0  0  0
    8.5117  -15.6424   21.2351 C   0  0  2  0  0  0  0  0  0  0  0  0
    8.6086  -16.4784   20.1050 N   0  0  0  0  0  0  0  0  0  0  0  0
    8.3624  -16.3430   22.5246 C   0  0  0  0  0  0  0  0  0  0  0  0
    7.2479  -16.6298   23.0338 O   0  0  0  0  0  0  0  0  0  0  0  0
    9.5045  -16.7396   23.2750 N   0  0  0  0  0  0  0  0  0  0  0  0
    9.7845  -16.1700   24.6036 C   0  0  1  0  0  0  0  0  0  0  0  0
    9.3624  -14.7510   24.6604 C   0  0  0  0  0  0  0  0  0  0  0  0
    8.0540  -14.5732   25.2976 C   0  0  0  0  0  0  0  0  0  0  0  0
    6.9713  -15.4414   25.3198 C   0  0  0  0  0  0  0  0  0  0  0  0
    5.9279  -14.9115   25.9735 N   0  0  0  0  0  0  0  0  0  0  0  0
    6.3247  -13.6815   26.3881 C   0  0  0  0  0  0  0  0  0  0  0  0
    5.6308  -12.7383   27.1178 C   0  0  0  0  0  0  0  0  0  0  0  0
    6.2305  -11.5536   27.4553 C   0  0  0  0  0  0  0  0  0  0  0  0
    7.5271  -11.2845   27.0749 C   0  0  0  0  0  0  0  0  0  0  0  0
    8.1989  -12.2379   26.3480 C   0  0  0  0  0  0  0  0  0  0  0  0
    7.6190  -13.4399   25.9936 C   0  0  0  0  0  0  0  0  0  0  0  0
    9.2486  -17.0362   25.6522 C   0  0  0  0  0  0  0  0  0  0  0  0
    9.5096  -16.7683   26.8799 O   0  0  0  0  0  0  0  0  0  0  0  0
    8.4555  -18.1528   25.4695 O   0  0  0  0  0  0  0  0  0  0  0  0
  2  1  1  0
  3  2  1  0
  4  3  1  0
  5  4  1  0
  5  6  1  6
  7  5  1  0
  8  7  2  0
  9 10  1  0
 11 13  1  0
 11 10  1  0
 11 12  1  1
 13 14  1  6
 14  7  1  0
 15 13  1  0
 15 17  1  0
 16 15  2  0
 18 17  1  0
 18 29  1  0
 18 19  1  6
 20 19  1  0
 20 21  2  0
 22 21  1  0
 23 22  1  0
 24 23  2  0
 25 24  1  0
 26 25  2  0
 26 27  1  0
 27 28  2  0
 28 23  1  0
 28 20  1  0
 29 31  1  0
 30 29  2  0
M  END
$$$$
