MIW.pdb
     RDKit          3D

 31 32  0  0  1  0  0  0  0  0999 V2000
   10.6668  -23.1735   16.3099 C   0  0  0  0  0  0  0  0  0  0  0  0
   10.8654  -21.3909   16.6102 S   0  0  0  0  0  0  0  0  0  0  0  0
    9.4943  -20.8429   17.6865 C   0  0  0  0  0  0  0  0  0  0  0  0
    9.7799  -19.4246   18.1270 C   0  0  0  0  0  0  0  0  0  0  0  0
    9.2107  -19.1340   19.4745 C   0  0  2  0  0  0  0  0  0  0  0  0
    7.7715  -19.2139   19.5111 N   0  0  0  0  0  0  0  0  0  0  0  0
    9.6671  -17.8027   20.0214 C   0  0  0  0  0  0  0  0  0  0  0  0
   10.8715  -17.5662   20.1753 O   0  0  0  0  0  0  0  0  0  0  0  0
    7.3271  -12.0144   20.5756 C   0  0  0  0  0  0  0  0  0  0  0  0
    8.4125  -13.0343   20.9282 C   0  0  0  0  0  0  0  0  0  0  0  0
    7.9269  -14.4365   20.6630 C   0  0  2  0  0  0  0  0  0  0  0  0
    6.6712  -14.6497   21.4728 C   0  0  0  0  0  0  0  0  0  0  0  0
    8.9484  -15.5089   20.8990 C   0  0  2  0  0  0  0  0  0  0  0  0
    8.7364  -16.7977   20.3705 N   0  0  0  0  0  0  0  0  0  0  0  0
    9.6153  -15.4705   22.2142 C   0  0  0  0  0  0  0  0  0  0  0  0
   10.5249  -14.6519   22.5077 O   0  0  0  0  0  0  0  0  0  0  0  0
    9.2508  -16.3835   23.2431 N   0  0  0  0  0  0  0  0  0  0  0  0
    9.9093  -16.3575   24.5598 C   0  0  1  0  0  0  0  0  0  0  0  0
    9.7752  -15.0196   25.1818 C   0  0  0  0  0  0  0  0  0  0  0  0
    8.4125  -14.7442   25.6474 C   0  0  0  0  0  0  0  0  0  0  0  0
    7.3137  -15.5918   25.6742 C   0  0  0  0  0  0  0  0  0  0  0  0
    6.2209  -14.9676   26.1358 N   0  0  0  0  0  0  0  0  0  0  0  0
    6.6009  -13.6954   26.4176 C   0  0  0  0  0  0  0  0  0  0  0  0
    5.8573  -12.6545   26.9343 C   0  0  0  0  0  0  0  0  0  0  0  0
    6.4460  -11.4396   27.1677 C   0  0  0  0  0  0  0  0  0  0  0  0
    7.7807  -11.2368   26.8927 C   0  0  0  0  0  0  0  0  0  0  0  0
    8.5018  -12.2872   26.3778 C   0  0  0  0  0  0  0  0  0  0  0  0
    7.9342  -13.5218   26.1322 C   0  0  0  0  0  0  0  0  0  0  0  0
    9.4629  -17.4862   25.3746 C   0  0  0  0  0  0  0  0  0  0  0  0
    9.9500  -17.6399   26.5519 O   0  0  0  0  0  0  0  0  0  0  0  0
    8.5343  -18.4435   25.0133 O   0  0  0  0  0  0  0  0  0  0  0  0
  2  1  1  0
  3  2  1  0
  4  3  1  0
  5  4  1  0
  5  6  1  6
  7  5  1  0
  8  7  2  0
  9 10  1  0
 11 13  1  0
 11 10  1  0
 11 12  1  1
 13 14  1  1
 14  7  1  0
 15 13  1  0
 15 17  1  0
 16 15  2  0
 18 17  1  0
 18 29  1  0
 18 19  1  1
 20 19  1  0
 20 21  2  0
 22 21  1  0
 23 22  1  0
 24 23  2  0
 25 24  1  0
 26 25  2  0
 26 27  1  0
 27 28  2  0
 28 23  1  0
 28 20  1  0
 29 31  1  0
 30 29  2  0
M  END
$$$$
