MIW.pdb
     RDKit          3D

 31 32  0  0  1  0  0  0  0  0999 V2000
    9.1174  -20.5254   21.5277 C   0  0  0  0  0  0  0  0  0  0  0  0
   10.0092  -21.0016   20.0160 S   0  0  0  0  0  0  0  0  0  0  0  0
   11.5872  -20.0813   19.9772 C   0  0  0  0  0  0  0  0  0  0  0  0
   11.5829  -19.1913   18.7544 C   0  0  0  0  0  0  0  0  0  0  0  0
   10.5301  -18.1382   18.8350 C   0  0  2  0  0  0  0  0  0  0  0  0
   10.3955  -17.3769   17.6178 N   0  0  0  0  0  0  0  0  0  0  0  0
   10.7308  -17.2065   20.0062 C   0  0  0  0  0  0  0  0  0  0  0  0
   11.6920  -16.4284   20.0324 O   0  0  0  0  0  0  0  0  0  0  0  0
    6.7408  -14.1769   22.0590 C   0  0  0  0  0  0  0  0  0  0  0  0
    8.0462  -14.8239   21.5898 C   0  0  0  0  0  0  0  0  0  0  0  0
    8.6488  -15.6581   22.6913 C   0  0  2  0  0  0  0  0  0  0  0  0
    8.9206  -14.7465   23.8630 C   0  0  0  0  0  0  0  0  0  0  0  0
    9.8582  -16.4485   22.2891 C   0  0  2  0  0  0  0  0  0  0  0  0
    9.8319  -17.1991   21.0971 N   0  0  0  0  0  0  0  0  0  0  0  0
   10.6151  -17.0576   23.3992 C   0  0  0  0  0  0  0  0  0  0  0  0
   10.2460  -18.0987   24.0021 O   0  0  0  0  0  0  0  0  0  0  0  0
   11.8337  -16.4802   23.8535 N   0  0  0  0  0  0  0  0  0  0  0  0
   12.5929  -17.0704   24.9685 C   0  0  1  0  0  0  0  0  0  0  0  0
   12.7053  -16.1069   26.0884 C   0  0  0  0  0  0  0  0  0  0  0  0
   11.5048  -16.0713   26.9291 C   0  0  0  0  0  0  0  0  0  0  0  0
   10.8430  -17.1234   27.5469 C   0  0  0  0  0  0  0  0  0  0  0  0
    9.7536  -16.7023   28.2047 N   0  0  0  0  0  0  0  0  0  0  0  0
    9.6949  -15.3588   28.0208 C   0  0  0  0  0  0  0  0  0  0  0  0
    8.7775  -14.4489   28.5047 C   0  0  0  0  0  0  0  0  0  0  0  0
    8.9141  -13.1165   28.2163 C   0  0  0  0  0  0  0  0  0  0  0  0
    9.9616  -12.6646   27.4438 C   0  0  0  0  0  0  0  0  0  0  0  0
   10.8628  -13.5885   26.9718 C   0  0  0  0  0  0  0  0  0  0  0  0
   10.7492  -14.9370   27.2464 C   0  0  0  0  0  0  0  0  0  0  0  0
   12.0543  -18.3854   25.3116 C   0  0  0  0  0  0  0  0  0  0  0  0
   10.8050  -18.6170   25.1308 O   0  0  0  0  0  0  0  0  0  0  0  0
   12.7633  -19.4552   25.8234 O   0  0  0  0  0  0  0  0  0  0  0  0
  2  1  1  0
  3  2  1  0
  4  3  1  0
  5  4  1  0
  5  6  1  6
  7  5  1  0
  8  7  2  0
  9 10  1  0
 11 13  1  0
 11 10  1  0
 11 12  1  1
 13 14  1  6
 14  7  1  0
 15 13  1  0
 15 17  1  0
 16 15  2  0
 18 17  1  0
 18 29  1  0
 18 19  1  1
 20 19  1  0
 20 21  2  0
 22 21  1  0
 23 22  1  0
 24 23  2  0
 25 24  1  0
 26 25  2  0
 26 27  1  0
 27 28  2  0
 28 23  1  0
 28 20  1  0
 29 31  1  0
 30 29  2  0
M  END
$$$$
