MIW.pdb
     RDKit          3D

 31 32  0  0  1  0  0  0  0  0999 V2000
    7.2672  -20.4583   25.1680 C   0  0  0  0  0  0  0  0  0  0  0  0
    6.8123  -21.7631   23.9857 S   0  0  0  0  0  0  0  0  0  0  0  0
    6.5228  -20.9780   22.3614 C   0  0  0  0  0  0  0  0  0  0  0  0
    7.4034  -19.7520   22.2678 C   0  0  0  0  0  0  0  0  0  0  0  0
    7.2026  -19.0179   20.9853 C   0  0  2  0  0  0  0  0  0  0  0  0
    7.4541  -19.8310   19.8214 N   0  0  0  0  0  0  0  0  0  0  0  0
    8.0150  -17.7473   20.9117 C   0  0  0  0  0  0  0  0  0  0  0  0
    9.1355  -17.7474   20.3876 O   0  0  0  0  0  0  0  0  0  0  0  0
    6.4282  -12.6829   19.3767 C   0  0  0  0  0  0  0  0  0  0  0  0
    7.2297  -13.9448   19.7053 C   0  0  0  0  0  0  0  0  0  0  0  0
    7.4964  -14.0311   21.1865 C   0  0  2  0  0  0  0  0  0  0  0  0
    8.2682  -12.7977   21.5878 C   0  0  0  0  0  0  0  0  0  0  0  0
    8.1692  -15.2960   21.6297 C   0  0  2  0  0  0  0  0  0  0  0  0
    7.5203  -16.5316   21.4367 N   0  0  0  0  0  0  0  0  0  0  0  0
    8.9653  -15.1903   22.8671 C   0  0  0  0  0  0  0  0  0  0  0  0
    9.6789  -14.1933   23.1505 O   0  0  0  0  0  0  0  0  0  0  0  0
    8.9635  -16.2410   23.8267 N   0  0  0  0  0  0  0  0  0  0  0  0
    9.7513  -16.1479   25.0671 C   0  0  1  0  0  0  0  0  0  0  0  0
    8.8599  -16.1484   26.2505 C   0  0  0  0  0  0  0  0  0  0  0  0
    7.7637  -15.1816   26.1357 C   0  0  0  0  0  0  0  0  0  0  0  0
    6.4265  -15.4121   25.8436 C   0  0  0  0  0  0  0  0  0  0  0  0
    5.7300  -14.2683   25.7870 N   0  0  0  0  0  0  0  0  0  0  0  0
    6.6149  -13.2718   26.0447 C   0  0  0  0  0  0  0  0  0  0  0  0
    6.4017  -11.9110   26.1226 C   0  0  0  0  0  0  0  0  0  0  0  0
    7.4406  -11.0690   26.4206 C   0  0  0  0  0  0  0  0  0  0  0  0
    8.7072  -11.5620   26.6460 C   0  0  0  0  0  0  0  0  0  0  0  0
    8.8967  -12.9206   26.5624 C   0  0  0  0  0  0  0  0  0  0  0  0
    7.8683  -13.7920   26.2633 C   0  0  0  0  0  0  0  0  0  0  0  0
   10.8153  -17.1504   25.0711 C   0  0  0  0  0  0  0  0  0  0  0  0
   10.8673  -18.0120   24.1213 O   0  0  0  0  0  0  0  0  0  0  0  0
   11.8173  -17.2809   26.0135 O   0  0  0  0  0  0  0  0  0  0  0  0
  2  1  1  0
  3  2  1  0
  4  3  1  0
  5  4  1  0
  5  6  1  6
  7  5  1  0
  8  7  2  0
  9 10  1  0
 11 13  1  0
 11 10  1  0
 11 12  1  6
 13 14  1  1
 14  7  1  0
 15 13  1  0
 15 17  1  0
 16 15  2  0
 18 17  1  0
 18 29  1  0
 18 19  1  1
 20 19  1  0
 20 21  2  0
 22 21  1  0
 23 22  1  0
 24 23  2  0
 25 24  1  0
 26 25  2  0
 26 27  1  0
 27 28  2  0
 28 23  1  0
 28 20  1  0
 29 31  1  0
 30 29  2  0
M  END
$$$$
