MIW.pdb
     RDKit          3D

 31 32  0  0  1  0  0  0  0  0999 V2000
   11.2925  -22.8925   17.4864 C   0  0  0  0  0  0  0  0  0  0  0  0
   11.2863  -21.6573   18.8211 S   0  0  0  0  0  0  0  0  0  0  0  0
   11.2505  -19.9985   18.0557 C   0  0  0  0  0  0  0  0  0  0  0  0
   11.2695  -18.9688   19.1633 C   0  0  0  0  0  0  0  0  0  0  0  0
   11.0816  -17.5846   18.6410 C   0  0  2  0  0  0  0  0  0  0  0  0
   12.1908  -17.1246   17.8427 N   0  0  0  0  0  0  0  0  0  0  0  0
   10.7858  -16.5874   19.7356 C   0  0  0  0  0  0  0  0  0  0  0  0
   11.6909  -15.8941   20.2152 O   0  0  0  0  0  0  0  0  0  0  0  0
    6.5335  -13.1528   19.8630 C   0  0  0  0  0  0  0  0  0  0  0  0
    7.8847  -13.8443   20.0599 C   0  0  0  0  0  0  0  0  0  0  0  0
    7.8242  -14.8019   21.2226 C   0  0  2  0  0  0  0  0  0  0  0  0
    7.5659  -13.9942   22.4711 C   0  0  0  0  0  0  0  0  0  0  0  0
    9.0183  -15.6989   21.3588 C   0  0  2  0  0  0  0  0  0  0  0  0
    9.4752  -16.4211   20.2385 N   0  0  0  0  0  0  0  0  0  0  0  0
    9.1405  -16.3996   22.6511 C   0  0  0  0  0  0  0  0  0  0  0  0
    8.9960  -17.6428   22.7831 O   0  0  0  0  0  0  0  0  0  0  0  0
    9.4364  -15.6824   23.8439 N   0  0  0  0  0  0  0  0  0  0  0  0
    9.6437  -16.3775   25.1252 C   0  0  1  0  0  0  0  0  0  0  0  0
    9.5012  -15.4333   26.2580 C   0  0  0  0  0  0  0  0  0  0  0  0
    8.1941  -14.7697   26.2826 C   0  0  0  0  0  0  0  0  0  0  0  0
    6.9306  -15.3302   26.1568 C   0  0  0  0  0  0  0  0  0  0  0  0
    5.9709  -14.3950   26.1905 N   0  0  0  0  0  0  0  0  0  0  0  0
    6.6057  -13.2048   26.3408 C   0  0  0  0  0  0  0  0  0  0  0  0
    6.0730  -11.9367   26.4493 C   0  0  0  0  0  0  0  0  0  0  0  0
    6.8990  -10.8571   26.6202 C   0  0  0  0  0  0  0  0  0  0  0  0
    8.2659  -11.0168   26.6860 C   0  0  0  0  0  0  0  0  0  0  0  0
    8.7746  -12.2886   26.5747 C   0  0  0  0  0  0  0  0  0  0  0  0
    7.9658  -13.3942   26.4014 C   0  0  0  0  0  0  0  0  0  0  0  0
    8.8161  -17.5808   25.1914 C   0  0  0  0  0  0  0  0  0  0  0  0
    9.0705  -18.4674   26.0837 O   0  0  0  0  0  0  0  0  0  0  0  0
    7.7432  -17.8855   24.3758 O   0  0  0  0  0  0  0  0  0  0  0  0
  2  1  1  0
  3  2  1  0
  4  3  1  0
  5  4  1  0
  5  6  1  1
  7  5  1  0
  8  7  2  0
  9 10  1  0
 11 13  1  0
 11 10  1  0
 11 12  1  1
 13 14  1  6
 14  7  1  0
 15 13  1  0
 15 17  1  0
 16 15  2  0
 18 17  1  0
 18 29  1  0
 18 19  1  1
 20 19  1  0
 20 21  2  0
 22 21  1  0
 23 22  1  0
 24 23  2  0
 25 24  1  0
 26 25  2  0
 26 27  1  0
 27 28  2  0
 28 23  1  0
 28 20  1  0
 29 31  1  0
 30 29  2  0
M  END
$$$$
