YAE.pdb
     RDKit          3D

 27 27  0  0  1  0  0  0  0  0999 V2000
    7.4231  -13.3634   16.0306 O   0  0  0  0  0  0  0  0  0  0  0  0
    7.6202  -13.5616   17.3982 C   0  0  0  0  0  0  0  0  0  0  0  0
    8.1104  -14.7686   17.8478 C   0  0  0  0  0  0  0  0  0  0  0  0
    8.3065  -14.9627   19.2210 C   0  0  0  0  0  0  0  0  0  0  0  0
    8.0138  -13.9599   20.1191 C   0  0  0  0  0  0  0  0  0  0  0  0
    8.2414  -14.2267   21.5544 C   0  0  0  0  0  0  0  0  0  0  0  0
    7.5988  -15.4935   22.0296 C   0  0  2  0  0  0  0  0  0  0  0  0
    6.1607  -15.4854   21.9984 N   0  0  0  0  0  0  0  0  0  0  0  0
    8.1227  -15.8221   23.3841 C   0  0  0  0  0  0  0  0  0  0  0  0
    7.9965  -14.9812   24.3286 O   0  0  0  0  0  0  0  0  0  0  0  0
    7.5245  -12.7559   19.6664 C   0  0  0  0  0  0  0  0  0  0  0  0
    7.3298  -12.5614   18.3104 C   0  0  0  0  0  0  0  0  0  0  0  0
    8.2125  -17.9677   25.8310 C   0  0  0  0  0  0  0  0  0  0  0  0
    9.3094  -17.3275   25.0097 C   0  0  2  0  0  0  0  0  0  0  0  0
    8.7711  -17.0444   23.6975 N   0  0  0  0  0  0  0  0  0  0  0  0
   10.4460  -18.3084   24.9277 C   0  0  0  0  0  0  0  0  0  0  0  0
   10.1168  -19.4822   24.6384 O   0  0  0  0  0  0  0  0  0  0  0  0
   11.7429  -17.8546   25.1707 N   0  0  0  0  0  0  0  0  0  0  0  0
   12.9144  -18.6631   25.0818 C   0  0  1  0  0  0  0  0  0  0  0  0
   13.9626  -18.1370   24.1268 C   0  0  0  0  0  0  0  0  0  0  0  0
   14.3892  -16.7297   24.3400 C   0  0  0  0  0  0  0  0  0  0  0  0
   15.3862  -16.3074   23.3422 C   0  0  0  0  0  0  0  0  0  0  0  0
   15.8633  -15.1676   23.3370 O   0  0  0  0  0  0  0  0  0  0  0  0
   13.5170  -18.9773   26.3946 C   0  0  0  0  0  0  0  0  0  0  0  0
   13.1275  -18.4400   27.4579 O   0  0  0  0  0  0  0  0  0  0  0  0
   15.8444  -17.1846   22.3432 O   0  0  0  0  0  0  0  0  0  0  0  0
   14.5595  -19.9054   26.4665 O   0  0  0  0  0  0  0  0  0  0  0  0
  2  1  1  0
  3  2  2  0
  4  3  1  0
  5  4  2  0
  5 11  1  0
  6  5  1  0
  6  7  1  0
  7  9  1  0
  7  8  1  1
  9 10  2  0
  9 15  1  0
 11 12  2  0
 12  2  1  0
 14 13  1  1
 15 14  1  0
 16 14  1  0
 16 17  2  0
 18 19  1  0
 18 16  1  0
 19 20  1  6
 19 24  1  0
 20 21  1  0
 22 21  1  0
 23 22  2  0
 24 25  2  0
 24 27  1  0
 26 22  1  0
M  END
$$$$
