YAE.pdb
     RDKit          3D

 27 27  0  0  1  0  0  0  0  0999 V2000
    5.3481  -10.5305   28.3807 O   0  0  0  0  0  0  0  0  0  0  0  0
    5.9910  -11.4526   27.5533 C   0  0  0  0  0  0  0  0  0  0  0  0
    7.3369  -11.6966   27.7218 C   0  0  0  0  0  0  0  0  0  0  0  0
    7.9775  -12.6228   26.8891 C   0  0  0  0  0  0  0  0  0  0  0  0
    7.2740  -13.2871   25.9084 C   0  0  0  0  0  0  0  0  0  0  0  0
    8.0070  -14.2510   25.0619 C   0  0  0  0  0  0  0  0  0  0  0  0
    7.2184  -15.4867   24.7538 C   0  0  2  0  0  0  0  0  0  0  0  0
    7.0307  -16.3730   25.8712 N   0  0  0  0  0  0  0  0  0  0  0  0
    7.8421  -16.1808   23.5936 C   0  0  0  0  0  0  0  0  0  0  0  0
    8.4650  -17.2737   23.7748 O   0  0  0  0  0  0  0  0  0  0  0  0
    5.9301  -13.0408   25.7431 C   0  0  0  0  0  0  0  0  0  0  0  0
    5.2947  -12.1264   26.5643 C   0  0  0  0  0  0  0  0  0  0  0  0
    8.3921  -15.3709   19.9734 C   0  0  0  0  0  0  0  0  0  0  0  0
    8.5783  -16.2481   21.1914 C   0  0  2  0  0  0  0  0  0  0  0  0
    7.7856  -15.6889   22.2641 N   0  0  0  0  0  0  0  0  0  0  0  0
   10.0412  -16.2381   21.5383 C   0  0  0  0  0  0  0  0  0  0  0  0
   10.4809  -15.1436   21.9612 O   0  0  0  0  0  0  0  0  0  0  0  0
   10.7787  -17.4106   21.3706 N   0  0  0  0  0  0  0  0  0  0  0  0
   12.1334  -17.5818   21.7822 C   0  0  1  0  0  0  0  0  0  0  0  0
   12.3245  -18.5954   22.8884 C   0  0  0  0  0  0  0  0  0  0  0  0
   13.7311  -18.8812   23.2730 C   0  0  0  0  0  0  0  0  0  0  0  0
   13.8049  -19.8389   24.3890 C   0  0  0  0  0  0  0  0  0  0  0  0
   13.6329  -19.4901   25.5618 O   0  0  0  0  0  0  0  0  0  0  0  0
   13.0617  -17.8507   20.6636 C   0  0  0  0  0  0  0  0  0  0  0  0
   14.2481  -17.4466   20.6639 O   0  0  0  0  0  0  0  0  0  0  0  0
   14.0766  -21.2015   24.1723 O   0  0  0  0  0  0  0  0  0  0  0  0
   12.6126  -18.5810   19.5598 O   0  0  0  0  0  0  0  0  0  0  0  0
  2  1  1  0
  3  2  2  0
  4  3  1  0
  5  4  2  0
  5 11  1  0
  6  5  1  0
  6  7  1  0
  7  9  1  0
  7  8  1  1
  9 10  2  0
  9 15  1  0
 11 12  2  0
 12  2  1  0
 14 13  1  6
 15 14  1  0
 16 14  1  0
 16 17  2  0
 18 19  1  0
 18 16  1  0
 19 20  1  1
 19 24  1  0
 20 21  1  0
 22 21  1  0
 23 22  2  0
 24 25  2  0
 24 27  1  0
 26 22  1  0
M  END
$$$$
