YAE.pdb
     RDKit          3D

 27 27  0  0  1  0  0  0  0  0999 V2000
   10.2370  -13.6777   20.4988 O   0  0  0  0  0  0  0  0  0  0  0  0
    8.9896  -14.2956   20.6000 C   0  0  0  0  0  0  0  0  0  0  0  0
    8.4708  -14.9650   19.5127 C   0  0  0  0  0  0  0  0  0  0  0  0
    7.2187  -15.5836   19.6192 C   0  0  0  0  0  0  0  0  0  0  0  0
    6.5071  -15.5268   20.7975 C   0  0  0  0  0  0  0  0  0  0  0  0
    5.1920  -16.1983   20.8460 C   0  0  0  0  0  0  0  0  0  0  0  0
    5.2898  -17.6744   21.0808 C   0  0  2  0  0  0  0  0  0  0  0  0
    4.0903  -18.4103   20.7828 N   0  0  0  0  0  0  0  0  0  0  0  0
    5.7546  -17.9119   22.4752 C   0  0  0  0  0  0  0  0  0  0  0  0
    5.0762  -17.4599   23.4502 O   0  0  0  0  0  0  0  0  0  0  0  0
    7.0283  -14.8574   21.8811 C   0  0  0  0  0  0  0  0  0  0  0  0
    8.2651  -14.2455   21.7788 C   0  0  0  0  0  0  0  0  0  0  0  0
    7.4351  -20.3538   24.3731 C   0  0  0  0  0  0  0  0  0  0  0  0
    7.3643  -18.8584   24.1576 C   0  0  2  0  0  0  0  0  0  0  0  0
    6.9368  -18.6280   22.7952 N   0  0  0  0  0  0  0  0  0  0  0  0
    8.7402  -18.3002   24.3942 C   0  0  0  0  0  0  0  0  0  0  0  0
    9.2310  -18.5520   25.5192 O   0  0  0  0  0  0  0  0  0  0  0  0
    9.3510  -17.5670   23.3763 N   0  0  0  0  0  0  0  0  0  0  0  0
   10.6693  -17.0271   23.4453 C   0  0  1  0  0  0  0  0  0  0  0  0
   11.3658  -16.9128   22.1077 C   0  0  0  0  0  0  0  0  0  0  0  0
   11.3227  -18.1229   21.2463 C   0  0  0  0  0  0  0  0  0  0  0  0
   11.9690  -17.8861   19.9447 C   0  0  0  0  0  0  0  0  0  0  0  0
   12.0860  -18.7811   19.1008 O   0  0  0  0  0  0  0  0  0  0  0  0
   10.7468  -15.7488   24.1836 C   0  0  0  0  0  0  0  0  0  0  0  0
   11.8386  -15.2022   24.4667 O   0  0  0  0  0  0  0  0  0  0  0  0
   12.4866  -16.6251   19.5988 O   0  0  0  0  0  0  0  0  0  0  0  0
    9.5671  -15.1164   24.5862 O   0  0  0  0  0  0  0  0  0  0  0  0
  2  1  1  0
  3  2  2  0
  4  3  1  0
  5  4  2  0
  5 11  1  0
  6  5  1  0
  6  7  1  0
  7  9  1  0
  7  8  1  1
  9 10  2  0
  9 15  1  0
 11 12  2  0
 12  2  1  0
 14 13  1  6
 15 14  1  0
 16 14  1  0
 16 17  2  0
 18 19  1  0
 18 16  1  0
 19 20  1  6
 19 24  1  0
 20 21  1  0
 22 21  1  0
 23 22  2  0
 24 25  2  0
 24 27  1  0
 26 22  1  0
M  END
$$$$
