YAE.pdb
     RDKit          3D

 27 27  0  0  1  0  0  0  0  0999 V2000
    5.5362  -10.8255   28.5548 O   0  0  0  0  0  0  0  0  0  0  0  0
    6.1052  -11.7086   27.6358 C   0  0  0  0  0  0  0  0  0  0  0  0
    6.9866  -12.6733   28.0740 C   0  0  0  0  0  0  0  0  0  0  0  0
    7.5549  -13.5571   27.1480 C   0  0  0  0  0  0  0  0  0  0  0  0
    7.2399  -13.4680   25.8098 C   0  0  0  0  0  0  0  0  0  0  0  0
    7.8734  -14.4286   24.8831 C   0  0  0  0  0  0  0  0  0  0  0  0
    6.9155  -15.4412   24.3349 C   0  0  2  0  0  0  0  0  0  0  0  0
    6.5737  -16.4996   25.2472 N   0  0  0  0  0  0  0  0  0  0  0  0
    7.4525  -15.9680   23.0500 C   0  0  0  0  0  0  0  0  0  0  0  0
    7.7558  -17.1983   22.9519 O   0  0  0  0  0  0  0  0  0  0  0  0
    6.3593  -12.5034   25.3760 C   0  0  0  0  0  0  0  0  0  0  0  0
    5.7963  -11.6290   26.2885 C   0  0  0  0  0  0  0  0  0  0  0  0
    7.4932  -14.7384   19.5507 C   0  0  0  0  0  0  0  0  0  0  0  0
    7.9540  -15.7264   20.5989 C   0  0  2  0  0  0  0  0  0  0  0  0
    7.6536  -15.1652   21.8976 N   0  0  0  0  0  0  0  0  0  0  0  0
    9.4348  -15.9179   20.4222 C   0  0  0  0  0  0  0  0  0  0  0  0
    9.7729  -16.5214   19.3775 O   0  0  0  0  0  0  0  0  0  0  0  0
   10.2969  -15.4246   21.4022 N   0  0  0  0  0  0  0  0  0  0  0  0
   11.3688  -16.1632   21.9849 C   0  0  1  0  0  0  0  0  0  0  0  0
   10.9913  -16.9270   23.2346 C   0  0  0  0  0  0  0  0  0  0  0  0
   12.0765  -17.7247   23.8621 C   0  0  0  0  0  0  0  0  0  0  0  0
   11.6191  -18.3894   25.0938 C   0  0  0  0  0  0  0  0  0  0  0  0
   11.8352  -19.5868   25.3091 O   0  0  0  0  0  0  0  0  0  0  0  0
   12.0684  -17.0452   21.0270 C   0  0  0  0  0  0  0  0  0  0  0  0
   13.3045  -16.9771   20.8311 O   0  0  0  0  0  0  0  0  0  0  0  0
   10.9112  -17.6903   26.0876 O   0  0  0  0  0  0  0  0  0  0  0  0
   11.3366  -17.9939   20.3074 O   0  0  0  0  0  0  0  0  0  0  0  0
  2  1  1  0
  3  2  2  0
  4  3  1  0
  5  4  2  0
  5 11  1  0
  6  5  1  0
  6  7  1  0
  7  9  1  0
  7  8  1  1
  9 10  2  0
  9 15  1  0
 11 12  2  0
 12  2  1  0
 14 13  1  6
 15 14  1  0
 16 14  1  0
 16 17  2  0
 18 19  1  0
 18 16  1  0
 19 20  1  1
 19 24  1  0
 20 21  1  0
 22 21  1  0
 23 22  2  0
 24 25  2  0
 24 27  1  0
 26 22  1  0
M  END
$$$$
