YAE.pdb
     RDKit          3D

 27 27  0  0  1  0  0  0  0  0999 V2000
    9.9797  -14.1119   30.3464 O   0  0  0  0  0  0  0  0  0  0  0  0
    9.7879  -14.3128   28.9785 C   0  0  0  0  0  0  0  0  0  0  0  0
    9.2177  -13.3156   28.2169 C   0  0  0  0  0  0  0  0  0  0  0  0
    9.0275  -13.5219   26.8447 C   0  0  0  0  0  0  0  0  0  0  0  0
    9.4047  -14.7088   26.2557 C   0  0  0  0  0  0  0  0  0  0  0  0
    9.1765  -14.8656   24.8044 C   0  0  0  0  0  0  0  0  0  0  0  0
    7.7531  -15.1800   24.4600 C   0  0  2  0  0  0  0  0  0  0  0  0
    7.2226  -16.3488   25.1094 N   0  0  0  0  0  0  0  0  0  0  0  0
    7.6208  -15.2597   22.9791 C   0  0  0  0  0  0  0  0  0  0  0  0
    7.2527  -16.3492   22.4380 O   0  0  0  0  0  0  0  0  0  0  0  0
    9.9737  -15.7023   27.0194 C   0  0  0  0  0  0  0  0  0  0  0  0
   10.1630  -15.5012   28.3752 C   0  0  0  0  0  0  0  0  0  0  0  0
    7.7231  -12.8313   20.1357 C   0  0  0  0  0  0  0  0  0  0  0  0
    7.6644  -14.2405   20.6820 C   0  0  2  0  0  0  0  0  0  0  0  0
    7.8864  -14.1707   22.1095 N   0  0  0  0  0  0  0  0  0  0  0  0
    8.7465  -15.0351   20.0049 C   0  0  0  0  0  0  0  0  0  0  0  0
    8.5646  -15.2504   18.7841 O   0  0  0  0  0  0  0  0  0  0  0  0
    9.8396  -15.4603   20.7607 N   0  0  0  0  0  0  0  0  0  0  0  0
   10.8528  -16.3479   20.2921 C   0  0  1  0  0  0  0  0  0  0  0  0
   12.2137  -15.7084   20.1290 C   0  0  0  0  0  0  0  0  0  0  0  0
   12.4238  -14.9363   18.8769 C   0  0  0  0  0  0  0  0  0  0  0  0
   13.8172  -14.4778   18.7491 C   0  0  0  0  0  0  0  0  0  0  0  0
   14.2516  -13.9922   17.6992 O   0  0  0  0  0  0  0  0  0  0  0  0
   10.9548  -17.5960   21.0774 C   0  0  0  0  0  0  0  0  0  0  0  0
   11.6565  -18.5665   20.7075 O   0  0  0  0  0  0  0  0  0  0  0  0
   14.7237  -14.5716   19.8200 O   0  0  0  0  0  0  0  0  0  0  0  0
   10.2484  -17.7109   22.2779 O   0  0  0  0  0  0  0  0  0  0  0  0
  2  1  1  0
  3  2  2  0
  4  3  1  0
  5  4  2  0
  5 11  1  0
  6  5  1  0
  6  7  1  0
  7  9  1  0
  7  8  1  1
  9 10  2  0
  9 15  1  0
 11 12  2  0
 12  2  1  0
 14 13  1  6
 15 14  1  0
 16 14  1  0
 16 17  2  0
 18 19  1  0
 18 16  1  0
 19 20  1  1
 19 24  1  0
 20 21  1  0
 22 21  1  0
 23 22  2  0
 24 25  2  0
 24 27  1  0
 26 22  1  0
M  END
$$$$
