YAE.pdb
     RDKit          3D

 27 27  0  0  1  0  0  0  0  0999 V2000
    5.5689  -10.5367   28.1685 O   0  0  0  0  0  0  0  0  0  0  0  0
    6.1105  -11.5589   27.3875 C   0  0  0  0  0  0  0  0  0  0  0  0
    5.8543  -12.8734   27.7130 C   0  0  0  0  0  0  0  0  0  0  0  0
    6.4000  -13.8955   26.9261 C   0  0  0  0  0  0  0  0  0  0  0  0
    7.1866  -13.5961   25.8355 C   0  0  0  0  0  0  0  0  0  0  0  0
    7.7336  -14.7190   25.0463 C   0  0  0  0  0  0  0  0  0  0  0  0
    6.7248  -15.3487   24.1357 C   0  0  2  0  0  0  0  0  0  0  0  0
    5.9697  -16.4211   24.7265 N   0  0  0  0  0  0  0  0  0  0  0  0
    7.4054  -15.7745   22.8817 C   0  0  0  0  0  0  0  0  0  0  0  0
    7.8710  -16.9533   22.7875 O   0  0  0  0  0  0  0  0  0  0  0  0
    7.4402  -12.2824   25.5136 C   0  0  0  0  0  0  0  0  0  0  0  0
    6.9024  -11.2705   26.2890 C   0  0  0  0  0  0  0  0  0  0  0  0
    8.4230  -14.1125   19.6750 C   0  0  0  0  0  0  0  0  0  0  0  0
    8.3974  -15.2901   20.6237 C   0  0  2  0  0  0  0  0  0  0  0  0
    7.5733  -14.9279   21.7556 N   0  0  0  0  0  0  0  0  0  0  0  0
    9.8137  -15.5598   21.0504 C   0  0  0  0  0  0  0  0  0  0  0  0
   10.6550  -14.7128   20.6701 O   0  0  0  0  0  0  0  0  0  0  0  0
   10.0793  -16.6963   21.8151 N   0  0  0  0  0  0  0  0  0  0  0  0
   11.3406  -16.9969   22.4091 C   0  0  1  0  0  0  0  0  0  0  0  0
   11.2502  -17.5629   23.8088 C   0  0  0  0  0  0  0  0  0  0  0  0
   12.5427  -17.9081   24.4555 C   0  0  0  0  0  0  0  0  0  0  0  0
   12.3496  -18.3801   25.8369 C   0  0  0  0  0  0  0  0  0  0  0  0
   11.2314  -18.4296   26.3602 O   0  0  0  0  0  0  0  0  0  0  0  0
   12.2073  -17.8420   21.5608 C   0  0  0  0  0  0  0  0  0  0  0  0
   11.7624  -18.8106   20.9014 O   0  0  0  0  0  0  0  0  0  0  0  0
   13.4333  -18.7980   26.6297 O   0  0  0  0  0  0  0  0  0  0  0  0
   13.5743  -17.5613   21.4823 O   0  0  0  0  0  0  0  0  0  0  0  0
  2  1  1  0
  3  2  2  0
  4  3  1  0
  5  4  2  0
  5 11  1  0
  6  5  1  0
  6  7  1  0
  7  9  1  0
  7  8  1  1
  9 10  2  0
  9 15  1  0
 11 12  2  0
 12  2  1  0
 14 13  1  6
 15 14  1  0
 16 14  1  0
 16 17  2  0
 18 19  1  0
 18 16  1  0
 19 20  1  1
 19 24  1  0
 20 21  1  0
 22 21  1  0
 23 22  2  0
 24 25  2  0
 24 27  1  0
 26 22  1  0
M  END
$$$$
