YAE.pdb
     RDKit          3D

 27 27  0  0  1  0  0  0  0  0999 V2000
    5.8334  -10.8343   28.7402 O   0  0  0  0  0  0  0  0  0  0  0  0
    6.3838  -11.7377   27.8296 C   0  0  0  0  0  0  0  0  0  0  0  0
    5.9131  -11.7717   26.5347 C   0  0  0  0  0  0  0  0  0  0  0  0
    6.4687  -12.6800   25.6248 C   0  0  0  0  0  0  0  0  0  0  0  0
    7.4768  -13.5343   26.0144 C   0  0  0  0  0  0  0  0  0  0  0  0
    8.0204  -14.4696   25.0082 C   0  0  0  0  0  0  0  0  0  0  0  0
    6.9748  -15.3451   24.3887 C   0  0  2  0  0  0  0  0  0  0  0  0
    6.4470  -16.3593   25.2618 N   0  0  0  0  0  0  0  0  0  0  0  0
    7.5149  -15.9244   23.1280 C   0  0  0  0  0  0  0  0  0  0  0  0
    7.6553  -17.1832   23.0234 O   0  0  0  0  0  0  0  0  0  0  0  0
    7.9443  -13.4973   27.3083 C   0  0  0  0  0  0  0  0  0  0  0  0
    7.3973  -12.6011   28.2094 C   0  0  0  0  0  0  0  0  0  0  0  0
    8.3295  -14.6027   19.7184 C   0  0  0  0  0  0  0  0  0  0  0  0
    8.2270  -15.7262   20.7256 C   0  0  2  0  0  0  0  0  0  0  0  0
    7.8938  -15.1426   22.0063 N   0  0  0  0  0  0  0  0  0  0  0  0
    9.5632  -16.4137   20.7761 C   0  0  0  0  0  0  0  0  0  0  0  0
    9.8989  -17.0035   19.7228 O   0  0  0  0  0  0  0  0  0  0  0  0
   10.3085  -16.3463   21.9537 N   0  0  0  0  0  0  0  0  0  0  0  0
   11.4862  -17.1081   22.2122 C   0  0  1  0  0  0  0  0  0  0  0  0
   12.6992  -16.6652   21.4248 C   0  0  0  0  0  0  0  0  0  0  0  0
   13.1768  -15.2830   21.6884 C   0  0  0  0  0  0  0  0  0  0  0  0
   14.4156  -14.9865   20.9498 C   0  0  0  0  0  0  0  0  0  0  0  0
   14.4143  -14.7632   19.7345 O   0  0  0  0  0  0  0  0  0  0  0  0
   11.8121  -17.2233   23.6494 C   0  0  0  0  0  0  0  0  0  0  0  0
   12.7432  -17.9491   24.0706 O   0  0  0  0  0  0  0  0  0  0  0  0
   15.6644  -14.9438   21.5950 O   0  0  0  0  0  0  0  0  0  0  0  0
   11.0625  -16.5021   24.5830 O   0  0  0  0  0  0  0  0  0  0  0  0
  2  1  1  0
  3  2  2  0
  4  3  1  0
  5  4  2  0
  5 11  1  0
  6  5  1  0
  6  7  1  0
  7  9  1  0
  7  8  1  1
  9 10  2  0
  9 15  1  0
 11 12  2  0
 12  2  1  0
 14 13  1  6
 15 14  1  0
 16 14  1  0
 16 17  2  0
 18 19  1  0
 18 16  1  0
 19 20  1  6
 19 24  1  0
 20 21  1  0
 22 21  1  0
 23 22  2  0
 24 25  2  0
 24 27  1  0
 26 22  1  0
M  END
$$$$
