YAE.pdb
     RDKit          3D

 27 27  0  0  1  0  0  0  0  0999 V2000
    5.9306  -10.3265   27.0460 O   0  0  0  0  0  0  0  0  0  0  0  0
    6.1874  -11.4960   26.3287 C   0  0  0  0  0  0  0  0  0  0  0  0
    5.6344  -12.6870   26.7471 C   0  0  0  0  0  0  0  0  0  0  0  0
    5.8949  -13.8577   26.0238 C   0  0  0  0  0  0  0  0  0  0  0  0
    6.6961  -13.8256   24.9035 C   0  0  0  0  0  0  0  0  0  0  0  0
    6.9337  -15.0944   24.1847 C   0  0  0  0  0  0  0  0  0  0  0  0
    8.1765  -15.8023   24.6296 C   0  0  2  0  0  0  0  0  0  0  0  0
    9.3832  -15.0282   24.5114 N   0  0  0  0  0  0  0  0  0  0  0  0
    8.2773  -17.1007   23.9078 C   0  0  0  0  0  0  0  0  0  0  0  0
    7.3623  -17.9715   24.0484 O   0  0  0  0  0  0  0  0  0  0  0  0
    7.2466  -12.6344   24.4888 C   0  0  0  0  0  0  0  0  0  0  0  0
    6.9908  -11.4762   25.2012 C   0  0  0  0  0  0  0  0  0  0  0  0
    9.4052  -18.7354   21.0431 C   0  0  0  0  0  0  0  0  0  0  0  0
    9.5618  -18.7786   22.5468 C   0  0  2  0  0  0  0  0  0  0  0  0
    9.3565  -17.4387   23.0512 N   0  0  0  0  0  0  0  0  0  0  0  0
   10.9544  -19.2608   22.8444 C   0  0  0  0  0  0  0  0  0  0  0  0
   11.2141  -20.4191   22.4433 O   0  0  0  0  0  0  0  0  0  0  0  0
   11.8284  -18.4105   23.5226 N   0  0  0  0  0  0  0  0  0  0  0  0
   13.1651  -18.7467   23.8889 C   0  0  1  0  0  0  0  0  0  0  0  0
   14.2035  -17.7396   23.4473 C   0  0  0  0  0  0  0  0  0  0  0  0
   15.6027  -18.0253   23.8578 C   0  0  0  0  0  0  0  0  0  0  0  0
   16.5217  -16.9550   23.4360 C   0  0  0  0  0  0  0  0  0  0  0  0
   16.2891  -15.7642   23.6700 O   0  0  0  0  0  0  0  0  0  0  0  0
   13.3233  -19.0621   25.3244 C   0  0  0  0  0  0  0  0  0  0  0  0
   12.6302  -18.5129   26.2127 O   0  0  0  0  0  0  0  0  0  0  0  0
   17.7123  -17.2381   22.7433 O   0  0  0  0  0  0  0  0  0  0  0  0
   14.2766  -20.0050   25.7188 O   0  0  0  0  0  0  0  0  0  0  0  0
  2  1  1  0
  3  2  2  0
  4  3  1  0
  5  4  2  0
  5 11  1  0
  6  5  1  0
  6  7  1  0
  7  9  1  0
  7  8  1  6
  9 10  2  0
  9 15  1  0
 11 12  2  0
 12  2  1  0
 14 13  1  6
 15 14  1  0
 16 14  1  0
 16 17  2  0
 18 19  1  0
 18 16  1  0
 19 20  1  1
 19 24  1  0
 20 21  1  0
 22 21  1  0
 23 22  2  0
 24 25  2  0
 24 27  1  0
 26 22  1  0
M  END
$$$$
