YAE.pdb
     RDKit          3D

 27 27  0  0  1  0  0  0  0  0999 V2000
    8.0426  -11.9537   17.3057 O   0  0  0  0  0  0  0  0  0  0  0  0
    8.1317  -12.8144   18.4009 C   0  0  0  0  0  0  0  0  0  0  0  0
    7.5464  -12.4579   19.5967 C   0  0  0  0  0  0  0  0  0  0  0  0
    7.6385  -13.3250   20.6928 C   0  0  0  0  0  0  0  0  0  0  0  0
    8.3068  -14.5247   20.5830 C   0  0  0  0  0  0  0  0  0  0  0  0
    8.3697  -15.3947   21.7755 C   0  0  0  0  0  0  0  0  0  0  0  0
    7.5432  -16.6371   21.6455 C   0  0  2  0  0  0  0  0  0  0  0  0
    6.1234  -16.4261   21.7402 N   0  0  0  0  0  0  0  0  0  0  0  0
    8.0222  -17.6415   22.6347 C   0  0  0  0  0  0  0  0  0  0  0  0
    7.3997  -17.7897   23.7328 O   0  0  0  0  0  0  0  0  0  0  0  0
    8.8900  -14.8772   19.3874 C   0  0  0  0  0  0  0  0  0  0  0  0
    8.8006  -14.0227   18.3028 C   0  0  0  0  0  0  0  0  0  0  0  0
    9.9912  -20.7027   22.5573 C   0  0  0  0  0  0  0  0  0  0  0  0
    9.5550  -19.4970   23.3595 C   0  0  2  0  0  0  0  0  0  0  0  0
    9.1583  -18.4654   22.4266 N   0  0  0  0  0  0  0  0  0  0  0  0
   10.7290  -19.0543   24.1880 C   0  0  0  0  0  0  0  0  0  0  0  0
   11.7649  -18.7786   23.5393 O   0  0  0  0  0  0  0  0  0  0  0  0
   10.5839  -18.9839   25.5739 N   0  0  0  0  0  0  0  0  0  0  0  0
   11.6278  -18.6364   26.4815 C   0  0  1  0  0  0  0  0  0  0  0  0
   11.2519  -18.7647   27.9409 C   0  0  0  0  0  0  0  0  0  0  0  0
   12.3013  -18.3777   28.9193 C   0  0  0  0  0  0  0  0  0  0  0  0
   11.7935  -18.4094   30.3010 C   0  0  0  0  0  0  0  0  0  0  0  0
   12.5264  -18.1916   31.2717 O   0  0  0  0  0  0  0  0  0  0  0  0
   12.9035  -19.3317   26.2094 C   0  0  0  0  0  0  0  0  0  0  0  0
   12.9731  -20.5748   26.0649 O   0  0  0  0  0  0  0  0  0  0  0  0
   10.4449  -18.6909   30.5830 O   0  0  0  0  0  0  0  0  0  0  0  0
   14.0822  -18.5876   26.1070 O   0  0  0  0  0  0  0  0  0  0  0  0
  2  1  1  0
  3  2  2  0
  4  3  1  0
  5  4  2  0
  5 11  1  0
  6  5  1  0
  6  7  1  0
  7  9  1  0
  7  8  1  1
  9 10  2  0
  9 15  1  0
 11 12  2  0
 12  2  1  0
 14 13  1  6
 15 14  1  0
 16 14  1  0
 16 17  2  0
 18 19  1  0
 18 16  1  0
 19 20  1  1
 19 24  1  0
 20 21  1  0
 22 21  1  0
 23 22  2  0
 24 25  2  0
 24 27  1  0
 26 22  1  0
M  END
$$$$
