YAE.pdb
     RDKit          3D

 27 27  0  0  1  0  0  0  0  0999 V2000
    0.4871  -20.5472   20.6820 O   0  0  0  0  0  0  0  0  0  0  0  0
    1.6509  -19.9869   21.2110 C   0  0  0  0  0  0  0  0  0  0  0  0
    1.9560  -18.6700   20.9424 C   0  0  0  0  0  0  0  0  0  0  0  0
    3.1249  -18.1124   21.4756 C   0  0  0  0  0  0  0  0  0  0  0  0
    3.9663  -18.8683   22.2621 C   0  0  0  0  0  0  0  0  0  0  0  0
    5.1842  -18.2226   22.7938 C   0  0  0  0  0  0  0  0  0  0  0  0
    5.9725  -17.4951   21.7484 C   0  0  2  0  0  0  0  0  0  0  0  0
    6.3442  -18.2951   20.6121 N   0  0  0  0  0  0  0  0  0  0  0  0
    7.1559  -16.8598   22.3908 C   0  0  0  0  0  0  0  0  0  0  0  0
    8.3116  -17.3578   22.2128 O   0  0  0  0  0  0  0  0  0  0  0  0
    3.6583  -20.1829   22.5282 C   0  0  0  0  0  0  0  0  0  0  0  0
    2.5042  -20.7365   22.0029 C   0  0  0  0  0  0  0  0  0  0  0  0
    7.7643  -13.9508   24.6824 C   0  0  0  0  0  0  0  0  0  0  0  0
    8.2396  -15.0968   23.8173 C   0  0  2  0  0  0  0  0  0  0  0  0
    7.0758  -15.7048   23.2108 N   0  0  0  0  0  0  0  0  0  0  0  0
    8.9560  -16.0721   24.7096 C   0  0  0  0  0  0  0  0  0  0  0  0
    8.2127  -16.8225   25.3837 O   0  0  0  0  0  0  0  0  0  0  0  0
   10.3512  -16.0714   24.7209 N   0  0  0  0  0  0  0  0  0  0  0  0
   11.1559  -16.9620   25.4911 C   0  0  1  0  0  0  0  0  0  0  0  0
   12.5903  -17.0674   25.0231 C   0  0  0  0  0  0  0  0  0  0  0  0
   12.9994  -16.1132   23.9600 C   0  0  0  0  0  0  0  0  0  0  0  0
   14.3812  -16.3574   23.5136 C   0  0  0  0  0  0  0  0  0  0  0  0
   14.6382  -16.7614   22.3746 O   0  0  0  0  0  0  0  0  0  0  0  0
   11.1006  -16.7014   26.9451 C   0  0  0  0  0  0  0  0  0  0  0  0
   11.6216  -17.4717   27.7855 O   0  0  0  0  0  0  0  0  0  0  0  0
   15.4786  -16.1421   24.3662 O   0  0  0  0  0  0  0  0  0  0  0  0
   10.4467  -15.5581   27.4128 O   0  0  0  0  0  0  0  0  0  0  0  0
  2  1  1  0
  3  2  2  0
  4  3  1  0
  5  4  2  0
  5 11  1  0
  6  5  1  0
  6  7  1  0
  7  9  1  0
  7  8  1  6
  9 10  2  0
  9 15  1  0
 11 12  2  0
 12  2  1  0
 14 13  1  1
 15 14  1  0
 16 14  1  0
 16 17  2  0
 18 19  1  0
 18 16  1  0
 19 20  1  6
 19 24  1  0
 20 21  1  0
 22 21  1  0
 23 22  2  0
 24 25  2  0
 24 27  1  0
 26 22  1  0
M  END
$$$$
