YAE.pdb
     RDKit          3D

 27 27  0  0  1  0  0  0  0  0999 V2000
    8.5565  -12.4090   17.7179 O   0  0  0  0  0  0  0  0  0  0  0  0
    8.2583  -12.8742   18.9996 C   0  0  0  0  0  0  0  0  0  0  0  0
    9.1219  -12.6062   20.0397 C   0  0  0  0  0  0  0  0  0  0  0  0
    8.8182  -13.0751   21.3240 C   0  0  0  0  0  0  0  0  0  0  0  0
    7.6681  -13.7984   21.5520 C   0  0  0  0  0  0  0  0  0  0  0  0
    7.4048  -14.2660   22.9286 C   0  0  0  0  0  0  0  0  0  0  0  0
    8.3218  -15.3670   23.3648 C   0  0  2  0  0  0  0  0  0  0  0  0
    8.7233  -16.2650   22.3152 N   0  0  0  0  0  0  0  0  0  0  0  0
    7.6980  -16.0913   24.5064 C   0  0  0  0  0  0  0  0  0  0  0  0
    7.2474  -15.4352   25.4972 O   0  0  0  0  0  0  0  0  0  0  0  0
    6.8081  -14.0641   20.5110 C   0  0  0  0  0  0  0  0  0  0  0  0
    7.1055  -13.6021   19.2412 C   0  0  0  0  0  0  0  0  0  0  0  0
    6.1486  -19.3275   25.1670 C   0  0  0  0  0  0  0  0  0  0  0  0
    6.9930  -18.1899   25.6966 C   0  0  2  0  0  0  0  0  0  0  0  0
    7.5708  -17.5032   24.5623 N   0  0  0  0  0  0  0  0  0  0  0  0
    8.0621  -18.7864   26.5694 C   0  0  0  0  0  0  0  0  0  0  0  0
    7.6435  -19.4595   27.5397 O   0  0  0  0  0  0  0  0  0  0  0  0
    9.3994  -18.5553   26.2453 N   0  0  0  0  0  0  0  0  0  0  0  0
   10.5098  -19.1522   26.9122 C   0  0  1  0  0  0  0  0  0  0  0  0
   11.7061  -19.4076   26.0227 C   0  0  0  0  0  0  0  0  0  0  0  0
   12.3463  -18.2037   25.4320 C   0  0  0  0  0  0  0  0  0  0  0  0
   13.4563  -18.5643   24.5342 C   0  0  0  0  0  0  0  0  0  0  0  0
   13.3510  -18.4962   23.3050 O   0  0  0  0  0  0  0  0  0  0  0  0
   10.9171  -18.4360   28.1395 C   0  0  0  0  0  0  0  0  0  0  0  0
   10.4883  -17.2930   28.4233 O   0  0  0  0  0  0  0  0  0  0  0  0
   14.6939  -19.0058   25.0352 O   0  0  0  0  0  0  0  0  0  0  0  0
   11.8121  -19.0445   29.0239 O   0  0  0  0  0  0  0  0  0  0  0  0
  2  1  1  0
  3  2  2  0
  4  3  1  0
  5  4  2  0
  5 11  1  0
  6  5  1  0
  6  7  1  0
  7  9  1  0
  7  8  1  6
  9 10  2  0
  9 15  1  0
 11 12  2  0
 12  2  1  0
 14 13  1  6
 15 14  1  0
 16 14  1  0
 16 17  2  0
 18 19  1  0
 18 16  1  0
 19 20  1  6
 19 24  1  0
 20 21  1  0
 22 21  1  0
 23 22  2  0
 24 25  2  0
 24 27  1  0
 26 22  1  0
M  END
$$$$
