YAE.pdb
     RDKit          3D

 27 27  0  0  1  0  0  0  0  0999 V2000
    8.8387  -11.7466   17.7658 O   0  0  0  0  0  0  0  0  0  0  0  0
    8.5132  -12.5538   18.8570 C   0  0  0  0  0  0  0  0  0  0  0  0
    7.2028  -12.6367   19.2760 C   0  0  0  0  0  0  0  0  0  0  0  0
    6.8812  -13.4481   20.3713 C   0  0  0  0  0  0  0  0  0  0  0  0
    7.8613  -14.1593   21.0283 C   0  0  0  0  0  0  0  0  0  0  0  0
    7.4582  -14.9962   22.1772 C   0  0  0  0  0  0  0  0  0  0  0  0
    7.4025  -16.4576   21.8536 C   0  0  2  0  0  0  0  0  0  0  0  0
    6.5081  -16.8012   20.7806 N   0  0  0  0  0  0  0  0  0  0  0  0
    7.0945  -17.2162   23.0973 C   0  0  0  0  0  0  0  0  0  0  0  0
    6.1680  -16.8121   23.8677 O   0  0  0  0  0  0  0  0  0  0  0  0
    9.1687  -14.0739   20.6070 C   0  0  0  0  0  0  0  0  0  0  0  0
    9.4894  -13.2733   19.5252 C   0  0  0  0  0  0  0  0  0  0  0  0
    7.1674  -20.4075   24.6155 C   0  0  0  0  0  0  0  0  0  0  0  0
    7.6383  -18.9822   24.8011 C   0  0  2  0  0  0  0  0  0  0  0  0
    7.7861  -18.3913   23.4893 N   0  0  0  0  0  0  0  0  0  0  0  0
    8.9558  -19.0302   25.5239 C   0  0  0  0  0  0  0  0  0  0  0  0
    8.9427  -19.6461   26.6149 O   0  0  0  0  0  0  0  0  0  0  0  0
   10.0617  -18.4063   24.9455 N   0  0  0  0  0  0  0  0  0  0  0  0
   11.3688  -18.3819   25.5156 C   0  0  1  0  0  0  0  0  0  0  0  0
   12.3639  -17.5341   24.7550 C   0  0  0  0  0  0  0  0  0  0  0  0
   12.1817  -17.4821   23.2812 C   0  0  0  0  0  0  0  0  0  0  0  0
   13.1940  -16.6274   22.6388 C   0  0  0  0  0  0  0  0  0  0  0  0
   14.0076  -15.9704   23.2971 O   0  0  0  0  0  0  0  0  0  0  0  0
   11.3806  -18.0353   26.9526 C   0  0  0  0  0  0  0  0  0  0  0  0
   12.0300  -18.6957   27.7971 O   0  0  0  0  0  0  0  0  0  0  0  0
   13.2831  -16.5170   21.2397 O   0  0  0  0  0  0  0  0  0  0  0  0
   10.6452  -16.9337   27.3987 O   0  0  0  0  0  0  0  0  0  0  0  0
  2  1  1  0
  3  2  2  0
  4  3  1  0
  5  4  2  0
  5 11  1  0
  6  5  1  0
  6  7  1  0
  7  9  1  0
  7  8  1  6
  9 10  2  0
  9 15  1  0
 11 12  2  0
 12  2  1  0
 14 13  1  6
 15 14  1  0
 16 14  1  0
 16 17  2  0
 18 19  1  0
 18 16  1  0
 19 20  1  6
 19 24  1  0
 20 21  1  0
 22 21  1  0
 23 22  2  0
 24 25  2  0
 24 27  1  0
 26 22  1  0
M  END
$$$$
