YAE.pdb
     RDKit          3D

 27 27  0  0  1  0  0  0  0  0999 V2000
    6.7641  -10.3296   28.0576 O   0  0  0  0  0  0  0  0  0  0  0  0
    7.1051  -11.4557   27.3067 C   0  0  0  0  0  0  0  0  0  0  0  0
    6.2383  -11.9179   26.3400 C   0  0  0  0  0  0  0  0  0  0  0  0
    6.5850  -13.0482   25.5891 C   0  0  0  0  0  0  0  0  0  0  0  0
    7.7802  -13.6966   25.8101 C   0  0  0  0  0  0  0  0  0  0  0  0
    8.0875  -14.8837   24.9859 C   0  0  0  0  0  0  0  0  0  0  0  0
    6.8945  -15.4241   24.2592 C   0  0  2  0  0  0  0  0  0  0  0  0
    6.1881  -16.4655   24.9563 N   0  0  0  0  0  0  0  0  0  0  0  0
    7.3128  -15.8536   22.8963 C   0  0  0  0  0  0  0  0  0  0  0  0
    7.3284  -17.0903   22.6033 O   0  0  0  0  0  0  0  0  0  0  0  0
    8.6433  -13.2322   26.7762 C   0  0  0  0  0  0  0  0  0  0  0  0
    8.3035  -12.1158   27.5196 C   0  0  0  0  0  0  0  0  0  0  0  0
    7.9212  -14.1525   19.6326 C   0  0  0  0  0  0  0  0  0  0  0  0
    7.9849  -15.3738   20.5224 C   0  0  2  0  0  0  0  0  0  0  0  0
    7.7062  -14.9491   21.8765 N   0  0  0  0  0  0  0  0  0  0  0  0
    9.3710  -15.9455   20.4097 C   0  0  0  0  0  0  0  0  0  0  0  0
    9.6621  -16.4193   19.2869 O   0  0  0  0  0  0  0  0  0  0  0  0
   10.2056  -15.9072   21.5272 N   0  0  0  0  0  0  0  0  0  0  0  0
   11.4147  -16.6515   21.6616 C   0  0  1  0  0  0  0  0  0  0  0  0
   12.6734  -15.8274   21.5063 C   0  0  0  0  0  0  0  0  0  0  0  0
   12.7161  -14.9205   20.3300 C   0  0  0  0  0  0  0  0  0  0  0  0
   14.0997  -14.5990   19.9421 C   0  0  0  0  0  0  0  0  0  0  0  0
   14.7333  -13.6844   20.4795 O   0  0  0  0  0  0  0  0  0  0  0  0
   11.4741  -17.4653   22.8942 C   0  0  0  0  0  0  0  0  0  0  0  0
   12.3806  -18.3058   23.1007 O   0  0  0  0  0  0  0  0  0  0  0  0
   14.7685  -15.3203   18.9370 O   0  0  0  0  0  0  0  0  0  0  0  0
   10.4897  -17.3011   23.8728 O   0  0  0  0  0  0  0  0  0  0  0  0
  2  1  1  0
  3  2  2  0
  4  3  1  0
  5  4  2  0
  5 11  1  0
  6  5  1  0
  6  7  1  0
  7  9  1  0
  7  8  1  1
  9 10  2  0
  9 15  1  0
 11 12  2  0
 12  2  1  0
 14 13  1  6
 15 14  1  0
 16 14  1  0
 16 17  2  0
 18 19  1  0
 18 16  1  0
 19 20  1  1
 19 24  1  0
 20 21  1  0
 22 21  1  0
 23 22  2  0
 24 25  2  0
 24 27  1  0
 26 22  1  0
M  END
$$$$
