PVA.pdb
     RDKit          3D

 20 20  0  0  1  0  0  0  0  0999 V2000
    7.5836  -18.4386   18.4892 N   0  0  0  0  0  0  0  0  0  0  0  0
    6.9441  -18.8111   17.2644 C   0  0  0  0  0  0  0  0  0  0  0  0
    7.3066  -17.7223   16.3081 C   0  0  0  0  0  0  0  0  0  0  0  0
    8.5453  -17.0383   16.8407 C   0  0  0  0  0  0  0  0  0  0  0  0
    8.8188  -17.8226   18.0993 C   0  0  1  0  0  0  0  0  0  0  0  0
    9.3604  -17.0127   19.1912 C   0  0  0  0  0  0  0  0  0  0  0  0
   10.5541  -16.6263   19.1389 O   0  0  0  0  0  0  0  0  0  0  0  0
    7.3095  -14.1275   20.9913 C   0  0  0  0  0  0  0  0  0  0  0  0
    7.9967  -14.9941   22.0236 C   0  0  1  0  0  0  0  0  0  0  0  0
    6.9777  -15.8697   22.6850 C   0  0  0  0  0  0  0  0  0  0  0  0
    9.1259  -15.7972   21.3988 C   0  0  2  0  0  0  0  0  0  0  0  0
    8.6156  -16.6223   20.3345 N   0  0  0  0  0  0  0  0  0  0  0  0
    9.7571  -16.5908   22.4782 C   0  0  0  0  0  0  0  0  0  0  0  0
    9.2047  -17.6560   22.8287 O   0  0  0  0  0  0  0  0  0  0  0  0
   13.1065  -16.9987   23.9933 C   0  0  0  0  0  0  0  0  0  0  0  0
   11.5937  -17.1222   24.0304 C   0  0  2  0  0  0  0  0  0  0  0  0
   10.9576  -16.1941   23.1283 N   0  0  0  0  0  0  0  0  0  0  0  0
   11.0879  -16.9284   25.4356 C   0  0  0  0  0  0  0  0  0  0  0  0
   10.2910  -16.0273   25.7381 O   0  0  0  0  0  0  0  0  0  0  0  0
   11.5198  -17.7808   26.4406 O   0  0  0  0  0  0  0  0  0  0  0  0
  2  1  1  0
  3  2  1  0
  4  3  1  0
  4  5  1  0
  5  1  1  0
  6 12  1  0
  5  6  1  1
  7  6  2  0
  9  8  1  6
  9 11  1  0
 10  9  1  0
 11 12  1  6
 11 13  1  0
 13 14  2  0
 16 15  1  1
 16 18  1  0
 17 13  1  0
 17 16  1  0
 18 20  1  0
 19 18  2  0
M  END
$$$$
