PVA.pdb
     RDKit          3D

 20 20  0  0  1  0  0  0  0  0999 V2000
    7.4012  -14.7794   21.3539 N   0  0  0  0  0  0  0  0  0  0  0  0
    6.9164  -14.3995   20.0622 C   0  0  0  0  0  0  0  0  0  0  0  0
    7.0343  -12.9105   20.0425 C   0  0  0  0  0  0  0  0  0  0  0  0
    8.0476  -12.5172   21.0935 C   0  0  0  0  0  0  0  0  0  0  0  0
    8.4604  -13.8578   21.6469 C   0  0  1  0  0  0  0  0  0  0  0  0
    8.7478  -13.8389   23.0817 C   0  0  0  0  0  0  0  0  0  0  0  0
    9.9223  -14.0398   23.4780 O   0  0  0  0  0  0  0  0  0  0  0  0
    7.0287  -11.3370   25.8147 C   0  0  0  0  0  0  0  0  0  0  0  0
    6.9782  -12.7914   26.2282 C   0  0  1  0  0  0  0  0  0  0  0  0
    5.5966  -13.3198   25.9937 C   0  0  0  0  0  0  0  0  0  0  0  0
    8.0357  -13.6041   25.4990 C   0  0  2  0  0  0  0  0  0  0  0  0
    7.7705  -13.6039   24.0835 N   0  0  0  0  0  0  0  0  0  0  0  0
    8.0257  -14.9674   26.0773 C   0  0  0  0  0  0  0  0  0  0  0  0
    8.2353  -15.0906   27.3035 O   0  0  0  0  0  0  0  0  0  0  0  0
    6.8349  -18.3919   25.2138 C   0  0  0  0  0  0  0  0  0  0  0  0
    7.7047  -17.4069   25.9745 C   0  0  2  0  0  0  0  0  0  0  0  0
    7.7892  -16.1346   25.3008 N   0  0  0  0  0  0  0  0  0  0  0  0
    9.0782  -17.9840   26.1941 C   0  0  0  0  0  0  0  0  0  0  0  0
   10.0953  -17.4977   25.6768 O   0  0  0  0  0  0  0  0  0  0  0  0
    9.2286  -19.1009   27.0023 O   0  0  0  0  0  0  0  0  0  0  0  0
  2  1  1  0
  3  2  1  0
  4  3  1  0
  4  5  1  0
  5  1  1  0
  6 12  1  0
  5  6  1  1
  7  6  2  0
  9  8  1  6
  9 11  1  0
 10  9  1  0
 11 12  1  6
 11 13  1  0
 13 14  2  0
 16 15  1  6
 16 18  1  0
 17 13  1  0
 17 16  1  0
 18 20  1  0
 19 18  2  0
M  END
$$$$
