PVA.pdb
     RDKit          3D

 20 20  0  0  1  0  0  0  0  0999 V2000
    6.8615  -14.3629   21.0804 N   0  0  0  0  0  0  0  0  0  0  0  0
    6.4206  -13.8127   19.8351 C   0  0  0  0  0  0  0  0  0  0  0  0
    7.2362  -12.5727   19.6655 C   0  0  0  0  0  0  0  0  0  0  0  0
    8.4665  -12.7113   20.5334 C   0  0  0  0  0  0  0  0  0  0  0  0
    8.2648  -14.0742   21.1463 C   0  0  1  0  0  0  0  0  0  0  0  0
    8.7505  -14.1781   22.5229 C   0  0  0  0  0  0  0  0  0  0  0  0
    9.9829  -14.2918   22.7350 O   0  0  0  0  0  0  0  0  0  0  0  0
    7.3236  -11.9923   25.6022 C   0  0  0  0  0  0  0  0  0  0  0  0
    7.3910  -13.4672   25.9323 C   0  0  1  0  0  0  0  0  0  0  0  0
    6.0148  -14.0517   25.8475 C   0  0  0  0  0  0  0  0  0  0  0  0
    8.3774  -14.1857   25.0262 C   0  0  2  0  0  0  0  0  0  0  0  0
    7.9082  -14.1590   23.6649 N   0  0  0  0  0  0  0  0  0  0  0  0
    8.5346  -15.5641   25.5445 C   0  0  0  0  0  0  0  0  0  0  0  0
    7.5525  -16.3348   25.4808 O   0  0  0  0  0  0  0  0  0  0  0  0
   10.9737  -18.1243   25.6775 C   0  0  0  0  0  0  0  0  0  0  0  0
    9.8499  -17.4442   26.4389 C   0  0  2  0  0  0  0  0  0  0  0  0
    9.7484  -16.0443   26.1079 N   0  0  0  0  0  0  0  0  0  0  0  0
   10.0380  -17.6271   27.9218 C   0  0  0  0  0  0  0  0  0  0  0  0
   10.1901  -18.7432   28.4411 O   0  0  0  0  0  0  0  0  0  0  0  0
   10.0436  -16.5160   28.7517 O   0  0  0  0  0  0  0  0  0  0  0  0
  2  1  1  0
  3  2  1  0
  4  3  1  0
  4  5  1  0
  5  1  1  0
  6 12  1  0
  5  6  1  1
  7  6  2  0
  9  8  1  6
  9 11  1  0
 10  9  1  0
 11 12  1  6
 11 13  1  0
 13 14  2  0
 16 15  1  6
 16 18  1  0
 17 13  1  0
 17 16  1  0
 18 20  1  0
 19 18  2  0
M  END
$$$$
