PVA.pdb
     RDKit          3D

 20 20  0  0  1  0  0  0  0  0999 V2000
    7.8849  -16.0178   21.0847 N   0  0  0  0  0  0  0  0  0  0  0  0
    7.0006  -15.8143   19.9781 C   0  0  0  0  0  0  0  0  0  0  0  0
    6.2213  -14.5932   20.3430 C   0  0  0  0  0  0  0  0  0  0  0  0
    7.0162  -13.8362   21.3827 C   0  0  0  0  0  0  0  0  0  0  0  0
    8.2416  -14.7023   21.5312 C   0  0  1  0  0  0  0  0  0  0  0  0
    8.7705  -14.7445   22.8951 C   0  0  0  0  0  0  0  0  0  0  0  0
    9.9862  -15.0009   23.0773 O   0  0  0  0  0  0  0  0  0  0  0  0
    7.5337  -12.1832   25.8493 C   0  0  0  0  0  0  0  0  0  0  0  0
    7.5808  -13.6323   26.2812 C   0  0  1  0  0  0  0  0  0  0  0  0
    6.1899  -14.1874   26.2867 C   0  0  0  0  0  0  0  0  0  0  0  0
    8.5172  -14.4369   25.3945 C   0  0  2  0  0  0  0  0  0  0  0  0
    7.9893  -14.5107   24.0566 N   0  0  0  0  0  0  0  0  0  0  0  0
    8.6786  -15.7721   26.0144 C   0  0  0  0  0  0  0  0  0  0  0  0
    7.7152  -16.5671   25.9644 O   0  0  0  0  0  0  0  0  0  0  0  0
   11.2018  -18.2479   26.6698 C   0  0  0  0  0  0  0  0  0  0  0  0
    9.9583  -17.5324   27.1670 C   0  0  2  0  0  0  0  0  0  0  0  0
    9.8761  -16.1848   26.6600 N   0  0  0  0  0  0  0  0  0  0  0  0
    9.9198  -17.5367   28.6724 C   0  0  0  0  0  0  0  0  0  0  0  0
    9.7715  -16.5004   29.3377 O   0  0  0  0  0  0  0  0  0  0  0  0
   10.0538  -18.7361   29.3557 O   0  0  0  0  0  0  0  0  0  0  0  0
  2  1  1  0
  3  2  1  0
  4  3  1  0
  4  5  1  0
  5  1  1  0
  6 12  1  0
  5  6  1  1
  7  6  2  0
  9  8  1  6
  9 11  1  0
 10  9  1  0
 11 12  1  6
 11 13  1  0
 13 14  2  0
 16 15  1  1
 16 18  1  0
 17 13  1  0
 17 16  1  0
 18 20  1  0
 19 18  2  0
M  END
$$$$
