PVA.pdb
     RDKit          3D

 20 20  0  0  1  0  0  0  0  0999 V2000
    8.5325  -17.2494   16.3433 N   0  0  0  0  0  0  0  0  0  0  0  0
    7.8682  -18.2909   15.6211 C   0  0  0  0  0  0  0  0  0  0  0  0
    7.3981  -19.2364   16.6777 C   0  0  0  0  0  0  0  0  0  0  0  0
    7.3432  -18.4747   17.9826 C   0  0  0  0  0  0  0  0  0  0  0  0
    7.7875  -17.0972   17.5594 C   0  0  1  0  0  0  0  0  0  0  0  0
    8.5833  -16.3994   18.5700 C   0  0  0  0  0  0  0  0  0  0  0  0
    9.8299  -16.5498   18.5851 O   0  0  0  0  0  0  0  0  0  0  0  0
    7.7894  -12.6785   20.1396 C   0  0  0  0  0  0  0  0  0  0  0  0
    8.0206  -13.7443   21.1881 C   0  0  1  0  0  0  0  0  0  0  0  0
    6.7016  -14.1614   21.7619 C   0  0  0  0  0  0  0  0  0  0  0  0
    8.7941  -14.9192   20.6121 C   0  0  2  0  0  0  0  0  0  0  0  0
    8.0344  -15.5430   19.5597 N   0  0  0  0  0  0  0  0  0  0  0  0
    9.0865  -15.8486   21.7274 C   0  0  0  0  0  0  0  0  0  0  0  0
    8.2014  -16.6648   22.0638 O   0  0  0  0  0  0  0  0  0  0  0  0
   11.8107  -17.6847   23.0918 C   0  0  0  0  0  0  0  0  0  0  0  0
   10.5611  -16.8820   23.4074 C   0  0  2  0  0  0  0  0  0  0  0  0
   10.3240  -15.8512   22.4272 N   0  0  0  0  0  0  0  0  0  0  0  0
   10.6555  -16.2898   24.7888 C   0  0  0  0  0  0  0  0  0  0  0  0
   10.6329  -15.0663   24.9917 O   0  0  0  0  0  0  0  0  0  0  0  0
   10.7725  -17.1302   25.8857 O   0  0  0  0  0  0  0  0  0  0  0  0
  2  1  1  0
  3  2  1  0
  4  3  1  0
  4  5  1  0
  5  1  1  0
  6 12  1  0
  5  6  1  1
  7  6  2  0
  9  8  1  6
  9 11  1  0
 10  9  1  0
 11 12  1  6
 11 13  1  0
 13 14  2  0
 16 15  1  6
 16 18  1  0
 17 13  1  0
 17 16  1  0
 18 20  1  0
 19 18  2  0
M  END
$$$$
