PVA.pdb
     RDKit          3D

 20 20  0  0  1  0  0  0  0  0999 V2000
    8.2730  -14.8390   20.2759 N   0  0  0  0  0  0  0  0  0  0  0  0
    7.5155  -15.3734   19.1857 C   0  0  0  0  0  0  0  0  0  0  0  0
    6.5029  -16.2598   19.8340 C   0  0  0  0  0  0  0  0  0  0  0  0
    6.3637  -15.8198   21.2738 C   0  0  0  0  0  0  0  0  0  0  0  0
    7.3301  -14.6642   21.3424 C   0  0  1  0  0  0  0  0  0  0  0  0
    8.0188  -14.5487   22.6284 C   0  0  0  0  0  0  0  0  0  0  0  0
    9.1857  -14.9977   22.7455 O   0  0  0  0  0  0  0  0  0  0  0  0
    5.9170  -13.4909   26.1806 C   0  0  0  0  0  0  0  0  0  0  0  0
    7.3081  -12.9312   25.9798 C   0  0  1  0  0  0  0  0  0  0  0  0
    7.9646  -12.7593   27.3148 C   0  0  0  0  0  0  0  0  0  0  0  0
    8.1230  -13.8132   25.0479 C   0  0  2  0  0  0  0  0  0  0  0  0
    7.4492  -13.9508   23.7826 N   0  0  0  0  0  0  0  0  0  0  0  0
    8.3226  -15.1135   25.7281 C   0  0  0  0  0  0  0  0  0  0  0  0
    7.3536  -15.9004   25.7944 O   0  0  0  0  0  0  0  0  0  0  0  0
   10.8013  -17.6087   26.1066 C   0  0  0  0  0  0  0  0  0  0  0  0
    9.6972  -16.8440   26.8146 C   0  0  2  0  0  0  0  0  0  0  0  0
    9.5626  -15.5017   26.3050 N   0  0  0  0  0  0  0  0  0  0  0  0
    9.9438  -16.8259   28.3001 C   0  0  0  0  0  0  0  0  0  0  0  0
   10.0476  -15.7715   28.9451 O   0  0  0  0  0  0  0  0  0  0  0  0
   10.0617  -18.0246   28.9876 O   0  0  0  0  0  0  0  0  0  0  0  0
  2  1  1  0
  3  2  1  0
  4  3  1  0
  4  5  1  0
  5  1  1  0
  6 12  1  0
  5  6  1  1
  7  6  2  0
  9  8  1  1
  9 11  1  0
 10  9  1  0
 11 12  1  6
 11 13  1  0
 13 14  2  0
 16 15  1  6
 16 18  1  0
 17 13  1  0
 17 16  1  0
 18 20  1  0
 19 18  2  0
M  END
$$$$
