PVA.pdb
     RDKit          3D

 20 20  0  0  1  0  0  0  0  0999 V2000
    8.1079  -14.7781   20.3123 N   0  0  0  0  0  0  0  0  0  0  0  0
    7.4901  -15.5005   19.2426 C   0  0  0  0  0  0  0  0  0  0  0  0
    6.7956  -16.6399   19.9141 C   0  0  0  0  0  0  0  0  0  0  0  0
    6.5945  -16.2632   21.3645 C   0  0  0  0  0  0  0  0  0  0  0  0
    7.1968  -14.8817   21.4151 C   0  0  1  0  0  0  0  0  0  0  0  0
    7.8749  -14.5813   22.6766 C   0  0  0  0  0  0  0  0  0  0  0  0
    9.1249  -14.6803   22.7436 O   0  0  0  0  0  0  0  0  0  0  0  0
    7.5509  -12.9107   27.3910 C   0  0  0  0  0  0  0  0  0  0  0  0
    6.8997  -13.1819   26.0527 C   0  0  1  0  0  0  0  0  0  0  0  0
    6.3994  -11.8915   25.4807 C   0  0  0  0  0  0  0  0  0  0  0  0
    7.8585  -13.8939   25.1124 C   0  0  2  0  0  0  0  0  0  0  0  0
    7.2052  -14.1757   23.8603 N   0  0  0  0  0  0  0  0  0  0  0  0
    8.3238  -15.1215   25.7978 C   0  0  0  0  0  0  0  0  0  0  0  0
    7.4798  -16.0031   26.0682 O   0  0  0  0  0  0  0  0  0  0  0  0
   11.3800  -17.1068   26.1647 C   0  0  0  0  0  0  0  0  0  0  0  0
   10.0534  -16.6150   26.7157 C   0  0  2  0  0  0  0  0  0  0  0  0
    9.6817  -15.3378   26.1587 N   0  0  0  0  0  0  0  0  0  0  0  0
   10.1060  -16.5439   28.2190 C   0  0  0  0  0  0  0  0  0  0  0  0
    9.9354  -15.4849   28.8419 O   0  0  0  0  0  0  0  0  0  0  0  0
   10.3536  -17.6967   28.9491 O   0  0  0  0  0  0  0  0  0  0  0  0
  2  1  1  0
  3  2  1  0
  4  3  1  0
  4  5  1  0
  5  1  1  0
  6 12  1  0
  5  6  1  1
  7  6  2  0
  9  8  1  1
  9 11  1  0
 10  9  1  0
 11 12  1  6
 11 13  1  0
 13 14  2  0
 16 15  1  6
 16 18  1  0
 17 13  1  0
 17 16  1  0
 18 20  1  0
 19 18  2  0
M  END
$$$$
