PVA.pdb
     RDKit          3D

 20 20  0  0  1  0  0  0  0  0999 V2000
    8.5619  -17.3827   16.0748 N   0  0  0  0  0  0  0  0  0  0  0  0
    7.9184  -18.3774   15.2721 C   0  0  0  0  0  0  0  0  0  0  0  0
    7.2151  -19.2535   16.2565 C   0  0  0  0  0  0  0  0  0  0  0  0
    7.0395  -18.4607   17.5319 C   0  0  0  0  0  0  0  0  0  0  0  0
    7.6642  -17.1378   17.1662 C   0  0  1  0  0  0  0  0  0  0  0  0
    8.3639  -16.4905   18.2766 C   0  0  0  0  0  0  0  0  0  0  0  0
    9.5945  -16.6883   18.4291 O   0  0  0  0  0  0  0  0  0  0  0  0
    8.2076  -13.2288   22.0780 C   0  0  0  0  0  0  0  0  0  0  0  0
    7.5362  -13.8921   20.8956 C   0  0  1  0  0  0  0  0  0  0  0  0
    7.1858  -12.8473   19.8815 C   0  0  0  0  0  0  0  0  0  0  0  0
    8.4138  -14.9876   20.3124 C   0  0  2  0  0  0  0  0  0  0  0  0
    7.7365  -15.6334   19.2178 N   0  0  0  0  0  0  0  0  0  0  0  0
    8.7406  -15.9268   21.4098 C   0  0  0  0  0  0  0  0  0  0  0  0
    7.8104  -16.5915   21.9152 O   0  0  0  0  0  0  0  0  0  0  0  0
   11.6074  -17.8725   22.6074 C   0  0  0  0  0  0  0  0  0  0  0  0
   10.2997  -17.1482   22.8734 C   0  0  2  0  0  0  0  0  0  0  0  0
   10.0599  -16.1028   21.9094 N   0  0  0  0  0  0  0  0  0  0  0  0
   10.2851  -16.5933   24.2733 C   0  0  0  0  0  0  0  0  0  0  0  0
   10.4152  -17.3120   25.2759 O   0  0  0  0  0  0  0  0  0  0  0  0
   10.1209  -15.2298   24.4659 O   0  0  0  0  0  0  0  0  0  0  0  0
  2  1  1  0
  3  2  1  0
  4  3  1  0
  4  5  1  0
  5  1  1  0
  6 12  1  0
  5  6  1  1
  7  6  2  0
  9  8  1  1
  9 11  1  0
 10  9  1  0
 11 12  1  6
 11 13  1  0
 13 14  2  0
 16 15  1  6
 16 18  1  0
 17 13  1  0
 17 16  1  0
 18 20  1  0
 19 18  2  0
M  END
$$$$
