PVA.pdb
     RDKit          3D

 20 20  0  0  1  0  0  0  0  0999 V2000
    8.4631  -15.7182   20.6118 N   0  0  0  0  0  0  0  0  0  0  0  0
    7.8798  -16.6911   19.7394 C   0  0  0  0  0  0  0  0  0  0  0  0
    7.2946  -17.7130   20.6585 C   0  0  0  0  0  0  0  0  0  0  0  0
    7.0984  -17.0577   22.0069 C   0  0  0  0  0  0  0  0  0  0  0  0
    7.5895  -15.6557   21.7475 C   0  0  1  0  0  0  0  0  0  0  0  0
    8.2711  -15.0499   22.8920 C   0  0  0  0  0  0  0  0  0  0  0  0
    9.5255  -15.0729   22.9457 O   0  0  0  0  0  0  0  0  0  0  0  0
    6.0489  -13.6154   26.2643 C   0  0  0  0  0  0  0  0  0  0  0  0
    7.3090  -12.8953   25.8368 C   0  0  1  0  0  0  0  0  0  0  0  0
    7.9437  -12.2639   27.0373 C   0  0  0  0  0  0  0  0  0  0  0  0
    8.2579  -13.8369   25.1133 C   0  0  2  0  0  0  0  0  0  0  0  0
    7.6002  -14.4220   23.9736 N   0  0  0  0  0  0  0  0  0  0  0  0
    8.7074  -14.8535   26.0920 C   0  0  0  0  0  0  0  0  0  0  0  0
    7.9165  -15.7731   26.3940 O   0  0  0  0  0  0  0  0  0  0  0  0
   11.8529  -16.3797   27.0775 C   0  0  0  0  0  0  0  0  0  0  0  0
   10.4317  -15.9850   27.4377 C   0  0  2  0  0  0  0  0  0  0  0  0
    9.9930  -14.8272   26.6984 N   0  0  0  0  0  0  0  0  0  0  0  0
   10.3160  -15.7441   28.9198 C   0  0  0  0  0  0  0  0  0  0  0  0
   10.5966  -16.6129   29.7595 O   0  0  0  0  0  0  0  0  0  0  0  0
    9.8810  -14.5101   29.3793 O   0  0  0  0  0  0  0  0  0  0  0  0
  2  1  1  0
  3  2  1  0
  4  3  1  0
  4  5  1  0
  5  1  1  0
  6 12  1  0
  5  6  1  1
  7  6  2  0
  9  8  1  1
  9 11  1  0
 10  9  1  0
 11 12  1  6
 11 13  1  0
 13 14  2  0
 16 15  1  1
 16 18  1  0
 17 13  1  0
 17 16  1  0
 18 20  1  0
 19 18  2  0
M  END
$$$$
