PVA.pdb
     RDKit          3D

 20 20  0  0  1  0  0  0  0  0999 V2000
    8.2590  -14.9991   19.9128 N   0  0  0  0  0  0  0  0  0  0  0  0
    7.5089  -15.5782   18.8405 C   0  0  0  0  0  0  0  0  0  0  0  0
    6.7075  -16.6601   19.4877 C   0  0  0  0  0  0  0  0  0  0  0  0
    6.6195  -16.3446   20.9637 C   0  0  0  0  0  0  0  0  0  0  0  0
    7.3917  -15.0526   21.0538 C   0  0  1  0  0  0  0  0  0  0  0  0
    8.1572  -14.9098   22.2928 C   0  0  0  0  0  0  0  0  0  0  0  0
    9.4074  -15.0238   22.2619 O   0  0  0  0  0  0  0  0  0  0  0  0
    7.3630  -12.1880   25.2277 C   0  0  0  0  0  0  0  0  0  0  0  0
    7.5213  -13.5996   25.7484 C   0  0  1  0  0  0  0  0  0  0  0  0
    6.1665  -14.1739   26.0270 C   0  0  0  0  0  0  0  0  0  0  0  0
    8.3192  -14.4543   24.7772 C   0  0  2  0  0  0  0  0  0  0  0  0
    7.5744  -14.6450   23.5595 N   0  0  0  0  0  0  0  0  0  0  0  0
    8.6272  -15.7322   25.4592 C   0  0  0  0  0  0  0  0  0  0  0  0
    7.7139  -16.5787   25.5684 O   0  0  0  0  0  0  0  0  0  0  0  0
   11.4857  -17.9135   26.0299 C   0  0  0  0  0  0  0  0  0  0  0  0
   10.1516  -17.3621   26.5006 C   0  0  2  0  0  0  0  0  0  0  0  0
    9.9104  -16.0346   25.9915 N   0  0  0  0  0  0  0  0  0  0  0  0
   10.0824  -17.3748   28.0048 C   0  0  0  0  0  0  0  0  0  0  0  0
    9.8333  -16.3569   28.6686 O   0  0  0  0  0  0  0  0  0  0  0  0
   10.3031  -18.5608   28.6888 O   0  0  0  0  0  0  0  0  0  0  0  0
  2  1  1  0
  3  2  1  0
  4  3  1  0
  4  5  1  0
  5  1  1  0
  6 12  1  0
  5  6  1  1
  7  6  2  0
  9  8  1  6
  9 11  1  0
 10  9  1  0
 11 12  1  6
 11 13  1  0
 13 14  2  0
 16 15  1  1
 16 18  1  0
 17 13  1  0
 17 16  1  0
 18 20  1  0
 19 18  2  0
M  END
$$$$
