PVA.pdb
     RDKit          3D

 20 20  0  0  1  0  0  0  0  0999 V2000
    7.2730  -15.6516   21.2821 N   0  0  0  0  0  0  0  0  0  0  0  0
    6.8203  -15.6711   19.9247 C   0  0  0  0  0  0  0  0  0  0  0  0
    7.1319  -14.3047   19.4078 C   0  0  0  0  0  0  0  0  0  0  0  0
    8.2057  -13.7138   20.2932 C   0  0  0  0  0  0  0  0  0  0  0  0
    8.4487  -14.8301   21.2774 C   0  0  1  0  0  0  0  0  0  0  0  0
    8.7603  -14.3650   22.6295 C   0  0  0  0  0  0  0  0  0  0  0  0
    9.9218  -13.9662   22.8920 O   0  0  0  0  0  0  0  0  0  0  0  0
    5.9724  -14.5512   26.0536 C   0  0  0  0  0  0  0  0  0  0  0  0
    6.7099  -13.3126   25.5944 C   0  0  1  0  0  0  0  0  0  0  0  0
    6.8735  -12.3810   26.7555 C   0  0  0  0  0  0  0  0  0  0  0  0
    8.0410  -13.6743   24.9557 C   0  0  2  0  0  0  0  0  0  0  0  0
    7.8212  -14.3310   23.6930 N   0  0  0  0  0  0  0  0  0  0  0  0
    8.7783  -14.5263   25.9168 C   0  0  0  0  0  0  0  0  0  0  0  0
    8.7322  -15.7660   25.7635 O   0  0  0  0  0  0  0  0  0  0  0  0
   11.0840  -14.1692   28.8902 C   0  0  0  0  0  0  0  0  0  0  0  0
   10.3207  -14.9000   27.7999 C   0  0  2  0  0  0  0  0  0  0  0  0
    9.5316  -13.9963   26.9998 N   0  0  0  0  0  0  0  0  0  0  0  0
    9.4525  -15.9742   28.4001 C   0  0  0  0  0  0  0  0  0  0  0  0
    8.2430  -15.8077   28.6194 O   0  0  0  0  0  0  0  0  0  0  0  0
   10.0108  -17.2012   28.7257 O   0  0  0  0  0  0  0  0  0  0  0  0
  2  1  1  0
  3  2  1  0
  4  3  1  0
  4  5  1  0
  5  1  1  0
  6 12  1  0
  5  6  1  1
  7  6  2  0
  9  8  1  1
  9 11  1  0
 10  9  1  0
 11 12  1  6
 11 13  1  0
 13 14  2  0
 16 15  1  1
 16 18  1  0
 17 13  1  0
 17 16  1  0
 18 20  1  0
 19 18  2  0
M  END
$$$$
