PVA.pdb
     RDKit          3D

 20 20  0  0  1  0  0  0  0  0999 V2000
    6.8516  -14.7435   20.9244 N   0  0  0  0  0  0  0  0  0  0  0  0
    6.3808  -14.3536   19.6305 C   0  0  0  0  0  0  0  0  0  0  0  0
    7.0400  -13.0378   19.3745 C   0  0  0  0  0  0  0  0  0  0  0  0
    8.2532  -12.9508   20.2727 C   0  0  0  0  0  0  0  0  0  0  0  0
    8.2057  -14.2755   20.9915 C   0  0  1  0  0  0  0  0  0  0  0  0
    8.6617  -14.2080   22.3804 C   0  0  0  0  0  0  0  0  0  0  0  0
    9.8858  -14.3268   22.6340 O   0  0  0  0  0  0  0  0  0  0  0  0
    5.8808  -13.7940   25.6819 C   0  0  0  0  0  0  0  0  0  0  0  0
    7.2271  -13.1040   25.6659 C   0  0  1  0  0  0  0  0  0  0  0  0
    7.6798  -12.8803   27.0758 C   0  0  0  0  0  0  0  0  0  0  0  0
    8.2390  -13.8985   24.8565 C   0  0  2  0  0  0  0  0  0  0  0  0
    7.7988  -14.0130   23.4901 N   0  0  0  0  0  0  0  0  0  0  0  0
    8.3973  -15.2164   25.5133 C   0  0  0  0  0  0  0  0  0  0  0  0
    7.4062  -15.9770   25.5582 O   0  0  0  0  0  0  0  0  0  0  0  0
   10.8381  -17.7780   26.0200 C   0  0  0  0  0  0  0  0  0  0  0  0
    9.6962  -16.9853   26.6308 C   0  0  2  0  0  0  0  0  0  0  0  0
    9.6217  -15.6499   26.0913 N   0  0  0  0  0  0  0  0  0  0  0  0
    9.8309  -16.9456   28.1301 C   0  0  0  0  0  0  0  0  0  0  0  0
    9.9535  -15.8840   28.7598 O   0  0  0  0  0  0  0  0  0  0  0  0
    9.8193  -18.1318   28.8486 O   0  0  0  0  0  0  0  0  0  0  0  0
  2  1  1  0
  3  2  1  0
  4  3  1  0
  4  5  1  0
  5  1  1  0
  6 12  1  0
  5  6  1  1
  7  6  2  0
  9  8  1  1
  9 11  1  0
 10  9  1  0
 11 12  1  6
 11 13  1  0
 13 14  2  0
 16 15  1  6
 16 18  1  0
 17 13  1  0
 17 16  1  0
 18 20  1  0
 19 18  2  0
M  END
$$$$
