PVA.pdb
     RDKit          3D

 20 20  0  0  1  0  0  0  0  0999 V2000
    8.2111  -14.9558   20.3197 N   0  0  0  0  0  0  0  0  0  0  0  0
    7.6116  -15.7211   19.2696 C   0  0  0  0  0  0  0  0  0  0  0  0
    6.9782  -16.8801   19.9675 C   0  0  0  0  0  0  0  0  0  0  0  0
    6.7804  -16.4909   21.4150 C   0  0  0  0  0  0  0  0  0  0  0  0
    7.3207  -15.0832   21.4369 C   0  0  1  0  0  0  0  0  0  0  0  0
    8.0020  -14.7338   22.6841 C   0  0  0  0  0  0  0  0  0  0  0  0
    9.2567  -14.7554   22.7283 O   0  0  0  0  0  0  0  0  0  0  0  0
    7.6924  -12.9769   27.3611 C   0  0  0  0  0  0  0  0  0  0  0  0
    7.0425  -13.2758   26.0281 C   0  0  1  0  0  0  0  0  0  0  0  0
    6.5818  -11.9925   25.4088 C   0  0  0  0  0  0  0  0  0  0  0  0
    7.9872  -14.0457   25.1197 C   0  0  2  0  0  0  0  0  0  0  0  0
    7.3303  -14.3627   23.8779 N   0  0  0  0  0  0  0  0  0  0  0  0
    8.4237  -15.2550   25.8547 C   0  0  0  0  0  0  0  0  0  0  0  0
    7.5543  -16.0877   26.1914 O   0  0  0  0  0  0  0  0  0  0  0  0
   11.4542  -17.2971   26.2986 C   0  0  0  0  0  0  0  0  0  0  0  0
   10.1203  -16.7707   26.7976 C   0  0  2  0  0  0  0  0  0  0  0  0
    9.7818  -15.5068   26.1913 N   0  0  0  0  0  0  0  0  0  0  0  0
   10.1336  -16.6530   28.2989 C   0  0  0  0  0  0  0  0  0  0  0  0
    9.9555  -15.5738   28.8838 O   0  0  0  0  0  0  0  0  0  0  0  0
   10.3516  -17.7843   29.0708 O   0  0  0  0  0  0  0  0  0  0  0  0
  2  1  1  0
  3  2  1  0
  4  3  1  0
  4  5  1  0
  5  1  1  0
  6 12  1  0
  5  6  1  1
  7  6  2  0
  9  8  1  1
  9 11  1  0
 10  9  1  0
 11 12  1  6
 11 13  1  0
 13 14  2  0
 16 15  1  6
 16 18  1  0
 17 13  1  0
 17 16  1  0
 18 20  1  0
 19 18  2  0
M  END
$$$$
