YRM.pdb
     RDKit          3D

 32 32  0  0  1  0  0  0  0  0999 V2000
    5.5784  -24.2840   30.0948 O   0  0  0  0  0  0  0  0  0  0  0  0
    5.9230  -23.2242   29.2356 C   0  0  0  0  0  0  0  0  0  0  0  0
    4.9525  -22.5891   28.4793 C   0  0  0  0  0  0  0  0  0  0  0  0
    5.2658  -21.5530   27.6326 C   0  0  0  0  0  0  0  0  0  0  0  0
    6.5941  -21.1111   27.5159 C   0  0  0  0  0  0  0  0  0  0  0  0
    6.8909  -19.9973   26.5944 C   0  0  0  0  0  0  0  0  0  0  0  0
    6.8439  -20.3956   25.1278 C   0  0  2  0  0  0  0  0  0  0  0  0
    7.3932  -21.7399   24.9735 N   0  0  0  0  0  0  0  0  0  0  0  0
    7.6185  -19.4938   24.2542 C   0  0  0  0  0  0  0  0  0  0  0  0
    8.8263  -19.8127   24.0039 O   0  0  0  0  0  0  0  0  0  0  0  0
    7.5412  -21.7460   28.2691 C   0  0  0  0  0  0  0  0  0  0  0  0
    7.2277  -22.7995   29.1311 C   0  0  0  0  0  0  0  0  0  0  0  0
    8.6429  -13.5826   18.6050 N   0  0  0  0  0  0  0  0  0  0  0  0
    8.0100  -12.8660   19.6739 C   0  0  0  0  0  0  0  0  0  0  0  0
    8.5508  -11.7699   20.0183 N   0  0  0  0  0  0  0  0  0  0  0  0
    6.8458  -13.3521   20.3230 N   0  0  0  0  0  0  0  0  0  0  0  0
    6.5508  -14.7609   20.4244 C   0  0  0  0  0  0  0  0  0  0  0  0
    7.5146  -15.5360   21.2697 C   0  0  0  0  0  0  0  0  0  0  0  0
    6.9250  -16.5258   22.1938 C   0  0  0  0  0  0  0  0  0  0  0  0
    7.8976  -17.3786   22.9751 C   0  0  2  0  0  0  0  0  0  0  0  0
    7.0472  -18.3296   23.7211 N   0  0  0  0  0  0  0  0  0  0  0  0
    8.6390  -16.6342   24.0120 C   0  0  0  0  0  0  0  0  0  0  0  0
    8.1963  -16.6155   25.2136 O   0  0  0  0  0  0  0  0  0  0  0  0
    8.2606  -11.1095   20.7403 C   0  0  0  0  0  0  0  0  0  0  0  0
    9.9310  -14.4854   30.2719 S   0  0  0  0  0  0  0  0  0  0  0  0
    9.0857  -14.8764   28.7153 C   0  0  0  0  0  0  0  0  0  0  0  0
   10.3005  -15.0211   27.4050 C   0  0  0  0  0  0  0  0  0  0  0  0
    9.6410  -15.3085   26.0863 C   0  0  1  0  0  0  0  0  0  0  0  0
   10.6344  -15.4372   24.9475 N   0  0  0  0  0  0  0  0  0  0  0  0
    9.8455  -15.9103   23.7998 C   0  0  0  0  0  0  0  0  0  0  0  0
   11.6784  -16.4452   25.2114 O   0  0  0  0  0  0  0  0  0  0  0  0
   12.7514  -16.1403   25.7919 O   0  0  0  0  0  0  0  0  0  0  0  0
  2  1  1  0
  3  2  2  0
  4  3  1  0
  5 11  1  0
  5  4  2  0
  6  7  1  0
  6  5  1  0
  7  9  1  0
  7  8  1  1
  9 21  1  0
 10  9  2  0
 11 12  2  0
 12  2  1  0
 13 14  1  0
 14 15  2  0
 16 14  1  0
 16 17  1  0
 18 17  1  0
 19 18  1  0
 20 19  1  1
 21 20  1  0
 22 20  1  0
 22 29  1  0
 23 22  2  0
 25 24  1  0
 25 26  1  0
 26 27  1  0
 28 27  1  6
 28 29  1  0
 28 30  1  0
 30 31  2  0
 30 32  1  0
M  END
$$$$
