YRM.pdb
     RDKit          3D

 32 32  0  0  1  0  0  0  0  0999 V2000
    6.3039  -10.5039   26.3819 O   0  0  0  0  0  0  0  0  0  0  0  0
    6.4011  -11.9051   26.4674 C   0  0  0  0  0  0  0  0  0  0  0  0
    5.2685  -12.6952   26.3667 C   0  0  0  0  0  0  0  0  0  0  0  0
    5.3390  -14.0652   26.4486 C   0  0  0  0  0  0  0  0  0  0  0  0
    6.5777  -14.7002   26.6383 C   0  0  0  0  0  0  0  0  0  0  0  0
    6.6119  -16.1731   26.7236 C   0  0  0  0  0  0  0  0  0  0  0  0
    6.3043  -16.8635   25.4043 C   0  0  2  0  0  0  0  0  0  0  0  0
    6.1207  -18.2933   25.6376 N   0  0  0  0  0  0  0  0  0  0  0  0
    7.3756  -16.7085   24.4020 C   0  0  0  0  0  0  0  0  0  0  0  0
    8.3574  -17.5183   24.4616 O   0  0  0  0  0  0  0  0  0  0  0  0
    7.6871  -13.9083   26.7347 C   0  0  0  0  0  0  0  0  0  0  0  0
    7.6205  -12.5155   26.6520 C   0  0  0  0  0  0  0  0  0  0  0  0
    9.4348  -15.7228   17.5928 N   0  0  0  0  0  0  0  0  0  0  0  0
    8.7010  -14.5753   17.1437 C   0  0  0  0  0  0  0  0  0  0  0  0
    8.9003  -14.2103   15.9440 N   0  0  0  0  0  0  0  0  0  0  0  0
    7.8038  -13.8745   17.9905 N   0  0  0  0  0  0  0  0  0  0  0  0
    8.2148  -13.3163   19.2560 C   0  0  0  0  0  0  0  0  0  0  0  0
    8.7282  -14.3230   20.2393 C   0  0  0  0  0  0  0  0  0  0  0  0
    7.8736  -14.5840   21.4152 C   0  0  0  0  0  0  0  0  0  0  0  0
    8.3364  -15.6741   22.3539 C   0  0  2  0  0  0  0  0  0  0  0  0
    7.3158  -15.7073   23.4223 N   0  0  0  0  0  0  0  0  0  0  0  0
    9.6033  -15.3634   23.0450 C   0  0  0  0  0  0  0  0  0  0  0  0
    9.6164  -14.4792   23.9714 O   0  0  0  0  0  0  0  0  0  0  0  0
    8.4640  -13.4485   15.4235 C   0  0  0  0  0  0  0  0  0  0  0  0
   10.3147  -14.4559   28.6169 S   0  0  0  0  0  0  0  0  0  0  0  0
   11.2317  -15.6507   27.6062 C   0  0  0  0  0  0  0  0  0  0  0  0
   10.8769  -15.3532   25.8744 C   0  0  0  0  0  0  0  0  0  0  0  0
   11.6141  -16.3246   24.9972 C   0  0  2  0  0  0  0  0  0  0  0  0
   12.0073  -15.7278   23.6595 N   0  0  0  0  0  0  0  0  0  0  0  0
   10.8588  -15.9759   22.7746 C   0  0  0  0  0  0  0  0  0  0  0  0
   13.1790  -16.3931   23.0594 O   0  0  0  0  0  0  0  0  0  0  0  0
   13.0516  -17.3994   22.3163 O   0  0  0  0  0  0  0  0  0  0  0  0
  2  1  1  0
  3  2  2  0
  4  3  1  0
  5 11  1  0
  5  4  2  0
  6  7  1  0
  6  5  1  0
  7  9  1  0
  7  8  1  1
  9 21  1  0
 10  9  2  0
 11 12  2  0
 12  2  1  0
 13 14  1  0
 14 15  2  0
 16 14  1  0
 16 17  1  0
 18 17  1  0
 19 18  1  0
 20 19  1  6
 21 20  1  0
 22 20  1  0
 22 29  1  0
 23 22  2  0
 25 24  1  0
 25 26  1  0
 26 27  1  0
 28 27  1  1
 28 29  1  0
 28 30  1  0
 30 31  2  0
 30 32  1  0
M  END
$$$$
