YRM.pdb
     RDKit          3D

 32 32  0  0  1  0  0  0  0  0999 V2000
    5.2213  -10.6372   27.6812 O   0  0  0  0  0  0  0  0  0  0  0  0
    5.7136  -11.6953   26.8950 C   0  0  0  0  0  0  0  0  0  0  0  0
    5.1259  -12.9475   26.9553 C   0  0  0  0  0  0  0  0  0  0  0  0
    5.5903  -13.9961   26.1979 C   0  0  0  0  0  0  0  0  0  0  0  0
    6.6847  -13.8162   25.3357 C   0  0  0  0  0  0  0  0  0  0  0  0
    7.1554  -14.9669   24.5406 C   0  0  0  0  0  0  0  0  0  0  0  0
    6.7835  -16.3124   25.1432 C   0  0  2  0  0  0  0  0  0  0  0  0
    6.8983  -16.2398   26.5972 N   0  0  0  0  0  0  0  0  0  0  0  0
    7.6470  -17.4160   24.6816 C   0  0  0  0  0  0  0  0  0  0  0  0
    7.1539  -18.5907   24.6905 O   0  0  0  0  0  0  0  0  0  0  0  0
    7.2540  -12.5750   25.2853 C   0  0  0  0  0  0  0  0  0  0  0  0
    6.7855  -11.5063   26.0532 C   0  0  0  0  0  0  0  0  0  0  0  0
    9.7229  -12.9446   19.9241 N   0  0  0  0  0  0  0  0  0  0  0  0
    9.0966  -13.5849   18.8041 C   0  0  0  0  0  0  0  0  0  0  0  0
    8.9114  -12.8673   17.7730 N   0  0  0  0  0  0  0  0  0  0  0  0
    8.6951  -14.9452   18.8400 N   0  0  0  0  0  0  0  0  0  0  0  0
    8.3769  -15.6230   20.0735 C   0  0  0  0  0  0  0  0  0  0  0  0
    8.7753  -14.8775   21.3103 C   0  0  0  0  0  0  0  0  0  0  0  0
    8.5041  -15.5512   22.5962 C   0  0  0  0  0  0  0  0  0  0  0  0
    9.2135  -16.8650   22.8295 C   0  0  2  0  0  0  0  0  0  0  0  0
    8.9603  -17.1807   24.2509 N   0  0  0  0  0  0  0  0  0  0  0  0
   10.6823  -16.7747   22.7137 C   0  0  0  0  0  0  0  0  0  0  0  0
   11.2002  -15.9626   21.8696 O   0  0  0  0  0  0  0  0  0  0  0  0
    8.4154  -13.0971   16.9112 C   0  0  0  0  0  0  0  0  0  0  0  0
   10.6949  -12.8562   26.3166 S   0  0  0  0  0  0  0  0  0  0  0  0
   11.2262  -14.2511   27.3472 C   0  0  0  0  0  0  0  0  0  0  0  0
   12.3341  -15.2952   26.4006 C   0  0  0  0  0  0  0  0  0  0  0  0
   11.5925  -16.0308   25.3210 C   0  0  1  0  0  0  0  0  0  0  0  0
   12.5082  -16.8494   24.4313 N   0  0  0  0  0  0  0  0  0  0  0  0
   11.6151  -17.5280   23.4799 C   0  0  0  0  0  0  0  0  0  0  0  0
   13.2403  -17.8938   25.1720 O   0  0  0  0  0  0  0  0  0  0  0  0
   12.8863  -19.0995   25.1260 O   0  0  0  0  0  0  0  0  0  0  0  0
  2  1  1  0
  3  2  2  0
  4  3  1  0
  5 11  1  0
  5  4  2  0
  6  7  1  0
  6  5  1  0
  7  9  1  0
  7  8  1  1
  9 21  1  0
 10  9  2  0
 11 12  2  0
 12  2  1  0
 13 14  1  0
 14 15  2  0
 16 14  1  0
 16 17  1  0
 18 17  1  0
 19 18  1  0
 20 19  1  1
 21 20  1  0
 22 20  1  0
 22 29  1  0
 23 22  2  0
 25 24  1  0
 25 26  1  0
 26 27  1  0
 28 27  1  6
 28 29  1  0
 28 30  1  0
 30 31  2  0
 30 32  1  0
M  END
$$$$
