YRM.pdb
     RDKit          3D

 32 32  0  0  1  0  0  0  0  0999 V2000
    9.0052  -11.6537   20.2499 O   0  0  0  0  0  0  0  0  0  0  0  0
    8.3158  -12.8792   20.1966 C   0  0  0  0  0  0  0  0  0  0  0  0
    8.1338  -13.6332   21.3436 C   0  0  0  0  0  0  0  0  0  0  0  0
    7.4652  -14.8335   21.3154 C   0  0  0  0  0  0  0  0  0  0  0  0
    6.9456  -15.3261   20.1068 C   0  0  0  0  0  0  0  0  0  0  0  0
    6.2358  -16.6199   20.1170 C   0  0  0  0  0  0  0  0  0  0  0  0
    6.2293  -17.2966   21.4786 C   0  0  2  0  0  0  0  0  0  0  0  0
    5.4072  -16.5189   22.4016 N   0  0  0  0  0  0  0  0  0  0  0  0
    7.5734  -17.4207   22.0738 C   0  0  0  0  0  0  0  0  0  0  0  0
    7.6559  -17.9355   23.2363 O   0  0  0  0  0  0  0  0  0  0  0  0
    7.1313  -14.5711   18.9831 C   0  0  0  0  0  0  0  0  0  0  0  0
    7.8102  -13.3506   19.0068 C   0  0  0  0  0  0  0  0  0  0  0  0
   10.2776  -18.6174   16.7743 N   0  0  0  0  0  0  0  0  0  0  0  0
   11.5984  -19.1721   16.8403 C   0  0  0  0  0  0  0  0  0  0  0  0
   11.8517  -20.1267   16.0423 N   0  0  0  0  0  0  0  0  0  0  0  0
   12.5742  -18.6911   17.7511 N   0  0  0  0  0  0  0  0  0  0  0  0
   12.2924  -17.6410   18.6998 C   0  0  0  0  0  0  0  0  0  0  0  0
   11.4001  -18.0516   19.8310 C   0  0  0  0  0  0  0  0  0  0  0  0
   11.0012  -16.9841   20.7703 C   0  0  0  0  0  0  0  0  0  0  0  0
   10.0530  -17.3827   21.8773 C   0  0  2  0  0  0  0  0  0  0  0  0
    8.7161  -16.9874   21.3866 N   0  0  0  0  0  0  0  0  0  0  0  0
   10.2434  -16.6180   23.1255 C   0  0  0  0  0  0  0  0  0  0  0  0
   10.5346  -15.3723   23.0644 O   0  0  0  0  0  0  0  0  0  0  0  0
   12.7184  -20.6526   15.9245 C   0  0  0  0  0  0  0  0  0  0  0  0
    6.9781  -12.3036   27.6915 S   0  0  0  0  0  0  0  0  0  0  0  0
    7.1197  -13.5310   26.3635 C   0  0  0  0  0  0  0  0  0  0  0  0
    8.6266  -14.4748   26.5911 C   0  0  0  0  0  0  0  0  0  0  0  0
    8.8587  -15.4086   25.4375 C   0  0  1  0  0  0  0  0  0  0  0  0
   10.1118  -16.2469   25.6024 N   0  0  0  0  0  0  0  0  0  0  0  0
   10.1274  -17.1489   24.4406 C   0  0  0  0  0  0  0  0  0  0  0  0
   10.0815  -17.0877   26.8139 O   0  0  0  0  0  0  0  0  0  0  0  0
    9.5397  -18.2223   26.8102 O   0  0  0  0  0  0  0  0  0  0  0  0
  2  1  1  0
  3  2  2  0
  4  3  1  0
  5 11  1  0
  5  4  2  0
  6  7  1  0
  6  5  1  0
  7  9  1  0
  7  8  1  1
  9 21  1  0
 10  9  2  0
 11 12  2  0
 12  2  1  0
 13 14  1  0
 14 15  2  0
 16 14  1  0
 16 17  1  0
 18 17  1  0
 19 18  1  0
 20 19  1  6
 21 20  1  0
 22 20  1  0
 22 29  1  0
 23 22  2  0
 25 24  1  0
 25 26  1  0
 26 27  1  0
 28 27  1  6
 28 29  1  0
 28 30  1  0
 30 31  2  0
 30 32  1  0
M  END
$$$$
