YRM.pdb
     RDKit          3D

 32 32  0  0  1  0  0  0  0  0999 V2000
    4.8827  -10.4196   28.3104 O   0  0  0  0  0  0  0  0  0  0  0  0
    5.4872  -11.5673   27.7648 C   0  0  0  0  0  0  0  0  0  0  0  0
    6.1846  -11.4936   26.5710 C   0  0  0  0  0  0  0  0  0  0  0  0
    6.7818  -12.6013   26.0186 C   0  0  0  0  0  0  0  0  0  0  0  0
    6.6961  -13.8468   26.6625 C   0  0  0  0  0  0  0  0  0  0  0  0
    7.3486  -15.0132   26.0367 C   0  0  0  0  0  0  0  0  0  0  0  0
    6.4888  -15.6964   24.9852 C   0  0  2  0  0  0  0  0  0  0  0  0
    5.8886  -16.8986   25.5571 N   0  0  0  0  0  0  0  0  0  0  0  0
    7.2473  -16.1028   23.7868 C   0  0  0  0  0  0  0  0  0  0  0  0
    7.5839  -17.3279   23.6921 O   0  0  0  0  0  0  0  0  0  0  0  0
    6.0059  -13.9046   27.8405 C   0  0  0  0  0  0  0  0  0  0  0  0
    5.3973  -12.7815   28.4058 C   0  0  0  0  0  0  0  0  0  0  0  0
    7.3754  -13.8216   15.3255 N   0  0  0  0  0  0  0  0  0  0  0  0
    8.6312  -14.3329   15.7928 C   0  0  0  0  0  0  0  0  0  0  0  0
    9.6720  -13.8925   15.2139 N   0  0  0  0  0  0  0  0  0  0  0  0
    8.7151  -15.2861   16.8403 N   0  0  0  0  0  0  0  0  0  0  0  0
    7.8273  -15.2623   17.9775 C   0  0  0  0  0  0  0  0  0  0  0  0
    8.4230  -14.6653   19.2157 C   0  0  0  0  0  0  0  0  0  0  0  0
    7.6305  -14.8019   20.4544 C   0  0  0  0  0  0  0  0  0  0  0  0
    8.2376  -15.6461   21.5510 C   0  0  2  0  0  0  0  0  0  0  0  0
    7.5857  -15.1755   22.7911 N   0  0  0  0  0  0  0  0  0  0  0  0
    9.6782  -15.4009   21.7598 C   0  0  0  0  0  0  0  0  0  0  0  0
   10.1236  -14.2003   21.7387 O   0  0  0  0  0  0  0  0  0  0  0  0
   10.6527  -14.0591   15.4416 C   0  0  0  0  0  0  0  0  0  0  0  0
   11.9652  -15.0072   28.3430 S   0  0  0  0  0  0  0  0  0  0  0  0
   10.8378  -15.3503   26.9641 C   0  0  0  0  0  0  0  0  0  0  0  0
   11.7975  -15.7259   25.4973 C   0  0  0  0  0  0  0  0  0  0  0  0
   10.9073  -15.9058   24.3007 C   0  0  1  0  0  0  0  0  0  0  0  0
   11.6811  -16.2119   23.0327 N   0  0  0  0  0  0  0  0  0  0  0  0
   10.6576  -16.4061   21.9944 C   0  0  0  0  0  0  0  0  0  0  0  0
   12.4587  -17.4618   23.1257 O   0  0  0  0  0  0  0  0  0  0  0  0
   11.9257  -18.5817   22.9187 O   0  0  0  0  0  0  0  0  0  0  0  0
  2  1  1  0
  3  2  2  0
  4  3  1  0
  5 11  1  0
  5  4  2  0
  6  7  1  0
  6  5  1  0
  7  9  1  0
  7  8  1  1
  9 21  1  0
 10  9  2  0
 11 12  2  0
 12  2  1  0
 13 14  1  0
 14 15  2  0
 16 14  1  0
 16 17  1  0
 18 17  1  0
 19 18  1  0
 20 19  1  6
 21 20  1  0
 22 20  1  0
 22 29  1  0
 23 22  2  0
 25 24  1  0
 25 26  1  0
 26 27  1  0
 28 27  1  6
 28 29  1  0
 28 30  1  0
 30 31  2  0
 30 32  1  0
M  END
$$$$
