YRM.pdb
     RDKit          3D

 32 32  0  0  1  0  0  0  0  0999 V2000
    8.6712  -12.3023   18.1422 O   0  0  0  0  0  0  0  0  0  0  0  0
    8.1737  -12.9807   19.2701 C   0  0  0  0  0  0  0  0  0  0  0  0
    8.6173  -12.6519   20.5398 C   0  0  0  0  0  0  0  0  0  0  0  0
    8.1467  -13.3016   21.6557 C   0  0  0  0  0  0  0  0  0  0  0  0
    7.1934  -14.3256   21.5291 C   0  0  0  0  0  0  0  0  0  0  0  0
    6.7143  -15.0011   22.7506 C   0  0  0  0  0  0  0  0  0  0  0  0
    7.2391  -16.4198   22.9038 C   0  0  2  0  0  0  0  0  0  0  0  0
    6.1182  -17.3294   23.1247 N   0  0  0  0  0  0  0  0  0  0  0  0
    8.1715  -16.5768   24.0363 C   0  0  0  0  0  0  0  0  0  0  0  0
    7.7052  -17.0620   25.1182 O   0  0  0  0  0  0  0  0  0  0  0  0
    6.7636  -14.6388   20.2703 C   0  0  0  0  0  0  0  0  0  0  0  0
    7.2390  -13.9812   19.1333 C   0  0  0  0  0  0  0  0  0  0  0  0
   11.7269  -17.5709   18.5108 N   0  0  0  0  0  0  0  0  0  0  0  0
   11.3560  -18.8519   19.0384 C   0  0  0  0  0  0  0  0  0  0  0  0
   10.7978  -19.6566   18.2302 N   0  0  0  0  0  0  0  0  0  0  0  0
   11.5895  -19.2068   20.3921 N   0  0  0  0  0  0  0  0  0  0  0  0
   10.7350  -18.7592   21.4651 C   0  0  0  0  0  0  0  0  0  0  0  0
   10.9994  -17.3577   21.9236 C   0  0  0  0  0  0  0  0  0  0  0  0
   11.5628  -17.2085   23.2806 C   0  0  0  0  0  0  0  0  0  0  0  0
   10.5685  -17.1232   24.4155 C   0  0  2  0  0  0  0  0  0  0  0  0
    9.5189  -16.2050   23.9262 N   0  0  0  0  0  0  0  0  0  0  0  0
   11.1069  -16.4767   25.6284 C   0  0  0  0  0  0  0  0  0  0  0  0
   11.7403  -17.1806   26.4906 O   0  0  0  0  0  0  0  0  0  0  0  0
   10.4889  -20.6161   18.3897 C   0  0  0  0  0  0  0  0  0  0  0  0
    6.6127  -11.7020   26.7041 S   0  0  0  0  0  0  0  0  0  0  0  0
    6.5296  -13.2864   27.5833 C   0  0  0  0  0  0  0  0  0  0  0  0
    8.1850  -13.7860   28.0558 C   0  0  0  0  0  0  0  0  0  0  0  0
    8.9658  -14.2640   26.8648 C   0  0  2  0  0  0  0  0  0  0  0  0
   10.3822  -14.6764   27.2169 N   0  0  0  0  0  0  0  0  0  0  0  0
   10.9893  -15.0942   25.9441 C   0  0  0  0  0  0  0  0  0  0  0  0
   10.4299  -15.8338   28.1300 O   0  0  0  0  0  0  0  0  0  0  0  0
   10.2969  -17.0095   27.7046 O   0  0  0  0  0  0  0  0  0  0  0  0
  2  1  1  0
  3  2  2  0
  4  3  1  0
  5 11  1  0
  5  4  2  0
  6  7  1  0
  6  5  1  0
  7  9  1  0
  7  8  1  1
  9 21  1  0
 10  9  2  0
 11 12  2  0
 12  2  1  0
 13 14  1  0
 14 15  2  0
 16 14  1  0
 16 17  1  0
 18 17  1  0
 19 18  1  0
 20 19  1  6
 21 20  1  0
 22 20  1  0
 22 29  1  0
 23 22  2  0
 25 24  1  0
 25 26  1  0
 26 27  1  0
 28 27  1  6
 28 29  1  0
 28 30  1  0
 30 31  2  0
 30 32  1  0
M  END
$$$$
