YRM.pdb
     RDKit          3D

 32 32  0  0  1  0  0  0  0  0999 V2000
    7.3805  -10.7360   26.3994 O   0  0  0  0  0  0  0  0  0  0  0  0
    7.1552  -12.1250   26.3869 C   0  0  0  0  0  0  0  0  0  0  0  0
    8.2203  -13.0095   26.4031 C   0  0  0  0  0  0  0  0  0  0  0  0
    8.0245  -14.3697   26.3900 C   0  0  0  0  0  0  0  0  0  0  0  0
    6.7229  -14.8972   26.3599 C   0  0  0  0  0  0  0  0  0  0  0  0
    6.5538  -16.3631   26.3442 C   0  0  0  0  0  0  0  0  0  0  0  0
    6.3640  -16.9362   24.9488 C   0  0  2  0  0  0  0  0  0  0  0  0
    6.0822  -18.3657   25.0467 N   0  0  0  0  0  0  0  0  0  0  0  0
    7.5493  -16.7728   24.0858 C   0  0  0  0  0  0  0  0  0  0  0  0
    8.5235  -17.5734   24.2681 O   0  0  0  0  0  0  0  0  0  0  0  0
    5.6813  -14.0128   26.3455 C   0  0  0  0  0  0  0  0  0  0  0  0
    5.8753  -12.6295   26.3588 C   0  0  0  0  0  0  0  0  0  0  0  0
    7.4667  -13.1234   17.9304 N   0  0  0  0  0  0  0  0  0  0  0  0
    8.4547  -14.1507   17.7717 C   0  0  0  0  0  0  0  0  0  0  0  0
    9.4408  -13.8761   17.0202 N   0  0  0  0  0  0  0  0  0  0  0  0
    8.3407  -15.4125   18.4104 N   0  0  0  0  0  0  0  0  0  0  0  0
    7.3117  -15.6950   19.3817 C   0  0  0  0  0  0  0  0  0  0  0  0
    7.2459  -14.7184   20.5158 C   0  0  0  0  0  0  0  0  0  0  0  0
    8.4881  -14.5336   21.2930 C   0  0  0  0  0  0  0  0  0  0  0  0
    8.8254  -15.6187   22.2892 C   0  0  2  0  0  0  0  0  0  0  0  0
    7.6018  -15.7737   23.1035 N   0  0  0  0  0  0  0  0  0  0  0  0
    9.8782  -15.2353   23.2502 C   0  0  0  0  0  0  0  0  0  0  0  0
    9.8352  -14.0827   23.8069 O   0  0  0  0  0  0  0  0  0  0  0  0
   10.1974  -14.4844   16.7054 C   0  0  0  0  0  0  0  0  0  0  0  0
    9.4805  -13.9923   28.4773 S   0  0  0  0  0  0  0  0  0  0  0  0
   10.6628  -15.3555   28.6621 C   0  0  0  0  0  0  0  0  0  0  0  0
   11.7514  -15.3890   27.2383 C   0  0  0  0  0  0  0  0  0  0  0  0
   10.9831  -15.6652   25.9773 C   0  0  1  0  0  0  0  0  0  0  0  0
   11.8569  -15.6363   24.7380 N   0  0  0  0  0  0  0  0  0  0  0  0
   10.9765  -16.0535   23.6361 C   0  0  0  0  0  0  0  0  0  0  0  0
   12.9714  -16.6003   24.8022 O   0  0  0  0  0  0  0  0  0  0  0  0
   13.9701  -16.3987   25.5391 O   0  0  0  0  0  0  0  0  0  0  0  0
  2  1  1  0
  3  2  2  0
  4  3  1  0
  5 11  1  0
  5  4  2  0
  6  7  1  0
  6  5  1  0
  7  9  1  0
  7  8  1  1
  9 21  1  0
 10  9  2  0
 11 12  2  0
 12  2  1  0
 13 14  1  0
 14 15  2  0
 16 14  1  0
 16 17  1  0
 18 17  1  0
 19 18  1  0
 20 19  1  6
 21 20  1  0
 22 20  1  0
 22 29  1  0
 23 22  2  0
 25 24  1  0
 25 26  1  0
 26 27  1  0
 28 27  1  6
 28 29  1  0
 28 30  1  0
 30 31  2  0
 30 32  1  0
M  END
$$$$
