YRM.pdb
     RDKit          3D

 32 32  0  0  1  0  0  0  0  0999 V2000
    8.8521  -13.1490   16.3170 O   0  0  0  0  0  0  0  0  0  0  0  0
    8.5005  -13.6452   17.5860 C   0  0  0  0  0  0  0  0  0  0  0  0
    8.9012  -14.9102   17.9813 C   0  0  0  0  0  0  0  0  0  0  0  0
    8.5685  -15.4162   19.2149 C   0  0  0  0  0  0  0  0  0  0  0  0
    7.8055  -14.6501   20.1118 C   0  0  0  0  0  0  0  0  0  0  0  0
    7.4666  -15.2292   21.4262 C   0  0  0  0  0  0  0  0  0  0  0  0
    6.7161  -16.5482   21.3317 C   0  0  2  0  0  0  0  0  0  0  0  0
    5.3714  -16.3043   20.8173 N   0  0  0  0  0  0  0  0  0  0  0  0
    6.5797  -17.2350   22.6303 C   0  0  0  0  0  0  0  0  0  0  0  0
    5.5651  -16.9454   23.3442 O   0  0  0  0  0  0  0  0  0  0  0  0
    7.4180  -13.4032   19.7090 C   0  0  0  0  0  0  0  0  0  0  0  0
    7.7537  -12.8846   18.4562 C   0  0  0  0  0  0  0  0  0  0  0  0
    6.6192  -23.9362   28.6644 N   0  0  0  0  0  0  0  0  0  0  0  0
    7.3885  -22.9586   27.9508 C   0  0  0  0  0  0  0  0  0  0  0  0
    7.9521  -22.0613   28.6505 N   0  0  0  0  0  0  0  0  0  0  0  0
    7.5125  -22.9807   26.5376 N   0  0  0  0  0  0  0  0  0  0  0  0
    8.4075  -22.0989   25.8281 C   0  0  0  0  0  0  0  0  0  0  0  0
    7.9815  -20.6627   25.8164 C   0  0  0  0  0  0  0  0  0  0  0  0
    8.0160  -19.9808   24.5068 C   0  0  0  0  0  0  0  0  0  0  0  0
    7.6001  -18.5280   24.4944 C   0  0  2  0  0  0  0  0  0  0  0  0
    7.5312  -18.1698   23.0622 N   0  0  0  0  0  0  0  0  0  0  0  0
    8.6099  -17.6170   25.0682 C   0  0  0  0  0  0  0  0  0  0  0  0
    9.8454  -17.9537   25.0522 O   0  0  0  0  0  0  0  0  0  0  0  0
    8.5622  -21.3007   28.3493 C   0  0  0  0  0  0  0  0  0  0  0  0
    7.4603  -11.7883   27.7465 S   0  0  0  0  0  0  0  0  0  0  0  0
    8.6785  -12.4594   28.9108 C   0  0  0  0  0  0  0  0  0  0  0  0
    9.5466  -13.8227   28.1354 C   0  0  0  0  0  0  0  0  0  0  0  0
    8.6565  -14.5495   27.1678 C   0  0  1  0  0  0  0  0  0  0  0  0
    9.3828  -15.6424   26.4074 N   0  0  0  0  0  0  0  0  0  0  0  0
    8.3349  -16.3511   25.6570 C   0  0  0  0  0  0  0  0  0  0  0  0
   10.0296  -16.6247   27.2976 O   0  0  0  0  0  0  0  0  0  0  0  0
    9.3550  -17.3527   28.0696 O   0  0  0  0  0  0  0  0  0  0  0  0
  2  1  1  0
  3  2  2  0
  4  3  1  0
  5 11  1  0
  5  4  2  0
  6  7  1  0
  6  5  1  0
  7  9  1  0
  7  8  1  1
  9 21  1  0
 10  9  2  0
 11 12  2  0
 12  2  1  0
 13 14  1  0
 14 15  2  0
 16 14  1  0
 16 17  1  0
 18 17  1  0
 19 18  1  0
 20 19  1  6
 21 20  1  0
 22 20  1  0
 22 29  1  0
 23 22  2  0
 25 24  1  0
 25 26  1  0
 26 27  1  0
 28 27  1  6
 28 29  1  0
 28 30  1  0
 30 31  2  0
 30 32  1  0
M  END
$$$$
