YRM.pdb
     RDKit          3D

 32 32  0  0  1  0  0  0  0  0999 V2000
    4.7332  -11.0504   29.4105 O   0  0  0  0  0  0  0  0  0  0  0  0
    5.3962  -11.8549   28.4654 C   0  0  0  0  0  0  0  0  0  0  0  0
    6.5734  -12.5037   28.7977 C   0  0  0  0  0  0  0  0  0  0  0  0
    7.2389  -13.2934   27.8909 C   0  0  0  0  0  0  0  0  0  0  0  0
    6.7317  -13.4607   26.5917 C   0  0  0  0  0  0  0  0  0  0  0  0
    7.4763  -14.3146   25.6460 C   0  0  0  0  0  0  0  0  0  0  0  0
    6.6437  -15.4482   25.0686 C   0  0  2  0  0  0  0  0  0  0  0  0
    6.5873  -16.5458   26.0301 N   0  0  0  0  0  0  0  0  0  0  0  0
    7.1879  -15.9868   23.8075 C   0  0  0  0  0  0  0  0  0  0  0  0
    7.9640  -16.9940   23.8854 O   0  0  0  0  0  0  0  0  0  0  0  0
    5.5686  -12.8157   26.2779 C   0  0  0  0  0  0  0  0  0  0  0  0
    4.8886  -12.0121   27.1961 C   0  0  0  0  0  0  0  0  0  0  0  0
   10.0804  -13.0716   17.4652 N   0  0  0  0  0  0  0  0  0  0  0  0
    9.6442  -14.1293   16.6006 C   0  0  0  0  0  0  0  0  0  0  0  0
   10.4319  -14.4507   15.6579 N   0  0  0  0  0  0  0  0  0  0  0  0
    8.3969  -14.7822   16.7769 N   0  0  0  0  0  0  0  0  0  0  0  0
    7.5029  -14.4570   17.8617 C   0  0  0  0  0  0  0  0  0  0  0  0
    8.1550  -14.4137   19.2097 C   0  0  0  0  0  0  0  0  0  0  0  0
    7.2711  -14.6368   20.3716 C   0  0  0  0  0  0  0  0  0  0  0  0
    7.7695  -15.6053   21.4191 C   0  0  2  0  0  0  0  0  0  0  0  0
    6.8640  -15.4109   22.5708 N   0  0  0  0  0  0  0  0  0  0  0  0
    9.1155  -15.2829   21.9325 C   0  0  0  0  0  0  0  0  0  0  0  0
    9.2721  -14.2700   22.7005 O   0  0  0  0  0  0  0  0  0  0  0  0
   10.3533  -15.2168   14.9883 C   0  0  0  0  0  0  0  0  0  0  0  0
   12.3913  -15.8304   27.6187 S   0  0  0  0  0  0  0  0  0  0  0  0
   11.5026  -15.5146   26.0693 C   0  0  0  0  0  0  0  0  0  0  0  0
   11.5831  -16.9765   25.0349 C   0  0  0  0  0  0  0  0  0  0  0  0
   10.6806  -16.8441   23.8414 C   0  0  2  0  0  0  0  0  0  0  0  0
   11.3502  -16.1483   22.6719 N   0  0  0  0  0  0  0  0  0  0  0  0
   10.3009  -16.0173   21.6496 C   0  0  0  0  0  0  0  0  0  0  0  0
   12.4434  -16.9445   22.0833 O   0  0  0  0  0  0  0  0  0  0  0  0
   12.2085  -17.9507   21.3668 O   0  0  0  0  0  0  0  0  0  0  0  0
  2  1  1  0
  3  2  2  0
  4  3  1  0
  5 11  1  0
  5  4  2  0
  6  7  1  0
  6  5  1  0
  7  9  1  0
  7  8  1  1
  9 21  1  0
 10  9  2  0
 11 12  2  0
 12  2  1  0
 13 14  1  0
 14 15  2  0
 16 14  1  0
 16 17  1  0
 18 17  1  0
 19 18  1  0
 20 19  1  6
 21 20  1  0
 22 20  1  0
 22 29  1  0
 23 22  2  0
 25 24  1  0
 25 26  1  0
 26 27  1  0
 28 27  1  1
 28 29  1  0
 28 30  1  0
 30 31  2  0
 30 32  1  0
M  END
$$$$
