YRM.pdb
     RDKit          3D

 32 32  0  0  1  0  0  0  0  0999 V2000
    7.3396  -11.8947   16.6550 O   0  0  0  0  0  0  0  0  0  0  0  0
    7.5045  -12.6024   17.8601 C   0  0  0  0  0  0  0  0  0  0  0  0
    8.7659  -12.7828   18.4017 C   0  0  0  0  0  0  0  0  0  0  0  0
    8.9512  -13.4715   19.5765 C   0  0  0  0  0  0  0  0  0  0  0  0
    7.8503  -14.0131   20.2607 C   0  0  0  0  0  0  0  0  0  0  0  0
    8.0904  -14.7479   21.5178 C   0  0  0  0  0  0  0  0  0  0  0  0
    8.6800  -16.1334   21.3065 C   0  0  2  0  0  0  0  0  0  0  0  0
    7.6972  -16.9806   20.6366 N   0  0  0  0  0  0  0  0  0  0  0  0
    9.0622  -16.8019   22.5649 C   0  0  0  0  0  0  0  0  0  0  0  0
    8.1618  -17.4665   23.1739 O   0  0  0  0  0  0  0  0  0  0  0  0
    6.6114  -13.8263   19.7154 C   0  0  0  0  0  0  0  0  0  0  0  0
    6.4180  -13.1271   18.5217 C   0  0  0  0  0  0  0  0  0  0  0  0
   14.8954  -19.5974   21.7153 N   0  0  0  0  0  0  0  0  0  0  0  0
   14.0335  -20.6949   22.0456 C   0  0  0  0  0  0  0  0  0  0  0  0
   13.7612  -21.5035   21.1051 N   0  0  0  0  0  0  0  0  0  0  0  0
   13.5023  -20.8715   23.3493 N   0  0  0  0  0  0  0  0  0  0  0  0
   13.7697  -19.9453   24.4229 C   0  0  0  0  0  0  0  0  0  0  0  0
   12.5816  -19.1441   24.8598 C   0  0  0  0  0  0  0  0  0  0  0  0
   11.9614  -18.2812   23.8342 C   0  0  0  0  0  0  0  0  0  0  0  0
   10.7418  -17.4985   24.2624 C   0  0  2  0  0  0  0  0  0  0  0  0
   10.3662  -16.7080   23.0714 N   0  0  0  0  0  0  0  0  0  0  0  0
   11.0172  -16.4989   25.3132 C   0  0  0  0  0  0  0  0  0  0  0  0
   11.5082  -15.3614   24.9891 O   0  0  0  0  0  0  0  0  0  0  0  0
   13.1719  -22.3365   21.1246 C   0  0  0  0  0  0  0  0  0  0  0  0
    7.3223  -11.3700   26.7148 S   0  0  0  0  0  0  0  0  0  0  0  0
    7.1073  -13.1664   26.8445 C   0  0  0  0  0  0  0  0  0  0  0  0
    8.5170  -13.8686   27.7007 C   0  0  0  0  0  0  0  0  0  0  0  0
    9.1372  -14.9784   26.9004 C   0  0  1  0  0  0  0  0  0  0  0  0
   10.3923  -15.5367   27.5433 N   0  0  0  0  0  0  0  0  0  0  0  0
   10.7783  -16.6813   26.7040 C   0  0  0  0  0  0  0  0  0  0  0  0
   10.1568  -16.0481   28.9066 O   0  0  0  0  0  0  0  0  0  0  0  0
    9.9002  -17.2612   29.1157 O   0  0  0  0  0  0  0  0  0  0  0  0
  2  1  1  0
  3  2  2  0
  4  3  1  0
  5 11  1  0
  5  4  2  0
  6  7  1  0
  6  5  1  0
  7  9  1  0
  7  8  1  1
  9 21  1  0
 10  9  2  0
 11 12  2  0
 12  2  1  0
 13 14  1  0
 14 15  2  0
 16 14  1  0
 16 17  1  0
 18 17  1  0
 19 18  1  0
 20 19  1  6
 21 20  1  0
 22 20  1  0
 22 29  1  0
 23 22  2  0
 25 24  1  0
 25 26  1  0
 26 27  1  0
 28 27  1  6
 28 29  1  0
 28 30  1  0
 30 31  2  0
 30 32  1  0
M  END
$$$$
