PDC.pdb
     RDKit          3D

 22 22  0  0  1  0  0  0  0  0999 V2000
   21.3160  -11.7964  -17.3123 N   0  0  0  0  0  0  0  0  0  0  0  0
   20.1816  -12.2551  -18.0680 C   0  0  0  0  0  0  0  0  0  0  0  0
   20.7262  -12.3315  -19.4756 C   0  0  0  0  0  0  0  0  0  0  0  0
   21.9413  -11.4297  -19.5317 C   0  0  0  0  0  0  0  0  0  0  0  0
   21.9769  -10.8050  -18.1539 C   0  0  1  0  0  0  0  0  0  0  0  0
   21.2208   -9.5348  -18.1063 C   0  0  0  0  0  0  0  0  0  0  0  0
   21.5994   -8.5599  -18.8377 O   0  0  0  0  0  0  0  0  0  0  0  0
   20.0991   -9.4328  -17.2547 N   0  0  0  0  0  0  0  0  0  0  0  0
   19.3569   -8.1782  -17.1480 C   0  0  1  0  0  0  0  0  0  0  0  0
   17.8983   -8.4727  -17.0887 C   0  0  0  0  0  0  0  0  0  0  0  0
   16.9940   -7.3197  -17.0697 C   0  0  0  0  0  0  0  0  0  0  0  0
   17.2647   -6.2806  -16.4367 O   0  0  0  0  0  0  0  0  0  0  0  0
   19.8470   -7.4481  -15.9303 C   0  0  0  0  0  0  0  0  0  0  0  0
   19.7417   -7.8640  -14.7598 O   0  0  0  0  0  0  0  0  0  0  0  0
   15.7892   -7.3330  -17.7594 O   0  0  0  0  0  0  0  0  0  0  0  0
   20.4954   -6.1697  -16.0441 N   0  0  0  0  0  0  0  0  0  0  0  0
   21.0257   -5.4590  -14.9243 C   0  0  1  0  0  0  0  0  0  0  0  0
   22.3059   -6.0508  -14.3843 C   0  0  0  0  0  0  0  0  0  0  0  0
   22.8630   -4.9706  -13.0321 S   0  0  0  0  0  0  0  0  0  0  0  0
   21.1916   -4.0150  -15.1735 C   0  0  0  0  0  0  0  0  0  0  0  0
   21.6596   -3.5703  -16.2637 O   0  0  0  0  0  0  0  0  0  0  0  0
   20.8427   -3.0828  -14.2257 O   0  0  0  0  0  0  0  0  0  0  0  0
  1  5  1  0
  1  2  1  0
  3  4  1  0
  3  2  1  0
  4  5  1  0
  5  6  1  6
  7  6  2  0
  8  6  1  0
  9  8  1  0
  9 13  1  0
  9 10  1  1
 11 12  2  0
 11 10  1  0
 13 16  1  0
 14 13  2  0
 15 11  1  0
 16 17  1  0
 17 20  1  0
 17 18  1  6
 19 18  1  0
 20 21  2  0
 20 22  1  0
M  END
$$$$
