PDC.pdb
     RDKit          3D

 22 22  0  0  1  0  0  0  0  0999 V2000
   22.4672  -14.6228  -17.2013 N   0  0  0  0  0  0  0  0  0  0  0  0
   23.7078  -14.7406  -16.4834 C   0  0  0  0  0  0  0  0  0  0  0  0
   24.7007  -15.0495  -17.5800 C   0  0  0  0  0  0  0  0  0  0  0  0
   23.9140  -15.6045  -18.7487 C   0  0  0  0  0  0  0  0  0  0  0  0
   22.4982  -15.6682  -18.2183 C   0  0  1  0  0  0  0  0  0  0  0  0
   22.2041  -16.9750  -17.5914 C   0  0  0  0  0  0  0  0  0  0  0  0
   22.2396  -18.0294  -18.3097 O   0  0  0  0  0  0  0  0  0  0  0  0
   21.8930  -17.0239  -16.2149 N   0  0  0  0  0  0  0  0  0  0  0  0
   21.5876  -18.2971  -15.5653 C   0  0  1  0  0  0  0  0  0  0  0  0
   22.6346  -18.5949  -14.5491 C   0  0  0  0  0  0  0  0  0  0  0  0
   22.5599  -19.9017  -13.8902 C   0  0  0  0  0  0  0  0  0  0  0  0
   21.6135  -20.6875  -14.0909 O   0  0  0  0  0  0  0  0  0  0  0  0
   20.2143  -18.1973  -14.9651 C   0  0  0  0  0  0  0  0  0  0  0  0
   19.7915  -17.2234  -14.3118 O   0  0  0  0  0  0  0  0  0  0  0  0
   23.5449  -20.3252  -13.0083 O   0  0  0  0  0  0  0  0  0  0  0  0
   19.2618  -19.2643  -15.1132 N   0  0  0  0  0  0  0  0  0  0  0  0
   17.8925  -19.1503  -14.7234 C   0  0  1  0  0  0  0  0  0  0  0  0
   17.1677  -18.0056  -15.3906 C   0  0  0  0  0  0  0  0  0  0  0  0
   15.5135  -17.9140  -14.6417 S   0  0  0  0  0  0  0  0  0  0  0  0
   17.1324  -20.4038  -14.8843 C   0  0  0  0  0  0  0  0  0  0  0  0
   17.6565  -21.4503  -15.3697 O   0  0  0  0  0  0  0  0  0  0  0  0
   15.8124  -20.4906  -14.5114 O   0  0  0  0  0  0  0  0  0  0  0  0
  1  5  1  0
  1  2  1  0
  3  4  1  0
  3  2  1  0
  4  5  1  0
  5  6  1  1
  7  6  2  0
  8  6  1  0
  9  8  1  0
  9 13  1  0
  9 10  1  1
 11 12  2  0
 11 10  1  0
 13 16  1  0
 14 13  2  0
 15 11  1  0
 16 17  1  0
 17 20  1  0
 17 18  1  6
 19 18  1  0
 20 21  2  0
 20 22  1  0
M  END
$$$$
