PDC.pdb
     RDKit          3D

 22 22  0  0  1  0  0  0  0  0999 V2000
   20.7093   -9.6903  -17.7618 N   0  0  0  0  0  0  0  0  0  0  0  0
   21.0714  -10.5421  -16.6611 C   0  0  0  0  0  0  0  0  0  0  0  0
   19.7968  -11.3107  -16.3995 C   0  0  0  0  0  0  0  0  0  0  0  0
   18.6609  -10.5015  -16.9892 C   0  0  0  0  0  0  0  0  0  0  0  0
   19.3465   -9.2481  -17.4877 C   0  0  1  0  0  0  0  0  0  0  0  0
   19.3701   -8.1873  -16.4574 C   0  0  0  0  0  0  0  0  0  0  0  0
   18.2684   -7.7929  -15.9480 O   0  0  0  0  0  0  0  0  0  0  0  0
   20.6098   -7.6387  -16.0622 N   0  0  0  0  0  0  0  0  0  0  0  0
   20.6617   -6.4802  -15.1726 C   0  0  1  0  0  0  0  0  0  0  0  0
   21.8600   -6.5870  -14.2949 C   0  0  0  0  0  0  0  0  0  0  0  0
   22.0386   -5.5322  -13.2933 C   0  0  0  0  0  0  0  0  0  0  0  0
   21.4663   -5.5708  -12.1867 O   0  0  0  0  0  0  0  0  0  0  0  0
   20.6776   -5.2407  -16.0207 C   0  0  0  0  0  0  0  0  0  0  0  0
   21.3092   -5.1160  -17.0882 O   0  0  0  0  0  0  0  0  0  0  0  0
   22.8575   -4.4371  -13.5333 O   0  0  0  0  0  0  0  0  0  0  0  0
   19.9335   -4.0714  -15.6376 N   0  0  0  0  0  0  0  0  0  0  0  0
   19.9161   -2.8682  -16.4071 C   0  0  1  0  0  0  0  0  0  0  0  0
   18.9592   -2.9117  -17.5748 C   0  0  0  0  0  0  0  0  0  0  0  0
   19.0960   -1.3158  -18.4349 S   0  0  0  0  0  0  0  0  0  0  0  0
   19.6833   -1.6587  -15.5961 C   0  0  0  0  0  0  0  0  0  0  0  0
   18.7349   -1.5826  -14.7594 O   0  0  0  0  0  0  0  0  0  0  0  0
   20.4920   -0.5538  -15.7147 O   0  0  0  0  0  0  0  0  0  0  0  0
  1  5  1  0
  1  2  1  0
  3  4  1  0
  3  2  1  0
  4  5  1  0
  5  6  1  1
  7  6  2  0
  8  6  1  0
  9  8  1  0
  9 13  1  0
  9 10  1  6
 11 12  2  0
 11 10  1  0
 13 16  1  0
 14 13  2  0
 15 11  1  0
 16 17  1  0
 17 20  1  0
 17 18  1  6
 19 18  1  0
 20 21  2  0
 20 22  1  0
M  END
$$$$
