PDC.pdb
     RDKit          3D

 22 22  0  0  1  0  0  0  0  0999 V2000
   18.2061  -11.1344  -17.3526 N   0  0  0  0  0  0  0  0  0  0  0  0
   19.0864  -12.2524  -17.5610 C   0  0  0  0  0  0  0  0  0  0  0  0
   18.7866  -13.1398  -16.3752 C   0  0  0  0  0  0  0  0  0  0  0  0
   18.1666  -12.2620  -15.3085 C   0  0  0  0  0  0  0  0  0  0  0  0
   18.2264  -10.8777  -15.9168 C   0  0  1  0  0  0  0  0  0  0  0  0
   19.4769  -10.1735  -15.5593 C   0  0  0  0  0  0  0  0  0  0  0  0
   19.7449   -9.9720  -14.3279 O   0  0  0  0  0  0  0  0  0  0  0  0
   20.3431   -9.7434  -16.5882 N   0  0  0  0  0  0  0  0  0  0  0  0
   21.5691   -9.0129  -16.2726 C   0  0  1  0  0  0  0  0  0  0  0  0
   22.6588   -9.4641  -17.1818 C   0  0  0  0  0  0  0  0  0  0  0  0
   23.9734   -8.8450  -16.9919 C   0  0  0  0  0  0  0  0  0  0  0  0
   24.1525   -7.9144  -16.1822 O   0  0  0  0  0  0  0  0  0  0  0  0
   21.2833   -7.5439  -16.4008 C   0  0  0  0  0  0  0  0  0  0  0  0
   20.7302   -7.0087  -17.3814 O   0  0  0  0  0  0  0  0  0  0  0  0
   25.0840   -9.2694  -17.7088 O   0  0  0  0  0  0  0  0  0  0  0  0
   21.6454   -6.6249  -15.3558 N   0  0  0  0  0  0  0  0  0  0  0  0
   21.3218   -5.2342  -15.3902 C   0  0  1  0  0  0  0  0  0  0  0  0
   19.8377   -4.9605  -15.4497 C   0  0  0  0  0  0  0  0  0  0  0  0
   19.6273   -3.1550  -15.4153 S   0  0  0  0  0  0  0  0  0  0  0  0
   21.9438   -4.4618  -14.2987 C   0  0  0  0  0  0  0  0  0  0  0  0
   22.5799   -5.0216  -13.3568 O   0  0  0  0  0  0  0  0  0  0  0  0
   21.8589   -3.0907  -14.2567 O   0  0  0  0  0  0  0  0  0  0  0  0
  1  5  1  0
  1  2  1  0
  3  4  1  0
  3  2  1  0
  4  5  1  0
  5  6  1  6
  7  6  2  0
  8  6  1  0
  9  8  1  0
  9 13  1  0
  9 10  1  6
 11 12  2  0
 11 10  1  0
 13 16  1  0
 14 13  2  0
 15 11  1  0
 16 17  1  0
 17 20  1  0
 17 18  1  1
 19 18  1  0
 20 21  2  0
 20 22  1  0
M  END
$$$$
