PDC.pdb
     RDKit          3D

 22 22  0  0  1  0  0  0  0  0999 V2000
   29.8878  -22.1834  -12.7311 N   0  0  0  0  0  0  0  0  0  0  0  0
   30.8373  -21.1098  -12.8495 C   0  0  0  0  0  0  0  0  0  0  0  0
   30.9519  -20.6065  -11.4292 C   0  0  0  0  0  0  0  0  0  0  0  0
   29.7024  -21.0505  -10.6980 C   0  0  0  0  0  0  0  0  0  0  0  0
   28.8834  -21.7197  -11.7802 C   0  0  1  0  0  0  0  0  0  0  0  0
   27.9731  -20.7658  -12.4502 C   0  0  0  0  0  0  0  0  0  0  0  0
   27.8907  -19.5718  -12.0071 O   0  0  0  0  0  0  0  0  0  0  0  0
   27.2197  -21.1990  -13.5631 N   0  0  0  0  0  0  0  0  0  0  0  0
   26.0511  -20.4437  -14.0107 C   0  0  1  0  0  0  0  0  0  0  0  0
   25.9895  -20.4683  -15.4984 C   0  0  0  0  0  0  0  0  0  0  0  0
   27.1390  -19.9082  -16.2144 C   0  0  0  0  0  0  0  0  0  0  0  0
   28.0687  -20.6260  -16.6316 O   0  0  0  0  0  0  0  0  0  0  0  0
   24.8326  -21.0483  -13.3738 C   0  0  0  0  0  0  0  0  0  0  0  0
   24.5399  -22.2597  -13.4037 O   0  0  0  0  0  0  0  0  0  0  0  0
   27.2445  -18.5461  -16.4614 O   0  0  0  0  0  0  0  0  0  0  0  0
   23.8881  -20.2324  -12.6596 N   0  0  0  0  0  0  0  0  0  0  0  0
   22.7765  -20.7694  -11.9411 C   0  0  1  0  0  0  0  0  0  0  0  0
   22.8344  -20.5076  -10.4549 C   0  0  0  0  0  0  0  0  0  0  0  0
   24.5037  -20.9649   -9.8983 S   0  0  0  0  0  0  0  0  0  0  0  0
   21.4713  -20.3524  -12.4863 C   0  0  0  0  0  0  0  0  0  0  0  0
   21.3747  -19.5222  -13.4386 O   0  0  0  0  0  0  0  0  0  0  0  0
   20.2947  -20.8508  -11.9802 O   0  0  0  0  0  0  0  0  0  0  0  0
  1  5  1  0
  1  2  1  0
  3  4  1  0
  3  2  1  0
  4  5  1  0
  5  6  1  6
  7  6  2  0
  8  6  1  0
  9  8  1  0
  9 13  1  0
  9 10  1  6
 11 12  2  0
 11 10  1  0
 13 16  1  0
 14 13  2  0
 15 11  1  0
 16 17  1  0
 17 20  1  0
 17 18  1  1
 19 18  1  0
 20 21  2  0
 20 22  1  0
M  END
$$$$
