PDC.pdb
     RDKit          3D

 22 22  0  0  1  0  0  0  0  0999 V2000
   19.5193  -12.0925  -17.5965 N   0  0  0  0  0  0  0  0  0  0  0  0
   20.2011  -12.9158  -16.6344 C   0  0  0  0  0  0  0  0  0  0  0  0
   19.0865  -13.3366  -15.7047 C   0  0  0  0  0  0  0  0  0  0  0  0
   17.9670  -12.3304  -15.8687 C   0  0  0  0  0  0  0  0  0  0  0  0
   18.5447  -11.3191  -16.8349 C   0  0  1  0  0  0  0  0  0  0  0  0
   19.2328  -10.2159  -16.1300 C   0  0  0  0  0  0  0  0  0  0  0  0
   19.2238  -10.1942  -14.8540 O   0  0  0  0  0  0  0  0  0  0  0  0
   19.8832   -9.2158  -16.8855 N   0  0  0  0  0  0  0  0  0  0  0  0
   20.4909   -8.0616  -16.2261 C   0  0  1  0  0  0  0  0  0  0  0  0
   21.9404   -8.0087  -16.5635 C   0  0  0  0  0  0  0  0  0  0  0  0
   22.7964   -9.0289  -15.9519 C   0  0  0  0  0  0  0  0  0  0  0  0
   22.6753   -9.3601  -14.7563 O   0  0  0  0  0  0  0  0  0  0  0  0
   19.7519   -6.8301  -16.6660 C   0  0  0  0  0  0  0  0  0  0  0  0
   19.4547   -6.5613  -17.8465 O   0  0  0  0  0  0  0  0  0  0  0  0
   23.7856   -9.6757  -16.6803 O   0  0  0  0  0  0  0  0  0  0  0  0
   19.3233   -5.8431  -15.7122 N   0  0  0  0  0  0  0  0  0  0  0  0
   18.5604   -4.6897  -16.0693 C   0  0  1  0  0  0  0  0  0  0  0  0
   17.3316   -4.4896  -15.2143 C   0  0  0  0  0  0  0  0  0  0  0  0
   16.3572   -6.0211  -15.3157 S   0  0  0  0  0  0  0  0  0  0  0  0
   19.3602   -3.4516  -16.1180 C   0  0  0  0  0  0  0  0  0  0  0  0
   18.8611   -2.3423  -16.4722 O   0  0  0  0  0  0  0  0  0  0  0  0
   20.6920   -3.4489  -15.7784 O   0  0  0  0  0  0  0  0  0  0  0  0
  1  5  1  0
  1  2  1  0
  3  4  1  0
  3  2  1  0
  4  5  1  0
  5  6  1  1
  7  6  2  0
  8  6  1  0
  9  8  1  0
  9 13  1  0
  9 10  1  6
 11 12  2  0
 11 10  1  0
 13 16  1  0
 14 13  2  0
 15 11  1  0
 16 17  1  0
 17 20  1  0
 17 18  1  1
 19 18  1  0
 20 21  2  0
 20 22  1  0
M  END
$$$$
