PDC.pdb
     RDKit          3D

 22 22  0  0  1  0  0  0  0  0999 V2000
   21.6355  -13.0502  -16.8404 N   0  0  0  0  0  0  0  0  0  0  0  0
   20.3451  -13.6660  -16.9948 C   0  0  0  0  0  0  0  0  0  0  0  0
   20.3259  -14.0400  -18.4588 C   0  0  0  0  0  0  0  0  0  0  0  0
   21.3475  -13.1654  -19.1545 C   0  0  0  0  0  0  0  0  0  0  0  0
   21.8432  -12.2594  -18.0485 C   0  0  1  0  0  0  0  0  0  0  0  0
   21.0526  -11.0123  -17.9635 C   0  0  0  0  0  0  0  0  0  0  0  0
   21.0305  -10.2225  -18.9658 O   0  0  0  0  0  0  0  0  0  0  0  0
   20.3417  -10.7273  -16.7772 N   0  0  0  0  0  0  0  0  0  0  0  0
   19.5364   -9.5127  -16.6653 C   0  0  1  0  0  0  0  0  0  0  0  0
   18.1229   -9.8839  -16.3792 C   0  0  0  0  0  0  0  0  0  0  0  0
   17.3367  -10.3984  -17.5038 C   0  0  0  0  0  0  0  0  0  0  0  0
   17.0354  -11.6041  -17.6000 O   0  0  0  0  0  0  0  0  0  0  0  0
   20.1353   -8.6531  -15.5890 C   0  0  0  0  0  0  0  0  0  0  0  0
   20.2236   -8.9740  -14.3876 O   0  0  0  0  0  0  0  0  0  0  0  0
   16.8898   -9.5619  -18.5176 O   0  0  0  0  0  0  0  0  0  0  0  0
   20.6665   -7.3513  -15.8906 N   0  0  0  0  0  0  0  0  0  0  0  0
   21.1494   -6.4527  -14.8909 C   0  0  1  0  0  0  0  0  0  0  0  0
   22.4937   -5.8483  -15.2203 C   0  0  0  0  0  0  0  0  0  0  0  0
   22.9363   -4.7502  -13.8406 S   0  0  0  0  0  0  0  0  0  0  0  0
   20.1829   -5.3959  -14.5385 C   0  0  0  0  0  0  0  0  0  0  0  0
   19.6833   -5.3017  -13.3780 O   0  0  0  0  0  0  0  0  0  0  0  0
   19.7800   -4.4610  -15.4618 O   0  0  0  0  0  0  0  0  0  0  0  0
  1  5  1  0
  1  2  1  0
  3  4  1  0
  3  2  1  0
  4  5  1  0
  5  6  1  1
  7  6  2  0
  8  6  1  0
  9  8  1  0
  9 13  1  0
  9 10  1  1
 11 12  2  0
 11 10  1  0
 13 16  1  0
 14 13  2  0
 15 11  1  0
 16 17  1  0
 17 20  1  0
 17 18  1  6
 19 18  1  0
 20 21  2  0
 20 22  1  0
M  END
$$$$
