PDC.pdb
     RDKit          3D

 22 22  0  0  1  0  0  0  0  0999 V2000
   25.6298  -12.3113  -16.9411 N   0  0  0  0  0  0  0  0  0  0  0  0
   25.3833  -12.6959  -15.5774 C   0  0  0  0  0  0  0  0  0  0  0  0
   24.8426  -14.1000  -15.7185 C   0  0  0  0  0  0  0  0  0  0  0  0
   24.3222  -14.2358  -17.1340 C   0  0  0  0  0  0  0  0  0  0  0  0
   24.5148  -12.8506  -17.7117 C   0  0  1  0  0  0  0  0  0  0  0  0
   23.3208  -12.0008  -17.5125 C   0  0  0  0  0  0  0  0  0  0  0  0
   22.2149  -12.3505  -18.0448 O   0  0  0  0  0  0  0  0  0  0  0  0
   23.4337  -10.8255  -16.7379 N   0  0  0  0  0  0  0  0  0  0  0  0
   22.3026   -9.9093  -16.6058 C   0  0  1  0  0  0  0  0  0  0  0  0
   21.1647  -10.6218  -15.9615 C   0  0  0  0  0  0  0  0  0  0  0  0
   19.9541   -9.8357  -15.7084 C   0  0  0  0  0  0  0  0  0  0  0  0
   19.4081   -9.1605  -16.6026 O   0  0  0  0  0  0  0  0  0  0  0  0
   22.7579   -8.7167  -15.8142 C   0  0  0  0  0  0  0  0  0  0  0  0
   23.8299   -8.6486  -15.1816 O   0  0  0  0  0  0  0  0  0  0  0  0
   19.3580   -9.8075  -14.4549 O   0  0  0  0  0  0  0  0  0  0  0  0
   21.9509   -7.5292  -15.7336 N   0  0  0  0  0  0  0  0  0  0  0  0
   22.4146   -6.3057  -15.1609 C   0  0  1  0  0  0  0  0  0  0  0  0
   23.2073   -5.4512  -16.1213 C   0  0  0  0  0  0  0  0  0  0  0  0
   23.8498   -4.0397  -15.1725 S   0  0  0  0  0  0  0  0  0  0  0  0
   21.3433   -5.5123  -14.5304 C   0  0  0  0  0  0  0  0  0  0  0  0
   20.2213   -5.3323  -15.0907 O   0  0  0  0  0  0  0  0  0  0  0  0
   21.5183   -4.9295  -13.2980 O   0  0  0  0  0  0  0  0  0  0  0  0
  1  5  1  0
  1  2  1  0
  3  4  1  0
  3  2  1  0
  4  5  1  0
  5  6  1  1
  7  6  2  0
  8  6  1  0
  9  8  1  0
  9 13  1  0
  9 10  1  1
 11 12  2  0
 11 10  1  0
 13 16  1  0
 14 13  2  0
 15 11  1  0
 16 17  1  0
 17 20  1  0
 17 18  1  6
 19 18  1  0
 20 21  2  0
 20 22  1  0
M  END
$$$$
