PDC.pdb
     RDKit          3D

 22 22  0  0  1  0  0  0  0  0999 V2000
   22.7565  -11.7665  -17.0114 N   0  0  0  0  0  0  0  0  0  0  0  0
   23.6260  -10.6272  -16.8926 C   0  0  0  0  0  0  0  0  0  0  0  0
   23.8247  -10.5125  -15.3989 C   0  0  0  0  0  0  0  0  0  0  0  0
   22.6683  -11.2342  -14.7398 C   0  0  0  0  0  0  0  0  0  0  0  0
   21.8063  -11.6551  -15.9101 C   0  0  1  0  0  0  0  0  0  0  0  0
   20.7881  -10.6340  -16.2386 C   0  0  0  0  0  0  0  0  0  0  0  0
   20.7886  -10.1097  -17.4022 O   0  0  0  0  0  0  0  0  0  0  0  0
   19.8409  -10.2659  -15.2582 N   0  0  0  0  0  0  0  0  0  0  0  0
   18.7521   -9.3464  -15.5829 C   0  0  1  0  0  0  0  0  0  0  0  0
   17.5245   -9.7579  -14.8472 C   0  0  0  0  0  0  0  0  0  0  0  0
   17.0240  -11.1107  -15.1062 C   0  0  0  0  0  0  0  0  0  0  0  0
   16.8290  -11.5306  -16.2635 O   0  0  0  0  0  0  0  0  0  0  0  0
   19.1954   -7.9551  -15.2309 C   0  0  0  0  0  0  0  0  0  0  0  0
   18.5350   -6.9205  -15.4489 O   0  0  0  0  0  0  0  0  0  0  0  0
   16.7432  -11.9897  -14.0690 O   0  0  0  0  0  0  0  0  0  0  0  0
   20.4628   -7.7205  -14.5934 N   0  0  0  0  0  0  0  0  0  0  0  0
   20.9283   -6.4192  -14.2332 C   0  0  1  0  0  0  0  0  0  0  0  0
   21.6038   -6.3714  -12.8832 C   0  0  0  0  0  0  0  0  0  0  0  0
   22.1646   -4.6607  -12.6287 S   0  0  0  0  0  0  0  0  0  0  0  0
   21.7870   -5.8003  -15.2601 C   0  0  0  0  0  0  0  0  0  0  0  0
   22.5176   -6.4912  -16.0311 O   0  0  0  0  0  0  0  0  0  0  0  0
   21.8314   -4.4366  -15.4256 O   0  0  0  0  0  0  0  0  0  0  0  0
  1  5  1  0
  1  2  1  0
  3  4  1  0
  3  2  1  0
  4  5  1  0
  5  6  1  6
  7  6  2  0
  8  6  1  0
  9  8  1  0
  9 13  1  0
  9 10  1  1
 11 12  2  0
 11 10  1  0
 13 16  1  0
 14 13  2  0
 15 11  1  0
 16 17  1  0
 17 20  1  0
 17 18  1  1
 19 18  1  0
 20 21  2  0
 20 22  1  0
M  END
$$$$
