PDC.pdb
     RDKit          3D

 22 22  0  0  1  0  0  0  0  0999 V2000
   16.8352  -10.6533  -16.3388 N   0  0  0  0  0  0  0  0  0  0  0  0
   17.6528  -11.3521  -17.2936 C   0  0  0  0  0  0  0  0  0  0  0  0
   17.7310  -12.7444  -16.7113 C   0  0  0  0  0  0  0  0  0  0  0  0
   17.4150  -12.6273  -15.2351 C   0  0  0  0  0  0  0  0  0  0  0  0
   17.2568  -11.1367  -15.0286 C   0  0  1  0  0  0  0  0  0  0  0  0
   18.5354  -10.4946  -14.6541 C   0  0  0  0  0  0  0  0  0  0  0  0
   19.1658  -10.9195  -13.6289 O   0  0  0  0  0  0  0  0  0  0  0  0
   19.0273   -9.4296  -15.4400 N   0  0  0  0  0  0  0  0  0  0  0  0
   20.3091   -8.8020  -15.1251 C   0  0  1  0  0  0  0  0  0  0  0  0
   21.1116   -8.6687  -16.3725 C   0  0  0  0  0  0  0  0  0  0  0  0
   21.8096   -9.8703  -16.8379 C   0  0  0  0  0  0  0  0  0  0  0  0
   22.4248  -10.6197  -16.0547 O   0  0  0  0  0  0  0  0  0  0  0  0
   20.0326   -7.4770  -14.4739 C   0  0  0  0  0  0  0  0  0  0  0  0
   19.3037   -6.5862  -14.9527 O   0  0  0  0  0  0  0  0  0  0  0  0
   21.8168  -10.2297  -18.1788 O   0  0  0  0  0  0  0  0  0  0  0  0
   20.6164   -7.1397  -13.2038 N   0  0  0  0  0  0  0  0  0  0  0  0
   20.4002   -5.8877  -12.5512 C   0  0  1  0  0  0  0  0  0  0  0  0
   20.3922   -5.9854  -11.0441 C   0  0  0  0  0  0  0  0  0  0  0  0
   19.0927   -7.1748  -10.5945 S   0  0  0  0  0  0  0  0  0  0  0  0
   21.3280   -4.8300  -12.9931 C   0  0  0  0  0  0  0  0  0  0  0  0
   22.3444   -5.0822  -13.7063 O   0  0  0  0  0  0  0  0  0  0  0  0
   21.1277   -3.5151  -12.6470 O   0  0  0  0  0  0  0  0  0  0  0  0
  1  5  1  0
  1  2  1  0
  3  4  1  0
  3  2  1  0
  4  5  1  0
  5  6  1  6
  7  6  2  0
  8  6  1  0
  9  8  1  0
  9 13  1  0
  9 10  1  6
 11 12  2  0
 11 10  1  0
 13 16  1  0
 14 13  2  0
 15 11  1  0
 16 17  1  0
 17 20  1  0
 17 18  1  1
 19 18  1  0
 20 21  2  0
 20 22  1  0
M  END
$$$$
