PDC.pdb
     RDKit          3D

 22 22  0  0  1  0  0  0  0  0999 V2000
   25.0195  -19.8857  -15.8366 N   0  0  0  0  0  0  0  0  0  0  0  0
   24.5273  -20.6571  -16.9460 C   0  0  0  0  0  0  0  0  0  0  0  0
   24.4795  -19.6418  -18.0643 C   0  0  0  0  0  0  0  0  0  0  0  0
   24.4351  -18.2723  -17.4198 C   0  0  0  0  0  0  0  0  0  0  0  0
   24.3691  -18.5841  -15.9406 C   0  0  1  0  0  0  0  0  0  0  0  0
   22.9734  -18.6907  -15.4628 C   0  0  0  0  0  0  0  0  0  0  0  0
   22.1081  -17.8525  -15.8839 O   0  0  0  0  0  0  0  0  0  0  0  0
   22.6331  -19.7169  -14.5546 N   0  0  0  0  0  0  0  0  0  0  0  0
   21.2548  -19.8781  -14.0956 C   0  0  1  0  0  0  0  0  0  0  0  0
   20.3960  -20.2735  -15.2461 C   0  0  0  0  0  0  0  0  0  0  0  0
   19.3181  -19.3501  -15.6110 C   0  0  0  0  0  0  0  0  0  0  0  0
   18.6514  -18.7429  -14.7505 O   0  0  0  0  0  0  0  0  0  0  0  0
   21.2463  -20.8983  -12.9932 C   0  0  0  0  0  0  0  0  0  0  0  0
   21.6729  -22.0649  -13.0988 O   0  0  0  0  0  0  0  0  0  0  0  0
   18.9895  -19.1090  -16.9381 O   0  0  0  0  0  0  0  0  0  0  0  0
   20.7232  -20.5789  -11.6924 N   0  0  0  0  0  0  0  0  0  0  0  0
   20.7741  -21.4804  -10.5857 C   0  0  1  0  0  0  0  0  0  0  0  0
   20.6940  -20.7939   -9.2429 C   0  0  0  0  0  0  0  0  0  0  0  0
   21.7097  -19.2900   -9.3524 S   0  0  0  0  0  0  0  0  0  0  0  0
   19.7784  -22.5652  -10.6690 C   0  0  0  0  0  0  0  0  0  0  0  0
   18.8101  -22.5277  -11.4852 O   0  0  0  0  0  0  0  0  0  0  0  0
   19.8596  -23.6717   -9.8578 O   0  0  0  0  0  0  0  0  0  0  0  0
  1  5  1  0
  1  2  1  0
  3  4  1  0
  3  2  1  0
  4  5  1  0
  5  6  1  6
  7  6  2  0
  8  6  1  0
  9  8  1  0
  9 13  1  0
  9 10  1  6
 11 12  2  0
 11 10  1  0
 13 16  1  0
 14 13  2  0
 15 11  1  0
 16 17  1  0
 17 20  1  0
 17 18  1  1
 19 18  1  0
 20 21  2  0
 20 22  1  0
M  END
$$$$
