PDC.pdb
     RDKit          3D

 22 22  0  0  1  0  0  0  0  0999 V2000
   21.9548  -11.4085  -17.6277 N   0  0  0  0  0  0  0  0  0  0  0  0
   20.5934  -11.6014  -18.0493 C   0  0  0  0  0  0  0  0  0  0  0  0
   20.5083  -10.7588  -19.3008 C   0  0  0  0  0  0  0  0  0  0  0  0
   21.6266   -9.7406  -19.2282 C   0  0  0  0  0  0  0  0  0  0  0  0
   22.2491  -10.0011  -17.8738 C   0  0  1  0  0  0  0  0  0  0  0  0
   21.6287   -9.1751  -16.8154 C   0  0  0  0  0  0  0  0  0  0  0  0
   20.7368   -9.6956  -16.0654 O   0  0  0  0  0  0  0  0  0  0  0  0
   22.0390   -7.8329  -16.6602 N   0  0  0  0  0  0  0  0  0  0  0  0
   21.4722   -6.9986  -15.6024 C   0  0  1  0  0  0  0  0  0  0  0  0
   22.5653   -6.2360  -14.9381 C   0  0  0  0  0  0  0  0  0  0  0  0
   22.1761   -5.3531  -13.8352 C   0  0  0  0  0  0  0  0  0  0  0  0
   21.5114   -5.7651  -12.8646 O   0  0  0  0  0  0  0  0  0  0  0  0
   20.4370   -6.1020  -16.2193 C   0  0  0  0  0  0  0  0  0  0  0  0
   20.5865   -5.4670  -17.2817 O   0  0  0  0  0  0  0  0  0  0  0  0
   22.5320   -4.0112  -13.8217 O   0  0  0  0  0  0  0  0  0  0  0  0
   19.1550   -5.9125  -15.5962 N   0  0  0  0  0  0  0  0  0  0  0  0
   18.1447   -5.0557  -16.1302 C   0  0  1  0  0  0  0  0  0  0  0  0
   16.7981   -5.7246  -16.2716 C   0  0  0  0  0  0  0  0  0  0  0  0
   16.9920   -7.0595  -17.4906 S   0  0  0  0  0  0  0  0  0  0  0  0
   18.0119   -3.7818  -15.3991 C   0  0  0  0  0  0  0  0  0  0  0  0
   18.7183   -3.5136  -14.3820 O   0  0  0  0  0  0  0  0  0  0  0  0
   17.1088   -2.8238  -15.7934 O   0  0  0  0  0  0  0  0  0  0  0  0
  1  5  1  0
  1  2  1  0
  3  4  1  0
  3  2  1  0
  4  5  1  0
  5  6  1  1
  7  6  2  0
  8  6  1  0
  9  8  1  0
  9 13  1  0
  9 10  1  6
 11 12  2  0
 11 10  1  0
 13 16  1  0
 14 13  2  0
 15 11  1  0
 16 17  1  0
 17 20  1  0
 17 18  1  1
 19 18  1  0
 20 21  2  0
 20 22  1  0
M  END
$$$$
