PDC.pdb
     RDKit          3D

 22 22  0  0  1  0  0  0  0  0999 V2000
   17.2513  -13.2129  -15.7414 N   0  0  0  0  0  0  0  0  0  0  0  0
   16.6413  -13.9276  -14.6527 C   0  0  0  0  0  0  0  0  0  0  0  0
   15.2136  -13.4337  -14.6866 C   0  0  0  0  0  0  0  0  0  0  0  0
   15.2184  -12.1100  -15.4218 C   0  0  0  0  0  0  0  0  0  0  0  0
   16.6866  -11.8686  -15.6973 C   0  0  1  0  0  0  0  0  0  0  0  0
   17.3306  -11.0984  -14.6112 C   0  0  0  0  0  0  0  0  0  0  0  0
   17.5978  -11.6846  -13.5095 O   0  0  0  0  0  0  0  0  0  0  0  0
   17.6349   -9.7356  -14.8205 N   0  0  0  0  0  0  0  0  0  0  0  0
   18.2574   -8.9408  -13.7636 C   0  0  1  0  0  0  0  0  0  0  0  0
   19.1365   -7.9075  -14.3777 C   0  0  0  0  0  0  0  0  0  0  0  0
   19.8028   -6.9798  -13.4596 C   0  0  0  0  0  0  0  0  0  0  0  0
   20.3296   -7.3676  -12.3986 O   0  0  0  0  0  0  0  0  0  0  0  0
   17.1647   -8.3424  -12.9244 C   0  0  0  0  0  0  0  0  0  0  0  0
   16.0690   -7.9405  -13.3627 O   0  0  0  0  0  0  0  0  0  0  0  0
   19.8777   -5.6205  -13.7318 O   0  0  0  0  0  0  0  0  0  0  0  0
   17.3216   -8.1896  -11.5033 N   0  0  0  0  0  0  0  0  0  0  0  0
   16.3530   -7.5459  -10.6741 C   0  0  1  0  0  0  0  0  0  0  0  0
   16.3408   -8.0552   -9.2523 C   0  0  0  0  0  0  0  0  0  0  0  0
   15.0272   -7.1546   -8.3754 S   0  0  0  0  0  0  0  0  0  0  0  0
   16.4527   -6.0747  -10.6925 C   0  0  0  0  0  0  0  0  0  0  0  0
   17.5428   -5.4777  -10.9386 O   0  0  0  0  0  0  0  0  0  0  0  0
   15.3581   -5.2823  -10.4415 O   0  0  0  0  0  0  0  0  0  0  0  0
  1  5  1  0
  1  2  1  0
  3  4  1  0
  3  2  1  0
  4  5  1  0
  5  6  1  1
  7  6  2  0
  8  6  1  0
  9  8  1  0
  9 13  1  0
  9 10  1  6
 11 12  2  0
 11 10  1  0
 13 16  1  0
 14 13  2  0
 15 11  1  0
 16 17  1  0
 17 20  1  0
 17 18  1  1
 19 18  1  0
 20 21  2  0
 20 22  1  0
M  END
$$$$
