NDQ.pdb
     RDKit          3D

 26 25  0  0  1  0  0  0  0  0999 V2000
    7.6629  -11.5327   19.0712 N   0  0  0  0  0  0  0  0  0  0  0  0
    7.9445  -12.9270   19.0848 C   0  0  0  0  0  0  0  0  0  0  0  0
    8.3889  -13.5070   18.0584 O   0  0  0  0  0  0  0  0  0  0  0  0
    7.7260  -13.7291   20.2999 C   0  0  0  0  0  0  0  0  0  0  0  0
    8.1824  -15.1652   20.0975 C   0  0  2  0  0  0  0  0  0  0  0  0
    7.1845  -15.8588   19.2891 N   0  0  0  0  0  0  0  0  0  0  0  0
    8.2957  -15.8128   21.4015 C   0  0  0  0  0  0  0  0  0  0  0  0
    7.2864  -15.9066   22.1628 O   0  0  0  0  0  0  0  0  0  0  0  0
    9.5261  -16.3720   21.8879 N   0  0  0  0  0  0  0  0  0  0  0  0
    9.5802  -16.9496   23.2083 C   0  0  1  0  0  0  0  0  0  0  0  0
   10.6127  -18.0641   23.2577 C   0  0  0  0  0  0  0  0  0  0  0  0
   10.6885  -18.6074   24.6159 C   0  0  0  0  0  0  0  0  0  0  0  0
   11.5804  -18.1791   25.3932 O   0  0  0  0  0  0  0  0  0  0  0  0
    9.9041  -15.9208   24.2635 C   0  0  0  0  0  0  0  0  0  0  0  0
   10.6922  -14.9800   23.9867 O   0  0  0  0  0  0  0  0  0  0  0  0
    9.8060  -19.5711   25.0499 O   0  0  0  0  0  0  0  0  0  0  0  0
    7.3539  -11.5974   26.2467 N   0  0  0  0  0  0  0  0  0  0  0  0
    6.6278  -12.7369   26.6924 C   0  0  0  0  0  0  0  0  0  0  0  0
    5.4100  -12.7185   26.9686 O   0  0  0  0  0  0  0  0  0  0  0  0
    7.4032  -14.0205   26.8283 C   0  0  0  0  0  0  0  0  0  0  0  0
    8.8232  -13.7527   26.4490 C   0  0  0  0  0  0  0  0  0  0  0  0
    9.6782  -14.9462   26.5961 C   0  0  2  0  0  0  0  0  0  0  0  0
    9.3534  -15.9623   25.5702 N   0  0  0  0  0  0  0  0  0  0  0  0
    9.6006  -15.5908   27.9256 C   0  0  0  0  0  0  0  0  0  0  0  0
    9.1848  -16.7862   28.0274 O   0  0  0  0  0  0  0  0  0  0  0  0
    9.9657  -14.9548   29.0938 O   0  0  0  0  0  0  0  0  0  0  0  0
  2  1  1  0
  2  4  1  0
  3  2  2  0
  5  4  1  0
  5  6  1  6
  7  9  1  0
  7  5  1  0
  8  7  2  0
 10  9  1  0
 10 11  1  6
 12 16  1  0
 12 11  1  0
 13 12  2  0
 14 15  2  0
 14 10  1  0
 17 18  1  0
 18 19  2  0
 20 18  1  0
 20 21  1  0
 22 21  1  1
 22 23  1  0
 23 14  1  0
 24 22  1  0
 25 24  2  0
 26 24  1  0
M  END
$$$$
