NDQ.pdb
     RDKit          3D

 26 25  0  0  1  0  0  0  0  0999 V2000
    7.2383  -13.1388   15.3270 N   0  0  0  0  0  0  0  0  0  0  0  0
    8.4309  -13.8900   15.5196 C   0  0  0  0  0  0  0  0  0  0  0  0
    8.9285  -14.5655   14.5796 O   0  0  0  0  0  0  0  0  0  0  0  0
    9.1166  -13.8962   16.8224 C   0  0  0  0  0  0  0  0  0  0  0  0
    9.5585  -15.3006   17.2019 C   0  0  2  0  0  0  0  0  0  0  0  0
    8.3893  -16.1741   17.1869 N   0  0  0  0  0  0  0  0  0  0  0  0
   10.1313  -15.2685   18.5449 C   0  0  0  0  0  0  0  0  0  0  0  0
   11.1760  -14.5908   18.7824 O   0  0  0  0  0  0  0  0  0  0  0  0
    9.5585  -15.9823   19.6519 N   0  0  0  0  0  0  0  0  0  0  0  0
   10.2216  -15.9736   20.9327 C   0  0  1  0  0  0  0  0  0  0  0  0
    9.5243  -16.9191   21.8973 C   0  0  0  0  0  0  0  0  0  0  0  0
   10.1142  -16.7870   23.2316 C   0  0  0  0  0  0  0  0  0  0  0  0
   11.0187  -15.9317   23.4145 O   0  0  0  0  0  0  0  0  0  0  0  0
   11.6763  -16.3579   20.8198 C   0  0  0  0  0  0  0  0  0  0  0  0
   11.9845  -17.4611   20.2995 O   0  0  0  0  0  0  0  0  0  0  0  0
    9.6970  -17.5781   24.2784 O   0  0  0  0  0  0  0  0  0  0  0  0
   15.6585  -12.7099   18.4899 N   0  0  0  0  0  0  0  0  0  0  0  0
   16.3676  -13.9431   18.4610 C   0  0  0  0  0  0  0  0  0  0  0  0
   17.2347  -14.2245   17.6074 O   0  0  0  0  0  0  0  0  0  0  0  0
   16.0271  -14.9427   19.5345 C   0  0  0  0  0  0  0  0  0  0  0  0
   14.5728  -14.8131   19.8513 C   0  0  0  0  0  0  0  0  0  0  0  0
   14.1406  -15.7560   20.9007 C   0  0  2  0  0  0  0  0  0  0  0  0
   12.7282  -15.5226   21.2761 N   0  0  0  0  0  0  0  0  0  0  0  0
   14.9592  -15.7131   22.1325 C   0  0  0  0  0  0  0  0  0  0  0  0
   14.4420  -15.3221   23.2242 O   0  0  0  0  0  0  0  0  0  0  0  0
   16.2868  -16.0854   22.1683 O   0  0  0  0  0  0  0  0  0  0  0  0
  2  1  1  0
  2  4  1  0
  3  2  2  0
  5  4  1  0
  5  6  1  1
  7  9  1  0
  7  5  1  0
  8  7  2  0
 10  9  1  0
 10 11  1  1
 12 16  1  0
 12 11  1  0
 13 12  2  0
 14 15  2  0
 14 10  1  0
 17 18  1  0
 18 19  2  0
 20 18  1  0
 20 21  1  0
 22 21  1  6
 22 23  1  0
 23 14  1  0
 24 22  1  0
 25 24  2  0
 26 24  1  0
M  END
$$$$
