NDQ.pdb
     RDKit          3D

 26 25  0  0  1  0  0  0  0  0999 V2000
    6.5862  -12.8900   17.6449 N   0  0  0  0  0  0  0  0  0  0  0  0
    7.7017  -13.6422   18.1068 C   0  0  0  0  0  0  0  0  0  0  0  0
    8.7683  -13.6940   17.4381 O   0  0  0  0  0  0  0  0  0  0  0  0
    7.6400  -14.3787   19.3801 C   0  0  0  0  0  0  0  0  0  0  0  0
    9.0125  -14.4676   20.0283 C   0  0  2  0  0  0  0  0  0  0  0  0
    9.9423  -15.0506   19.0661 N   0  0  0  0  0  0  0  0  0  0  0  0
    8.9231  -15.3247   21.2073 C   0  0  0  0  0  0  0  0  0  0  0  0
    7.9608  -15.1984   22.0227 O   0  0  0  0  0  0  0  0  0  0  0  0
    9.8940  -16.3402   21.5060 N   0  0  0  0  0  0  0  0  0  0  0  0
    9.7760  -17.1126   22.7183 C   0  0  1  0  0  0  0  0  0  0  0  0
   10.8343  -18.2030   22.7576 C   0  0  0  0  0  0  0  0  0  0  0  0
   10.6884  -19.0752   21.5898 C   0  0  0  0  0  0  0  0  0  0  0  0
    9.6655  -19.8020   21.4978 O   0  0  0  0  0  0  0  0  0  0  0  0
    9.8985  -16.2523   23.9519 C   0  0  0  0  0  0  0  0  0  0  0  0
   10.9752  -15.6402   24.1728 O   0  0  0  0  0  0  0  0  0  0  0  0
   11.6457  -19.1107   20.6008 O   0  0  0  0  0  0  0  0  0  0  0  0
    5.5359  -13.0058   26.4734 N   0  0  0  0  0  0  0  0  0  0  0  0
    6.7197  -12.2258   26.5931 C   0  0  0  0  0  0  0  0  0  0  0  0
    6.7205  -10.9926   26.7907 O   0  0  0  0  0  0  0  0  0  0  0  0
    8.0279  -12.9610   26.4682 C   0  0  0  0  0  0  0  0  0  0  0  0
    7.7326  -14.4090   26.2490 C   0  0  0  0  0  0  0  0  0  0  0  0
    8.9579  -15.2106   26.0665 C   0  0  2  0  0  0  0  0  0  0  0  0
    8.8428  -16.0964   24.8864 N   0  0  0  0  0  0  0  0  0  0  0  0
    9.3210  -16.0425   27.2350 C   0  0  0  0  0  0  0  0  0  0  0  0
    9.5277  -15.4963   28.3625 O   0  0  0  0  0  0  0  0  0  0  0  0
    9.4492  -17.4143   27.1726 O   0  0  0  0  0  0  0  0  0  0  0  0
  2  1  1  0
  2  4  1  0
  3  2  2  0
  5  4  1  0
  5  6  1  6
  7  9  1  0
  7  5  1  0
  8  7  2  0
 10  9  1  0
 10 11  1  1
 12 16  1  0
 12 11  1  0
 13 12  2  0
 14 15  2  0
 14 10  1  0
 17 18  1  0
 18 19  2  0
 20 18  1  0
 20 21  1  0
 22 21  1  1
 22 23  1  0
 23 14  1  0
 24 22  1  0
 25 24  2  0
 26 24  1  0
M  END
$$$$
