NDQ.pdb
     RDKit          3D

 26 25  0  0  1  0  0  0  0  0999 V2000
    7.0595  -12.0738   18.8270 N   0  0  0  0  0  0  0  0  0  0  0  0
    7.9351  -13.1737   19.0444 C   0  0  0  0  0  0  0  0  0  0  0  0
    8.6483  -13.6270   18.1099 O   0  0  0  0  0  0  0  0  0  0  0  0
    8.0325  -13.8102   20.3683 C   0  0  0  0  0  0  0  0  0  0  0  0
    9.2747  -14.6815   20.4669 C   0  0  2  0  0  0  0  0  0  0  0  0
    9.3084  -15.5726   19.3115 N   0  0  0  0  0  0  0  0  0  0  0  0
    9.2022  -15.4698   21.6941 C   0  0  0  0  0  0  0  0  0  0  0  0
    8.1879  -15.3907   22.4502 O   0  0  0  0  0  0  0  0  0  0  0  0
   10.2483  -16.3630   22.1076 N   0  0  0  0  0  0  0  0  0  0  0  0
   10.1678  -17.0192   23.3895 C   0  0  1  0  0  0  0  0  0  0  0  0
   11.2784  -18.0475   23.5296 C   0  0  0  0  0  0  0  0  0  0  0  0
   11.1637  -19.0466   22.4646 C   0  0  0  0  0  0  0  0  0  0  0  0
   10.0360  -19.5482   22.2204 O   0  0  0  0  0  0  0  0  0  0  0  0
   10.2472  -16.0385   24.5334 C   0  0  0  0  0  0  0  0  0  0  0  0
   11.2375  -15.2671   24.6173 O   0  0  0  0  0  0  0  0  0  0  0  0
   12.2621  -19.4410   21.7340 O   0  0  0  0  0  0  0  0  0  0  0  0
    5.4805  -13.4215   26.8400 N   0  0  0  0  0  0  0  0  0  0  0  0
    6.4607  -12.4057   26.6616 C   0  0  0  0  0  0  0  0  0  0  0  0
    6.1886  -11.1924   26.5455 O   0  0  0  0  0  0  0  0  0  0  0  0
    7.8971  -12.8550   26.6135 C   0  0  0  0  0  0  0  0  0  0  0  0
    7.9319  -14.3355   26.8109 C   0  0  0  0  0  0  0  0  0  0  0  0
    9.2759  -14.9007   26.5837 C   0  0  2  0  0  0  0  0  0  0  0  0
    9.2440  -15.9412   25.5316 N   0  0  0  0  0  0  0  0  0  0  0  0
    9.9035  -15.4830   27.7905 C   0  0  0  0  0  0  0  0  0  0  0  0
   10.0925  -16.7364   27.8648 O   0  0  0  0  0  0  0  0  0  0  0  0
   10.3098  -14.7250   28.8687 O   0  0  0  0  0  0  0  0  0  0  0  0
  2  1  1  0
  2  4  1  0
  3  2  2  0
  5  4  1  0
  5  6  1  6
  7  9  1  0
  7  5  1  0
  8  7  2  0
 10  9  1  0
 10 11  1  1
 12 16  1  0
 12 11  1  0
 13 12  2  0
 14 15  2  0
 14 10  1  0
 17 18  1  0
 18 19  2  0
 20 18  1  0
 20 21  1  0
 22 21  1  1
 22 23  1  0
 23 14  1  0
 24 22  1  0
 25 24  2  0
 26 24  1  0
M  END
$$$$
