NDQ.pdb
     RDKit          3D

 26 25  0  0  1  0  0  0  0  0999 V2000
    6.8841  -12.4223   18.8686 N   0  0  0  0  0  0  0  0  0  0  0  0
    7.9741  -13.2980   19.1307 C   0  0  0  0  0  0  0  0  0  0  0  0
    8.9858  -13.3139   18.3798 O   0  0  0  0  0  0  0  0  0  0  0  0
    7.9498  -14.2076   20.2880 C   0  0  0  0  0  0  0  0  0  0  0  0
    9.3274  -14.7944   20.5524 C   0  0  2  0  0  0  0  0  0  0  0  0
    9.8030  -15.4297   19.3275 N   0  0  0  0  0  0  0  0  0  0  0  0
    9.2199  -15.7915   21.6139 C   0  0  0  0  0  0  0  0  0  0  0  0
    8.5531  -15.5442   22.6633 O   0  0  0  0  0  0  0  0  0  0  0  0
    9.8450  -17.0823   21.5347 N   0  0  0  0  0  0  0  0  0  0  0  0
    9.8104  -17.9683   22.6722 C   0  0  1  0  0  0  0  0  0  0  0  0
   10.3806  -19.3281   22.3029 C   0  0  0  0  0  0  0  0  0  0  0  0
    9.5545  -19.9438   21.2617 C   0  0  0  0  0  0  0  0  0  0  0  0
    8.3131  -20.0345   21.4451 O   0  0  0  0  0  0  0  0  0  0  0  0
   10.5724  -17.4094   23.8485 C   0  0  0  0  0  0  0  0  0  0  0  0
   11.7348  -16.9608   23.6739 O   0  0  0  0  0  0  0  0  0  0  0  0
   10.1120  -20.4204   20.0964 O   0  0  0  0  0  0  0  0  0  0  0  0
    8.6005  -13.6293   27.8461 N   0  0  0  0  0  0  0  0  0  0  0  0
    9.7562  -13.9487   28.6121 C   0  0  0  0  0  0  0  0  0  0  0  0
   10.0578  -13.3798   29.6822 O   0  0  0  0  0  0  0  0  0  0  0  0
   10.6440  -15.0383   28.0717 C   0  0  0  0  0  0  0  0  0  0  0  0
    9.9905  -15.6173   26.8594 C   0  0  0  0  0  0  0  0  0  0  0  0
   10.7590  -16.7407   26.2898 C   0  0  2  0  0  0  0  0  0  0  0  0
   10.0331  -17.3624   25.1597 N   0  0  0  0  0  0  0  0  0  0  0  0
   11.0961  -17.8032   27.2628 C   0  0  0  0  0  0  0  0  0  0  0  0
   10.4526  -18.8978   27.2547 O   0  0  0  0  0  0  0  0  0  0  0  0
   12.0973  -17.6741   28.2027 O   0  0  0  0  0  0  0  0  0  0  0  0
  2  1  1  0
  2  4  1  0
  3  2  2  0
  5  4  1  0
  5  6  1  6
  7  9  1  0
  7  5  1  0
  8  7  2  0
 10  9  1  0
 10 11  1  6
 12 16  1  0
 12 11  1  0
 13 12  2  0
 14 15  2  0
 14 10  1  0
 17 18  1  0
 18 19  2  0
 20 18  1  0
 20 21  1  0
 22 21  1  1
 22 23  1  0
 23 14  1  0
 24 22  1  0
 25 24  2  0
 26 24  1  0
M  END
$$$$
