NDQ.pdb
     RDKit          3D

 26 25  0  0  1  0  0  0  0  0999 V2000
   10.1265  -17.5788   12.7367 N   0  0  0  0  0  0  0  0  0  0  0  0
    9.5002  -16.4627   13.3577 C   0  0  0  0  0  0  0  0  0  0  0  0
    8.8911  -15.5988   12.6720 O   0  0  0  0  0  0  0  0  0  0  0  0
    9.5453  -16.2888   14.8189 C   0  0  0  0  0  0  0  0  0  0  0  0
   10.5093  -17.2755   15.4583 C   0  0  2  0  0  0  0  0  0  0  0  0
   10.0155  -18.6277   15.2177 N   0  0  0  0  0  0  0  0  0  0  0  0
   10.5626  -17.0197   16.8951 C   0  0  0  0  0  0  0  0  0  0  0  0
   11.2156  -16.0325   17.3488 O   0  0  0  0  0  0  0  0  0  0  0  0
    9.8924  -17.8485   17.8579 N   0  0  0  0  0  0  0  0  0  0  0  0
    9.9824  -17.5344   19.2627 C   0  0  1  0  0  0  0  0  0  0  0  0
    9.1137  -18.4815   20.0746 C   0  0  0  0  0  0  0  0  0  0  0  0
    9.2345  -18.1635   21.4994 C   0  0  0  0  0  0  0  0  0  0  0  0
   10.3404  -18.3453   22.0713 O   0  0  0  0  0  0  0  0  0  0  0  0
   11.4026  -17.6014   19.7680 C   0  0  0  0  0  0  0  0  0  0  0  0
   12.0589  -18.6651   19.6247 O   0  0  0  0  0  0  0  0  0  0  0  0
    8.1651  -17.6735   22.2150 O   0  0  0  0  0  0  0  0  0  0  0  0
   16.4725  -14.9417   18.8617 N   0  0  0  0  0  0  0  0  0  0  0  0
   15.3114  -14.1227   18.9370 C   0  0  0  0  0  0  0  0  0  0  0  0
   15.1778  -13.0501   18.3114 O   0  0  0  0  0  0  0  0  0  0  0  0
   14.2013  -14.6064   19.8320 C   0  0  0  0  0  0  0  0  0  0  0  0
   14.4195  -16.0587   20.1063 C   0  0  0  0  0  0  0  0  0  0  0  0
   13.3916  -16.6214   21.0029 C   0  0  2  0  0  0  0  0  0  0  0  0
   12.0432  -16.5069   20.4036 N   0  0  0  0  0  0  0  0  0  0  0  0
   13.3533  -16.0053   22.3476 C   0  0  0  0  0  0  0  0  0  0  0  0
   14.3741  -16.0624   23.1005 O   0  0  0  0  0  0  0  0  0  0  0  0
   12.2455  -15.3517   22.8457 O   0  0  0  0  0  0  0  0  0  0  0  0
  2  1  1  0
  2  4  1  0
  3  2  2  0
  5  4  1  0
  5  6  1  1
  7  9  1  0
  7  5  1  0
  8  7  2  0
 10  9  1  0
 10 11  1  1
 12 16  1  0
 12 11  1  0
 13 12  2  0
 14 15  2  0
 14 10  1  0
 17 18  1  0
 18 19  2  0
 20 18  1  0
 20 21  1  0
 22 21  1  6
 22 23  1  0
 23 14  1  0
 24 22  1  0
 25 24  2  0
 26 24  1  0
M  END
$$$$
