NDQ.pdb
     RDKit          3D

 26 25  0  0  1  0  0  0  0  0999 V2000
   11.0939  -17.9304   18.4221 N   0  0  0  0  0  0  0  0  0  0  0  0
    9.8833  -17.2408   18.7093 C   0  0  0  0  0  0  0  0  0  0  0  0
    9.1356  -16.8328   17.7809 O   0  0  0  0  0  0  0  0  0  0  0  0
    9.4709  -16.9875   20.0997 C   0  0  0  0  0  0  0  0  0  0  0  0
   10.5788  -17.3531   21.0747 C   0  0  2  0  0  0  0  0  0  0  0  0
   11.2078  -18.5888   20.6190 N   0  0  0  0  0  0  0  0  0  0  0  0
    9.9949  -17.5572   22.3976 C   0  0  0  0  0  0  0  0  0  0  0  0
    9.3236  -16.6365   22.9533 O   0  0  0  0  0  0  0  0  0  0  0  0
   10.1391  -18.7841   23.1306 N   0  0  0  0  0  0  0  0  0  0  0  0
    9.7018  -18.8567   24.5030 C   0  0  1  0  0  0  0  0  0  0  0  0
    9.5443  -20.3060   24.9335 C   0  0  0  0  0  0  0  0  0  0  0  0
    9.0214  -20.3612   26.3006 C   0  0  0  0  0  0  0  0  0  0  0  0
    9.7548  -20.8205   27.2140 O   0  0  0  0  0  0  0  0  0  0  0  0
   10.6568  -18.1580   25.4393 C   0  0  0  0  0  0  0  0  0  0  0  0
   11.8481  -18.5553   25.5150 O   0  0  0  0  0  0  0  0  0  0  0  0
    7.7507  -19.9218   26.5976 O   0  0  0  0  0  0  0  0  0  0  0  0
    9.2616  -13.5006   29.3296 N   0  0  0  0  0  0  0  0  0  0  0  0
    9.0174  -13.4561   27.9286 C   0  0  0  0  0  0  0  0  0  0  0  0
    8.3059  -12.5913   27.3760 O   0  0  0  0  0  0  0  0  0  0  0  0
    9.6685  -14.5285   27.0957 C   0  0  0  0  0  0  0  0  0  0  0  0
   10.5063  -15.3770   27.9958 C   0  0  0  0  0  0  0  0  0  0  0  0
   11.1693  -16.4787   27.2720 C   0  0  2  0  0  0  0  0  0  0  0  0
   10.2715  -17.0579   26.2478 N   0  0  0  0  0  0  0  0  0  0  0  0
   11.6485  -17.5765   28.1405 C   0  0  0  0  0  0  0  0  0  0  0  0
   12.8931  -17.8049   28.2453 O   0  0  0  0  0  0  0  0  0  0  0  0
   10.8013  -18.3878   28.8660 O   0  0  0  0  0  0  0  0  0  0  0  0
  2  1  1  0
  2  4  1  0
  3  2  2  0
  5  4  1  0
  5  6  1  6
  7  9  1  0
  7  5  1  0
  8  7  2  0
 10  9  1  0
 10 11  1  1
 12 16  1  0
 12 11  1  0
 13 12  2  0
 14 15  2  0
 14 10  1  0
 17 18  1  0
 18 19  2  0
 20 18  1  0
 20 21  1  0
 22 21  1  1
 22 23  1  0
 23 14  1  0
 24 22  1  0
 25 24  2  0
 26 24  1  0
M  END
$$$$
