NDQ.pdb
     RDKit          3D

 26 25  0  0  1  0  0  0  0  0999 V2000
    7.2674  -12.4396   17.8652 N   0  0  0  0  0  0  0  0  0  0  0  0
    7.5025  -13.8391   17.9647 C   0  0  0  0  0  0  0  0  0  0  0  0
    7.7683  -14.5246   16.9415 O   0  0  0  0  0  0  0  0  0  0  0  0
    7.4435  -14.5233   19.2670 C   0  0  0  0  0  0  0  0  0  0  0  0
    8.6494  -14.1733   20.1245 C   0  0  2  0  0  0  0  0  0  0  0  0
    9.8492  -14.2731   19.2995 N   0  0  0  0  0  0  0  0  0  0  0  0
    8.7330  -15.1225   21.2312 C   0  0  0  0  0  0  0  0  0  0  0  0
    7.7528  -15.2791   22.0196 O   0  0  0  0  0  0  0  0  0  0  0  0
    9.9008  -15.9192   21.4858 N   0  0  0  0  0  0  0  0  0  0  0  0
    9.9987  -16.6805   22.7069 C   0  0  1  0  0  0  0  0  0  0  0  0
   11.1227  -17.6991   22.6080 C   0  0  0  0  0  0  0  0  0  0  0  0
   10.9027  -18.5664   21.4483 C   0  0  0  0  0  0  0  0  0  0  0  0
   11.6860  -18.4804   20.4675 O   0  0  0  0  0  0  0  0  0  0  0  0
   10.2290  -15.7969   23.9081 C   0  0  0  0  0  0  0  0  0  0  0  0
   10.7044  -14.6437   23.7437 O   0  0  0  0  0  0  0  0  0  0  0  0
    9.8606  -19.4658   21.4165 O   0  0  0  0  0  0  0  0  0  0  0  0
    6.5856  -12.7457   25.0889 N   0  0  0  0  0  0  0  0  0  0  0  0
    6.9714  -12.5392   26.4427 C   0  0  0  0  0  0  0  0  0  0  0  0
    6.4699  -11.6656   27.1810 O   0  0  0  0  0  0  0  0  0  0  0  0
    8.0489  -13.4419   26.9826 C   0  0  0  0  0  0  0  0  0  0  0  0
    8.4928  -14.3512   25.8834 C   0  0  0  0  0  0  0  0  0  0  0  0
    9.5921  -15.2423   26.3015 C   0  0  2  0  0  0  0  0  0  0  0  0
    9.9290  -16.2084   25.2321 N   0  0  0  0  0  0  0  0  0  0  0  0
    9.3217  -16.0021   27.5421 C   0  0  0  0  0  0  0  0  0  0  0  0
    9.5010  -15.4537   28.6732 O   0  0  0  0  0  0  0  0  0  0  0  0
    8.8713  -17.3057   27.5442 O   0  0  0  0  0  0  0  0  0  0  0  0
  2  1  1  0
  2  4  1  0
  3  2  2  0
  5  4  1  0
  5  6  1  6
  7  9  1  0
  7  5  1  0
  8  7  2  0
 10  9  1  0
 10 11  1  6
 12 16  1  0
 12 11  1  0
 13 12  2  0
 14 15  2  0
 14 10  1  0
 17 18  1  0
 18 19  2  0
 20 18  1  0
 20 21  1  0
 22 21  1  6
 22 23  1  0
 23 14  1  0
 24 22  1  0
 25 24  2  0
 26 24  1  0
M  END
$$$$
