NDQ.pdb
     RDKit          3D

 26 25  0  0  1  0  0  0  0  0999 V2000
    7.4945  -12.1034   17.7088 N   0  0  0  0  0  0  0  0  0  0  0  0
    8.1277  -13.2716   18.2165 C   0  0  0  0  0  0  0  0  0  0  0  0
    8.9265  -13.9359   17.5037 O   0  0  0  0  0  0  0  0  0  0  0  0
    7.8678  -13.7344   19.5897 C   0  0  0  0  0  0  0  0  0  0  0  0
    8.6933  -14.9685   19.9172 C   0  0  2  0  0  0  0  0  0  0  0  0
    8.3695  -16.0125   18.9499 N   0  0  0  0  0  0  0  0  0  0  0  0
    8.3517  -15.4216   21.2628 C   0  0  0  0  0  0  0  0  0  0  0  0
    7.4429  -14.8379   21.9265 O   0  0  0  0  0  0  0  0  0  0  0  0
    9.0058  -16.5306   21.8995 N   0  0  0  0  0  0  0  0  0  0  0  0
    8.5376  -17.0023   23.1795 C   0  0  1  0  0  0  0  0  0  0  0  0
    8.9865  -18.4357   23.4130 C   0  0  0  0  0  0  0  0  0  0  0  0
    8.3341  -18.9687   24.6113 C   0  0  0  0  0  0  0  0  0  0  0  0
    7.2634  -18.4392   25.0070 O   0  0  0  0  0  0  0  0  0  0  0  0
    9.0234  -16.1351   24.3147 C   0  0  0  0  0  0  0  0  0  0  0  0
   10.2600  -16.0057   24.5069 O   0  0  0  0  0  0  0  0  0  0  0  0
    8.8707  -20.0305   25.3043 O   0  0  0  0  0  0  0  0  0  0  0  0
    5.5904  -12.2576   27.5473 N   0  0  0  0  0  0  0  0  0  0  0  0
    6.4071  -11.7028   26.5228 C   0  0  0  0  0  0  0  0  0  0  0  0
    6.2016  -10.5873   26.0002 O   0  0  0  0  0  0  0  0  0  0  0  0
    7.5758  -12.5354   26.0663 C   0  0  0  0  0  0  0  0  0  0  0  0
    7.6104  -13.7839   26.8861 C   0  0  0  0  0  0  0  0  0  0  0  0
    8.6173  -14.7468   26.4002 C   0  0  2  0  0  0  0  0  0  0  0  0
    8.1408  -15.4472   25.1866 N   0  0  0  0  0  0  0  0  0  0  0  0
    9.0150  -15.7664   27.3960 C   0  0  0  0  0  0  0  0  0  0  0  0
    9.5708  -15.4104   28.4807 O   0  0  0  0  0  0  0  0  0  0  0  0
    8.8102  -17.1180   27.2134 O   0  0  0  0  0  0  0  0  0  0  0  0
  2  1  1  0
  2  4  1  0
  3  2  2  0
  5  4  1  0
  5  6  1  6
  7  9  1  0
  7  5  1  0
  8  7  2  0
 10  9  1  0
 10 11  1  1
 12 16  1  0
 12 11  1  0
 13 12  2  0
 14 15  2  0
 14 10  1  0
 17 18  1  0
 18 19  2  0
 20 18  1  0
 20 21  1  0
 22 21  1  1
 22 23  1  0
 23 14  1  0
 24 22  1  0
 25 24  2  0
 26 24  1  0
M  END
$$$$
