NDQ.pdb
     RDKit          3D

 26 25  0  0  1  0  0  0  0  0999 V2000
    9.5214  -13.6211   17.4377 N   0  0  0  0  0  0  0  0  0  0  0  0
    8.1157  -13.8175   17.5333 C   0  0  0  0  0  0  0  0  0  0  0  0
    7.4333  -14.1126   16.5161 O   0  0  0  0  0  0  0  0  0  0  0  0
    7.4212  -13.6830   18.8244 C   0  0  0  0  0  0  0  0  0  0  0  0
    8.4003  -13.3592   19.9417 C   0  0  2  0  0  0  0  0  0  0  0  0
    9.7388  -13.2558   19.3692 N   0  0  0  0  0  0  0  0  0  0  0  0
    8.3679  -14.4383   20.9252 C   0  0  0  0  0  0  0  0  0  0  0  0
    7.3153  -14.6685   21.5929 O   0  0  0  0  0  0  0  0  0  0  0  0
    9.4976  -15.2859   21.1872 N   0  0  0  0  0  0  0  0  0  0  0  0
    9.4947  -16.1503   22.3417 C   0  0  1  0  0  0  0  0  0  0  0  0
   10.3892  -17.3560   22.1037 C   0  0  0  0  0  0  0  0  0  0  0  0
   10.7610  -17.4235   20.6885 C   0  0  0  0  0  0  0  0  0  0  0  0
    9.8499  -17.4835   19.8228 O   0  0  0  0  0  0  0  0  0  0  0  0
    9.9466  -15.4309   23.5887 C   0  0  0  0  0  0  0  0  0  0  0  0
   10.4790  -14.2956   23.4874 O   0  0  0  0  0  0  0  0  0  0  0  0
   12.0807  -17.4225   20.2958 O   0  0  0  0  0  0  0  0  0  0  0  0
    6.0506  -13.0088   25.5795 N   0  0  0  0  0  0  0  0  0  0  0  0
    6.7846  -12.6359   26.7399 C   0  0  0  0  0  0  0  0  0  0  0  0
    6.4651  -11.6879   27.4875 O   0  0  0  0  0  0  0  0  0  0  0  0
    8.0111  -13.4513   27.0536 C   0  0  0  0  0  0  0  0  0  0  0  0
    8.3097  -14.3207   25.8759 C   0  0  0  0  0  0  0  0  0  0  0  0
    9.5230  -15.1368   26.0738 C   0  0  2  0  0  0  0  0  0  0  0  0
    9.7959  -15.9796   24.8882 N   0  0  0  0  0  0  0  0  0  0  0  0
    9.4790  -16.0144   27.2643 C   0  0  0  0  0  0  0  0  0  0  0  0
    8.9259  -17.1549   27.1911 O   0  0  0  0  0  0  0  0  0  0  0  0
   10.0204  -15.6597   28.4822 O   0  0  0  0  0  0  0  0  0  0  0  0
  2  1  1  0
  2  4  1  0
  3  2  2  0
  5  4  1  0
  5  6  1  6
  7  9  1  0
  7  5  1  0
  8  7  2  0
 10  9  1  0
 10 11  1  6
 12 16  1  0
 12 11  1  0
 13 12  2  0
 14 15  2  0
 14 10  1  0
 17 18  1  0
 18 19  2  0
 20 18  1  0
 20 21  1  0
 22 21  1  6
 22 23  1  0
 23 14  1  0
 24 22  1  0
 25 24  2  0
 26 24  1  0
M  END
$$$$
