AHQ.pdb
     RDKit          3D

 25 25  0  0  1  0  0  0  0  0999 V2000
   25.7215  -15.5477  -14.7667 C   0  0  0  0  0  0  0  0  0  0  0  0
   24.5806  -15.8784  -15.7219 C   0  0  2  0  0  0  0  0  0  0  0  0
   25.0518  -16.4900  -16.9293 N   0  0  0  0  0  0  0  0  0  0  0  0
   23.8142  -14.6204  -15.9961 C   0  0  0  0  0  0  0  0  0  0  0  0
   24.3232  -13.8014  -16.8045 O   0  0  0  0  0  0  0  0  0  0  0  0
   22.5704  -14.3702  -15.3685 N   0  0  0  0  0  0  0  0  0  0  0  0
   21.8052  -13.1977  -15.7319 C   0  0  1  0  0  0  0  0  0  0  0  0
   20.3695  -13.4722  -15.3982 C   0  0  0  0  0  0  0  0  0  0  0  0
   19.4565  -12.3373  -15.6816 C   0  0  0  0  0  0  0  0  0  0  0  0
   18.8738  -11.4295  -14.8248 C   0  0  0  0  0  0  0  0  0  0  0  0
   18.1019  -10.5567  -15.5256 N   0  0  0  0  0  0  0  0  0  0  0  0
   18.2022  -10.9169  -16.8076 C   0  0  0  0  0  0  0  0  0  0  0  0
   19.0139  -11.9881  -16.9240 N   0  0  0  0  0  0  0  0  0  0  0  0
   22.3213  -11.9778  -15.0510 C   0  0  0  0  0  0  0  0  0  0  0  0
   22.6560  -12.0778  -13.8540 O   0  0  0  0  0  0  0  0  0  0  0  0
   26.4822   -8.3580  -17.0263 N   0  0  0  0  0  0  0  0  0  0  0  0
   26.5585   -9.4846  -16.1907 C   0  0  0  0  0  0  0  0  0  0  0  0
   27.5937  -10.1652  -16.0570 O   0  0  0  0  0  0  0  0  0  0  0  0
   25.3471   -9.9092  -15.4102 C   0  0  0  0  0  0  0  0  0  0  0  0
   24.1782   -9.0163  -15.7029 C   0  0  0  0  0  0  0  0  0  0  0  0
   22.9253   -9.5102  -15.0243 C   0  0  2  0  0  0  0  0  0  0  0  0
   22.4503  -10.7306  -15.6802 N   0  0  0  0  0  0  0  0  0  0  0  0
   21.8487   -8.5091  -15.0830 C   0  0  0  0  0  0  0  0  0  0  0  0
   21.9086   -7.4287  -14.1837 O   0  0  0  0  0  0  0  0  0  0  0  0
   20.8697   -8.5026  -15.8491 O   0  0  0  0  0  0  0  0  0  0  0  0
  2  3  1  0
  2  1  1  1
  4  2  1  0
  5  4  2  0
  6  4  1  0
  7  6  1  0
  8  9  1  0
  7  8  1  1
  9 10  2  0
 11 10  1  0
 12 11  1  0
 13 12  2  0
 13  9  1  0
 14  7  1  0
 14 15  2  0
 16 17  1  0
 17 18  2  0
 17 19  1  0
 19 20  1  0
 21 20  1  6
 21 22  1  0
 22 14  1  0
 23 21  1  0
 24 23  1  0
 25 23  2  0
M  END
$$$$
