AHQ.pdb
     RDKit          3D

 25 25  0  0  1  0  0  0  0  0999 V2000
   30.0110   -8.1632  -17.8116 C   0  0  0  0  0  0  0  0  0  0  0  0
   29.6926   -9.6502  -17.9151 C   0  0  2  0  0  0  0  0  0  0  0  0
   30.3642  -10.2672  -19.0207 N   0  0  0  0  0  0  0  0  0  0  0  0
   28.2055   -9.8097  -18.0064 C   0  0  0  0  0  0  0  0  0  0  0  0
   27.6184   -9.2052  -18.9409 O   0  0  0  0  0  0  0  0  0  0  0  0
   27.4972  -10.6085  -17.0770 N   0  0  0  0  0  0  0  0  0  0  0  0
   26.0724  -10.8021  -17.2349 C   0  0  1  0  0  0  0  0  0  0  0  0
   25.7426  -12.1742  -16.7285 C   0  0  0  0  0  0  0  0  0  0  0  0
   24.3021  -12.5194  -16.8155 C   0  0  0  0  0  0  0  0  0  0  0  0
   23.2325  -11.7683  -17.2507 C   0  0  0  0  0  0  0  0  0  0  0  0
   22.0850  -12.4910  -17.1520 N   0  0  0  0  0  0  0  0  0  0  0  0
   22.4358  -13.6818  -16.6597 C   0  0  0  0  0  0  0  0  0  0  0  0
   23.7677  -13.7203  -16.4496 N   0  0  0  0  0  0  0  0  0  0  0  0
   25.2976   -9.7393  -16.5359 C   0  0  0  0  0  0  0  0  0  0  0  0
   25.6986   -9.3700  -15.4145 O   0  0  0  0  0  0  0  0  0  0  0  0
   22.0201   -5.2976  -19.4290 N   0  0  0  0  0  0  0  0  0  0  0  0
   21.8054   -4.9446  -18.0864 C   0  0  0  0  0  0  0  0  0  0  0  0
   21.2450   -3.8866  -17.7411 O   0  0  0  0  0  0  0  0  0  0  0  0
   22.2644   -5.8708  -16.9963 C   0  0  0  0  0  0  0  0  0  0  0  0
   22.9713   -7.0644  -17.5662 C   0  0  0  0  0  0  0  0  0  0  0  0
   23.4599   -7.9861  -16.4774 C   0  0  2  0  0  0  0  0  0  0  0  0
   24.1485   -9.1358  -17.0682 N   0  0  0  0  0  0  0  0  0  0  0  0
   22.3475   -8.4898  -15.6566 C   0  0  0  0  0  0  0  0  0  0  0  0
   21.9580   -7.7263  -14.5410 O   0  0  0  0  0  0  0  0  0  0  0  0
   21.6952   -9.5332  -15.8341 O   0  0  0  0  0  0  0  0  0  0  0  0
  2  3  1  0
  2  1  1  6
  4  2  1  0
  5  4  2  0
  6  4  1  0
  7  6  1  0
  8  9  1  0
  7  8  1  1
  9 10  2  0
 11 10  1  0
 12 11  1  0
 13 12  2  0
 13  9  1  0
 14  7  1  0
 14 15  2  0
 16 17  1  0
 17 18  2  0
 17 19  1  0
 19 20  1  0
 21 20  1  6
 21 22  1  0
 22 14  1  0
 23 21  1  0
 24 23  1  0
 25 23  2  0
M  END
$$$$
