AHQ.pdb
     RDKit          3D

 25 25  0  0  1  0  0  0  0  0999 V2000
   19.0809  -21.1496  -14.8003 C   0  0  0  0  0  0  0  0  0  0  0  0
   20.1231  -21.4799  -13.7383 C   0  0  2  0  0  0  0  0  0  0  0  0
   19.5793  -21.4143  -12.4139 N   0  0  0  0  0  0  0  0  0  0  0  0
   21.2849  -20.5495  -13.9110 C   0  0  0  0  0  0  0  0  0  0  0  0
   21.0862  -19.3304  -13.6710 O   0  0  0  0  0  0  0  0  0  0  0  0
   22.5502  -21.0288  -14.3269 N   0  0  0  0  0  0  0  0  0  0  0  0
   23.6252  -20.0942  -14.5787 C   0  0  1  0  0  0  0  0  0  0  0  0
   24.9154  -20.8528  -14.4892 C   0  0  0  0  0  0  0  0  0  0  0  0
   26.1213  -20.0232  -14.7327 C   0  0  0  0  0  0  0  0  0  0  0  0
   26.2315  -18.6924  -15.0716 C   0  0  0  0  0  0  0  0  0  0  0  0
   27.5415  -18.3509  -15.1981 N   0  0  0  0  0  0  0  0  0  0  0  0
   28.2418  -19.4585  -14.9406 C   0  0  0  0  0  0  0  0  0  0  0  0
   27.4053  -20.4783  -14.6577 N   0  0  0  0  0  0  0  0  0  0  0  0
   23.4586  -19.4138  -15.8931 C   0  0  0  0  0  0  0  0  0  0  0  0
   22.6890  -19.9351  -16.7241 O   0  0  0  0  0  0  0  0  0  0  0  0
   20.3314  -15.3842  -17.9593 N   0  0  0  0  0  0  0  0  0  0  0  0
   21.2369  -14.9043  -16.9986 C   0  0  0  0  0  0  0  0  0  0  0  0
   21.0477  -13.8603  -16.3451 O   0  0  0  0  0  0  0  0  0  0  0  0
   22.5015  -15.6688  -16.7281 C   0  0  0  0  0  0  0  0  0  0  0  0
   22.5825  -16.8961  -17.5862 C   0  0  0  0  0  0  0  0  0  0  0  0
   23.9515  -17.5249  -17.5190 C   0  0  2  0  0  0  0  0  0  0  0  0
   24.1170  -18.2256  -16.2436 N   0  0  0  0  0  0  0  0  0  0  0  0
   25.0157  -16.5150  -17.6292 C   0  0  0  0  0  0  0  0  0  0  0  0
   25.3298  -16.0310  -18.9123 O   0  0  0  0  0  0  0  0  0  0  0  0
   25.6866  -16.0265  -16.7035 O   0  0  0  0  0  0  0  0  0  0  0  0
  2  3  1  0
  2  1  1  6
  4  2  1  0
  5  4  2  0
  6  4  1  0
  7  6  1  0
  8  9  1  0
  7  8  1  6
  9 10  2  0
 11 10  1  0
 12 11  1  0
 13 12  2  0
 13  9  1  0
 14  7  1  0
 14 15  2  0
 16 17  1  0
 17 18  2  0
 17 19  1  0
 19 20  1  0
 21 20  1  1
 21 22  1  0
 22 14  1  0
 23 21  1  0
 24 23  1  0
 25 23  2  0
M  END
$$$$
