AHQ.pdb
     RDKit          3D

 25 25  0  0  1  0  0  0  0  0999 V2000
   21.1506  -13.1222  -19.4329 C   0  0  0  0  0  0  0  0  0  0  0  0
   21.6044  -12.1227  -18.3752 C   0  0  2  0  0  0  0  0  0  0  0  0
   21.9779  -12.7687  -17.1516 N   0  0  0  0  0  0  0  0  0  0  0  0
   20.5065  -11.1246  -18.1665 C   0  0  0  0  0  0  0  0  0  0  0  0
   20.2076  -10.3861  -19.1405 O   0  0  0  0  0  0  0  0  0  0  0  0
   19.8379  -11.0221  -16.9231 N   0  0  0  0  0  0  0  0  0  0  0  0
   18.8987   -9.9450  -16.6989 C   0  0  1  0  0  0  0  0  0  0  0  0
   17.5925  -10.5595  -16.2938 C   0  0  0  0  0  0  0  0  0  0  0  0
   16.5629   -9.5729  -15.8837 C   0  0  0  0  0  0  0  0  0  0  0  0
   16.1339   -9.2057  -14.6272 C   0  0  0  0  0  0  0  0  0  0  0  0
   15.1623   -8.2594  -14.7248 N   0  0  0  0  0  0  0  0  0  0  0  0
   14.9870   -8.0387  -16.0302 C   0  0  0  0  0  0  0  0  0  0  0  0
   15.8213   -8.8200  -16.7467 N   0  0  0  0  0  0  0  0  0  0  0  0
   19.4087   -8.9799  -15.6856 C   0  0  0  0  0  0  0  0  0  0  0  0
   20.1879   -9.4110  -14.8128 O   0  0  0  0  0  0  0  0  0  0  0  0
   23.8556   -6.3071  -16.0119 N   0  0  0  0  0  0  0  0  0  0  0  0
   23.4201   -5.4717  -14.9700 C   0  0  0  0  0  0  0  0  0  0  0  0
   24.1657   -4.6575  -14.3923 O   0  0  0  0  0  0  0  0  0  0  0  0
   21.9910   -5.5447  -14.5125 C   0  0  0  0  0  0  0  0  0  0  0  0
   21.2179   -6.5449  -15.3195 C   0  0  0  0  0  0  0  0  0  0  0  0
   19.7711   -6.5921  -14.8972 C   0  0  2  0  0  0  0  0  0  0  0  0
   19.0614   -7.6209  -15.6608 N   0  0  0  0  0  0  0  0  0  0  0  0
   19.0987   -5.3039  -15.1280 C   0  0  0  0  0  0  0  0  0  0  0  0
   19.1191   -4.3580  -14.0867 O   0  0  0  0  0  0  0  0  0  0  0  0
   18.5007   -4.9421  -16.1562 O   0  0  0  0  0  0  0  0  0  0  0  0
  2  3  1  0
  2  1  1  6
  4  2  1  0
  5  4  2  0
  6  4  1  0
  7  6  1  0
  8  9  1  0
  7  8  1  1
  9 10  2  0
 11 10  1  0
 12 11  1  0
 13 12  2  0
 13  9  1  0
 14  7  1  0
 14 15  2  0
 16 17  1  0
 17 18  2  0
 17 19  1  0
 19 20  1  0
 21 20  1  6
 21 22  1  0
 22 14  1  0
 23 21  1  0
 24 23  1  0
 25 23  2  0
M  END
$$$$
