AHQ.pdb
     RDKit          3D

 25 25  0  0  1  0  0  0  0  0999 V2000
   26.8509  -18.9037  -18.4303 C   0  0  0  0  0  0  0  0  0  0  0  0
   27.7093  -19.7349  -17.4840 C   0  0  2  0  0  0  0  0  0  0  0  0
   28.3874  -20.7967  -18.1672 N   0  0  0  0  0  0  0  0  0  0  0  0
   26.8345  -20.2500  -16.3818 C   0  0  0  0  0  0  0  0  0  0  0  0
   25.8509  -20.9615  -16.7129 O   0  0  0  0  0  0  0  0  0  0  0  0
   27.1090  -19.9450  -15.0272 N   0  0  0  0  0  0  0  0  0  0  0  0
   26.2027  -20.3919  -13.9921 C   0  0  1  0  0  0  0  0  0  0  0  0
   26.8861  -20.1896  -12.6730 C   0  0  0  0  0  0  0  0  0  0  0  0
   26.0470  -20.5363  -11.4993 C   0  0  0  0  0  0  0  0  0  0  0  0
   24.7545  -21.0090  -11.4388 C   0  0  0  0  0  0  0  0  0  0  0  0
   24.3835  -21.1862  -10.1428 N   0  0  0  0  0  0  0  0  0  0  0  0
   25.4350  -20.8273   -9.4018 C   0  0  0  0  0  0  0  0  0  0  0  0
   26.4486  -20.4322  -10.1996 N   0  0  0  0  0  0  0  0  0  0  0  0
   24.8963  -19.6807  -14.0678 C   0  0  0  0  0  0  0  0  0  0  0  0
   24.9153  -18.4495  -14.2641 O   0  0  0  0  0  0  0  0  0  0  0  0
   22.2292  -20.9209  -18.6723 N   0  0  0  0  0  0  0  0  0  0  0  0
   21.4931  -20.2432  -17.6865 C   0  0  0  0  0  0  0  0  0  0  0  0
   20.6394  -19.3745  -17.9499 O   0  0  0  0  0  0  0  0  0  0  0  0
   21.7281  -20.5636  -16.2377 C   0  0  0  0  0  0  0  0  0  0  0  0
   22.0386  -19.3222  -15.4554 C   0  0  0  0  0  0  0  0  0  0  0  0
   22.3565  -19.6436  -14.0169 C   0  0  2  0  0  0  0  0  0  0  0  0
   23.6539  -20.3177  -13.9309 N   0  0  0  0  0  0  0  0  0  0  0  0
   21.3404  -20.5268  -13.4235 C   0  0  0  0  0  0  0  0  0  0  0  0
   21.7160  -21.8489  -13.1228 O   0  0  0  0  0  0  0  0  0  0  0  0
   20.1624  -20.2390  -13.1495 O   0  0  0  0  0  0  0  0  0  0  0  0
  2  3  1  0
  2  1  1  6
  4  2  1  0
  5  4  2  0
  6  4  1  0
  7  6  1  0
  8  9  1  0
  7  8  1  1
  9 10  2  0
 11 10  1  0
 12 11  1  0
 13 12  2  0
 13  9  1  0
 14  7  1  0
 14 15  2  0
 16 17  1  0
 17 18  2  0
 17 19  1  0
 19 20  1  0
 21 20  1  6
 21 22  1  0
 22 14  1  0
 23 21  1  0
 24 23  1  0
 25 23  2  0
M  END
$$$$
