AHQ.pdb
     RDKit          3D

 25 25  0  0  1  0  0  0  0  0999 V2000
   18.9129  -11.1774  -18.3470 C   0  0  0  0  0  0  0  0  0  0  0  0
   19.9990  -12.2465  -18.3211 C   0  0  2  0  0  0  0  0  0  0  0  0
   19.5439  -13.4592  -17.7075 N   0  0  0  0  0  0  0  0  0  0  0  0
   21.1991  -11.6840  -17.6219 C   0  0  0  0  0  0  0  0  0  0  0  0
   21.0032  -11.0930  -16.5284 O   0  0  0  0  0  0  0  0  0  0  0  0
   22.4956  -11.8155  -18.1742 N   0  0  0  0  0  0  0  0  0  0  0  0
   23.6313  -11.2415  -17.4863 C   0  0  1  0  0  0  0  0  0  0  0  0
   24.8332  -12.0714  -17.8251 C   0  0  0  0  0  0  0  0  0  0  0  0
   26.0882  -11.6053  -17.1851 C   0  0  0  0  0  0  0  0  0  0  0  0
   26.5009  -11.6872  -15.8733 C   0  0  0  0  0  0  0  0  0  0  0  0
   27.7302  -11.1227  -15.7357 N   0  0  0  0  0  0  0  0  0  0  0  0
   28.0808  -10.6926  -16.9505 C   0  0  0  0  0  0  0  0  0  0  0  0
   27.1053  -10.9734  -17.8389 N   0  0  0  0  0  0  0  0  0  0  0  0
   23.8154   -9.8070  -17.8418 C   0  0  0  0  0  0  0  0  0  0  0  0
   23.5872   -9.4660  -19.0193 O   0  0  0  0  0  0  0  0  0  0  0  0
   22.6495   -4.9946  -14.2283 N   0  0  0  0  0  0  0  0  0  0  0  0
   21.7783   -5.5687  -15.1689 C   0  0  0  0  0  0  0  0  0  0  0  0
   20.5454   -5.3883  -15.1550 O   0  0  0  0  0  0  0  0  0  0  0  0
   22.3357   -6.4462  -16.2534 C   0  0  0  0  0  0  0  0  0  0  0  0
   23.8273   -6.5572  -16.1424 C   0  0  0  0  0  0  0  0  0  0  0  0
   24.3995   -7.4065  -17.2493 C   0  0  2  0  0  0  0  0  0  0  0  0
   24.2290   -8.8255  -16.9288 N   0  0  0  0  0  0  0  0  0  0  0  0
   25.8353   -7.1487  -17.4407 C   0  0  0  0  0  0  0  0  0  0  0  0
   26.2082   -5.9355  -18.0478 O   0  0  0  0  0  0  0  0  0  0  0  0
   26.7808   -7.8910  -17.1233 O   0  0  0  0  0  0  0  0  0  0  0  0
  2  3  1  0
  2  1  1  1
  4  2  1  0
  5  4  2  0
  6  4  1  0
  7  6  1  0
  8  9  1  0
  7  8  1  6
  9 10  2  0
 11 10  1  0
 12 11  1  0
 13 12  2  0
 13  9  1  0
 14  7  1  0
 14 15  2  0
 16 17  1  0
 17 18  2  0
 17 19  1  0
 19 20  1  0
 21 20  1  1
 21 22  1  0
 22 14  1  0
 23 21  1  0
 24 23  1  0
 25 23  2  0
M  END
$$$$
