AHQ.pdb
     RDKit          3D

 25 25  0  0  1  0  0  0  0  0999 V2000
   20.4554  -13.3457  -16.8275 C   0  0  0  0  0  0  0  0  0  0  0  0
   19.8910  -12.1302  -17.5537 C   0  0  2  0  0  0  0  0  0  0  0  0
   20.3506  -12.0535  -18.9090 N   0  0  0  0  0  0  0  0  0  0  0  0
   20.2513  -10.9035  -16.7722 C   0  0  0  0  0  0  0  0  0  0  0  0
   19.8920  -10.8631  -15.5670 O   0  0  0  0  0  0  0  0  0  0  0  0
   20.9661   -9.8387  -17.3711 N   0  0  0  0  0  0  0  0  0  0  0  0
   21.3171   -8.6767  -16.5842 C   0  0  1  0  0  0  0  0  0  0  0  0
   22.7884   -8.4429  -16.7526 C   0  0  0  0  0  0  0  0  0  0  0  0
   23.6399   -9.3467  -15.9402 C   0  0  0  0  0  0  0  0  0  0  0  0
   23.2884  -10.3456  -15.0590 C   0  0  0  0  0  0  0  0  0  0  0  0
   24.4046  -10.9172  -14.5335 N   0  0  0  0  0  0  0  0  0  0  0  0
   25.4426  -10.2806  -15.0819 C   0  0  0  0  0  0  0  0  0  0  0  0
   25.0041   -9.3301  -15.9328 N   0  0  0  0  0  0  0  0  0  0  0  0
   20.5070   -7.4895  -16.9748 C   0  0  0  0  0  0  0  0  0  0  0  0
   20.4013   -7.2322  -18.1903 O   0  0  0  0  0  0  0  0  0  0  0  0
   14.9919   -6.2332  -15.5184 N   0  0  0  0  0  0  0  0  0  0  0  0
   15.5555   -6.9544  -16.5840 C   0  0  0  0  0  0  0  0  0  0  0  0
   14.9201   -7.7941  -17.2504 O   0  0  0  0  0  0  0  0  0  0  0  0
   16.9916   -6.7198  -16.9574 C   0  0  0  0  0  0  0  0  0  0  0  0
   17.6212   -5.6973  -16.0588 C   0  0  0  0  0  0  0  0  0  0  0  0
   19.0696   -5.4715  -16.4125 C   0  0  2  0  0  0  0  0  0  0  0  0
   19.8607   -6.6509  -16.0544 N   0  0  0  0  0  0  0  0  0  0  0  0
   19.6257   -4.3118  -15.6979 C   0  0  0  0  0  0  0  0  0  0  0  0
   19.0932   -3.0433  -15.9925 O   0  0  0  0  0  0  0  0  0  0  0  0
   20.5305   -4.3178  -14.8453 O   0  0  0  0  0  0  0  0  0  0  0  0
  2  3  1  0
  2  1  1  1
  4  2  1  0
  5  4  2  0
  6  4  1  0
  7  6  1  0
  8  9  1  0
  7  8  1  6
  9 10  2  0
 11 10  1  0
 12 11  1  0
 13 12  2  0
 13  9  1  0
 14  7  1  0
 14 15  2  0
 16 17  1  0
 17 18  2  0
 17 19  1  0
 19 20  1  0
 21 20  1  1
 21 22  1  0
 22 14  1  0
 23 21  1  0
 24 23  1  0
 25 23  2  0
M  END
$$$$
