AHQ.pdb
     RDKit          3D

 25 25  0  0  1  0  0  0  0  0999 V2000
   28.8473  -22.3511  -16.4550 C   0  0  0  0  0  0  0  0  0  0  0  0
   27.3407  -22.5736  -16.3923 C   0  0  2  0  0  0  0  0  0  0  0  0
   26.7995  -22.9447  -17.6664 N   0  0  0  0  0  0  0  0  0  0  0  0
   26.7013  -21.3292  -15.8557 C   0  0  0  0  0  0  0  0  0  0  0  0
   27.0248  -20.9714  -14.6935 O   0  0  0  0  0  0  0  0  0  0  0  0
   25.7731  -20.5920  -16.6292 N   0  0  0  0  0  0  0  0  0  0  0  0
   25.0486  -19.4937  -16.0280 C   0  0  1  0  0  0  0  0  0  0  0  0
   25.0181  -18.3724  -17.0229 C   0  0  0  0  0  0  0  0  0  0  0  0
   26.2931  -17.6200  -17.1233 C   0  0  0  0  0  0  0  0  0  0  0  0
   27.4658  -17.7590  -16.4140 C   0  0  0  0  0  0  0  0  0  0  0  0
   28.3794  -16.8470  -16.8411 N   0  0  0  0  0  0  0  0  0  0  0  0
   27.7819  -16.1457  -17.8079 C   0  0  0  0  0  0  0  0  0  0  0  0
   26.5237  -16.5952  -17.9940 N   0  0  0  0  0  0  0  0  0  0  0  0
   23.6835  -19.9099  -15.6021 C   0  0  0  0  0  0  0  0  0  0  0  0
   23.0604  -20.6999  -16.3386 O   0  0  0  0  0  0  0  0  0  0  0  0
   21.7745  -20.2990   -9.6871 N   0  0  0  0  0  0  0  0  0  0  0  0
   20.6014  -20.6788  -10.3598 C   0  0  0  0  0  0  0  0  0  0  0  0
   19.6055  -21.1519   -9.7792 O   0  0  0  0  0  0  0  0  0  0  0  0
   20.5191  -20.5167  -11.8511 C   0  0  0  0  0  0  0  0  0  0  0  0
   21.8105  -19.9955  -12.4079 C   0  0  0  0  0  0  0  0  0  0  0  0
   21.7845  -19.9585  -13.9151 C   0  0  2  0  0  0  0  0  0  0  0  0
   23.0654  -19.4635  -14.4245 N   0  0  0  0  0  0  0  0  0  0  0  0
   20.7196  -19.0751  -14.4155 C   0  0  0  0  0  0  0  0  0  0  0  0
   21.0164  -17.7075  -14.5602 O   0  0  0  0  0  0  0  0  0  0  0  0
   19.5621  -19.3990  -14.7331 O   0  0  0  0  0  0  0  0  0  0  0  0
  2  3  1  0
  2  1  1  6
  4  2  1  0
  5  4  2  0
  6  4  1  0
  7  6  1  0
  8  9  1  0
  7  8  1  6
  9 10  2  0
 11 10  1  0
 12 11  1  0
 13 12  2  0
 13  9  1  0
 14  7  1  0
 14 15  2  0
 16 17  1  0
 17 18  2  0
 17 19  1  0
 19 20  1  0
 21 20  1  1
 21 22  1  0
 22 14  1  0
 23 21  1  0
 24 23  1  0
 25 23  2  0
M  END
$$$$
