AHQ.pdb
     RDKit          3D

 25 25  0  0  1  0  0  0  0  0999 V2000
   26.0609  -18.6098  -16.5842 C   0  0  0  0  0  0  0  0  0  0  0  0
   25.3475  -19.9483  -16.4337 C   0  0  2  0  0  0  0  0  0  0  0  0
   24.7770  -20.3946  -17.6704 N   0  0  0  0  0  0  0  0  0  0  0  0
   24.3126  -19.8137  -15.3584 C   0  0  0  0  0  0  0  0  0  0  0  0
   24.7165  -19.5106  -14.2059 O   0  0  0  0  0  0  0  0  0  0  0  0
   22.9398  -20.0204  -15.6347 N   0  0  0  0  0  0  0  0  0  0  0  0
   21.9542  -19.7696  -14.6060 C   0  0  1  0  0  0  0  0  0  0  0  0
   21.4250  -18.3823  -14.8140 C   0  0  0  0  0  0  0  0  0  0  0  0
   20.3584  -17.9937  -13.8583 C   0  0  0  0  0  0  0  0  0  0  0  0
   19.8580  -18.6640  -12.7637 C   0  0  0  0  0  0  0  0  0  0  0  0
   18.8767  -17.9288  -12.1760 N   0  0  0  0  0  0  0  0  0  0  0  0
   18.7661  -16.8105  -12.8975 C   0  0  0  0  0  0  0  0  0  0  0  0
   19.6501  -16.8291  -13.9164 N   0  0  0  0  0  0  0  0  0  0  0  0
   20.8749  -20.7958  -14.6240 C   0  0  0  0  0  0  0  0  0  0  0  0
   20.4349  -21.1572  -15.7333 O   0  0  0  0  0  0  0  0  0  0  0  0
   19.4646  -24.4941   -9.7719 N   0  0  0  0  0  0  0  0  0  0  0  0
   18.8585  -23.2270   -9.7566 C   0  0  0  0  0  0  0  0  0  0  0  0
   18.3788  -22.7132   -8.7277 O   0  0  0  0  0  0  0  0  0  0  0  0
   18.7723  -22.4335  -11.0294 C   0  0  0  0  0  0  0  0  0  0  0  0
   19.3587  -23.1964  -12.1799 C   0  0  0  0  0  0  0  0  0  0  0  0
   19.2879  -22.4021  -13.4597 C   0  0  2  0  0  0  0  0  0  0  0  0
   20.3305  -21.3735  -13.4673 N   0  0  0  0  0  0  0  0  0  0  0  0
   17.9848  -21.7357  -13.6105 C   0  0  0  0  0  0  0  0  0  0  0  0
   16.9166  -22.4934  -14.1245 O   0  0  0  0  0  0  0  0  0  0  0  0
   17.7075  -20.5562  -13.3320 O   0  0  0  0  0  0  0  0  0  0  0  0
  2  3  1  0
  2  1  1  6
  4  2  1  0
  5  4  2  0
  6  4  1  0
  7  6  1  0
  8  9  1  0
  7  8  1  6
  9 10  2  0
 11 10  1  0
 12 11  1  0
 13 12  2  0
 13  9  1  0
 14  7  1  0
 14 15  2  0
 16 17  1  0
 17 18  2  0
 17 19  1  0
 19 20  1  0
 21 20  1  1
 21 22  1  0
 22 14  1  0
 23 21  1  0
 24 23  1  0
 25 23  2  0
M  END
$$$$
