AHQ.pdb
     RDKit          3D

 25 25  0  0  1  0  0  0  0  0999 V2000
   26.8041  -10.9652  -15.9434 C   0  0  0  0  0  0  0  0  0  0  0  0
   25.4663  -11.6881  -15.8377 C   0  0  2  0  0  0  0  0  0  0  0  0
   25.4454  -12.8944  -16.6112 N   0  0  0  0  0  0  0  0  0  0  0  0
   24.3829  -10.7400  -16.2534 C   0  0  0  0  0  0  0  0  0  0  0  0
   24.3231  -10.4338  -17.4724 O   0  0  0  0  0  0  0  0  0  0  0  0
   23.4686  -10.2149  -15.3091 N   0  0  0  0  0  0  0  0  0  0  0  0
   22.4057   -9.3377  -15.7490 C   0  0  1  0  0  0  0  0  0  0  0  0
   21.1044   -9.9701  -15.3559 C   0  0  0  0  0  0  0  0  0  0  0  0
   20.6625  -11.0566  -16.2649 C   0  0  0  0  0  0  0  0  0  0  0  0
   19.8968  -11.0025  -17.4088 C   0  0  0  0  0  0  0  0  0  0  0  0
   19.7373  -12.2515  -17.9220 N   0  0  0  0  0  0  0  0  0  0  0  0
   20.3975  -13.0768  -17.1057 C   0  0  0  0  0  0  0  0  0  0  0  0
   20.9626  -12.3773  -16.1002 N   0  0  0  0  0  0  0  0  0  0  0  0
   22.5622   -7.9677  -15.1862 C   0  0  0  0  0  0  0  0  0  0  0  0
   22.9107   -7.8656  -13.9934 O   0  0  0  0  0  0  0  0  0  0  0  0
   21.6746   -2.4762  -18.3191 N   0  0  0  0  0  0  0  0  0  0  0  0
   21.8568   -2.0300  -16.9997 C   0  0  0  0  0  0  0  0  0  0  0  0
   21.7899   -0.8301  -16.6705 O   0  0  0  0  0  0  0  0  0  0  0  0
   22.1473   -3.0285  -15.9154 C   0  0  0  0  0  0  0  0  0  0  0  0
   22.1345   -4.4278  -16.4548 C   0  0  0  0  0  0  0  0  0  0  0  0
   22.3770   -5.4401  -15.3638 C   0  0  2  0  0  0  0  0  0  0  0  0
   22.3398   -6.7939  -15.9216 N   0  0  0  0  0  0  0  0  0  0  0  0
   21.3566   -5.3509  -14.3076 C   0  0  0  0  0  0  0  0  0  0  0  0
   21.6706   -4.6097  -13.1538 O   0  0  0  0  0  0  0  0  0  0  0  0
   20.2240   -5.8636  -14.3119 O   0  0  0  0  0  0  0  0  0  0  0  0
  2  3  1  0
  2  1  1  6
  4  2  1  0
  5  4  2  0
  6  4  1  0
  7  6  1  0
  8  9  1  0
  7  8  1  1
  9 10  2  0
 11 10  1  0
 12 11  1  0
 13 12  2  0
 13  9  1  0
 14  7  1  0
 14 15  2  0
 16 17  1  0
 17 18  2  0
 17 19  1  0
 19 20  1  0
 21 20  1  6
 21 22  1  0
 22 14  1  0
 23 21  1  0
 24 23  1  0
 25 23  2  0
M  END
$$$$
