CSW.pdb
     RDKit          3D

 27 28  0  0  1  0  0  0  0  0999 V2000
   29.5107  -21.6560  -19.3379 N   0  0  0  0  0  0  0  0  0  0  0  0
   28.1890  -22.1047  -19.0032 C   0  0  1  0  0  0  0  0  0  0  0  0
   28.3036  -23.4942  -18.3651 C   0  0  0  0  0  0  0  0  0  0  0  0
   28.2316  -23.3101  -16.5562 S   0  0  0  0  0  0  0  0  0  0  0  0
   27.5492  -21.1759  -18.0414 C   0  0  0  0  0  0  0  0  0  0  0  0
   28.1530  -20.0872  -17.7724 O   0  0  0  0  0  0  0  0  0  0  0  0
   24.4132  -19.6953  -18.6556 O   0  0  0  0  0  0  0  0  0  0  0  0
   25.3406  -19.2446  -17.7446 C   0  0  0  0  0  0  0  0  0  0  0  0
   25.6190  -20.3428  -16.7428 C   0  0  2  0  0  0  0  0  0  0  0  0
   26.3067  -21.4343  -17.4081 N   0  0  0  0  0  0  0  0  0  0  0  0
   24.3255  -20.7839  -16.1407 C   0  0  0  0  0  0  0  0  0  0  0  0
   23.8969  -21.9534  -16.3302 O   0  0  0  0  0  0  0  0  0  0  0  0
   23.5844  -19.8918  -15.3609 N   0  0  0  0  0  0  0  0  0  0  0  0
   22.7203  -20.3596  -14.2613 C   0  0  1  0  0  0  0  0  0  0  0  0
   23.5432  -21.1789  -13.3414 C   0  0  0  0  0  0  0  0  0  0  0  0
   23.2951  -20.9866  -11.9193 C   0  0  0  0  0  0  0  0  0  0  0  0
   22.0520  -20.9098  -11.2988 C   0  0  0  0  0  0  0  0  0  0  0  0
   22.2329  -20.6972   -9.9961 N   0  0  0  0  0  0  0  0  0  0  0  0
   23.5400  -20.6321   -9.7356 C   0  0  0  0  0  0  0  0  0  0  0  0
   24.2033  -20.4409   -8.5183 C   0  0  0  0  0  0  0  0  0  0  0  0
   25.5618  -20.4294   -8.4901 C   0  0  0  0  0  0  0  0  0  0  0  0
   26.2633  -20.6072   -9.6674 C   0  0  0  0  0  0  0  0  0  0  0  0
   25.6274  -20.7959  -10.8722 C   0  0  0  0  0  0  0  0  0  0  0  0
   24.2302  -20.8091  -10.9143 C   0  0  0  0  0  0  0  0  0  0  0  0
   21.9782  -19.2462  -13.6840 C   0  0  0  0  0  0  0  0  0  0  0  0
   20.8151  -19.3152  -13.2302 O   0  0  0  0  0  0  0  0  0  0  0  0
   22.5985  -17.9862  -13.6224 O   0  0  0  0  0  0  0  0  0  0  0  0
  2  1  1  1
  3  2  1  0
  3  4  1  0
  5  6  2  0
  5  2  1  0
  7  8  1  0
  9  8  1  6
  9 10  1  0
 10  5  1  0
 11 13  1  0
 11  9  1  0
 12 11  2  0
 14 13  1  0
 14 25  1  0
 14 15  1  1
 16 24  1  0
 16 15  1  0
 17 16  2  0
 18 17  1  0
 18 19  1  0
 19 24  2  0
 20 19  1  0
 20 21  2  0
 21 22  1  0
 22 23  2  0
 24 23  1  0
 25 27  1  0
 26 25  2  0
M  END
$$$$
