CSW.pdb
     RDKit          3D

 27 28  0  0  1  0  0  0  0  0999 V2000
   28.8449  -21.5534  -12.6581 N   0  0  0  0  0  0  0  0  0  0  0  0
   27.9330  -20.6545  -12.0094 C   0  0  1  0  0  0  0  0  0  0  0  0
   27.9657  -19.3174  -12.7592 C   0  0  0  0  0  0  0  0  0  0  0  0
   29.5874  -18.5383  -12.4864 S   0  0  0  0  0  0  0  0  0  0  0  0
   26.5542  -21.1976  -12.0375 C   0  0  0  0  0  0  0  0  0  0  0  0
   26.2902  -22.1105  -12.8856 O   0  0  0  0  0  0  0  0  0  0  0  0
   23.3659  -19.6855   -9.7940 O   0  0  0  0  0  0  0  0  0  0  0  0
   23.3093  -20.9915  -10.2232 C   0  0  0  0  0  0  0  0  0  0  0  0
   24.1493  -21.1348  -11.4727 C   0  0  2  0  0  0  0  0  0  0  0  0
   25.5187  -20.7567  -11.1745 N   0  0  0  0  0  0  0  0  0  0  0  0
   23.5586  -20.2854  -12.5495 C   0  0  0  0  0  0  0  0  0  0  0  0
   23.8052  -19.0509  -12.5989 O   0  0  0  0  0  0  0  0  0  0  0  0
   22.7253  -20.8649  -13.5102 N   0  0  0  0  0  0  0  0  0  0  0  0
   22.1501  -20.0733  -14.6135 C   0  0  1  0  0  0  0  0  0  0  0  0
   23.1587  -19.9842  -15.6950 C   0  0  0  0  0  0  0  0  0  0  0  0
   22.7692  -19.2175  -16.8703 C   0  0  0  0  0  0  0  0  0  0  0  0
   23.0641  -17.8810  -17.1220 C   0  0  0  0  0  0  0  0  0  0  0  0
   22.5100  -17.5284  -18.2811 N   0  0  0  0  0  0  0  0  0  0  0  0
   21.8657  -18.5751  -18.8003 C   0  0  0  0  0  0  0  0  0  0  0  0
   21.1547  -18.6852  -20.0007 C   0  0  0  0  0  0  0  0  0  0  0  0
   20.5893  -19.8738  -20.3380 C   0  0  0  0  0  0  0  0  0  0  0  0
   20.7278  -20.9534  -19.4865 C   0  0  0  0  0  0  0  0  0  0  0  0
   21.4226  -20.8625  -18.3030 C   0  0  0  0  0  0  0  0  0  0  0  0
   22.0083  -19.6449  -17.9446 C   0  0  0  0  0  0  0  0  0  0  0  0
   20.8292  -20.5752  -14.9696 C   0  0  0  0  0  0  0  0  0  0  0  0
   20.4110  -21.7300  -14.7347 O   0  0  0  0  0  0  0  0  0  0  0  0
   19.9385  -19.7112  -15.6303 O   0  0  0  0  0  0  0  0  0  0  0  0
  2  1  1  6
  3  2  1  0
  3  4  1  0
  5  6  2  0
  5  2  1  0
  7  8  1  0
  9  8  1  1
  9 10  1  0
 10  5  1  0
 11 13  1  0
 11  9  1  0
 12 11  2  0
 14 13  1  0
 14 25  1  0
 14 15  1  6
 16 24  1  0
 16 15  1  0
 17 16  2  0
 18 17  1  0
 18 19  1  0
 19 24  2  0
 20 19  1  0
 20 21  2  0
 21 22  1  0
 22 23  2  0
 24 23  1  0
 25 27  1  0
 26 25  2  0
M  END
$$$$
