CSW.pdb
     RDKit          3D

 27 28  0  0  1  0  0  0  0  0999 V2000
   31.0683  -23.0673  -21.6039 N   0  0  0  0  0  0  0  0  0  0  0  0
   31.1558  -22.3555  -20.3605 C   0  0  1  0  0  0  0  0  0  0  0  0
   31.5277  -20.9002  -20.6684 C   0  0  0  0  0  0  0  0  0  0  0  0
   33.2635  -20.8471  -21.2121 S   0  0  0  0  0  0  0  0  0  0  0  0
   29.8574  -22.3882  -19.6465 C   0  0  0  0  0  0  0  0  0  0  0  0
   28.7951  -22.2435  -20.3342 O   0  0  0  0  0  0  0  0  0  0  0  0
   29.3630  -23.8463  -15.8958 O   0  0  0  0  0  0  0  0  0  0  0  0
   28.2970  -23.8285  -16.7656 C   0  0  0  0  0  0  0  0  0  0  0  0
   28.4100  -22.6113  -17.6561 C   0  0  2  0  0  0  0  0  0  0  0  0
   29.7360  -22.5709  -18.2453 N   0  0  0  0  0  0  0  0  0  0  0  0
   28.1243  -21.3920  -16.8426 C   0  0  0  0  0  0  0  0  0  0  0  0
   29.0659  -20.7231  -16.3392 O   0  0  0  0  0  0  0  0  0  0  0  0
   26.8016  -20.9899  -16.6380 N   0  0  0  0  0  0  0  0  0  0  0  0
   26.4735  -19.7656  -15.8841 C   0  0  1  0  0  0  0  0  0  0  0  0
   27.2852  -18.6532  -16.4305 C   0  0  0  0  0  0  0  0  0  0  0  0
   26.8689  -17.3109  -16.0485 C   0  0  0  0  0  0  0  0  0  0  0  0
   27.1342  -16.6743  -14.8400 C   0  0  0  0  0  0  0  0  0  0  0  0
   26.5619  -15.4713  -14.8518 N   0  0  0  0  0  0  0  0  0  0  0  0
   25.9338  -15.2914  -16.0153 C   0  0  0  0  0  0  0  0  0  0  0  0
   25.2135  -14.1869  -16.4841 C   0  0  0  0  0  0  0  0  0  0  0  0
   24.6689  -14.2213  -17.7286 C   0  0  0  0  0  0  0  0  0  0  0  0
   24.8375  -15.3495  -18.5086 C   0  0  0  0  0  0  0  0  0  0  0  0
   25.5418  -16.4438  -18.0633 C   0  0  0  0  0  0  0  0  0  0  0  0
   26.1063  -16.4207  -16.7847 C   0  0  0  0  0  0  0  0  0  0  0  0
   25.0303  -19.5736  -15.8222 C   0  0  0  0  0  0  0  0  0  0  0  0
   24.2208  -19.9103  -16.7138 O   0  0  0  0  0  0  0  0  0  0  0  0
   24.4828  -18.9637  -14.6801 O   0  0  0  0  0  0  0  0  0  0  0  0
  2  1  1  6
  3  2  1  0
  3  4  1  0
  5  6  2  0
  5  2  1  0
  7  8  1  0
  9  8  1  1
  9 10  1  0
 10  5  1  0
 11 13  1  0
 11  9  1  0
 12 11  2  0
 14 13  1  0
 14 25  1  0
 14 15  1  6
 16 24  1  0
 16 15  1  0
 17 16  2  0
 18 17  1  0
 18 19  1  0
 19 24  2  0
 20 19  1  0
 20 21  2  0
 21 22  1  0
 22 23  2  0
 24 23  1  0
 25 27  1  0
 26 25  2  0
M  END
$$$$
