CSW.pdb
     RDKit          3D

 27 28  0  0  1  0  0  0  0  0999 V2000
   30.3043  -22.5003  -18.8404 N   0  0  0  0  0  0  0  0  0  0  0  0
   29.5748  -23.1801  -17.8079 C   0  0  1  0  0  0  0  0  0  0  0  0
   30.4627  -24.3010  -17.2545 C   0  0  0  0  0  0  0  0  0  0  0  0
   30.1355  -25.8211  -18.1998 S   0  0  0  0  0  0  0  0  0  0  0  0
   29.2263  -22.2455  -16.7115 C   0  0  0  0  0  0  0  0  0  0  0  0
   30.0163  -21.2726  -16.4838 O   0  0  0  0  0  0  0  0  0  0  0  0
   26.3834  -20.0784  -16.4737 O   0  0  0  0  0  0  0  0  0  0  0  0
   27.5572  -20.0187  -15.7583 C   0  0  0  0  0  0  0  0  0  0  0  0
   27.7275  -21.3075  -14.9853 C   0  0  2  0  0  0  0  0  0  0  0  0
   28.0659  -22.3768  -15.9067 N   0  0  0  0  0  0  0  0  0  0  0  0
   26.4647  -21.5923  -14.2408 C   0  0  0  0  0  0  0  0  0  0  0  0
   25.5346  -22.2457  -14.7841 O   0  0  0  0  0  0  0  0  0  0  0  0
   26.3136  -21.1299  -12.9306 N   0  0  0  0  0  0  0  0  0  0  0  0
   25.1718  -21.5408  -12.0926 C   0  0  1  0  0  0  0  0  0  0  0  0
   25.7032  -22.1798  -10.8662 C   0  0  0  0  0  0  0  0  0  0  0  0
   26.2809  -21.2810   -9.8765 C   0  0  0  0  0  0  0  0  0  0  0  0
   25.5891  -20.3804   -9.0724 C   0  0  0  0  0  0  0  0  0  0  0  0
   26.4639  -19.7140   -8.3204 N   0  0  0  0  0  0  0  0  0  0  0  0
   27.6985  -20.1389   -8.5959 C   0  0  0  0  0  0  0  0  0  0  0  0
   28.9251  -19.7456   -8.0490 C   0  0  0  0  0  0  0  0  0  0  0  0
   30.0703  -20.3393   -8.4761 C   0  0  0  0  0  0  0  0  0  0  0  0
   30.0008  -21.3223   -9.4448 C   0  0  0  0  0  0  0  0  0  0  0  0
   28.8039  -21.7204   -9.9933 C   0  0  0  0  0  0  0  0  0  0  0  0
   27.6189  -21.1167   -9.5626 C   0  0  0  0  0  0  0  0  0  0  0  0
   24.2385  -20.4349  -11.9207 C   0  0  0  0  0  0  0  0  0  0  0  0
   24.4858  -19.2375  -12.1830 O   0  0  0  0  0  0  0  0  0  0  0  0
   22.9538  -20.7122  -11.4219 O   0  0  0  0  0  0  0  0  0  0  0  0
  2  1  1  6
  3  2  1  0
  3  4  1  0
  5  6  2  0
  5  2  1  0
  7  8  1  0
  9  8  1  6
  9 10  1  0
 10  5  1  0
 11 13  1  0
 11  9  1  0
 12 11  2  0
 14 13  1  0
 14 25  1  0
 14 15  1  1
 16 24  1  0
 16 15  1  0
 17 16  2  0
 18 17  1  0
 18 19  1  0
 19 24  2  0
 20 19  1  0
 20 21  2  0
 21 22  1  0
 22 23  2  0
 24 23  1  0
 25 27  1  0
 26 25  2  0
M  END
$$$$
