CSW.pdb
     RDKit          3D

 27 28  0  0  1  0  0  0  0  0999 V2000
   27.9456  -20.6245  -15.7057 N   0  0  0  0  0  0  0  0  0  0  0  0
   27.4388  -19.8551  -14.6049 C   0  0  1  0  0  0  0  0  0  0  0  0
   26.7570  -18.6038  -15.1707 C   0  0  0  0  0  0  0  0  0  0  0  0
   28.0435  -17.4337  -15.7067 S   0  0  0  0  0  0  0  0  0  0  0  0
   26.4514  -20.6414  -13.8279 C   0  0  0  0  0  0  0  0  0  0  0  0
   25.6741  -21.4215  -14.4679 O   0  0  0  0  0  0  0  0  0  0  0  0
   25.5665  -20.0737   -9.7704 O   0  0  0  0  0  0  0  0  0  0  0  0
   25.4776  -21.3444  -10.2904 C   0  0  0  0  0  0  0  0  0  0  0  0
   25.2149  -21.2497  -11.7768 C   0  0  2  0  0  0  0  0  0  0  0  0
   26.3270  -20.5711  -12.4169 N   0  0  0  0  0  0  0  0  0  0  0  0
   23.9244  -20.5299  -11.9923 C   0  0  0  0  0  0  0  0  0  0  0  0
   23.8162  -19.3086  -11.7023 O   0  0  0  0  0  0  0  0  0  0  0  0
   22.8275  -21.2169  -12.5197 N   0  0  0  0  0  0  0  0  0  0  0  0
   21.5392  -20.5432  -12.7668 C   0  0  1  0  0  0  0  0  0  0  0  0
   21.8010  -19.3176  -13.5568 C   0  0  0  0  0  0  0  0  0  0  0  0
   21.5276  -19.4071  -14.9844 C   0  0  0  0  0  0  0  0  0  0  0  0
   20.3079  -19.7221  -15.5756 C   0  0  0  0  0  0  0  0  0  0  0  0
   20.4616  -19.7374  -16.8989 N   0  0  0  0  0  0  0  0  0  0  0  0
   21.7281  -19.4456  -17.2008 C   0  0  0  0  0  0  0  0  0  0  0  0
   22.3484  -19.3298  -18.4499 C   0  0  0  0  0  0  0  0  0  0  0  0
   23.6647  -18.9993  -18.5163 C   0  0  0  0  0  0  0  0  0  0  0  0
   24.3668  -18.7836  -17.3457 C   0  0  0  0  0  0  0  0  0  0  0  0
   23.7730  -18.8938  -16.1100 C   0  0  0  0  0  0  0  0  0  0  0  0
   22.4196  -19.2338  -16.0286 C   0  0  0  0  0  0  0  0  0  0  0  0
   20.5620  -21.4853  -13.2969 C   0  0  0  0  0  0  0  0  0  0  0  0
   20.8381  -22.5378  -13.9130 O   0  0  0  0  0  0  0  0  0  0  0  0
   19.1957  -21.2096  -13.1134 O   0  0  0  0  0  0  0  0  0  0  0  0
  2  1  1  6
  3  2  1  0
  3  4  1  0
  5  6  2  0
  5  2  1  0
  7  8  1  0
  9  8  1  1
  9 10  1  0
 10  5  1  0
 11 13  1  0
 11  9  1  0
 12 11  2  0
 14 13  1  0
 14 25  1  0
 14 15  1  6
 16 24  1  0
 16 15  1  0
 17 16  2  0
 18 17  1  0
 18 19  1  0
 19 24  2  0
 20 19  1  0
 20 21  2  0
 21 22  1  0
 22 23  2  0
 24 23  1  0
 25 27  1  0
 26 25  2  0
M  END
$$$$
