CSW.pdb
     RDKit          3D

 27 28  0  0  1  0  0  0  0  0999 V2000
   28.6215  -21.7302  -19.5033 N   0  0  0  0  0  0  0  0  0  0  0  0
   27.6141  -21.9980  -18.5165 C   0  0  1  0  0  0  0  0  0  0  0  0
   27.3745  -23.5119  -18.4772 C   0  0  0  0  0  0  0  0  0  0  0  0
   26.2879  -23.8913  -17.0677 S   0  0  0  0  0  0  0  0  0  0  0  0
   28.0569  -21.5379  -17.1789 C   0  0  0  0  0  0  0  0  0  0  0  0
   29.1437  -22.0129  -16.7146 O   0  0  0  0  0  0  0  0  0  0  0  0
   26.6168  -18.2228  -15.1192 O   0  0  0  0  0  0  0  0  0  0  0  0
   27.9031  -18.6996  -15.0128 C   0  0  0  0  0  0  0  0  0  0  0  0
   27.8766  -20.2090  -15.1033 C   0  0  2  0  0  0  0  0  0  0  0  0
   27.3379  -20.6016  -16.3928 N   0  0  0  0  0  0  0  0  0  0  0  0
   27.0615  -20.7444  -13.9725 C   0  0  0  0  0  0  0  0  0  0  0  0
   25.8759  -21.1262  -14.1623 O   0  0  0  0  0  0  0  0  0  0  0  0
   27.6184  -20.8225  -12.6931 N   0  0  0  0  0  0  0  0  0  0  0  0
   26.7949  -21.1292  -11.5088 C   0  0  1  0  0  0  0  0  0  0  0  0
   27.6946  -21.2545  -10.3384 C   0  0  0  0  0  0  0  0  0  0  0  0
   27.1018  -20.9559   -9.0421 C   0  0  0  0  0  0  0  0  0  0  0  0
   25.7452  -20.9556   -8.7324 C   0  0  0  0  0  0  0  0  0  0  0  0
   25.5944  -20.6019   -7.4569 N   0  0  0  0  0  0  0  0  0  0  0  0
   26.7926  -20.3710   -6.9170 C   0  0  0  0  0  0  0  0  0  0  0  0
   27.1307  -19.9941   -5.6123 C   0  0  0  0  0  0  0  0  0  0  0  0
   28.4381  -19.8329   -5.2790 C   0  0  0  0  0  0  0  0  0  0  0  0
   29.4106  -20.0447   -6.2377 C   0  0  0  0  0  0  0  0  0  0  0  0
   29.0958  -20.4149   -7.5244 C   0  0  0  0  0  0  0  0  0  0  0  0
   27.7544  -20.5833   -7.8797 C   0  0  0  0  0  0  0  0  0  0  0  0
   25.6834  -20.1930  -11.4015 C   0  0  0  0  0  0  0  0  0  0  0  0
   25.7601  -18.9600  -11.5948 O   0  0  0  0  0  0  0  0  0  0  0  0
   24.4161  -20.6927  -11.0542 O   0  0  0  0  0  0  0  0  0  0  0  0
  2  1  1  6
  3  2  1  0
  3  4  1  0
  5  6  2  0
  5  2  1  0
  7  8  1  0
  9  8  1  6
  9 10  1  0
 10  5  1  0
 11 13  1  0
 11  9  1  0
 12 11  2  0
 14 13  1  0
 14 25  1  0
 14 15  1  1
 16 24  1  0
 16 15  1  0
 17 16  2  0
 18 17  1  0
 18 19  1  0
 19 24  2  0
 20 19  1  0
 20 21  2  0
 21 22  1  0
 22 23  2  0
 24 23  1  0
 25 27  1  0
 26 25  2  0
M  END
$$$$
