CSW.pdb
     RDKit          3D

 27 28  0  0  1  0  0  0  0  0999 V2000
   28.4693  -22.1070  -17.8005 N   0  0  0  0  0  0  0  0  0  0  0  0
   28.3812  -22.3776  -16.3936 C   0  0  1  0  0  0  0  0  0  0  0  0
   29.5851  -21.7236  -15.7051 C   0  0  0  0  0  0  0  0  0  0  0  0
   29.4318  -21.9713  -13.9088 S   0  0  0  0  0  0  0  0  0  0  0  0
   27.1307  -21.8158  -15.8301 C   0  0  0  0  0  0  0  0  0  0  0  0
   26.7945  -20.6386  -16.1817 O   0  0  0  0  0  0  0  0  0  0  0  0
   23.8755  -23.8113  -14.7870 O   0  0  0  0  0  0  0  0  0  0  0  0
   23.8792  -22.4567  -15.0281 C   0  0  0  0  0  0  0  0  0  0  0  0
   25.1146  -21.8495  -14.4016 C   0  0  2  0  0  0  0  0  0  0  0  0
   26.2931  -22.5161  -14.9247 N   0  0  0  0  0  0  0  0  0  0  0  0
   25.0142  -21.9787  -12.9173 C   0  0  0  0  0  0  0  0  0  0  0  0
   25.1480  -23.1016  -12.3617 O   0  0  0  0  0  0  0  0  0  0  0  0
   24.7696  -20.8445  -12.1381 N   0  0  0  0  0  0  0  0  0  0  0  0
   24.4824  -20.9451  -10.6951 C   0  0  1  0  0  0  0  0  0  0  0  0
   25.3257  -19.9558   -9.9846 C   0  0  0  0  0  0  0  0  0  0  0  0
   26.6907  -20.3718   -9.6935 C   0  0  0  0  0  0  0  0  0  0  0  0
   27.4932  -21.1894  -10.4833 C   0  0  0  0  0  0  0  0  0  0  0  0
   28.6616  -21.3694   -9.8691 N   0  0  0  0  0  0  0  0  0  0  0  0
   28.6602  -20.7051   -8.7118 C   0  0  0  0  0  0  0  0  0  0  0  0
   29.6643  -20.5878   -7.7440 C   0  0  0  0  0  0  0  0  0  0  0  0
   29.4429  -19.8312   -6.6372 C   0  0  0  0  0  0  0  0  0  0  0  0
   28.2273  -19.1909   -6.4888 C   0  0  0  0  0  0  0  0  0  0  0  0
   27.2297  -19.2960   -7.4298 C   0  0  0  0  0  0  0  0  0  0  0  0
   27.4451  -20.0719   -8.5724 C   0  0  0  0  0  0  0  0  0  0  0  0
   23.0460  -20.8961  -10.4542 C   0  0  0  0  0  0  0  0  0  0  0  0
   22.4893  -21.1653   -9.3674 O   0  0  0  0  0  0  0  0  0  0  0  0
   22.2004  -20.5200  -11.5123 O   0  0  0  0  0  0  0  0  0  0  0  0
  2  1  1  6
  3  2  1  0
  3  4  1  0
  5  6  2  0
  5  2  1  0
  7  8  1  0
  9  8  1  6
  9 10  1  0
 10  5  1  0
 11 13  1  0
 11  9  1  0
 12 11  2  0
 14 13  1  0
 14 25  1  0
 14 15  1  1
 16 24  1  0
 16 15  1  0
 17 16  2  0
 18 17  1  0
 18 19  1  0
 19 24  2  0
 20 19  1  0
 20 21  2  0
 21 22  1  0
 22 23  2  0
 24 23  1  0
 25 27  1  0
 26 25  2  0
M  END
$$$$
