CSW.pdb
     RDKit          3D

 27 28  0  0  1  0  0  0  0  0999 V2000
   28.8821  -27.2020  -17.3404 N   0  0  0  0  0  0  0  0  0  0  0  0
   27.6961  -26.3944  -17.3034 C   0  0  1  0  0  0  0  0  0  0  0  0
   26.5806  -27.2138  -16.6438 C   0  0  0  0  0  0  0  0  0  0  0  0
   26.0038  -28.4687  -17.8288 S   0  0  0  0  0  0  0  0  0  0  0  0
   27.9279  -25.1604  -16.5157 C   0  0  0  0  0  0  0  0  0  0  0  0
   29.0380  -25.0446  -15.9020 O   0  0  0  0  0  0  0  0  0  0  0  0
   26.1454  -21.4587  -17.0410 O   0  0  0  0  0  0  0  0  0  0  0  0
   27.4066  -21.7328  -16.5643 C   0  0  0  0  0  0  0  0  0  0  0  0
   27.3335  -22.9275  -15.6399 C   0  0  2  0  0  0  0  0  0  0  0  0
   26.9837  -24.1074  -16.4096 N   0  0  0  0  0  0  0  0  0  0  0  0
   26.3333  -22.6453  -14.5675 C   0  0  0  0  0  0  0  0  0  0  0  0
   25.6707  -23.5821  -14.0472 O   0  0  0  0  0  0  0  0  0  0  0  0
   26.1306  -21.3310  -14.1376 N   0  0  0  0  0  0  0  0  0  0  0  0
   25.5322  -21.0308  -12.8236 C   0  0  1  0  0  0  0  0  0  0  0  0
   26.3933  -21.6259  -11.7753 C   0  0  0  0  0  0  0  0  0  0  0  0
   26.3191  -21.0059  -10.4596 C   0  0  0  0  0  0  0  0  0  0  0  0
   25.1629  -20.6032   -9.7982 C   0  0  0  0  0  0  0  0  0  0  0  0
   25.5024  -20.0507   -8.6344 N   0  0  0  0  0  0  0  0  0  0  0  0
   26.8301  -20.0742   -8.5039 C   0  0  0  0  0  0  0  0  0  0  0  0
   27.6358  -19.6252   -7.4513 C   0  0  0  0  0  0  0  0  0  0  0  0
   28.9843  -19.7725   -7.5299 C   0  0  0  0  0  0  0  0  0  0  0  0
   29.5350  -20.3641   -8.6508 C   0  0  0  0  0  0  0  0  0  0  0  0
   28.7580  -20.8104   -9.6943 C   0  0  0  0  0  0  0  0  0  0  0  0
   27.3696  -20.6640   -9.6256 C   0  0  0  0  0  0  0  0  0  0  0  0
   25.2268  -19.6103  -12.7125 C   0  0  0  0  0  0  0  0  0  0  0  0
   25.9839  -18.6815  -13.0700 O   0  0  0  0  0  0  0  0  0  0  0  0
   23.9899  -19.2307  -12.1628 O   0  0  0  0  0  0  0  0  0  0  0  0
  2  1  1  1
  3  2  1  0
  3  4  1  0
  5  6  2  0
  5  2  1  0
  7  8  1  0
  9  8  1  6
  9 10  1  0
 10  5  1  0
 11 13  1  0
 11  9  1  0
 12 11  2  0
 14 13  1  0
 14 25  1  0
 14 15  1  1
 16 24  1  0
 16 15  1  0
 17 16  2  0
 18 17  1  0
 18 19  1  0
 19 24  2  0
 20 19  1  0
 20 21  2  0
 21 22  1  0
 22 23  2  0
 24 23  1  0
 25 27  1  0
 26 25  2  0
M  END
$$$$
