CSW.pdb
     RDKit          3D

 27 28  0  0  1  0  0  0  0  0999 V2000
   15.1338  -11.9919  -16.7448 N   0  0  0  0  0  0  0  0  0  0  0  0
   15.4887  -11.3435  -15.5143 C   0  0  1  0  0  0  0  0  0  0  0  0
   16.4751  -12.2474  -14.7653 C   0  0  0  0  0  0  0  0  0  0  0  0
   15.5699  -13.6917  -14.1279 S   0  0  0  0  0  0  0  0  0  0  0  0
   16.1297  -10.0336  -15.7792 C   0  0  0  0  0  0  0  0  0  0  0  0
   16.8579   -9.9256  -16.8187 O   0  0  0  0  0  0  0  0  0  0  0  0
   15.9606   -6.8340  -13.2191 O   0  0  0  0  0  0  0  0  0  0  0  0
   15.9742   -6.5139  -14.5572 C   0  0  0  0  0  0  0  0  0  0  0  0
   16.6063   -7.6513  -15.3280 C   0  0  2  0  0  0  0  0  0  0  0  0
   15.9760   -8.9002  -14.9407 N   0  0  0  0  0  0  0  0  0  0  0  0
   18.0744   -7.6599  -15.0551 C   0  0  0  0  0  0  0  0  0  0  0  0
   18.5665   -8.4692  -14.2242 O   0  0  0  0  0  0  0  0  0  0  0  0
   18.9092   -6.7627  -15.7269 N   0  0  0  0  0  0  0  0  0  0  0  0
   20.3444   -6.6533  -15.4057 C   0  0  1  0  0  0  0  0  0  0  0  0
   21.1163   -6.8771  -16.6501 C   0  0  0  0  0  0  0  0  0  0  0  0
   22.5524   -6.6522  -16.5604 C   0  0  0  0  0  0  0  0  0  0  0  0
   23.5388   -7.6288  -16.4619 C   0  0  0  0  0  0  0  0  0  0  0  0
   24.7268   -7.0334  -16.3673 N   0  0  0  0  0  0  0  0  0  0  0  0
   24.5623   -5.7097  -16.4001 C   0  0  0  0  0  0  0  0  0  0  0  0
   25.5153   -4.6861  -16.3478 C   0  0  0  0  0  0  0  0  0  0  0  0
   25.1115   -3.3905  -16.4179 C   0  0  0  0  0  0  0  0  0  0  0  0
   23.7642   -3.1087  -16.5398 C   0  0  0  0  0  0  0  0  0  0  0  0
   22.8145   -4.1022  -16.5921 C   0  0  0  0  0  0  0  0  0  0  0  0
   23.2173   -5.4388  -16.5202 C   0  0  0  0  0  0  0  0  0  0  0  0
   20.6111   -5.4277  -14.6637 C   0  0  0  0  0  0  0  0  0  0  0  0
   20.0168   -4.3406  -14.8327 O   0  0  0  0  0  0  0  0  0  0  0  0
   21.6112   -5.4454  -13.6759 O   0  0  0  0  0  0  0  0  0  0  0  0
  2  1  1  6
  3  2  1  0
  3  4  1  0
  5  6  2  0
  5  2  1  0
  7  8  1  0
  9  8  1  1
  9 10  1  0
 10  5  1  0
 11 13  1  0
 11  9  1  0
 12 11  2  0
 14 13  1  0
 14 25  1  0
 14 15  1  6
 16 24  1  0
 16 15  1  0
 17 16  2  0
 18 17  1  0
 18 19  1  0
 19 24  2  0
 20 19  1  0
 20 21  2  0
 21 22  1  0
 22 23  2  0
 24 23  1  0
 25 27  1  0
 26 25  2  0
M  END
$$$$
