CSW.pdb
     RDKit          3D

 27 28  0  0  1  0  0  0  0  0999 V2000
   29.4380  -23.3720  -18.0864 N   0  0  0  0  0  0  0  0  0  0  0  0
   28.6280  -22.1962  -17.9390 C   0  0  1  0  0  0  0  0  0  0  0  0
   27.2261  -22.5118  -18.4736 C   0  0  0  0  0  0  0  0  0  0  0  0
   26.4555  -23.7510  -17.3863 S   0  0  0  0  0  0  0  0  0  0  0  0
   28.5310  -21.8032  -16.5131 C   0  0  0  0  0  0  0  0  0  0  0  0
   29.0113  -22.5983  -15.6416 O   0  0  0  0  0  0  0  0  0  0  0  0
   26.7855  -18.3069  -15.1656 O   0  0  0  0  0  0  0  0  0  0  0  0
   27.8940  -18.7653  -14.4917 C   0  0  0  0  0  0  0  0  0  0  0  0
   27.9837  -20.2660  -14.6574 C   0  0  2  0  0  0  0  0  0  0  0  0
   27.9344  -20.5951  -16.0703 N   0  0  0  0  0  0  0  0  0  0  0  0
   26.8660  -20.9014  -13.8979 C   0  0  0  0  0  0  0  0  0  0  0  0
   25.8192  -21.2745  -14.4916 O   0  0  0  0  0  0  0  0  0  0  0  0
   26.9821  -21.0835  -12.5171 N   0  0  0  0  0  0  0  0  0  0  0  0
   25.8660  -21.6107  -11.7102 C   0  0  1  0  0  0  0  0  0  0  0  0
   26.4096  -22.0690  -10.4105 C   0  0  0  0  0  0  0  0  0  0  0  0
   26.5490  -21.0485   -9.3808 C   0  0  0  0  0  0  0  0  0  0  0  0
   25.6437  -20.0311   -9.0956 C   0  0  0  0  0  0  0  0  0  0  0  0
   26.1359  -19.2794   -8.1119 N   0  0  0  0  0  0  0  0  0  0  0  0
   27.3237  -19.7601   -7.7396 C   0  0  0  0  0  0  0  0  0  0  0  0
   28.1992  -19.3139   -6.7432 C   0  0  0  0  0  0  0  0  0  0  0  0
   29.3624  -19.9817   -6.5252 C   0  0  0  0  0  0  0  0  0  0  0  0
   29.6585  -21.0912   -7.2940 C   0  0  0  0  0  0  0  0  0  0  0  0
   28.8097  -21.5428   -8.2775 C   0  0  0  0  0  0  0  0  0  0  0  0
   27.6104  -20.8640   -8.5117 C   0  0  0  0  0  0  0  0  0  0  0  0
   24.7638  -20.6580  -11.6764 C   0  0  0  0  0  0  0  0  0  0  0  0
   24.8822  -19.4172  -11.7752 O   0  0  0  0  0  0  0  0  0  0  0  0
   23.4561  -21.1499  -11.5208 O   0  0  0  0  0  0  0  0  0  0  0  0
  2  1  1  1
  3  2  1  0
  3  4  1  0
  5  6  2  0
  5  2  1  0
  7  8  1  0
  9  8  1  6
  9 10  1  0
 10  5  1  0
 11 13  1  0
 11  9  1  0
 12 11  2  0
 14 13  1  0
 14 25  1  0
 14 15  1  1
 16 24  1  0
 16 15  1  0
 17 16  2  0
 18 17  1  0
 18 19  1  0
 19 24  2  0
 20 19  1  0
 20 21  2  0
 21 22  1  0
 22 23  2  0
 24 23  1  0
 25 27  1  0
 26 25  2  0
M  END
$$$$
