CSW.pdb
     RDKit          3D

 27 28  0  0  1  0  0  0  0  0999 V2000
   25.0473  -17.4765  -15.7582 N   0  0  0  0  0  0  0  0  0  0  0  0
   26.1505  -17.7955  -14.8971 C   0  0  1  0  0  0  0  0  0  0  0  0
   26.5004  -16.5428  -14.0851 C   0  0  0  0  0  0  0  0  0  0  0  0
   27.5620  -15.4699  -15.1015 S   0  0  0  0  0  0  0  0  0  0  0  0
   25.7898  -18.8944  -13.9702 C   0  0  0  0  0  0  0  0  0  0  0  0
   24.6110  -18.9048  -13.4879 O   0  0  0  0  0  0  0  0  0  0  0  0
   28.1816  -22.0966  -13.3077 O   0  0  0  0  0  0  0  0  0  0  0  0
   26.8388  -22.2848  -13.0745 C   0  0  0  0  0  0  0  0  0  0  0  0
   26.2175  -20.9618  -12.6859 C   0  0  2  0  0  0  0  0  0  0  0  0
   26.6834  -19.9295  -13.5938 N   0  0  0  0  0  0  0  0  0  0  0  0
   26.5760  -20.6601  -11.2680 C   0  0  0  0  0  0  0  0  0  0  0  0
   27.6452  -20.0530  -10.9931 O   0  0  0  0  0  0  0  0  0  0  0  0
   25.7183  -21.0546  -10.2375 N   0  0  0  0  0  0  0  0  0  0  0  0
   26.0141  -20.7488   -8.8255 C   0  0  1  0  0  0  0  0  0  0  0  0
   26.3243  -19.3041   -8.7193 C   0  0  0  0  0  0  0  0  0  0  0  0
   27.2794  -18.9300   -7.6855 C   0  0  0  0  0  0  0  0  0  0  0  0
   28.0408  -17.7660   -7.6440 C   0  0  0  0  0  0  0  0  0  0  0  0
   28.8190  -17.7984   -6.5631 N   0  0  0  0  0  0  0  0  0  0  0  0
   28.6004  -18.9321   -5.8942 C   0  0  0  0  0  0  0  0  0  0  0  0
   29.1692  -19.3936   -4.7017 C   0  0  0  0  0  0  0  0  0  0  0  0
   28.7734  -20.5881   -4.1889 C   0  0  0  0  0  0  0  0  0  0  0  0
   27.8146  -21.3256   -4.8571 C   0  0  0  0  0  0  0  0  0  0  0  0
   27.2459  -20.8872   -6.0301 C   0  0  0  0  0  0  0  0  0  0  0  0
   27.6451  -19.6603   -6.5680 C   0  0  0  0  0  0  0  0  0  0  0  0
   24.9682  -21.2745   -7.9576 C   0  0  0  0  0  0  0  0  0  0  0  0
   25.0871  -21.4776   -6.7295 O   0  0  0  0  0  0  0  0  0  0  0  0
   23.7195  -21.5853   -8.5237 O   0  0  0  0  0  0  0  0  0  0  0  0
  2  1  1  6
  3  2  1  0
  3  4  1  0
  5  6  2  0
  5  2  1  0
  7  8  1  0
  9  8  1  6
  9 10  1  0
 10  5  1  0
 11 13  1  0
 11  9  1  0
 12 11  2  0
 14 13  1  0
 14 25  1  0
 14 15  1  6
 16 24  1  0
 16 15  1  0
 17 16  2  0
 18 17  1  0
 18 19  1  0
 19 24  2  0
 20 19  1  0
 20 21  2  0
 21 22  1  0
 22 23  2  0
 24 23  1  0
 25 27  1  0
 26 25  2  0
M  END
$$$$
