CSW.pdb
     RDKit          3D

 27 28  0  0  1  0  0  0  0  0999 V2000
   37.8566  -27.7821  -20.5623 N   0  0  0  0  0  0  0  0  0  0  0  0
   36.9417  -27.4551  -19.5057 C   0  0  1  0  0  0  0  0  0  0  0  0
   36.7182  -25.9383  -19.5197 C   0  0  0  0  0  0  0  0  0  0  0  0
   35.4369  -25.5289  -18.2942 S   0  0  0  0  0  0  0  0  0  0  0  0
   35.6440  -28.1427  -19.7061 C   0  0  0  0  0  0  0  0  0  0  0  0
   35.2073  -28.2566  -20.8972 O   0  0  0  0  0  0  0  0  0  0  0  0
   34.1832  -31.2059  -17.6877 O   0  0  0  0  0  0  0  0  0  0  0  0
   33.7815  -30.8165  -18.9447 C   0  0  0  0  0  0  0  0  0  0  0  0
   33.6008  -29.3150  -18.9596 C   0  0  2  0  0  0  0  0  0  0  0  0
   34.8669  -28.6776  -18.6471 N   0  0  0  0  0  0  0  0  0  0  0  0
   32.5358  -28.9490  -17.9789 C   0  0  0  0  0  0  0  0  0  0  0  0
   32.8208  -28.7529  -16.7674 O   0  0  0  0  0  0  0  0  0  0  0  0
   31.2118  -28.8233  -18.4086 N   0  0  0  0  0  0  0  0  0  0  0  0
   30.1184  -28.5214  -17.4662 C   0  0  1  0  0  0  0  0  0  0  0  0
   29.2110  -27.5417  -18.1075 C   0  0  0  0  0  0  0  0  0  0  0  0
   27.9889  -27.2306  -17.3789 C   0  0  0  0  0  0  0  0  0  0  0  0
   27.8446  -26.2816  -16.3715 C   0  0  0  0  0  0  0  0  0  0  0  0
   26.5888  -26.3121  -15.9274 N   0  0  0  0  0  0  0  0  0  0  0  0
   25.9039  -27.2388  -16.6001 C   0  0  0  0  0  0  0  0  0  0  0  0
   24.5600  -27.6144  -16.4930 C   0  0  0  0  0  0  0  0  0  0  0  0
   24.0686  -28.5847  -17.3076 C   0  0  0  0  0  0  0  0  0  0  0  0
   24.9079  -29.1830  -18.2280 C   0  0  0  0  0  0  0  0  0  0  0  0
   26.2310  -28.8264  -18.3461 C   0  0  0  0  0  0  0  0  0  0  0  0
   26.7485  -27.8300  -17.5134 C   0  0  0  0  0  0  0  0  0  0  0  0
   29.5246  -29.7520  -16.9596 C   0  0  0  0  0  0  0  0  0  0  0  0
   28.9791  -29.8805  -15.8418 O   0  0  0  0  0  0  0  0  0  0  0  0
   29.5565  -30.8975  -17.7739 O   0  0  0  0  0  0  0  0  0  0  0  0
  2  1  1  6
  3  2  1  0
  3  4  1  0
  5  6  2  0
  5  2  1  0
  7  8  1  0
  9  8  1  1
  9 10  1  0
 10  5  1  0
 11 13  1  0
 11  9  1  0
 12 11  2  0
 14 13  1  0
 14 25  1  0
 14 15  1  6
 16 24  1  0
 16 15  1  0
 17 16  2  0
 18 17  1  0
 18 19  1  0
 19 24  2  0
 20 19  1  0
 20 21  2  0
 21 22  1  0
 22 23  2  0
 24 23  1  0
 25 27  1  0
 26 25  2  0
M  END
$$$$
