RLI.pdb
     RDKit          3D

 28 27  0  0  1  0  0  0  0  0999 V2000
    9.0536  -14.8223   18.6963 N   0  0  0  0  0  0  0  0  0  0  0  0
    8.2500  -13.7094   19.0332 C   0  0  0  0  0  0  0  0  0  0  0  0
    8.7231  -12.4896   19.0203 N   0  0  0  0  0  0  0  0  0  0  0  0
    6.8893  -13.8212   19.4065 N   0  0  0  0  0  0  0  0  0  0  0  0
    6.2449  -15.1041   19.5408 C   0  0  0  0  0  0  0  0  0  0  0  0
    6.2686  -15.6231   20.9455 C   0  0  0  0  0  0  0  0  0  0  0  0
    6.4169  -17.0954   21.0911 C   0  0  0  0  0  0  0  0  0  0  0  0
    7.6242  -17.6937   20.4231 C   0  0  2  0  0  0  0  0  0  0  0  0
    7.5461  -19.1264   20.2449 N   0  0  0  0  0  0  0  0  0  0  0  0
    8.7988  -17.3749   21.2808 C   0  0  0  0  0  0  0  0  0  0  0  0
    9.1499  -18.1558   22.2085 O   0  0  0  0  0  0  0  0  0  0  0  0
    8.0888  -11.7474   19.3704 C   0  0  0  0  0  0  0  0  0  0  0  0
   13.1133  -15.9270   20.0453 C   0  0  2  0  0  0  0  0  0  0  0  0
   11.9604  -14.9530   20.0131 C   0  0  0  0  0  0  0  0  0  0  0  0
   12.5238  -13.5928   19.5961 C   0  0  0  0  0  0  0  0  0  0  0  0
   11.4659  -14.7693   21.4287 C   0  0  2  0  0  0  0  0  0  0  0  0
   10.7225  -15.9552   21.9546 N   0  0  0  0  0  0  0  0  0  0  0  0
    9.5763  -16.1985   21.1089 C   0  0  0  0  0  0  0  0  0  0  0  0
   10.3474  -15.8260   23.3816 O   0  0  0  0  0  0  0  0  0  0  0  0
   11.2538  -15.8066   24.2518 C   0  0  0  0  0  0  0  0  0  0  0  0
    6.9298  -12.0729   24.6848 C   0  0  0  0  0  0  0  0  0  0  0  0
    8.0451  -13.1034   24.7536 C   0  0  2  0  0  0  0  0  0  0  0  0
    7.5359  -14.4336   25.2425 C   0  0  0  0  0  0  0  0  0  0  0  0
    7.0697  -14.2302   26.6795 C   0  0  2  0  0  0  0  0  0  0  0  0
    8.5633  -15.5057   25.1475 N   0  0  0  0  0  0  0  0  0  0  0  0
    8.9924  -15.7250   23.7695 C   0  0  0  0  0  0  0  0  0  0  0  0
    8.2342  -16.7764   25.8170 O   0  0  0  0  0  0  0  0  0  0  0  0
    8.4991  -17.1074   27.1287 O   0  0  0  0  0  0  0  0  0  0  0  0
  1  2  1  0
  2  3  2  0
  4  2  1  0
  4  5  1  0
  6  5  1  0
  7  6  1  0
  8  7  1  0
  8  9  1  1
 10  8  1  0
 10 11  2  0
 13 12  1  6
 13 15  1  0
 13 14  1  0
 16 15  1  6
 16 17  1  0
 17 10  1  0
 18 16  1  0
 19 18  2  0
 20 21  1  0
 21 22  1  0
 22 24  1  0
 22 23  1  6
 24 25  1  1
 24 26  1  0
 25 18  1  0
 26 27  1  0
 28 26  2  0
M  END
$$$$
