RLI.pdb
     RDKit          3D

 28 27  0  0  1  0  0  0  0  0999 V2000
   14.4517  -18.4934   16.5906 N   0  0  0  0  0  0  0  0  0  0  0  0
   13.5269  -19.3783   15.9910 C   0  0  0  0  0  0  0  0  0  0  0  0
   13.6129  -19.7125   14.7290 N   0  0  0  0  0  0  0  0  0  0  0  0
   12.4489  -19.9660   16.6951 N   0  0  0  0  0  0  0  0  0  0  0  0
   12.1793  -19.6410   18.0739 C   0  0  0  0  0  0  0  0  0  0  0  0
   12.6743  -18.2808   18.4587 C   0  0  0  0  0  0  0  0  0  0  0  0
   11.6620  -17.3638   19.0461 C   0  0  0  0  0  0  0  0  0  0  0  0
   11.0225  -17.8376   20.3222 C   0  0  2  0  0  0  0  0  0  0  0  0
    9.8243  -18.6215   20.1219 N   0  0  0  0  0  0  0  0  0  0  0  0
   10.6813  -16.6241   21.1146 C   0  0  0  0  0  0  0  0  0  0  0  0
   11.5802  -15.8102   21.4658 O   0  0  0  0  0  0  0  0  0  0  0  0
   12.8577  -20.3219   14.3628 C   0  0  0  0  0  0  0  0  0  0  0  0
    8.6590  -12.7691   20.5995 C   0  0  2  0  0  0  0  0  0  0  0  0
    7.7991  -14.0099   20.6050 C   0  0  0  0  0  0  0  0  0  0  0  0
    6.3585  -13.5679   20.3395 C   0  0  0  0  0  0  0  0  0  0  0  0
    7.7984  -14.5700   22.0081 C   0  0  2  0  0  0  0  0  0  0  0  0
    9.0976  -15.2012   22.3943 N   0  0  0  0  0  0  0  0  0  0  0  0
    9.3526  -16.3178   21.5131 C   0  0  0  0  0  0  0  0  0  0  0  0
    9.1585  -15.5902   23.8221 O   0  0  0  0  0  0  0  0  0  0  0  0
    8.2852  -16.3690   24.2804 C   0  0  0  0  0  0  0  0  0  0  0  0
    9.4796  -13.0739   28.9727 C   0  0  0  0  0  0  0  0  0  0  0  0
    9.6280  -14.4492   28.3425 C   0  0  2  0  0  0  0  0  0  0  0  0
    9.3658  -14.4064   26.8601 C   0  0  0  0  0  0  0  0  0  0  0  0
    7.8867  -14.7172   26.6612 C   0  0  2  0  0  0  0  0  0  0  0  0
   10.2298  -15.3513   26.1022 N   0  0  0  0  0  0  0  0  0  0  0  0
   10.1800  -15.0983   24.6654 C   0  0  0  0  0  0  0  0  0  0  0  0
   10.0417  -16.7815   26.4033 O   0  0  0  0  0  0  0  0  0  0  0  0
    9.6317  -17.7601   25.5233 O   0  0  0  0  0  0  0  0  0  0  0  0
  1  2  1  0
  2  3  2  0
  4  2  1  0
  4  5  1  0
  6  5  1  0
  7  6  1  0
  8  7  1  0
  8  9  1  6
 10  8  1  0
 10 11  2  0
 13 12  1  6
 13 15  1  0
 13 14  1  0
 16 15  1  6
 16 17  1  0
 17 10  1  0
 18 16  1  0
 19 18  2  0
 20 21  1  0
 21 22  1  0
 22 24  1  0
 22 23  1  6
 24 25  1  1
 24 26  1  0
 25 18  1  0
 26 27  1  0
 28 26  2  0
M  END
$$$$
