RLI.pdb
     RDKit          3D

 28 27  0  0  1  0  0  0  0  0999 V2000
    9.5841  -22.2355   20.1000 N   0  0  0  0  0  0  0  0  0  0  0  0
   10.8688  -22.1304   19.5199 C   0  0  0  0  0  0  0  0  0  0  0  0
   11.3028  -23.0020   18.6461 N   0  0  0  0  0  0  0  0  0  0  0  0
   11.7768  -21.0904   19.8317 N   0  0  0  0  0  0  0  0  0  0  0  0
   11.4505  -20.0637   20.7902 C   0  0  0  0  0  0  0  0  0  0  0  0
   10.1104  -19.4420   20.5437 C   0  0  0  0  0  0  0  0  0  0  0  0
    9.6400  -18.4824   21.5775 C   0  0  0  0  0  0  0  0  0  0  0  0
    9.1671  -17.1523   21.0589 C   0  0  2  0  0  0  0  0  0  0  0  0
    9.9274  -16.6579   19.9328 N   0  0  0  0  0  0  0  0  0  0  0  0
    9.2789  -16.1823   22.1829 C   0  0  0  0  0  0  0  0  0  0  0  0
   10.3456  -15.5337   22.3706 O   0  0  0  0  0  0  0  0  0  0  0  0
   12.2759  -22.8715   18.3117 C   0  0  0  0  0  0  0  0  0  0  0  0
    5.8663  -13.1995   26.3065 C   0  0  1  0  0  0  0  0  0  0  0  0
    7.2512  -13.5178   25.7971 C   0  0  0  0  0  0  0  0  0  0  0  0
    7.7835  -12.2605   25.1063 C   0  0  0  0  0  0  0  0  0  0  0  0
    7.1194  -14.5541   24.7057 C   0  0  2  0  0  0  0  0  0  0  0  0
    8.4320  -15.1141   24.2595 N   0  0  0  0  0  0  0  0  0  0  0  0
    8.2142  -15.9354   23.0906 C   0  0  0  0  0  0  0  0  0  0  0  0
    9.1520  -15.8432   25.3290 O   0  0  0  0  0  0  0  0  0  0  0  0
    9.2459  -17.0944   25.2583 C   0  0  0  0  0  0  0  0  0  0  0  0
   10.5050  -12.7363   29.7492 C   0  0  0  0  0  0  0  0  0  0  0  0
   10.8686  -13.5918   28.5464 C   0  0  2  0  0  0  0  0  0  0  0  0
   10.4533  -15.0256   28.7452 C   0  0  0  0  0  0  0  0  0  0  0  0
   11.3884  -15.6180   29.7934 C   0  0  2  0  0  0  0  0  0  0  0  0
   10.4850  -15.8076   27.4798 N   0  0  0  0  0  0  0  0  0  0  0  0
    9.7289  -15.1511   26.4175 C   0  0  0  0  0  0  0  0  0  0  0  0
   10.1278  -17.2327   27.5923 O   0  0  0  0  0  0  0  0  0  0  0  0
   11.0002  -18.2904   27.7345 O   0  0  0  0  0  0  0  0  0  0  0  0
  1  2  1  0
  2  3  2  0
  4  2  1  0
  4  5  1  0
  6  5  1  0
  7  6  1  0
  8  7  1  0
  8  9  1  6
 10  8  1  0
 10 11  2  0
 13 12  1  1
 13 15  1  0
 13 14  1  0
 16 15  1  6
 16 17  1  0
 17 10  1  0
 18 16  1  0
 19 18  2  0
 20 21  1  0
 21 22  1  0
 22 24  1  0
 22 23  1  6
 24 25  1  6
 24 26  1  0
 25 18  1  0
 26 27  1  0
 28 26  2  0
M  END
$$$$
