RLI.pdb
     RDKit          3D

 28 27  0  0  1  0  0  0  0  0999 V2000
    8.0832  -16.3518   15.9090 N   0  0  0  0  0  0  0  0  0  0  0  0
    8.3405  -14.9851   16.1618 C   0  0  0  0  0  0  0  0  0  0  0  0
    7.5941  -14.0386   15.6531 N   0  0  0  0  0  0  0  0  0  0  0  0
    9.4096  -14.5353   16.9729 N   0  0  0  0  0  0  0  0  0  0  0  0
    9.2747  -14.4143   18.4034 C   0  0  0  0  0  0  0  0  0  0  0  0
    7.8492  -14.4674   18.8601 C   0  0  0  0  0  0  0  0  0  0  0  0
    7.6280  -14.2869   20.3193 C   0  0  0  0  0  0  0  0  0  0  0  0
    8.2633  -15.3243   21.2036 C   0  0  2  0  0  0  0  0  0  0  0  0
    7.3587  -16.3717   21.6222 N   0  0  0  0  0  0  0  0  0  0  0  0
    8.7746  -14.6148   22.4086 C   0  0  0  0  0  0  0  0  0  0  0  0
    9.7824  -13.8584   22.3317 O   0  0  0  0  0  0  0  0  0  0  0  0
    7.8541  -13.0656   15.9009 C   0  0  0  0  0  0  0  0  0  0  0  0
    7.0301  -11.5770   24.6047 C   0  0  2  0  0  0  0  0  0  0  0  0
    6.5290  -12.9371   25.0265 C   0  0  0  0  0  0  0  0  0  0  0  0
    5.4419  -12.7162   26.0804 C   0  0  0  0  0  0  0  0  0  0  0  0
    7.6527  -13.6450   25.7464 C   0  0  2  0  0  0  0  0  0  0  0  0
    8.7529  -14.0878   24.8360 N   0  0  0  0  0  0  0  0  0  0  0  0
    8.1709  -14.7449   23.6880 C   0  0  0  0  0  0  0  0  0  0  0  0
    9.7666  -14.9322   25.5094 O   0  0  0  0  0  0  0  0  0  0  0  0
   10.9853  -14.6907   25.3204 C   0  0  0  0  0  0  0  0  0  0  0  0
    9.8887  -14.1714   30.1112 C   0  0  0  0  0  0  0  0  0  0  0  0
   10.4305  -14.7235   28.8027 C   0  0  2  0  0  0  0  0  0  0  0  0
   10.1419  -16.1951   28.6647 C   0  0  0  0  0  0  0  0  0  0  0  0
   11.0856  -16.9241   29.6144 C   0  0  2  0  0  0  0  0  0  0  0  0
   10.2955  -16.6761   27.2652 N   0  0  0  0  0  0  0  0  0  0  0  0
    9.3792  -15.9963   26.3544 C   0  0  0  0  0  0  0  0  0  0  0  0
   10.2560  -18.1370   27.0765 O   0  0  0  0  0  0  0  0  0  0  0  0
   11.3204  -19.0076   27.1727 O   0  0  0  0  0  0  0  0  0  0  0  0
  1  2  1  0
  2  3  2  0
  4  2  1  0
  4  5  1  0
  6  5  1  0
  7  6  1  0
  8  7  1  0
  8  9  1  1
 10  8  1  0
 10 11  2  0
 13 12  1  6
 13 15  1  0
 13 14  1  0
 16 15  1  6
 16 17  1  0
 17 10  1  0
 18 16  1  0
 19 18  2  0
 20 21  1  0
 21 22  1  0
 22 24  1  0
 22 23  1  6
 24 25  1  6
 24 26  1  0
 25 18  1  0
 26 27  1  0
 28 26  2  0
M  END
$$$$
