RLI.pdb
     RDKit          3D

 28 27  0  0  1  0  0  0  0  0999 V2000
    7.9811  -12.7015   16.9292 N   0  0  0  0  0  0  0  0  0  0  0  0
    8.2267  -13.8777   16.1849 C   0  0  0  0  0  0  0  0  0  0  0  0
    8.2611  -13.8702   14.8771 N   0  0  0  0  0  0  0  0  0  0  0  0
    8.4520  -15.1403   16.7837 N   0  0  0  0  0  0  0  0  0  0  0  0
    7.6622  -15.6001   17.8991 C   0  0  0  0  0  0  0  0  0  0  0  0
    7.5403  -14.5777   18.9867 C   0  0  0  0  0  0  0  0  0  0  0  0
    8.6615  -14.5309   19.9621 C   0  0  0  0  0  0  0  0  0  0  0  0
    8.7654  -15.7129   20.8863 C   0  0  2  0  0  0  0  0  0  0  0  0
    7.5716  -16.5271   20.9335 N   0  0  0  0  0  0  0  0  0  0  0  0
    9.0416  -15.1776   22.2479 C   0  0  0  0  0  0  0  0  0  0  0  0
   10.1077  -14.5453   22.4876 O   0  0  0  0  0  0  0  0  0  0  0  0
    8.4807  -14.7740   14.4183 C   0  0  0  0  0  0  0  0  0  0  0  0
    7.4908  -12.0243   25.0357 C   0  0  2  0  0  0  0  0  0  0  0  0
    6.5561  -13.1808   24.7755 C   0  0  0  0  0  0  0  0  0  0  0  0
    5.3011  -12.9523   25.6206 C   0  0  0  0  0  0  0  0  0  0  0  0
    7.1960  -14.4313   25.3314 C   0  0  2  0  0  0  0  0  0  0  0  0
    8.4651  -14.8064   24.6355 N   0  0  0  0  0  0  0  0  0  0  0  0
    8.1407  -15.3437   23.3337 C   0  0  0  0  0  0  0  0  0  0  0  0
    9.3159  -15.7271   25.4243 O   0  0  0  0  0  0  0  0  0  0  0  0
    9.6591  -16.8252   24.9187 C   0  0  0  0  0  0  0  0  0  0  0  0
   10.8796  -14.2293   30.7972 C   0  0  0  0  0  0  0  0  0  0  0  0
   10.2364  -15.0647   29.7021 C   0  0  2  0  0  0  0  0  0  0  0  0
   11.2402  -15.4632   28.6526 C   0  0  0  0  0  0  0  0  0  0  0  0
   11.9005  -14.1808   28.1594 C   0  0  1  0  0  0  0  0  0  0  0  0
   10.6216  -16.2249   27.5341 N   0  0  0  0  0  0  0  0  0  0  0  0
    9.7411  -15.3849   26.7277 C   0  0  0  0  0  0  0  0  0  0  0  0
    9.9674  -17.4933   27.9008 O   0  0  0  0  0  0  0  0  0  0  0  0
   10.5888  -18.6407   28.3450 O   0  0  0  0  0  0  0  0  0  0  0  0
  1  2  1  0
  2  3  2  0
  4  2  1  0
  4  5  1  0
  6  5  1  0
  7  6  1  0
  8  7  1  0
  8  9  1  1
 10  8  1  0
 10 11  2  0
 13 12  1  6
 13 15  1  0
 13 14  1  0
 16 15  1  6
 16 17  1  0
 17 10  1  0
 18 16  1  0
 19 18  2  0
 20 21  1  0
 21 22  1  0
 22 24  1  0
 22 23  1  1
 24 25  1  6
 24 26  1  0
 25 18  1  0
 26 27  1  0
 28 26  2  0
M  END
$$$$
