RLI.pdb
     RDKit          3D

 28 27  0  0  1  0  0  0  0  0999 V2000
    7.2786  -18.3490   27.8740 N   0  0  0  0  0  0  0  0  0  0  0  0
    7.0193  -19.7142   27.6154 C   0  0  0  0  0  0  0  0  0  0  0  0
    6.1735  -20.4031   28.3377 N   0  0  0  0  0  0  0  0  0  0  0  0
    7.6433  -20.4368   26.5705 N   0  0  0  0  0  0  0  0  0  0  0  0
    8.5517  -19.8008   25.6487 C   0  0  0  0  0  0  0  0  0  0  0  0
    7.8582  -19.2238   24.4531 C   0  0  0  0  0  0  0  0  0  0  0  0
    7.9568  -20.0177   23.1998 C   0  0  0  0  0  0  0  0  0  0  0  0
    7.3398  -19.3853   21.9827 C   0  0  2  0  0  0  0  0  0  0  0  0
    7.4735  -20.1759   20.7795 N   0  0  0  0  0  0  0  0  0  0  0  0
    8.0196  -18.0761   21.7807 C   0  0  0  0  0  0  0  0  0  0  0  0
    9.2606  -18.0224   21.5558 O   0  0  0  0  0  0  0  0  0  0  0  0
    6.0920  -21.4121   28.1119 C   0  0  0  0  0  0  0  0  0  0  0  0
    6.5866  -12.3443   20.2427 C   0  0  1  0  0  0  0  0  0  0  0  0
    7.6961  -13.3219   20.5466 C   0  0  0  0  0  0  0  0  0  0  0  0
    8.4513  -13.5756   19.2402 C   0  0  0  0  0  0  0  0  0  0  0  0
    7.0646  -14.6446   20.9124 C   0  0  2  0  0  0  0  0  0  0  0  0
    8.0223  -15.6034   21.5440 N   0  0  0  0  0  0  0  0  0  0  0  0
    7.3259  -16.8372   21.8284 C   0  0  0  0  0  0  0  0  0  0  0  0
    8.6975  -15.0533   22.7421 O   0  0  0  0  0  0  0  0  0  0  0  0
    9.6289  -14.2234   22.5908 C   0  0  0  0  0  0  0  0  0  0  0  0
    6.0973  -12.2717   25.7985 C   0  0  0  0  0  0  0  0  0  0  0  0
    7.2238  -13.0030   25.0865 C   0  0  2  0  0  0  0  0  0  0  0  0
    7.8611  -14.0346   25.9794 C   0  0  0  0  0  0  0  0  0  0  0  0
    8.4928  -13.2834   27.1459 C   0  0  2  0  0  0  0  0  0  0  0  0
    8.8614  -14.8691   25.2606 N   0  0  0  0  0  0  0  0  0  0  0  0
    8.3074  -15.4496   24.0411 C   0  0  0  0  0  0  0  0  0  0  0  0
    9.5576  -15.8839   26.0711 O   0  0  0  0  0  0  0  0  0  0  0  0
   10.6833  -15.6894   26.8427 O   0  0  0  0  0  0  0  0  0  0  0  0
  1  2  1  0
  2  3  2  0
  4  2  1  0
  4  5  1  0
  6  5  1  0
  7  6  1  0
  8  7  1  0
  8  9  1  6
 10  8  1  0
 10 11  2  0
 13 12  1  1
 13 15  1  0
 13 14  1  0
 16 15  1  6
 16 17  1  0
 17 10  1  0
 18 16  1  0
 19 18  2  0
 20 21  1  0
 21 22  1  0
 22 24  1  0
 22 23  1  1
 24 25  1  6
 24 26  1  0
 25 18  1  0
 26 27  1  0
 28 26  2  0
M  END
$$$$
