RLI.pdb
     RDKit          3D

 28 27  0  0  1  0  0  0  0  0999 V2000
    8.3733  -22.3554   17.3153 N   0  0  0  0  0  0  0  0  0  0  0  0
    8.3122  -21.3513   18.3082 C   0  0  0  0  0  0  0  0  0  0  0  0
    7.6192  -21.5105   19.4065 N   0  0  0  0  0  0  0  0  0  0  0  0
    8.9848  -20.1109   18.1979 N   0  0  0  0  0  0  0  0  0  0  0  0
    8.8465  -19.0837   19.2004 C   0  0  0  0  0  0  0  0  0  0  0  0
    9.9581  -19.0967   20.2042 C   0  0  0  0  0  0  0  0  0  0  0  0
    9.9821  -17.9588   21.1609 C   0  0  0  0  0  0  0  0  0  0  0  0
    8.6404  -17.5232   21.6826 C   0  0  2  0  0  0  0  0  0  0  0  0
    7.6907  -17.1830   20.6469 N   0  0  0  0  0  0  0  0  0  0  0  0
    8.8738  -16.3275   22.5385 C   0  0  0  0  0  0  0  0  0  0  0  0
    9.9349  -15.6527   22.4273 O   0  0  0  0  0  0  0  0  0  0  0  0
    7.6786  -20.7436   20.1022 C   0  0  0  0  0  0  0  0  0  0  0  0
    5.7937  -12.7132   26.4541 C   0  0  1  0  0  0  0  0  0  0  0  0
    7.1301  -13.0415   25.8335 C   0  0  0  0  0  0  0  0  0  0  0  0
    7.4929  -11.8886   24.8950 C   0  0  0  0  0  0  0  0  0  0  0  0
    6.9460  -14.2467   24.9415 C   0  0  2  0  0  0  0  0  0  0  0  0
    8.2186  -14.7192   24.3146 N   0  0  0  0  0  0  0  0  0  0  0  0
    7.9358  -15.8855   23.5096 C   0  0  0  0  0  0  0  0  0  0  0  0
    9.2992  -14.9663   25.2970 O   0  0  0  0  0  0  0  0  0  0  0  0
   10.2645  -14.1638   25.3575 C   0  0  0  0  0  0  0  0  0  0  0  0
    9.3426  -13.3889   29.5909 C   0  0  0  0  0  0  0  0  0  0  0  0
    9.8494  -14.0915   28.3419 C   0  0  2  0  0  0  0  0  0  0  0  0
    9.7863  -15.5889   28.4888 C   0  0  0  0  0  0  0  0  0  0  0  0
   10.6762  -15.9575   29.6705 C   0  0  2  0  0  0  0  0  0  0  0  0
   10.2009  -16.3000   27.2494 N   0  0  0  0  0  0  0  0  0  0  0  0
    9.2547  -16.0853   26.1586 C   0  0  0  0  0  0  0  0  0  0  0  0
   10.5289  -17.7283   27.4035 O   0  0  0  0  0  0  0  0  0  0  0  0
    9.8668  -18.7909   26.8268 O   0  0  0  0  0  0  0  0  0  0  0  0
  1  2  1  0
  2  3  2  0
  4  2  1  0
  4  5  1  0
  6  5  1  0
  7  6  1  0
  8  7  1  0
  8  9  1  6
 10  8  1  0
 10 11  2  0
 13 12  1  1
 13 15  1  0
 13 14  1  0
 16 15  1  6
 16 17  1  0
 17 10  1  0
 18 16  1  0
 19 18  2  0
 20 21  1  0
 21 22  1  0
 22 24  1  0
 22 23  1  6
 24 25  1  6
 24 26  1  0
 25 18  1  0
 26 27  1  0
 28 26  2  0
M  END
$$$$
