RLI.pdb
     RDKit          3D

 28 27  0  0  1  0  0  0  0  0999 V2000
    9.2717  -20.7390   19.1379 N   0  0  0  0  0  0  0  0  0  0  0  0
   10.6213  -21.1443   19.2487 C   0  0  0  0  0  0  0  0  0  0  0  0
   11.2299  -21.7823   18.2821 N   0  0  0  0  0  0  0  0  0  0  0  0
   11.4125  -20.8975   20.3960 N   0  0  0  0  0  0  0  0  0  0  0  0
   10.9272  -20.0942   21.4908 C   0  0  0  0  0  0  0  0  0  0  0  0
   10.0631  -18.9570   21.0400 C   0  0  0  0  0  0  0  0  0  0  0  0
    9.5133  -18.0928   22.1177 C   0  0  0  0  0  0  0  0  0  0  0  0
    8.4985  -17.0742   21.6765 C   0  0  2  0  0  0  0  0  0  0  0  0
    8.6279  -16.6792   20.2917 N   0  0  0  0  0  0  0  0  0  0  0  0
    8.6801  -15.8761   22.5416 C   0  0  0  0  0  0  0  0  0  0  0  0
    9.7244  -15.1719   22.4559 O   0  0  0  0  0  0  0  0  0  0  0  0
   12.1796  -22.1407   18.4951 C   0  0  0  0  0  0  0  0  0  0  0  0
    5.4478  -12.6861   26.6576 C   0  0  1  0  0  0  0  0  0  0  0  0
    6.7572  -12.7608   25.9099 C   0  0  0  0  0  0  0  0  0  0  0  0
    6.9358  -11.4341   25.1688 C   0  0  0  0  0  0  0  0  0  0  0  0
    6.6193  -13.8108   24.8326 C   0  0  2  0  0  0  0  0  0  0  0  0
    7.9318  -14.2806   24.2923 N   0  0  0  0  0  0  0  0  0  0  0  0
    7.7095  -15.4643   23.4936 C   0  0  0  0  0  0  0  0  0  0  0  0
    8.9536  -14.4982   25.3423 O   0  0  0  0  0  0  0  0  0  0  0  0
    9.4393  -13.5034   25.9369 C   0  0  0  0  0  0  0  0  0  0  0  0
    9.8120  -13.2459   29.2681 C   0  0  0  0  0  0  0  0  0  0  0  0
   10.1442  -13.9114   27.9423 C   0  0  2  0  0  0  0  0  0  0  0  0
    9.9635  -15.4047   28.0156 C   0  0  0  0  0  0  0  0  0  0  0  0
   10.8080  -15.8977   29.1850 C   0  0  2  0  0  0  0  0  0  0  0  0
   10.3365  -16.0856   26.7463 N   0  0  0  0  0  0  0  0  0  0  0  0
    9.3828  -15.8019   25.6781 C   0  0  0  0  0  0  0  0  0  0  0  0
   10.6183  -17.5285   26.8464 O   0  0  0  0  0  0  0  0  0  0  0  0
   11.8051  -18.1092   27.2394 O   0  0  0  0  0  0  0  0  0  0  0  0
  1  2  1  0
  2  3  2  0
  4  2  1  0
  4  5  1  0
  6  5  1  0
  7  6  1  0
  8  7  1  0
  8  9  1  6
 10  8  1  0
 10 11  2  0
 13 12  1  1
 13 15  1  0
 13 14  1  0
 16 15  1  6
 16 17  1  0
 17 10  1  0
 18 16  1  0
 19 18  2  0
 20 21  1  0
 21 22  1  0
 22 24  1  0
 22 23  1  6
 24 25  1  6
 24 26  1  0
 25 18  1  0
 26 27  1  0
 28 26  2  0
M  END
$$$$
