RLI.pdb
     RDKit          3D

 28 27  0  0  1  0  0  0  0  0999 V2000
    8.3345  -19.4148   25.6514 N   0  0  0  0  0  0  0  0  0  0  0  0
    7.2875  -20.1949   25.1100 C   0  0  0  0  0  0  0  0  0  0  0  0
    6.6265  -21.0592   25.8364 N   0  0  0  0  0  0  0  0  0  0  0  0
    6.8747  -20.1066   23.7590 N   0  0  0  0  0  0  0  0  0  0  0  0
    7.7874  -19.7158   22.7133 C   0  0  0  0  0  0  0  0  0  0  0  0
    7.7228  -18.2523   22.4014 C   0  0  0  0  0  0  0  0  0  0  0  0
    8.5854  -17.7883   21.2828 C   0  0  0  0  0  0  0  0  0  0  0  0
    8.5873  -16.3043   21.0391 C   0  0  2  0  0  0  0  0  0  0  0  0
    9.6255  -15.8594   20.1365 N   0  0  0  0  0  0  0  0  0  0  0  0
    8.7793  -15.6466   22.3610 C   0  0  0  0  0  0  0  0  0  0  0  0
    9.9203  -15.6036   22.8996 O   0  0  0  0  0  0  0  0  0  0  0  0
    5.9276  -21.6400   25.3366 C   0  0  0  0  0  0  0  0  0  0  0  0
    6.6353  -13.3302   26.8707 C   0  0  1  0  0  0  0  0  0  0  0  0
    7.1256  -12.4550   25.7427 C   0  0  0  0  0  0  0  0  0  0  0  0
    6.1567  -11.2766   25.6251 C   0  0  0  0  0  0  0  0  0  0  0  0
    6.9786  -13.2298   24.4541 C   0  0  2  0  0  0  0  0  0  0  0  0
    7.9742  -14.3362   24.3117 N   0  0  0  0  0  0  0  0  0  0  0  0
    7.7124  -15.0418   23.0781 C   0  0  0  0  0  0  0  0  0  0  0  0
    8.0100  -15.2462   25.4798 O   0  0  0  0  0  0  0  0  0  0  0  0
    7.3091  -16.2892   25.4628 C   0  0  0  0  0  0  0  0  0  0  0  0
   13.4743  -14.8803   28.2522 C   0  0  0  0  0  0  0  0  0  0  0  0
   12.2841  -15.7563   27.8963 C   0  0  2  0  0  0  0  0  0  0  0  0
   11.1104  -14.9310   27.4393 C   0  0  0  0  0  0  0  0  0  0  0  0
   10.7312  -14.0170   28.5990 C   0  0  2  0  0  0  0  0  0  0  0  0
    9.9603  -15.7691   27.0051 N   0  0  0  0  0  0  0  0  0  0  0  0
    8.8175  -14.9550   26.6021 C   0  0  0  0  0  0  0  0  0  0  0  0
    9.5567  -16.8414   27.9317 O   0  0  0  0  0  0  0  0  0  0  0  0
   10.2771  -17.9751   28.2413 O   0  0  0  0  0  0  0  0  0  0  0  0
  1  2  1  0
  2  3  2  0
  4  2  1  0
  4  5  1  0
  6  5  1  0
  7  6  1  0
  8  7  1  0
  8  9  1  6
 10  8  1  0
 10 11  2  0
 13 12  1  1
 13 15  1  0
 13 14  1  0
 16 15  1  6
 16 17  1  0
 17 10  1  0
 18 16  1  0
 19 18  2  0
 20 21  1  0
 21 22  1  0
 22 24  1  0
 22 23  1  6
 24 25  1  1
 24 26  1  0
 25 18  1  0
 26 27  1  0
 28 26  2  0
M  END
$$$$
