RLI.pdb
     RDKit          3D

 28 27  0  0  1  0  0  0  0  0999 V2000
   15.7736  -20.5715   19.9967 N   0  0  0  0  0  0  0  0  0  0  0  0
   14.8331  -20.4894   18.9447 C   0  0  0  0  0  0  0  0  0  0  0  0
   15.1455  -20.8104   17.7154 N   0  0  0  0  0  0  0  0  0  0  0  0
   13.4974  -20.0601   19.1317 N   0  0  0  0  0  0  0  0  0  0  0  0
   13.0033  -19.6687   20.4286 C   0  0  0  0  0  0  0  0  0  0  0  0
   11.5907  -19.1727   20.3878 C   0  0  0  0  0  0  0  0  0  0  0  0
   11.0454  -18.6602   21.6727 C   0  0  0  0  0  0  0  0  0  0  0  0
    9.6355  -18.1399   21.6160 C   0  0  2  0  0  0  0  0  0  0  0  0
    8.9381  -18.4677   20.3927 N   0  0  0  0  0  0  0  0  0  0  0  0
    9.7126  -16.6589   21.7485 C   0  0  0  0  0  0  0  0  0  0  0  0
   10.8299  -16.0719   21.7769 O   0  0  0  0  0  0  0  0  0  0  0  0
   14.4022  -20.6802   17.0038 C   0  0  0  0  0  0  0  0  0  0  0  0
    8.7431  -13.2131   19.2860 C   0  0  2  0  0  0  0  0  0  0  0  0
    7.5667  -13.9444   19.8861 C   0  0  0  0  0  0  0  0  0  0  0  0
    6.2962  -13.2619   19.3751 C   0  0  0  0  0  0  0  0  0  0  0  0
    7.5819  -13.7064   21.3779 C   0  0  2  0  0  0  0  0  0  0  0  0
    8.6943  -14.4175   22.0796 N   0  0  0  0  0  0  0  0  0  0  0  0
    8.5579  -15.8374   21.8485 C   0  0  0  0  0  0  0  0  0  0  0  0
    8.7806  -14.0914   23.5218 O   0  0  0  0  0  0  0  0  0  0  0  0
    9.1186  -12.9310   23.8662 C   0  0  0  0  0  0  0  0  0  0  0  0
    6.2592  -11.7626   26.1400 C   0  0  0  0  0  0  0  0  0  0  0  0
    7.4793  -12.5820   25.7517 C   0  0  2  0  0  0  0  0  0  0  0  0
    7.4663  -13.9353   26.4122 C   0  0  0  0  0  0  0  0  0  0  0  0
    7.5437  -13.6967   27.9159 C   0  0  2  0  0  0  0  0  0  0  0  0
    8.5735  -14.8095   25.9395 N   0  0  0  0  0  0  0  0  0  0  0  0
    8.4888  -15.0639   24.5045 C   0  0  0  0  0  0  0  0  0  0  0  0
    8.7786  -16.0575   26.6957 O   0  0  0  0  0  0  0  0  0  0  0  0
    8.7384  -17.3401   26.1923 O   0  0  0  0  0  0  0  0  0  0  0  0
  1  2  1  0
  2  3  2  0
  4  2  1  0
  4  5  1  0
  6  5  1  0
  7  6  1  0
  8  7  1  0
  8  9  1  6
 10  8  1  0
 10 11  2  0
 13 12  1  6
 13 15  1  0
 13 14  1  0
 16 15  1  6
 16 17  1  0
 17 10  1  0
 18 16  1  0
 19 18  2  0
 20 21  1  0
 21 22  1  0
 22 24  1  0
 22 23  1  6
 24 25  1  1
 24 26  1  0
 25 18  1  0
 26 27  1  0
 28 26  2  0
M  END
$$$$
