RLI.pdb
     RDKit          3D

 28 27  0  0  1  0  0  0  0  0999 V2000
   10.4804  -20.6726   16.2692 N   0  0  0  0  0  0  0  0  0  0  0  0
   11.7145  -21.2646   16.6218 C   0  0  0  0  0  0  0  0  0  0  0  0
   12.1022  -22.4046   16.1101 N   0  0  0  0  0  0  0  0  0  0  0  0
   12.6178  -20.6823   17.5427 N   0  0  0  0  0  0  0  0  0  0  0  0
   12.3127  -19.4487   18.2243 C   0  0  0  0  0  0  0  0  0  0  0  0
   10.9370  -19.4358   18.8163 C   0  0  0  0  0  0  0  0  0  0  0  0
   10.5152  -18.1587   19.4504 C   0  0  0  0  0  0  0  0  0  0  0  0
   10.1549  -18.2475   20.9078 C   0  0  2  0  0  0  0  0  0  0  0  0
    8.8450  -18.8074   21.1551 N   0  0  0  0  0  0  0  0  0  0  0  0
   10.2013  -16.8627   21.4526 C   0  0  0  0  0  0  0  0  0  0  0  0
   11.2763  -16.2009   21.4397 O   0  0  0  0  0  0  0  0  0  0  0  0
   13.0391  -22.7427   16.3992 C   0  0  0  0  0  0  0  0  0  0  0  0
    8.4422  -12.8726   20.1814 C   0  0  2  0  0  0  0  0  0  0  0  0
    7.5414  -13.9777   20.6774 C   0  0  0  0  0  0  0  0  0  0  0  0
    6.1026  -13.4627   20.6005 C   0  0  0  0  0  0  0  0  0  0  0  0
    7.8201  -14.1814   22.1481 C   0  0  2  0  0  0  0  0  0  0  0  0
    9.1379  -14.8349   22.4160 N   0  0  0  0  0  0  0  0  0  0  0  0
    9.0627  -16.2189   22.0070 C   0  0  0  0  0  0  0  0  0  0  0  0
    9.5893  -14.6902   23.8192 O   0  0  0  0  0  0  0  0  0  0  0  0
   10.3875  -13.7645   24.1113 C   0  0  0  0  0  0  0  0  0  0  0  0
    7.1799  -12.7397   27.6431 C   0  0  0  0  0  0  0  0  0  0  0  0
    7.6009  -13.8627   26.7091 C   0  0  2  0  0  0  0  0  0  0  0  0
    9.0875  -14.0966   26.7645 C   0  0  0  0  0  0  0  0  0  0  0  0
    9.7444  -12.9704   25.9746 C   0  0  1  0  0  0  0  0  0  0  0  0
    9.4732  -15.4327   26.2356 N   0  0  0  0  0  0  0  0  0  0  0  0
    9.1347  -15.5750   24.8227 C   0  0  0  0  0  0  0  0  0  0  0  0
    9.0144  -16.5939   27.0182 O   0  0  0  0  0  0  0  0  0  0  0  0
    8.2350  -17.6359   26.5634 O   0  0  0  0  0  0  0  0  0  0  0  0
  1  2  1  0
  2  3  2  0
  4  2  1  0
  4  5  1  0
  6  5  1  0
  7  6  1  0
  8  7  1  0
  8  9  1  6
 10  8  1  0
 10 11  2  0
 13 12  1  6
 13 15  1  0
 13 14  1  0
 16 15  1  6
 16 17  1  0
 17 10  1  0
 18 16  1  0
 19 18  2  0
 20 21  1  0
 21 22  1  0
 22 24  1  0
 22 23  1  1
 24 25  1  6
 24 26  1  0
 25 18  1  0
 26 27  1  0
 28 26  2  0
M  END
$$$$
