RLI.pdb
     RDKit          3D

 28 27  0  0  1  0  0  0  0  0999 V2000
    8.0016  -15.4080   15.9530 N   0  0  0  0  0  0  0  0  0  0  0  0
    7.8785  -14.0037   16.0568 C   0  0  0  0  0  0  0  0  0  0  0  0
    8.1001  -13.2159   15.0361 N   0  0  0  0  0  0  0  0  0  0  0  0
    7.5111  -13.3448   17.2545 N   0  0  0  0  0  0  0  0  0  0  0  0
    8.0123  -13.7724   18.5372 C   0  0  0  0  0  0  0  0  0  0  0  0
    8.7562  -15.0705   18.4681 C   0  0  0  0  0  0  0  0  0  0  0  0
    9.7068  -15.3338   19.5807 C   0  0  0  0  0  0  0  0  0  0  0  0
    9.2070  -16.2619   20.6534 C   0  0  2  0  0  0  0  0  0  0  0  0
    7.8393  -16.6920   20.4662 N   0  0  0  0  0  0  0  0  0  0  0  0
    9.3128  -15.5303   21.9458 C   0  0  0  0  0  0  0  0  0  0  0  0
   10.3625  -14.8947   22.2422 O   0  0  0  0  0  0  0  0  0  0  0  0
    8.0717  -12.1970   15.2277 C   0  0  0  0  0  0  0  0  0  0  0  0
    5.9088  -13.1131   26.3768 C   0  0  1  0  0  0  0  0  0  0  0  0
    7.2920  -13.3958   25.8421 C   0  0  0  0  0  0  0  0  0  0  0  0
    7.8319  -12.0882   25.2593 C   0  0  0  0  0  0  0  0  0  0  0  0
    7.1543  -14.3360   24.6676 C   0  0  2  0  0  0  0  0  0  0  0  0
    8.4622  -14.8777   24.1866 N   0  0  0  0  0  0  0  0  0  0  0  0
    8.2611  -15.5054   22.9005 C   0  0  0  0  0  0  0  0  0  0  0  0
    9.1122  -15.7879   25.1576 O   0  0  0  0  0  0  0  0  0  0  0  0
    9.3877  -16.9619   24.8039 C   0  0  0  0  0  0  0  0  0  0  0  0
   10.2502  -13.2887   29.9527 C   0  0  0  0  0  0  0  0  0  0  0  0
   10.5884  -13.9888   28.6464 C   0  0  2  0  0  0  0  0  0  0  0  0
   10.3241  -15.4690   28.7308 C   0  0  0  0  0  0  0  0  0  0  0  0
   11.4333  -16.0704   29.5864 C   0  0  2  0  0  0  0  0  0  0  0  0
   10.2574  -16.1121   27.3908 N   0  0  0  0  0  0  0  0  0  0  0  0
    9.4226  -15.3521   26.4654 C   0  0  0  0  0  0  0  0  0  0  0  0
    9.9082  -17.5436   27.3784 O   0  0  0  0  0  0  0  0  0  0  0  0
   10.7882  -18.6047   27.3693 O   0  0  0  0  0  0  0  0  0  0  0  0
  1  2  1  0
  2  3  2  0
  4  2  1  0
  4  5  1  0
  6  5  1  0
  7  6  1  0
  8  7  1  0
  8  9  1  6
 10  8  1  0
 10 11  2  0
 13 12  1  1
 13 15  1  0
 13 14  1  0
 16 15  1  6
 16 17  1  0
 17 10  1  0
 18 16  1  0
 19 18  2  0
 20 21  1  0
 21 22  1  0
 22 24  1  0
 22 23  1  6
 24 25  1  6
 24 26  1  0
 25 18  1  0
 26 27  1  0
 28 26  2  0
M  END
$$$$
