RLI.pdb
     RDKit          3D

 28 27  0  0  1  0  0  0  0  0999 V2000
    7.9619  -21.2274   18.4246 N   0  0  0  0  0  0  0  0  0  0  0  0
    8.1875  -19.9001   17.9944 C   0  0  0  0  0  0  0  0  0  0  0  0
    7.2124  -19.1403   17.5657 N   0  0  0  0  0  0  0  0  0  0  0  0
    9.4662  -19.2934   17.9920 N   0  0  0  0  0  0  0  0  0  0  0  0
   10.6303  -19.9806   18.4940 C   0  0  0  0  0  0  0  0  0  0  0  0
   10.5436  -20.2782   19.9593 C   0  0  0  0  0  0  0  0  0  0  0  0
   11.2733  -19.3430   20.8558 C   0  0  0  0  0  0  0  0  0  0  0  0
   10.5021  -18.8598   22.0531 C   0  0  2  0  0  0  0  0  0  0  0  0
    9.1554  -19.3800   22.1324 N   0  0  0  0  0  0  0  0  0  0  0  0
   10.4438  -17.3747   21.9627 C   0  0  0  0  0  0  0  0  0  0  0  0
   11.5035  -16.6900   21.9173 O   0  0  0  0  0  0  0  0  0  0  0  0
    7.4671  -18.1687   17.3072 C   0  0  0  0  0  0  0  0  0  0  0  0
    6.4969  -12.8345   20.8489 C   0  0  1  0  0  0  0  0  0  0  0  0
    7.8918  -13.1948   21.2998 C   0  0  0  0  0  0  0  0  0  0  0  0
    8.8641  -12.6624   20.2451 C   0  0  0  0  0  0  0  0  0  0  0  0
    8.0239  -14.6989   21.2492 C   0  0  2  0  0  0  0  0  0  0  0  0
    9.2200  -15.2132   21.9843 N   0  0  0  0  0  0  0  0  0  0  0  0
    9.2185  -16.6570   21.9230 C   0  0  0  0  0  0  0  0  0  0  0  0
    9.3130  -14.7126   23.3752 O   0  0  0  0  0  0  0  0  0  0  0  0
    9.3856  -13.4739   23.5745 C   0  0  0  0  0  0  0  0  0  0  0  0
    6.8908  -12.1026   25.6962 C   0  0  0  0  0  0  0  0  0  0  0  0
    8.0718  -13.0007   25.3653 C   0  0  2  0  0  0  0  0  0  0  0  0
    7.9525  -14.3394   26.0445 C   0  0  0  0  0  0  0  0  0  0  0  0
    7.6822  -14.0668   27.5199 C   0  0  2  0  0  0  0  0  0  0  0  0
    9.1643  -15.1822   25.8573 N   0  0  0  0  0  0  0  0  0  0  0  0
    9.3205  -15.6066   24.4693 C   0  0  0  0  0  0  0  0  0  0  0  0
    9.3117  -16.3164   26.7864 O   0  0  0  0  0  0  0  0  0  0  0  0
    9.9835  -16.3115   27.9900 O   0  0  0  0  0  0  0  0  0  0  0  0
  1  2  1  0
  2  3  2  0
  4  2  1  0
  4  5  1  0
  6  5  1  0
  7  6  1  0
  8  7  1  0
  8  9  1  6
 10  8  1  0
 10 11  2  0
 13 12  1  1
 13 15  1  0
 13 14  1  0
 16 15  1  6
 16 17  1  0
 17 10  1  0
 18 16  1  0
 19 18  2  0
 20 21  1  0
 21 22  1  0
 22 24  1  0
 22 23  1  6
 24 25  1  1
 24 26  1  0
 25 18  1  0
 26 27  1  0
 28 26  2  0
M  END
$$$$
