SLW.pdb
     RDKit          3D

 29 30  0  0  1  0  0  0  0  0999 V2000
    4.7394  -19.5892   22.1743 O   0  0  0  0  0  0  0  0  0  0  0  0
    6.0593  -19.1548   22.1915 C   0  0  0  0  0  0  0  0  0  0  0  0
    6.3412  -18.4125   20.9015 C   0  0  2  0  0  0  0  0  0  0  0  0
    6.5362  -19.4073   19.8649 N   0  0  0  0  0  0  0  0  0  0  0  0
    7.5343  -17.5562   20.9878 C   0  0  0  0  0  0  0  0  0  0  0  0
    8.6730  -18.0768   20.8749 O   0  0  0  0  0  0  0  0  0  0  0  0
    8.6053  -14.2355   18.6510 C   0  0  0  0  0  0  0  0  0  0  0  0
    7.6349  -13.7996   19.7021 C   0  0  2  0  0  0  0  0  0  0  0  0
    7.2244  -12.3587   19.4679 C   0  0  0  0  0  0  0  0  0  0  0  0
    8.2136  -13.8878   21.0722 C   0  0  0  0  0  0  0  0  0  0  0  0
    8.5620  -15.2942   21.5145 C   0  0  2  0  0  0  0  0  0  0  0  0
    7.4310  -16.1646   21.1944 N   0  0  0  0  0  0  0  0  0  0  0  0
    8.7764  -15.2326   22.9703 C   0  0  0  0  0  0  0  0  0  0  0  0
    7.8559  -14.8638   23.7138 O   0  0  0  0  0  0  0  0  0  0  0  0
   10.0250  -15.5938   23.5024 N   0  0  0  0  0  0  0  0  0  0  0  0
   10.3444  -15.5857   24.9350 C   0  0  1  0  0  0  0  0  0  0  0  0
    9.3023  -16.2949   25.7134 C   0  0  0  0  0  0  0  0  0  0  0  0
    8.0686  -15.5191   25.8578 C   0  0  0  0  0  0  0  0  0  0  0  0
    6.8244  -16.0323   25.4632 C   0  0  0  0  0  0  0  0  0  0  0  0
    5.9250  -15.0752   25.6917 N   0  0  0  0  0  0  0  0  0  0  0  0
    6.5196  -13.9920   26.2050 C   0  0  0  0  0  0  0  0  0  0  0  0
    5.9595  -12.7852   26.6000 C   0  0  0  0  0  0  0  0  0  0  0  0
    6.7943  -11.8277   27.1205 C   0  0  0  0  0  0  0  0  0  0  0  0
    8.1595  -12.0856   27.2376 C   0  0  0  0  0  0  0  0  0  0  0  0
    8.7057  -13.2925   26.8396 C   0  0  0  0  0  0  0  0  0  0  0  0
    7.8699  -14.2429   26.3211 C   0  0  0  0  0  0  0  0  0  0  0  0
   11.7295  -15.9513   25.1166 C   0  0  0  0  0  0  0  0  0  0  0  0
   12.5597  -15.6243   26.1799 O   0  0  0  0  0  0  0  0  0  0  0  0
   12.3019  -16.6563   24.2122 O   0  0  0  0  0  0  0  0  0  0  0  0
  1  2  1  0
  2  3  1  0
  3  5  1  0
  3  4  1  6
  5  6  2  0
  8 10  1  0
  8  7  1  6
  9  8  1  0
 11 10  1  1
 11 13  1  0
 12  5  1  0
 12 11  1  0
 13 14  2  0
 15 13  1  0
 15 16  1  0
 16 27  1  0
 16 17  1  1
 18 19  2  0
 18 17  1  0
 20 19  1  0
 21 26  2  0
 21 20  1  0
 22 21  1  0
 23 24  1  0
 23 22  2  0
 24 25  2  0
 25 26  1  0
 26 18  1  0
 27 28  1  0
 29 27  2  0
M  END
$$$$
