SLW.pdb
     RDKit          3D

 29 30  0  0  1  0  0  0  0  0999 V2000
    9.5305  -20.3021   21.9108 O   0  0  0  0  0  0  0  0  0  0  0  0
    8.3277  -19.8283   21.4011 C   0  0  0  0  0  0  0  0  0  0  0  0
    8.6213  -18.9644   20.1920 C   0  0  2  0  0  0  0  0  0  0  0  0
    9.4339  -19.7522   19.2858 N   0  0  0  0  0  0  0  0  0  0  0  0
    9.3361  -17.7262   20.5385 C   0  0  0  0  0  0  0  0  0  0  0  0
   10.5708  -17.6472   20.3156 O   0  0  0  0  0  0  0  0  0  0  0  0
    8.6224  -13.3558   19.3412 C   0  0  0  0  0  0  0  0  0  0  0  0
    7.6483  -13.9609   20.3012 C   0  0  2  0  0  0  0  0  0  0  0  0
    6.5151  -12.9913   20.5756 C   0  0  0  0  0  0  0  0  0  0  0  0
    8.2818  -14.2973   21.6071 C   0  0  0  0  0  0  0  0  0  0  0  0
    9.3298  -15.3885   21.5312 C   0  0  2  0  0  0  0  0  0  0  0  0
    8.6689  -16.6252   21.1151 N   0  0  0  0  0  0  0  0  0  0  0  0
    9.8874  -15.5266   22.8873 C   0  0  0  0  0  0  0  0  0  0  0  0
   10.7193  -14.7049   23.2984 O   0  0  0  0  0  0  0  0  0  0  0  0
    9.4693  -16.5907   23.7030 N   0  0  0  0  0  0  0  0  0  0  0  0
    9.9715  -16.8361   25.0602 C   0  0  1  0  0  0  0  0  0  0  0  0
    9.8171  -15.6306   25.9075 C   0  0  0  0  0  0  0  0  0  0  0  0
    8.4476  -15.1118   25.9206 C   0  0  0  0  0  0  0  0  0  0  0  0
    7.3446  -15.9356   25.6523 C   0  0  0  0  0  0  0  0  0  0  0  0
    6.2631  -15.1581   25.7076 N   0  0  0  0  0  0  0  0  0  0  0  0
    6.6109  -13.8981   25.9936 C   0  0  0  0  0  0  0  0  0  0  0  0
    5.8064  -12.7795   26.1589 C   0  0  0  0  0  0  0  0  0  0  0  0
    6.4148  -11.5894   26.4721 C   0  0  0  0  0  0  0  0  0  0  0  0
    7.8007  -11.5340   26.6141 C   0  0  0  0  0  0  0  0  0  0  0  0
    8.5918  -12.6562   26.4462 C   0  0  0  0  0  0  0  0  0  0  0  0
    7.9808  -13.8393   26.1335 C   0  0  0  0  0  0  0  0  0  0  0  0
    9.4618  -18.1006   25.5358 C   0  0  0  0  0  0  0  0  0  0  0  0
    8.5464  -18.9349   24.9091 O   0  0  0  0  0  0  0  0  0  0  0  0
    9.8718  -18.5412   26.6675 O   0  0  0  0  0  0  0  0  0  0  0  0
  1  2  1  0
  2  3  1  0
  3  5  1  0
  3  4  1  6
  5  6  2  0
  8 10  1  0
  8  7  1  6
  9  8  1  0
 11 10  1  1
 11 13  1  0
 12  5  1  0
 12 11  1  0
 13 14  2  0
 15 13  1  0
 15 16  1  0
 16 27  1  0
 16 17  1  1
 18 19  2  0
 18 17  1  0
 20 19  1  0
 21 26  2  0
 21 20  1  0
 22 21  1  0
 23 24  1  0
 23 22  2  0
 24 25  2  0
 25 26  1  0
 26 18  1  0
 27 28  1  0
 29 27  2  0
M  END
$$$$
