SLW.pdb
     RDKit          3D

 29 30  0  0  1  0  0  0  0  0999 V2000
   12.5284  -19.8201   20.3676 O   0  0  0  0  0  0  0  0  0  0  0  0
   11.5538  -19.6030   19.4011 C   0  0  0  0  0  0  0  0  0  0  0  0
   11.7189  -18.2003   18.8538 C   0  0  2  0  0  0  0  0  0  0  0  0
   13.1282  -18.0105   18.5711 N   0  0  0  0  0  0  0  0  0  0  0  0
   11.2658  -17.1657   19.7964 C   0  0  0  0  0  0  0  0  0  0  0  0
   12.1203  -16.4731   20.4051 O   0  0  0  0  0  0  0  0  0  0  0  0
    5.9336  -14.3127   21.0961 C   0  0  0  0  0  0  0  0  0  0  0  0
    7.3657  -14.5555   21.4519 C   0  0  2  0  0  0  0  0  0  0  0  0
    8.2109  -13.3590   21.0602 C   0  0  0  0  0  0  0  0  0  0  0  0
    7.9227  -15.7497   20.7564 C   0  0  0  0  0  0  0  0  0  0  0  0
    9.3802  -16.0279   21.0614 C   0  0  2  0  0  0  0  0  0  0  0  0
    9.8950  -16.9323   20.0336 N   0  0  0  0  0  0  0  0  0  0  0  0
    9.4138  -16.6713   22.3858 C   0  0  0  0  0  0  0  0  0  0  0  0
    9.4274  -17.9078   22.4702 O   0  0  0  0  0  0  0  0  0  0  0  0
    9.4304  -15.8749   23.5425 N   0  0  0  0  0  0  0  0  0  0  0  0
    9.4750  -16.4072   24.9096 C   0  0  1  0  0  0  0  0  0  0  0  0
    9.3640  -15.3163   25.9060 C   0  0  0  0  0  0  0  0  0  0  0  0
    8.0299  -14.7138   25.9487 C   0  0  0  0  0  0  0  0  0  0  0  0
    6.8806  -15.4426   25.6096 C   0  0  0  0  0  0  0  0  0  0  0  0
    5.8496  -14.6042   25.7164 N   0  0  0  0  0  0  0  0  0  0  0  0
    6.2726  -13.3944   26.1011 C   0  0  0  0  0  0  0  0  0  0  0  0
    5.5382  -12.2426   26.3459 C   0  0  0  0  0  0  0  0  0  0  0  0
    6.2165  -11.1211   26.7543 C   0  0  0  0  0  0  0  0  0  0  0  0
    7.6013  -11.1653   26.9105 C   0  0  0  0  0  0  0  0  0  0  0  0
    8.3221  -12.3196   26.6627 C   0  0  0  0  0  0  0  0  0  0  0  0
    7.6417  -13.4340   26.2554 C   0  0  0  0  0  0  0  0  0  0  0  0
    8.5892  -17.5432   25.0081 C   0  0  0  0  0  0  0  0  0  0  0  0
    8.6668  -18.6033   25.9009 O   0  0  0  0  0  0  0  0  0  0  0  0
    7.6044  -17.6262   24.1920 O   0  0  0  0  0  0  0  0  0  0  0  0
  1  2  1  0
  2  3  1  0
  3  5  1  0
  3  4  1  1
  5  6  2  0
  8 10  1  0
  8  7  1  6
  9  8  1  0
 11 10  1  6
 11 13  1  0
 12  5  1  0
 12 11  1  0
 13 14  2  0
 15 13  1  0
 15 16  1  0
 16 27  1  0
 16 17  1  1
 18 19  2  0
 18 17  1  0
 20 19  1  0
 21 26  2  0
 21 20  1  0
 22 21  1  0
 23 24  1  0
 23 22  2  0
 24 25  2  0
 25 26  1  0
 26 18  1  0
 27 28  1  0
 29 27  2  0
M  END
$$$$
