SLW.pdb
     RDKit          3D

 29 30  0  0  1  0  0  0  0  0999 V2000
    6.7571  -20.7526   20.7849 O   0  0  0  0  0  0  0  0  0  0  0  0
    5.8400  -19.8640   20.2365 C   0  0  0  0  0  0  0  0  0  0  0  0
    5.7228  -18.6631   21.1522 C   0  0  2  0  0  0  0  0  0  0  0  0
    4.6287  -17.8495   20.6588 N   0  0  0  0  0  0  0  0  0  0  0  0
    6.9524  -17.8566   21.1918 C   0  0  0  0  0  0  0  0  0  0  0  0
    8.0629  -18.4353   21.3029 O   0  0  0  0  0  0  0  0  0  0  0  0
    8.4742  -11.9295   20.1117 C   0  0  0  0  0  0  0  0  0  0  0  0
    8.9085  -13.3076   20.4970 C   0  0  2  0  0  0  0  0  0  0  0  0
    9.8960  -13.8469   19.4804 C   0  0  0  0  0  0  0  0  0  0  0  0
    7.7639  -14.2591   20.5643 C   0  0  0  0  0  0  0  0  0  0  0  0
    8.0918  -15.5868   21.2158 C   0  0  2  0  0  0  0  0  0  0  0  0
    6.9152  -16.4489   21.1079 N   0  0  0  0  0  0  0  0  0  0  0  0
    8.3963  -15.2952   22.6269 C   0  0  0  0  0  0  0  0  0  0  0  0
    7.9373  -14.2737   23.1582 O   0  0  0  0  0  0  0  0  0  0  0  0
    9.2057  -16.1800   23.3580 N   0  0  0  0  0  0  0  0  0  0  0  0
    9.6904  -15.9211   24.7190 C   0  0  1  0  0  0  0  0  0  0  0  0
    8.6559  -16.2627   25.7231 C   0  0  0  0  0  0  0  0  0  0  0  0
    7.6074  -15.2461   25.8330 C   0  0  0  0  0  0  0  0  0  0  0  0
    6.2754  -15.5207   25.4900 C   0  0  0  0  0  0  0  0  0  0  0  0
    5.5929  -14.3894   25.6673 N   0  0  0  0  0  0  0  0  0  0  0  0
    6.4063  -13.4191   26.1002 C   0  0  0  0  0  0  0  0  0  0  0  0
    6.1106  -12.1021   26.4226 C   0  0  0  0  0  0  0  0  0  0  0  0
    7.1342  -11.3027   26.8675 C   0  0  0  0  0  0  0  0  0  0  0  0
    8.4225  -11.8235   26.9827 C   0  0  0  0  0  0  0  0  0  0  0  0
    8.7045  -13.1380   26.6574 C   0  0  0  0  0  0  0  0  0  0  0  0
    7.6813  -13.9301   26.2140 C   0  0  0  0  0  0  0  0  0  0  0  0
   11.0192  -16.4673   24.8638 C   0  0  0  0  0  0  0  0  0  0  0  0
   11.9173  -16.2479   25.8993 O   0  0  0  0  0  0  0  0  0  0  0  0
   11.4650  -17.2476   23.9499 O   0  0  0  0  0  0  0  0  0  0  0  0
  1  2  1  0
  2  3  1  0
  3  5  1  0
  3  4  1  6
  5  6  2  0
  8 10  1  0
  8  7  1  6
  9  8  1  0
 11 10  1  6
 11 13  1  0
 12  5  1  0
 12 11  1  0
 13 14  2  0
 15 13  1  0
 15 16  1  0
 16 27  1  0
 16 17  1  1
 18 19  2  0
 18 17  1  0
 20 19  1  0
 21 26  2  0
 21 20  1  0
 22 21  1  0
 23 24  1  0
 23 22  2  0
 24 25  2  0
 25 26  1  0
 26 18  1  0
 27 28  1  0
 29 27  2  0
M  END
$$$$
