SLW.pdb
     RDKit          3D

 29 30  0  0  1  0  0  0  0  0999 V2000
    8.6170  -18.1190   18.0434 O   0  0  0  0  0  0  0  0  0  0  0  0
    9.3519  -19.1049   18.6906 C   0  0  0  0  0  0  0  0  0  0  0  0
    9.2529  -18.8796   20.1852 C   0  0  2  0  0  0  0  0  0  0  0  0
    7.8474  -18.9324   20.5374 N   0  0  0  0  0  0  0  0  0  0  0  0
    9.8131  -17.5851   20.6031 C   0  0  0  0  0  0  0  0  0  0  0  0
   11.0084  -17.3144   20.3233 O   0  0  0  0  0  0  0  0  0  0  0  0
    8.7728  -13.3112   19.5886 C   0  0  0  0  0  0  0  0  0  0  0  0
    7.7800  -14.0245   20.4499 C   0  0  2  0  0  0  0  0  0  0  0  0
    6.5665  -13.1460   20.6848 C   0  0  0  0  0  0  0  0  0  0  0  0
    8.3451  -14.3806   21.7818 C   0  0  0  0  0  0  0  0  0  0  0  0
    9.5280  -15.3254   21.7269 C   0  0  2  0  0  0  0  0  0  0  0  0
    9.0407  -16.6400   21.3103 N   0  0  0  0  0  0  0  0  0  0  0  0
   10.0798  -15.3826   23.0912 C   0  0  0  0  0  0  0  0  0  0  0  0
   10.8274  -14.4790   23.4921 O   0  0  0  0  0  0  0  0  0  0  0  0
    9.7522  -16.4635   23.9260 N   0  0  0  0  0  0  0  0  0  0  0  0
   10.1798  -16.5842   25.3249 C   0  0  1  0  0  0  0  0  0  0  0  0
    9.7903  -15.3848   26.1026 C   0  0  0  0  0  0  0  0  0  0  0  0
    8.3691  -15.0558   25.9736 C   0  0  0  0  0  0  0  0  0  0  0  0
    7.4274  -16.0067   25.5543 C   0  0  0  0  0  0  0  0  0  0  0  0
    6.2490  -15.3850   25.5085 N   0  0  0  0  0  0  0  0  0  0  0  0
    6.3850  -14.1045   25.8721 C   0  0  0  0  0  0  0  0  0  0  0  0
    5.4199  -13.1129   25.9783 C   0  0  0  0  0  0  0  0  0  0  0  0
    5.8191  -11.8679   26.3967 C   0  0  0  0  0  0  0  0  0  0  0  0
    7.1598  -11.6336   26.6994 C   0  0  0  0  0  0  0  0  0  0  0  0
    8.1125  -12.6303   26.5889 C   0  0  0  0  0  0  0  0  0  0  0  0
    7.7097  -13.8688   26.1709 C   0  0  0  0  0  0  0  0  0  0  0  0
    9.8220  -17.8919   25.8217 C   0  0  0  0  0  0  0  0  0  0  0  0
    9.1348  -18.8942   25.1510 O   0  0  0  0  0  0  0  0  0  0  0  0
   10.1535  -18.2053   27.0195 O   0  0  0  0  0  0  0  0  0  0  0  0
  1  2  1  0
  2  3  1  0
  3  5  1  0
  3  4  1  6
  5  6  2  0
  8 10  1  0
  8  7  1  6
  9  8  1  0
 11 10  1  1
 11 13  1  0
 12  5  1  0
 12 11  1  0
 13 14  2  0
 15 13  1  0
 15 16  1  0
 16 27  1  0
 16 17  1  1
 18 19  2  0
 18 17  1  0
 20 19  1  0
 21 26  2  0
 21 20  1  0
 22 21  1  0
 23 24  1  0
 23 22  2  0
 24 25  2  0
 25 26  1  0
 26 18  1  0
 27 28  1  0
 29 27  2  0
M  END
$$$$
