SLW.pdb
     RDKit          3D

 29 30  0  0  1  0  0  0  0  0999 V2000
    8.2047  -18.9706   22.3705 O   0  0  0  0  0  0  0  0  0  0  0  0
    8.1441  -18.7758   20.9960 C   0  0  0  0  0  0  0  0  0  0  0  0
    7.3332  -17.5266   20.7195 C   0  0  2  0  0  0  0  0  0  0  0  0
    7.2992  -17.3437   19.2816 N   0  0  0  0  0  0  0  0  0  0  0  0
    7.9042  -16.3272   21.3514 C   0  0  0  0  0  0  0  0  0  0  0  0
    8.8392  -15.7157   20.7751 O   0  0  0  0  0  0  0  0  0  0  0  0
    6.4928  -12.9121   26.3709 C   0  0  0  0  0  0  0  0  0  0  0  0
    7.4525  -13.1874   25.2575 C   0  0  2  0  0  0  0  0  0  0  0  0
    7.6458  -11.9414   24.4152 C   0  0  0  0  0  0  0  0  0  0  0  0
    6.9713  -14.2721   24.3565 C   0  0  0  0  0  0  0  0  0  0  0  0
    7.9508  -14.6619   23.2686 C   0  0  2  0  0  0  0  0  0  0  0  0
    7.4274  -15.8467   22.5891 N   0  0  0  0  0  0  0  0  0  0  0  0
    9.2236  -14.9679   23.9432 C   0  0  0  0  0  0  0  0  0  0  0  0
    9.8691  -14.0582   24.4835 O   0  0  0  0  0  0  0  0  0  0  0  0
    9.6941  -16.2910   23.9674 N   0  0  0  0  0  0  0  0  0  0  0  0
   10.9512  -16.7078   24.6001 C   0  0  1  0  0  0  0  0  0  0  0  0
   10.6930  -17.6130   25.7443 C   0  0  0  0  0  0  0  0  0  0  0  0
    9.8727  -16.9956   26.7886 C   0  0  0  0  0  0  0  0  0  0  0  0
    8.5593  -17.4181   27.0406 C   0  0  0  0  0  0  0  0  0  0  0  0
    8.0860  -16.6391   28.0134 N   0  0  0  0  0  0  0  0  0  0  0  0
    9.0145  -15.7533   28.3924 C   0  0  0  0  0  0  0  0  0  0  0  0
    8.9480  -14.7750   29.3745 C   0  0  0  0  0  0  0  0  0  0  0  0
   10.0594  -13.9970   29.5847 C   0  0  0  0  0  0  0  0  0  0  0  0
   11.2071  -14.2045   28.8207 C   0  0  0  0  0  0  0  0  0  0  0  0
   11.2606  -15.1826   27.8442 C   0  0  0  0  0  0  0  0  0  0  0  0
   10.1505  -15.9546   27.6382 C   0  0  0  0  0  0  0  0  0  0  0  0
   11.8873  -17.1141   23.5785 C   0  0  0  0  0  0  0  0  0  0  0  0
   13.2500  -17.3381   23.7186 O   0  0  0  0  0  0  0  0  0  0  0  0
   11.4537  -17.2963   22.3862 O   0  0  0  0  0  0  0  0  0  0  0  0
  1  2  1  0
  2  3  1  0
  3  5  1  0
  3  4  1  6
  5  6  2  0
  8 10  1  0
  8  7  1  1
  9  8  1  0
 11 10  1  1
 11 13  1  0
 12  5  1  0
 12 11  1  0
 13 14  2  0
 15 13  1  0
 15 16  1  0
 16 27  1  0
 16 17  1  1
 18 19  2  0
 18 17  1  0
 20 19  1  0
 21 26  2  0
 21 20  1  0
 22 21  1  0
 23 24  1  0
 23 22  2  0
 24 25  2  0
 25 26  1  0
 26 18  1  0
 27 28  1  0
 29 27  2  0
M  END
$$$$
