SLW.pdb
     RDKit          3D

 29 30  0  0  1  0  0  0  0  0999 V2000
   10.1280  -19.7934   22.0430 O   0  0  0  0  0  0  0  0  0  0  0  0
    9.8038  -20.4972   20.8895 C   0  0  0  0  0  0  0  0  0  0  0  0
    9.6549  -19.5130   19.7477 C   0  0  2  0  0  0  0  0  0  0  0  0
   10.5971  -19.9023   18.7168 N   0  0  0  0  0  0  0  0  0  0  0  0
    9.9225  -18.1251   20.1555 C   0  0  0  0  0  0  0  0  0  0  0  0
   11.0959  -17.6797   20.0844 O   0  0  0  0  0  0  0  0  0  0  0  0
    6.3858  -13.2391   21.7357 C   0  0  0  0  0  0  0  0  0  0  0  0
    7.7561  -13.8029   21.5335 C   0  0  2  0  0  0  0  0  0  0  0  0
    8.4552  -13.0810   20.3979 C   0  0  0  0  0  0  0  0  0  0  0  0
    7.7224  -15.2534   21.1944 C   0  0  0  0  0  0  0  0  0  0  0  0
    9.0872  -15.8853   21.0135 C   0  0  2  0  0  0  0  0  0  0  0  0
    8.8935  -17.2819   20.6245 N   0  0  0  0  0  0  0  0  0  0  0  0
    9.7642  -15.7969   22.3184 C   0  0  0  0  0  0  0  0  0  0  0  0
   10.6357  -14.9352   22.5035 O   0  0  0  0  0  0  0  0  0  0  0  0
    9.4143  -16.6924   23.3422 N   0  0  0  0  0  0  0  0  0  0  0  0
    9.9731  -16.6530   24.6989 C   0  0  1  0  0  0  0  0  0  0  0  0
    9.8785  -15.2895   25.2707 C   0  0  0  0  0  0  0  0  0  0  0  0
    8.4982  -14.8667   25.5170 C   0  0  0  0  0  0  0  0  0  0  0  0
    7.4202  -15.7539   25.3824 C   0  0  0  0  0  0  0  0  0  0  0  0
    6.3142  -15.0550   25.6384 N   0  0  0  0  0  0  0  0  0  0  0  0
    6.6233  -13.7853   25.9264 C   0  0  0  0  0  0  0  0  0  0  0  0
    5.7863  -12.7313   26.2645 C   0  0  0  0  0  0  0  0  0  0  0  0
    6.3609  -11.5144   26.5363 C   0  0  0  0  0  0  0  0  0  0  0  0
    7.7459  -11.3693   26.4672 C   0  0  0  0  0  0  0  0  0  0  0  0
    8.5694  -12.4277   26.1283 C   0  0  0  0  0  0  0  0  0  0  0  0
    7.9920  -13.6378   25.8578 C   0  0  0  0  0  0  0  0  0  0  0  0
    9.4634  -17.7711   25.4571 C   0  0  0  0  0  0  0  0  0  0  0  0
    9.9102  -18.2353   26.6867 O   0  0  0  0  0  0  0  0  0  0  0  0
    8.4869  -18.4463   24.9739 O   0  0  0  0  0  0  0  0  0  0  0  0
  1  2  1  0
  2  3  1  0
  3  5  1  0
  3  4  1  6
  5  6  2  0
  8 10  1  0
  8  7  1  6
  9  8  1  0
 11 10  1  1
 11 13  1  0
 12  5  1  0
 12 11  1  0
 13 14  2  0
 15 13  1  0
 15 16  1  0
 16 27  1  0
 16 17  1  1
 18 19  2  0
 18 17  1  0
 20 19  1  0
 21 26  2  0
 21 20  1  0
 22 21  1  0
 23 24  1  0
 23 22  2  0
 24 25  2  0
 25 26  1  0
 26 18  1  0
 27 28  1  0
 29 27  2  0
M  END
$$$$
