SLW.pdb
     RDKit          3D

 29 30  0  0  1  0  0  0  0  0999 V2000
   12.1897  -19.6792   20.2549 O   0  0  0  0  0  0  0  0  0  0  0  0
   11.1461  -19.5354   19.3485 C   0  0  0  0  0  0  0  0  0  0  0  0
   11.1821  -18.1285   18.7883 C   0  0  2  0  0  0  0  0  0  0  0  0
   12.4913  -17.9331   18.1965 N   0  0  0  0  0  0  0  0  0  0  0  0
   10.9522  -17.1016   19.8163 C   0  0  0  0  0  0  0  0  0  0  0  0
   11.9393  -16.5310   20.3457 O   0  0  0  0  0  0  0  0  0  0  0  0
    8.1954  -13.1277   20.3889 C   0  0  0  0  0  0  0  0  0  0  0  0
    7.5989  -14.4762   20.1397 C   0  0  2  0  0  0  0  0  0  0  0  0
    6.0910  -14.3663   20.0229 C   0  0  0  0  0  0  0  0  0  0  0  0
    7.8985  -15.4351   21.2400 C   0  0  0  0  0  0  0  0  0  0  0  0
    9.3547  -15.8413   21.3363 C   0  0  2  0  0  0  0  0  0  0  0  0
    9.6500  -16.7418   20.2221 N   0  0  0  0  0  0  0  0  0  0  0  0
    9.5091  -16.5383   22.6245 C   0  0  0  0  0  0  0  0  0  0  0  0
    9.6806  -17.7657   22.6445 O   0  0  0  0  0  0  0  0  0  0  0  0
    9.4606  -15.8029   23.8200 N   0  0  0  0  0  0  0  0  0  0  0  0
    9.5894  -16.3937   25.1575 C   0  0  1  0  0  0  0  0  0  0  0  0
    9.4806  -15.3543   26.2077 C   0  0  0  0  0  0  0  0  0  0  0  0
    8.1954  -14.6525   26.1874 C   0  0  0  0  0  0  0  0  0  0  0  0
    6.9953  -15.3200   25.9020 C   0  0  0  0  0  0  0  0  0  0  0  0
    6.0300  -14.4009   25.9281 N   0  0  0  0  0  0  0  0  0  0  0  0
    6.5417  -13.1976   26.2118 C   0  0  0  0  0  0  0  0  0  0  0  0
    5.8953  -11.9775   26.3511 C   0  0  0  0  0  0  0  0  0  0  0  0
    6.6550  -10.8788   26.6681 C   0  0  0  0  0  0  0  0  0  0  0  0
    8.0323  -11.0126   26.8393 C   0  0  0  0  0  0  0  0  0  0  0  0
    8.6650  -12.2344   26.6970 C   0  0  0  0  0  0  0  0  0  0  0  0
    7.9037  -13.3258   26.3805 C   0  0  0  0  0  0  0  0  0  0  0  0
    8.7554  -17.5694   25.2417 C   0  0  0  0  0  0  0  0  0  0  0  0
    8.8830  -18.6378   26.1186 O   0  0  0  0  0  0  0  0  0  0  0  0
    7.7726  -17.6843   24.4270 O   0  0  0  0  0  0  0  0  0  0  0  0
  1  2  1  0
  2  3  1  0
  3  5  1  0
  3  4  1  1
  5  6  2  0
  8 10  1  0
  8  7  1  1
  9  8  1  0
 11 10  1  6
 11 13  1  0
 12  5  1  0
 12 11  1  0
 13 14  2  0
 15 13  1  0
 15 16  1  0
 16 27  1  0
 16 17  1  1
 18 19  2  0
 18 17  1  0
 20 19  1  0
 21 26  2  0
 21 20  1  0
 22 21  1  0
 23 24  1  0
 23 22  2  0
 24 25  2  0
 25 26  1  0
 26 18  1  0
 27 28  1  0
 29 27  2  0
M  END
$$$$
