SLW.pdb
     RDKit          3D

 29 30  0  0  1  0  0  0  0  0999 V2000
    8.3496  -19.8892   23.1564 O   0  0  0  0  0  0  0  0  0  0  0  0
    8.3571  -20.5802   21.9508 C   0  0  0  0  0  0  0  0  0  0  0  0
    7.8171  -19.6693   20.8676 C   0  0  2  0  0  0  0  0  0  0  0  0
    7.9258  -20.3827   19.6100 N   0  0  0  0  0  0  0  0  0  0  0  0
    8.5534  -18.3992   20.7742 C   0  0  0  0  0  0  0  0  0  0  0  0
    9.6889  -18.3860   20.2349 O   0  0  0  0  0  0  0  0  0  0  0  0
    7.1353  -12.3926   21.4415 C   0  0  0  0  0  0  0  0  0  0  0  0
    8.1868  -13.4290   21.2032 C   0  0  2  0  0  0  0  0  0  0  0  0
    8.7563  -13.2828   19.8055 C   0  0  0  0  0  0  0  0  0  0  0  0
    7.6502  -14.8131   21.3304 C   0  0  0  0  0  0  0  0  0  0  0  0
    8.6969  -15.9024   21.2172 C   0  0  2  0  0  0  0  0  0  0  0  0
    8.0154  -17.1953   21.2754 N   0  0  0  0  0  0  0  0  0  0  0  0
    9.5984  -15.7363   22.3699 C   0  0  0  0  0  0  0  0  0  0  0  0
   10.5249  -14.9149   22.3145 O   0  0  0  0  0  0  0  0  0  0  0  0
    9.3981  -16.5124   23.5232 N   0  0  0  0  0  0  0  0  0  0  0  0
   10.2454  -16.4450   24.7199 C   0  0  1  0  0  0  0  0  0  0  0  0
   10.0003  -15.1922   25.4719 C   0  0  0  0  0  0  0  0  0  0  0  0
    8.5762  -14.9034   25.6541 C   0  0  0  0  0  0  0  0  0  0  0  0
    7.6055  -15.9140   25.5947 C   0  0  0  0  0  0  0  0  0  0  0  0
    6.4235  -15.3206   25.7625 N   0  0  0  0  0  0  0  0  0  0  0  0
    6.5845  -14.0022   25.9245 C   0  0  0  0  0  0  0  0  0  0  0  0
    5.6290  -13.0195   26.1419 C   0  0  0  0  0  0  0  0  0  0  0  0
    6.0599  -11.7253   26.2970 C   0  0  0  0  0  0  0  0  0  0  0  0
    7.4221  -11.4346   26.2336 C   0  0  0  0  0  0  0  0  0  0  0  0
    8.3648  -12.4231   26.0157 C   0  0  0  0  0  0  0  0  0  0  0  0
    7.9302  -13.7107   25.8611 C   0  0  0  0  0  0  0  0  0  0  0  0
   10.1862  -17.7078   25.4177 C   0  0  0  0  0  0  0  0  0  0  0  0
    9.4130  -18.8159   25.1000 O   0  0  0  0  0  0  0  0  0  0  0  0
   10.9127  -17.8668   26.4616 O   0  0  0  0  0  0  0  0  0  0  0  0
  1  2  1  0
  2  3  1  0
  3  5  1  0
  3  4  1  6
  5  6  2  0
  8 10  1  0
  8  7  1  6
  9  8  1  0
 11 10  1  1
 11 13  1  0
 12  5  1  0
 12 11  1  0
 13 14  2  0
 15 13  1  0
 15 16  1  0
 16 27  1  0
 16 17  1  1
 18 19  2  0
 18 17  1  0
 20 19  1  0
 21 26  2  0
 21 20  1  0
 22 21  1  0
 23 24  1  0
 23 22  2  0
 24 25  2  0
 25 26  1  0
 26 18  1  0
 27 28  1  0
 29 27  2  0
M  END
$$$$
