SLW.pdb
     RDKit          3D

 29 30  0  0  1  0  0  0  0  0999 V2000
   11.3513  -19.8790   20.4070 O   0  0  0  0  0  0  0  0  0  0  0  0
   12.2779  -19.2878   19.5567 C   0  0  0  0  0  0  0  0  0  0  0  0
   11.6524  -18.0521   18.9433 C   0  0  2  0  0  0  0  0  0  0  0  0
   12.6139  -17.5005   18.0087 N   0  0  0  0  0  0  0  0  0  0  0  0
   11.3057  -17.0333   19.9462 C   0  0  0  0  0  0  0  0  0  0  0  0
   12.2266  -16.4024   20.5242 O   0  0  0  0  0  0  0  0  0  0  0  0
    6.3099  -13.7183   21.2655 C   0  0  0  0  0  0  0  0  0  0  0  0
    7.7327  -14.0621   21.5719 C   0  0  2  0  0  0  0  0  0  0  0  0
    8.6621  -13.0334   20.9576 C   0  0  0  0  0  0  0  0  0  0  0  0
    8.1165  -15.3971   21.0331 C   0  0  0  0  0  0  0  0  0  0  0  0
    9.5545  -15.7902   21.3022 C   0  0  2  0  0  0  0  0  0  0  0  0
    9.9640  -16.7472   20.2747 N   0  0  0  0  0  0  0  0  0  0  0  0
    9.5734  -16.4168   22.6349 C   0  0  0  0  0  0  0  0  0  0  0  0
    9.3253  -17.6255   22.7513 O   0  0  0  0  0  0  0  0  0  0  0  0
    9.8733  -15.6359   23.7632 N   0  0  0  0  0  0  0  0  0  0  0  0
   10.0421  -16.1749   25.1179 C   0  0  1  0  0  0  0  0  0  0  0  0
    9.7916  -15.1300   26.1381 C   0  0  0  0  0  0  0  0  0  0  0  0
    8.3805  -14.7503   26.2338 C   0  0  0  0  0  0  0  0  0  0  0  0
    7.3534  -15.7013   26.1453 C   0  0  0  0  0  0  0  0  0  0  0  0
    6.2033  -15.0328   26.2327 N   0  0  0  0  0  0  0  0  0  0  0  0
    6.4370  -13.7226   26.3713 C   0  0  0  0  0  0  0  0  0  0  0  0
    5.5341  -12.6781   26.5112 C   0  0  0  0  0  0  0  0  0  0  0  0
    6.0357  -11.4087   26.6584 C   0  0  0  0  0  0  0  0  0  0  0  0
    7.4148  -11.2030   26.6636 C   0  0  0  0  0  0  0  0  0  0  0  0
    8.3045  -12.2526   26.5225 C   0  0  0  0  0  0  0  0  0  0  0  0
    7.7996  -13.5153   26.3755 C   0  0  0  0  0  0  0  0  0  0  0  0
    9.3485  -17.4374   25.2186 C   0  0  0  0  0  0  0  0  0  0  0  0
    9.4613  -18.3883   26.2235 O   0  0  0  0  0  0  0  0  0  0  0  0
    8.5260  -17.7615   24.2906 O   0  0  0  0  0  0  0  0  0  0  0  0
  1  2  1  0
  2  3  1  0
  3  5  1  0
  3  4  1  6
  5  6  2  0
  8 10  1  0
  8  7  1  6
  9  8  1  0
 11 10  1  6
 11 13  1  0
 12  5  1  0
 12 11  1  0
 13 14  2  0
 15 13  1  0
 15 16  1  0
 16 27  1  0
 16 17  1  1
 18 19  2  0
 18 17  1  0
 20 19  1  0
 21 26  2  0
 21 20  1  0
 22 21  1  0
 23 24  1  0
 23 22  2  0
 24 25  2  0
 25 26  1  0
 26 18  1  0
 27 28  1  0
 29 27  2  0
M  END
$$$$
