SLW.pdb
     RDKit          3D

 29 30  0  0  1  0  0  0  0  0999 V2000
    8.7937  -20.2102   21.3484 O   0  0  0  0  0  0  0  0  0  0  0  0
    7.6000  -20.3578   20.6522 C   0  0  0  0  0  0  0  0  0  0  0  0
    7.6542  -19.4928   19.4099 C   0  0  2  0  0  0  0  0  0  0  0  0
    8.1859  -20.3109   18.3374 N   0  0  0  0  0  0  0  0  0  0  0  0
    8.5014  -18.3026   19.5828 C   0  0  0  0  0  0  0  0  0  0  0  0
    9.7226  -18.3710   19.2927 O   0  0  0  0  0  0  0  0  0  0  0  0
    7.5515  -12.4364   21.2416 C   0  0  0  0  0  0  0  0  0  0  0  0
    8.2883  -13.3349   20.3002 C   0  0  2  0  0  0  0  0  0  0  0  0
    8.2572  -12.7594   18.8976 C   0  0  0  0  0  0  0  0  0  0  0  0
    7.6915  -14.6989   20.2426 C   0  0  0  0  0  0  0  0  0  0  0  0
    8.6986  -15.8147   20.0538 C   0  0  2  0  0  0  0  0  0  0  0  0
    7.9758  -17.0862   20.0665 N   0  0  0  0  0  0  0  0  0  0  0  0
    9.6298  -15.7333   21.1918 C   0  0  0  0  0  0  0  0  0  0  0  0
   10.5844  -14.9437   21.1519 O   0  0  0  0  0  0  0  0  0  0  0  0
    9.4258  -16.5533   22.3137 N   0  0  0  0  0  0  0  0  0  0  0  0
    9.4021  -16.0660   23.6980 C   0  0  1  0  0  0  0  0  0  0  0  0
    8.5227  -14.8805   23.8266 C   0  0  0  0  0  0  0  0  0  0  0  0
    8.4698  -14.3528   25.1917 C   0  0  0  0  0  0  0  0  0  0  0  0
    9.3347  -14.8143   26.1947 C   0  0  0  0  0  0  0  0  0  0  0  0
    9.0061  -14.1661   27.3124 N   0  0  0  0  0  0  0  0  0  0  0  0
    7.9913  -13.3254   27.0805 C   0  0  0  0  0  0  0  0  0  0  0  0
    7.3533  -12.4550   27.9530 C   0  0  0  0  0  0  0  0  0  0  0  0
    6.3384  -11.6748   27.4569 C   0  0  0  0  0  0  0  0  0  0  0  0
    5.9796  -11.7739   26.1132 C   0  0  0  0  0  0  0  0  0  0  0  0
    6.6230  -12.6460   25.2536 C   0  0  0  0  0  0  0  0  0  0  0  0
    7.6329  -13.4215   25.7531 C   0  0  0  0  0  0  0  0  0  0  0  0
    9.2132  -17.1829   24.5934 C   0  0  0  0  0  0  0  0  0  0  0  0
    9.7953  -17.3788   25.8382 O   0  0  0  0  0  0  0  0  0  0  0  0
    8.4280  -18.1306   24.2354 O   0  0  0  0  0  0  0  0  0  0  0  0
  1  2  1  0
  2  3  1  0
  3  5  1  0
  3  4  1  6
  5  6  2  0
  8 10  1  0
  8  7  1  1
  9  8  1  0
 11 10  1  1
 11 13  1  0
 12  5  1  0
 12 11  1  0
 13 14  2  0
 15 13  1  0
 15 16  1  0
 16 27  1  0
 16 17  1  6
 18 19  2  0
 18 17  1  0
 20 19  1  0
 21 26  2  0
 21 20  1  0
 22 21  1  0
 23 24  1  0
 23 22  2  0
 24 25  2  0
 25 26  1  0
 26 18  1  0
 27 28  1  0
 29 27  2  0
M  END
$$$$
