SLW.pdb
     RDKit          3D

 29 30  0  0  1  0  0  0  0  0999 V2000
    7.1200  -17.8618   20.6297 O   0  0  0  0  0  0  0  0  0  0  0  0
    7.8984  -17.0750   19.7894 C   0  0  0  0  0  0  0  0  0  0  0  0
    7.8204  -15.6381   20.2624 C   0  0  2  0  0  0  0  0  0  0  0  0
    8.5118  -14.8232   19.2825 N   0  0  0  0  0  0  0  0  0  0  0  0
    8.4357  -15.4407   21.5839 C   0  0  0  0  0  0  0  0  0  0  0  0
    9.6880  -15.4734   21.6891 O   0  0  0  0  0  0  0  0  0  0  0  0
    8.0870  -12.3148   24.8881 C   0  0  0  0  0  0  0  0  0  0  0  0
    6.8583  -13.1560   24.7496 C   0  0  2  0  0  0  0  0  0  0  0  0
    5.8024  -12.7043   25.7397 C   0  0  0  0  0  0  0  0  0  0  0  0
    7.1325  -14.5976   25.0072 C   0  0  0  0  0  0  0  0  0  0  0  0
    8.1820  -15.2064   24.1002 C   0  0  2  0  0  0  0  0  0  0  0  0
    7.6537  -15.2157   22.7362 N   0  0  0  0  0  0  0  0  0  0  0  0
    8.4039  -16.5802   24.5822 C   0  0  0  0  0  0  0  0  0  0  0  0
    7.8487  -17.5307   24.0124 O   0  0  0  0  0  0  0  0  0  0  0  0
    9.2448  -16.7997   25.6855 N   0  0  0  0  0  0  0  0  0  0  0  0
    9.9579  -18.0568   25.9417 C   0  0  1  0  0  0  0  0  0  0  0  0
   11.3065  -17.7965   26.4972 C   0  0  0  0  0  0  0  0  0  0  0  0
   11.2693  -17.2078   27.8377 C   0  0  0  0  0  0  0  0  0  0  0  0
   11.4637  -17.9842   28.9895 C   0  0  0  0  0  0  0  0  0  0  0  0
   11.3335  -17.1632   30.0317 N   0  0  0  0  0  0  0  0  0  0  0  0
   11.0705  -15.9197   29.6134 C   0  0  0  0  0  0  0  0  0  0  0  0
   10.8786  -14.7637   30.3569 C   0  0  0  0  0  0  0  0  0  0  0  0
   10.6387  -13.5944   29.6788 C   0  0  0  0  0  0  0  0  0  0  0  0
   10.5943  -13.5961   28.2852 C   0  0  0  0  0  0  0  0  0  0  0  0
   10.7864  -14.7554   27.5555 C   0  0  0  0  0  0  0  0  0  0  0  0
   11.0245  -15.9178   28.2359 C   0  0  0  0  0  0  0  0  0  0  0  0
    9.0781  -18.9723   26.6294 C   0  0  0  0  0  0  0  0  0  0  0  0
    9.3199  -20.3014   26.9486 O   0  0  0  0  0  0  0  0  0  0  0  0
    7.9262  -18.5526   27.0032 O   0  0  0  0  0  0  0  0  0  0  0  0
  1  2  1  0
  2  3  1  0
  3  5  1  0
  3  4  1  6
  5  6  2  0
  8 10  1  0
  8  7  1  1
  9  8  1  0
 11 10  1  1
 11 13  1  0
 12  5  1  0
 12 11  1  0
 13 14  2  0
 15 13  1  0
 15 16  1  0
 16 27  1  0
 16 17  1  1
 18 19  2  0
 18 17  1  0
 20 19  1  0
 21 26  2  0
 21 20  1  0
 22 21  1  0
 23 24  1  0
 23 22  2  0
 24 25  2  0
 25 26  1  0
 26 18  1  0
 27 28  1  0
 29 27  2  0
M  END
$$$$
