SLW.pdb
     RDKit          3D

 29 30  0  0  1  0  0  0  0  0999 V2000
    9.0614  -20.1663   22.2127 O   0  0  0  0  0  0  0  0  0  0  0  0
    7.8640  -20.4017   21.5479 C   0  0  0  0  0  0  0  0  0  0  0  0
    7.8582  -19.5999   20.2628 C   0  0  2  0  0  0  0  0  0  0  0  0
    8.4934  -20.4129   19.2441 N   0  0  0  0  0  0  0  0  0  0  0  0
    8.5770  -18.3224   20.3870 C   0  0  0  0  0  0  0  0  0  0  0  0
    9.7973  -18.2730   20.0894 O   0  0  0  0  0  0  0  0  0  0  0  0
    6.8711  -12.4230   21.4605 C   0  0  0  0  0  0  0  0  0  0  0  0
    7.9456  -13.3909   21.0798 C   0  0  2  0  0  0  0  0  0  0  0  0
    8.4035  -13.1297   19.6579 C   0  0  0  0  0  0  0  0  0  0  0  0
    7.4800  -14.8044   21.1525 C   0  0  0  0  0  0  0  0  0  0  0  0
    8.5608  -15.8331   20.8909 C   0  0  2  0  0  0  0  0  0  0  0  0
    7.9291  -17.1510   20.8321 N   0  0  0  0  0  0  0  0  0  0  0  0
    9.4959  -15.7536   22.0259 C   0  0  0  0  0  0  0  0  0  0  0  0
   10.5126  -15.0501   21.9387 O   0  0  0  0  0  0  0  0  0  0  0  0
    9.2251  -16.4777   23.1984 N   0  0  0  0  0  0  0  0  0  0  0  0
   10.0428  -16.4122   24.4155 C   0  0  1  0  0  0  0  0  0  0  0  0
    9.8381  -15.1261   25.1220 C   0  0  0  0  0  0  0  0  0  0  0  0
    8.4759  -14.9657   25.6353 C   0  0  0  0  0  0  0  0  0  0  0  0
    7.5532  -16.0218   25.6202 C   0  0  0  0  0  0  0  0  0  0  0  0
    6.4130  -15.5419   26.1172 N   0  0  0  0  0  0  0  0  0  0  0  0
    6.5558  -14.2526   26.4457 C   0  0  0  0  0  0  0  0  0  0  0  0
    5.6328  -13.3799   27.0046 C   0  0  0  0  0  0  0  0  0  0  0  0
    6.0385  -12.0950   27.2671 C   0  0  0  0  0  0  0  0  0  0  0  0
    7.3440  -11.7047   26.9713 C   0  0  0  0  0  0  0  0  0  0  0  0
    8.2545  -12.5839   26.4136 C   0  0  0  0  0  0  0  0  0  0  0  0
    7.8451  -13.8628   26.1534 C   0  0  0  0  0  0  0  0  0  0  0  0
    9.9051  -17.6481   25.1495 C   0  0  0  0  0  0  0  0  0  0  0  0
   10.6563  -18.0771   26.2350 O   0  0  0  0  0  0  0  0  0  0  0  0
    8.9986  -18.4790   24.7879 O   0  0  0  0  0  0  0  0  0  0  0  0
  1  2  1  0
  2  3  1  0
  3  5  1  0
  3  4  1  6
  5  6  2  0
  8 10  1  0
  8  7  1  6
  9  8  1  0
 11 10  1  1
 11 13  1  0
 12  5  1  0
 12 11  1  0
 13 14  2  0
 15 13  1  0
 15 16  1  0
 16 27  1  0
 16 17  1  1
 18 19  2  0
 18 17  1  0
 20 19  1  0
 21 26  2  0
 21 20  1  0
 22 21  1  0
 23 24  1  0
 23 22  2  0
 24 25  2  0
 25 26  1  0
 26 18  1  0
 27 28  1  0
 29 27  2  0
M  END
$$$$
