SLW.pdb
     RDKit          3D

 29 30  0  0  1  0  0  0  0  0999 V2000
    8.9198  -18.1883   17.8251 O   0  0  0  0  0  0  0  0  0  0  0  0
    9.5708  -19.1694   18.5631 C   0  0  0  0  0  0  0  0  0  0  0  0
    9.2969  -18.9305   20.0336 C   0  0  2  0  0  0  0  0  0  0  0  0
    7.8577  -18.9297   20.2099 N   0  0  0  0  0  0  0  0  0  0  0  0
    9.8489  -17.6544   20.5143 C   0  0  0  0  0  0  0  0  0  0  0  0
   11.0813  -17.4357   20.3973 O   0  0  0  0  0  0  0  0  0  0  0  0
    8.8403  -13.3964   19.3397 C   0  0  0  0  0  0  0  0  0  0  0  0
    7.7975  -14.0544   20.1860 C   0  0  2  0  0  0  0  0  0  0  0  0
    6.6148  -13.1243   20.3741 C   0  0  0  0  0  0  0  0  0  0  0  0
    8.3132  -14.4093   21.5381 C   0  0  0  0  0  0  0  0  0  0  0  0
    9.4990  -15.3519   21.5276 C   0  0  2  0  0  0  0  0  0  0  0  0
    9.0280  -16.6702   21.1036 N   0  0  0  0  0  0  0  0  0  0  0  0
   10.0063  -15.3996   22.9094 C   0  0  0  0  0  0  0  0  0  0  0  0
   10.7721  -14.5138   23.3157 O   0  0  0  0  0  0  0  0  0  0  0  0
    9.6159  -16.4511   23.7547 N   0  0  0  0  0  0  0  0  0  0  0  0
   10.0759  -16.6102   25.1394 C   0  0  1  0  0  0  0  0  0  0  0  0
    9.8131  -15.3840   25.9285 C   0  0  0  0  0  0  0  0  0  0  0  0
    8.3856  -15.0891   26.0692 C   0  0  0  0  0  0  0  0  0  0  0  0
    7.4068  -16.0759   25.8812 C   0  0  0  0  0  0  0  0  0  0  0  0
    6.2254  -15.4801   26.0442 N   0  0  0  0  0  0  0  0  0  0  0  0
    6.3942  -14.1824   26.3234 C   0  0  0  0  0  0  0  0  0  0  0  0
    5.4413  -13.2064   26.5787 C   0  0  0  0  0  0  0  0  0  0  0  0
    5.8798  -11.9365   26.8613 C   0  0  0  0  0  0  0  0  0  0  0  0
    7.2468  -11.6629   26.8845 C   0  0  0  0  0  0  0  0  0  0  0  0
    8.1869  -12.6445   26.6276 C   0  0  0  0  0  0  0  0  0  0  0  0
    7.7447  -13.9078   26.3460 C   0  0  0  0  0  0  0  0  0  0  0  0
    9.6256  -17.8844   25.6480 C   0  0  0  0  0  0  0  0  0  0  0  0
    8.8154  -18.8131   25.0093 O   0  0  0  0  0  0  0  0  0  0  0  0
    9.9883  -18.2383   26.8252 O   0  0  0  0  0  0  0  0  0  0  0  0
  1  2  1  0
  2  3  1  0
  3  5  1  0
  3  4  1  6
  5  6  2  0
  8 10  1  0
  8  7  1  6
  9  8  1  0
 11 10  1  1
 11 13  1  0
 12  5  1  0
 12 11  1  0
 13 14  2  0
 15 13  1  0
 15 16  1  0
 16 27  1  0
 16 17  1  1
 18 19  2  0
 18 17  1  0
 20 19  1  0
 21 26  2  0
 21 20  1  0
 22 21  1  0
 23 24  1  0
 23 22  2  0
 24 25  2  0
 25 26  1  0
 26 18  1  0
 27 28  1  0
 29 27  2  0
M  END
$$$$
