SHT.pdb
     RDKit          3D

 24 24  0  0  1  0  0  0  0  0999 V2000
   33.5956  -10.6737  -17.1291 O   0  0  0  0  0  0  0  0  0  0  0  0
   32.7952  -10.0571  -18.0990 C   0  0  0  0  0  0  0  0  0  0  0  0
   31.3483  -10.3248  -17.7386 C   0  0  2  0  0  0  0  0  0  0  0  0
   31.0665  -11.7407  -17.8466 N   0  0  0  0  0  0  0  0  0  0  0  0
   30.4272   -9.5985  -18.6386 C   0  0  0  0  0  0  0  0  0  0  0  0
   29.9698  -10.1803  -19.6479 O   0  0  0  0  0  0  0  0  0  0  0  0
   30.0327   -8.2440  -18.4014 N   0  0  0  0  0  0  0  0  0  0  0  0
   29.0836   -7.5586  -19.2580 C   0  0  1  0  0  0  0  0  0  0  0  0
   27.8666   -8.4191  -19.3658 C   0  0  0  0  0  0  0  0  0  0  0  0
   26.8377   -7.7678  -20.2181 C   0  0  0  0  0  0  0  0  0  0  0  0
   25.6897   -7.1262  -19.8762 C   0  0  0  0  0  0  0  0  0  0  0  0
   25.1159   -6.7190  -21.0202 N   0  0  0  0  0  0  0  0  0  0  0  0
   25.8852   -7.0958  -22.0549 C   0  0  0  0  0  0  0  0  0  0  0  0
   26.9305   -7.7333  -21.5569 N   0  0  0  0  0  0  0  0  0  0  0  0
   28.8666   -6.2073  -18.7805 C   0  0  0  0  0  0  0  0  0  0  0  0
   28.7812   -5.9952  -17.5395 O   0  0  0  0  0  0  0  0  0  0  0  0
   29.3005   -1.3493  -19.1556 C   0  0  0  0  0  0  0  0  0  0  0  0
   29.4702   -2.7259  -19.7642 C   0  0  1  0  0  0  0  0  0  0  0  0
   30.7719   -3.1567  -19.6694 O   0  0  0  0  0  0  0  0  0  0  0  0
   28.5916   -3.7281  -19.0476 C   0  0  2  0  0  0  0  0  0  0  0  0
   28.7364   -5.0585  -19.6066 N   0  0  0  0  0  0  0  0  0  0  0  0
   27.1707   -3.3491  -19.0796 C   0  0  0  0  0  0  0  0  0  0  0  0
   26.4190   -3.8124  -19.9554 O   0  0  0  0  0  0  0  0  0  0  0  0
   26.6704   -2.4789  -18.1372 O   0  0  0  0  0  0  0  0  0  0  0  0
  2  1  1  0
  3  2  1  0
  3  5  1  0
  3  4  1  6
  5  6  2  0
  5  7  1  0
  7  8  1  0
  8 15  1  0
  8  9  1  1
 10  9  1  0
 11 10  2  0
 12 11  1  0
 13 12  1  0
 13 14  2  0
 14 10  1  0
 15 16  2  0
 15 21  1  0
 18 17  1  1
 18 19  1  0
 20 22  1  0
 20 18  1  0
 20 21  1  6
 22 24  1  0
 23 22  2  0
M  END
$$$$
