SHT.pdb
     RDKit          3D

 24 24  0  0  1  0  0  0  0  0999 V2000
   26.0396   -9.3457  -21.8261 O   0  0  0  0  0  0  0  0  0  0  0  0
   25.0759   -9.6883  -20.8693 C   0  0  0  0  0  0  0  0  0  0  0  0
   25.5943  -10.8889  -20.1044 C   0  0  2  0  0  0  0  0  0  0  0  0
   25.4184  -12.0902  -20.8929 N   0  0  0  0  0  0  0  0  0  0  0  0
   24.8731  -11.0636  -18.8256 C   0  0  0  0  0  0  0  0  0  0  0  0
   23.7533  -11.6224  -18.8242 O   0  0  0  0  0  0  0  0  0  0  0  0
   25.4076  -10.6158  -17.5764 N   0  0  0  0  0  0  0  0  0  0  0  0
   24.6605  -10.7241  -16.3377 C   0  0  1  0  0  0  0  0  0  0  0  0
   25.6017  -11.2052  -15.2813 C   0  0  0  0  0  0  0  0  0  0  0  0
   25.9682  -12.6268  -15.5135 C   0  0  0  0  0  0  0  0  0  0  0  0
   25.5776  -13.4879  -16.4895 C   0  0  0  0  0  0  0  0  0  0  0  0
   26.1954  -14.6558  -16.2482 N   0  0  0  0  0  0  0  0  0  0  0  0
   26.9552  -14.5306  -15.1476 C   0  0  0  0  0  0  0  0  0  0  0  0
   26.8105  -13.2926  -14.7077 N   0  0  0  0  0  0  0  0  0  0  0  0
   23.9746   -9.4781  -16.0587 C   0  0  0  0  0  0  0  0  0  0  0  0
   24.6093   -8.3903  -16.1385 O   0  0  0  0  0  0  0  0  0  0  0  0
   19.9394   -8.9722  -16.7742 C   0  0  0  0  0  0  0  0  0  0  0  0
   20.9825   -7.8739  -16.7646 C   0  0  1  0  0  0  0  0  0  0  0  0
   20.4026   -6.6357  -16.6245 O   0  0  0  0  0  0  0  0  0  0  0  0
   21.9441   -8.0738  -15.6134 C   0  0  2  0  0  0  0  0  0  0  0  0
   22.6070   -9.3614  -15.6910 N   0  0  0  0  0  0  0  0  0  0  0  0
   21.2819   -7.9559  -14.3052 C   0  0  0  0  0  0  0  0  0  0  0  0
   21.2386   -8.9319  -13.5356 O   0  0  0  0  0  0  0  0  0  0  0  0
   20.7079   -6.7618  -13.9308 O   0  0  0  0  0  0  0  0  0  0  0  0
  2  1  1  0
  3  2  1  0
  3  5  1  0
  3  4  1  6
  5  6  2  0
  5  7  1  0
  7  8  1  0
  8 15  1  0
  8  9  1  1
 10  9  1  0
 11 10  2  0
 12 11  1  0
 13 12  1  0
 13 14  2  0
 14 10  1  0
 15 16  2  0
 15 21  1  0
 18 17  1  1
 18 19  1  0
 20 22  1  0
 20 18  1  0
 20 21  1  6
 22 24  1  0
 23 22  2  0
M  END
$$$$
