SHT.pdb
     RDKit          3D

 24 24  0  0  1  0  0  0  0  0999 V2000
   24.3602  -19.8152  -19.8396 O   0  0  0  0  0  0  0  0  0  0  0  0
   25.3990  -18.9228  -20.1327 C   0  0  0  0  0  0  0  0  0  0  0  0
   26.0517  -18.5313  -18.8228 C   0  0  2  0  0  0  0  0  0  0  0  0
   26.6399  -19.6964  -18.1965 N   0  0  0  0  0  0  0  0  0  0  0  0
   25.0681  -17.9477  -17.8857 C   0  0  0  0  0  0  0  0  0  0  0  0
   25.1115  -18.2636  -16.6755 O   0  0  0  0  0  0  0  0  0  0  0  0
   24.0581  -17.0273  -18.3091 N   0  0  0  0  0  0  0  0  0  0  0  0
   23.2024  -16.3365  -17.3632 C   0  0  1  0  0  0  0  0  0  0  0  0
   23.5895  -14.8931  -17.3720 C   0  0  0  0  0  0  0  0  0  0  0  0
   24.8728  -14.6901  -16.6501 C   0  0  0  0  0  0  0  0  0  0  0  0
   25.2040  -14.9422  -15.3565 C   0  0  0  0  0  0  0  0  0  0  0  0
   26.4889  -14.5814  -15.2063 N   0  0  0  0  0  0  0  0  0  0  0  0
   26.9528  -14.1142  -16.3772 C   0  0  0  0  0  0  0  0  0  0  0  0
   25.9622  -14.1843  -17.2495 N   0  0  0  0  0  0  0  0  0  0  0  0
   21.8105  -16.6233  -17.6484 C   0  0  0  0  0  0  0  0  0  0  0  0
   21.3981  -16.5672  -18.8397 O   0  0  0  0  0  0  0  0  0  0  0  0
   17.3088  -18.2819  -16.3095 C   0  0  0  0  0  0  0  0  0  0  0  0
   18.7627  -18.0623  -15.9459 C   0  0  1  0  0  0  0  0  0  0  0  0
   19.4139  -19.2564  -15.7485 O   0  0  0  0  0  0  0  0  0  0  0  0
   19.4742  -17.3184  -17.0551 C   0  0  2  0  0  0  0  0  0  0  0  0
   20.8320  -16.9741  -16.6795 N   0  0  0  0  0  0  0  0  0  0  0  0
   18.7634  -16.0931  -17.4518 C   0  0  0  0  0  0  0  0  0  0  0  0
   17.9756  -16.1104  -18.4140 O   0  0  0  0  0  0  0  0  0  0  0  0
   18.9704  -14.9231  -16.7562 O   0  0  0  0  0  0  0  0  0  0  0  0
  2  1  1  0
  3  2  1  0
  3  5  1  0
  3  4  1  1
  5  6  2  0
  5  7  1  0
  7  8  1  0
  8 15  1  0
  8  9  1  6
 10  9  1  0
 11 10  2  0
 12 11  1  0
 13 12  1  0
 13 14  2  0
 14 10  1  0
 15 16  2  0
 15 21  1  0
 18 17  1  6
 18 19  1  0
 20 22  1  0
 20 18  1  0
 20 21  1  1
 22 24  1  0
 23 22  2  0
M  END
$$$$
