SHT.pdb
     RDKit          3D

 24 24  0  0  1  0  0  0  0  0999 V2000
   15.2053  -11.4066  -14.3047 O   0  0  0  0  0  0  0  0  0  0  0  0
   16.4544  -10.7894  -14.4472 C   0  0  0  0  0  0  0  0  0  0  0  0
   17.0129  -11.1889  -15.7976 C   0  0  2  0  0  0  0  0  0  0  0  0
   17.4409  -12.5715  -15.7656 N   0  0  0  0  0  0  0  0  0  0  0  0
   18.1744  -10.3522  -16.1676 C   0  0  0  0  0  0  0  0  0  0  0  0
   19.3208  -10.6989  -15.8044 O   0  0  0  0  0  0  0  0  0  0  0  0
   18.0411   -9.1500  -16.9315 N   0  0  0  0  0  0  0  0  0  0  0  0
   19.1944   -8.4022  -17.3952 C   0  0  1  0  0  0  0  0  0  0  0  0
   18.9146   -7.9592  -18.7948 C   0  0  0  0  0  0  0  0  0  0  0  0
   20.0993   -7.2738  -19.3745 C   0  0  0  0  0  0  0  0  0  0  0  0
   21.3346   -7.0582  -18.8508 C   0  0  0  0  0  0  0  0  0  0  0  0
   22.0400   -6.3919  -19.7794 N   0  0  0  0  0  0  0  0  0  0  0  0
   21.2663   -6.1942  -20.8594 C   0  0  0  0  0  0  0  0  0  0  0  0
   20.0873   -6.7343  -20.6036 N   0  0  0  0  0  0  0  0  0  0  0  0
   19.5215   -7.3534  -16.4497 C   0  0  0  0  0  0  0  0  0  0  0  0
   18.5972   -6.6375  -15.9746 O   0  0  0  0  0  0  0  0  0  0  0  0
   23.1621   -7.2670  -14.3413 C   0  0  0  0  0  0  0  0  0  0  0  0
   21.8743   -6.6773  -13.8046 C   0  0  1  0  0  0  0  0  0  0  0  0
   22.1239   -5.6842  -12.8877 O   0  0  0  0  0  0  0  0  0  0  0  0
   21.0608   -6.0802  -14.9322 C   0  0  2  0  0  0  0  0  0  0  0  0
   20.8304   -7.0443  -15.9908 N   0  0  0  0  0  0  0  0  0  0  0  0
   21.6952   -4.8836  -15.5061 C   0  0  0  0  0  0  0  0  0  0  0  0
   21.8692   -3.8706  -14.8058 O   0  0  0  0  0  0  0  0  0  0  0  0
   22.0981   -4.8841  -16.8227 O   0  0  0  0  0  0  0  0  0  0  0  0
  2  1  1  0
  3  2  1  0
  3  5  1  0
  3  4  1  1
  5  6  2  0
  5  7  1  0
  7  8  1  0
  8 15  1  0
  8  9  1  6
 10  9  1  0
 11 10  2  0
 12 11  1  0
 13 12  1  0
 13 14  2  0
 14 10  1  0
 15 16  2  0
 15 21  1  0
 18 17  1  6
 18 19  1  0
 20 22  1  0
 20 18  1  0
 20 21  1  6
 22 24  1  0
 23 22  2  0
M  END
$$$$
