SHT.pdb
     RDKit          3D

 24 24  0  0  1  0  0  0  0  0999 V2000
   20.3992   -9.4899  -19.5409 O   0  0  0  0  0  0  0  0  0  0  0  0
   20.1367   -8.8666  -18.3144 C   0  0  0  0  0  0  0  0  0  0  0  0
   21.4599   -8.3984  -17.7444 C   0  0  2  0  0  0  0  0  0  0  0  0
   22.2984   -9.5391  -17.4416 N   0  0  0  0  0  0  0  0  0  0  0  0
   21.2650   -7.6228  -16.5008 C   0  0  0  0  0  0  0  0  0  0  0  0
   20.6558   -8.1457  -15.5408 O   0  0  0  0  0  0  0  0  0  0  0  0
   21.7489   -6.2853  -16.3475 N   0  0  0  0  0  0  0  0  0  0  0  0
   21.6284   -5.5631  -15.0952 C   0  0  1  0  0  0  0  0  0  0  0  0
   22.3282   -6.3606  -14.0429 C   0  0  0  0  0  0  0  0  0  0  0  0
   21.3554   -7.1756  -13.2691 C   0  0  0  0  0  0  0  0  0  0  0  0
   20.0101   -7.3067  -13.4085 C   0  0  0  0  0  0  0  0  0  0  0  0
   19.6020   -8.1637  -12.4583 N   0  0  0  0  0  0  0  0  0  0  0  0
   20.6655   -8.5608  -11.7401 C   0  0  0  0  0  0  0  0  0  0  0  0
   21.7277   -7.9543  -12.2409 N   0  0  0  0  0  0  0  0  0  0  0  0
   22.0801   -4.1961  -15.2627 C   0  0  0  0  0  0  0  0  0  0  0  0
   23.2459   -3.9774  -15.6936 O   0  0  0  0  0  0  0  0  0  0  0  0
   20.9067   -1.5431  -17.5296 C   0  0  0  0  0  0  0  0  0  0  0  0
   20.9054   -0.9230  -16.1477 C   0  0  1  0  0  0  0  0  0  0  0  0
   19.6439   -0.9217  -15.6021 O   0  0  0  0  0  0  0  0  0  0  0  0
   21.8150   -1.7018  -15.2225 C   0  0  2  0  0  0  0  0  0  0  0  0
   21.3075   -3.0381  -14.9775 N   0  0  0  0  0  0  0  0  0  0  0  0
   22.0141   -1.0230  -13.9328 C   0  0  0  0  0  0  0  0  0  0  0  0
   21.5668   -1.5244  -12.8861 O   0  0  0  0  0  0  0  0  0  0  0  0
   22.6975    0.1712  -13.8831 O   0  0  0  0  0  0  0  0  0  0  0  0
  2  1  1  0
  3  2  1  0
  3  5  1  0
  3  4  1  1
  5  6  2  0
  5  7  1  0
  7  8  1  0
  8 15  1  0
  8  9  1  1
 10  9  1  0
 11 10  2  0
 12 11  1  0
 13 12  1  0
 13 14  2  0
 14 10  1  0
 15 16  2  0
 15 21  1  0
 18 17  1  6
 18 19  1  0
 20 22  1  0
 20 18  1  0
 20 21  1  1
 22 24  1  0
 23 22  2  0
M  END
$$$$
