SHT.pdb
     RDKit          3D

 24 24  0  0  1  0  0  0  0  0999 V2000
   19.5653  -12.6894  -18.3206 O   0  0  0  0  0  0  0  0  0  0  0  0
   19.2178  -11.6260  -17.4780 C   0  0  0  0  0  0  0  0  0  0  0  0
   20.3429  -10.6128  -17.5290 C   0  0  2  0  0  0  0  0  0  0  0  0
   21.5713  -11.2146  -17.0548 N   0  0  0  0  0  0  0  0  0  0  0  0
   20.0459   -9.4369  -16.6833 C   0  0  0  0  0  0  0  0  0  0  0  0
   19.0037   -8.7768  -16.8945 O   0  0  0  0  0  0  0  0  0  0  0  0
   20.9092   -9.0176  -15.6224 N   0  0  0  0  0  0  0  0  0  0  0  0
   20.6397   -7.8284  -14.8367 C   0  0  1  0  0  0  0  0  0  0  0  0
   20.5804   -8.2376  -13.4006 C   0  0  0  0  0  0  0  0  0  0  0  0
   19.2261   -8.7435  -13.0551 C   0  0  0  0  0  0  0  0  0  0  0  0
   18.1364   -8.9477  -13.8408 C   0  0  0  0  0  0  0  0  0  0  0  0
   17.1632   -9.4161  -13.0425 N   0  0  0  0  0  0  0  0  0  0  0  0
   17.6309   -9.5037  -11.7863 C   0  0  0  0  0  0  0  0  0  0  0  0
   18.8869   -9.0923  -11.8040 N   0  0  0  0  0  0  0  0  0  0  0  0
   21.5954   -6.7885  -15.1626 C   0  0  0  0  0  0  0  0  0  0  0  0
   22.8261   -7.0660  -15.1938 O   0  0  0  0  0  0  0  0  0  0  0  0
   21.7363   -4.6080  -18.2810 C   0  0  0  0  0  0  0  0  0  0  0  0
   21.8442   -3.6922  -17.0793 C   0  0  1  0  0  0  0  0  0  0  0  0
   20.6391   -3.0946  -16.7971 O   0  0  0  0  0  0  0  0  0  0  0  0
   22.2755   -4.4764  -15.8592 C   0  0  2  0  0  0  0  0  0  0  0  0
   21.2662   -5.4387  -15.4608 N   0  0  0  0  0  0  0  0  0  0  0  0
   22.5824   -3.6050  -14.7145 C   0  0  0  0  0  0  0  0  0  0  0  0
   21.8725   -3.6394  -13.6939 O   0  0  0  0  0  0  0  0  0  0  0  0
   23.6587   -2.7484  -14.7723 O   0  0  0  0  0  0  0  0  0  0  0  0
  2  1  1  0
  3  2  1  0
  3  5  1  0
  3  4  1  1
  5  6  2  0
  5  7  1  0
  7  8  1  0
  8 15  1  0
  8  9  1  1
 10  9  1  0
 11 10  2  0
 12 11  1  0
 13 12  1  0
 13 14  2  0
 14 10  1  0
 15 16  2  0
 15 21  1  0
 18 17  1  6
 18 19  1  0
 20 22  1  0
 20 18  1  0
 20 21  1  1
 22 24  1  0
 23 22  2  0
M  END
$$$$
