SHT.pdb
     RDKit          3D

 24 24  0  0  1  0  0  0  0  0999 V2000
   17.8106  -13.6778  -14.3211 O   0  0  0  0  0  0  0  0  0  0  0  0
   18.3336  -12.5999  -15.0464 C   0  0  0  0  0  0  0  0  0  0  0  0
   17.1660  -11.8017  -15.5892 C   0  0  2  0  0  0  0  0  0  0  0  0
   16.6330  -12.4473  -16.7703 N   0  0  0  0  0  0  0  0  0  0  0  0
   17.5774  -10.4297  -15.9563 C   0  0  0  0  0  0  0  0  0  0  0  0
   18.0228  -10.2094  -17.1049 O   0  0  0  0  0  0  0  0  0  0  0  0
   17.4865   -9.3319  -15.0435 N   0  0  0  0  0  0  0  0  0  0  0  0
   17.9718   -8.0078  -15.3832 C   0  0  1  0  0  0  0  0  0  0  0  0
   16.8066   -7.0730  -15.3399 C   0  0  0  0  0  0  0  0  0  0  0  0
   15.9095   -7.2993  -16.5033 C   0  0  0  0  0  0  0  0  0  0  0  0
   16.0726   -6.9827  -17.8147 C   0  0  0  0  0  0  0  0  0  0  0  0
   14.9703   -7.4031  -18.4565 N   0  0  0  0  0  0  0  0  0  0  0  0
   14.1358   -7.9697  -17.5695 C   0  0  0  0  0  0  0  0  0  0  0  0
   14.7159   -7.9019  -16.3838 N   0  0  0  0  0  0  0  0  0  0  0  0
   19.0986   -7.6587  -14.5410 C   0  0  0  0  0  0  0  0  0  0  0  0
   19.0213   -7.8434  -13.2951 O   0  0  0  0  0  0  0  0  0  0  0  0
   22.3747   -9.1016  -14.1507 C   0  0  0  0  0  0  0  0  0  0  0  0
   22.6450   -7.6345  -14.4128 C   0  0  1  0  0  0  0  0  0  0  0  0
   22.9759   -7.4150  -15.7286 O   0  0  0  0  0  0  0  0  0  0  0  0
   21.4168   -6.8098  -14.0948 C   0  0  2  0  0  0  0  0  0  0  0  0
   20.3253   -7.1089  -15.0017 N   0  0  0  0  0  0  0  0  0  0  0  0
   21.6882   -5.3646  -14.1348 C   0  0  0  0  0  0  0  0  0  0  0  0
   21.2074   -4.6625  -15.0417 O   0  0  0  0  0  0  0  0  0  0  0  0
   22.4769   -4.7867  -13.1655 O   0  0  0  0  0  0  0  0  0  0  0  0
  2  1  1  0
  3  2  1  0
  3  5  1  0
  3  4  1  6
  5  6  2  0
  5  7  1  0
  7  8  1  0
  8 15  1  0
  8  9  1  1
 10  9  1  0
 11 10  2  0
 12 11  1  0
 13 12  1  0
 13 14  2  0
 14 10  1  0
 15 16  2  0
 15 21  1  0
 18 17  1  6
 18 19  1  0
 20 22  1  0
 20 18  1  0
 20 21  1  6
 22 24  1  0
 23 22  2  0
M  END
$$$$
