SHT.pdb
     RDKit          3D

 24 24  0  0  1  0  0  0  0  0999 V2000
   26.9224  -20.2790  -19.0269 O   0  0  0  0  0  0  0  0  0  0  0  0
   28.2721  -19.9412  -18.8663 C   0  0  0  0  0  0  0  0  0  0  0  0
   28.7323  -20.5064  -17.5382 C   0  0  2  0  0  0  0  0  0  0  0  0
   28.4449  -21.9241  -17.4787 N   0  0  0  0  0  0  0  0  0  0  0  0
   28.0467  -19.8463  -16.4067 C   0  0  0  0  0  0  0  0  0  0  0  0
   28.2043  -18.6179  -16.2263 O   0  0  0  0  0  0  0  0  0  0  0  0
   27.2017  -20.5606  -15.4999 N   0  0  0  0  0  0  0  0  0  0  0  0
   26.5674  -19.9124  -14.3678 C   0  0  1  0  0  0  0  0  0  0  0  0
   25.7014  -18.8167  -14.8996 C   0  0  0  0  0  0  0  0  0  0  0  0
   24.6200  -19.3716  -15.7551 C   0  0  0  0  0  0  0  0  0  0  0  0
   24.3106  -20.6599  -16.0570 C   0  0  0  0  0  0  0  0  0  0  0  0
   23.2435  -20.6233  -16.8717 N   0  0  0  0  0  0  0  0  0  0  0  0
   22.8918  -19.3431  -17.0761 C   0  0  0  0  0  0  0  0  0  0  0  0
   23.7351  -18.5889  -16.3927 N   0  0  0  0  0  0  0  0  0  0  0  0
   25.9066  -20.8978  -13.5351 C   0  0  0  0  0  0  0  0  0  0  0  0
   26.1855  -22.1198  -13.6818 O   0  0  0  0  0  0  0  0  0  0  0  0
   26.3343  -20.6131   -9.0462 C   0  0  0  0  0  0  0  0  0  0  0  0
   26.3838  -20.5077  -10.5565 C   0  0  1  0  0  0  0  0  0  0  0  0
   27.4362  -21.2253  -11.0729 O   0  0  0  0  0  0  0  0  0  0  0  0
   25.1066  -21.0477  -11.1621 C   0  0  2  0  0  0  0  0  0  0  0  0
   24.9405  -20.6080  -12.5341 N   0  0  0  0  0  0  0  0  0  0  0  0
   23.9153  -20.6623  -10.3900 C   0  0  0  0  0  0  0  0  0  0  0  0
   23.2647  -19.6507  -10.7065 O   0  0  0  0  0  0  0  0  0  0  0  0
   23.5186  -21.4233   -9.3133 O   0  0  0  0  0  0  0  0  0  0  0  0
  2  1  1  0
  3  2  1  0
  3  5  1  0
  3  4  1  6
  5  6  2  0
  5  7  1  0
  7  8  1  0
  8 15  1  0
  8  9  1  6
 10  9  1  0
 11 10  2  0
 12 11  1  0
 13 12  1  0
 13 14  2  0
 14 10  1  0
 15 16  2  0
 15 21  1  0
 18 17  1  1
 18 19  1  0
 20 22  1  0
 20 18  1  0
 20 21  1  6
 22 24  1  0
 23 22  2  0
M  END
$$$$
