SHT.pdb
     RDKit          3D

 24 24  0  0  1  0  0  0  0  0999 V2000
   19.4697  -11.2191  -17.8944 O   0  0  0  0  0  0  0  0  0  0  0  0
   19.6674  -12.6046  -17.9487 C   0  0  0  0  0  0  0  0  0  0  0  0
   20.9203  -12.9213  -17.1581 C   0  0  2  0  0  0  0  0  0  0  0  0
   22.0804  -12.3784  -17.8329 N   0  0  0  0  0  0  0  0  0  0  0  0
   21.1092  -14.3805  -17.0122 C   0  0  0  0  0  0  0  0  0  0  0  0
   22.0962  -14.9284  -17.5525 O   0  0  0  0  0  0  0  0  0  0  0  0
   20.2011  -15.2009  -16.2714 N   0  0  0  0  0  0  0  0  0  0  0  0
   20.4365  -16.6177  -16.0676 C   0  0  1  0  0  0  0  0  0  0  0  0
   21.7795  -16.7668  -15.4293 C   0  0  0  0  0  0  0  0  0  0  0  0
   22.0891  -18.2005  -15.1881 C   0  0  0  0  0  0  0  0  0  0  0  0
   21.3682  -19.3163  -15.4740 C   0  0  0  0  0  0  0  0  0  0  0  0
   22.0923  -20.3660  -15.0525 N   0  0  0  0  0  0  0  0  0  0  0  0
   23.2396  -19.9197  -14.5151 C   0  0  0  0  0  0  0  0  0  0  0  0
   23.2286  -18.6009  -14.6022 N   0  0  0  0  0  0  0  0  0  0  0  0
   19.3234  -17.2103  -15.3529 C   0  0  0  0  0  0  0  0  0  0  0  0
   18.9652  -16.7186  -14.2472 O   0  0  0  0  0  0  0  0  0  0  0  0
   15.8398  -18.0109  -16.8833 C   0  0  0  0  0  0  0  0  0  0  0  0
   16.2934  -19.1967  -16.0572 C   0  0  1  0  0  0  0  0  0  0  0  0
   16.7921  -20.1991  -16.8544 O   0  0  0  0  0  0  0  0  0  0  0  0
   17.3827  -18.7787  -15.0937 C   0  0  2  0  0  0  0  0  0  0  0  0
   18.5710  -18.3317  -15.7949 N   0  0  0  0  0  0  0  0  0  0  0  0
   17.7536  -19.8589  -14.1667 C   0  0  0  0  0  0  0  0  0  0  0  0
   16.9745  -20.1997  -13.2591 O   0  0  0  0  0  0  0  0  0  0  0  0
   18.9668  -20.4953  -14.3034 O   0  0  0  0  0  0  0  0  0  0  0  0
  2  1  1  0
  3  2  1  0
  3  5  1  0
  3  4  1  6
  5  6  2  0
  5  7  1  0
  7  8  1  0
  8 15  1  0
  8  9  1  1
 10  9  1  0
 11 10  2  0
 12 11  1  0
 13 12  1  0
 13 14  2  0
 14 10  1  0
 15 16  2  0
 15 21  1  0
 18 17  1  6
 18 19  1  0
 20 22  1  0
 20 18  1  0
 20 21  1  6
 22 24  1  0
 23 22  2  0
M  END
$$$$
