SHT.pdb
     RDKit          3D

 24 24  0  0  1  0  0  0  0  0999 V2000
   26.5376  -12.5444  -19.0396 O   0  0  0  0  0  0  0  0  0  0  0  0
   25.2824  -11.9630  -19.2590 C   0  0  0  0  0  0  0  0  0  0  0  0
   24.2332  -12.9275  -18.7453 C   0  0  2  0  0  0  0  0  0  0  0  0
   23.6962  -13.7036  -19.8430 N   0  0  0  0  0  0  0  0  0  0  0  0
   23.1163  -12.2098  -18.0945 C   0  0  0  0  0  0  0  0  0  0  0  0
   22.2561  -11.6414  -18.8039 O   0  0  0  0  0  0  0  0  0  0  0  0
   22.9763  -12.1372  -16.6726 N   0  0  0  0  0  0  0  0  0  0  0  0
   21.8182  -11.5303  -16.0443 C   0  0  1  0  0  0  0  0  0  0  0  0
   21.3757  -12.4346  -14.9399 C   0  0  0  0  0  0  0  0  0  0  0  0
   20.4857  -13.5041  -15.4629 C   0  0  0  0  0  0  0  0  0  0  0  0
   20.0942  -13.7791  -16.7347 C   0  0  0  0  0  0  0  0  0  0  0  0
   19.2868  -14.8504  -16.6704 N   0  0  0  0  0  0  0  0  0  0  0  0
   19.1744  -15.2383  -15.3892 C   0  0  0  0  0  0  0  0  0  0  0  0
   19.9074  -14.4131  -14.6621 N   0  0  0  0  0  0  0  0  0  0  0  0
   22.1156  -10.1630  -15.6660 C   0  0  0  0  0  0  0  0  0  0  0  0
   23.2016   -9.9056  -15.0771 O   0  0  0  0  0  0  0  0  0  0  0  0
   22.8502   -7.2182  -17.6671 C   0  0  0  0  0  0  0  0  0  0  0  0
   21.7261   -6.7904  -16.7464 C   0  0  1  0  0  0  0  0  0  0  0  0
   20.5098   -6.8463  -17.3840 O   0  0  0  0  0  0  0  0  0  0  0  0
   21.6637   -7.6987  -15.5377 C   0  0  2  0  0  0  0  0  0  0  0  0
   21.2704   -9.0458  -15.9039 N   0  0  0  0  0  0  0  0  0  0  0  0
   20.7418   -7.1957  -14.5077 C   0  0  0  0  0  0  0  0  0  0  0  0
   19.6816   -7.8001  -14.2677 O   0  0  0  0  0  0  0  0  0  0  0  0
   21.0528   -6.0523  -13.8066 O   0  0  0  0  0  0  0  0  0  0  0  0
  2  1  1  0
  3  2  1  0
  3  5  1  0
  3  4  1  6
  5  6  2  0
  5  7  1  0
  7  8  1  0
  8 15  1  0
  8  9  1  1
 10  9  1  0
 11 10  2  0
 12 11  1  0
 13 12  1  0
 13 14  2  0
 14 10  1  0
 15 16  2  0
 15 21  1  0
 18 17  1  6
 18 19  1  0
 20 22  1  0
 20 18  1  0
 20 21  1  6
 22 24  1  0
 23 22  2  0
M  END
$$$$
