SHT.pdb
     RDKit          3D

 24 24  0  0  1  0  0  0  0  0999 V2000
   23.6202  -14.8960  -17.6344 O   0  0  0  0  0  0  0  0  0  0  0  0
   22.7426  -13.8286  -17.8624 C   0  0  0  0  0  0  0  0  0  0  0  0
   21.4754  -14.1000  -17.0777 C   0  0  2  0  0  0  0  0  0  0  0  0
   20.6987  -15.1298  -17.7349 N   0  0  0  0  0  0  0  0  0  0  0  0
   20.6391  -12.8853  -16.9707 C   0  0  0  0  0  0  0  0  0  0  0  0
   20.1318  -12.3967  -18.0052 O   0  0  0  0  0  0  0  0  0  0  0  0
   20.3830  -12.2384  -15.7207 N   0  0  0  0  0  0  0  0  0  0  0  0
   19.4995  -11.0928  -15.6150 C   0  0  1  0  0  0  0  0  0  0  0  0
   18.3730  -11.4711  -14.7089 C   0  0  0  0  0  0  0  0  0  0  0  0
   17.4407  -12.4049  -15.3931 C   0  0  0  0  0  0  0  0  0  0  0  0
   16.5342  -12.1775  -16.3795 C   0  0  0  0  0  0  0  0  0  0  0  0
   15.9451  -13.3547  -16.6457 N   0  0  0  0  0  0  0  0  0  0  0  0
   16.4692  -14.2980  -15.8457 C   0  0  0  0  0  0  0  0  0  0  0  0
   17.3783  -13.7105  -15.0872 N   0  0  0  0  0  0  0  0  0  0  0  0
   20.2538   -9.9151  -15.2343 C   0  0  0  0  0  0  0  0  0  0  0  0
   20.9921   -9.9563  -14.2117 O   0  0  0  0  0  0  0  0  0  0  0  0
   22.9132   -8.0648  -17.1757 C   0  0  0  0  0  0  0  0  0  0  0  0
   21.8872   -7.0455  -16.7257 C   0  0  1  0  0  0  0  0  0  0  0  0
   20.9960   -6.7566  -17.7313 O   0  0  0  0  0  0  0  0  0  0  0  0
   21.1046   -7.5755  -15.5440 C   0  0  2  0  0  0  0  0  0  0  0  0
   20.2402   -8.6749  -15.9279 N   0  0  0  0  0  0  0  0  0  0  0  0
   20.2923   -6.5326  -14.8987 C   0  0  0  0  0  0  0  0  0  0  0  0
   20.8428   -5.5879  -14.3060 O   0  0  0  0  0  0  0  0  0  0  0  0
   18.9182   -6.6018  -14.9503 O   0  0  0  0  0  0  0  0  0  0  0  0
  2  1  1  0
  3  2  1  0
  3  5  1  0
  3  4  1  6
  5  6  2  0
  5  7  1  0
  7  8  1  0
  8 15  1  0
  8  9  1  1
 10  9  1  0
 11 10  2  0
 12 11  1  0
 13 12  1  0
 13 14  2  0
 14 10  1  0
 15 16  2  0
 15 21  1  0
 18 17  1  6
 18 19  1  0
 20 22  1  0
 20 18  1  0
 20 21  1  6
 22 24  1  0
 23 22  2  0
M  END
$$$$
