SHT.pdb
     RDKit          3D

 24 24  0  0  1  0  0  0  0  0999 V2000
   14.1045   -6.1045   -7.2700 O   0  0  0  0  0  0  0  0  0  0  0  0
   15.1233   -6.6395   -8.0683 C   0  0  0  0  0  0  0  0  0  0  0  0
   14.4791   -7.5789   -9.0671 C   0  0  2  0  0  0  0  0  0  0  0  0
   13.8137   -8.6595   -8.3705 N   0  0  0  0  0  0  0  0  0  0  0  0
   15.4842   -8.1646   -9.9796 C   0  0  0  0  0  0  0  0  0  0  0  0
   15.4766   -9.3982  -10.1903 O   0  0  0  0  0  0  0  0  0  0  0  0
   16.4757   -7.3715  -10.6389 N   0  0  0  0  0  0  0  0  0  0  0  0
   17.1738   -7.8404  -11.8209 C   0  0  1  0  0  0  0  0  0  0  0  0
   16.1480   -8.1296  -12.8684 C   0  0  0  0  0  0  0  0  0  0  0  0
   15.9301   -9.5941  -12.9987 C   0  0  0  0  0  0  0  0  0  0  0  0
   16.6819  -10.6378  -12.5605 C   0  0  0  0  0  0  0  0  0  0  0  0
   16.0459  -11.7599  -12.9350 N   0  0  0  0  0  0  0  0  0  0  0  0
   14.9223  -11.4284  -13.5921 C   0  0  0  0  0  0  0  0  0  0  0  0
   14.8605  -10.1085  -13.6258 N   0  0  0  0  0  0  0  0  0  0  0  0
   18.2135   -6.9008  -12.1913 C   0  0  0  0  0  0  0  0  0  0  0  0
   18.0518   -5.6723  -11.9524 O   0  0  0  0  0  0  0  0  0  0  0  0
   22.6625   -5.7836  -14.1488 C   0  0  0  0  0  0  0  0  0  0  0  0
   21.6921   -6.8597  -13.7076 C   0  0  1  0  0  0  0  0  0  0  0  0
   22.2148   -7.6145  -12.6848 O   0  0  0  0  0  0  0  0  0  0  0  0
   20.4036   -6.2353  -13.2179 C   0  0  2  0  0  0  0  0  0  0  0  0
   19.4408   -7.2442  -12.8200 N   0  0  0  0  0  0  0  0  0  0  0  0
   19.7881   -5.3597  -14.2270 C   0  0  0  0  0  0  0  0  0  0  0  0
   19.1330   -5.8490  -15.1641 O   0  0  0  0  0  0  0  0  0  0  0  0
   19.9370   -3.9941  -14.1345 O   0  0  0  0  0  0  0  0  0  0  0  0
  2  1  1  0
  3  2  1  0
  3  5  1  0
  3  4  1  1
  5  6  2  0
  5  7  1  0
  7  8  1  0
  8 15  1  0
  8  9  1  6
 10  9  1  0
 11 10  2  0
 12 11  1  0
 13 12  1  0
 13 14  2  0
 14 10  1  0
 15 16  2  0
 15 21  1  0
 18 17  1  1
 18 19  1  0
 20 22  1  0
 20 18  1  0
 20 21  1  6
 22 24  1  0
 23 22  2  0
M  END
$$$$
