SHT.pdb
     RDKit          3D

 24 24  0  0  1  0  0  0  0  0999 V2000
   17.6055  -13.8543  -20.1001 O   0  0  0  0  0  0  0  0  0  0  0  0
   18.2845  -13.2013  -19.0638 C   0  0  0  0  0  0  0  0  0  0  0  0
   19.7441  -13.5980  -19.1493 C   0  0  2  0  0  0  0  0  0  0  0  0
   19.8848  -15.0182  -18.9067 N   0  0  0  0  0  0  0  0  0  0  0  0
   20.5573  -12.8738  -18.1490 C   0  0  0  0  0  0  0  0  0  0  0  0
   20.4167  -13.1410  -16.9344 O   0  0  0  0  0  0  0  0  0  0  0  0
   21.5081  -11.8697  -18.5155 N   0  0  0  0  0  0  0  0  0  0  0  0
   22.3676  -11.2314  -17.5367 C   0  0  1  0  0  0  0  0  0  0  0  0
   23.7494  -11.1914  -18.1044 C   0  0  0  0  0  0  0  0  0  0  0  0
   24.7233  -10.7284  -17.0814 C   0  0  0  0  0  0  0  0  0  0  0  0
   24.5349  -10.3795  -15.7817 C   0  0  0  0  0  0  0  0  0  0  0  0
   25.7374  -10.0345  -15.2930 N   0  0  0  0  0  0  0  0  0  0  0  0
   26.6580  -10.1637  -16.2626 C   0  0  0  0  0  0  0  0  0  0  0  0
   26.0315  -10.5864  -17.3470 N   0  0  0  0  0  0  0  0  0  0  0  0
   21.8070   -9.9557  -17.1377 C   0  0  0  0  0  0  0  0  0  0  0  0
   21.6099   -9.0656  -18.0104 O   0  0  0  0  0  0  0  0  0  0  0  0
   18.4999   -9.0794  -15.8884 C   0  0  0  0  0  0  0  0  0  0  0  0
   19.4664   -8.4958  -14.8786 C   0  0  1  0  0  0  0  0  0  0  0  0
   19.5991   -9.3152  -13.7831 O   0  0  0  0  0  0  0  0  0  0  0  0
   20.8342   -8.3214  -15.5017 C   0  0  2  0  0  0  0  0  0  0  0  0
   21.4455   -9.5999  -15.8103 N   0  0  0  0  0  0  0  0  0  0  0  0
   21.7461   -7.5516  -14.6417 C   0  0  0  0  0  0  0  0  0  0  0  0
   22.7399   -8.1005  -14.1337 O   0  0  0  0  0  0  0  0  0  0  0  0
   21.4995   -6.2192  -14.3977 O   0  0  0  0  0  0  0  0  0  0  0  0
  2  1  1  0
  3  2  1  0
  3  5  1  0
  3  4  1  1
  5  6  2  0
  5  7  1  0
  7  8  1  0
  8 15  1  0
  8  9  1  6
 10  9  1  0
 11 10  2  0
 12 11  1  0
 13 12  1  0
 13 14  2  0
 14 10  1  0
 15 16  2  0
 15 21  1  0
 18 17  1  6
 18 19  1  0
 20 22  1  0
 20 18  1  0
 20 21  1  1
 22 24  1  0
 23 22  2  0
M  END
$$$$
