SHT.pdb
     RDKit          3D

 24 24  0  0  1  0  0  0  0  0999 V2000
   24.3190  -39.0630  -10.1487 O   0  0  0  0  0  0  0  0  0  0  0  0
   25.2152  -38.5086   -9.2261 C   0  0  0  0  0  0  0  0  0  0  0  0
   25.1847  -37.0043   -9.4028 C   0  0  2  0  0  0  0  0  0  0  0  0
   25.4151  -36.6655  -10.7913 N   0  0  0  0  0  0  0  0  0  0  0  0
   26.2263  -36.3460   -8.5856 C   0  0  0  0  0  0  0  0  0  0  0  0
   27.2865  -35.9672   -9.1322 O   0  0  0  0  0  0  0  0  0  0  0  0
   26.0711  -36.1217   -7.1813 N   0  0  0  0  0  0  0  0  0  0  0  0
   27.1343  -35.5586   -6.3708 C   0  0  1  0  0  0  0  0  0  0  0  0
   27.5379  -34.2602   -6.9909 C   0  0  0  0  0  0  0  0  0  0  0  0
   26.3404  -33.4748   -7.3892 C   0  0  0  0  0  0  0  0  0  0  0  0
   25.0239  -33.8112   -7.3775 C   0  0  0  0  0  0  0  0  0  0  0  0
   24.3460  -32.7461   -7.8356 N   0  0  0  0  0  0  0  0  0  0  0  0
   25.2160  -31.7652   -8.1277 C   0  0  0  0  0  0  0  0  0  0  0  0
   26.4269  -32.2180   -7.8528 N   0  0  0  0  0  0  0  0  0  0  0  0
   26.7243  -35.4996   -4.9818 C   0  0  0  0  0  0  0  0  0  0  0  0
   25.5539  -35.8503   -4.6661 O   0  0  0  0  0  0  0  0  0  0  0  0
   29.7965  -36.9157   -3.9097 C   0  0  0  0  0  0  0  0  0  0  0  0
   28.4948  -37.2136   -3.1949 C   0  0  1  0  0  0  0  0  0  0  0  0
   28.7054  -37.9767   -2.0713 O   0  0  0  0  0  0  0  0  0  0  0  0
   27.8243  -35.9260   -2.7678 C   0  0  2  0  0  0  0  0  0  0  0  0
   27.5443  -35.0693   -3.9040 N   0  0  0  0  0  0  0  0  0  0  0  0
   28.6273  -35.1753   -1.7904 C   0  0  0  0  0  0  0  0  0  0  0  0
   28.7903  -35.6204   -0.6406 O   0  0  0  0  0  0  0  0  0  0  0  0
   29.2007  -33.9759   -2.1487 O   0  0  0  0  0  0  0  0  0  0  0  0
  2  1  1  0
  3  2  1  0
  3  5  1  0
  3  4  1  6
  5  6  2  0
  5  7  1  0
  7  8  1  0
  8 15  1  0
  8  9  1  6
 10  9  1  0
 11 10  2  0
 12 11  1  0
 13 12  1  0
 13 14  2  0
 14 10  1  0
 15 16  2  0
 15 21  1  0
 18 17  1  1
 18 19  1  0
 20 22  1  0
 20 18  1  0
 20 21  1  6
 22 24  1  0
 23 22  2  0
M  END
$$$$
