EAG.pdb
     RDKit          3D

 19 18  0  0  1  0  0  0  0  0999 V2000
   18.8922  -12.4202  -18.1051 N   0  0  0  0  0  0  0  0  0  0  0  0
   18.8141  -11.1532  -17.3677 C   0  0  1  0  0  0  0  0  0  0  0  0
   18.6306  -11.5235  -15.9210 C   0  0  0  0  0  0  0  0  0  0  0  0
   17.3291  -12.1724  -15.6009 C   0  0  0  0  0  0  0  0  0  0  0  0
   17.0744  -12.4183  -14.1738 C   0  0  0  0  0  0  0  0  0  0  0  0
   16.6140  -11.4918  -13.4628 O   0  0  0  0  0  0  0  0  0  0  0  0
   20.0274  -10.3518  -17.6172 C   0  0  0  0  0  0  0  0  0  0  0  0
   21.1612  -10.8716  -17.7219 O   0  0  0  0  0  0  0  0  0  0  0  0
   17.3406  -13.6802  -13.5941 O   0  0  0  0  0  0  0  0  0  0  0  0
   20.8619   -6.9059  -18.8310 C   0  0  0  0  0  0  0  0  0  0  0  0
   21.1619   -8.1236  -17.9827 C   0  0  2  0  0  0  0  0  0  0  0  0
   19.9857   -8.9258  -17.7559 N   0  0  0  0  0  0  0  0  0  0  0  0
   21.8061   -7.6990  -16.7213 C   0  0  0  0  0  0  0  0  0  0  0  0
   22.9138   -7.1504  -16.7209 O   0  0  0  0  0  0  0  0  0  0  0  0
   21.1293   -7.9315  -15.4946 N   0  0  0  0  0  0  0  0  0  0  0  0
   21.6486   -7.5309  -14.2170 C   0  0  0  0  0  0  0  0  0  0  0  0
   21.4984   -6.1044  -13.9411 C   0  0  0  0  0  0  0  0  0  0  0  0
   21.8504   -5.6311  -12.8410 O   0  0  0  0  0  0  0  0  0  0  0  0
   20.9663   -5.2575  -14.8887 O   0  0  0  0  0  0  0  0  0  0  0  0
  2  1  1  6
  3  2  1  0
  4  3  1  0
  5  6  2  0
  5  4  1  0
  7  2  1  0
  8  7  2  0
  9  5  1  0
 11 10  1  1
 11 12  1  0
 12  7  1  0
 13 11  1  0
 14 13  2  0
 15 13  1  0
 16 15  1  0
 17 16  1  0
 17 19  1  0
 18 17  2  0
M  END
$$$$
