EAG.pdb
     RDKit          3D

 19 18  0  0  1  0  0  0  0  0999 V2000
   18.6997  -12.9602  -15.7581 N   0  0  0  0  0  0  0  0  0  0  0  0
   19.3019  -11.8157  -16.4527 C   0  0  1  0  0  0  0  0  0  0  0  0
   18.1665  -11.0887  -17.1203 C   0  0  0  0  0  0  0  0  0  0  0  0
   17.4960  -11.8445  -18.2143 C   0  0  0  0  0  0  0  0  0  0  0  0
   16.3388  -11.1795  -18.8310 C   0  0  0  0  0  0  0  0  0  0  0  0
   15.7045  -11.7674  -19.7409 O   0  0  0  0  0  0  0  0  0  0  0  0
   20.0467  -10.9805  -15.4912 C   0  0  0  0  0  0  0  0  0  0  0  0
   19.5240  -10.5440  -14.4410 O   0  0  0  0  0  0  0  0  0  0  0  0
   15.9326   -9.8909  -18.4139 O   0  0  0  0  0  0  0  0  0  0  0  0
   23.5707  -10.2108  -14.6017 C   0  0  0  0  0  0  0  0  0  0  0  0
   22.1431   -9.7487  -14.8033 C   0  0  2  0  0  0  0  0  0  0  0  0
   21.4172  -10.6152  -15.6981 N   0  0  0  0  0  0  0  0  0  0  0  0
   22.1399   -8.3411  -15.2562 C   0  0  0  0  0  0  0  0  0  0  0  0
   22.2716   -8.0524  -16.4509 O   0  0  0  0  0  0  0  0  0  0  0  0
   21.9820   -7.3114  -14.2910 N   0  0  0  0  0  0  0  0  0  0  0  0
   21.8961   -5.9181  -14.6283 C   0  0  0  0  0  0  0  0  0  0  0  0
   21.6041   -5.0530  -13.4882 C   0  0  0  0  0  0  0  0  0  0  0  0
   20.4263   -4.7464  -13.2104 O   0  0  0  0  0  0  0  0  0  0  0  0
   22.6217   -4.5610  -12.7005 O   0  0  0  0  0  0  0  0  0  0  0  0
  2  1  1  1
  3  2  1  0
  4  3  1  0
  5  6  2  0
  5  4  1  0
  7  2  1  0
  8  7  2  0
  9  5  1  0
 11 10  1  6
 11 12  1  0
 12  7  1  0
 13 11  1  0
 14 13  2  0
 15 13  1  0
 16 15  1  0
 17 16  1  0
 17 19  1  0
 18 17  2  0
M  END
$$$$
