EAG.pdb
     RDKit          3D

 19 18  0  0  1  0  0  0  0  0999 V2000
   21.5884  -12.8098  -16.6496 N   0  0  0  0  0  0  0  0  0  0  0  0
   20.6419  -12.2580  -17.6267 C   0  0  1  0  0  0  0  0  0  0  0  0
   19.5480  -13.2808  -17.7711 C   0  0  0  0  0  0  0  0  0  0  0  0
   18.8888  -13.6769  -16.4959 C   0  0  0  0  0  0  0  0  0  0  0  0
   17.4468  -13.4019  -16.4127 C   0  0  0  0  0  0  0  0  0  0  0  0
   17.0276  -12.5653  -15.5759 O   0  0  0  0  0  0  0  0  0  0  0  0
   20.1564  -10.9428  -17.1674 C   0  0  0  0  0  0  0  0  0  0  0  0
   19.5670  -10.1448  -17.9307 O   0  0  0  0  0  0  0  0  0  0  0  0
   16.5294  -14.0655  -17.2598 O   0  0  0  0  0  0  0  0  0  0  0  0
   18.9194   -9.3986  -14.1383 C   0  0  0  0  0  0  0  0  0  0  0  0
   19.8262   -9.2300  -15.3391 C   0  0  2  0  0  0  0  0  0  0  0  0
   20.3284  -10.4939  -15.8171 N   0  0  0  0  0  0  0  0  0  0  0  0
   20.9112   -8.2814  -15.0081 C   0  0  0  0  0  0  0  0  0  0  0  0
   21.9662   -8.6693  -14.4938 O   0  0  0  0  0  0  0  0  0  0  0  0
   20.7252   -6.9023  -15.2911 N   0  0  0  0  0  0  0  0  0  0  0  0
   21.7134   -5.8980  -15.0133 C   0  0  0  0  0  0  0  0  0  0  0  0
   21.6494   -5.3689  -13.6534 C   0  0  0  0  0  0  0  0  0  0  0  0
   20.7728   -5.7672  -12.8589 O   0  0  0  0  0  0  0  0  0  0  0  0
   22.5539   -4.4224  -13.2242 O   0  0  0  0  0  0  0  0  0  0  0  0
  2  1  1  1
  3  2  1  0
  4  3  1  0
  5  6  2  0
  5  4  1  0
  7  2  1  0
  8  7  2  0
  9  5  1  0
 11 10  1  1
 11 12  1  0
 12  7  1  0
 13 11  1  0
 14 13  2  0
 15 13  1  0
 16 15  1  0
 17 16  1  0
 17 19  1  0
 18 17  2  0
M  END
$$$$
