EAG.pdb
     RDKit          3D

 19 18  0  0  1  0  0  0  0  0999 V2000
   34.8711  -26.1381  -13.6071 N   0  0  0  0  0  0  0  0  0  0  0  0
   34.5171  -25.5110  -14.8864 C   0  0  1  0  0  0  0  0  0  0  0  0
   35.4751  -26.0692  -15.9034 C   0  0  0  0  0  0  0  0  0  0  0  0
   36.8855  -25.6168  -15.7495 C   0  0  0  0  0  0  0  0  0  0  0  0
   37.8057  -26.0260  -16.8208 C   0  0  0  0  0  0  0  0  0  0  0  0
   38.8157  -26.7142  -16.5343 O   0  0  0  0  0  0  0  0  0  0  0  0
   33.1023  -25.7832  -15.2042 C   0  0  0  0  0  0  0  0  0  0  0  0
   32.5002  -26.7880  -14.7631 O   0  0  0  0  0  0  0  0  0  0  0  0
   37.5685  -25.6555  -18.1647 O   0  0  0  0  0  0  0  0  0  0  0  0
   30.2033  -23.7987  -16.5423 C   0  0  0  0  0  0  0  0  0  0  0  0
   30.9180  -25.1075  -16.2801 C   0  0  2  0  0  0  0  0  0  0  0  0
   32.3260  -24.9140  -16.0388 N   0  0  0  0  0  0  0  0  0  0  0  0
   30.6611  -26.0417  -17.3972 C   0  0  0  0  0  0  0  0  0  0  0  0
   29.5237  -26.1928  -17.8570 O   0  0  0  0  0  0  0  0  0  0  0  0
   31.7495  -26.7728  -17.9427 N   0  0  0  0  0  0  0  0  0  0  0  0
   31.6610  -27.5338  -19.1574 C   0  0  0  0  0  0  0  0  0  0  0  0
   32.9185  -28.1647  -19.5501 C   0  0  0  0  0  0  0  0  0  0  0  0
   32.9329  -29.0654  -20.4142 O   0  0  0  0  0  0  0  0  0  0  0  0
   34.1089  -27.7775  -18.9746 O   0  0  0  0  0  0  0  0  0  0  0  0
  2  1  1  1
  3  2  1  0
  4  3  1  0
  5  6  2  0
  5  4  1  0
  7  2  1  0
  8  7  2  0
  9  5  1  0
 11 10  1  6
 11 12  1  0
 12  7  1  0
 13 11  1  0
 14 13  2  0
 15 13  1  0
 16 15  1  0
 17 16  1  0
 17 19  1  0
 18 17  2  0
M  END
$$$$
