EAG.pdb
     RDKit          3D

 19 18  0  0  1  0  0  0  0  0999 V2000
   18.7389  -12.2186  -17.5035 N   0  0  0  0  0  0  0  0  0  0  0  0
   19.7719  -11.1833  -17.6310 C   0  0  1  0  0  0  0  0  0  0  0  0
   19.0482   -9.9142  -17.9900 C   0  0  0  0  0  0  0  0  0  0  0  0
   18.5008   -9.8756  -19.3743 C   0  0  0  0  0  0  0  0  0  0  0  0
   17.7892   -8.6430  -19.7433 C   0  0  0  0  0  0  0  0  0  0  0  0
   17.3260   -8.5244  -20.9040 O   0  0  0  0  0  0  0  0  0  0  0  0
   20.5401  -11.0838  -16.3754 C   0  0  0  0  0  0  0  0  0  0  0  0
   20.0108  -11.2518  -15.2536 O   0  0  0  0  0  0  0  0  0  0  0  0
   17.6208   -7.5932  -18.8110 O   0  0  0  0  0  0  0  0  0  0  0  0
   24.1060  -11.2398  -15.3016 C   0  0  0  0  0  0  0  0  0  0  0  0
   22.7087  -10.6788  -15.1430 C   0  0  2  0  0  0  0  0  0  0  0  0
   21.9425  -10.7881  -16.3593 N   0  0  0  0  0  0  0  0  0  0  0  0
   22.7893   -9.2867  -14.6511 C   0  0  0  0  0  0  0  0  0  0  0  0
   23.3982   -9.0088  -13.6118 O   0  0  0  0  0  0  0  0  0  0  0  0
   22.1513   -8.2592  -15.3955 N   0  0  0  0  0  0  0  0  0  0  0  0
   22.2697   -6.8635  -15.0787 C   0  0  0  0  0  0  0  0  0  0  0  0
   21.3531   -6.4171  -14.0327 C   0  0  0  0  0  0  0  0  0  0  0  0
   21.3524   -5.2270  -13.6562 O   0  0  0  0  0  0  0  0  0  0  0  0
   20.4747   -7.3003  -13.4441 O   0  0  0  0  0  0  0  0  0  0  0  0
  2  1  1  1
  3  2  1  0
  4  3  1  0
  5  6  2  0
  5  4  1  0
  7  2  1  0
  8  7  2  0
  9  5  1  0
 11 10  1  6
 11 12  1  0
 12  7  1  0
 13 11  1  0
 14 13  2  0
 15 13  1  0
 16 15  1  0
 17 16  1  0
 17 19  1  0
 18 17  2  0
M  END
$$$$
