EAG.pdb
     RDKit          3D

 19 18  0  0  1  0  0  0  0  0999 V2000
   19.1850  -12.2455  -16.6753 N   0  0  0  0  0  0  0  0  0  0  0  0
   18.2236  -11.1577  -16.4577 C   0  0  1  0  0  0  0  0  0  0  0  0
   17.4218  -11.5462  -15.2454 C   0  0  0  0  0  0  0  0  0  0  0  0
   16.4981  -12.6965  -15.4478 C   0  0  0  0  0  0  0  0  0  0  0  0
   15.7609  -13.1384  -14.2549 C   0  0  0  0  0  0  0  0  0  0  0  0
   15.9837  -12.5805  -13.1526 O   0  0  0  0  0  0  0  0  0  0  0  0
   18.9410   -9.8783  -16.2995 C   0  0  0  0  0  0  0  0  0  0  0  0
   20.1199   -9.8208  -15.8829 O   0  0  0  0  0  0  0  0  0  0  0  0
   14.8079  -14.1801  -14.3329 O   0  0  0  0  0  0  0  0  0  0  0  0
   18.2474   -6.2257  -17.1340 C   0  0  0  0  0  0  0  0  0  0  0  0
   19.0362   -7.3627  -16.5197 C   0  0  2  0  0  0  0  0  0  0  0  0
   18.3338   -8.6182  -16.6127 N   0  0  0  0  0  0  0  0  0  0  0  0
   19.3931   -7.0187  -15.1266 C   0  0  0  0  0  0  0  0  0  0  0  0
   18.6394   -7.2928  -14.1860 O   0  0  0  0  0  0  0  0  0  0  0  0
   20.6273   -6.3614  -14.8782 N   0  0  0  0  0  0  0  0  0  0  0  0
   21.1035   -6.0456  -13.5607 C   0  0  0  0  0  0  0  0  0  0  0  0
   22.3466   -5.2787  -13.5518 C   0  0  0  0  0  0  0  0  0  0  0  0
   22.9704   -5.0703  -14.6128 O   0  0  0  0  0  0  0  0  0  0  0  0
   22.8518   -4.7726  -12.3742 O   0  0  0  0  0  0  0  0  0  0  0  0
  2  1  1  1
  3  2  1  0
  4  3  1  0
  5  6  2  0
  5  4  1  0
  7  2  1  0
  8  7  2  0
  9  5  1  0
 11 10  1  1
 11 12  1  0
 12  7  1  0
 13 11  1  0
 14 13  2  0
 15 13  1  0
 16 15  1  0
 17 16  1  0
 17 19  1  0
 18 17  2  0
M  END
$$$$
