EAG.pdb
     RDKit          3D

 19 18  0  0  1  0  0  0  0  0999 V2000
   19.0049   -9.5636  -17.6378 N   0  0  0  0  0  0  0  0  0  0  0  0
   18.1220   -9.2413  -16.5100 C   0  0  1  0  0  0  0  0  0  0  0  0
   17.1876  -10.4115  -16.3645 C   0  0  0  0  0  0  0  0  0  0  0  0
   17.8552  -11.7181  -16.1107 C   0  0  0  0  0  0  0  0  0  0  0  0
   16.9573  -12.8465  -15.8237 C   0  0  0  0  0  0  0  0  0  0  0  0
   16.5119  -13.5351  -16.7742 O   0  0  0  0  0  0  0  0  0  0  0  0
   18.9267   -8.9812  -15.3012 C   0  0  0  0  0  0  0  0  0  0  0  0
   18.4037   -8.7263  -14.1929 O   0  0  0  0  0  0  0  0  0  0  0  0
   16.5902  -13.1648  -14.4958 O   0  0  0  0  0  0  0  0  0  0  0  0
   22.3960   -9.5472  -14.0684 C   0  0  0  0  0  0  0  0  0  0  0  0
   21.1645   -8.6721  -14.1689 C   0  0  2  0  0  0  0  0  0  0  0  0
   20.3598   -9.0037  -15.3181 N   0  0  0  0  0  0  0  0  0  0  0  0
   21.5683   -7.2497  -14.1552 C   0  0  0  0  0  0  0  0  0  0  0  0
   22.2224   -6.7786  -13.2181 O   0  0  0  0  0  0  0  0  0  0  0  0
   21.1912   -6.4202  -15.2446 N   0  0  0  0  0  0  0  0  0  0  0  0
   21.6092   -5.0529  -15.3787 C   0  0  0  0  0  0  0  0  0  0  0  0
   20.6662   -4.0907  -14.8144 C   0  0  0  0  0  0  0  0  0  0  0  0
   19.6148   -4.4806  -14.2659 O   0  0  0  0  0  0  0  0  0  0  0  0
   20.9201   -2.7380  -14.8774 O   0  0  0  0  0  0  0  0  0  0  0  0
  2  1  1  6
  3  2  1  0
  4  3  1  0
  5  6  2  0
  5  4  1  0
  7  2  1  0
  8  7  2  0
  9  5  1  0
 11 10  1  6
 11 12  1  0
 12  7  1  0
 13 11  1  0
 14 13  2  0
 15 13  1  0
 16 15  1  0
 17 16  1  0
 17 19  1  0
 18 17  2  0
M  END
$$$$
