EAG.pdb
     RDKit          3D

 19 18  0  0  1  0  0  0  0  0999 V2000
   18.6266   -9.4968  -17.1184 N   0  0  0  0  0  0  0  0  0  0  0  0
   17.8963   -9.2271  -15.8738 C   0  0  1  0  0  0  0  0  0  0  0  0
   16.9965  -10.4126  -15.6533 C   0  0  0  0  0  0  0  0  0  0  0  0
   17.6903  -11.7300  -15.6327 C   0  0  0  0  0  0  0  0  0  0  0  0
   16.8463  -12.8888  -15.3058 C   0  0  0  0  0  0  0  0  0  0  0  0
   16.3154  -13.5445  -16.2353 O   0  0  0  0  0  0  0  0  0  0  0  0
   18.8500   -9.0031  -14.7708 C   0  0  0  0  0  0  0  0  0  0  0  0
   18.4742   -8.7870  -13.5966 O   0  0  0  0  0  0  0  0  0  0  0  0
   16.6258  -13.2726  -13.9629 O   0  0  0  0  0  0  0  0  0  0  0  0
   22.4525   -9.7091  -14.1020 C   0  0  0  0  0  0  0  0  0  0  0  0
   21.2175   -8.8570  -13.8994 C   0  0  2  0  0  0  0  0  0  0  0  0
   20.2690   -9.0185  -14.9730 N   0  0  0  0  0  0  0  0  0  0  0  0
   21.6178   -7.4464  -13.7086 C   0  0  0  0  0  0  0  0  0  0  0  0
   22.3905   -7.1169  -12.8018 O   0  0  0  0  0  0  0  0  0  0  0  0
   21.0978   -6.4617  -14.5900 N   0  0  0  0  0  0  0  0  0  0  0  0
   21.5740   -5.1075  -14.6318 C   0  0  0  0  0  0  0  0  0  0  0  0
   20.7551   -4.1714  -13.8659 C   0  0  0  0  0  0  0  0  0  0  0  0
   19.7662   -4.5756  -13.2203 O   0  0  0  0  0  0  0  0  0  0  0  0
   21.0593   -2.8278  -13.8425 O   0  0  0  0  0  0  0  0  0  0  0  0
  2  1  1  6
  3  2  1  0
  4  3  1  0
  5  6  2  0
  5  4  1  0
  7  2  1  0
  8  7  2  0
  9  5  1  0
 11 10  1  6
 11 12  1  0
 12  7  1  0
 13 11  1  0
 14 13  2  0
 15 13  1  0
 16 15  1  0
 17 16  1  0
 17 19  1  0
 18 17  2  0
M  END
$$$$
