EAG.pdb
     RDKit          3D

 19 18  0  0  1  0  0  0  0  0999 V2000
   17.4757   -9.5469  -16.6725 N   0  0  0  0  0  0  0  0  0  0  0  0
   17.6085   -9.6452  -15.2138 C   0  0  1  0  0  0  0  0  0  0  0  0
   16.8228  -10.8613  -14.8047 C   0  0  0  0  0  0  0  0  0  0  0  0
   16.6689  -11.8939  -15.8665 C   0  0  0  0  0  0  0  0  0  0  0  0
   15.9956  -13.1345  -15.4551 C   0  0  0  0  0  0  0  0  0  0  0  0
   15.8411  -14.0570  -16.2923 O   0  0  0  0  0  0  0  0  0  0  0  0
   19.0347   -9.7182  -14.8436 C   0  0  0  0  0  0  0  0  0  0  0  0
   19.4105   -9.8585  -13.6579 O   0  0  0  0  0  0  0  0  0  0  0  0
   15.5214  -13.3012  -14.1334 O   0  0  0  0  0  0  0  0  0  0  0  0
   22.3344  -10.2288  -16.5775 C   0  0  0  0  0  0  0  0  0  0  0  0
   21.4814   -9.6447  -15.4713 C   0  0  2  0  0  0  0  0  0  0  0  0
   20.0822   -9.6331  -15.8183 N   0  0  0  0  0  0  0  0  0  0  0  0
   21.9854   -8.3002  -15.1180 C   0  0  0  0  0  0  0  0  0  0  0  0
   23.1147   -8.1447  -14.6400 O   0  0  0  0  0  0  0  0  0  0  0  0
   21.1467   -7.1752  -15.3366 N   0  0  0  0  0  0  0  0  0  0  0  0
   21.6067   -5.8175  -15.2496 C   0  0  0  0  0  0  0  0  0  0  0  0
   21.5100   -5.2476  -13.9082 C   0  0  0  0  0  0  0  0  0  0  0  0
   21.1135   -5.9437  -12.9509 O   0  0  0  0  0  0  0  0  0  0  0  0
   21.8540   -3.9338  -13.6763 O   0  0  0  0  0  0  0  0  0  0  0  0
  2  1  1  6
  3  2  1  0
  4  3  1  0
  5  6  2  0
  5  4  1  0
  7  2  1  0
  8  7  2  0
  9  5  1  0
 11 10  1  6
 11 12  1  0
 12  7  1  0
 13 11  1  0
 14 13  2  0
 15 13  1  0
 16 15  1  0
 17 16  1  0
 17 19  1  0
 18 17  2  0
M  END
$$$$
