EAG.pdb
     RDKit          3D

 19 18  0  0  1  0  0  0  0  0999 V2000
   17.7005  -11.0382  -14.4744 N   0  0  0  0  0  0  0  0  0  0  0  0
   18.8881  -11.0544  -15.3372 C   0  0  1  0  0  0  0  0  0  0  0  0
   18.5147  -11.8700  -16.5451 C   0  0  0  0  0  0  0  0  0  0  0  0
   17.1528  -11.6026  -17.0846 C   0  0  0  0  0  0  0  0  0  0  0  0
   16.8017  -12.3278  -18.3146 C   0  0  0  0  0  0  0  0  0  0  0  0
   16.9930  -11.7795  -19.4275 O   0  0  0  0  0  0  0  0  0  0  0  0
   19.2890   -9.6730  -15.6651 C   0  0  0  0  0  0  0  0  0  0  0  0
   20.2964   -9.4177  -16.3627 O   0  0  0  0  0  0  0  0  0  0  0  0
   16.2533  -13.6300  -18.2601 O   0  0  0  0  0  0  0  0  0  0  0  0
   17.6598   -6.2851  -15.5980 C   0  0  0  0  0  0  0  0  0  0  0  0
   18.8803   -7.1808  -15.5781 C   0  0  2  0  0  0  0  0  0  0  0  0
   18.5502   -8.5338  -15.2056 N   0  0  0  0  0  0  0  0  0  0  0  0
   19.9111   -6.5897  -14.6979 C   0  0  0  0  0  0  0  0  0  0  0  0
   19.9845   -6.8957  -13.5025 O   0  0  0  0  0  0  0  0  0  0  0  0
   20.8273   -5.6546  -15.2482 N   0  0  0  0  0  0  0  0  0  0  0  0
   21.9391   -5.1135  -14.5177 C   0  0  0  0  0  0  0  0  0  0  0  0
   21.5983   -3.9502  -13.7028 C   0  0  0  0  0  0  0  0  0  0  0  0
   20.4350   -3.4974  -13.6995 O   0  0  0  0  0  0  0  0  0  0  0  0
   22.5533   -3.3330  -12.9248 O   0  0  0  0  0  0  0  0  0  0  0  0
  2  1  1  1
  3  2  1  0
  4  3  1  0
  5  6  2  0
  5  4  1  0
  7  2  1  0
  8  7  2  0
  9  5  1  0
 11 10  1  1
 11 12  1  0
 12  7  1  0
 13 11  1  0
 14 13  2  0
 15 13  1  0
 16 15  1  0
 17 16  1  0
 17 19  1  0
 18 17  2  0
M  END
$$$$
