IQG.pdb
     RDKit          3D

 22 21  0  0  1  0  0  0  0  0999 V2000
    8.1424  -12.4613   27.6485 C   0  0  0  0  0  0  0  0  0  0  0  0
    7.3769  -13.6848   27.2772 C   0  0  0  0  0  0  0  0  0  0  0  0
    6.9215  -13.7525   25.8604 C   0  0  2  0  0  0  0  0  0  0  0  0
    5.9869  -12.5681   25.6229 C   0  0  0  0  0  0  0  0  0  0  0  0
    6.2477  -15.0546   25.4818 C   0  0  2  0  0  0  0  0  0  0  0  0
    5.8566  -15.8650   26.5463 N   0  0  0  0  0  0  0  0  0  0  0  0
    7.1572  -15.7144   24.4865 C   0  0  0  0  0  0  0  0  0  0  0  0
    7.1258  -16.9573   24.2954 O   0  0  0  0  0  0  0  0  0  0  0  0
    8.5973  -16.7114   19.0981 N   0  0  0  0  0  0  0  0  0  0  0  0
    7.3635  -16.2543   19.6466 C   0  0  0  0  0  0  0  0  0  0  0  0
    6.3088  -16.6638   19.0999 O   0  0  0  0  0  0  0  0  0  0  0  0
    7.3009  -15.3362   20.8103 C   0  0  0  0  0  0  0  0  0  0  0  0
    8.6796  -15.1030   21.3175 C   0  0  0  0  0  0  0  0  0  0  0  0
    8.9197  -15.6484   22.7007 C   0  0  2  0  0  0  0  0  0  0  0  0
    8.1059  -14.9905   23.7002 N   0  0  0  0  0  0  0  0  0  0  0  0
   10.3273  -15.5867   23.1093 C   0  0  0  0  0  0  0  0  0  0  0  0
   11.0180  -14.5333   23.0929 O   0  0  0  0  0  0  0  0  0  0  0  0
   10.9659  -16.7730   23.5520 N   0  0  0  0  0  0  0  0  0  0  0  0
   12.3492  -16.8299   23.9488 C   0  0  0  0  0  0  0  0  0  0  0  0
   12.7982  -18.1698   24.3214 C   0  0  0  0  0  0  0  0  0  0  0  0
   14.1106  -18.3731   24.7010 O   0  0  0  0  0  0  0  0  0  0  0  0
   12.0057  -19.1382   24.3004 O   0  0  0  0  0  0  0  0  0  0  0  0
  2  3  1  0
  2  1  1  0
  3  5  1  0
  3  4  1  1
  5  7  1  0
  5  6  1  1
  7  8  2  0
  9 10  1  0
 10 12  1  0
 10 11  2  0
 12 13  1  0
 14 13  1  6
 15 14  1  0
 15  7  1  0
 16 17  2  0
 16 14  1  0
 18 16  1  0
 19 20  1  0
 19 18  1  0
 20 21  1  0
 22 20  2  0
M  END
$$$$
