IQG.pdb
     RDKit          3D

 22 21  0  0  1  0  0  0  0  0999 V2000
    6.9572  -11.9444   27.8127 C   0  0  0  0  0  0  0  0  0  0  0  0
    6.3218  -13.0012   26.9759 C   0  0  0  0  0  0  0  0  0  0  0  0
    7.2446  -13.7521   26.0794 C   0  0  2  0  0  0  0  0  0  0  0  0
    7.8985  -12.7384   25.1426 C   0  0  0  0  0  0  0  0  0  0  0  0
    6.5843  -14.8647   25.2927 C   0  0  2  0  0  0  0  0  0  0  0  0
    5.9625  -15.8551   26.0513 N   0  0  0  0  0  0  0  0  0  0  0  0
    7.6250  -15.3640   24.3332 C   0  0  0  0  0  0  0  0  0  0  0  0
    8.0643  -16.5409   24.3989 O   0  0  0  0  0  0  0  0  0  0  0  0
    5.5721  -16.2159   20.4609 N   0  0  0  0  0  0  0  0  0  0  0  0
    6.6633  -15.4748   19.9203 C   0  0  0  0  0  0  0  0  0  0  0  0
    7.2394  -15.9584   18.9137 O   0  0  0  0  0  0  0  0  0  0  0  0
    7.1176  -14.1878   20.5018 C   0  0  0  0  0  0  0  0  0  0  0  0
    8.5503  -14.3079   20.8832 C   0  0  0  0  0  0  0  0  0  0  0  0
    8.7839  -15.1377   22.1183 C   0  0  2  0  0  0  0  0  0  0  0  0
    8.1805  -14.5525   23.2962 N   0  0  0  0  0  0  0  0  0  0  0  0
   10.2041  -15.3936   22.3817 C   0  0  0  0  0  0  0  0  0  0  0  0
   11.0120  -15.8267   21.5176 O   0  0  0  0  0  0  0  0  0  0  0  0
   10.7168  -15.1446   23.6803 N   0  0  0  0  0  0  0  0  0  0  0  0
   12.0674  -15.4530   24.0737 C   0  0  0  0  0  0  0  0  0  0  0  0
   12.3143  -16.8821   24.2545 C   0  0  0  0  0  0  0  0  0  0  0  0
   12.7778  -17.3505   25.4684 O   0  0  0  0  0  0  0  0  0  0  0  0
   12.1103  -17.6890   23.3199 O   0  0  0  0  0  0  0  0  0  0  0  0
  2  3  1  0
  2  1  1  0
  3  5  1  0
  3  4  1  6
  5  7  1  0
  5  6  1  1
  7  8  2  0
  9 10  1  0
 10 12  1  0
 10 11  2  0
 12 13  1  0
 14 13  1  6
 15 14  1  0
 15  7  1  0
 16 17  2  0
 16 14  1  0
 18 16  1  0
 19 20  1  0
 19 18  1  0
 20 21  1  0
 22 20  2  0
M  END
$$$$
