IQG.pdb
     RDKit          3D

 22 21  0  0  1  0  0  0  0  0999 V2000
    7.4759  -11.3753   22.9528 C   0  0  0  0  0  0  0  0  0  0  0  0
    6.7651  -12.2925   23.8879 C   0  0  0  0  0  0  0  0  0  0  0  0
    7.4978  -13.5391   24.2461 C   0  0  2  0  0  0  0  0  0  0  0  0
    7.8126  -14.2750   22.9453 C   0  0  0  0  0  0  0  0  0  0  0  0
    6.7597  -14.4428   25.2111 C   0  0  2  0  0  0  0  0  0  0  0  0
    6.1676  -13.8080   26.3018 N   0  0  0  0  0  0  0  0  0  0  0  0
    7.7208  -15.5403   25.5643 C   0  0  0  0  0  0  0  0  0  0  0  0
    8.7342  -15.3184   26.2757 O   0  0  0  0  0  0  0  0  0  0  0  0
    8.6811  -18.5311   29.1465 N   0  0  0  0  0  0  0  0  0  0  0  0
    8.4241  -19.4717   28.1067 C   0  0  0  0  0  0  0  0  0  0  0  0
    9.1664  -20.4843   28.0559 O   0  0  0  0  0  0  0  0  0  0  0  0
    7.3350  -19.2863   27.1165 C   0  0  0  0  0  0  0  0  0  0  0  0
    7.9251  -19.2333   25.7522 C   0  0  0  0  0  0  0  0  0  0  0  0
    8.5474  -17.9052   25.4093 C   0  0  2  0  0  0  0  0  0  0  0  0
    7.5558  -16.8903   25.1252 N   0  0  0  0  0  0  0  0  0  0  0  0
    9.4919  -17.9821   24.2895 C   0  0  0  0  0  0  0  0  0  0  0  0
    9.1761  -18.3556   23.1285 O   0  0  0  0  0  0  0  0  0  0  0  0
   10.8452  -17.6187   24.5072 N   0  0  0  0  0  0  0  0  0  0  0  0
   11.8199  -17.5166   23.4518 C   0  0  0  0  0  0  0  0  0  0  0  0
   13.1066  -16.9805   23.8911 C   0  0  0  0  0  0  0  0  0  0  0  0
   13.2833  -16.6150   25.2114 O   0  0  0  0  0  0  0  0  0  0  0  0
   14.0531  -16.8481   23.0831 O   0  0  0  0  0  0  0  0  0  0  0  0
  2  3  1  0
  2  1  1  0
  3  5  1  0
  3  4  1  6
  5  7  1  0
  5  6  1  1
  7  8  2  0
  9 10  1  0
 10 12  1  0
 10 11  2  0
 12 13  1  0
 14 13  1  6
 15 14  1  0
 15  7  1  0
 16 17  2  0
 16 14  1  0
 18 16  1  0
 19 20  1  0
 19 18  1  0
 20 21  1  0
 22 20  2  0
M  END
$$$$
