IQG.pdb
     RDKit          3D

 22 21  0  0  1  0  0  0  0  0999 V2000
    7.2291  -11.2522   27.3807 C   0  0  0  0  0  0  0  0  0  0  0  0
    6.3731  -12.0832   26.4877 C   0  0  0  0  0  0  0  0  0  0  0  0
    6.9455  -13.4004   26.0925 C   0  0  2  0  0  0  0  0  0  0  0  0
    8.2954  -13.1327   25.4299 C   0  0  0  0  0  0  0  0  0  0  0  0
    6.0543  -14.2228   25.1858 C   0  0  2  0  0  0  0  0  0  0  0  0
    4.6923  -14.1851   25.4804 N   0  0  0  0  0  0  0  0  0  0  0  0
    6.6558  -15.5977   25.1541 C   0  0  0  0  0  0  0  0  0  0  0  0
    5.9398  -16.6218   25.0108 O   0  0  0  0  0  0  0  0  0  0  0  0
    7.3557  -19.2967   21.1809 N   0  0  0  0  0  0  0  0  0  0  0  0
    8.1776  -18.1357   21.0876 C   0  0  0  0  0  0  0  0  0  0  0  0
    8.0886  -17.4560   20.0344 O   0  0  0  0  0  0  0  0  0  0  0  0
    9.1044  -17.7269   22.1714 C   0  0  0  0  0  0  0  0  0  0  0  0
    8.4369  -16.7024   23.0183 C   0  0  0  0  0  0  0  0  0  0  0  0
    8.7316  -16.8421   24.4888 C   0  0  2  0  0  0  0  0  0  0  0  0
    8.0592  -15.8360   25.2823 N   0  0  0  0  0  0  0  0  0  0  0  0
   10.1660  -16.8172   24.7950 C   0  0  0  0  0  0  0  0  0  0  0  0
   10.9834  -16.0174   24.2666 O   0  0  0  0  0  0  0  0  0  0  0  0
   10.6820  -17.7408   25.7394 N   0  0  0  0  0  0  0  0  0  0  0  0
   12.0866  -17.8862   26.0225 C   0  0  0  0  0  0  0  0  0  0  0  0
   12.7701  -18.8251   25.1352 C   0  0  0  0  0  0  0  0  0  0  0  0
   14.0673  -19.2107   25.4118 O   0  0  0  0  0  0  0  0  0  0  0  0
   12.1926  -19.2851   24.1248 O   0  0  0  0  0  0  0  0  0  0  0  0
  2  3  1  0
  2  1  1  0
  3  5  1  0
  3  4  1  6
  5  7  1  0
  5  6  1  1
  7  8  2  0
  9 10  1  0
 10 12  1  0
 10 11  2  0
 12 13  1  0
 14 13  1  6
 15 14  1  0
 15  7  1  0
 16 17  2  0
 16 14  1  0
 18 16  1  0
 19 20  1  0
 19 18  1  0
 20 21  1  0
 22 20  2  0
M  END
$$$$
