IQG.pdb
     RDKit          3D

 22 21  0  0  1  0  0  0  0  0999 V2000
    5.8775  -11.0774   26.4598 C   0  0  0  0  0  0  0  0  0  0  0  0
    5.7793  -12.5141   26.0767 C   0  0  0  0  0  0  0  0  0  0  0  0
    7.0751  -13.1964   25.8039 C   0  0  2  0  0  0  0  0  0  0  0  0
    7.7082  -12.5102   24.5951 C   0  0  0  0  0  0  0  0  0  0  0  0
    6.9603  -14.6891   25.5768 C   0  0  2  0  0  0  0  0  0  0  0  0
    5.8929  -15.3176   26.2161 N   0  0  0  0  0  0  0  0  0  0  0  0
    8.3118  -15.2590   25.8956 C   0  0  0  0  0  0  0  0  0  0  0  0
    8.9672  -14.8681   26.8955 O   0  0  0  0  0  0  0  0  0  0  0  0
   10.4838  -20.6567   27.1697 N   0  0  0  0  0  0  0  0  0  0  0  0
    9.8072  -19.6418   27.9074 C   0  0  0  0  0  0  0  0  0  0  0  0
    9.3609  -19.9591   29.0384 O   0  0  0  0  0  0  0  0  0  0  0  0
    9.6251  -18.2652   27.3853 C   0  0  0  0  0  0  0  0  0  0  0  0
   10.1548  -18.2001   25.9969 C   0  0  0  0  0  0  0  0  0  0  0  0
   10.2386  -16.8023   25.4422 C   0  0  2  0  0  0  0  0  0  0  0  0
    8.9382  -16.2677   25.1001 N   0  0  0  0  0  0  0  0  0  0  0  0
   11.1244  -16.6955   24.2778 C   0  0  0  0  0  0  0  0  0  0  0  0
   12.3780  -16.8057   24.3363 O   0  0  0  0  0  0  0  0  0  0  0  0
   10.5544  -16.4540   23.0019 N   0  0  0  0  0  0  0  0  0  0  0  0
   11.3319  -16.3184   21.7973 C   0  0  0  0  0  0  0  0  0  0  0  0
   11.9490  -17.5667   21.3534 C   0  0  0  0  0  0  0  0  0  0  0  0
   12.6466  -17.6018   20.1618 O   0  0  0  0  0  0  0  0  0  0  0  0
   11.8528  -18.6072   22.0420 O   0  0  0  0  0  0  0  0  0  0  0  0
  2  3  1  0
  2  1  1  0
  3  5  1  0
  3  4  1  6
  5  7  1  0
  5  6  1  1
  7  8  2  0
  9 10  1  0
 10 12  1  0
 10 11  2  0
 12 13  1  0
 14 13  1  6
 15 14  1  0
 15  7  1  0
 16 17  2  0
 16 14  1  0
 18 16  1  0
 19 20  1  0
 19 18  1  0
 20 21  1  0
 22 20  2  0
M  END
$$$$
