IQG.pdb
     RDKit          3D

 22 21  0  0  1  0  0  0  0  0999 V2000
    7.2271  -10.6178   26.4302 C   0  0  0  0  0  0  0  0  0  0  0  0
    6.4789  -11.9061   26.4613 C   0  0  0  0  0  0  0  0  0  0  0  0
    7.2616  -13.1132   26.0750 C   0  0  2  0  0  0  0  0  0  0  0  0
    7.8989  -12.8300   24.7161 C   0  0  0  0  0  0  0  0  0  0  0  0
    6.4559  -14.3947   26.0354 C   0  0  2  0  0  0  0  0  0  0  0  0
    5.4733  -14.5217   27.0159 N   0  0  0  0  0  0  0  0  0  0  0  0
    7.4591  -15.5106   25.9981 C   0  0  0  0  0  0  0  0  0  0  0  0
    8.2009  -15.7564   26.9837 O   0  0  0  0  0  0  0  0  0  0  0  0
    8.7337  -20.6345   26.5504 N   0  0  0  0  0  0  0  0  0  0  0  0
    7.4583  -20.0580   26.8208 C   0  0  0  0  0  0  0  0  0  0  0  0
    6.8872  -20.4077   27.8841 O   0  0  0  0  0  0  0  0  0  0  0  0
    6.8129  -19.0866   25.9039 C   0  0  0  0  0  0  0  0  0  0  0  0
    7.7332  -18.8071   24.7692 C   0  0  0  0  0  0  0  0  0  0  0  0
    8.5006  -17.5189   24.9110 C   0  0  2  0  0  0  0  0  0  0  0  0
    7.6391  -16.3573   24.8609 N   0  0  0  0  0  0  0  0  0  0  0  0
    9.5676  -17.3700   23.9153 C   0  0  0  0  0  0  0  0  0  0  0  0
   10.2945  -18.3189   23.5174 O   0  0  0  0  0  0  0  0  0  0  0  0
    9.8104  -16.0896   23.3561 N   0  0  0  0  0  0  0  0  0  0  0  0
   10.8553  -15.8252   22.4008 C   0  0  0  0  0  0  0  0  0  0  0  0
   12.2023  -15.9769   22.9473 C   0  0  0  0  0  0  0  0  0  0  0  0
   13.2998  -15.7198   22.1491 O   0  0  0  0  0  0  0  0  0  0  0  0
   12.3738  -16.3380   24.1332 O   0  0  0  0  0  0  0  0  0  0  0  0
  2  3  1  0
  2  1  1  0
  3  5  1  0
  3  4  1  6
  5  7  1  0
  5  6  1  1
  7  8  2  0
  9 10  1  0
 10 12  1  0
 10 11  2  0
 12 13  1  0
 14 13  1  6
 15 14  1  0
 15  7  1  0
 16 17  2  0
 16 14  1  0
 18 16  1  0
 19 20  1  0
 19 18  1  0
 20 21  1  0
 22 20  2  0
M  END
$$$$
