IQG.pdb
     RDKit          3D

 22 21  0  0  1  0  0  0  0  0999 V2000
    6.8731  -11.5020   27.1867 C   0  0  0  0  0  0  0  0  0  0  0  0
    6.4854  -12.8811   26.7765 C   0  0  0  0  0  0  0  0  0  0  0  0
    7.0752  -13.3600   25.4950 C   0  0  2  0  0  0  0  0  0  0  0  0
    6.6919  -12.3548   24.4108 C   0  0  0  0  0  0  0  0  0  0  0  0
    6.6601  -14.7618   25.1009 C   0  0  2  0  0  0  0  0  0  0  0  0
    5.2868  -14.9979   25.0637 N   0  0  0  0  0  0  0  0  0  0  0  0
    7.4361  -15.6868   25.9926 C   0  0  0  0  0  0  0  0  0  0  0  0
    6.9511  -16.1153   27.0712 O   0  0  0  0  0  0  0  0  0  0  0  0
    8.2542  -20.2080   28.4895 N   0  0  0  0  0  0  0  0  0  0  0  0
    7.3878  -20.0676   27.3662 C   0  0  0  0  0  0  0  0  0  0  0  0
    6.7772  -21.0970   26.9835 O   0  0  0  0  0  0  0  0  0  0  0  0
    7.1986  -18.7749   26.6632 C   0  0  0  0  0  0  0  0  0  0  0  0
    8.3421  -18.5553   25.7378 C   0  0  0  0  0  0  0  0  0  0  0  0
    9.2450  -17.4203   26.1444 C   0  0  2  0  0  0  0  0  0  0  0  0
    8.7569  -16.1378   25.6850 N   0  0  0  0  0  0  0  0  0  0  0  0
   10.6309  -17.5963   25.6969 C   0  0  0  0  0  0  0  0  0  0  0  0
   11.5063  -18.2226   26.3514 O   0  0  0  0  0  0  0  0  0  0  0  0
   11.0277  -17.0354   24.4564 N   0  0  0  0  0  0  0  0  0  0  0  0
   12.3255  -16.4551   24.2259 C   0  0  0  0  0  0  0  0  0  0  0  0
   12.5862  -16.1384   22.8231 C   0  0  0  0  0  0  0  0  0  0  0  0
   13.7506  -15.4837   22.4721 O   0  0  0  0  0  0  0  0  0  0  0  0
   11.7646  -16.4543   21.9335 O   0  0  0  0  0  0  0  0  0  0  0  0
  2  3  1  0
  2  1  1  0
  3  5  1  0
  3  4  1  6
  5  7  1  0
  5  6  1  1
  7  8  2  0
  9 10  1  0
 10 12  1  0
 10 11  2  0
 12 13  1  0
 14 13  1  6
 15 14  1  0
 15  7  1  0
 16 17  2  0
 16 14  1  0
 18 16  1  0
 19 20  1  0
 19 18  1  0
 20 21  1  0
 22 20  2  0
M  END
$$$$
