IQG.pdb
     RDKit          3D

 22 21  0  0  1  0  0  0  0  0999 V2000
    7.2737  -12.1461   19.4355 C   0  0  0  0  0  0  0  0  0  0  0  0
    8.2608  -12.8612   18.5782 C   0  0  0  0  0  0  0  0  0  0  0  0
    8.9939  -13.9781   19.2371 C   0  0  2  0  0  0  0  0  0  0  0  0
    9.7496  -13.3906   20.4273 C   0  0  0  0  0  0  0  0  0  0  0  0
    9.9342  -14.7345   18.3224 C   0  0  2  0  0  0  0  0  0  0  0  0
    9.4116  -15.0937   17.0811 N   0  0  0  0  0  0  0  0  0  0  0  0
   10.4706  -15.8759   19.1363 C   0  0  0  0  0  0  0  0  0  0  0  0
   10.1103  -17.0611   18.9178 O   0  0  0  0  0  0  0  0  0  0  0  0
   15.8416  -18.6914   19.2739 N   0  0  0  0  0  0  0  0  0  0  0  0
   14.5823  -18.3838   18.6810 C   0  0  0  0  0  0  0  0  0  0  0  0
   14.2124  -19.1035   17.7196 O   0  0  0  0  0  0  0  0  0  0  0  0
   13.7280  -17.2691   19.1592 C   0  0  0  0  0  0  0  0  0  0  0  0
   12.6112  -17.8276   19.9675 C   0  0  0  0  0  0  0  0  0  0  0  0
   11.9779  -16.8303   20.9018 C   0  0  2  0  0  0  0  0  0  0  0  0
   11.4113  -15.7001   20.1977 N   0  0  0  0  0  0  0  0  0  0  0  0
   12.8979  -16.3419   21.9347 C   0  0  0  0  0  0  0  0  0  0  0  0
   13.9720  -15.7319   21.6873 O   0  0  0  0  0  0  0  0  0  0  0  0
   12.5763  -16.5599   23.2986 N   0  0  0  0  0  0  0  0  0  0  0  0
   12.4626  -17.8688   23.8885 C   0  0  0  0  0  0  0  0  0  0  0  0
   13.7271  -18.3945   24.3990 C   0  0  0  0  0  0  0  0  0  0  0  0
   14.8394  -18.4222   23.5804 O   0  0  0  0  0  0  0  0  0  0  0  0
   13.8146  -18.8212   25.5722 O   0  0  0  0  0  0  0  0  0  0  0  0
  2  3  1  0
  2  1  1  0
  3  5  1  0
  3  4  1  1
  5  7  1  0
  5  6  1  6
  7  8  2  0
  9 10  1  0
 10 12  1  0
 10 11  2  0
 12 13  1  0
 14 13  1  6
 15 14  1  0
 15  7  1  0
 16 17  2  0
 16 14  1  0
 18 16  1  0
 19 20  1  0
 19 18  1  0
 20 21  1  0
 22 20  2  0
M  END
$$$$
