IQG.pdb
     RDKit          3D

 22 21  0  0  1  0  0  0  0  0999 V2000
    7.8502  -11.6740   27.2616 C   0  0  0  0  0  0  0  0  0  0  0  0
    6.9802  -12.8327   26.9136 C   0  0  0  0  0  0  0  0  0  0  0  0
    7.5484  -13.7876   25.9215 C   0  0  2  0  0  0  0  0  0  0  0  0
    7.8665  -12.9962   24.6545 C   0  0  0  0  0  0  0  0  0  0  0  0
    6.6548  -14.9693   25.6082 C   0  0  2  0  0  0  0  0  0  0  0  0
    6.2542  -15.7318   26.7041 N   0  0  0  0  0  0  0  0  0  0  0  0
    7.3540  -15.7383   24.5252 C   0  0  0  0  0  0  0  0  0  0  0  0
    7.9105  -16.8413   24.7613 O   0  0  0  0  0  0  0  0  0  0  0  0
    8.3592  -19.0123   19.4294 N   0  0  0  0  0  0  0  0  0  0  0  0
    7.4517  -17.9419   19.6804 C   0  0  0  0  0  0  0  0  0  0  0  0
    6.2650  -18.2515   19.9541 O   0  0  0  0  0  0  0  0  0  0  0  0
    7.8652  -16.5182   19.6269 C   0  0  0  0  0  0  0  0  0  0  0  0
    7.2665  -15.7966   20.7816 C   0  0  0  0  0  0  0  0  0  0  0  0
    7.8906  -16.1454   22.1073 C   0  0  2  0  0  0  0  0  0  0  0  0
    7.4354  -15.2799   23.1740 N   0  0  0  0  0  0  0  0  0  0  0  0
    9.3571  -16.1385   22.0746 C   0  0  0  0  0  0  0  0  0  0  0  0
   10.0452  -16.8254   21.2735 O   0  0  0  0  0  0  0  0  0  0  0  0
   10.0600  -15.3161   22.9915 N   0  0  0  0  0  0  0  0  0  0  0  0
   11.4827  -15.0996   22.9353 C   0  0  0  0  0  0  0  0  0  0  0  0
   12.2652  -16.1854   23.5224 C   0  0  0  0  0  0  0  0  0  0  0  0
   13.6338  -16.0523   23.6531 O   0  0  0  0  0  0  0  0  0  0  0  0
   11.7086  -17.2374   23.9093 O   0  0  0  0  0  0  0  0  0  0  0  0
  2  3  1  0
  2  1  1  0
  3  5  1  0
  3  4  1  6
  5  7  1  0
  5  6  1  1
  7  8  2  0
  9 10  1  0
 10 12  1  0
 10 11  2  0
 12 13  1  0
 14 13  1  6
 15 14  1  0
 15  7  1  0
 16 17  2  0
 16 14  1  0
 18 16  1  0
 19 20  1  0
 19 18  1  0
 20 21  1  0
 22 20  2  0
M  END
$$$$
