IQG.pdb
     RDKit          3D

 22 21  0  0  1  0  0  0  0  0999 V2000
    7.0685  -11.5965   27.6253 C   0  0  0  0  0  0  0  0  0  0  0  0
    6.3460  -12.6840   26.9069 C   0  0  0  0  0  0  0  0  0  0  0  0
    7.1853  -13.5344   26.0173 C   0  0  2  0  0  0  0  0  0  0  0  0
    7.7882  -12.6242   24.9492 C   0  0  0  0  0  0  0  0  0  0  0  0
    6.4471  -14.6941   25.3824 C   0  0  2  0  0  0  0  0  0  0  0  0
    5.7300  -15.5070   26.2588 N   0  0  0  0  0  0  0  0  0  0  0  0
    7.4588  -15.4133   24.5384 C   0  0  0  0  0  0  0  0  0  0  0  0
    7.9614  -16.5054   24.9083 O   0  0  0  0  0  0  0  0  0  0  0  0
    8.4634  -12.3753   18.5467 N   0  0  0  0  0  0  0  0  0  0  0  0
    8.1856  -13.6487   19.1242 C   0  0  0  0  0  0  0  0  0  0  0  0
    7.7962  -14.5558   18.3467 O   0  0  0  0  0  0  0  0  0  0  0  0
    8.3415  -13.9162   20.5750 C   0  0  0  0  0  0  0  0  0  0  0  0
    7.9223  -15.3152   20.8570 C   0  0  0  0  0  0  0  0  0  0  0  0
    8.3320  -15.8107   22.2191 C   0  0  2  0  0  0  0  0  0  0  0  0
    7.9142  -14.9172   23.2778 N   0  0  0  0  0  0  0  0  0  0  0  0
    9.7741  -16.0536   22.3353 C   0  0  0  0  0  0  0  0  0  0  0  0
   10.4125  -16.8563   21.6039 O   0  0  0  0  0  0  0  0  0  0  0  0
   10.5104  -15.3524   23.3238 N   0  0  0  0  0  0  0  0  0  0  0  0
   11.6164  -15.9258   24.0463 C   0  0  0  0  0  0  0  0  0  0  0  0
   12.8364  -16.0491   23.2509 C   0  0  0  0  0  0  0  0  0  0  0  0
   13.9892  -15.4066   23.6583 O   0  0  0  0  0  0  0  0  0  0  0  0
   12.8491  -16.7317   22.2021 O   0  0  0  0  0  0  0  0  0  0  0  0
  2  3  1  0
  2  1  1  0
  3  5  1  0
  3  4  1  6
  5  7  1  0
  5  6  1  1
  7  8  2  0
  9 10  1  0
 10 12  1  0
 10 11  2  0
 12 13  1  0
 14 13  1  6
 15 14  1  0
 15  7  1  0
 16 17  2  0
 16 14  1  0
 18 16  1  0
 19 20  1  0
 19 18  1  0
 20 21  1  0
 22 20  2  0
M  END
$$$$
