IQG.pdb
     RDKit          3D

 22 21  0  0  1  0  0  0  0  0999 V2000
    6.3003  -11.5500   26.8773 C   0  0  0  0  0  0  0  0  0  0  0  0
    5.8401  -12.8444   26.2998 C   0  0  0  0  0  0  0  0  0  0  0  0
    6.9200  -13.7758   25.8691 C   0  0  2  0  0  0  0  0  0  0  0  0
    7.7835  -13.0355   24.8498 C   0  0  0  0  0  0  0  0  0  0  0  0
    6.4235  -15.0891   25.3018 C   0  0  2  0  0  0  0  0  0  0  0  0
    5.4773  -15.7619   26.0731 N   0  0  0  0  0  0  0  0  0  0  0  0
    7.6523  -15.8859   24.9726 C   0  0  0  0  0  0  0  0  0  0  0  0
    8.3176  -16.4630   25.8706 O   0  0  0  0  0  0  0  0  0  0  0  0
    7.8781  -17.5874   19.3991 N   0  0  0  0  0  0  0  0  0  0  0  0
    8.8092  -16.5294   19.6128 C   0  0  0  0  0  0  0  0  0  0  0  0
    9.1722  -15.8752   18.6032 O   0  0  0  0  0  0  0  0  0  0  0  0
    9.3407  -16.1958   20.9571 C   0  0  0  0  0  0  0  0  0  0  0  0
    9.1689  -17.3722   21.8510 C   0  0  0  0  0  0  0  0  0  0  0  0
    9.1550  -17.0260   23.3168 C   0  0  2  0  0  0  0  0  0  0  0  0
    8.1443  -16.0421   23.6399 N   0  0  0  0  0  0  0  0  0  0  0  0
   10.4551  -16.5612   23.8125 C   0  0  0  0  0  0  0  0  0  0  0  0
   10.8276  -15.3581   23.7865 O   0  0  0  0  0  0  0  0  0  0  0  0
   11.3601  -17.5076   24.3570 N   0  0  0  0  0  0  0  0  0  0  0  0
   12.6310  -17.1513   24.9329 C   0  0  0  0  0  0  0  0  0  0  0  0
   13.7776  -17.5680   24.1281 C   0  0  0  0  0  0  0  0  0  0  0  0
   14.7619  -18.3561   24.6919 O   0  0  0  0  0  0  0  0  0  0  0  0
   13.8787  -17.2182   22.9308 O   0  0  0  0  0  0  0  0  0  0  0  0
  2  3  1  0
  2  1  1  0
  3  5  1  0
  3  4  1  6
  5  7  1  0
  5  6  1  1
  7  8  2  0
  9 10  1  0
 10 12  1  0
 10 11  2  0
 12 13  1  0
 14 13  1  6
 15 14  1  0
 15  7  1  0
 16 17  2  0
 16 14  1  0
 18 16  1  0
 19 20  1  0
 19 18  1  0
 20 21  1  0
 22 20  2  0
M  END
$$$$
