IQG.pdb
     RDKit          3D

 22 21  0  0  1  0  0  0  0  0999 V2000
    7.2955  -10.5352   26.3292 C   0  0  0  0  0  0  0  0  0  0  0  0
    6.4599  -11.6751   25.8571 C   0  0  0  0  0  0  0  0  0  0  0  0
    7.1493  -12.9942   25.7940 C   0  0  2  0  0  0  0  0  0  0  0  0
    8.1959  -12.9112   24.6847 C   0  0  0  0  0  0  0  0  0  0  0  0
    6.2246  -14.1731   25.5748 C   0  0  2  0  0  0  0  0  0  0  0  0
    5.0712  -14.1907   26.3573 N   0  0  0  0  0  0  0  0  0  0  0  0
    7.0848  -15.3978   25.6900 C   0  0  0  0  0  0  0  0  0  0  0  0
    7.6078  -15.7291   26.7849 O   0  0  0  0  0  0  0  0  0  0  0  0
    7.3303  -20.0461   26.0898 N   0  0  0  0  0  0  0  0  0  0  0  0
    8.3507  -20.4745   25.1912 C   0  0  0  0  0  0  0  0  0  0  0  0
    9.0034  -21.4986   25.5142 O   0  0  0  0  0  0  0  0  0  0  0  0
    8.6481  -19.7604   23.9253 C   0  0  0  0  0  0  0  0  0  0  0  0
    7.7790  -18.5569   23.8328 C   0  0  0  0  0  0  0  0  0  0  0  0
    8.2099  -17.4245   24.7276 C   0  0  2  0  0  0  0  0  0  0  0  0
    7.3654  -16.2583   24.5839 N   0  0  0  0  0  0  0  0  0  0  0  0
    9.6096  -17.0327   24.5293 C   0  0  0  0  0  0  0  0  0  0  0  0
   10.5641  -17.4549   25.2347 O   0  0  0  0  0  0  0  0  0  0  0  0
    9.9269  -16.1255   23.4864 N   0  0  0  0  0  0  0  0  0  0  0  0
   11.2680  -15.6899   23.1932 C   0  0  0  0  0  0  0  0  0  0  0  0
   12.0924  -16.7156   22.5575 C   0  0  0  0  0  0  0  0  0  0  0  0
   13.3453  -16.3886   22.0766 O   0  0  0  0  0  0  0  0  0  0  0  0
   11.6757  -17.8901   22.4431 O   0  0  0  0  0  0  0  0  0  0  0  0
  2  3  1  0
  2  1  1  0
  3  5  1  0
  3  4  1  6
  5  7  1  0
  5  6  1  1
  7  8  2  0
  9 10  1  0
 10 12  1  0
 10 11  2  0
 12 13  1  0
 14 13  1  6
 15 14  1  0
 15  7  1  0
 16 17  2  0
 16 14  1  0
 18 16  1  0
 19 20  1  0
 19 18  1  0
 20 21  1  0
 22 20  2  0
M  END
$$$$
