IQG.pdb
     RDKit          3D

 22 21  0  0  1  0  0  0  0  0999 V2000
    7.6334  -12.1657   20.6104 C   0  0  0  0  0  0  0  0  0  0  0  0
    8.0052  -12.7068   19.2726 C   0  0  0  0  0  0  0  0  0  0  0  0
    9.0864  -13.7315   19.2718 C   0  0  2  0  0  0  0  0  0  0  0  0
   10.2836  -13.1344   20.0087 C   0  0  0  0  0  0  0  0  0  0  0  0
    9.4884  -14.2154   17.8945 C   0  0  2  0  0  0  0  0  0  0  0  0
    8.4383  -14.4965   17.0219 N   0  0  0  0  0  0  0  0  0  0  0  0
   10.4438  -15.3509   18.1197 C   0  0  0  0  0  0  0  0  0  0  0  0
   10.0314  -16.5156   18.3558 O   0  0  0  0  0  0  0  0  0  0  0  0
   13.8772  -18.8323   14.6969 N   0  0  0  0  0  0  0  0  0  0  0  0
   12.9119  -18.1042   15.4520 C   0  0  0  0  0  0  0  0  0  0  0  0
   11.9538  -18.7577   15.9358 O   0  0  0  0  0  0  0  0  0  0  0  0
   13.0116  -16.6404   15.6714 C   0  0  0  0  0  0  0  0  0  0  0  0
   13.6923  -16.3908   16.9702 C   0  0  0  0  0  0  0  0  0  0  0  0
   12.7545  -16.3306   18.1472 C   0  0  2  0  0  0  0  0  0  0  0  0
   11.8636  -15.1921   18.0828 N   0  0  0  0  0  0  0  0  0  0  0  0
   13.4492  -16.3256   19.4392 C   0  0  0  0  0  0  0  0  0  0  0  0
   14.1769  -17.2686   19.8492 O   0  0  0  0  0  0  0  0  0  0  0  0
   13.3053  -15.2011   20.2912 N   0  0  0  0  0  0  0  0  0  0  0  0
   13.8214  -15.1513   21.6348 C   0  0  0  0  0  0  0  0  0  0  0  0
   15.2352  -14.7880   21.7074 C   0  0  0  0  0  0  0  0  0  0  0  0
   15.9681  -14.6465   20.5452 O   0  0  0  0  0  0  0  0  0  0  0  0
   15.7914  -14.6031   22.8131 O   0  0  0  0  0  0  0  0  0  0  0  0
  2  3  1  0
  2  1  1  0
  3  5  1  0
  3  4  1  6
  5  7  1  0
  5  6  1  1
  7  8  2  0
  9 10  1  0
 10 12  1  0
 10 11  2  0
 12 13  1  0
 14 13  1  6
 15 14  1  0
 15  7  1  0
 16 17  2  0
 16 14  1  0
 18 16  1  0
 19 20  1  0
 19 18  1  0
 20 21  1  0
 22 20  2  0
M  END
$$$$
