IQG.pdb
     RDKit          3D

 22 21  0  0  1  0  0  0  0  0999 V2000
    6.4560  -10.4502   26.4984 C   0  0  0  0  0  0  0  0  0  0  0  0
    5.9514  -11.8521   26.4714 C   0  0  0  0  0  0  0  0  0  0  0  0
    6.9487  -12.8864   26.0780 C   0  0  2  0  0  0  0  0  0  0  0  0
    7.5252  -12.4752   24.7247 C   0  0  0  0  0  0  0  0  0  0  0  0
    6.3989  -14.2963   26.0232 C   0  0  2  0  0  0  0  0  0  0  0  0
    5.5703  -14.6638   27.0821 N   0  0  0  0  0  0  0  0  0  0  0  0
    7.5840  -15.1920   25.8082 C   0  0  0  0  0  0  0  0  0  0  0  0
    8.5243  -15.2442   26.6420 O   0  0  0  0  0  0  0  0  0  0  0  0
    7.7946  -21.0151   24.6817 N   0  0  0  0  0  0  0  0  0  0  0  0
    7.6225  -20.2255   25.8560 C   0  0  0  0  0  0  0  0  0  0  0  0
    7.1960  -20.8128   26.8818 O   0  0  0  0  0  0  0  0  0  0  0  0
    7.9263  -18.7738   25.8911 C   0  0  0  0  0  0  0  0  0  0  0  0
    8.4857  -18.3645   24.5750 C   0  0  0  0  0  0  0  0  0  0  0  0
    8.8663  -16.9091   24.5015 C   0  0  2  0  0  0  0  0  0  0  0  0
    7.7253  -16.0336   24.6617 N   0  0  0  0  0  0  0  0  0  0  0  0
    9.5719  -16.5587   23.2640 C   0  0  0  0  0  0  0  0  0  0  0  0
    8.9934  -16.2239   22.1962 O   0  0  0  0  0  0  0  0  0  0  0  0
   10.9895  -16.5931   23.2492 N   0  0  0  0  0  0  0  0  0  0  0  0
   11.7800  -16.2639   22.0913 C   0  0  0  0  0  0  0  0  0  0  0  0
   13.2208  -16.3050   22.3333 C   0  0  0  0  0  0  0  0  0  0  0  0
   14.0987  -16.0965   21.2875 O   0  0  0  0  0  0  0  0  0  0  0  0
   13.6700  -16.5274   23.4799 O   0  0  0  0  0  0  0  0  0  0  0  0
  2  3  1  0
  2  1  1  0
  3  5  1  0
  3  4  1  6
  5  7  1  0
  5  6  1  1
  7  8  2  0
  9 10  1  0
 10 12  1  0
 10 11  2  0
 12 13  1  0
 14 13  1  6
 15 14  1  0
 15  7  1  0
 16 17  2  0
 16 14  1  0
 18 16  1  0
 19 20  1  0
 19 18  1  0
 20 21  1  0
 22 20  2  0
M  END
$$$$
