IQG.pdb
     RDKit          3D

 22 21  0  0  1  0  0  0  0  0999 V2000
    6.7216  -11.9218   27.8896 C   0  0  0  0  0  0  0  0  0  0  0  0
    6.1335  -13.0776   27.1554 C   0  0  0  0  0  0  0  0  0  0  0  0
    7.0138  -13.7015   26.1283 C   0  0  2  0  0  0  0  0  0  0  0  0
    7.3177  -12.6357   25.0773 C   0  0  0  0  0  0  0  0  0  0  0  0
    6.4385  -14.9449   25.4836 C   0  0  2  0  0  0  0  0  0  0  0  0
    6.1304  -15.9898   26.3534 N   0  0  0  0  0  0  0  0  0  0  0  0
    7.3803  -15.3054   24.3718 C   0  0  0  0  0  0  0  0  0  0  0  0
    8.1395  -16.3048   24.4559 O   0  0  0  0  0  0  0  0  0  0  0  0
    7.3835  -12.7638   18.5179 N   0  0  0  0  0  0  0  0  0  0  0  0
    8.0565  -14.0102   18.3582 C   0  0  0  0  0  0  0  0  0  0  0  0
    8.3354  -14.3627   17.1848 O   0  0  0  0  0  0  0  0  0  0  0  0
    8.4223  -14.8709   19.5099 C   0  0  0  0  0  0  0  0  0  0  0  0
    7.8695  -14.2739   20.7551 C   0  0  0  0  0  0  0  0  0  0  0  0
    8.1557  -15.0792   21.9954 C   0  0  2  0  0  0  0  0  0  0  0  0
    7.4793  -14.5524   23.1611 N   0  0  0  0  0  0  0  0  0  0  0  0
    9.5883  -15.2034   22.2852 C   0  0  0  0  0  0  0  0  0  0  0  0
   10.2972  -14.2660   22.7388 O   0  0  0  0  0  0  0  0  0  0  0  0
   10.2313  -16.4448   22.0472 N   0  0  0  0  0  0  0  0  0  0  0  0
   11.6548  -16.6356   22.1550 C   0  0  0  0  0  0  0  0  0  0  0  0
   12.1405  -16.6632   23.5332 C   0  0  0  0  0  0  0  0  0  0  0  0
   13.3098  -16.0056   23.8622 O   0  0  0  0  0  0  0  0  0  0  0  0
   11.5080  -17.2772   24.4214 O   0  0  0  0  0  0  0  0  0  0  0  0
  2  3  1  0
  2  1  1  0
  3  5  1  0
  3  4  1  6
  5  7  1  0
  5  6  1  1
  7  8  2  0
  9 10  1  0
 10 12  1  0
 10 11  2  0
 12 13  1  0
 14 13  1  6
 15 14  1  0
 15  7  1  0
 16 17  2  0
 16 14  1  0
 18 16  1  0
 19 20  1  0
 19 18  1  0
 20 21  1  0
 22 20  2  0
M  END
$$$$
