KMK.pdb
     RDKit          3D

 27 26  0  0  1  0  0  0  0  0999 V2000
   16.8732  -11.3825  -16.1611 N   0  0  0  0  0  0  0  0  0  0  0  0
   16.8252   -9.9956  -15.7327 C   0  0  1  0  0  0  0  0  0  0  0  0
   15.3449   -9.5279  -15.8556 C   0  0  0  0  0  0  0  0  0  0  0  0
   14.7700  -10.1205  -17.1094 C   0  0  0  0  0  0  0  0  0  0  0  0
   13.4772  -10.8466  -16.9477 C   0  0  0  0  0  0  0  0  0  0  0  0
   12.8367  -11.3742  -18.1694 C   0  0  0  0  0  0  0  0  0  0  0  0
   11.5710  -12.0155  -17.9385 N   0  0  0  0  0  0  0  0  0  0  0  0
   17.1963   -9.8726  -14.2921 C   0  0  0  0  0  0  0  0  0  0  0  0
   16.7862  -10.7361  -13.4364 O   0  0  0  0  0  0  0  0  0  0  0  0
   22.9741   -8.8761  -11.8493 C   0  0  0  0  0  0  0  0  0  0  0  0
   22.1311   -7.4916  -11.0008 S   0  0  0  0  0  0  0  0  0  0  0  0
   20.3180   -7.8109  -11.0248 C   0  0  0  0  0  0  0  0  0  0  0  0
   19.9180   -8.1230  -12.4648 C   0  0  0  0  0  0  0  0  0  0  0  0
   18.4353   -8.4751  -12.5474 C   0  0  2  0  0  0  0  0  0  0  0  0
   18.0066   -8.8039  -13.8791 N   0  0  0  0  0  0  0  0  0  0  0  0
   17.5440   -7.5200  -11.9291 C   0  0  0  0  0  0  0  0  0  0  0  0
   17.2922   -6.3578  -12.3320 O   0  0  0  0  0  0  0  0  0  0  0  0
   16.8658   -7.9081  -10.7451 N   0  0  0  0  0  0  0  0  0  0  0  0
   15.8726   -6.9313  -10.1400 C   0  0  1  0  0  0  0  0  0  0  0  0
   14.9600   -7.8305   -9.3692 C   0  0  0  0  0  0  0  0  0  0  0  0
   13.6221   -7.4960   -8.9614 C   0  0  0  0  0  0  0  0  0  0  0  0
   12.8195   -8.4618   -8.1710 C   0  0  0  0  0  0  0  0  0  0  0  0
   11.4275   -7.8034   -7.9863 C   0  0  0  0  0  0  0  0  0  0  0  0
   10.6012   -8.7702   -7.2992 N   0  0  0  0  0  0  0  0  0  0  0  0
   16.7352   -6.1112   -9.2782 C   0  0  0  0  0  0  0  0  0  0  0  0
   16.3251   -4.7878   -8.9420 O   0  0  0  0  0  0  0  0  0  0  0  0
   17.8494   -6.4854   -8.7971 O   0  0  0  0  0  0  0  0  0  0  0  0
  2  1  1  1
  2  8  1  0
  2  3  1  0
  3  4  1  0
  4  5  1  0
  5  6  1  0
  6  7  1  0
  8 15  1  0
  9  8  2  0
 10 11  1  0
 11 12  1  0
 14 13  1  6
 13 12  1  0
 15 14  1  0
 16 14  1  0
 16 17  2  0
 18 16  1  0
 19 18  1  0
 19 25  1  0
 19 20  1  1
 21 20  1  0
 21 22  1  0
 23 24  1  0
 23 22  1  0
 25 26  1  0
 27 25  2  0
M  END
$$$$
