KMK.pdb
     RDKit          3D

 27 26  0  0  1  0  0  0  0  0999 V2000
   24.6906  -20.8312  -13.4565 N   0  0  0  0  0  0  0  0  0  0  0  0
   23.9490  -20.0302  -12.4985 C   0  0  1  0  0  0  0  0  0  0  0  0
   22.5994  -19.6420  -13.1715 C   0  0  0  0  0  0  0  0  0  0  0  0
   22.9059  -18.8900  -14.4341 C   0  0  0  0  0  0  0  0  0  0  0  0
   22.6731  -19.6365  -15.7042 C   0  0  0  0  0  0  0  0  0  0  0  0
   22.8376  -18.8929  -16.9695 C   0  0  0  0  0  0  0  0  0  0  0  0
   24.1863  -18.4691  -17.2302 N   0  0  0  0  0  0  0  0  0  0  0  0
   23.6095  -20.8329  -11.2867 C   0  0  0  0  0  0  0  0  0  0  0  0
   22.6793  -21.7156  -11.3280 O   0  0  0  0  0  0  0  0  0  0  0  0
   26.7070  -20.0816   -5.1092 C   0  0  0  0  0  0  0  0  0  0  0  0
   27.0320  -19.2285   -6.6947 S   0  0  0  0  0  0  0  0  0  0  0  0
   25.5836  -19.4848   -7.8020 C   0  0  0  0  0  0  0  0  0  0  0  0
   25.2934  -20.9830   -7.8518 C   0  0  0  0  0  0  0  0  0  0  0  0
   24.1616  -21.2798   -8.8316 C   0  0  2  0  0  0  0  0  0  0  0  0
   24.3231  -20.6189  -10.0974 N   0  0  0  0  0  0  0  0  0  0  0  0
   22.8296  -21.0877   -8.3045 C   0  0  0  0  0  0  0  0  0  0  0  0
   22.1793  -20.0138   -8.2802 O   0  0  0  0  0  0  0  0  0  0  0  0
   22.1601  -22.2109   -7.7546 N   0  0  0  0  0  0  0  0  0  0  0  0
   20.6875  -22.0656   -7.4125 C   0  0  1  0  0  0  0  0  0  0  0  0
   20.0186  -22.7814   -8.5420 C   0  0  0  0  0  0  0  0  0  0  0  0
   18.6160  -23.0919   -8.6077 C   0  0  0  0  0  0  0  0  0  0  0  0
   18.0666  -23.8179   -9.7794 C   0  0  0  0  0  0  0  0  0  0  0  0
   16.5568  -24.0156   -9.4843 C   0  0  0  0  0  0  0  0  0  0  0  0
   15.9830  -24.6293  -10.6606 N   0  0  0  0  0  0  0  0  0  0  0  0
   20.5958  -22.7902   -6.1374 C   0  0  0  0  0  0  0  0  0  0  0  0
   21.7297  -23.5148   -5.6666 O   0  0  0  0  0  0  0  0  0  0  0  0
   19.5636  -22.8348   -5.3987 O   0  0  0  0  0  0  0  0  0  0  0  0
  2  1  1  6
  2  8  1  0
  2  3  1  0
  3  4  1  0
  4  5  1  0
  5  6  1  0
  6  7  1  0
  8 15  1  0
  9  8  2  0
 10 11  1  0
 11 12  1  0
 14 13  1  1
 13 12  1  0
 15 14  1  0
 16 14  1  0
 16 17  2  0
 18 16  1  0
 19 18  1  0
 19 25  1  0
 19 20  1  6
 21 20  1  0
 21 22  1  0
 23 24  1  0
 23 22  1  0
 25 26  1  0
 27 25  2  0
M  END
$$$$
