KMK.pdb
     RDKit          3D

 27 26  0  0  1  0  0  0  0  0999 V2000
   27.4441  -20.2069  -15.1245 N   0  0  0  0  0  0  0  0  0  0  0  0
   26.7719  -21.4691  -15.3781 C   0  0  1  0  0  0  0  0  0  0  0  0
   27.8782  -22.5398  -15.6125 C   0  0  0  0  0  0  0  0  0  0  0  0
   28.8915  -21.9654  -16.5595 C   0  0  0  0  0  0  0  0  0  0  0  0
   30.0736  -22.8293  -16.8439 C   0  0  0  0  0  0  0  0  0  0  0  0
   29.8130  -24.2217  -17.2613 C   0  0  0  0  0  0  0  0  0  0  0  0
   30.4565  -24.5960  -18.4911 N   0  0  0  0  0  0  0  0  0  0  0  0
   25.9971  -21.9072  -14.1799 C   0  0  0  0  0  0  0  0  0  0  0  0
   25.3388  -23.0083  -14.1950 O   0  0  0  0  0  0  0  0  0  0  0  0
   27.8275  -19.7797   -8.2987 C   0  0  0  0  0  0  0  0  0  0  0  0
   26.0469  -20.0618   -7.9866 S   0  0  0  0  0  0  0  0  0  0  0  0
   25.4054  -21.2137   -9.2716 C   0  0  0  0  0  0  0  0  0  0  0  0
   26.1671  -20.9397  -10.5662 C   0  0  0  0  0  0  0  0  0  0  0  0
   25.3310  -21.3416  -11.7781 C   0  0  2  0  0  0  0  0  0  0  0  0
   25.9992  -21.1052  -13.0282 N   0  0  0  0  0  0  0  0  0  0  0  0
   23.9845  -20.8164  -11.7942 C   0  0  0  0  0  0  0  0  0  0  0  0
   23.1716  -20.8047  -10.8373 O   0  0  0  0  0  0  0  0  0  0  0  0
   23.5045  -20.2450  -13.0006 N   0  0  0  0  0  0  0  0  0  0  0  0
   22.0978  -19.6723  -13.0075 C   0  0  1  0  0  0  0  0  0  0  0  0
   22.0883  -18.8474  -14.2545 C   0  0  0  0  0  0  0  0  0  0  0  0
   20.9235  -18.2253  -14.8240 C   0  0  0  0  0  0  0  0  0  0  0  0
   21.0035  -17.5648  -16.1504 C   0  0  0  0  0  0  0  0  0  0  0  0
   19.6048  -16.9420  -16.3976 C   0  0  0  0  0  0  0  0  0  0  0  0
   19.7126  -16.1497  -17.6018 N   0  0  0  0  0  0  0  0  0  0  0  0
   21.2737  -20.8843  -13.1130 C   0  0  0  0  0  0  0  0  0  0  0  0
   21.7615  -21.9932  -13.8646 O   0  0  0  0  0  0  0  0  0  0  0  0
   20.1289  -21.0339  -12.5837 O   0  0  0  0  0  0  0  0  0  0  0  0
  2  1  1  1
  2  8  1  0
  2  3  1  0
  3  4  1  0
  4  5  1  0
  5  6  1  0
  6  7  1  0
  8 15  1  0
  9  8  2  0
 10 11  1  0
 11 12  1  0
 14 13  1  1
 13 12  1  0
 15 14  1  0
 16 14  1  0
 16 17  2  0
 18 16  1  0
 19 18  1  0
 19 25  1  0
 19 20  1  6
 21 20  1  0
 21 22  1  0
 23 24  1  0
 23 22  1  0
 25 26  1  0
 27 25  2  0
M  END
$$$$
