KMK.pdb
     RDKit          3D

 27 26  0  0  1  0  0  0  0  0999 V2000
   27.5873  -22.1529  -15.4055 N   0  0  0  0  0  0  0  0  0  0  0  0
   27.2500  -21.0190  -14.5630 C   0  0  1  0  0  0  0  0  0  0  0  0
   26.7448  -19.8837  -15.5016 C   0  0  0  0  0  0  0  0  0  0  0  0
   27.6922  -19.7796  -16.6614 C   0  0  0  0  0  0  0  0  0  0  0  0
   27.4374  -18.6536  -17.6057 C   0  0  0  0  0  0  0  0  0  0  0  0
   28.3343  -18.5288  -18.7723 C   0  0  0  0  0  0  0  0  0  0  0  0
   29.6962  -18.2159  -18.4349 N   0  0  0  0  0  0  0  0  0  0  0  0
   26.1191  -21.3557  -13.6488 C   0  0  0  0  0  0  0  0  0  0  0  0
   25.2498  -22.2379  -13.9834 O   0  0  0  0  0  0  0  0  0  0  0  0
   26.7489  -19.1390   -7.6622 C   0  0  0  0  0  0  0  0  0  0  0  0
   27.2423  -20.8817   -7.9208 S   0  0  0  0  0  0  0  0  0  0  0  0
   26.6881  -21.4016   -9.5978 C   0  0  0  0  0  0  0  0  0  0  0  0
   25.5127  -20.5127   -9.9973 C   0  0  0  0  0  0  0  0  0  0  0  0
   25.0157  -20.8733  -11.3945 C   0  0  2  0  0  0  0  0  0  0  0  0
   26.0166  -20.7018  -12.4113 N   0  0  0  0  0  0  0  0  0  0  0  0
   23.7660  -20.2564  -11.7778 C   0  0  0  0  0  0  0  0  0  0  0  0
   23.4763  -19.0370  -11.7022 O   0  0  0  0  0  0  0  0  0  0  0  0
   22.7428  -21.0883  -12.3006 N   0  0  0  0  0  0  0  0  0  0  0  0
   21.4440  -20.4322  -12.7358 C   0  0  1  0  0  0  0  0  0  0  0  0
   21.1648  -21.0995  -14.0445 C   0  0  0  0  0  0  0  0  0  0  0  0
   20.0721  -20.7739  -14.9208 C   0  0  0  0  0  0  0  0  0  0  0  0
   19.9020  -21.5006  -16.2033 C   0  0  0  0  0  0  0  0  0  0  0  0
   18.6897  -20.8374  -16.9075 C   0  0  0  0  0  0  0  0  0  0  0  0
   18.5390  -21.5012  -18.1827 N   0  0  0  0  0  0  0  0  0  0  0  0
   20.5197  -20.8452  -11.6707 C   0  0  0  0  0  0  0  0  0  0  0  0
   20.7982  -22.0310  -10.9300 O   0  0  0  0  0  0  0  0  0  0  0  0
   19.4602  -20.2246  -11.3460 O   0  0  0  0  0  0  0  0  0  0  0  0
  2  1  1  6
  2  8  1  0
  2  3  1  0
  3  4  1  0
  4  5  1  0
  5  6  1  0
  6  7  1  0
  8 15  1  0
  9  8  2  0
 10 11  1  0
 11 12  1  0
 14 13  1  1
 13 12  1  0
 15 14  1  0
 16 14  1  0
 16 17  2  0
 18 16  1  0
 19 18  1  0
 19 25  1  0
 19 20  1  6
 21 20  1  0
 21 22  1  0
 23 24  1  0
 23 22  1  0
 25 26  1  0
 27 25  2  0
M  END
$$$$
