KMK.pdb
     RDKit          3D

 27 26  0  0  1  0  0  0  0  0999 V2000
   23.5672  -16.4396  -18.6419 N   0  0  0  0  0  0  0  0  0  0  0  0
   23.1060  -15.0995  -18.9594 C   0  0  1  0  0  0  0  0  0  0  0  0
   21.5540  -15.1621  -19.0703 C   0  0  0  0  0  0  0  0  0  0  0  0
   21.2034  -16.0582  -20.2226 C   0  0  0  0  0  0  0  0  0  0  0  0
   19.7471  -16.3039  -20.4311 C   0  0  0  0  0  0  0  0  0  0  0  0
   19.3592  -17.1698  -21.5628 C   0  0  0  0  0  0  0  0  0  0  0  0
   17.9398  -17.3458  -21.7076 N   0  0  0  0  0  0  0  0  0  0  0  0
   23.4194  -14.1539  -17.8478 C   0  0  0  0  0  0  0  0  0  0  0  0
   22.7366  -14.1737  -16.7619 O   0  0  0  0  0  0  0  0  0  0  0  0
   28.9977  -13.3267  -15.0828 C   0  0  0  0  0  0  0  0  0  0  0  0
   28.6593  -11.5586  -15.4093 S   0  0  0  0  0  0  0  0  0  0  0  0
   26.8532  -11.3554  -15.7029 C   0  0  0  0  0  0  0  0  0  0  0  0
   26.4287  -12.3947  -16.7378 C   0  0  0  0  0  0  0  0  0  0  0  0
   24.9427  -12.2595  -17.0583 C   0  0  2  0  0  0  0  0  0  0  0  0
   24.4761  -13.2425  -17.9971 N   0  0  0  0  0  0  0  0  0  0  0  0
   24.5157  -10.9305  -17.4331 C   0  0  0  0  0  0  0  0  0  0  0  0
   24.6148  -10.4021  -18.5678 O   0  0  0  0  0  0  0  0  0  0  0  0
   23.9154  -10.1162  -16.4387 N   0  0  0  0  0  0  0  0  0  0  0  0
   23.4369   -8.7329  -16.8440 C   0  0  1  0  0  0  0  0  0  0  0  0
   22.1363   -8.6122  -16.1161 C   0  0  0  0  0  0  0  0  0  0  0  0
   21.2816   -7.4559  -16.1390 C   0  0  0  0  0  0  0  0  0  0  0  0
   19.9515   -7.4981  -15.4826 C   0  0  0  0  0  0  0  0  0  0  0  0
   19.3335   -6.0906  -15.6886 C   0  0  0  0  0  0  0  0  0  0  0  0
   18.1045   -6.0639  -14.9283 N   0  0  0  0  0  0  0  0  0  0  0  0
   24.4888   -7.8697  -16.2894 C   0  0  0  0  0  0  0  0  0  0  0  0
   24.6251   -6.5378  -16.7794 O   0  0  0  0  0  0  0  0  0  0  0  0
   25.3158   -8.2170  -15.3902 O   0  0  0  0  0  0  0  0  0  0  0  0
  2  1  1  1
  2  8  1  0
  2  3  1  0
  3  4  1  0
  4  5  1  0
  5  6  1  0
  6  7  1  0
  8 15  1  0
  9  8  2  0
 10 11  1  0
 11 12  1  0
 14 13  1  6
 13 12  1  0
 15 14  1  0
 16 14  1  0
 16 17  2  0
 18 16  1  0
 19 18  1  0
 19 25  1  0
 19 20  1  1
 21 20  1  0
 21 22  1  0
 23 24  1  0
 23 22  1  0
 25 26  1  0
 27 25  2  0
M  END
$$$$
