KMK.pdb
     RDKit          3D

 27 26  0  0  1  0  0  0  0  0999 V2000
   28.4395  -21.8717  -16.5373 N   0  0  0  0  0  0  0  0  0  0  0  0
   27.8950  -20.7808  -15.7482 C   0  0  1  0  0  0  0  0  0  0  0  0
   27.1158  -19.8515  -16.7251 C   0  0  0  0  0  0  0  0  0  0  0  0
   28.0888  -19.3111  -17.7324 C   0  0  0  0  0  0  0  0  0  0  0  0
   29.1052  -18.3567  -17.2024 C   0  0  0  0  0  0  0  0  0  0  0  0
   29.9947  -17.6987  -18.1806 C   0  0  0  0  0  0  0  0  0  0  0  0
   29.3024  -16.9341  -19.1820 N   0  0  0  0  0  0  0  0  0  0  0  0
   26.9029  -21.2886  -14.7552 C   0  0  0  0  0  0  0  0  0  0  0  0
   26.0292  -22.1645  -15.0948 O   0  0  0  0  0  0  0  0  0  0  0  0
   24.9687  -20.7780   -6.9974 C   0  0  0  0  0  0  0  0  0  0  0  0
   26.1790  -20.3856   -8.3122 S   0  0  0  0  0  0  0  0  0  0  0  0
   25.4628  -20.8881   -9.9322 C   0  0  0  0  0  0  0  0  0  0  0  0
   26.5119  -20.6219  -11.0091 C   0  0  0  0  0  0  0  0  0  0  0  0
   25.9862  -21.0246  -12.3841 C   0  0  2  0  0  0  0  0  0  0  0  0
   26.9370  -20.8035  -13.4388 N   0  0  0  0  0  0  0  0  0  0  0  0
   24.6886  -20.4869  -12.7249 C   0  0  0  0  0  0  0  0  0  0  0  0
   24.4477  -19.3475  -13.1944 O   0  0  0  0  0  0  0  0  0  0  0  0
   23.5505  -21.3091  -12.5229 N   0  0  0  0  0  0  0  0  0  0  0  0
   22.2174  -20.8271  -13.0683 C   0  0  1  0  0  0  0  0  0  0  0  0
   21.8270  -21.9319  -13.9971 C   0  0  0  0  0  0  0  0  0  0  0  0
   20.7069  -21.8960  -14.8982 C   0  0  0  0  0  0  0  0  0  0  0  0
   20.4436  -23.0389  -15.8072 C   0  0  0  0  0  0  0  0  0  0  0  0
   19.1785  -22.6523  -16.6169 C   0  0  0  0  0  0  0  0  0  0  0  0
   18.9530  -23.7196  -17.5653 N   0  0  0  0  0  0  0  0  0  0  0  0
   21.3900  -20.7762  -11.8550 C   0  0  0  0  0  0  0  0  0  0  0  0
   20.1509  -20.0718  -11.8878 O   0  0  0  0  0  0  0  0  0  0  0  0
   21.6924  -21.3145  -10.7451 O   0  0  0  0  0  0  0  0  0  0  0  0
  2  1  1  6
  2  8  1  0
  2  3  1  0
  3  4  1  0
  4  5  1  0
  5  6  1  0
  6  7  1  0
  8 15  1  0
  9  8  2  0
 10 11  1  0
 11 12  1  0
 14 13  1  1
 13 12  1  0
 15 14  1  0
 16 14  1  0
 16 17  2  0
 18 16  1  0
 19 18  1  0
 19 25  1  0
 19 20  1  6
 21 20  1  0
 21 22  1  0
 23 24  1  0
 23 22  1  0
 25 26  1  0
 27 25  2  0
M  END
$$$$
