KMK.pdb
     RDKit          3D

 27 26  0  0  1  0  0  0  0  0999 V2000
   27.3199  -19.3900  -14.5825 N   0  0  0  0  0  0  0  0  0  0  0  0
   26.7611  -20.6457  -15.0520 C   0  0  1  0  0  0  0  0  0  0  0  0
   27.9577  -21.5881  -15.3764 C   0  0  0  0  0  0  0  0  0  0  0  0
   28.3730  -21.3439  -16.7981 C   0  0  0  0  0  0  0  0  0  0  0  0
   29.1912  -20.1189  -17.0316 C   0  0  0  0  0  0  0  0  0  0  0  0
   29.6341  -19.8508  -18.4147 C   0  0  0  0  0  0  0  0  0  0  0  0
   29.3146  -20.8977  -19.3467 N   0  0  0  0  0  0  0  0  0  0  0  0
   25.9710  -21.3102  -13.9740 C   0  0  0  0  0  0  0  0  0  0  0  0
   25.4544  -22.4692  -14.1632 O   0  0  0  0  0  0  0  0  0  0  0  0
   26.7189  -18.9206   -8.1694 C   0  0  0  0  0  0  0  0  0  0  0  0
   27.0396  -20.7201   -8.2507 S   0  0  0  0  0  0  0  0  0  0  0  0
   26.4960  -21.3349   -9.8988 C   0  0  0  0  0  0  0  0  0  0  0  0
   25.2854  -20.5099  -10.3288 C   0  0  0  0  0  0  0  0  0  0  0  0
   24.8227  -20.9197  -11.7242 C   0  0  2  0  0  0  0  0  0  0  0  0
   25.8017  -20.6576  -12.7431 N   0  0  0  0  0  0  0  0  0  0  0  0
   23.5200  -20.4245  -12.1072 C   0  0  0  0  0  0  0  0  0  0  0  0
   23.2373  -19.2554  -12.4677 O   0  0  0  0  0  0  0  0  0  0  0  0
   22.4285  -21.3304  -12.0877 N   0  0  0  0  0  0  0  0  0  0  0  0
   21.0741  -20.8242  -12.5527 C   0  0  1  0  0  0  0  0  0  0  0  0
   20.8309  -21.6322  -13.7871 C   0  0  0  0  0  0  0  0  0  0  0  0
   19.6691  -21.5258  -14.6279 C   0  0  0  0  0  0  0  0  0  0  0  0
   19.5593  -22.3503  -15.8567 C   0  0  0  0  0  0  0  0  0  0  0  0
   18.1692  -22.0238  -16.4621 C   0  0  0  0  0  0  0  0  0  0  0  0
   18.0281  -22.8485  -17.6409 N   0  0  0  0  0  0  0  0  0  0  0  0
   20.2026  -21.2074  -11.4333 C   0  0  0  0  0  0  0  0  0  0  0  0
   18.9869  -20.4930  -11.2228 O   0  0  0  0  0  0  0  0  0  0  0  0
   20.4464  -22.1420  -10.6086 O   0  0  0  0  0  0  0  0  0  0  0  0
  2  1  1  1
  2  8  1  0
  2  3  1  0
  3  4  1  0
  4  5  1  0
  5  6  1  0
  6  7  1  0
  8 15  1  0
  9  8  2  0
 10 11  1  0
 11 12  1  0
 14 13  1  1
 13 12  1  0
 15 14  1  0
 16 14  1  0
 16 17  2  0
 18 16  1  0
 19 18  1  0
 19 25  1  0
 19 20  1  6
 21 20  1  0
 21 22  1  0
 23 24  1  0
 23 22  1  0
 25 26  1  0
 27 25  2  0
M  END
$$$$
