KMK.pdb
     RDKit          3D

 27 26  0  0  1  0  0  0  0  0999 V2000
   18.1739  -12.6639  -15.0032 N   0  0  0  0  0  0  0  0  0  0  0  0
   19.0091  -12.7534  -16.1880 C   0  0  1  0  0  0  0  0  0  0  0  0
   18.2789  -13.6904  -17.1950 C   0  0  0  0  0  0  0  0  0  0  0  0
   19.1454  -14.8944  -17.4259 C   0  0  0  0  0  0  0  0  0  0  0  0
   18.7982  -16.1042  -16.6257 C   0  0  0  0  0  0  0  0  0  0  0  0
   19.6602  -17.2931  -16.7823 C   0  0  0  0  0  0  0  0  0  0  0  0
   19.4200  -18.3245  -15.8102 N   0  0  0  0  0  0  0  0  0  0  0  0
   19.1321  -11.4221  -16.8516 C   0  0  0  0  0  0  0  0  0  0  0  0
   19.8070  -11.2927  -17.9350 O   0  0  0  0  0  0  0  0  0  0  0  0
   13.5417   -7.8513  -19.0273 C   0  0  0  0  0  0  0  0  0  0  0  0
   14.5776   -7.6711  -17.5300 S   0  0  0  0  0  0  0  0  0  0  0  0
   16.2421   -8.3733  -17.8851 C   0  0  0  0  0  0  0  0  0  0  0  0
   17.0556   -8.3215  -16.5941 C   0  0  0  0  0  0  0  0  0  0  0  0
   18.4241   -8.9670  -16.7939 C   0  0  2  0  0  0  0  0  0  0  0  0
   18.4955  -10.3083  -16.2829 N   0  0  0  0  0  0  0  0  0  0  0  0
   19.5463   -8.1736  -16.3464 C   0  0  0  0  0  0  0  0  0  0  0  0
   20.1976   -8.3263  -15.2838 O   0  0  0  0  0  0  0  0  0  0  0  0
   19.9830   -7.1072  -17.1736 N   0  0  0  0  0  0  0  0  0  0  0  0
   21.1665   -6.2795  -16.7037 C   0  0  1  0  0  0  0  0  0  0  0  0
   21.5295   -5.5049  -17.9300 C   0  0  0  0  0  0  0  0  0  0  0  0
   22.4976   -4.4426  -17.9792 C   0  0  0  0  0  0  0  0  0  0  0  0
   22.7930   -3.7612  -19.2638 C   0  0  0  0  0  0  0  0  0  0  0  0
   23.8222   -2.6510  -18.9266 C   0  0  0  0  0  0  0  0  0  0  0  0
   24.2884   -2.1229  -20.1888 N   0  0  0  0  0  0  0  0  0  0  0  0
   20.5614   -5.4465  -15.6552 C   0  0  0  0  0  0  0  0  0  0  0  0
   19.1867   -5.0843  -15.7623 O   0  0  0  0  0  0  0  0  0  0  0  0
   21.1739   -5.0023  -14.6351 O   0  0  0  0  0  0  0  0  0  0  0  0
  2  1  1  1
  2  8  1  0
  2  3  1  0
  3  4  1  0
  4  5  1  0
  5  6  1  0
  6  7  1  0
  8 15  1  0
  9  8  2  0
 10 11  1  0
 11 12  1  0
 14 13  1  1
 13 12  1  0
 15 14  1  0
 16 14  1  0
 16 17  2  0
 18 16  1  0
 19 18  1  0
 19 25  1  0
 19 20  1  6
 21 20  1  0
 21 22  1  0
 23 24  1  0
 23 22  1  0
 25 26  1  0
 27 25  2  0
M  END
$$$$
