KMK.pdb
     RDKit          3D

 27 26  0  0  1  0  0  0  0  0999 V2000
   28.2170  -20.7173  -15.9190 N   0  0  0  0  0  0  0  0  0  0  0  0
   26.9136  -20.9392  -16.5200 C   0  0  1  0  0  0  0  0  0  0  0  0
   27.0444  -22.1764  -17.4567 C   0  0  0  0  0  0  0  0  0  0  0  0
   28.0582  -21.8554  -18.5163 C   0  0  0  0  0  0  0  0  0  0  0  0
   29.4496  -22.3170  -18.2412 C   0  0  0  0  0  0  0  0  0  0  0  0
   30.4536  -22.1215  -19.3064 C   0  0  0  0  0  0  0  0  0  0  0  0
   31.7789  -22.5491  -18.9494 N   0  0  0  0  0  0  0  0  0  0  0  0
   25.9035  -21.2931  -15.4796 C   0  0  0  0  0  0  0  0  0  0  0  0
   24.7698  -21.7923  -15.8136 O   0  0  0  0  0  0  0  0  0  0  0  0
   27.6095  -21.1551   -9.0708 C   0  0  0  0  0  0  0  0  0  0  0  0
   25.9278  -20.4410   -8.9756 S   0  0  0  0  0  0  0  0  0  0  0  0
   25.0207  -20.8787  -10.5168 C   0  0  0  0  0  0  0  0  0  0  0  0
   26.0210  -20.8544  -11.6700 C   0  0  0  0  0  0  0  0  0  0  0  0
   25.3218  -21.1443  -12.9953 C   0  0  2  0  0  0  0  0  0  0  0  0
   26.2066  -21.0808  -14.1259 N   0  0  0  0  0  0  0  0  0  0  0  0
   24.1146  -20.3848  -13.2294 C   0  0  0  0  0  0  0  0  0  0  0  0
   24.0162  -19.1353  -13.3047 O   0  0  0  0  0  0  0  0  0  0  0  0
   22.8996  -21.0969  -13.3997 N   0  0  0  0  0  0  0  0  0  0  0  0
   21.6193  -20.2948  -13.5552 C   0  0  1  0  0  0  0  0  0  0  0  0
   21.2800  -20.4994  -14.9969 C   0  0  0  0  0  0  0  0  0  0  0  0
   19.9872  -20.2664  -15.5820 C   0  0  0  0  0  0  0  0  0  0  0  0
   19.7780  -19.1161  -16.4957 C   0  0  0  0  0  0  0  0  0  0  0  0
   18.2869  -19.1773  -16.9180 C   0  0  0  0  0  0  0  0  0  0  0  0
   18.0750  -18.0880  -17.8443 N   0  0  0  0  0  0  0  0  0  0  0  0
   20.7049  -20.9965  -12.6437 C   0  0  0  0  0  0  0  0  0  0  0  0
   19.6337  -20.2739  -12.0413 O   0  0  0  0  0  0  0  0  0  0  0  0
   20.7903  -22.2245  -12.3308 O   0  0  0  0  0  0  0  0  0  0  0  0
  2  1  1  1
  2  8  1  0
  2  3  1  0
  3  4  1  0
  4  5  1  0
  5  6  1  0
  6  7  1  0
  8 15  1  0
  9  8  2  0
 10 11  1  0
 11 12  1  0
 14 13  1  1
 13 12  1  0
 15 14  1  0
 16 14  1  0
 16 17  2  0
 18 16  1  0
 19 18  1  0
 19 25  1  0
 19 20  1  6
 21 20  1  0
 21 22  1  0
 23 24  1  0
 23 22  1  0
 25 26  1  0
 27 25  2  0
M  END
$$$$
