KMK.pdb
     RDKit          3D

 27 26  0  0  1  0  0  0  0  0999 V2000
   27.3212  -23.4433  -16.0011 N   0  0  0  0  0  0  0  0  0  0  0  0
   27.4531  -22.2742  -15.1495 C   0  0  1  0  0  0  0  0  0  0  0  0
   27.3149  -21.0216  -16.0644 C   0  0  0  0  0  0  0  0  0  0  0  0
   28.6099  -20.8350  -16.8003 C   0  0  0  0  0  0  0  0  0  0  0  0
   28.7351  -21.5778  -18.0877 C   0  0  0  0  0  0  0  0  0  0  0  0
   29.9281  -21.3074  -18.9151 C   0  0  0  0  0  0  0  0  0  0  0  0
   30.0342  -22.1403  -20.0821 N   0  0  0  0  0  0  0  0  0  0  0  0
   26.3364  -22.2096  -14.1612 C   0  0  0  0  0  0  0  0  0  0  0  0
   25.1740  -22.6634  -14.4591 O   0  0  0  0  0  0  0  0  0  0  0  0
   27.2658  -19.2578   -7.9694 C   0  0  0  0  0  0  0  0  0  0  0  0
   26.1254  -20.6793   -7.8071 S   0  0  0  0  0  0  0  0  0  0  0  0
   25.2438  -20.9047   -9.4077 C   0  0  0  0  0  0  0  0  0  0  0  0
   26.2936  -21.1546  -10.4877 C   0  0  0  0  0  0  0  0  0  0  0  0
   25.6273  -21.4296  -11.8329 C   0  0  2  0  0  0  0  0  0  0  0  0
   26.5698  -21.6520  -12.8947 N   0  0  0  0  0  0  0  0  0  0  0  0
   24.6143  -20.4743  -12.2209 C   0  0  0  0  0  0  0  0  0  0  0  0
   24.7614  -19.2338  -12.3481 O   0  0  0  0  0  0  0  0  0  0  0  0
   23.3099  -20.9585  -12.4968 N   0  0  0  0  0  0  0  0  0  0  0  0
   22.2541  -19.9557  -12.9287 C   0  0  1  0  0  0  0  0  0  0  0  0
   21.8530  -20.4651  -14.2760 C   0  0  0  0  0  0  0  0  0  0  0  0
   20.7681  -19.9472  -15.0651 C   0  0  0  0  0  0  0  0  0  0  0  0
   20.4348  -20.5653  -16.3723 C   0  0  0  0  0  0  0  0  0  0  0  0
   19.3560  -19.6510  -17.0094 C   0  0  0  0  0  0  0  0  0  0  0  0
   19.1029  -20.1721  -18.3338 N   0  0  0  0  0  0  0  0  0  0  0  0
   21.2140  -20.1467  -11.9084 C   0  0  0  0  0  0  0  0  0  0  0  0
   21.2311  -21.3285  -11.1112 O   0  0  0  0  0  0  0  0  0  0  0  0
   20.2697  -19.3313  -11.6708 O   0  0  0  0  0  0  0  0  0  0  0  0
  2  1  1  6
  2  8  1  0
  2  3  1  0
  3  4  1  0
  4  5  1  0
  5  6  1  0
  6  7  1  0
  8 15  1  0
  9  8  2  0
 10 11  1  0
 11 12  1  0
 14 13  1  1
 13 12  1  0
 15 14  1  0
 16 14  1  0
 16 17  2  0
 18 16  1  0
 19 18  1  0
 19 25  1  0
 19 20  1  6
 21 20  1  0
 21 22  1  0
 23 24  1  0
 23 22  1  0
 25 26  1  0
 27 25  2  0
M  END
$$$$
