PDF.pdb
     RDKit          3D

 27 28  0  0  1  0  0  0  0  0999 V2000
   27.5663  -19.8298  -15.5029 N   0  0  0  0  0  0  0  0  0  0  0  0
   27.2163  -19.0188  -16.6284 C   0  0  0  0  0  0  0  0  0  0  0  0
   28.1048  -17.8045  -16.4740 C   0  0  0  0  0  0  0  0  0  0  0  0
   27.9947  -17.5615  -14.9627 C   0  0  0  0  0  0  0  0  0  0  0  0
   27.9433  -18.9596  -14.4380 C   0  0  1  0  0  0  0  0  0  0  0  0
   27.1069  -19.1532  -13.2630 C   0  0  0  0  0  0  0  0  0  0  0  0
   27.2690  -18.3882  -12.2770 O   0  0  0  0  0  0  0  0  0  0  0  0
   26.1058  -20.1474  -13.1286 N   0  0  0  0  0  0  0  0  0  0  0  0
   25.2031  -20.2794  -12.0279 C   0  0  1  0  0  0  0  0  0  0  0  0
   23.9366  -21.0101  -12.3535 C   0  0  0  0  0  0  0  0  0  0  0  0
   22.8607  -20.1493  -12.8429 C   0  0  0  0  0  0  0  0  0  0  0  0
   21.6845  -20.5288  -13.0741 O   0  0  0  0  0  0  0  0  0  0  0  0
   25.8748  -20.9905  -10.8961 C   0  0  0  0  0  0  0  0  0  0  0  0
   26.4067  -22.1121  -11.0797 O   0  0  0  0  0  0  0  0  0  0  0  0
   23.1447  -18.8104  -13.0741 O   0  0  0  0  0  0  0  0  0  0  0  0
   25.9343  -20.4300   -9.5912 N   0  0  0  0  0  0  0  0  0  0  0  0
   26.4137  -21.1762   -8.4302 C   0  0  1  0  0  0  0  0  0  0  0  0
   27.8669  -20.9361   -8.1879 C   0  0  0  0  0  0  0  0  0  0  0  0
   28.0992  -20.2893   -6.8802 C   0  0  0  0  0  0  0  0  0  0  0  0
   27.6566  -18.9939   -6.6145 C   0  0  0  0  0  0  0  0  0  0  0  0
   27.8487  -18.3924   -5.4033 C   0  0  0  0  0  0  0  0  0  0  0  0
   28.4967  -19.0425   -4.3710 C   0  0  0  0  0  0  0  0  0  0  0  0
   28.9352  -20.3137   -4.6200 C   0  0  0  0  0  0  0  0  0  0  0  0
   28.7509  -20.9318   -5.8293 C   0  0  0  0  0  0  0  0  0  0  0  0
   25.5746  -20.9177   -7.2468 C   0  0  0  0  0  0  0  0  0  0  0  0
   25.7211  -21.6556   -6.2384 O   0  0  0  0  0  0  0  0  0  0  0  0
   24.6339  -19.9141   -7.1671 O   0  0  0  0  0  0  0  0  0  0  0  0
  1  2  1  0
  3  2  1  0
  4  3  1  0
  5  4  1  0
  5  1  1  0
  5  6  1  1
  7  6  2  0
  8  6  1  0
  9  8  1  0
  9 10  1  6
 11 10  1  0
 12 11  2  0
 13  9  1  0
 13 14  2  0
 15 11  1  0
 16 17  1  0
 16 13  1  0
 17 18  1  1
 19 18  1  0
 19 20  2  0
 20 21  1  0
 22 21  2  0
 23 24  2  0
 23 22  1  0
 24 19  1  0
 25 17  1  0
 26 25  2  0
 27 25  1  0
M  END
$$$$
