PDF.pdb
     RDKit          3D

 27 28  0  0  1  0  0  0  0  0999 V2000
   16.9546  -14.1912    4.1217 N   0  0  0  0  0  0  0  0  0  0  0  0
   15.8330  -13.9394    3.2698 C   0  0  0  0  0  0  0  0  0  0  0  0
   14.8776  -13.1817    4.1647 C   0  0  0  0  0  0  0  0  0  0  0  0
   15.0148  -13.9800    5.4682 C   0  0  0  0  0  0  0  0  0  0  0  0
   16.4684  -14.3260    5.4554 C   0  0  1  0  0  0  0  0  0  0  0  0
   16.8045  -15.6233    6.0223 C   0  0  0  0  0  0  0  0  0  0  0  0
   16.5655  -15.8271    7.2409 O   0  0  0  0  0  0  0  0  0  0  0  0
   17.3891  -16.6992    5.3086 N   0  0  0  0  0  0  0  0  0  0  0  0
   17.7034  -17.9855    5.8476 C   0  0  1  0  0  0  0  0  0  0  0  0
   17.5220  -19.1185    4.8847 C   0  0  0  0  0  0  0  0  0  0  0  0
   16.1954  -19.1739    4.2722 C   0  0  0  0  0  0  0  0  0  0  0  0
   15.1092  -19.1401    4.9043 O   0  0  0  0  0  0  0  0  0  0  0  0
   19.1184  -18.0066    6.3326 C   0  0  0  0  0  0  0  0  0  0  0  0
   20.0654  -17.8221    5.5302 O   0  0  0  0  0  0  0  0  0  0  0  0
   16.1140  -19.2711    2.8898 O   0  0  0  0  0  0  0  0  0  0  0  0
   19.4370  -18.2328    7.6992 N   0  0  0  0  0  0  0  0  0  0  0  0
   20.7939  -18.1098    8.2266 C   0  0  1  0  0  0  0  0  0  0  0  0
   21.0057  -16.7887    8.8883 C   0  0  0  0  0  0  0  0  0  0  0  0
   22.3603  -16.6832    9.4680 C   0  0  0  0  0  0  0  0  0  0  0  0
   22.5771  -16.7623   10.8433 C   0  0  0  0  0  0  0  0  0  0  0  0
   23.8266  -16.6852   11.3895 C   0  0  0  0  0  0  0  0  0  0  0  0
   24.9489  -16.5236   10.6005 C   0  0  0  0  0  0  0  0  0  0  0  0
   24.7485  -16.4448    9.2500 C   0  0  0  0  0  0  0  0  0  0  0  0
   23.5019  -16.5203    8.6856 C   0  0  0  0  0  0  0  0  0  0  0  0
   21.1368  -19.2551    9.0880 C   0  0  0  0  0  0  0  0  0  0  0  0
   20.2948  -19.6314    9.9438 O   0  0  0  0  0  0  0  0  0  0  0  0
   22.3249  -19.9494    9.0192 O   0  0  0  0  0  0  0  0  0  0  0  0
  1  2  1  0
  3  2  1  0
  4  3  1  0
  5  4  1  0
  5  1  1  0
  5  6  1  6
  7  6  2  0
  8  6  1  0
  9  8  1  0
  9 10  1  6
 11 10  1  0
 12 11  2  0
 13  9  1  0
 13 14  2  0
 15 11  1  0
 16 17  1  0
 16 13  1  0
 17 18  1  1
 19 18  1  0
 19 20  2  0
 20 21  1  0
 22 21  2  0
 23 24  2  0
 23 22  1  0
 24 19  1  0
 25 17  1  0
 26 25  2  0
 27 25  1  0
M  END
$$$$
