PDF.pdb
     RDKit          3D

 27 28  0  0  1  0  0  0  0  0999 V2000
   20.4997  -22.9497  -13.2190 N   0  0  0  0  0  0  0  0  0  0  0  0
   20.7816  -23.2151  -14.5963 C   0  0  0  0  0  0  0  0  0  0  0  0
   19.8017  -22.3274  -15.3310 C   0  0  0  0  0  0  0  0  0  0  0  0
   18.5383  -22.5371  -14.4853 C   0  0  0  0  0  0  0  0  0  0  0  0
   19.1127  -22.6371  -13.1095 C   0  0  1  0  0  0  0  0  0  0  0  0
   18.4238  -23.5528  -12.2124 C   0  0  0  0  0  0  0  0  0  0  0  0
   17.2964  -23.2201  -11.7633 O   0  0  0  0  0  0  0  0  0  0  0  0
   18.9209  -24.8116  -11.7917 N   0  0  0  0  0  0  0  0  0  0  0  0
   18.2763  -25.6995  -10.8752 C   0  0  1  0  0  0  0  0  0  0  0  0
   18.3385  -27.1435  -11.2688 C   0  0  0  0  0  0  0  0  0  0  0  0
   17.6287  -28.0408  -10.3581 C   0  0  0  0  0  0  0  0  0  0  0  0
   16.5656  -27.7557   -9.7506 O   0  0  0  0  0  0  0  0  0  0  0  0
   18.8813  -25.5598   -9.5142 C   0  0  0  0  0  0  0  0  0  0  0  0
   20.1280  -25.5697   -9.3717 O   0  0  0  0  0  0  0  0  0  0  0  0
   18.1570  -29.3055  -10.1383 O   0  0  0  0  0  0  0  0  0  0  0  0
   18.0784  -25.4129   -8.3506 N   0  0  0  0  0  0  0  0  0  0  0  0
   18.6443  -25.2265   -7.0166 C   0  0  1  0  0  0  0  0  0  0  0  0
   18.5978  -23.7944   -6.5982 C   0  0  0  0  0  0  0  0  0  0  0  0
   17.2080  -23.3061   -6.4886 C   0  0  0  0  0  0  0  0  0  0  0  0
   16.4866  -23.4091   -5.2997 C   0  0  0  0  0  0  0  0  0  0  0  0
   15.2079  -22.9441   -5.1806 C   0  0  0  0  0  0  0  0  0  0  0  0
   14.5585  -22.3428   -6.2413 C   0  0  0  0  0  0  0  0  0  0  0  0
   15.2562  -22.2362   -7.4126 C   0  0  0  0  0  0  0  0  0  0  0  0
   16.5396  -22.6973   -7.5491 C   0  0  0  0  0  0  0  0  0  0  0  0
   18.0222  -26.1395   -6.0414 C   0  0  0  0  0  0  0  0  0  0  0  0
   16.9709  -26.7440   -6.3761 O   0  0  0  0  0  0  0  0  0  0  0  0
   18.5176  -26.3803   -4.7784 O   0  0  0  0  0  0  0  0  0  0  0  0
  1  2  1  0
  3  2  1  0
  4  3  1  0
  5  4  1  0
  5  1  1  0
  5  6  1  1
  7  6  2  0
  8  6  1  0
  9  8  1  0
  9 10  1  6
 11 10  1  0
 12 11  2  0
 13  9  1  0
 13 14  2  0
 15 11  1  0
 16 17  1  0
 16 13  1  0
 17 18  1  1
 19 18  1  0
 19 20  2  0
 20 21  1  0
 22 21  2  0
 23 24  2  0
 23 22  1  0
 24 19  1  0
 25 17  1  0
 26 25  2  0
 27 25  1  0
M  END
$$$$
