PDF.pdb
     RDKit          3D

 27 28  0  0  1  0  0  0  0  0999 V2000
   16.2802  -10.2934  -16.5813 N   0  0  0  0  0  0  0  0  0  0  0  0
   14.9337  -10.3035  -17.0648 C   0  0  0  0  0  0  0  0  0  0  0  0
   15.0900  -10.6588  -18.5268 C   0  0  0  0  0  0  0  0  0  0  0  0
   16.3059   -9.7999  -18.9000 C   0  0  0  0  0  0  0  0  0  0  0  0
   17.1265   -9.8859  -17.6542 C   0  0  1  0  0  0  0  0  0  0  0  0
   17.8789   -8.6859  -17.3203 C   0  0  0  0  0  0  0  0  0  0  0  0
   18.8216   -8.3373  -18.0775 O   0  0  0  0  0  0  0  0  0  0  0  0
   17.6386   -7.8587  -16.1948 N   0  0  0  0  0  0  0  0  0  0  0  0
   18.3646   -6.6735  -15.8600 C   0  0  1  0  0  0  0  0  0  0  0  0
   17.6569   -5.7678  -14.8994 C   0  0  0  0  0  0  0  0  0  0  0  0
   16.3631   -5.2840  -15.3791 C   0  0  0  0  0  0  0  0  0  0  0  0
   16.1170   -4.9420  -16.5637 O   0  0  0  0  0  0  0  0  0  0  0  0
   19.6915   -7.0341  -15.2708 C   0  0  0  0  0  0  0  0  0  0  0  0
   19.7582   -7.8207  -14.2953 O   0  0  0  0  0  0  0  0  0  0  0  0
   15.3189   -5.1900  -14.4693 O   0  0  0  0  0  0  0  0  0  0  0  0
   20.9066   -6.5071  -15.7866 N   0  0  0  0  0  0  0  0  0  0  0  0
   22.2193   -6.9095  -15.2870 C   0  0  1  0  0  0  0  0  0  0  0  0
   22.8253   -7.9752  -16.1386 C   0  0  0  0  0  0  0  0  0  0  0  0
   24.1253   -8.4256  -15.6007 C   0  0  0  0  0  0  0  0  0  0  0  0
   25.3322   -8.0457  -16.1868 C   0  0  0  0  0  0  0  0  0  0  0  0
   26.5407   -8.4402  -15.6874 C   0  0  0  0  0  0  0  0  0  0  0  0
   26.6296   -9.2426  -14.5664 C   0  0  0  0  0  0  0  0  0  0  0  0
   25.4522   -9.6215  -13.9830 C   0  0  0  0  0  0  0  0  0  0  0  0
   24.2313   -9.2348  -14.4710 C   0  0  0  0  0  0  0  0  0  0  0  0
   23.0989   -5.7422  -15.0995 C   0  0  0  0  0  0  0  0  0  0  0  0
   22.9588   -4.7590  -15.8718 O   0  0  0  0  0  0  0  0  0  0  0  0
   24.0712   -5.6516  -14.1274 O   0  0  0  0  0  0  0  0  0  0  0  0
  1  2  1  0
  3  2  1  0
  4  3  1  0
  5  4  1  0
  5  1  1  0
  5  6  1  1
  7  6  2  0
  8  6  1  0
  9  8  1  0
  9 10  1  1
 11 10  1  0
 12 11  2  0
 13  9  1  0
 13 14  2  0
 15 11  1  0
 16 17  1  0
 16 13  1  0
 17 18  1  6
 19 18  1  0
 19 20  2  0
 20 21  1  0
 22 21  2  0
 23 24  2  0
 23 22  1  0
 24 19  1  0
 25 17  1  0
 26 25  2  0
 27 25  1  0
M  END
$$$$
