PDF.pdb
     RDKit          3D

 27 28  0  0  1  0  0  0  0  0999 V2000
   27.7403  -19.5376  -16.7903 N   0  0  0  0  0  0  0  0  0  0  0  0
   27.7859  -18.6798  -17.9344 C   0  0  0  0  0  0  0  0  0  0  0  0
   28.8932  -17.7060  -17.5973 C   0  0  0  0  0  0  0  0  0  0  0  0
   28.5867  -17.4270  -16.1196 C   0  0  0  0  0  0  0  0  0  0  0  0
   28.1225  -18.7682  -15.6521 C   0  0  1  0  0  0  0  0  0  0  0  0
   27.0763  -18.7471  -14.6408 C   0  0  0  0  0  0  0  0  0  0  0  0
   27.3073  -18.1656  -13.5489 O   0  0  0  0  0  0  0  0  0  0  0  0
   25.7945  -19.3355  -14.7801 N   0  0  0  0  0  0  0  0  0  0  0  0
   24.7687  -19.3469  -13.7843 C   0  0  1  0  0  0  0  0  0  0  0  0
   23.3839  -19.5220  -14.3278 C   0  0  0  0  0  0  0  0  0  0  0  0
   22.3369  -19.5101  -13.3071 C   0  0  0  0  0  0  0  0  0  0  0  0
   22.0566  -18.5268  -12.5755 O   0  0  0  0  0  0  0  0  0  0  0  0
   25.0248  -20.4411  -12.7968 C   0  0  0  0  0  0  0  0  0  0  0  0
   24.9709  -21.6425  -13.1551 O   0  0  0  0  0  0  0  0  0  0  0  0
   21.5882  -20.6641  -13.1210 O   0  0  0  0  0  0  0  0  0  0  0  0
   25.3338  -20.1639  -11.4374 N   0  0  0  0  0  0  0  0  0  0  0  0
   25.4922  -21.2121  -10.4319 C   0  0  1  0  0  0  0  0  0  0  0  0
   26.8782  -21.2337   -9.8783 C   0  0  0  0  0  0  0  0  0  0  0  0
   26.9923  -20.3936   -8.6685 C   0  0  0  0  0  0  0  0  0  0  0  0
   26.2855  -20.6875   -7.5029 C   0  0  0  0  0  0  0  0  0  0  0  0
   26.3975  -19.9294   -6.3723 C   0  0  0  0  0  0  0  0  0  0  0  0
   27.2237  -18.8233   -6.3256 C   0  0  0  0  0  0  0  0  0  0  0  0
   27.9220  -18.5253   -7.4630 C   0  0  0  0  0  0  0  0  0  0  0  0
   27.8214  -19.2752   -8.6058 C   0  0  0  0  0  0  0  0  0  0  0  0
   24.4508  -21.1163   -9.3938 C   0  0  0  0  0  0  0  0  0  0  0  0
   23.7318  -20.0844   -9.3629 O   0  0  0  0  0  0  0  0  0  0  0  0
   24.2069  -22.0879   -8.4476 O   0  0  0  0  0  0  0  0  0  0  0  0
  1  2  1  0
  3  2  1  0
  4  3  1  0
  5  4  1  0
  5  1  1  0
  5  6  1  1
  7  6  2  0
  8  6  1  0
  9  8  1  0
  9 10  1  6
 11 10  1  0
 12 11  2  0
 13  9  1  0
 13 14  2  0
 15 11  1  0
 16 17  1  0
 16 13  1  0
 17 18  1  1
 19 18  1  0
 19 20  2  0
 20 21  1  0
 22 21  2  0
 23 24  2  0
 23 22  1  0
 24 19  1  0
 25 17  1  0
 26 25  2  0
 27 25  1  0
M  END
$$$$
