PDF.pdb
     RDKit          3D

 27 28  0  0  1  0  0  0  0  0999 V2000
   24.0807  -12.7178  -18.8528 N   0  0  0  0  0  0  0  0  0  0  0  0
   24.7160  -13.4719  -17.8162 C   0  0  0  0  0  0  0  0  0  0  0  0
   23.5538  -13.9886  -16.9974 C   0  0  0  0  0  0  0  0  0  0  0  0
   22.6586  -12.7428  -16.9560 C   0  0  0  0  0  0  0  0  0  0  0  0
   22.8747  -12.1738  -18.3207 C   0  0  1  0  0  0  0  0  0  0  0  0
   22.8593  -10.7207  -18.3989 C   0  0  0  0  0  0  0  0  0  0  0  0
   23.9076  -10.0915  -18.1011 O   0  0  0  0  0  0  0  0  0  0  0  0
   21.7452   -9.9362  -18.7888 N   0  0  0  0  0  0  0  0  0  0  0  0
   21.7194   -8.5096  -18.8780 C   0  0  1  0  0  0  0  0  0  0  0  0
   20.7610   -7.9728  -19.8965 C   0  0  0  0  0  0  0  0  0  0  0  0
   20.8396   -6.5249  -20.0843 C   0  0  0  0  0  0  0  0  0  0  0  0
   19.8501   -5.7646  -20.2380 O   0  0  0  0  0  0  0  0  0  0  0  0
   21.3682   -7.9189  -17.5493 C   0  0  0  0  0  0  0  0  0  0  0  0
   20.5264   -8.4824  -16.8086 O   0  0  0  0  0  0  0  0  0  0  0  0
   22.0944   -5.9314  -20.0958 O   0  0  0  0  0  0  0  0  0  0  0  0
   21.9661   -6.7162  -17.0842 N   0  0  0  0  0  0  0  0  0  0  0  0
   21.6838   -6.1494  -15.7675 C   0  0  1  0  0  0  0  0  0  0  0  0
   22.8644   -6.2586  -14.8607 C   0  0  0  0  0  0  0  0  0  0  0  0
   23.1640   -7.6661  -14.5273 C   0  0  0  0  0  0  0  0  0  0  0  0
   24.2656   -8.3287  -15.0676 C   0  0  0  0  0  0  0  0  0  0  0  0
   24.5637   -9.6237  -14.7522 C   0  0  0  0  0  0  0  0  0  0  0  0
   23.7822  -10.3494  -13.8741 C   0  0  0  0  0  0  0  0  0  0  0  0
   22.6990   -9.7098  -13.3378 C   0  0  0  0  0  0  0  0  0  0  0  0
   22.3856   -8.4111  -13.6434 C   0  0  0  0  0  0  0  0  0  0  0  0
   21.1594   -4.7769  -15.8795 C   0  0  0  0  0  0  0  0  0  0  0  0
   20.8202   -4.1796  -14.8254 O   0  0  0  0  0  0  0  0  0  0  0  0
   21.0153   -4.0959  -17.0687 O   0  0  0  0  0  0  0  0  0  0  0  0
  1  2  1  0
  3  2  1  0
  4  3  1  0
  5  4  1  0
  5  1  1  0
  5  6  1  1
  7  6  2  0
  8  6  1  0
  9  8  1  0
  9 10  1  6
 11 10  1  0
 12 11  2  0
 13  9  1  0
 13 14  2  0
 15 11  1  0
 16 17  1  0
 16 13  1  0
 17 18  1  1
 19 18  1  0
 19 20  2  0
 20 21  1  0
 22 21  2  0
 23 24  2  0
 23 22  1  0
 24 19  1  0
 25 17  1  0
 26 25  2  0
 27 25  1  0
M  END
$$$$
