PDF.pdb
     RDKit          3D

 27 28  0  0  1  0  0  0  0  0999 V2000
   20.2014  -12.4707  -16.5421 N   0  0  0  0  0  0  0  0  0  0  0  0
   19.7837  -13.4041  -17.5427 C   0  0  0  0  0  0  0  0  0  0  0  0
   21.0790  -13.7940  -18.2196 C   0  0  0  0  0  0  0  0  0  0  0  0
   21.7709  -12.4276  -18.3185 C   0  0  0  0  0  0  0  0  0  0  0  0
   21.3506  -11.7861  -17.0361 C   0  0  1  0  0  0  0  0  0  0  0  0
   21.1342  -10.3485  -17.1008 C   0  0  0  0  0  0  0  0  0  0  0  0
   22.1245   -9.6002  -17.3075 O   0  0  0  0  0  0  0  0  0  0  0  0
   19.8811   -9.7042  -16.9485 N   0  0  0  0  0  0  0  0  0  0  0  0
   19.6471   -8.2980  -17.0570 C   0  0  1  0  0  0  0  0  0  0  0  0
   18.2394   -7.9332  -17.4167 C   0  0  0  0  0  0  0  0  0  0  0  0
   17.8260   -8.3886  -18.7433 C   0  0  0  0  0  0  0  0  0  0  0  0
   18.5081   -8.2632  -19.7920 O   0  0  0  0  0  0  0  0  0  0  0  0
   19.9905   -7.6200  -15.7685 C   0  0  0  0  0  0  0  0  0  0  0  0
   19.3643   -7.9020  -14.7182 O   0  0  0  0  0  0  0  0  0  0  0  0
   16.5899   -9.0076  -18.8693 O   0  0  0  0  0  0  0  0  0  0  0  0
   21.0231   -6.6466  -15.6880 N   0  0  0  0  0  0  0  0  0  0  0  0
   21.3275   -5.9150  -14.4604 C   0  0  1  0  0  0  0  0  0  0  0  0
   22.0735   -6.7663  -13.4873 C   0  0  0  0  0  0  0  0  0  0  0  0
   23.1847   -7.4891  -14.1392 C   0  0  0  0  0  0  0  0  0  0  0  0
   23.4821   -8.8144  -13.8236 C   0  0  0  0  0  0  0  0  0  0  0  0
   24.4947   -9.4989  -14.4331 C   0  0  0  0  0  0  0  0  0  0  0  0
   25.2826   -8.9080  -15.4019 C   0  0  0  0  0  0  0  0  0  0  0  0
   25.0001   -7.6083  -15.7198 C   0  0  0  0  0  0  0  0  0  0  0  0
   23.9880   -6.9070  -15.1180 C   0  0  0  0  0  0  0  0  0  0  0  0
   22.0014   -4.6379  -14.7543 C   0  0  0  0  0  0  0  0  0  0  0  0
   22.2351   -3.8528  -13.7994 O   0  0  0  0  0  0  0  0  0  0  0  0
   22.3981   -4.2417  -16.0129 O   0  0  0  0  0  0  0  0  0  0  0  0
  1  2  1  0
  3  2  1  0
  4  3  1  0
  5  4  1  0
  5  1  1  0
  5  6  1  6
  7  6  2  0
  8  6  1  0
  9  8  1  0
  9 10  1  1
 11 10  1  0
 12 11  2  0
 13  9  1  0
 13 14  2  0
 15 11  1  0
 16 17  1  0
 16 13  1  0
 17 18  1  1
 19 18  1  0
 19 20  2  0
 20 21  1  0
 22 21  2  0
 23 24  2  0
 23 22  1  0
 24 19  1  0
 25 17  1  0
 26 25  2  0
 27 25  1  0
M  END
$$$$
