PDF.pdb
     RDKit          3D

 27 28  0  0  1  0  0  0  0  0999 V2000
   20.7797  -13.8248  -17.2311 N   0  0  0  0  0  0  0  0  0  0  0  0
   20.3344  -15.0362  -17.8484 C   0  0  0  0  0  0  0  0  0  0  0  0
   20.7064  -14.8450  -19.3020 C   0  0  0  0  0  0  0  0  0  0  0  0
   20.2991  -13.3800  -19.5097 C   0  0  0  0  0  0  0  0  0  0  0  0
   20.6672  -12.7778  -18.1926 C   0  0  1  0  0  0  0  0  0  0  0  0
   19.7909  -11.7127  -17.7285 C   0  0  0  0  0  0  0  0  0  0  0  0
   19.7606  -10.6341  -18.3760 O   0  0  0  0  0  0  0  0  0  0  0  0
   18.9518  -11.7847  -16.5886 N   0  0  0  0  0  0  0  0  0  0  0  0
   18.0498  -10.7657  -16.1505 C   0  0  1  0  0  0  0  0  0  0  0  0
   16.9758  -11.2492  -15.2250 C   0  0  0  0  0  0  0  0  0  0  0  0
   16.0614  -12.2183  -15.8274 C   0  0  0  0  0  0  0  0  0  0  0  0
   15.7222  -12.2313  -17.0380 O   0  0  0  0  0  0  0  0  0  0  0  0
   18.8051   -9.6745  -15.4600 C   0  0  0  0  0  0  0  0  0  0  0  0
   19.5549   -9.9398  -14.4894 O   0  0  0  0  0  0  0  0  0  0  0  0
   15.5195  -13.2036  -15.0135 O   0  0  0  0  0  0  0  0  0  0  0  0
   18.7026   -8.3180  -15.8720 N   0  0  0  0  0  0  0  0  0  0  0  0
   19.3971   -7.2287  -15.1895 C   0  0  1  0  0  0  0  0  0  0  0  0
   20.5495   -6.7259  -15.9941 C   0  0  0  0  0  0  0  0  0  0  0  0
   21.1260   -5.4987  -15.4080 C   0  0  0  0  0  0  0  0  0  0  0  0
   21.9644   -5.5423  -14.2945 C   0  0  0  0  0  0  0  0  0  0  0  0
   22.5187   -4.4164  -13.7553 C   0  0  0  0  0  0  0  0  0  0  0  0
   22.2748   -3.1664  -14.2903 C   0  0  0  0  0  0  0  0  0  0  0  0
   21.4540   -3.1113  -15.3827 C   0  0  0  0  0  0  0  0  0  0  0  0
   20.8897   -4.2309  -15.9361 C   0  0  0  0  0  0  0  0  0  0  0  0
   18.4580   -6.1663  -14.7886 C   0  0  0  0  0  0  0  0  0  0  0  0
   18.6970   -5.5257  -13.7325 O   0  0  0  0  0  0  0  0  0  0  0  0
   17.3278   -5.8217  -15.4974 O   0  0  0  0  0  0  0  0  0  0  0  0
  1  2  1  0
  3  2  1  0
  4  3  1  0
  5  4  1  0
  5  1  1  0
  5  6  1  1
  7  6  2  0
  8  6  1  0
  9  8  1  0
  9 10  1  1
 11 10  1  0
 12 11  2  0
 13  9  1  0
 13 14  2  0
 15 11  1  0
 16 17  1  0
 16 13  1  0
 17 18  1  6
 19 18  1  0
 19 20  2  0
 20 21  1  0
 22 21  2  0
 23 24  2  0
 23 22  1  0
 24 19  1  0
 25 17  1  0
 26 25  2  0
 27 25  1  0
M  END
$$$$
