HLQ.pdb
     RDKit          3D

 28 28  0  0  1  0  0  0  0  0999 V2000
   25.9636  -19.8051  -16.9886 N   0  0  0  0  0  0  0  0  0  0  0  0
   25.1074  -18.9086  -16.2510 C   0  0  1  0  0  0  0  0  0  0  0  0
   24.0975  -18.2265  -17.1483 C   0  0  0  0  0  0  0  0  0  0  0  0
   24.8196  -17.2613  -18.0016 C   0  0  0  0  0  0  0  0  0  0  0  0
   25.1104  -17.4469  -19.3346 C   0  0  0  0  0  0  0  0  0  0  0  0
   25.7663  -16.3452  -19.7223 N   0  0  0  0  0  0  0  0  0  0  0  0
   25.8726  -15.5181  -18.6676 C   0  0  0  0  0  0  0  0  0  0  0  0
   25.2811  -16.0818  -17.5777 N   0  0  0  0  0  0  0  0  0  0  0  0
   24.3134  -19.7460  -15.2905 C   0  0  0  0  0  0  0  0  0  0  0  0
   23.6102  -20.7325  -15.6928 O   0  0  0  0  0  0  0  0  0  0  0  0
   26.1012  -20.6953  -10.1007 C   0  0  0  0  0  0  0  0  0  0  0  0
   25.5161  -20.7921  -11.4624 C   0  0  1  0  0  0  0  0  0  0  0  0
   25.6972  -22.1734  -12.0766 C   0  0  0  0  0  0  0  0  0  0  0  0
   24.0880  -20.3638  -11.6078 C   0  0  0  0  0  0  0  0  0  0  0  0
   23.5858  -20.3410  -13.0034 C   0  0  2  0  0  0  0  0  0  0  0  0
   24.3049  -19.4865  -13.9045 N   0  0  0  0  0  0  0  0  0  0  0  0
   22.1195  -20.0072  -13.0657 C   0  0  0  0  0  0  0  0  0  0  0  0
   21.6939  -18.8434  -12.9748 O   0  0  0  0  0  0  0  0  0  0  0  0
   17.8457  -23.5268  -16.1063 N   0  0  0  0  0  0  0  0  0  0  0  0
   17.0635  -22.5207  -15.4937 C   0  0  0  0  0  0  0  0  0  0  0  0
   15.8522  -22.4508  -15.7797 O   0  0  0  0  0  0  0  0  0  0  0  0
   17.6701  -21.5928  -14.5525 C   0  0  0  0  0  0  0  0  0  0  0  0
   19.1273  -21.7564  -14.3136 C   0  0  0  0  0  0  0  0  0  0  0  0
   19.7408  -20.7829  -13.3549 C   0  0  2  0  0  0  0  0  0  0  0  0
   21.1819  -21.0539  -13.2341 N   0  0  0  0  0  0  0  0  0  0  0  0
   19.1769  -20.8570  -11.9902 C   0  0  0  0  0  0  0  0  0  0  0  0
   18.1170  -20.0747  -11.5589 O   0  0  0  0  0  0  0  0  0  0  0  0
   19.6673  -21.6604  -11.1663 O   0  0  0  0  0  0  0  0  0  0  0  0
  2  1  1  6
  3  4  1  0
  3  2  1  0
  4  5  2  0
  6  5  1  0
  7  6  1  0
  8  7  2  0
  8  4  1  0
  9  2  1  0
  9 16  1  0
 10  9  2  0
 12 11  1  1
 12 14  1  0
 13 12  1  0
 15 16  1  0
 15 14  1  1
 17 15  1  0
 18 17  2  0
 19 20  1  0
 20 21  2  0
 20 22  1  0
 22 23  1  0
 24 23  1  6
 24 26  1  0
 24 25  1  0
 25 17  1  0
 26 27  1  0
 28 26  2  0
M  END
$$$$
