HLQ.pdb
     RDKit          3D

 28 28  0  0  1  0  0  0  0  0999 V2000
   19.6766  -13.8736  -17.2782 N   0  0  0  0  0  0  0  0  0  0  0  0
   20.5233  -13.1332  -18.1815 C   0  0  1  0  0  0  0  0  0  0  0  0
   19.7192  -12.2643  -19.1243 C   0  0  0  0  0  0  0  0  0  0  0  0
   18.9878  -13.1494  -20.0531 C   0  0  0  0  0  0  0  0  0  0  0  0
   17.7381  -13.6794  -19.8217 C   0  0  0  0  0  0  0  0  0  0  0  0
   17.4476  -14.4155  -20.9024 N   0  0  0  0  0  0  0  0  0  0  0  0
   18.4792  -14.3388  -21.7613 C   0  0  0  0  0  0  0  0  0  0  0  0
   19.4558  -13.5452  -21.2397 N   0  0  0  0  0  0  0  0  0  0  0  0
   21.3451  -12.1938  -17.3470 C   0  0  0  0  0  0  0  0  0  0  0  0
   20.8843  -11.6840  -16.2712 O   0  0  0  0  0  0  0  0  0  0  0  0
   25.9697   -9.1074  -16.2796 C   0  0  0  0  0  0  0  0  0  0  0  0
   25.7205  -10.5126  -15.8681 C   0  0  1  0  0  0  0  0  0  0  0  0
   25.1409  -10.6136  -14.4640 C   0  0  0  0  0  0  0  0  0  0  0  0
   24.9057  -11.3488  -16.8065 C   0  0  0  0  0  0  0  0  0  0  0  0
   23.4598  -11.0186  -16.8361 C   0  0  2  0  0  0  0  0  0  0  0  0
   22.6588  -11.8299  -17.7076 N   0  0  0  0  0  0  0  0  0  0  0  0
   23.2233   -9.5662  -17.1527 C   0  0  0  0  0  0  0  0  0  0  0  0
   23.6042   -9.0420  -18.2128 O   0  0  0  0  0  0  0  0  0  0  0  0
   18.0829   -7.0193  -17.8342 N   0  0  0  0  0  0  0  0  0  0  0  0
   18.8143   -5.8414  -17.5567 C   0  0  0  0  0  0  0  0  0  0  0  0
   18.2486   -4.7403  -17.7030 O   0  0  0  0  0  0  0  0  0  0  0  0
   20.1962   -5.9252  -17.1114 C   0  0  0  0  0  0  0  0  0  0  0  0
   20.7436   -7.2928  -16.9181 C   0  0  0  0  0  0  0  0  0  0  0  0
   22.1833   -7.3637  -16.5117 C   0  0  2  0  0  0  0  0  0  0  0  0
   22.5411   -8.7589  -16.2115 N   0  0  0  0  0  0  0  0  0  0  0  0
   22.4996   -6.5728  -15.3033 C   0  0  0  0  0  0  0  0  0  0  0  0
   22.8212   -5.2248  -15.3360 O   0  0  0  0  0  0  0  0  0  0  0  0
   22.4819   -7.1296  -14.1833 O   0  0  0  0  0  0  0  0  0  0  0  0
  2  1  1  1
  3  4  1  0
  3  2  1  0
  4  5  2  0
  6  5  1  0
  7  6  1  0
  8  7  2  0
  8  4  1  0
  9  2  1  0
  9 16  1  0
 10  9  2  0
 12 11  1  6
 12 14  1  0
 13 12  1  0
 15 16  1  0
 15 14  1  6
 17 15  1  0
 18 17  2  0
 19 20  1  0
 20 21  2  0
 20 22  1  0
 22 23  1  0
 24 23  1  1
 24 26  1  0
 24 25  1  0
 25 17  1  0
 26 27  1  0
 28 26  2  0
M  END
$$$$
