HLQ.pdb
     RDKit          3D

 28 28  0  0  1  0  0  0  0  0999 V2000
   28.0272  -20.4269  -17.2127 N   0  0  0  0  0  0  0  0  0  0  0  0
   27.4821  -19.3782  -16.3856 C   0  0  1  0  0  0  0  0  0  0  0  0
   26.6183  -18.4234  -17.1810 C   0  0  0  0  0  0  0  0  0  0  0  0
   27.5083  -17.5447  -17.9663 C   0  0  0  0  0  0  0  0  0  0  0  0
   28.0058  -17.8365  -19.2166 C   0  0  0  0  0  0  0  0  0  0  0  0
   28.7599  -16.7855  -19.5643 N   0  0  0  0  0  0  0  0  0  0  0  0
   28.7251  -15.8859  -18.5656 C   0  0  0  0  0  0  0  0  0  0  0  0
   27.9411  -16.3505  -17.5532 N   0  0  0  0  0  0  0  0  0  0  0  0
   26.5712  -20.0315  -15.3868 C   0  0  0  0  0  0  0  0  0  0  0  0
   25.6635  -20.8515  -15.7518 O   0  0  0  0  0  0  0  0  0  0  0  0
   24.8761  -22.2713  -10.8046 C   0  0  0  0  0  0  0  0  0  0  0  0
   25.1128  -20.8095  -10.6895 C   0  0  1  0  0  0  0  0  0  0  0  0
   25.4594  -20.3863   -9.2687 C   0  0  0  0  0  0  0  0  0  0  0  0
   26.1037  -20.2163  -11.6435 C   0  0  0  0  0  0  0  0  0  0  0  0
   25.7600  -20.3804  -13.0772 C   0  0  2  0  0  0  0  0  0  0  0  0
   26.6720  -19.7736  -14.0042 N   0  0  0  0  0  0  0  0  0  0  0  0
   24.3618  -19.9096  -13.3755 C   0  0  0  0  0  0  0  0  0  0  0  0
   24.0540  -18.7063  -13.4090 O   0  0  0  0  0  0  0  0  0  0  0  0
   21.0030  -19.3934  -17.5931 N   0  0  0  0  0  0  0  0  0  0  0  0
   19.9095  -19.8784  -16.8390 C   0  0  0  0  0  0  0  0  0  0  0  0
   18.7545  -19.6347  -17.2397 O   0  0  0  0  0  0  0  0  0  0  0  0
   20.1396  -20.6434  -15.6238 C   0  0  0  0  0  0  0  0  0  0  0  0
   21.5589  -20.8910  -15.2609 C   0  0  0  0  0  0  0  0  0  0  0  0
   21.9586  -20.4690  -13.8807 C   0  0  2  0  0  0  0  0  0  0  0  0
   23.3521  -20.8684  -13.6288 N   0  0  0  0  0  0  0  0  0  0  0  0
   21.1399  -21.0799  -12.8118 C   0  0  0  0  0  0  0  0  0  0  0  0
   21.4492  -22.2903  -12.2112 O   0  0  0  0  0  0  0  0  0  0  0  0
   20.1107  -20.4905  -12.4143 O   0  0  0  0  0  0  0  0  0  0  0  0
  2  1  1  6
  3  4  1  0
  3  2  1  0
  4  5  2  0
  6  5  1  0
  7  6  1  0
  8  7  2  0
  8  4  1  0
  9  2  1  0
  9 16  1  0
 10  9  2  0
 12 11  1  1
 12 14  1  0
 13 12  1  0
 15 16  1  0
 15 14  1  1
 17 15  1  0
 18 17  2  0
 19 20  1  0
 20 21  2  0
 20 22  1  0
 22 23  1  0
 24 23  1  6
 24 26  1  0
 24 25  1  0
 25 17  1  0
 26 27  1  0
 28 26  2  0
M  END
$$$$
