HLQ.pdb
     RDKit          3D

 28 28  0  0  1  0  0  0  0  0999 V2000
   27.5765  -20.6941  -16.4737 N   0  0  0  0  0  0  0  0  0  0  0  0
   26.9980  -19.6193  -15.7049 C   0  0  1  0  0  0  0  0  0  0  0  0
   26.0736  -18.7610  -16.5412 C   0  0  0  0  0  0  0  0  0  0  0  0
   26.8897  -18.0550  -17.5494 C   0  0  0  0  0  0  0  0  0  0  0  0
   26.9845  -18.4061  -18.8774 C   0  0  0  0  0  0  0  0  0  0  0  0
   27.8175  -17.5159  -19.4322 N   0  0  0  0  0  0  0  0  0  0  0  0
   28.2166  -16.6539  -18.4808 C   0  0  0  0  0  0  0  0  0  0  0  0
   27.6406  -16.9811  -17.2905 N   0  0  0  0  0  0  0  0  0  0  0  0
   26.1395  -20.2465  -14.6448 C   0  0  0  0  0  0  0  0  0  0  0  0
   25.7629  -21.4634  -14.7284 O   0  0  0  0  0  0  0  0  0  0  0  0
   25.5137  -22.0234   -9.8629 C   0  0  0  0  0  0  0  0  0  0  0  0
   25.3854  -20.5436   -9.8563 C   0  0  1  0  0  0  0  0  0  0  0  0
   25.9800  -19.9137   -8.6043 C   0  0  0  0  0  0  0  0  0  0  0  0
   25.8936  -19.8238  -11.0676 C   0  0  0  0  0  0  0  0  0  0  0  0
   25.2413  -20.2148  -12.3413 C   0  0  2  0  0  0  0  0  0  0  0  0
   25.7088  -19.5274  -13.5110 N   0  0  0  0  0  0  0  0  0  0  0  0
   23.7428  -20.0982  -12.2621 C   0  0  0  0  0  0  0  0  0  0  0  0
   23.0590  -20.7814  -11.4814 O   0  0  0  0  0  0  0  0  0  0  0  0
   23.0976  -22.2561  -17.1103 N   0  0  0  0  0  0  0  0  0  0  0  0
   21.7238  -21.9856  -16.9134 C   0  0  0  0  0  0  0  0  0  0  0  0
   20.8940  -22.5428  -17.6584 O   0  0  0  0  0  0  0  0  0  0  0  0
   21.2999  -21.0749  -15.8618 C   0  0  0  0  0  0  0  0  0  0  0  0
   22.3701  -20.5501  -14.9749 C   0  0  0  0  0  0  0  0  0  0  0  0
   21.9245  -19.5787  -13.9256 C   0  0  2  0  0  0  0  0  0  0  0  0
   23.0786  -19.1767  -13.1063 N   0  0  0  0  0  0  0  0  0  0  0  0
   20.9134  -20.1284  -12.9976 C   0  0  0  0  0  0  0  0  0  0  0  0
   19.6819  -19.5336  -12.7713 O   0  0  0  0  0  0  0  0  0  0  0  0
   21.1620  -21.1839  -12.3741 O   0  0  0  0  0  0  0  0  0  0  0  0
  2  1  1  6
  3  4  1  0
  3  2  1  0
  4  5  2  0
  6  5  1  0
  7  6  1  0
  8  7  2  0
  8  4  1  0
  9  2  1  0
  9 16  1  0
 10  9  2  0
 12 11  1  6
 12 14  1  0
 13 12  1  0
 15 16  1  0
 15 14  1  1
 17 15  1  0
 18 17  2  0
 19 20  1  0
 20 21  2  0
 20 22  1  0
 22 23  1  0
 24 23  1  6
 24 26  1  0
 24 25  1  0
 25 17  1  0
 26 27  1  0
 28 26  2  0
M  END
$$$$
