HLQ.pdb
     RDKit          3D

 28 28  0  0  1  0  0  0  0  0999 V2000
   24.3050  -20.7832  -13.7508 N   0  0  0  0  0  0  0  0  0  0  0  0
   23.2691  -20.1206  -12.9966 C   0  0  1  0  0  0  0  0  0  0  0  0
   21.9209  -20.2260  -13.6762 C   0  0  0  0  0  0  0  0  0  0  0  0
   21.9712  -19.4334  -14.9213 C   0  0  0  0  0  0  0  0  0  0  0  0
   22.0443  -18.0598  -14.9821 C   0  0  0  0  0  0  0  0  0  0  0  0
   22.0694  -17.7526  -16.2857 N   0  0  0  0  0  0  0  0  0  0  0  0
   22.0138  -18.8937  -16.9945 C   0  0  0  0  0  0  0  0  0  0  0  0
   21.9517  -19.9597  -16.1487 N   0  0  0  0  0  0  0  0  0  0  0  0
   23.1366  -20.8509  -11.6915 C   0  0  0  0  0  0  0  0  0  0  0  0
   22.7874  -22.0780  -11.6490 O   0  0  0  0  0  0  0  0  0  0  0  0
   26.3797  -19.4290   -7.5168 C   0  0  0  0  0  0  0  0  0  0  0  0
   25.5769  -20.2368   -8.4703 C   0  0  1  0  0  0  0  0  0  0  0  0
   26.2288  -21.5744   -8.7922 C   0  0  0  0  0  0  0  0  0  0  0  0
   24.1382  -20.4546   -8.1147 C   0  0  0  0  0  0  0  0  0  0  0  0
   23.2932  -20.9563   -9.2261 C   0  0  2  0  0  0  0  0  0  0  0  0
   23.3897  -20.2219  -10.4552 N   0  0  0  0  0  0  0  0  0  0  0  0
   21.8467  -21.0655   -8.8247 C   0  0  0  0  0  0  0  0  0  0  0  0
   21.0346  -20.1400   -8.9911 O   0  0  0  0  0  0  0  0  0  0  0  0
   18.1747  -24.7884  -11.2048 N   0  0  0  0  0  0  0  0  0  0  0  0
   17.3838  -24.4519  -10.0820 C   0  0  0  0  0  0  0  0  0  0  0  0
   16.2058  -24.8575  -10.0398 O   0  0  0  0  0  0  0  0  0  0  0  0
   17.9431  -23.6491   -9.0061 C   0  0  0  0  0  0  0  0  0  0  0  0
   19.3765  -23.2805   -9.1368 C   0  0  0  0  0  0  0  0  0  0  0  0
   19.9531  -22.5033   -7.9938 C   0  0  2  0  0  0  0  0  0  0  0  0
   21.3851  -22.2658   -8.2338 N   0  0  0  0  0  0  0  0  0  0  0  0
   19.8479  -23.1951   -6.6914 C   0  0  0  0  0  0  0  0  0  0  0  0
   18.6823  -23.2388   -5.9425 O   0  0  0  0  0  0  0  0  0  0  0  0
   20.8510  -23.7772   -6.2228 O   0  0  0  0  0  0  0  0  0  0  0  0
  2  1  1  6
  3  4  1  0
  3  2  1  0
  4  5  2  0
  6  5  1  0
  7  6  1  0
  8  7  2  0
  8  4  1  0
  9  2  1  0
  9 16  1  0
 10  9  2  0
 12 11  1  1
 12 14  1  0
 13 12  1  0
 15 16  1  0
 15 14  1  1
 17 15  1  0
 18 17  2  0
 19 20  1  0
 20 21  2  0
 20 22  1  0
 22 23  1  0
 24 23  1  6
 24 26  1  0
 24 25  1  0
 25 17  1  0
 26 27  1  0
 28 26  2  0
M  END
$$$$
