HLQ.pdb
     RDKit          3D

 28 28  0  0  1  0  0  0  0  0999 V2000
   22.0360  -16.7548  -17.2235 N   0  0  0  0  0  0  0  0  0  0  0  0
   22.4894  -15.6184  -17.9877 C   0  0  1  0  0  0  0  0  0  0  0  0
   21.4183  -15.1052  -18.9257 C   0  0  0  0  0  0  0  0  0  0  0  0
   21.2399  -16.0971  -20.0052 C   0  0  0  0  0  0  0  0  0  0  0  0
   20.0683  -16.7672  -20.2781 C   0  0  0  0  0  0  0  0  0  0  0  0
   20.3368  -17.5623  -21.3221 N   0  0  0  0  0  0  0  0  0  0  0  0
   21.6224  -17.3855  -21.6740 C   0  0  0  0  0  0  0  0  0  0  0  0
   22.2031  -16.4661  -20.8537 N   0  0  0  0  0  0  0  0  0  0  0  0
   22.7567  -14.5084  -17.0127 C   0  0  0  0  0  0  0  0  0  0  0  0
   21.9373  -14.2385  -16.0717 O   0  0  0  0  0  0  0  0  0  0  0  0
   27.9370  -13.2660  -15.6991 C   0  0  0  0  0  0  0  0  0  0  0  0
   26.4760  -13.5334  -15.7135 C   0  0  1  0  0  0  0  0  0  0  0  0
   26.0213  -14.3455  -14.5087 C   0  0  0  0  0  0  0  0  0  0  0  0
   25.5810  -12.3440  -15.8811 C   0  0  0  0  0  0  0  0  0  0  0  0
   24.1555  -12.6701  -16.1305 C   0  0  2  0  0  0  0  0  0  0  0  0
   23.9189  -13.7133  -17.0870 N   0  0  0  0  0  0  0  0  0  0  0  0
   23.3615  -11.4515  -16.5178 C   0  0  0  0  0  0  0  0  0  0  0  0
   23.3270  -11.0176  -17.6816 O   0  0  0  0  0  0  0  0  0  0  0  0
   17.5871  -10.4154  -15.2739 N   0  0  0  0  0  0  0  0  0  0  0  0
   17.9975   -9.0872  -15.5324 C   0  0  0  0  0  0  0  0  0  0  0  0
   17.1261   -8.1995  -15.6137 O   0  0  0  0  0  0  0  0  0  0  0  0
   19.4083   -8.7756  -15.6984 C   0  0  0  0  0  0  0  0  0  0  0  0
   20.3522   -9.9171  -15.5840 C   0  0  0  0  0  0  0  0  0  0  0  0
   21.7908   -9.5985  -15.8522 C   0  0  2  0  0  0  0  0  0  0  0  0
   22.6225  -10.7669  -15.5237 N   0  0  0  0  0  0  0  0  0  0  0  0
   22.3085   -8.4680  -15.0522 C   0  0  0  0  0  0  0  0  0  0  0  0
   22.1180   -7.1389  -15.3967 O   0  0  0  0  0  0  0  0  0  0  0  0
   22.9547   -8.7010  -14.0069 O   0  0  0  0  0  0  0  0  0  0  0  0
  2  1  1  1
  3  4  1  0
  3  2  1  0
  4  5  2  0
  6  5  1  0
  7  6  1  0
  8  7  2  0
  8  4  1  0
  9  2  1  0
  9 16  1  0
 10  9  2  0
 12 11  1  1
 12 14  1  0
 13 12  1  0
 15 16  1  0
 15 14  1  6
 17 15  1  0
 18 17  2  0
 19 20  1  0
 20 21  2  0
 20 22  1  0
 22 23  1  0
 24 23  1  1
 24 26  1  0
 24 25  1  0
 25 17  1  0
 26 27  1  0
 28 26  2  0
M  END
$$$$
