HLQ.pdb
     RDKit          3D

 28 28  0  0  1  0  0  0  0  0999 V2000
   27.6562  -21.4985  -15.5373 N   0  0  0  0  0  0  0  0  0  0  0  0
   27.5735  -20.4230  -14.5794 C   0  0  1  0  0  0  0  0  0  0  0  0
   26.7928  -19.2446  -15.1199 C   0  0  0  0  0  0  0  0  0  0  0  0
   27.6448  -18.5397  -16.0988 C   0  0  0  0  0  0  0  0  0  0  0  0
   28.8993  -18.9472  -16.4938 C   0  0  0  0  0  0  0  0  0  0  0  0
   29.3164  -18.0361  -17.3828 N   0  0  0  0  0  0  0  0  0  0  0  0
   28.3545  -17.1076  -17.5259 C   0  0  0  0  0  0  0  0  0  0  0  0
   27.2965  -17.4118  -16.7237 N   0  0  0  0  0  0  0  0  0  0  0  0
   26.7930  -20.9369  -13.4043 C   0  0  0  0  0  0  0  0  0  0  0  0
   25.7821  -21.7006  -13.5604 O   0  0  0  0  0  0  0  0  0  0  0  0
   25.0202  -21.7984   -8.3902 C   0  0  0  0  0  0  0  0  0  0  0  0
   25.6315  -20.4585   -8.5834 C   0  0  1  0  0  0  0  0  0  0  0  0
   26.1955  -19.8846   -7.2910 C   0  0  0  0  0  0  0  0  0  0  0  0
   26.6552  -20.3420   -9.6707 C   0  0  0  0  0  0  0  0  0  0  0  0
   26.1820  -20.7526  -11.0154 C   0  0  2  0  0  0  0  0  0  0  0  0
   27.1353  -20.6037  -12.0776 N   0  0  0  0  0  0  0  0  0  0  0  0
   24.9021  -20.0576  -11.3952 C   0  0  0  0  0  0  0  0  0  0  0  0
   24.8623  -18.8579  -11.7162 O   0  0  0  0  0  0  0  0  0  0  0  0
   21.9494  -22.0533  -15.9527 N   0  0  0  0  0  0  0  0  0  0  0  0
   20.9578  -21.1750  -15.4579 C   0  0  0  0  0  0  0  0  0  0  0  0
   19.9394  -20.9762  -16.1489 O   0  0  0  0  0  0  0  0  0  0  0  0
   21.1334  -20.5230  -14.1699 C   0  0  0  0  0  0  0  0  0  0  0  0
   22.3653  -20.8741  -13.4172 C   0  0  0  0  0  0  0  0  0  0  0  0
   22.4795  -20.2803  -12.0470 C   0  0  2  0  0  0  0  0  0  0  0  0
   23.6922  -20.7918  -11.3893 N   0  0  0  0  0  0  0  0  0  0  0  0
   21.3428  -20.6084  -11.1603 C   0  0  0  0  0  0  0  0  0  0  0  0
   20.1917  -19.8403  -11.0793 O   0  0  0  0  0  0  0  0  0  0  0  0
   21.4025  -21.6274  -10.4373 O   0  0  0  0  0  0  0  0  0  0  0  0
  2  1  1  6
  3  4  1  0
  3  2  1  0
  4  5  2  0
  6  5  1  0
  7  6  1  0
  8  7  2  0
  8  4  1  0
  9  2  1  0
  9 16  1  0
 10  9  2  0
 12 11  1  1
 12 14  1  0
 13 12  1  0
 15 16  1  0
 15 14  1  1
 17 15  1  0
 18 17  2  0
 19 20  1  0
 20 21  2  0
 20 22  1  0
 22 23  1  0
 24 23  1  6
 24 26  1  0
 24 25  1  0
 25 17  1  0
 26 27  1  0
 28 26  2  0
M  END
$$$$
