HLQ.pdb
     RDKit          3D

 28 28  0  0  1  0  0  0  0  0999 V2000
   15.0540  -25.2817    0.8369 N   0  0  0  0  0  0  0  0  0  0  0  0
   15.5676  -24.0273    1.3307 C   0  0  1  0  0  0  0  0  0  0  0  0
   14.4628  -23.1246    1.8356 C   0  0  0  0  0  0  0  0  0  0  0  0
   13.7060  -22.6285    0.6685 C   0  0  0  0  0  0  0  0  0  0  0  0
   14.1672  -21.6987   -0.2364 C   0  0  0  0  0  0  0  0  0  0  0  0
   13.1798  -21.5339   -1.1264 N   0  0  0  0  0  0  0  0  0  0  0  0
   12.1546  -22.3317   -0.7795 C   0  0  0  0  0  0  0  0  0  0  0  0
   12.4719  -23.0266    0.3484 N   0  0  0  0  0  0  0  0  0  0  0  0
   16.4276  -24.3398    2.5210 C   0  0  0  0  0  0  0  0  0  0  0  0
   16.0254  -25.1245    3.4441 O   0  0  0  0  0  0  0  0  0  0  0  0
   21.8099  -24.9356    1.8860 C   0  0  0  0  0  0  0  0  0  0  0  0
   20.4118  -25.0768    2.3674 C   0  0  1  0  0  0  0  0  0  0  0  0
   20.0515  -26.5199    2.6925 C   0  0  0  0  0  0  0  0  0  0  0  0
   20.0045  -24.1915    3.5050 C   0  0  0  0  0  0  0  0  0  0  0  0
   18.5474  -24.1680    3.7824 C   0  0  2  0  0  0  0  0  0  0  0  0
   17.7147  -23.7858    2.6779 N   0  0  0  0  0  0  0  0  0  0  0  0
   18.2178  -23.3093    4.9737 C   0  0  0  0  0  0  0  0  0  0  0  0
   18.0745  -22.0778    4.8915 O   0  0  0  0  0  0  0  0  0  0  0  0
   13.9081  -24.2831    9.0855 N   0  0  0  0  0  0  0  0  0  0  0  0
   14.6917  -23.3288    9.7744 C   0  0  0  0  0  0  0  0  0  0  0  0
   14.2592  -22.8657   10.8479 O   0  0  0  0  0  0  0  0  0  0  0  0
   15.9726  -22.9040    9.2324 C   0  0  0  0  0  0  0  0  0  0  0  0
   16.3984  -23.5520    7.9650 C   0  0  0  0  0  0  0  0  0  0  0  0
   17.7365  -23.1321    7.4396 C   0  0  2  0  0  0  0  0  0  0  0  0
   18.0632  -23.9203    6.2409 N   0  0  0  0  0  0  0  0  0  0  0  0
   18.8427  -23.3366    8.3990 C   0  0  0  0  0  0  0  0  0  0  0  0
   19.2070  -22.4007    9.3545 O   0  0  0  0  0  0  0  0  0  0  0  0
   19.4968  -24.4022    8.3636 O   0  0  0  0  0  0  0  0  0  0  0  0
  2  1  1  1
  3  4  1  0
  3  2  1  0
  4  5  2  0
  6  5  1  0
  7  6  1  0
  8  7  2  0
  8  4  1  0
  9  2  1  0
  9 16  1  0
 10  9  2  0
 12 11  1  1
 12 14  1  0
 13 12  1  0
 15 16  1  0
 15 14  1  6
 17 15  1  0
 18 17  2  0
 19 20  1  0
 20 21  2  0
 20 22  1  0
 22 23  1  0
 24 23  1  1
 24 26  1  0
 24 25  1  0
 25 17  1  0
 26 27  1  0
 28 26  2  0
M  END
$$$$
