HLQ.pdb
     RDKit          3D

 28 28  0  0  1  0  0  0  0  0999 V2000
   27.6552  -21.3801  -15.9766 N   0  0  0  0  0  0  0  0  0  0  0  0
   26.8047  -20.2716  -15.6174 C   0  0  1  0  0  0  0  0  0  0  0  0
   26.1291  -19.6634  -16.8274 C   0  0  0  0  0  0  0  0  0  0  0  0
   27.1474  -18.9199  -17.5963 C   0  0  0  0  0  0  0  0  0  0  0  0
   27.8682  -19.4289  -18.6534 C   0  0  0  0  0  0  0  0  0  0  0  0
   28.6715  -18.4369  -19.0593 N   0  0  0  0  0  0  0  0  0  0  0  0
   28.4508  -17.3630  -18.2809 C   0  0  0  0  0  0  0  0  0  0  0  0
   27.4939  -17.6526  -17.3557 N   0  0  0  0  0  0  0  0  0  0  0  0
   25.7037  -20.8202  -14.7566 C   0  0  0  0  0  0  0  0  0  0  0  0
   25.1719  -21.9548  -15.0005 O   0  0  0  0  0  0  0  0  0  0  0  0
   25.8837  -20.1449   -9.3292 C   0  0  0  0  0  0  0  0  0  0  0  0
   25.6845  -20.6200  -10.7223 C   0  0  1  0  0  0  0  0  0  0  0  0
   26.0205  -22.0957  -10.8874 C   0  0  0  0  0  0  0  0  0  0  0  0
   24.3484  -20.3396  -11.3389 C   0  0  0  0  0  0  0  0  0  0  0  0
   24.2350  -20.7119  -12.7704 C   0  0  2  0  0  0  0  0  0  0  0  0
   25.2049  -20.1140  -13.6427 N   0  0  0  0  0  0  0  0  0  0  0  0
   22.8541  -20.4508  -13.3093 C   0  0  0  0  0  0  0  0  0  0  0  0
   22.4956  -19.3333  -13.7172 O   0  0  0  0  0  0  0  0  0  0  0  0
   21.0891  -25.1374  -15.3458 N   0  0  0  0  0  0  0  0  0  0  0  0
   21.0677  -24.1180  -16.3255 C   0  0  0  0  0  0  0  0  0  0  0  0
   21.4314  -24.3979  -17.4846 O   0  0  0  0  0  0  0  0  0  0  0  0
   20.6295  -22.7759  -15.9767 C   0  0  0  0  0  0  0  0  0  0  0  0
   20.1300  -22.5862  -14.5904 C   0  0  0  0  0  0  0  0  0  0  0  0
   20.5704  -21.3274  -13.9090 C   0  0  2  0  0  0  0  0  0  0  0  0
   21.9214  -21.5141  -13.3570 N   0  0  0  0  0  0  0  0  0  0  0  0
   19.7011  -20.9259  -12.7824 C   0  0  0  0  0  0  0  0  0  0  0  0
   18.4427  -20.3692  -12.9503 O   0  0  0  0  0  0  0  0  0  0  0  0
   20.1030  -21.0881  -11.6091 O   0  0  0  0  0  0  0  0  0  0  0  0
  2  1  1  6
  3  4  1  0
  3  2  1  0
  4  5  2  0
  6  5  1  0
  7  6  1  0
  8  7  2  0
  8  4  1  0
  9  2  1  0
  9 16  1  0
 10  9  2  0
 12 11  1  1
 12 14  1  0
 13 12  1  0
 15 16  1  0
 15 14  1  1
 17 15  1  0
 18 17  2  0
 19 20  1  0
 20 21  2  0
 20 22  1  0
 22 23  1  0
 24 23  1  1
 24 26  1  0
 24 25  1  0
 25 17  1  0
 26 27  1  0
 28 26  2  0
M  END
$$$$
