HLQ.pdb
     RDKit          3D

 28 28  0  0  1  0  0  0  0  0999 V2000
   17.2343  -12.0697  -16.4976 N   0  0  0  0  0  0  0  0  0  0  0  0
   17.7906  -10.8919  -17.1178 C   0  0  1  0  0  0  0  0  0  0  0  0
   16.7982   -9.7498  -17.1517 C   0  0  0  0  0  0  0  0  0  0  0  0
   15.7302  -10.0979  -18.1103 C   0  0  0  0  0  0  0  0  0  0  0  0
   14.3947  -10.2183  -17.7973 C   0  0  0  0  0  0  0  0  0  0  0  0
   13.7789  -10.5424  -18.9419 N   0  0  0  0  0  0  0  0  0  0  0  0
   14.7016  -10.6172  -19.9169 C   0  0  0  0  0  0  0  0  0  0  0  0
   15.9344  -10.3399  -19.4079 N   0  0  0  0  0  0  0  0  0  0  0  0
   18.9272  -10.4314  -16.2517 C   0  0  0  0  0  0  0  0  0  0  0  0
   18.7978  -10.3250  -14.9862 O   0  0  0  0  0  0  0  0  0  0  0  0
   23.3751  -10.0651  -13.7451 C   0  0  0  0  0  0  0  0  0  0  0  0
   23.6479  -10.0370  -15.2048 C   0  0  1  0  0  0  0  0  0  0  0  0
   24.9148  -10.7959  -15.5747 C   0  0  0  0  0  0  0  0  0  0  0  0
   22.5279  -10.4668  -16.1020 C   0  0  0  0  0  0  0  0  0  0  0  0
   21.2682   -9.7021  -15.9321 C   0  0  2  0  0  0  0  0  0  0  0  0
   20.1867  -10.0954  -16.7894 N   0  0  0  0  0  0  0  0  0  0  0  0
   21.4911   -8.2193  -16.0620 C   0  0  0  0  0  0  0  0  0  0  0  0
   21.7681   -7.6768  -17.1449 O   0  0  0  0  0  0  0  0  0  0  0  0
   17.7069   -3.9585  -15.2689 N   0  0  0  0  0  0  0  0  0  0  0  0
   18.8763   -3.1749  -15.1356 C   0  0  0  0  0  0  0  0  0  0  0  0
   18.7617   -1.9339  -15.1063 O   0  0  0  0  0  0  0  0  0  0  0  0
   20.1789   -3.8138  -15.0361 C   0  0  0  0  0  0  0  0  0  0  0  0
   20.1859   -5.2995  -15.0500 C   0  0  0  0  0  0  0  0  0  0  0  0
   21.5371   -5.9423  -14.9864 C   0  0  2  0  0  0  0  0  0  0  0  0
   21.3830   -7.4035  -14.9105 N   0  0  0  0  0  0  0  0  0  0  0  0
   22.3341   -5.5357  -13.8094 C   0  0  0  0  0  0  0  0  0  0  0  0
   23.0063   -4.3265  -13.7237 O   0  0  0  0  0  0  0  0  0  0  0  0
   22.4194   -6.3083  -12.8294 O   0  0  0  0  0  0  0  0  0  0  0  0
  2  1  1  1
  3  4  1  0
  3  2  1  0
  4  5  2  0
  6  5  1  0
  7  6  1  0
  8  7  2  0
  8  4  1  0
  9  2  1  0
  9 16  1  0
 10  9  2  0
 12 11  1  1
 12 14  1  0
 13 12  1  0
 15 16  1  0
 15 14  1  6
 17 15  1  0
 18 17  2  0
 19 20  1  0
 20 21  2  0
 20 22  1  0
 22 23  1  0
 24 23  1  1
 24 26  1  0
 24 25  1  0
 25 17  1  0
 26 27  1  0
 28 26  2  0
M  END
$$$$
