HLQ.pdb
     RDKit          3D

 28 28  0  0  1  0  0  0  0  0999 V2000
   22.7399  -20.5631  -14.8987 N   0  0  0  0  0  0  0  0  0  0  0  0
   22.0760  -19.7935  -13.8750 C   0  0  1  0  0  0  0  0  0  0  0  0
   20.5750  -19.7748  -14.0672 C   0  0  0  0  0  0  0  0  0  0  0  0
   20.2709  -18.9061  -15.2221 C   0  0  0  0  0  0  0  0  0  0  0  0
   20.4381  -17.5397  -15.2499 C   0  0  0  0  0  0  0  0  0  0  0  0
   20.0484  -17.1486  -16.4703 N   0  0  0  0  0  0  0  0  0  0  0  0
   19.6580  -18.2334  -17.1620 C   0  0  0  0  0  0  0  0  0  0  0  0
   19.7926  -19.3468  -16.3888 N   0  0  0  0  0  0  0  0  0  0  0  0
   22.3207  -20.4919  -12.5686 C   0  0  0  0  0  0  0  0  0  0  0  0
   21.9299  -21.6912  -12.3727 O   0  0  0  0  0  0  0  0  0  0  0  0
   24.7465  -22.2008   -8.2086 C   0  0  0  0  0  0  0  0  0  0  0  0
   24.5048  -20.7381   -8.1183 C   0  0  1  0  0  0  0  0  0  0  0  0
   25.5690  -20.0222   -7.2980 C   0  0  0  0  0  0  0  0  0  0  0  0
   24.3007  -20.0136   -9.4134 C   0  0  0  0  0  0  0  0  0  0  0  0
   23.2126  -20.5561  -10.2633 C   0  0  2  0  0  0  0  0  0  0  0  0
   22.9901  -19.8619  -11.4994 N   0  0  0  0  0  0  0  0  0  0  0  0
   21.9131  -20.6600   -9.5109 C   0  0  0  0  0  0  0  0  0  0  0  0
   21.1679  -19.6834   -9.3251 O   0  0  0  0  0  0  0  0  0  0  0  0
   15.7649  -24.2172   -8.8638 N   0  0  0  0  0  0  0  0  0  0  0  0
   16.9466  -23.6775   -9.4220 C   0  0  0  0  0  0  0  0  0  0  0  0
   17.1421  -23.8102  -10.6460 O   0  0  0  0  0  0  0  0  0  0  0  0
   17.9062  -22.9850   -8.5766 C   0  0  0  0  0  0  0  0  0  0  0  0
   19.2253  -22.6824   -9.1897 C   0  0  0  0  0  0  0  0  0  0  0  0
   20.2450  -22.0828   -8.2712 C   0  0  2  0  0  0  0  0  0  0  0  0
   21.5171  -21.9156   -8.9915 N   0  0  0  0  0  0  0  0  0  0  0  0
   20.5342  -22.9118   -7.0817 C   0  0  0  0  0  0  0  0  0  0  0  0
   21.5154  -23.8906   -7.0538 O   0  0  0  0  0  0  0  0  0  0  0  0
   19.8705  -22.7372   -6.0359 O   0  0  0  0  0  0  0  0  0  0  0  0
  2  1  1  6
  3  4  1  0
  3  2  1  0
  4  5  2  0
  6  5  1  0
  7  6  1  0
  8  7  2  0
  8  4  1  0
  9  2  1  0
  9 16  1  0
 10  9  2  0
 12 11  1  6
 12 14  1  0
 13 12  1  0
 15 16  1  0
 15 14  1  1
 17 15  1  0
 18 17  2  0
 19 20  1  0
 20 21  2  0
 20 22  1  0
 22 23  1  0
 24 23  1  6
 24 26  1  0
 24 25  1  0
 25 17  1  0
 26 27  1  0
 28 26  2  0
M  END
$$$$
