HLQ.pdb
     RDKit          3D

 28 28  0  0  1  0  0  0  0  0999 V2000
   26.3534  -38.2321   -9.2758 N   0  0  0  0  0  0  0  0  0  0  0  0
   25.2322  -37.9170   -8.4245 C   0  0  1  0  0  0  0  0  0  0  0  0
   24.8700  -39.0729   -7.5173 C   0  0  0  0  0  0  0  0  0  0  0  0
   24.2248  -40.1167   -8.3390 C   0  0  0  0  0  0  0  0  0  0  0  0
   24.5860  -41.4453   -8.3567 C   0  0  0  0  0  0  0  0  0  0  0  0
   23.7567  -42.0379   -9.2259 N   0  0  0  0  0  0  0  0  0  0  0  0
   22.9209  -41.1080   -9.7205 C   0  0  0  0  0  0  0  0  0  0  0  0
   23.2040  -39.8941   -9.1712 N   0  0  0  0  0  0  0  0  0  0  0  0
   25.6636  -36.7975   -7.5218 C   0  0  0  0  0  0  0  0  0  0  0  0
   26.7817  -36.8329   -6.9067 O   0  0  0  0  0  0  0  0  0  0  0  0
   24.5268  -31.4194   -8.4400 C   0  0  0  0  0  0  0  0  0  0  0  0
   25.1022  -32.7387   -8.0733 C   0  0  1  0  0  0  0  0  0  0  0  0
   26.6117  -32.7887   -8.2656 C   0  0  0  0  0  0  0  0  0  0  0  0
   24.7537  -33.2650   -6.7149 C   0  0  0  0  0  0  0  0  0  0  0  0
   25.2861  -34.6174   -6.4179 C   0  0  2  0  0  0  0  0  0  0  0  0
   24.8605  -35.6582   -7.3095 N   0  0  0  0  0  0  0  0  0  0  0  0
   25.0025  -35.0318   -4.9990 C   0  0  0  0  0  0  0  0  0  0  0  0
   23.9522  -35.6068   -4.6673 O   0  0  0  0  0  0  0  0  0  0  0  0
   29.4641  -35.1070   -0.4624 N   0  0  0  0  0  0  0  0  0  0  0  0
   29.2180  -36.0786   -1.4599 C   0  0  0  0  0  0  0  0  0  0  0  0
   30.0927  -36.9383   -1.6829 O   0  0  0  0  0  0  0  0  0  0  0  0
   27.9682  -36.0649   -2.2033 C   0  0  0  0  0  0  0  0  0  0  0  0
   26.9811  -35.0258   -1.8118 C   0  0  0  0  0  0  0  0  0  0  0  0
   25.6936  -35.0333   -2.5770 C   0  0  2  0  0  0  0  0  0  0  0  0
   25.9644  -34.7597   -3.9971 N   0  0  0  0  0  0  0  0  0  0  0  0
   24.7262  -34.0117   -2.1228 C   0  0  0  0  0  0  0  0  0  0  0  0
   24.0299  -34.0983   -0.9273 O   0  0  0  0  0  0  0  0  0  0  0  0
   24.5099  -33.0097   -2.8395 O   0  0  0  0  0  0  0  0  0  0  0  0
  2  1  1  6
  3  4  1  0
  3  2  1  0
  4  5  2  0
  6  5  1  0
  7  6  1  0
  8  7  2  0
  8  4  1  0
  9  2  1  0
  9 16  1  0
 10  9  2  0
 12 11  1  1
 12 14  1  0
 13 12  1  0
 15 16  1  0
 15 14  1  6
 17 15  1  0
 18 17  2  0
 19 20  1  0
 20 21  2  0
 20 22  1  0
 22 23  1  0
 24 23  1  1
 24 26  1  0
 24 25  1  0
 25 17  1  0
 26 27  1  0
 28 26  2  0
M  END
$$$$
