HLQ.pdb
     RDKit          3D

 28 28  0  0  1  0  0  0  0  0999 V2000
   21.1621  -19.8892  -13.8860 N   0  0  0  0  0  0  0  0  0  0  0  0
   22.0253  -20.9731  -13.4847 C   0  0  1  0  0  0  0  0  0  0  0  0
   21.9449  -22.1427  -14.4418 C   0  0  0  0  0  0  0  0  0  0  0  0
   20.6007  -22.7424  -14.3219 C   0  0  0  0  0  0  0  0  0  0  0  0
   19.5615  -22.2145  -13.5889 C   0  0  0  0  0  0  0  0  0  0  0  0
   18.5353  -23.0605  -13.7480 N   0  0  0  0  0  0  0  0  0  0  0  0
   18.9313  -24.0667  -14.5471 C   0  0  0  0  0  0  0  0  0  0  0  0
   20.2292  -23.8795  -14.9159 N   0  0  0  0  0  0  0  0  0  0  0  0
   23.4365  -20.4664  -13.5628 C   0  0  0  0  0  0  0  0  0  0  0  0
   23.7648  -19.5361  -14.3729 O   0  0  0  0  0  0  0  0  0  0  0  0
   28.6185  -19.5983  -12.8040 C   0  0  0  0  0  0  0  0  0  0  0  0
   28.2570  -20.9898  -12.4308 C   0  0  1  0  0  0  0  0  0  0  0  0
   29.1576  -21.5521  -11.3396 C   0  0  0  0  0  0  0  0  0  0  0  0
   26.8236  -21.2338  -12.0708 C   0  0  0  0  0  0  0  0  0  0  0  0
   25.8425  -20.7801  -13.0869 C   0  0  2  0  0  0  0  0  0  0  0  0
   24.4634  -20.9895  -12.7503 N   0  0  0  0  0  0  0  0  0  0  0  0
   26.1202  -21.3782  -14.4399 C   0  0  0  0  0  0  0  0  0  0  0  0
   25.8612  -22.5621  -14.7138 O   0  0  0  0  0  0  0  0  0  0  0  0
   23.0532  -21.1838  -18.8837 N   0  0  0  0  0  0  0  0  0  0  0  0
   24.2361  -21.4501  -19.6111 C   0  0  0  0  0  0  0  0  0  0  0  0
   24.1420  -21.7152  -20.8255 O   0  0  0  0  0  0  0  0  0  0  0  0
   25.5289  -21.4132  -18.9461 C   0  0  0  0  0  0  0  0  0  0  0  0
   25.5148  -21.0815  -17.4979 C   0  0  0  0  0  0  0  0  0  0  0  0
   26.8533  -21.0491  -16.8269 C   0  0  2  0  0  0  0  0  0  0  0  0
   26.6988  -20.5674  -15.4452 N   0  0  0  0  0  0  0  0  0  0  0  0
   27.8267  -20.1518  -17.4851 C   0  0  0  0  0  0  0  0  0  0  0  0
   28.9026  -20.6082  -18.2304 O   0  0  0  0  0  0  0  0  0  0  0  0
   27.6907  -18.9131  -17.3761 O   0  0  0  0  0  0  0  0  0  0  0  0
  2  1  1  6
  3  4  1  0
  3  2  1  0
  4  5  2  0
  6  5  1  0
  7  6  1  0
  8  7  2  0
  8  4  1  0
  9  2  1  0
  9 16  1  0
 10  9  2  0
 12 11  1  1
 12 14  1  0
 13 12  1  0
 15 16  1  0
 15 14  1  1
 17 15  1  0
 18 17  2  0
 19 20  1  0
 20 21  2  0
 20 22  1  0
 22 23  1  0
 24 23  1  6
 24 26  1  0
 24 25  1  0
 25 17  1  0
 26 27  1  0
 28 26  2  0
M  END
$$$$
