HLQ.pdb
     RDKit          3D

 28 28  0  0  1  0  0  0  0  0999 V2000
   22.3506  -14.5800  -17.6876 N   0  0  0  0  0  0  0  0  0  0  0  0
   22.2716  -13.3162  -18.3785 C   0  0  1  0  0  0  0  0  0  0  0  0
   20.8512  -12.9786  -18.7771 C   0  0  0  0  0  0  0  0  0  0  0  0
   20.4438  -13.9048  -19.8528 C   0  0  0  0  0  0  0  0  0  0  0  0
   20.7449  -13.7486  -21.1873 C   0  0  0  0  0  0  0  0  0  0  0  0
   20.1927  -14.7972  -21.8117 N   0  0  0  0  0  0  0  0  0  0  0  0
   19.5779  -15.5648  -20.8949 C   0  0  0  0  0  0  0  0  0  0  0  0
   19.7277  -15.0152  -19.6575 N   0  0  0  0  0  0  0  0  0  0  0  0
   22.6958  -12.2537  -17.4062 C   0  0  0  0  0  0  0  0  0  0  0  0
   22.1051  -12.1052  -16.2844 O   0  0  0  0  0  0  0  0  0  0  0  0
   27.9711  -10.7392  -16.7554 C   0  0  0  0  0  0  0  0  0  0  0  0
   26.5363  -11.0646  -16.5515 C   0  0  1  0  0  0  0  0  0  0  0  0
   26.2728  -11.7107  -15.1984 C   0  0  0  0  0  0  0  0  0  0  0  0
   25.5607   -9.9493  -16.7712 C   0  0  0  0  0  0  0  0  0  0  0  0
   24.1347  -10.3567  -16.7391 C   0  0  2  0  0  0  0  0  0  0  0  0
   23.7611  -11.3720  -17.6819 N   0  0  0  0  0  0  0  0  0  0  0  0
   23.2117   -9.1770  -16.8876 C   0  0  0  0  0  0  0  0  0  0  0  0
   22.8543   -8.7426  -17.9954 O   0  0  0  0  0  0  0  0  0  0  0  0
   18.0486   -8.9751  -17.5728 N   0  0  0  0  0  0  0  0  0  0  0  0
   18.1095   -7.6236  -17.1618 C   0  0  0  0  0  0  0  0  0  0  0  0
   17.1214   -6.8925  -17.3695 O   0  0  0  0  0  0  0  0  0  0  0  0
   19.3044   -7.1086  -16.5122 C   0  0  0  0  0  0  0  0  0  0  0  0
   20.4430   -8.0544  -16.3836 C   0  0  0  0  0  0  0  0  0  0  0  0
   21.6983   -7.4826  -15.8003 C   0  0  2  0  0  0  0  0  0  0  0  0
   22.7273   -8.5315  -15.7249 N   0  0  0  0  0  0  0  0  0  0  0  0
   21.5294   -6.9516  -14.4309 C   0  0  0  0  0  0  0  0  0  0  0  0
   21.7774   -7.6957  -13.2879 O   0  0  0  0  0  0  0  0  0  0  0  0
   21.1433   -5.7723  -14.2731 O   0  0  0  0  0  0  0  0  0  0  0  0
  2  1  1  1
  3  4  1  0
  3  2  1  0
  4  5  2  0
  6  5  1  0
  7  6  1  0
  8  7  2  0
  8  4  1  0
  9  2  1  0
  9 16  1  0
 10  9  2  0
 12 11  1  1
 12 14  1  0
 13 12  1  0
 15 16  1  0
 15 14  1  6
 17 15  1  0
 18 17  2  0
 19 20  1  0
 20 21  2  0
 20 22  1  0
 22 23  1  0
 24 23  1  1
 24 26  1  0
 24 25  1  0
 25 17  1  0
 26 27  1  0
 28 26  2  0
M  END
$$$$
