LNK.pdb
     RDKit          3D

 26 25  0  0  1  0  0  0  0  0999 V2000
   28.1507  -10.6942  -15.8606 C   0  0  0  0  0  0  0  0  0  0  0  0
   26.7393  -10.7639  -16.4038 C   0  0  1  0  0  0  0  0  0  0  0  0
   26.4161  -12.1851  -16.6977 C   0  0  0  0  0  0  0  0  0  0  0  0
   25.7780  -10.0545  -15.5174 C   0  0  0  0  0  0  0  0  0  0  0  0
   24.3692  -10.0280  -15.9676 C   0  0  2  0  0  0  0  0  0  0  0  0
   24.1605   -9.7129  -17.3476 N   0  0  0  0  0  0  0  0  0  0  0  0
   23.6491   -8.9827  -15.1787 C   0  0  0  0  0  0  0  0  0  0  0  0
   24.1924   -8.6155  -14.1067 O   0  0  0  0  0  0  0  0  0  0  0  0
   20.6382   -5.1329  -13.6115 N   0  0  0  0  0  0  0  0  0  0  0  0
   21.9589   -4.9796  -14.1558 C   0  0  0  0  0  0  0  0  0  0  0  0
   22.5061   -3.8779  -13.9939 O   0  0  0  0  0  0  0  0  0  0  0  0
   22.6018   -6.0867  -14.8622 C   0  0  0  0  0  0  0  0  0  0  0  0
   21.7672   -7.3161  -14.8304 C   0  0  2  0  0  0  0  0  0  0  0  0
   22.4365   -8.4144  -15.5681 N   0  0  0  0  0  0  0  0  0  0  0  0
   20.5152   -7.0505  -15.6412 C   0  0  0  0  0  0  0  0  0  0  0  0
   20.6176   -6.7186  -16.8275 O   0  0  0  0  0  0  0  0  0  0  0  0
   19.2120   -7.1697  -15.0799 N   0  0  0  0  0  0  0  0  0  0  0  0
   18.0135   -7.1043  -15.9322 C   0  0  1  0  0  0  0  0  0  0  0  0
   16.9618   -8.0265  -15.4315 C   0  0  0  0  0  0  0  0  0  0  0  0
   15.7665   -8.0391  -16.3401 C   0  0  0  0  0  0  0  0  0  0  0  0
   14.7169   -9.0357  -15.8435 C   0  0  0  0  0  0  0  0  0  0  0  0
   13.5370   -9.1286  -16.7710 C   0  0  0  0  0  0  0  0  0  0  0  0
   12.5428  -10.0700  -16.2838 N   0  0  0  0  0  0  0  0  0  0  0  0
   17.5332   -5.7088  -16.0062 C   0  0  0  0  0  0  0  0  0  0  0  0
   17.6447   -4.7602  -15.0127 O   0  0  0  0  0  0  0  0  0  0  0  0
   16.9509   -5.3033  -17.0747 O   0  0  0  0  0  0  0  0  0  0  0  0
  2  1  1  1
  2  4  1  0
  3  2  1  0
  4  5  1  0
  5  6  1  6
  7  5  1  0
  7  8  2  0
  9 10  1  0
 10 11  2  0
 10 12  1  0
 13 12  1  6
 13 14  1  0
 13 15  1  0
 14  7  1  0
 15 17  1  0
 16 15  2  0
 17 18  1  0
 18 24  1  0
 18 19  1  1
 20 19  1  0
 21 20  1  0
 22 21  1  0
 23 22  1  0
 24 26  2  0
 24 25  1  0
M  END
$$$$
