LNK.pdb
     RDKit          3D

 26 25  0  0  1  0  0  0  0  0999 V2000
   28.3280  -18.7388   -6.7328 C   0  0  0  0  0  0  0  0  0  0  0  0
   27.8350  -20.0051   -7.4001 C   0  0  1  0  0  0  0  0  0  0  0  0
   27.3922  -20.9536   -6.3442 C   0  0  0  0  0  0  0  0  0  0  0  0
   26.8348  -19.7089   -8.4608 C   0  0  0  0  0  0  0  0  0  0  0  0
   26.3166  -20.8711   -9.2149 C   0  0  2  0  0  0  0  0  0  0  0  0
   27.3012  -21.6962   -9.8448 N   0  0  0  0  0  0  0  0  0  0  0  0
   25.4296  -20.3601  -10.3038 C   0  0  0  0  0  0  0  0  0  0  0  0
   24.6955  -19.3815  -10.0164 O   0  0  0  0  0  0  0  0  0  0  0  0
   23.1804  -19.4518  -14.8863 N   0  0  0  0  0  0  0  0  0  0  0  0
   24.4337  -20.1138  -15.1210 C   0  0  0  0  0  0  0  0  0  0  0  0
   24.8215  -20.1762  -16.2979 O   0  0  0  0  0  0  0  0  0  0  0  0
   25.1934  -20.6778  -14.0062 C   0  0  0  0  0  0  0  0  0  0  0  0
   24.5827  -20.3327  -12.6960 C   0  0  2  0  0  0  0  0  0  0  0  0
   25.3818  -20.9058  -11.5863 N   0  0  0  0  0  0  0  0  0  0  0  0
   23.2565  -21.0579  -12.5945 C   0  0  0  0  0  0  0  0  0  0  0  0
   23.2416  -22.2918  -12.5239 O   0  0  0  0  0  0  0  0  0  0  0  0
   22.0141  -20.3622  -12.5784 N   0  0  0  0  0  0  0  0  0  0  0  0
   20.7376  -21.0954  -12.5844 C   0  0  1  0  0  0  0  0  0  0  0  0
   19.5978  -20.1678  -12.3658 C   0  0  0  0  0  0  0  0  0  0  0  0
   18.2840  -20.8929  -12.4163 C   0  0  0  0  0  0  0  0  0  0  0  0
   18.1403  -21.8408  -11.2237 C   0  0  0  0  0  0  0  0  0  0  0  0
   16.8136  -22.5484  -11.2162 C   0  0  0  0  0  0  0  0  0  0  0  0
   16.6472  -23.3665  -10.0267 N   0  0  0  0  0  0  0  0  0  0  0  0
   20.6027  -21.8457  -13.8503 C   0  0  0  0  0  0  0  0  0  0  0  0
   20.0448  -23.0976  -13.9943 O   0  0  0  0  0  0  0  0  0  0  0  0
   21.0343  -21.3204  -14.9380 O   0  0  0  0  0  0  0  0  0  0  0  0
  2  1  1  1
  2  4  1  0
  3  2  1  0
  4  5  1  0
  5  6  1  6
  7  5  1  0
  7  8  2  0
  9 10  1  0
 10 11  2  0
 10 12  1  0
 13 12  1  6
 13 14  1  0
 13 15  1  0
 14  7  1  0
 15 17  1  0
 16 15  2  0
 17 18  1  0
 18 24  1  0
 18 19  1  6
 20 19  1  0
 21 20  1  0
 22 21  1  0
 23 22  1  0
 24 26  2  0
 24 25  1  0
M  END
$$$$
