LNK.pdb
     RDKit          3D

 26 25  0  0  1  0  0  0  0  0999 V2000
   19.9163  -14.6405  -15.8462 C   0  0  0  0  0  0  0  0  0  0  0  0
   19.7094  -13.4280  -16.7289 C   0  0  1  0  0  0  0  0  0  0  0  0
   18.2522  -13.1425  -16.8048 C   0  0  0  0  0  0  0  0  0  0  0  0
   20.5676  -12.2901  -16.3027 C   0  0  0  0  0  0  0  0  0  0  0  0
   20.4582  -11.0516  -17.1040 C   0  0  2  0  0  0  0  0  0  0  0  0
   20.7871  -11.1742  -18.4910 N   0  0  0  0  0  0  0  0  0  0  0  0
   21.4001  -10.0428  -16.5308 C   0  0  0  0  0  0  0  0  0  0  0  0
   21.2540   -9.7671  -15.3134 O   0  0  0  0  0  0  0  0  0  0  0  0
   25.2266   -6.6347  -15.8007 N   0  0  0  0  0  0  0  0  0  0  0  0
   25.4634   -7.2632  -17.0707 C   0  0  0  0  0  0  0  0  0  0  0  0
   26.4855   -6.9183  -17.6836 O   0  0  0  0  0  0  0  0  0  0  0  0
   24.5265   -8.2582  -17.5906 C   0  0  0  0  0  0  0  0  0  0  0  0
   23.3607   -8.4389  -16.6867 C   0  0  2  0  0  0  0  0  0  0  0  0
   22.4038   -9.4123  -17.2657 N   0  0  0  0  0  0  0  0  0  0  0  0
   22.5818   -7.1397  -16.6655 C   0  0  0  0  0  0  0  0  0  0  0  0
   21.9565   -6.7886  -17.6722 O   0  0  0  0  0  0  0  0  0  0  0  0
   22.5446   -6.2996  -15.5163 N   0  0  0  0  0  0  0  0  0  0  0  0
   21.6997   -5.0944  -15.4885 C   0  0  1  0  0  0  0  0  0  0  0  0
   20.2802   -5.4416  -15.7561 C   0  0  0  0  0  0  0  0  0  0  0  0
   19.4008   -4.2255  -15.7101 C   0  0  0  0  0  0  0  0  0  0  0  0
   17.9459   -4.5954  -16.0065 C   0  0  0  0  0  0  0  0  0  0  0  0
   17.0446   -3.3919  -16.0213 C   0  0  0  0  0  0  0  0  0  0  0  0
   15.6646   -3.7568  -16.2941 N   0  0  0  0  0  0  0  0  0  0  0  0
   21.8634   -4.4040  -14.1923 C   0  0  0  0  0  0  0  0  0  0  0  0
   22.6037   -4.8564  -13.1215 O   0  0  0  0  0  0  0  0  0  0  0  0
   21.2769   -3.2789  -14.0042 O   0  0  0  0  0  0  0  0  0  0  0  0
  2  1  1  1
  2  4  1  0
  3  2  1  0
  4  5  1  0
  5  6  1  6
  7  5  1  0
  7  8  2  0
  9 10  1  0
 10 11  2  0
 10 12  1  0
 13 12  1  6
 13 14  1  0
 13 15  1  0
 14  7  1  0
 15 17  1  0
 16 15  2  0
 17 18  1  0
 18 24  1  0
 18 19  1  1
 20 19  1  0
 21 20  1  0
 22 21  1  0
 23 22  1  0
 24 26  2  0
 24 25  1  0
M  END
$$$$
