LNK.pdb
     RDKit          3D

 26 25  0  0  1  0  0  0  0  0999 V2000
   28.9167  -13.9361  -16.4883 C   0  0  0  0  0  0  0  0  0  0  0  0
   27.4389  -14.2580  -16.5551 C   0  0  1  0  0  0  0  0  0  0  0  0
   26.8219  -13.9174  -15.2459 C   0  0  0  0  0  0  0  0  0  0  0  0
   26.7996  -13.6415  -17.7485 C   0  0  0  0  0  0  0  0  0  0  0  0
   25.3520  -13.8926  -17.9190 C   0  0  2  0  0  0  0  0  0  0  0  0
   24.9371  -15.2571  -17.8036 N   0  0  0  0  0  0  0  0  0  0  0  0
   24.9608  -13.4433  -19.2896 C   0  0  0  0  0  0  0  0  0  0  0  0
   25.8759  -12.9636  -20.0051 O   0  0  0  0  0  0  0  0  0  0  0  0
   24.2688  -15.2270  -23.5669 N   0  0  0  0  0  0  0  0  0  0  0  0
   23.6343  -15.3238  -22.2815 C   0  0  0  0  0  0  0  0  0  0  0  0
   23.9638  -16.2823  -21.5660 O   0  0  0  0  0  0  0  0  0  0  0  0
   22.6508  -14.3256  -21.8641 C   0  0  0  0  0  0  0  0  0  0  0  0
   23.2951  -13.1713  -21.1849 C   0  0  2  0  0  0  0  0  0  0  0  0
   23.6635  -13.5298  -19.7942 N   0  0  0  0  0  0  0  0  0  0  0  0
   22.2488  -12.0895  -21.0111 C   0  0  0  0  0  0  0  0  0  0  0  0
   21.7433  -11.5658  -22.0101 O   0  0  0  0  0  0  0  0  0  0  0  0
   21.8234  -11.6494  -19.7254 N   0  0  0  0  0  0  0  0  0  0  0  0
   20.8873  -10.5220  -19.5844 C   0  0  1  0  0  0  0  0  0  0  0  0
   19.7903  -10.8645  -18.6429 C   0  0  0  0  0  0  0  0  0  0  0  0
   18.8287   -9.7225  -18.4836 C   0  0  0  0  0  0  0  0  0  0  0  0
   17.7998  -10.0266  -17.3926 C   0  0  0  0  0  0  0  0  0  0  0  0
   16.7821   -8.9290  -17.2485 C   0  0  0  0  0  0  0  0  0  0  0  0
   15.7550   -9.2718  -16.2791 N   0  0  0  0  0  0  0  0  0  0  0  0
   21.6252   -9.3156  -19.1557 C   0  0  0  0  0  0  0  0  0  0  0  0
   21.2047   -8.0121  -19.3085 O   0  0  0  0  0  0  0  0  0  0  0  0
   22.7673   -9.4497  -18.5875 O   0  0  0  0  0  0  0  0  0  0  0  0
  2  1  1  1
  2  4  1  0
  3  2  1  0
  4  5  1  0
  5  6  1  6
  7  5  1  0
  7  8  2  0
  9 10  1  0
 10 11  2  0
 10 12  1  0
 13 12  1  1
 13 14  1  0
 13 15  1  0
 14  7  1  0
 15 17  1  0
 16 15  2  0
 17 18  1  0
 18 24  1  0
 18 19  1  1
 20 19  1  0
 21 20  1  0
 22 21  1  0
 23 22  1  0
 24 26  2  0
 24 25  1  0
M  END
$$$$
