LNK.pdb
     RDKit          3D

 26 25  0  0  1  0  0  0  0  0999 V2000
   21.4516  -11.4078  -16.9988 C   0  0  0  0  0  0  0  0  0  0  0  0
   20.7476  -12.1548  -15.8860 C   0  0  1  0  0  0  0  0  0  0  0  0
   21.7574  -12.5459  -14.8673 C   0  0  0  0  0  0  0  0  0  0  0  0
   19.5768  -11.3935  -15.3735 C   0  0  0  0  0  0  0  0  0  0  0  0
   18.8358  -12.0092  -14.2512 C   0  0  2  0  0  0  0  0  0  0  0  0
   18.0494  -13.1589  -14.5782 N   0  0  0  0  0  0  0  0  0  0  0  0
   17.8910  -10.9892  -13.7032 C   0  0  0  0  0  0  0  0  0  0  0  0
   16.7934  -10.8622  -14.3021 O   0  0  0  0  0  0  0  0  0  0  0  0
   15.6295   -7.2744  -10.8979 N   0  0  0  0  0  0  0  0  0  0  0  0
   16.5336   -7.9905  -10.0413 C   0  0  0  0  0  0  0  0  0  0  0  0
   16.5021   -7.7078   -8.8337 O   0  0  0  0  0  0  0  0  0  0  0  0
   17.4364   -8.9987  -10.5951 C   0  0  0  0  0  0  0  0  0  0  0  0
   17.2334   -9.1730  -12.0570 C   0  0  2  0  0  0  0  0  0  0  0  0
   18.1658  -10.1953  -12.5900 N   0  0  0  0  0  0  0  0  0  0  0  0
   17.6712   -7.8956  -12.7439 C   0  0  0  0  0  0  0  0  0  0  0  0
   18.8638   -7.5717  -12.7234 O   0  0  0  0  0  0  0  0  0  0  0  0
   16.7486   -7.0459  -13.4181 N   0  0  0  0  0  0  0  0  0  0  0  0
   17.2112   -5.8449  -14.1329 C   0  0  1  0  0  0  0  0  0  0  0  0
   16.7208   -5.8467  -15.5353 C   0  0  0  0  0  0  0  0  0  0  0  0
   17.2402   -4.6628  -16.2988 C   0  0  0  0  0  0  0  0  0  0  0  0
   16.8921   -4.7788  -17.7843 C   0  0  0  0  0  0  0  0  0  0  0  0
   17.4713   -3.6519  -18.5940 C   0  0  0  0  0  0  0  0  0  0  0  0
   17.1856   -3.8054  -20.0106 N   0  0  0  0  0  0  0  0  0  0  0  0
   16.7817   -4.6356  -13.4003 C   0  0  0  0  0  0  0  0  0  0  0  0
   15.6976   -4.5436  -12.5543 O   0  0  0  0  0  0  0  0  0  0  0  0
   17.4501   -3.5497  -13.5388 O   0  0  0  0  0  0  0  0  0  0  0  0
  2  1  1  6
  2  4  1  0
  3  2  1  0
  4  5  1  0
  5  6  1  6
  7  5  1  0
  7  8  2  0
  9 10  1  0
 10 11  2  0
 10 12  1  0
 13 12  1  1
 13 14  1  0
 13 15  1  0
 14  7  1  0
 15 17  1  0
 16 15  2  0
 17 18  1  0
 18 24  1  0
 18 19  1  6
 20 19  1  0
 21 20  1  0
 22 21  1  0
 23 22  1  0
 24 26  2  0
 24 25  1  0
M  END
$$$$
