LNK.pdb
     RDKit          3D

 26 25  0  0  1  0  0  0  0  0999 V2000
   29.5061  -20.7066   -4.8303 C   0  0  0  0  0  0  0  0  0  0  0  0
   28.4725  -19.8773   -5.5625 C   0  0  1  0  0  0  0  0  0  0  0  0
   28.6620  -18.4504   -5.1903 C   0  0  0  0  0  0  0  0  0  0  0  0
   28.4736  -20.1683   -7.0214 C   0  0  0  0  0  0  0  0  0  0  0  0
   27.5171  -19.3958   -7.8438 C   0  0  2  0  0  0  0  0  0  0  0  0
   26.2306  -19.1711   -7.2595 N   0  0  0  0  0  0  0  0  0  0  0  0
   27.2824  -20.1485   -9.1134 C   0  0  0  0  0  0  0  0  0  0  0  0
   28.2993  -20.6185   -9.6830 O   0  0  0  0  0  0  0  0  0  0  0  0
   27.0046  -22.6996  -12.7569 N   0  0  0  0  0  0  0  0  0  0  0  0
   26.0664  -23.2501  -11.8185 C   0  0  0  0  0  0  0  0  0  0  0  0
   25.8714  -24.4741  -11.8753 O   0  0  0  0  0  0  0  0  0  0  0  0
   25.3886  -22.3844  -10.8546 C   0  0  0  0  0  0  0  0  0  0  0  0
   25.8024  -20.9650  -11.0064 C   0  0  2  0  0  0  0  0  0  0  0  0
   26.0222  -20.3458   -9.6772 N   0  0  0  0  0  0  0  0  0  0  0  0
   24.6263  -20.1946  -11.5707 C   0  0  0  0  0  0  0  0  0  0  0  0
   23.7241  -19.8205  -10.8133 O   0  0  0  0  0  0  0  0  0  0  0  0
   24.5215  -19.8838  -12.9565 N   0  0  0  0  0  0  0  0  0  0  0  0
   23.3645  -19.1379  -13.4780 C   0  0  1  0  0  0  0  0  0  0  0  0
   23.6541  -18.5979  -14.8313 C   0  0  0  0  0  0  0  0  0  0  0  0
   22.4631  -17.8842  -15.4027 C   0  0  0  0  0  0  0  0  0  0  0  0
   22.7594  -17.3780  -16.8160 C   0  0  0  0  0  0  0  0  0  0  0  0
   21.5888  -16.6499  -17.4166 C   0  0  0  0  0  0  0  0  0  0  0  0
   21.8999  -16.1280  -18.7367 N   0  0  0  0  0  0  0  0  0  0  0  0
   22.1710  -20.0093  -13.4759 C   0  0  0  0  0  0  0  0  0  0  0  0
   20.8900  -19.6274  -13.1405 O   0  0  0  0  0  0  0  0  0  0  0  0
   22.2957  -21.2420  -13.8078 O   0  0  0  0  0  0  0  0  0  0  0  0
  2  1  1  1
  2  4  1  0
  3  2  1  0
  4  5  1  0
  5  6  1  1
  7  5  1  0
  7  8  2  0
  9 10  1  0
 10 11  2  0
 10 12  1  0
 13 12  1  1
 13 14  1  0
 13 15  1  0
 14  7  1  0
 15 17  1  0
 16 15  2  0
 17 18  1  0
 18 24  1  0
 18 19  1  6
 20 19  1  0
 21 20  1  0
 22 21  1  0
 23 22  1  0
 24 26  2  0
 24 25  1  0
M  END
$$$$
