LNK.pdb
     RDKit          3D

 26 25  0  0  1  0  0  0  0  0999 V2000
   28.8389  -21.6787   -9.1957 C   0  0  0  0  0  0  0  0  0  0  0  0
   27.4057  -21.3281   -9.5345 C   0  0  1  0  0  0  0  0  0  0  0  0
   26.8654  -20.4571   -8.4575 C   0  0  0  0  0  0  0  0  0  0  0  0
   27.2875  -20.7919  -10.9171 C   0  0  0  0  0  0  0  0  0  0  0  0
   25.9203  -20.4670  -11.3787 C   0  0  2  0  0  0  0  0  0  0  0  0
   24.9431  -21.4987  -11.2114 N   0  0  0  0  0  0  0  0  0  0  0  0
   25.9820  -20.1724  -12.8425 C   0  0  0  0  0  0  0  0  0  0  0  0
   26.8549  -19.3475  -13.2124 O   0  0  0  0  0  0  0  0  0  0  0  0
   27.9084  -21.0693  -14.7473 N   0  0  0  0  0  0  0  0  0  0  0  0
   27.1877  -22.0048  -15.5656 C   0  0  0  0  0  0  0  0  0  0  0  0
   27.8105  -23.0061  -15.9513 O   0  0  0  0  0  0  0  0  0  0  0  0
   25.7879  -21.7614  -15.9111 C   0  0  0  0  0  0  0  0  0  0  0  0
   25.2642  -20.5381  -15.2492 C   0  0  2  0  0  0  0  0  0  0  0  0
   25.1381  -20.7549  -13.7878 N   0  0  0  0  0  0  0  0  0  0  0  0
   23.8341  -20.3367  -15.7065 C   0  0  0  0  0  0  0  0  0  0  0  0
   23.3704  -19.1926  -15.7684 O   0  0  0  0  0  0  0  0  0  0  0  0
   22.9962  -21.4291  -16.0703 N   0  0  0  0  0  0  0  0  0  0  0  0
   21.6110  -21.5150  -15.5791 C   0  0  1  0  0  0  0  0  0  0  0  0
   21.5499  -21.2177  -14.1248 C   0  0  0  0  0  0  0  0  0  0  0  0
   20.1476  -21.3323  -13.6007 C   0  0  0  0  0  0  0  0  0  0  0  0
   20.0817  -22.3233  -12.4367 C   0  0  0  0  0  0  0  0  0  0  0  0
   18.8008  -23.1110  -12.4321 C   0  0  0  0  0  0  0  0  0  0  0  0
   18.6867  -23.9452  -11.2476 N   0  0  0  0  0  0  0  0  0  0  0  0
   20.7494  -20.6067  -16.3641 C   0  0  0  0  0  0  0  0  0  0  0  0
   21.0176  -19.2868  -16.6557 O   0  0  0  0  0  0  0  0  0  0  0  0
   19.6396  -21.0469  -16.8330 O   0  0  0  0  0  0  0  0  0  0  0  0
  2  1  1  1
  2  4  1  0
  3  2  1  0
  4  5  1  0
  5  6  1  6
  7  5  1  0
  7  8  2  0
  9 10  1  0
 10 11  2  0
 10 12  1  0
 13 12  1  6
 13 14  1  0
 13 15  1  0
 14  7  1  0
 15 17  1  0
 16 15  2  0
 17 18  1  0
 18 24  1  0
 18 19  1  1
 20 19  1  0
 21 20  1  0
 22 21  1  0
 23 22  1  0
 24 26  2  0
 24 25  1  0
M  END
$$$$
