LNK.pdb
     RDKit          3D

 26 25  0  0  1  0  0  0  0  0999 V2000
   28.6383  -19.4330  -13.6390 C   0  0  0  0  0  0  0  0  0  0  0  0
   27.7240  -20.6393  -13.6084 C   0  0  1  0  0  0  0  0  0  0  0  0
   28.3814  -21.7099  -12.8133 C   0  0  0  0  0  0  0  0  0  0  0  0
   26.3483  -20.2703  -13.1790 C   0  0  0  0  0  0  0  0  0  0  0  0
   25.3948  -21.3877  -13.0052 C   0  0  2  0  0  0  0  0  0  0  0  0
   25.2225  -22.2435  -14.1388 N   0  0  0  0  0  0  0  0  0  0  0  0
   24.0511  -20.8086  -12.7009 C   0  0  0  0  0  0  0  0  0  0  0  0
   24.0251  -19.8453  -11.8942 O   0  0  0  0  0  0  0  0  0  0  0  0
   19.2703  -19.0910  -12.8924 N   0  0  0  0  0  0  0  0  0  0  0  0
   19.9195  -19.1506  -14.1727 C   0  0  0  0  0  0  0  0  0  0  0  0
   19.3781  -18.5344  -15.1035 O   0  0  0  0  0  0  0  0  0  0  0  0
   21.1580  -19.9095  -14.3403 C   0  0  0  0  0  0  0  0  0  0  0  0
   21.5511  -20.6020  -13.0853 C   0  0  2  0  0  0  0  0  0  0  0  0
   22.8603  -21.2768  -13.2556 N   0  0  0  0  0  0  0  0  0  0  0  0
   20.5841  -21.7467  -12.8622 C   0  0  0  0  0  0  0  0  0  0  0  0
   20.6731  -22.7631  -13.5597 O   0  0  0  0  0  0  0  0  0  0  0  0
   19.5656  -21.6926  -11.8685 N   0  0  0  0  0  0  0  0  0  0  0  0
   18.6707  -22.8391  -11.6407 C   0  0  1  0  0  0  0  0  0  0  0  0
   18.1834  -22.8547  -10.2374 C   0  0  0  0  0  0  0  0  0  0  0  0
   18.7348  -24.0274   -9.4790 C   0  0  0  0  0  0  0  0  0  0  0  0
   18.2469  -24.0147   -8.0288 C   0  0  0  0  0  0  0  0  0  0  0  0
   18.8199  -25.1497   -7.2259 C   0  0  0  0  0  0  0  0  0  0  0  0
   18.3979  -25.0924   -5.8365 N   0  0  0  0  0  0  0  0  0  0  0  0
   17.5566  -22.7988  -12.6107 C   0  0  0  0  0  0  0  0  0  0  0  0
   16.9771  -23.8883  -13.2242 O   0  0  0  0  0  0  0  0  0  0  0  0
   17.0557  -21.6652  -12.9414 O   0  0  0  0  0  0  0  0  0  0  0  0
  2  1  1  1
  2  4  1  0
  3  2  1  0
  4  5  1  0
  5  6  1  6
  7  5  1  0
  7  8  2  0
  9 10  1  0
 10 11  2  0
 10 12  1  0
 13 12  1  6
 13 14  1  0
 13 15  1  0
 14  7  1  0
 15 17  1  0
 16 15  2  0
 17 18  1  0
 18 24  1  0
 18 19  1  1
 20 19  1  0
 21 20  1  0
 22 21  1  0
 23 22  1  0
 24 26  2  0
 24 25  1  0
M  END
$$$$
