LNK.pdb
     RDKit          3D

 26 25  0  0  1  0  0  0  0  0999 V2000
   27.7137  -36.0811  -10.9971 C   0  0  0  0  0  0  0  0  0  0  0  0
   26.5568  -35.1343  -11.2362 C   0  0  1  0  0  0  0  0  0  0  0  0
   25.4163  -35.9123  -11.7881 C   0  0  0  0  0  0  0  0  0  0  0  0
   26.2574  -34.3221  -10.0264 C   0  0  0  0  0  0  0  0  0  0  0  0
   25.0981  -33.4085  -10.1215 C   0  0  2  0  0  0  0  0  0  0  0  0
   25.3030  -32.2173  -10.8871 N   0  0  0  0  0  0  0  0  0  0  0  0
   24.7382  -32.9693   -8.7391 C   0  0  0  0  0  0  0  0  0  0  0  0
   25.0241  -31.7839   -8.4349 O   0  0  0  0  0  0  0  0  0  0  0  0
   22.8923  -32.4754   -3.9780 N   0  0  0  0  0  0  0  0  0  0  0  0
   22.3960  -31.7948   -5.1419 C   0  0  0  0  0  0  0  0  0  0  0  0
   21.6551  -30.8192   -4.9457 O   0  0  0  0  0  0  0  0  0  0  0  0
   22.7636  -32.2533   -6.4808 C   0  0  0  0  0  0  0  0  0  0  0  0
   23.7603  -33.3546   -6.4291 C   0  0  2  0  0  0  0  0  0  0  0  0
   24.1180  -33.7926   -7.7997 N   0  0  0  0  0  0  0  0  0  0  0  0
   23.0817  -34.5694   -5.8301 C   0  0  0  0  0  0  0  0  0  0  0  0
   22.1145  -35.0743   -6.4108 O   0  0  0  0  0  0  0  0  0  0  0  0
   23.5220  -35.1556   -4.6093 N   0  0  0  0  0  0  0  0  0  0  0  0
   22.8379  -36.3311   -4.0459 C   0  0  1  0  0  0  0  0  0  0  0  0
   23.6654  -36.9627   -2.9859 C   0  0  0  0  0  0  0  0  0  0  0  0
   23.0102  -38.2001   -2.4439 C   0  0  0  0  0  0  0  0  0  0  0  0
   23.8737  -38.8396   -1.3546 C   0  0  0  0  0  0  0  0  0  0  0  0
   23.2588  -40.0977   -0.8066 C   0  0  0  0  0  0  0  0  0  0  0  0
   24.1329  -40.7491    0.1544 N   0  0  0  0  0  0  0  0  0  0  0  0
   21.5058  -35.9358   -3.5430 C   0  0  0  0  0  0  0  0  0  0  0  0
   21.2018  -34.7589   -2.8936 O   0  0  0  0  0  0  0  0  0  0  0  0
   20.5145  -36.7340   -3.7027 O   0  0  0  0  0  0  0  0  0  0  0  0
  2  1  1  1
  2  4  1  0
  3  2  1  0
  4  5  1  0
  5  6  1  6
  7  5  1  0
  7  8  2  0
  9 10  1  0
 10 11  2  0
 10 12  1  0
 13 12  1  6
 13 14  1  0
 13 15  1  0
 14  7  1  0
 15 17  1  0
 16 15  2  0
 17 18  1  0
 18 24  1  0
 18 19  1  1
 20 19  1  0
 21 20  1  0
 22 21  1  0
 23 22  1  0
 24 26  2  0
 24 25  1  0
M  END
$$$$
