LNK.pdb
     RDKit          3D

 26 25  0  0  1  0  0  0  0  0999 V2000
   29.3572  -20.9332  -18.7680 C   0  0  0  0  0  0  0  0  0  0  0  0
   28.3564  -19.9474  -18.2037 C   0  0  1  0  0  0  0  0  0  0  0  0
   27.7518  -19.1906  -19.3316 C   0  0  0  0  0  0  0  0  0  0  0  0
   27.3941  -20.6125  -17.2847 C   0  0  0  0  0  0  0  0  0  0  0  0
   26.3398  -19.7516  -16.7058 C   0  0  2  0  0  0  0  0  0  0  0  0
   26.7848  -18.5172  -16.1355 N   0  0  0  0  0  0  0  0  0  0  0  0
   25.6711  -20.5118  -15.6065 C   0  0  0  0  0  0  0  0  0  0  0  0
   25.2818  -21.6740  -15.8843 O   0  0  0  0  0  0  0  0  0  0  0  0
   26.6123  -21.6910  -10.3215 N   0  0  0  0  0  0  0  0  0  0  0  0
   26.4497  -21.0599  -11.6018 C   0  0  0  0  0  0  0  0  0  0  0  0
   27.3969  -21.1564  -12.3973 O   0  0  0  0  0  0  0  0  0  0  0  0
   25.2156  -20.3446  -11.9234 C   0  0  0  0  0  0  0  0  0  0  0  0
   24.7031  -20.7126  -13.2691 C   0  0  2  0  0  0  0  0  0  0  0  0
   25.4656  -20.0030  -14.3243 N   0  0  0  0  0  0  0  0  0  0  0  0
   23.3013  -20.1538  -13.4026 C   0  0  0  0  0  0  0  0  0  0  0  0
   23.1383  -19.0287  -13.8875 O   0  0  0  0  0  0  0  0  0  0  0  0
   22.1533  -20.8853  -12.9844 N   0  0  0  0  0  0  0  0  0  0  0  0
   20.8001  -20.4532  -13.3707 C   0  0  1  0  0  0  0  0  0  0  0  0
   20.6656  -20.4066  -14.8495 C   0  0  0  0  0  0  0  0  0  0  0  0
   19.3224  -19.8767  -15.2610 C   0  0  0  0  0  0  0  0  0  0  0  0
   19.1873  -19.8629  -16.7852 C   0  0  0  0  0  0  0  0  0  0  0  0
   17.8757  -19.2809  -17.2347 C   0  0  0  0  0  0  0  0  0  0  0  0
   17.8104  -19.1559  -18.6811 N   0  0  0  0  0  0  0  0  0  0  0  0
   19.7989  -21.3482  -12.7542 C   0  0  0  0  0  0  0  0  0  0  0  0
   18.6189  -20.9560  -12.1599 O   0  0  0  0  0  0  0  0  0  0  0  0
   20.0103  -22.6133  -12.7477 O   0  0  0  0  0  0  0  0  0  0  0  0
  2  1  1  6
  2  4  1  0
  3  2  1  0
  4  5  1  0
  5  6  1  1
  7  5  1  0
  7  8  2  0
  9 10  1  0
 10 11  2  0
 10 12  1  0
 13 12  1  1
 13 14  1  0
 13 15  1  0
 14  7  1  0
 15 17  1  0
 16 15  2  0
 17 18  1  0
 18 24  1  0
 18 19  1  6
 20 19  1  0
 21 20  1  0
 22 21  1  0
 23 22  1  0
 24 26  2  0
 24 25  1  0
M  END
$$$$
