LNK.pdb
     RDKit          3D

 26 25  0  0  1  0  0  0  0  0999 V2000
   26.0894  -11.3567  -15.3746 C   0  0  0  0  0  0  0  0  0  0  0  0
   24.7202  -11.2280  -16.0076 C   0  0  1  0  0  0  0  0  0  0  0  0
   24.0815  -12.5704  -16.0283 C   0  0  0  0  0  0  0  0  0  0  0  0
   23.9239  -10.1453  -15.3697 C   0  0  0  0  0  0  0  0  0  0  0  0
   22.5260  -10.0018  -15.8314 C   0  0  2  0  0  0  0  0  0  0  0  0
   22.3497   -9.8089  -17.2381 N   0  0  0  0  0  0  0  0  0  0  0  0
   21.9358   -8.8040  -15.1602 C   0  0  0  0  0  0  0  0  0  0  0  0
   22.0228   -8.7635  -13.9072 O   0  0  0  0  0  0  0  0  0  0  0  0
   24.1136   -5.5322  -14.5334 N   0  0  0  0  0  0  0  0  0  0  0  0
   22.7137   -5.3364  -14.2764 C   0  0  0  0  0  0  0  0  0  0  0  0
   22.3875   -5.1081  -13.1013 O   0  0  0  0  0  0  0  0  0  0  0  0
   21.7432   -5.4090  -15.3676 C   0  0  0  0  0  0  0  0  0  0  0  0
   20.7940   -6.5377  -15.1833 C   0  0  2  0  0  0  0  0  0  0  0  0
   21.3109   -7.7608  -15.8430 N   0  0  0  0  0  0  0  0  0  0  0  0
   19.5329   -6.2175  -15.9594 C   0  0  0  0  0  0  0  0  0  0  0  0
   19.5604   -6.2252  -17.1950 O   0  0  0  0  0  0  0  0  0  0  0  0
   18.3051   -5.9038  -15.3098 N   0  0  0  0  0  0  0  0  0  0  0  0
   17.1103   -5.5387  -16.0885 C   0  0  1  0  0  0  0  0  0  0  0  0
   15.8953   -6.1723  -15.5146 C   0  0  0  0  0  0  0  0  0  0  0  0
   15.9382   -7.6666  -15.6553 C   0  0  0  0  0  0  0  0  0  0  0  0
   14.6683   -8.3027  -15.0860 C   0  0  0  0  0  0  0  0  0  0  0  0
   14.5966   -9.7784  -15.3660 C   0  0  0  0  0  0  0  0  0  0  0  0
   13.3113  -10.3369  -14.9811 N   0  0  0  0  0  0  0  0  0  0  0  0
   16.9884   -4.0673  -16.1490 C   0  0  0  0  0  0  0  0  0  0  0  0
   16.3761   -3.3459  -17.1509 O   0  0  0  0  0  0  0  0  0  0  0  0
   17.4873   -3.3588  -15.2033 O   0  0  0  0  0  0  0  0  0  0  0  0
  2  1  1  1
  2  4  1  0
  3  2  1  0
  4  5  1  0
  5  6  1  6
  7  5  1  0
  7  8  2  0
  9 10  1  0
 10 11  2  0
 10 12  1  0
 13 12  1  6
 13 14  1  0
 13 15  1  0
 14  7  1  0
 15 17  1  0
 16 15  2  0
 17 18  1  0
 18 24  1  0
 18 19  1  1
 20 19  1  0
 21 20  1  0
 22 21  1  0
 23 22  1  0
 24 26  2  0
 24 25  1  0
M  END
$$$$
