LNK.pdb
     RDKit          3D

 26 25  0  0  1  0  0  0  0  0999 V2000
   20.9363  -33.2559  -10.8406 C   0  0  0  0  0  0  0  0  0  0  0  0
   22.4027  -32.9292  -11.0273 C   0  0  1  0  0  0  0  0  0  0  0  0
   22.5277  -31.4813  -11.3413 C   0  0  0  0  0  0  0  0  0  0  0  0
   23.2195  -33.4130   -9.8818 C   0  0  0  0  0  0  0  0  0  0  0  0
   24.6651  -33.1039   -9.9317 C   0  0  2  0  0  0  0  0  0  0  0  0
   25.3942  -33.6998  -11.0089 N   0  0  0  0  0  0  0  0  0  0  0  0
   25.2902  -33.6006   -8.6684 C   0  0  0  0  0  0  0  0  0  0  0  0
   26.0213  -34.6180   -8.7667 O   0  0  0  0  0  0  0  0  0  0  0  0
   27.1422  -34.2865   -3.9587 N   0  0  0  0  0  0  0  0  0  0  0  0
   27.2399  -32.9089   -4.3548 C   0  0  0  0  0  0  0  0  0  0  0  0
   27.9981  -32.1877   -3.6882 O   0  0  0  0  0  0  0  0  0  0  0  0
   26.4702  -32.4094   -5.4933 C   0  0  0  0  0  0  0  0  0  0  0  0
   25.7203  -33.5000   -6.1693 C   0  0  2  0  0  0  0  0  0  0  0  0
   25.1028  -33.0030   -7.4224 N   0  0  0  0  0  0  0  0  0  0  0  0
   24.5314  -33.8561   -5.3005 C   0  0  0  0  0  0  0  0  0  0  0  0
   23.3953  -33.5274   -5.6594 O   0  0  0  0  0  0  0  0  0  0  0  0
   24.6775  -34.5620   -4.0724 N   0  0  0  0  0  0  0  0  0  0  0  0
   23.7870  -35.6850   -3.7361 C   0  0  1  0  0  0  0  0  0  0  0  0
   23.7764  -36.6924   -4.8279 C   0  0  0  0  0  0  0  0  0  0  0  0
   22.3782  -36.9838   -5.2909 C   0  0  0  0  0  0  0  0  0  0  0  0
   22.2651  -36.8292   -6.8090 C   0  0  0  0  0  0  0  0  0  0  0  0
   20.8953  -37.1859   -7.3167 C   0  0  0  0  0  0  0  0  0  0  0  0
   20.8272  -37.1268   -8.7671 N   0  0  0  0  0  0  0  0  0  0  0  0
   24.1990  -36.2751   -2.4455 C   0  0  0  0  0  0  0  0  0  0  0  0
   25.2669  -35.8705   -1.6741 O   0  0  0  0  0  0  0  0  0  0  0  0
   23.5296  -37.2580   -1.9649 O   0  0  0  0  0  0  0  0  0  0  0  0
  2  1  1  1
  2  4  1  0
  3  2  1  0
  4  5  1  0
  5  6  1  6
  7  5  1  0
  7  8  2  0
  9 10  1  0
 10 11  2  0
 10 12  1  0
 13 12  1  1
 13 14  1  0
 13 15  1  0
 14  7  1  0
 15 17  1  0
 16 15  2  0
 17 18  1  0
 18 24  1  0
 18 19  1  6
 20 19  1  0
 21 20  1  0
 22 21  1  0
 23 22  1  0
 24 26  2  0
 24 25  1  0
M  END
$$$$
