LNK.pdb
     RDKit          3D

 26 25  0  0  1  0  0  0  0  0999 V2000
   25.0923  -11.7607  -14.3666 C   0  0  0  0  0  0  0  0  0  0  0  0
   24.0308  -11.3147  -15.3495 C   0  0  1  0  0  0  0  0  0  0  0  0
   23.1306  -12.4651  -15.6265 C   0  0  0  0  0  0  0  0  0  0  0  0
   23.3601  -10.0657  -14.8986 C   0  0  0  0  0  0  0  0  0  0  0  0
   22.3003   -9.5354  -15.7837 C   0  0  2  0  0  0  0  0  0  0  0  0
   22.6756   -9.3200  -17.1475 N   0  0  0  0  0  0  0  0  0  0  0  0
   21.8672   -8.2095  -15.2470 C   0  0  0  0  0  0  0  0  0  0  0  0
   21.4690   -8.1898  -14.0552 O   0  0  0  0  0  0  0  0  0  0  0  0
   22.9260   -2.1907  -15.8579 N   0  0  0  0  0  0  0  0  0  0  0  0
   22.2189   -3.3493  -15.3870 C   0  0  0  0  0  0  0  0  0  0  0  0
   21.4184   -3.1756  -14.4553 O   0  0  0  0  0  0  0  0  0  0  0  0
   22.4529   -4.6579  -15.9962 C   0  0  0  0  0  0  0  0  0  0  0  0
   21.5570   -5.6970  -15.4247 C   0  0  2  0  0  0  0  0  0  0  0  0
   21.8845   -7.0286  -15.9887 N   0  0  0  0  0  0  0  0  0  0  0  0
   20.1532   -5.4299  -15.9279 C   0  0  0  0  0  0  0  0  0  0  0  0
   19.8101   -5.8642  -17.0331 O   0  0  0  0  0  0  0  0  0  0  0  0
   19.2059   -4.6882  -15.1663 N   0  0  0  0  0  0  0  0  0  0  0  0
   17.8452   -4.4521  -15.6762 C   0  0  1  0  0  0  0  0  0  0  0  0
   16.9898   -5.6481  -15.4642 C   0  0  0  0  0  0  0  0  0  0  0  0
   16.8216   -6.4332  -16.7329 C   0  0  0  0  0  0  0  0  0  0  0  0
   15.9884   -7.6926  -16.4863 C   0  0  0  0  0  0  0  0  0  0  0  0
   15.8473   -8.5330  -17.7252 C   0  0  0  0  0  0  0  0  0  0  0  0
   15.0944   -9.7490  -17.4673 N   0  0  0  0  0  0  0  0  0  0  0  0
   17.2775   -3.2477  -15.0352 C   0  0  0  0  0  0  0  0  0  0  0  0
   16.8040   -2.1300  -15.6877 O   0  0  0  0  0  0  0  0  0  0  0  0
   17.2030   -3.1961  -13.7557 O   0  0  0  0  0  0  0  0  0  0  0  0
  2  1  1  1
  2  4  1  0
  3  2  1  0
  4  5  1  0
  5  6  1  6
  7  5  1  0
  7  8  2  0
  9 10  1  0
 10 11  2  0
 10 12  1  0
 13 12  1  6
 13 14  1  0
 13 15  1  0
 14  7  1  0
 15 17  1  0
 16 15  2  0
 17 18  1  0
 18 24  1  0
 18 19  1  1
 20 19  1  0
 21 20  1  0
 22 21  1  0
 23 22  1  0
 24 26  2  0
 24 25  1  0
M  END
$$$$
