PHY.pdb
     RDKit          3D

 30 32  0  0  1  0  0  0  0  0999 V2000
   18.4917   -9.6811  -16.0672 N   0  0  0  0  0  0  0  0  0  0  0  0
   17.8476  -10.8811  -16.5134 C   0  0  0  0  0  0  0  0  0  0  0  0
   18.3636  -12.0149  -15.6624 C   0  0  0  0  0  0  0  0  0  0  0  0
   19.6102  -11.4850  -15.0253 C   0  0  0  0  0  0  0  0  0  0  0  0
   19.4620   -9.9957  -15.0731 C   0  0  1  0  0  0  0  0  0  0  0  0
   20.7558   -9.3180  -15.4015 C   0  0  0  0  0  0  0  0  0  0  0  0
   21.7378   -9.4477  -14.6181 O   0  0  0  0  0  0  0  0  0  0  0  0
   20.9288   -8.5368  -16.5525 N   0  0  0  0  0  0  0  0  0  0  0  0
   22.2792   -7.9052  -16.8000 C   0  0  1  0  0  0  0  0  0  0  0  0
   22.7308   -8.6011  -18.0480 C   0  0  0  0  0  0  0  0  0  0  0  0
   21.8444   -8.5952  -19.1967 C   0  0  0  0  0  0  0  0  0  0  0  0
   21.2164   -9.7421  -19.7084 C   0  0  0  0  0  0  0  0  0  0  0  0
   20.4910   -9.3583  -20.7461 N   0  0  0  0  0  0  0  0  0  0  0  0
   20.6121   -8.0313  -20.9365 C   0  0  0  0  0  0  0  0  0  0  0  0
   21.4429   -7.6111  -19.9727 N   0  0  0  0  0  0  0  0  0  0  0  0
   22.0346   -6.4569  -16.9368 C   0  0  0  0  0  0  0  0  0  0  0  0
   23.0278   -5.6499  -17.1255 O   0  0  0  0  0  0  0  0  0  0  0  0
   14.3384   -3.7798  -17.7892 O   0  0  0  0  0  0  0  0  0  0  0  0
   15.7188   -3.8775  -17.9619 C   0  0  0  0  0  0  0  0  0  0  0  0
   16.3307   -3.5148  -19.1392 C   0  0  0  0  0  0  0  0  0  0  0  0
   17.6831   -3.6141  -19.2987 C   0  0  0  0  0  0  0  0  0  0  0  0
   18.4437   -4.0966  -18.2323 C   0  0  0  0  0  0  0  0  0  0  0  0
   19.8972   -4.2324  -18.3471 C   0  0  0  0  0  0  0  0  0  0  0  0
   20.5441   -4.4400  -17.0022 C   0  0  2  0  0  0  0  0  0  0  0  0
   20.7467   -5.9025  -16.8778 N   0  0  0  0  0  0  0  0  0  0  0  0
   19.6998   -3.9497  -15.9155 C   0  0  0  0  0  0  0  0  0  0  0  0
   19.0970   -4.7088  -15.1251 O   0  0  0  0  0  0  0  0  0  0  0  0
   17.8392   -4.4655  -17.0403 C   0  0  0  0  0  0  0  0  0  0  0  0
   16.4777   -4.3488  -16.9249 C   0  0  0  0  0  0  0  0  0  0  0  0
   19.5493   -2.5656  -15.7386 O   0  0  0  0  0  0  0  0  0  0  0  0
  1  2  1  0
  1  5  1  0
  2  3  1  0
  3  4  1  0
  5  4  1  0
  5  6  1  6
  6  7  2  0
  8  6  1  0
  9  8  1  0
  9 10  1  6
 11 10  1  0
 11 15  1  0
 12 13  1  0
 12 11  2  0
 13 14  1  0
 14 15  2  0
 16  9  1  0
 17 16  2  0
 18 19  1  0
 19 29  2  0
 19 20  1  0
 20 21  2  0
 21 22  1  0
 22 23  1  0
 24 23  1  6
 24 25  1  0
 25 16  1  0
 26 24  1  0
 26 30  1  0
 27 26  2  0
 28 22  2  0
 29 28  1  0
M  END
$$$$
