PHY.pdb
     RDKit          3D

 30 32  0  0  1  0  0  0  0  0999 V2000
   27.5860  -22.5936  -17.9843 N   0  0  0  0  0  0  0  0  0  0  0  0
   27.6887  -22.4045  -19.4013 C   0  0  0  0  0  0  0  0  0  0  0  0
   28.7280  -21.3377  -19.6414 C   0  0  0  0  0  0  0  0  0  0  0  0
   28.8890  -20.6495  -18.3218 C   0  0  0  0  0  0  0  0  0  0  0  0
   28.4029  -21.6411  -17.3104 C   0  0  1  0  0  0  0  0  0  0  0  0
   27.6139  -20.9837  -16.2212 C   0  0  0  0  0  0  0  0  0  0  0  0
   28.1366  -20.0424  -15.5612 O   0  0  0  0  0  0  0  0  0  0  0  0
   26.3061  -21.3701  -15.8968 N   0  0  0  0  0  0  0  0  0  0  0  0
   25.5610  -20.5830  -14.8437 C   0  0  1  0  0  0  0  0  0  0  0  0
   24.1524  -20.6255  -15.3533 C   0  0  0  0  0  0  0  0  0  0  0  0
   23.1001  -20.0931  -14.5082 C   0  0  0  0  0  0  0  0  0  0  0  0
   22.3781  -20.8589  -13.5786 C   0  0  0  0  0  0  0  0  0  0  0  0
   21.5108  -20.0473  -12.9959 N   0  0  0  0  0  0  0  0  0  0  0  0
   21.6284  -18.8020  -13.4930 C   0  0  0  0  0  0  0  0  0  0  0  0
   22.6050  -18.8780  -14.4075 N   0  0  0  0  0  0  0  0  0  0  0  0
   25.7933  -21.2853  -13.5674 C   0  0  0  0  0  0  0  0  0  0  0  0
   25.9396  -22.5705  -13.5556 O   0  0  0  0  0  0  0  0  0  0  0  0
   27.8566  -18.9441   -5.5034 O   0  0  0  0  0  0  0  0  0  0  0  0
   27.7106  -19.4940   -6.7767 C   0  0  0  0  0  0  0  0  0  0  0  0
   26.4849  -19.5775   -7.3954 C   0  0  0  0  0  0  0  0  0  0  0  0
   26.3521  -20.1176   -8.6424 C   0  0  0  0  0  0  0  0  0  0  0  0
   27.4968  -20.5900   -9.2866 C   0  0  0  0  0  0  0  0  0  0  0  0
   27.4155  -21.1864  -10.6215 C   0  0  0  0  0  0  0  0  0  0  0  0
   25.9866  -21.3590  -11.0672 C   0  0  2  0  0  0  0  0  0  0  0  0
   25.8718  -20.6092  -12.3400 N   0  0  0  0  0  0  0  0  0  0  0  0
   25.0461  -20.8327  -10.0810 C   0  0  0  0  0  0  0  0  0  0  0  0
   24.7661  -21.4311   -9.0189 O   0  0  0  0  0  0  0  0  0  0  0  0
   28.7382  -20.5117   -8.6739 C   0  0  0  0  0  0  0  0  0  0  0  0
   28.8242  -19.9613   -7.4208 C   0  0  0  0  0  0  0  0  0  0  0  0
   24.4206  -19.6000  -10.3234 O   0  0  0  0  0  0  0  0  0  0  0  0
  1  2  1  0
  1  5  1  0
  2  3  1  0
  3  4  1  0
  5  4  1  0
  5  6  1  1
  6  7  2  0
  8  6  1  0
  9  8  1  0
  9 10  1  6
 11 10  1  0
 11 15  1  0
 12 13  1  0
 12 11  2  0
 13 14  1  0
 14 15  2  0
 16  9  1  0
 17 16  2  0
 18 19  1  0
 19 29  2  0
 19 20  1  0
 20 21  2  0
 21 22  1  0
 22 23  1  0
 24 23  1  1
 24 25  1  0
 25 16  1  0
 26 24  1  0
 26 30  1  0
 27 26  2  0
 28 22  2  0
 29 28  1  0
M  END
$$$$
