PHY.pdb
     RDKit          3D

 30 32  0  0  1  0  0  0  0  0999 V2000
   16.8609  -18.3875    3.5604 N   0  0  0  0  0  0  0  0  0  0  0  0
   15.6524  -18.8624    2.9537 C   0  0  0  0  0  0  0  0  0  0  0  0
   14.6876  -17.7039    2.8997 C   0  0  0  0  0  0  0  0  0  0  0  0
   15.2337  -16.6995    3.8660 C   0  0  0  0  0  0  0  0  0  0  0  0
   16.6852  -17.0432    3.9971 C   0  0  1  0  0  0  0  0  0  0  0  0
   17.1641  -16.9067    5.4088 C   0  0  0  0  0  0  0  0  0  0  0  0
   16.9503  -15.8297    6.0326 O   0  0  0  0  0  0  0  0  0  0  0  0
   17.8472  -17.9320    6.0775 N   0  0  0  0  0  0  0  0  0  0  0  0
   18.2195  -17.7254    7.5274 C   0  0  1  0  0  0  0  0  0  0  0  0
   17.8630  -19.0468    8.1378 C   0  0  0  0  0  0  0  0  0  0  0  0
   16.5061  -19.2394    8.6141 C   0  0  0  0  0  0  0  0  0  0  0  0
   15.8622  -18.3777    9.5166 C   0  0  0  0  0  0  0  0  0  0  0  0
   14.6482  -18.8631    9.7192 N   0  0  0  0  0  0  0  0  0  0  0  0
   14.4681  -19.9876    9.0016 C   0  0  0  0  0  0  0  0  0  0  0  0
   15.6220  -20.1768    8.3469 N   0  0  0  0  0  0  0  0  0  0  0  0
   19.6563  -17.3912    7.5373 C   0  0  0  0  0  0  0  0  0  0  0  0
   20.4499  -17.9301    6.6695 O   0  0  0  0  0  0  0  0  0  0  0  0
   19.5464  -11.2126    4.9319 O   0  0  0  0  0  0  0  0  0  0  0  0
   20.0534  -12.0935    5.8868 C   0  0  0  0  0  0  0  0  0  0  0  0
   19.3802  -13.2368    6.2500 C   0  0  0  0  0  0  0  0  0  0  0  0
   19.8848  -14.0932    7.1860 C   0  0  0  0  0  0  0  0  0  0  0  0
   21.1116  -13.7841    7.7758 C   0  0  0  0  0  0  0  0  0  0  0  0
   21.6990  -14.6606    8.7912 C   0  0  0  0  0  0  0  0  0  0  0  0
   21.6420  -16.1081    8.3765 C   0  0  2  0  0  0  0  0  0  0  0  0
   20.2131  -16.4913    8.4592 N   0  0  0  0  0  0  0  0  0  0  0  0
   22.4465  -16.9536    9.2552 C   0  0  0  0  0  0  0  0  0  0  0  0
   21.9471  -17.7753   10.0550 O   0  0  0  0  0  0  0  0  0  0  0  0
   21.8002  -12.6349    7.4187 C   0  0  0  0  0  0  0  0  0  0  0  0
   21.2554  -11.8037    6.4738 C   0  0  0  0  0  0  0  0  0  0  0  0
   23.8453  -16.8496    9.2102 O   0  0  0  0  0  0  0  0  0  0  0  0
  1  2  1  0
  1  5  1  0
  2  3  1  0
  3  4  1  0
  5  4  1  0
  5  6  1  1
  6  7  2  0
  8  6  1  0
  9  8  1  0
  9 10  1  1
 11 10  1  0
 11 15  1  0
 12 13  1  0
 12 11  2  0
 13 14  1  0
 14 15  2  0
 16  9  1  0
 17 16  2  0
 18 19  1  0
 19 29  2  0
 19 20  1  0
 20 21  2  0
 21 22  1  0
 22 23  1  0
 24 23  1  1
 24 25  1  0
 25 16  1  0
 26 24  1  0
 26 30  1  0
 27 26  2  0
 28 22  2  0
 29 28  1  0
M  END
$$$$
