PHY.pdb
     RDKit          3D

 30 32  0  0  1  0  0  0  0  0999 V2000
   27.5567  -22.2222  -15.5432 N   0  0  0  0  0  0  0  0  0  0  0  0
   27.3620  -22.3238  -16.9595 C   0  0  0  0  0  0  0  0  0  0  0  0
   27.7431  -20.9957  -17.5651 C   0  0  0  0  0  0  0  0  0  0  0  0
   27.7477  -20.0338  -16.4181 C   0  0  0  0  0  0  0  0  0  0  0  0
   27.9230  -20.8889  -15.2013 C   0  0  1  0  0  0  0  0  0  0  0  0
   27.0789  -20.4127  -14.0604 C   0  0  0  0  0  0  0  0  0  0  0  0
   27.1834  -19.2157  -13.6716 O   0  0  0  0  0  0  0  0  0  0  0  0
   26.1671  -21.2449  -13.3961 N   0  0  0  0  0  0  0  0  0  0  0  0
   25.2669  -20.6363  -12.3459 C   0  0  1  0  0  0  0  0  0  0  0  0
   23.9340  -21.2296  -12.6884 C   0  0  0  0  0  0  0  0  0  0  0  0
   23.1190  -20.5584  -13.6835 C   0  0  0  0  0  0  0  0  0  0  0  0
   22.9897  -20.9915  -15.0129 C   0  0  0  0  0  0  0  0  0  0  0  0
   22.1752  -20.1444  -15.6207 N   0  0  0  0  0  0  0  0  0  0  0  0
   21.7696  -19.1888  -14.7638 C   0  0  0  0  0  0  0  0  0  0  0  0
   22.3677  -19.4811  -13.6008 N   0  0  0  0  0  0  0  0  0  0  0  0
   25.8247  -21.0443  -11.0426 C   0  0  0  0  0  0  0  0  0  0  0  0
   26.1730  -22.2746  -10.8467 O   0  0  0  0  0  0  0  0  0  0  0  0
   29.3589  -20.1064   -3.0229 O   0  0  0  0  0  0  0  0  0  0  0  0
   28.9164  -19.9615   -4.3374 C   0  0  0  0  0  0  0  0  0  0  0  0
   29.5041  -20.6389   -5.3803 C   0  0  0  0  0  0  0  0  0  0  0  0
   29.0636  -20.4905   -6.6641 C   0  0  0  0  0  0  0  0  0  0  0  0
   27.9925  -19.6278   -6.9029 C   0  0  0  0  0  0  0  0  0  0  0  0
   27.4814  -19.4224   -8.2596 C   0  0  0  0  0  0  0  0  0  0  0  0
   26.6234  -20.5758   -8.7111 C   0  0  2  0  0  0  0  0  0  0  0  0
   26.0057  -20.1395   -9.9853 N   0  0  0  0  0  0  0  0  0  0  0  0
   25.5903  -20.8968   -7.7294 C   0  0  0  0  0  0  0  0  0  0  0  0
   25.8017  -21.6150   -6.7274 O   0  0  0  0  0  0  0  0  0  0  0  0
   27.3912  -18.9391   -5.8605 C   0  0  0  0  0  0  0  0  0  0  0  0
   27.8669  -19.1191   -4.5869 C   0  0  0  0  0  0  0  0  0  0  0  0
   24.2966  -20.3824   -7.9061 O   0  0  0  0  0  0  0  0  0  0  0  0
  1  2  1  0
  1  5  1  0
  2  3  1  0
  3  4  1  0
  5  4  1  0
  5  6  1  1
  6  7  2  0
  8  6  1  0
  9  8  1  0
  9 10  1  6
 11 10  1  0
 11 15  1  0
 12 13  1  0
 12 11  2  0
 13 14  1  0
 14 15  2  0
 16  9  1  0
 17 16  2  0
 18 19  1  0
 19 29  2  0
 19 20  1  0
 20 21  2  0
 21 22  1  0
 22 23  1  0
 24 23  1  1
 24 25  1  0
 25 16  1  0
 26 24  1  0
 26 30  1  0
 27 26  2  0
 28 22  2  0
 29 28  1  0
M  END
$$$$
