PHY.pdb
     RDKit          3D

 30 32  0  0  1  0  0  0  0  0999 V2000
   19.2636  -12.7332  -19.7357 N   0  0  0  0  0  0  0  0  0  0  0  0
   19.0532  -14.1485  -19.8182 C   0  0  0  0  0  0  0  0  0  0  0  0
   17.5764  -14.3750  -20.0269 C   0  0  0  0  0  0  0  0  0  0  0  0
   16.9273  -13.0837  -19.6369 C   0  0  0  0  0  0  0  0  0  0  0  0
   18.0103  -12.0571  -19.7621 C   0  0  1  0  0  0  0  0  0  0  0  0
   17.9569  -11.0539  -18.6522 C   0  0  0  0  0  0  0  0  0  0  0  0
   16.9176  -10.3524  -18.5026 O   0  0  0  0  0  0  0  0  0  0  0  0
   19.0208  -10.8556  -17.7612 N   0  0  0  0  0  0  0  0  0  0  0  0
   18.8841   -9.7886  -16.6998 C   0  0  1  0  0  0  0  0  0  0  0  0
   19.6727  -10.3676  -15.5646 C   0  0  0  0  0  0  0  0  0  0  0  0
   20.0205   -9.4982  -14.4564 C   0  0  0  0  0  0  0  0  0  0  0  0
   19.2857   -9.4178  -13.2624 C   0  0  0  0  0  0  0  0  0  0  0  0
   19.8933   -8.5315  -12.4905 N   0  0  0  0  0  0  0  0  0  0  0  0
   20.9776   -8.0336  -13.1138 C   0  0  0  0  0  0  0  0  0  0  0  0
   21.0144   -8.6494  -14.3034 N   0  0  0  0  0  0  0  0  0  0  0  0
   19.4359   -8.5534  -17.2880 C   0  0  0  0  0  0  0  0  0  0  0  0
   20.2419   -8.6237  -18.2973 O   0  0  0  0  0  0  0  0  0  0  0  0
   13.7180   -4.1204  -18.2257 O   0  0  0  0  0  0  0  0  0  0  0  0
   15.0443   -4.5341  -18.3458 C   0  0  0  0  0  0  0  0  0  0  0  0
   16.0955   -3.6697  -18.1459 C   0  0  0  0  0  0  0  0  0  0  0  0
   17.3909   -4.0843  -18.2657 C   0  0  0  0  0  0  0  0  0  0  0  0
   17.6330   -5.4179  -18.5993 C   0  0  0  0  0  0  0  0  0  0  0  0
   19.0009   -5.9184  -18.7493 C   0  0  0  0  0  0  0  0  0  0  0  0
   19.6900   -6.0609  -17.4169 C   0  0  2  0  0  0  0  0  0  0  0  0
   19.1149   -7.2781  -16.7979 N   0  0  0  0  0  0  0  0  0  0  0  0
   19.4589   -4.8988  -16.5625 C   0  0  0  0  0  0  0  0  0  0  0  0
   18.7322   -4.9344  -15.5451 O   0  0  0  0  0  0  0  0  0  0  0  0
   16.5824   -6.2994  -18.8034 C   0  0  0  0  0  0  0  0  0  0  0  0
   15.2973   -5.8390  -18.6722 C   0  0  0  0  0  0  0  0  0  0  0  0
   20.0743   -3.6797  -16.8861 O   0  0  0  0  0  0  0  0  0  0  0  0
  1  2  1  0
  1  5  1  0
  2  3  1  0
  3  4  1  0
  5  4  1  0
  5  6  1  1
  6  7  2  0
  8  6  1  0
  9  8  1  0
  9 10  1  1
 11 10  1  0
 11 15  1  0
 12 13  1  0
 12 11  2  0
 13 14  1  0
 14 15  2  0
 16  9  1  0
 17 16  2  0
 18 19  1  0
 19 29  2  0
 19 20  1  0
 20 21  2  0
 21 22  1  0
 22 23  1  0
 24 23  1  6
 24 25  1  0
 25 16  1  0
 26 24  1  0
 26 30  1  0
 27 26  2  0
 28 22  2  0
 29 28  1  0
M  END
$$$$
