PHY.pdb
     RDKit          3D

 30 32  0  0  1  0  0  0  0  0999 V2000
   28.1785  -23.0959  -18.5222 N   0  0  0  0  0  0  0  0  0  0  0  0
   28.6757  -23.3295  -19.8459 C   0  0  0  0  0  0  0  0  0  0  0  0
   29.9024  -22.4702  -20.0267 C   0  0  0  0  0  0  0  0  0  0  0  0
   29.8255  -21.4501  -18.9339 C   0  0  0  0  0  0  0  0  0  0  0  0
   28.9370  -22.0650  -17.8972 C   0  0  1  0  0  0  0  0  0  0  0  0
   28.0112  -21.0578  -17.2895 C   0  0  0  0  0  0  0  0  0  0  0  0
   28.4942  -20.0606  -16.6836 O   0  0  0  0  0  0  0  0  0  0  0  0
   26.6160  -21.1727  -17.3632 N   0  0  0  0  0  0  0  0  0  0  0  0
   25.7686  -20.0716  -16.7691 C   0  0  1  0  0  0  0  0  0  0  0  0
   24.7941  -19.7909  -17.8724 C   0  0  0  0  0  0  0  0  0  0  0  0
   25.0771  -18.6907  -18.7750 C   0  0  0  0  0  0  0  0  0  0  0  0
   26.1999  -17.8548  -18.6645 C   0  0  0  0  0  0  0  0  0  0  0  0
   26.1282  -16.9746  -19.6498 N   0  0  0  0  0  0  0  0  0  0  0  0
   25.0259  -17.1912  -20.3913 C   0  0  0  0  0  0  0  0  0  0  0  0
   24.4193  -18.2423  -19.8229 N   0  0  0  0  0  0  0  0  0  0  0  0
   25.1831  -20.6270  -15.5342 C   0  0  0  0  0  0  0  0  0  0  0  0
   24.6426  -21.8021  -15.5485 O   0  0  0  0  0  0  0  0  0  0  0  0
   22.3946  -21.0347   -7.1979 O   0  0  0  0  0  0  0  0  0  0  0  0
   23.0856  -20.7281   -8.3698 C   0  0  0  0  0  0  0  0  0  0  0  0
   24.3488  -21.2138   -8.6162 C   0  0  0  0  0  0  0  0  0  0  0  0
   25.0173  -20.9080   -9.7667 C   0  0  0  0  0  0  0  0  0  0  0  0
   24.3884  -20.0830  -10.7007 C   0  0  0  0  0  0  0  0  0  0  0  0
   25.0588  -19.7145  -11.9494 C   0  0  0  0  0  0  0  0  0  0  0  0
   24.4998  -20.4728  -13.1253 C   0  0  2  0  0  0  0  0  0  0  0  0
   25.1914  -19.9283  -14.3171 N   0  0  0  0  0  0  0  0  0  0  0  0
   23.0556  -20.2901  -13.2483 C   0  0  0  0  0  0  0  0  0  0  0  0
   22.5376  -19.2594  -13.7318 O   0  0  0  0  0  0  0  0  0  0  0  0
   23.1154  -19.5869  -10.4646 C   0  0  0  0  0  0  0  0  0  0  0  0
   22.4816  -19.9203   -9.2951 C   0  0  0  0  0  0  0  0  0  0  0  0
   22.1981  -21.3101  -12.8079 O   0  0  0  0  0  0  0  0  0  0  0  0
  1  2  1  0
  1  5  1  0
  2  3  1  0
  3  4  1  0
  5  4  1  0
  5  6  1  6
  6  7  2  0
  8  6  1  0
  9  8  1  0
  9 10  1  6
 11 10  1  0
 11 15  1  0
 12 13  1  0
 12 11  2  0
 13 14  1  0
 14 15  2  0
 16  9  1  0
 17 16  2  0
 18 19  1  0
 19 29  2  0
 19 20  1  0
 20 21  2  0
 21 22  1  0
 22 23  1  0
 24 23  1  1
 24 25  1  0
 25 16  1  0
 26 24  1  0
 26 30  1  0
 27 26  2  0
 28 22  2  0
 29 28  1  0
M  END
$$$$
