PHY.pdb
     RDKit          3D

 30 32  0  0  1  0  0  0  0  0999 V2000
   22.3813  -14.3237  -18.0507 N   0  0  0  0  0  0  0  0  0  0  0  0
   23.1952  -13.2773  -18.5954 C   0  0  0  0  0  0  0  0  0  0  0  0
   23.5040  -13.6426  -20.0262 C   0  0  0  0  0  0  0  0  0  0  0  0
   23.1986  -15.1045  -20.1275 C   0  0  0  0  0  0  0  0  0  0  0  0
   22.2515  -15.3774  -19.0002 C   0  0  1  0  0  0  0  0  0  0  0  0
   22.5380  -16.6890  -18.3378 C   0  0  0  0  0  0  0  0  0  0  0  0
   22.5018  -17.7487  -19.0237 O   0  0  0  0  0  0  0  0  0  0  0  0
   22.8481  -16.7953  -16.9749 N   0  0  0  0  0  0  0  0  0  0  0  0
   22.9987  -18.1738  -16.3743 C   0  0  1  0  0  0  0  0  0  0  0  0
   24.3525  -18.0957  -15.7364 C   0  0  0  0  0  0  0  0  0  0  0  0
   25.5185  -18.0806  -16.5998 C   0  0  0  0  0  0  0  0  0  0  0  0
   26.2085  -19.2343  -17.0057 C   0  0  0  0  0  0  0  0  0  0  0  0
   27.2058  -18.8389  -17.7800 N   0  0  0  0  0  0  0  0  0  0  0  0
   27.2023  -17.4981  -17.8994 C   0  0  0  0  0  0  0  0  0  0  0  0
   26.1608  -17.0815  -17.1663 N   0  0  0  0  0  0  0  0  0  0  0  0
   21.8684  -18.3391  -15.4409 C   0  0  0  0  0  0  0  0  0  0  0  0
   21.8794  -17.7292  -14.3002 O   0  0  0  0  0  0  0  0  0  0  0  0
   16.6968  -16.6818  -19.9461 O   0  0  0  0  0  0  0  0  0  0  0  0
   17.2425  -16.9742  -18.6965 C   0  0  0  0  0  0  0  0  0  0  0  0
   16.6881  -17.9195  -17.8652 C   0  0  0  0  0  0  0  0  0  0  0  0
   17.2297  -18.1989  -16.6434 C   0  0  0  0  0  0  0  0  0  0  0  0
   18.3707  -17.4991  -16.2474 C   0  0  0  0  0  0  0  0  0  0  0  0
   18.9918  -17.7501  -14.9452 C   0  0  0  0  0  0  0  0  0  0  0  0
   19.5634  -19.1417  -14.8609 C   0  0  2  0  0  0  0  0  0  0  0  0
   20.7547  -19.1383  -15.7419 N   0  0  0  0  0  0  0  0  0  0  0  0
   18.6034  -20.1477  -15.3085 C   0  0  0  0  0  0  0  0  0  0  0  0
   18.7701  -20.8388  -16.3376 O   0  0  0  0  0  0  0  0  0  0  0  0
   18.9394  -16.5437  -17.0758 C   0  0  0  0  0  0  0  0  0  0  0  0
   18.3614  -16.2961  -18.2945 C   0  0  0  0  0  0  0  0  0  0  0  0
   17.4359  -20.3592  -14.5589 O   0  0  0  0  0  0  0  0  0  0  0  0
  1  2  1  0
  1  5  1  0
  2  3  1  0
  3  4  1  0
  5  4  1  0
  5  6  1  1
  6  7  2  0
  8  6  1  0
  9  8  1  0
  9 10  1  1
 11 10  1  0
 11 15  1  0
 12 13  1  0
 12 11  2  0
 13 14  1  0
 14 15  2  0
 16  9  1  0
 17 16  2  0
 18 19  1  0
 19 29  2  0
 19 20  1  0
 20 21  2  0
 21 22  1  0
 22 23  1  0
 24 23  1  6
 24 25  1  0
 25 16  1  0
 26 24  1  0
 26 30  1  0
 27 26  2  0
 28 22  2  0
 29 28  1  0
M  END
$$$$
