PHY.pdb
     RDKit          3D

 30 32  0  0  1  0  0  0  0  0999 V2000
   23.2195  -18.7326  -16.3053 N   0  0  0  0  0  0  0  0  0  0  0  0
   22.6605  -17.8914  -17.3221 C   0  0  0  0  0  0  0  0  0  0  0  0
   22.7872  -18.6234  -18.6352 C   0  0  0  0  0  0  0  0  0  0  0  0
   23.8018  -19.6952  -18.3850 C   0  0  0  0  0  0  0  0  0  0  0  0
   23.7932  -19.8924  -16.9007 C   0  0  1  0  0  0  0  0  0  0  0  0
   25.1727  -20.1049  -16.3596 C   0  0  0  0  0  0  0  0  0  0  0  0
   25.8314  -21.1180  -16.7266 O   0  0  0  0  0  0  0  0  0  0  0  0
   25.7736  -19.2201  -15.4534 N   0  0  0  0  0  0  0  0  0  0  0  0
   27.1577  -19.5425  -14.9397 C   0  0  1  0  0  0  0  0  0  0  0  0
   27.9828  -18.4458  -15.5416 C   0  0  0  0  0  0  0  0  0  0  0  0
   28.2459  -18.4884  -16.9678 C   0  0  0  0  0  0  0  0  0  0  0  0
   27.8332  -17.4958  -17.8712 C   0  0  0  0  0  0  0  0  0  0  0  0
   28.2463  -17.8666  -19.0722 N   0  0  0  0  0  0  0  0  0  0  0  0
   28.9019  -19.0400  -18.9998 C   0  0  0  0  0  0  0  0  0  0  0  0
   28.8765  -19.3788  -17.7035 N   0  0  0  0  0  0  0  0  0  0  0  0
   27.0618  -19.5266  -13.4676 C   0  0  0  0  0  0  0  0  0  0  0  0
   27.3504  -18.4482  -12.8141 O   0  0  0  0  0  0  0  0  0  0  0  0
   20.3796  -20.8722  -12.4253 O   0  0  0  0  0  0  0  0  0  0  0  0
   21.6733  -20.5460  -12.0196 C   0  0  0  0  0  0  0  0  0  0  0  0
   22.1257  -20.8158  -10.7489 C   0  0  0  0  0  0  0  0  0  0  0  0
   23.3943  -20.4927  -10.3611 C   0  0  0  0  0  0  0  0  0  0  0  0
   24.2351  -19.8753  -11.2887 C   0  0  0  0  0  0  0  0  0  0  0  0
   25.6034  -19.4986  -10.9281 C   0  0  0  0  0  0  0  0  0  0  0  0
   26.5850  -20.5958  -11.2489 C   0  0  2  0  0  0  0  0  0  0  0  0
   26.6565  -20.6482  -12.7279 N   0  0  0  0  0  0  0  0  0  0  0  0
   26.1484  -21.8838  -10.7154 C   0  0  0  0  0  0  0  0  0  0  0  0
   25.9058  -22.8745  -11.4392 O   0  0  0  0  0  0  0  0  0  0  0  0
   23.7915  -19.5979  -12.5727 C   0  0  0  0  0  0  0  0  0  0  0  0
   22.5093  -19.9404  -12.9183 C   0  0  0  0  0  0  0  0  0  0  0  0
   25.9897  -22.0304   -9.3287 O   0  0  0  0  0  0  0  0  0  0  0  0
  1  2  1  0
  1  5  1  0
  2  3  1  0
  3  4  1  0
  5  4  1  0
  5  6  1  1
  6  7  2  0
  8  6  1  0
  9  8  1  0
  9 10  1  1
 11 10  1  0
 11 15  1  0
 12 13  1  0
 12 11  2  0
 13 14  1  0
 14 15  2  0
 16  9  1  0
 17 16  2  0
 18 19  1  0
 19 29  2  0
 19 20  1  0
 20 21  2  0
 21 22  1  0
 22 23  1  0
 24 23  1  6
 24 25  1  0
 25 16  1  0
 26 24  1  0
 26 30  1  0
 27 26  2  0
 28 22  2  0
 29 28  1  0
M  END
$$$$
