PHY.pdb
     RDKit          3D

 30 32  0  0  1  0  0  0  0  0999 V2000
   25.9124  -21.1011  -16.1031 N   0  0  0  0  0  0  0  0  0  0  0  0
   27.1515  -21.7045  -16.4964 C   0  0  0  0  0  0  0  0  0  0  0  0
   28.2578  -20.9826  -15.7676 C   0  0  0  0  0  0  0  0  0  0  0  0
   27.6400  -19.7039  -15.2943 C   0  0  0  0  0  0  0  0  0  0  0  0
   26.1678  -19.9761  -15.2677 C   0  0  1  0  0  0  0  0  0  0  0  0
   25.3758  -18.8013  -15.7510 C   0  0  0  0  0  0  0  0  0  0  0  0
   25.4884  -17.6930  -15.1561 O   0  0  0  0  0  0  0  0  0  0  0  0
   24.5047  -18.8764  -16.8467 N   0  0  0  0  0  0  0  0  0  0  0  0
   23.7369  -17.6372  -17.2447 C   0  0  1  0  0  0  0  0  0  0  0  0
   24.0730  -17.5094  -18.6995 C   0  0  0  0  0  0  0  0  0  0  0  0
   25.3420  -16.9058  -19.0606 C   0  0  0  0  0  0  0  0  0  0  0  0
   26.0151  -15.9621  -18.2680 C   0  0  0  0  0  0  0  0  0  0  0  0
   27.1273  -15.6391  -18.9077 N   0  0  0  0  0  0  0  0  0  0  0  0
   27.2141  -16.3176  -20.0670 C   0  0  0  0  0  0  0  0  0  0  0  0
   26.1087  -17.0735  -20.1169 N   0  0  0  0  0  0  0  0  0  0  0  0
   22.3203  -17.9198  -16.9454 C   0  0  0  0  0  0  0  0  0  0  0  0
   21.7612  -18.9859  -17.4190 O   0  0  0  0  0  0  0  0  0  0  0  0
   21.8528  -22.8798  -13.2573 O   0  0  0  0  0  0  0  0  0  0  0  0
   21.3716  -21.6032  -13.5462 C   0  0  0  0  0  0  0  0  0  0  0  0
   20.0793  -21.3925  -13.9678 C   0  0  0  0  0  0  0  0  0  0  0  0
   19.6173  -20.1386  -14.2482 C   0  0  0  0  0  0  0  0  0  0  0  0
   20.4908  -19.0602  -14.0978 C   0  0  0  0  0  0  0  0  0  0  0  0
   20.0545  -17.6935  -14.3907 C   0  0  0  0  0  0  0  0  0  0  0  0
   20.1175  -17.3939  -15.8661 C   0  0  2  0  0  0  0  0  0  0  0  0
   21.5361  -17.0720  -16.1481 N   0  0  0  0  0  0  0  0  0  0  0  0
   19.2597  -16.2674  -16.2255 C   0  0  0  0  0  0  0  0  0  0  0  0
   19.7065  -15.1772  -16.6452 O   0  0  0  0  0  0  0  0  0  0  0  0
   21.7958  -19.2590  -13.6735 C   0  0  0  0  0  0  0  0  0  0  0  0
   22.2165  -20.5359  -13.4032 C   0  0  0  0  0  0  0  0  0  0  0  0
   17.8684  -16.4006  -16.0989 O   0  0  0  0  0  0  0  0  0  0  0  0
  1  2  1  0
  1  5  1  0
  2  3  1  0
  3  4  1  0
  5  4  1  0
  5  6  1  6
  6  7  2  0
  8  6  1  0
  9  8  1  0
  9 10  1  6
 11 10  1  0
 11 15  1  0
 12 13  1  0
 12 11  2  0
 13 14  1  0
 14 15  2  0
 16  9  1  0
 17 16  2  0
 18 19  1  0
 19 29  2  0
 19 20  1  0
 20 21  2  0
 21 22  1  0
 22 23  1  0
 24 23  1  1
 24 25  1  0
 25 16  1  0
 26 24  1  0
 26 30  1  0
 27 26  2  0
 28 22  2  0
 29 28  1  0
M  END
$$$$
