PHY.pdb
     RDKit          3D

 30 32  0  0  1  0  0  0  0  0999 V2000
   25.7213  -19.3289  -18.2930 N   0  0  0  0  0  0  0  0  0  0  0  0
   25.7061  -19.5495  -19.7090 C   0  0  0  0  0  0  0  0  0  0  0  0
   24.3474  -20.0991  -20.0668 C   0  0  0  0  0  0  0  0  0  0  0  0
   23.7663  -20.5703  -18.7703 C   0  0  0  0  0  0  0  0  0  0  0  0
   24.5099  -19.8082  -17.7173 C   0  0  1  0  0  0  0  0  0  0  0  0
   24.8221  -20.6624  -16.5282 C   0  0  0  0  0  0  0  0  0  0  0  0
   23.8774  -21.0768  -15.7997 O   0  0  0  0  0  0  0  0  0  0  0  0
   26.1307  -21.0273  -16.1827 N   0  0  0  0  0  0  0  0  0  0  0  0
   26.3407  -21.8876  -14.9581 C   0  0  1  0  0  0  0  0  0  0  0  0
   27.5165  -22.7264  -15.3577 C   0  0  0  0  0  0  0  0  0  0  0  0
   27.2648  -23.9731  -16.0560 C   0  0  0  0  0  0  0  0  0  0  0  0
   25.9821  -24.4539  -16.3646 C   0  0  0  0  0  0  0  0  0  0  0  0
   26.1398  -25.6050  -16.9976 N   0  0  0  0  0  0  0  0  0  0  0  0
   27.4482  -25.8977  -17.1171 C   0  0  0  0  0  0  0  0  0  0  0  0
   28.0925  -24.8791  -16.5313 N   0  0  0  0  0  0  0  0  0  0  0  0
   26.5795  -20.9559  -13.8396 C   0  0  0  0  0  0  0  0  0  0  0  0
   27.4225  -19.9845  -13.9780 O   0  0  0  0  0  0  0  0  0  0  0  0
   20.2096  -21.5921  -10.4658 O   0  0  0  0  0  0  0  0  0  0  0  0
   21.4596  -20.9988  -10.6402 C   0  0  0  0  0  0  0  0  0  0  0  0
   22.2659  -20.6772   -9.5732 C   0  0  0  0  0  0  0  0  0  0  0  0
   23.4883  -20.0966   -9.7541 C   0  0  0  0  0  0  0  0  0  0  0  0
   23.9109  -19.8314  -11.0578 C   0  0  0  0  0  0  0  0  0  0  0  0
   25.2087  -19.2032  -11.3137 C   0  0  0  0  0  0  0  0  0  0  0  0
   26.3043  -20.2280  -11.4547 C   0  0  2  0  0  0  0  0  0  0  0  0
   25.9156  -21.0721  -12.6087 N   0  0  0  0  0  0  0  0  0  0  0  0
   26.4383  -21.0442  -10.2505 C   0  0  0  0  0  0  0  0  0  0  0  0
   26.1865  -22.2691  -10.2257 O   0  0  0  0  0  0  0  0  0  0  0  0
   23.1078  -20.1507  -12.1419 C   0  0  0  0  0  0  0  0  0  0  0  0
   21.8875  -20.7330  -11.9128 C   0  0  0  0  0  0  0  0  0  0  0  0
   26.8687  -20.4391   -9.0596 O   0  0  0  0  0  0  0  0  0  0  0  0
  1  2  1  0
  1  5  1  0
  2  3  1  0
  3  4  1  0
  5  4  1  0
  5  6  1  1
  6  7  2  0
  8  6  1  0
  9  8  1  0
  9 10  1  6
 11 10  1  0
 11 15  1  0
 12 13  1  0
 12 11  2  0
 13 14  1  0
 14 15  2  0
 16  9  1  0
 17 16  2  0
 18 19  1  0
 19 29  2  0
 19 20  1  0
 20 21  2  0
 21 22  1  0
 22 23  1  0
 24 23  1  1
 24 25  1  0
 25 16  1  0
 26 24  1  0
 26 30  1  0
 27 26  2  0
 28 22  2  0
 29 28  1  0
M  END
$$$$
