PHY.pdb
     RDKit          3D

 30 32  0  0  1  0  0  0  0  0999 V2000
   22.7326  -17.0872  -16.0572 N   0  0  0  0  0  0  0  0  0  0  0  0
   21.9686  -16.5092  -17.1231 C   0  0  0  0  0  0  0  0  0  0  0  0
   20.8253  -17.4474  -17.4208 C   0  0  0  0  0  0  0  0  0  0  0  0
   21.2159  -18.7470  -16.7889 C   0  0  0  0  0  0  0  0  0  0  0  0
   22.2190  -18.3774  -15.7403 C   0  0  1  0  0  0  0  0  0  0  0  0
   23.3433  -19.3635  -15.6737 C   0  0  0  0  0  0  0  0  0  0  0  0
   23.1078  -20.5448  -15.2943 O   0  0  0  0  0  0  0  0  0  0  0  0
   24.6612  -19.0312  -16.0171 N   0  0  0  0  0  0  0  0  0  0  0  0
   25.7175  -20.1100  -15.9540 C   0  0  1  0  0  0  0  0  0  0  0  0
   26.4630  -19.8993  -17.2368 C   0  0  0  0  0  0  0  0  0  0  0  0
   25.8633  -20.3821  -18.4667 C   0  0  0  0  0  0  0  0  0  0  0  0
   25.3186  -19.5457  -19.4543 C   0  0  0  0  0  0  0  0  0  0  0  0
   24.8687  -20.3279  -20.4219 N   0  0  0  0  0  0  0  0  0  0  0  0
   25.0899  -21.6208  -20.1193 C   0  0  0  0  0  0  0  0  0  0  0  0
   25.6954  -21.6046  -18.9239 N   0  0  0  0  0  0  0  0  0  0  0  0
   26.4906  -19.8542  -14.7239 C   0  0  0  0  0  0  0  0  0  0  0  0
   27.0386  -18.6978  -14.5352 O   0  0  0  0  0  0  0  0  0  0  0  0
   21.5118  -20.5395  -10.2644 O   0  0  0  0  0  0  0  0  0  0  0  0
   22.8018  -20.2362  -10.6990 C   0  0  0  0  0  0  0  0  0  0  0  0
   23.0928  -20.0412  -12.0292 C   0  0  0  0  0  0  0  0  0  0  0  0
   24.3590  -19.7445  -12.4449 C   0  0  0  0  0  0  0  0  0  0  0  0
   25.3663  -19.6416  -11.4840 C   0  0  0  0  0  0  0  0  0  0  0  0
   26.7446  -19.3334  -11.8705 C   0  0  0  0  0  0  0  0  0  0  0  0
   27.4264  -20.5234  -12.4946 C   0  0  2  0  0  0  0  0  0  0  0  0
   26.6569  -20.8251  -13.7243 N   0  0  0  0  0  0  0  0  0  0  0  0
   27.4255  -21.6773  -11.5987 C   0  0  0  0  0  0  0  0  0  0  0  0
   26.7673  -22.7162  -11.8260 O   0  0  0  0  0  0  0  0  0  0  0  0
   25.0862  -19.8358  -10.1400 C   0  0  0  0  0  0  0  0  0  0  0  0
   23.7998  -20.1319   -9.7682 C   0  0  0  0  0  0  0  0  0  0  0  0
   28.1942  -21.6318  -10.4254 O   0  0  0  0  0  0  0  0  0  0  0  0
  1  2  1  0
  1  5  1  0
  2  3  1  0
  3  4  1  0
  5  4  1  0
  5  6  1  6
  6  7  2  0
  8  6  1  0
  9  8  1  0
  9 10  1  6
 11 10  1  0
 11 15  1  0
 12 13  1  0
 12 11  2  0
 13 14  1  0
 14 15  2  0
 16  9  1  0
 17 16  2  0
 18 19  1  0
 19 29  2  0
 19 20  1  0
 20 21  2  0
 21 22  1  0
 22 23  1  0
 24 23  1  1
 24 25  1  0
 25 16  1  0
 26 24  1  0
 26 30  1  0
 27 26  2  0
 28 22  2  0
 29 28  1  0
M  END
$$$$
