PHY.pdb
     RDKit          3D

 30 32  0  0  1  0  0  0  0  0999 V2000
   22.0644  -13.3816  -17.7943 N   0  0  0  0  0  0  0  0  0  0  0  0
   21.4956  -14.5266  -18.4421 C   0  0  0  0  0  0  0  0  0  0  0  0
   21.8761  -14.4569  -19.9003 C   0  0  0  0  0  0  0  0  0  0  0  0
   22.3056  -13.0401  -20.1215 C   0  0  0  0  0  0  0  0  0  0  0  0
   22.6785  -12.5357  -18.7618 C   0  0  1  0  0  0  0  0  0  0  0  0
   22.2311  -11.1229  -18.5504 C   0  0  0  0  0  0  0  0  0  0  0  0
   22.6809  -10.2130  -19.3019 O   0  0  0  0  0  0  0  0  0  0  0  0
   21.3249  -10.7598  -17.5444 N   0  0  0  0  0  0  0  0  0  0  0  0
   20.8406   -9.3293  -17.4911 C   0  0  1  0  0  0  0  0  0  0  0  0
   19.3530   -9.5002  -17.4309 C   0  0  0  0  0  0  0  0  0  0  0  0
   18.6198   -9.5797  -18.6804 C   0  0  0  0  0  0  0  0  0  0  0  0
   19.2147   -9.4647  -19.9472 C   0  0  0  0  0  0  0  0  0  0  0  0
   18.2488   -9.5870  -20.8431 N   0  0  0  0  0  0  0  0  0  0  0  0
   17.0644   -9.7744  -20.2317 C   0  0  0  0  0  0  0  0  0  0  0  0
   17.3388   -9.7627  -18.9200 N   0  0  0  0  0  0  0  0  0  0  0  0
   21.4577   -8.7328  -16.2913 C   0  0  0  0  0  0  0  0  0  0  0  0
   21.3012   -9.2962  -15.1376 O   0  0  0  0  0  0  0  0  0  0  0  0
   26.9130  -11.4232  -17.2751 O   0  0  0  0  0  0  0  0  0  0  0  0
   26.2655  -10.2528  -16.8806 C   0  0  0  0  0  0  0  0  0  0  0  0
   25.8770   -9.2961  -17.7894 C   0  0  0  0  0  0  0  0  0  0  0  0
   25.2435   -8.1534  -17.3933 C   0  0  0  0  0  0  0  0  0  0  0  0
   24.9939   -7.9703  -16.0322 C   0  0  0  0  0  0  0  0  0  0  0  0
   24.3248   -6.7615  -15.5471 C   0  0  0  0  0  0  0  0  0  0  0  0
   22.9033   -7.0410  -15.1330 C   0  0  2  0  0  0  0  0  0  0  0  0
   22.2290   -7.5616  -16.3453 N   0  0  0  0  0  0  0  0  0  0  0  0
   22.2322   -5.8337  -14.6573 C   0  0  0  0  0  0  0  0  0  0  0  0
   21.3013   -5.2799  -15.2827 O   0  0  0  0  0  0  0  0  0  0  0  0
   25.3802   -8.9269  -15.1059 C   0  0  0  0  0  0  0  0  0  0  0  0
   26.0137  -10.0595  -15.5492 C   0  0  0  0  0  0  0  0  0  0  0  0
   22.6404   -5.2582  -13.4441 O   0  0  0  0  0  0  0  0  0  0  0  0
  1  2  1  0
  1  5  1  0
  2  3  1  0
  3  4  1  0
  5  4  1  0
  5  6  1  1
  6  7  2  0
  8  6  1  0
  9  8  1  0
  9 10  1  1
 11 10  1  0
 11 15  1  0
 12 13  1  0
 12 11  2  0
 13 14  1  0
 14 15  2  0
 16  9  1  0
 17 16  2  0
 18 19  1  0
 19 29  2  0
 19 20  1  0
 20 21  2  0
 21 22  1  0
 22 23  1  0
 24 23  1  6
 24 25  1  0
 25 16  1  0
 26 24  1  0
 26 30  1  0
 27 26  2  0
 28 22  2  0
 29 28  1  0
M  END
$$$$
