SDR.pdb
     RDKit          3D

 26 25  0  0  1  0  0  0  0  0999 V2000
   14.1987  -13.3045  -10.1844 O   0  0  0  0  0  0  0  0  0  0  0  0
   14.4227  -12.0251  -10.6590 C   0  0  0  0  0  0  0  0  0  0  0  0
   13.7307  -11.0088   -9.7627 C   0  0  2  0  0  0  0  0  0  0  0  0
   12.3090  -11.1771   -9.9166 N   0  0  0  0  0  0  0  0  0  0  0  0
   14.1572   -9.6392  -10.1151 C   0  0  0  0  0  0  0  0  0  0  0  0
   13.8073   -9.0706  -11.1849 O   0  0  0  0  0  0  0  0  0  0  0  0
   15.0076   -8.8491   -9.2588 N   0  0  0  0  0  0  0  0  0  0  0  0
   15.4294   -7.5191   -9.6453 C   0  0  1  0  0  0  0  0  0  0  0  0
   15.4806   -6.6881   -8.3788 C   0  0  0  0  0  0  0  0  0  0  0  0
   15.8548   -5.2897   -8.6473 C   0  0  0  0  0  0  0  0  0  0  0  0
   15.9272   -4.8779   -9.8433 O   0  0  0  0  0  0  0  0  0  0  0  0
   16.7520   -7.5409  -10.3257 C   0  0  0  0  0  0  0  0  0  0  0  0
   17.7436   -8.1357   -9.8768 O   0  0  0  0  0  0  0  0  0  0  0  0
   16.1458   -4.3486   -7.6648 O   0  0  0  0  0  0  0  0  0  0  0  0
   22.1929  -11.1438  -15.8252 N   0  0  0  0  0  0  0  0  0  0  0  0
   22.5006  -10.1153  -14.8884 C   0  0  0  0  0  0  0  0  0  0  0  0
   23.5383  -10.1792  -14.1365 N   0  0  0  0  0  0  0  0  0  0  0  0
   21.5967   -8.9996  -14.8158 N   0  0  0  0  0  0  0  0  0  0  0  0
   20.3984   -9.0944  -14.0447 C   0  0  0  0  0  0  0  0  0  0  0  0
   19.4884   -7.9116  -14.1007 C   0  0  0  0  0  0  0  0  0  0  0  0
   18.2413   -7.9734  -13.2853 C   0  0  0  0  0  0  0  0  0  0  0  0
   18.0983   -6.8454  -12.3590 C   0  0  2  0  0  0  0  0  0  0  0  0
   16.9036   -6.8535  -11.5473 N   0  0  0  0  0  0  0  0  0  0  0  0
   18.3483   -5.5107  -12.8860 C   0  0  0  0  0  0  0  0  0  0  0  0
   19.6599   -5.0833  -13.1695 O   0  0  0  0  0  0  0  0  0  0  0  0
   17.4327   -4.6822  -13.1152 O   0  0  0  0  0  0  0  0  0  0  0  0
  1  2  1  0
  3  2  1  0
  3  4  1  6
  5  6  2  0
  5  3  1  0
  7  5  1  0
  8  7  1  0
  9 10  1  0
  8  9  1  1
 10 14  1  0
 10 11  2  0
 12 23  1  0
 12  8  1  0
 13 12  2  0
 16 15  1  0
 17 16  2  0
 18 16  1  0
 19 18  1  0
 20 19  1  0
 21 20  1  0
 22 21  1  6
 22 23  1  0
 24 22  1  0
 25 24  1  0
 26 24  2  0
M  END
$$$$
