SDR.pdb
     RDKit          3D

 26 25  0  0  1  0  0  0  0  0999 V2000
   26.2346  -20.8000  -18.2348 O   0  0  0  0  0  0  0  0  0  0  0  0
   26.2269  -19.9101  -19.2932 C   0  0  0  0  0  0  0  0  0  0  0  0
   27.0420  -18.6746  -18.9403 C   0  0  2  0  0  0  0  0  0  0  0  0
   28.1622  -19.0961  -18.1399 N   0  0  0  0  0  0  0  0  0  0  0  0
   26.2019  -17.6925  -18.2252 C   0  0  0  0  0  0  0  0  0  0  0  0
   26.6532  -16.9430  -17.3169 O   0  0  0  0  0  0  0  0  0  0  0  0
   24.7995  -17.5180  -18.5139 N   0  0  0  0  0  0  0  0  0  0  0  0
   24.0023  -16.5488  -17.7918 C   0  0  1  0  0  0  0  0  0  0  0  0
   23.9197  -15.3107  -18.6620 C   0  0  0  0  0  0  0  0  0  0  0  0
   23.0863  -14.2599  -18.0545 C   0  0  0  0  0  0  0  0  0  0  0  0
   23.0794  -14.1136  -16.7961 O   0  0  0  0  0  0  0  0  0  0  0  0
   22.6468  -17.0775  -17.4821 C   0  0  0  0  0  0  0  0  0  0  0  0
   21.7575  -17.2242  -18.3343 O   0  0  0  0  0  0  0  0  0  0  0  0
   22.2772  -13.3830  -18.7701 O   0  0  0  0  0  0  0  0  0  0  0  0
   16.5307  -16.7294  -12.2917 N   0  0  0  0  0  0  0  0  0  0  0  0
   17.1574  -17.9532  -12.6656 C   0  0  0  0  0  0  0  0  0  0  0  0
   16.4744  -19.0125  -12.9054 N   0  0  0  0  0  0  0  0  0  0  0  0
   18.5921  -17.9555  -12.7605 N   0  0  0  0  0  0  0  0  0  0  0  0
   19.3258  -16.7426  -12.5868 C   0  0  0  0  0  0  0  0  0  0  0  0
   19.7042  -16.0213  -13.8386 C   0  0  0  0  0  0  0  0  0  0  0  0
   21.0648  -16.2831  -14.3898 C   0  0  0  0  0  0  0  0  0  0  0  0
   21.0644  -17.2337  -15.5067 C   0  0  2  0  0  0  0  0  0  0  0  0
   22.3400  -17.4357  -16.1533 N   0  0  0  0  0  0  0  0  0  0  0  0
   20.0050  -17.1016  -16.4975 C   0  0  0  0  0  0  0  0  0  0  0  0
   18.9190  -17.9980  -16.5132 O   0  0  0  0  0  0  0  0  0  0  0  0
   19.9954  -16.2024  -17.3742 O   0  0  0  0  0  0  0  0  0  0  0  0
  1  2  1  0
  3  2  1  0
  3  4  1  1
  5  6  2  0
  5  3  1  0
  7  5  1  0
  8  7  1  0
  9 10  1  0
  8  9  1  6
 10 14  1  0
 10 11  2  0
 12 23  1  0
 12  8  1  0
 13 12  2  0
 16 15  1  0
 17 16  2  0
 18 16  1  0
 19 18  1  0
 20 19  1  0
 21 20  1  0
 22 21  1  6
 22 23  1  0
 24 22  1  0
 25 24  1  0
 26 24  2  0
M  END
$$$$
