SDR.pdb
     RDKit          3D

 26 25  0  0  1  0  0  0  0  0999 V2000
   14.6626  -10.6447  -14.9502 O   0  0  0  0  0  0  0  0  0  0  0  0
   15.4436  -11.1426  -15.9771 C   0  0  0  0  0  0  0  0  0  0  0  0
   16.6522  -11.8697  -15.4063 C   0  0  2  0  0  0  0  0  0  0  0  0
   16.1735  -12.9841  -14.6302 N   0  0  0  0  0  0  0  0  0  0  0  0
   17.4669  -10.9479  -14.5887 C   0  0  0  0  0  0  0  0  0  0  0  0
   17.5635  -11.0528  -13.3357 O   0  0  0  0  0  0  0  0  0  0  0  0
   18.2138   -9.8569  -15.1650 N   0  0  0  0  0  0  0  0  0  0  0  0
   18.9285   -8.9157  -14.3285 C   0  0  1  0  0  0  0  0  0  0  0  0
   20.1993   -8.5466  -15.0674 C   0  0  0  0  0  0  0  0  0  0  0  0
   21.0250   -7.5922  -14.3091 C   0  0  0  0  0  0  0  0  0  0  0  0
   21.3216   -7.8394  -13.1024 O   0  0  0  0  0  0  0  0  0  0  0  0
   18.1080   -7.7094  -14.0381 C   0  0  0  0  0  0  0  0  0  0  0  0
   17.3142   -7.2092  -14.8495 O   0  0  0  0  0  0  0  0  0  0  0  0
   21.5249   -6.3999  -14.8230 O   0  0  0  0  0  0  0  0  0  0  0  0
   14.4547   -6.8887   -6.6957 N   0  0  0  0  0  0  0  0  0  0  0  0
   13.8425   -7.6630   -7.7232 C   0  0  0  0  0  0  0  0  0  0  0  0
   12.8927   -8.4872   -7.4686 N   0  0  0  0  0  0  0  0  0  0  0  0
   14.3356   -7.4865   -9.0622 N   0  0  0  0  0  0  0  0  0  0  0  0
   15.4923   -6.6842   -9.3023 C   0  0  0  0  0  0  0  0  0  0  0  0
   15.9545   -6.6095  -10.7205 C   0  0  0  0  0  0  0  0  0  0  0  0
   17.1502   -5.7643  -11.0027 C   0  0  0  0  0  0  0  0  0  0  0  0
   17.6007   -5.8447  -12.3961 C   0  0  2  0  0  0  0  0  0  0  0  0
   18.2270   -7.0890  -12.7776 N   0  0  0  0  0  0  0  0  0  0  0  0
   18.3510   -4.7129  -12.9232 C   0  0  0  0  0  0  0  0  0  0  0  0
   17.8859   -3.3957  -12.7450 O   0  0  0  0  0  0  0  0  0  0  0  0
   19.4313   -4.8401  -13.5510 O   0  0  0  0  0  0  0  0  0  0  0  0
  1  2  1  0
  3  2  1  0
  3  4  1  1
  5  6  2  0
  5  3  1  0
  7  5  1  0
  8  7  1  0
  9 10  1  0
  8  9  1  6
 10 14  1  0
 10 11  2  0
 12 23  1  0
 12  8  1  0
 13 12  2  0
 16 15  1  0
 17 16  2  0
 18 16  1  0
 19 18  1  0
 20 19  1  0
 21 20  1  0
 22 21  1  1
 22 23  1  0
 24 22  1  0
 25 24  1  0
 26 24  2  0
M  END
$$$$
