SDR.pdb
     RDKit          3D

 26 25  0  0  1  0  0  0  0  0999 V2000
   26.7979  -13.9746  -17.6923 O   0  0  0  0  0  0  0  0  0  0  0  0
   25.9971  -12.9414  -17.2414 C   0  0  0  0  0  0  0  0  0  0  0  0
   26.8058  -11.6554  -17.1556 C   0  0  2  0  0  0  0  0  0  0  0  0
   27.9069  -11.8832  -16.2562 N   0  0  0  0  0  0  0  0  0  0  0  0
   25.9512  -10.5412  -16.6974 C   0  0  0  0  0  0  0  0  0  0  0  0
   25.6046  -10.3989  -15.4933 O   0  0  0  0  0  0  0  0  0  0  0  0
   25.4489   -9.5310  -17.5962 N   0  0  0  0  0  0  0  0  0  0  0  0
   24.6212   -8.4455  -17.1136 C   0  0  1  0  0  0  0  0  0  0  0  0
   25.3125   -7.1557  -17.5082 C   0  0  0  0  0  0  0  0  0  0  0  0
   24.5891   -5.9679  -17.0250 C   0  0  0  0  0  0  0  0  0  0  0  0
   23.7560   -6.0829  -16.0774 O   0  0  0  0  0  0  0  0  0  0  0  0
   23.2472   -8.5120  -17.6798 C   0  0  0  0  0  0  0  0  0  0  0  0
   23.0107   -8.6352  -18.8912 O   0  0  0  0  0  0  0  0  0  0  0  0
   24.7482   -4.6847  -17.5383 O   0  0  0  0  0  0  0  0  0  0  0  0
   18.9962  -13.5470  -16.1191 N   0  0  0  0  0  0  0  0  0  0  0  0
   18.1789  -12.8151  -15.2100 C   0  0  0  0  0  0  0  0  0  0  0  0
   17.6687  -13.3673  -14.1703 N   0  0  0  0  0  0  0  0  0  0  0  0
   17.9439  -11.4280  -15.5068 N   0  0  0  0  0  0  0  0  0  0  0  0
   17.8415  -10.9903  -16.8623 C   0  0  0  0  0  0  0  0  0  0  0  0
   18.6290   -9.7723  -17.2183 C   0  0  0  0  0  0  0  0  0  0  0  0
   20.0390   -9.7090  -16.7369 C   0  0  0  0  0  0  0  0  0  0  0  0
   20.7569   -8.5175  -17.2016 C   0  0  2  0  0  0  0  0  0  0  0  0
   22.1434   -8.4319  -16.8062 N   0  0  0  0  0  0  0  0  0  0  0  0
   20.0972   -7.2300  -17.0319 C   0  0  0  0  0  0  0  0  0  0  0  0
   20.5817   -6.2906  -16.1014 O   0  0  0  0  0  0  0  0  0  0  0  0
   19.0833   -6.8880  -17.6896 O   0  0  0  0  0  0  0  0  0  0  0  0
  1  2  1  0
  3  2  1  0
  3  4  1  1
  5  6  2  0
  5  3  1  0
  7  5  1  0
  8  7  1  0
  9 10  1  0
  8  9  1  6
 10 14  1  0
 10 11  2  0
 12 23  1  0
 12  8  1  0
 13 12  2  0
 16 15  1  0
 17 16  2  0
 18 16  1  0
 19 18  1  0
 20 19  1  0
 21 20  1  0
 22 21  1  1
 22 23  1  0
 24 22  1  0
 25 24  1  0
 26 24  2  0
M  END
$$$$
