SDR.pdb
     RDKit          3D

 26 25  0  0  1  0  0  0  0  0999 V2000
   14.8003   -5.5078   -6.0772 O   0  0  0  0  0  0  0  0  0  0  0  0
   15.1950   -5.9404   -7.3299 C   0  0  0  0  0  0  0  0  0  0  0  0
   15.9756   -4.8426   -8.0376 C   0  0  2  0  0  0  0  0  0  0  0  0
   15.0979   -3.7140   -8.2083 N   0  0  0  0  0  0  0  0  0  0  0  0
   16.4900   -5.3319   -9.3329 C   0  0  0  0  0  0  0  0  0  0  0  0
   15.8225   -5.2641  -10.4007 O   0  0  0  0  0  0  0  0  0  0  0  0
   17.7974   -5.9251   -9.4720 N   0  0  0  0  0  0  0  0  0  0  0  0
   18.2152   -6.5300  -10.7194 C   0  0  1  0  0  0  0  0  0  0  0  0
   19.7279   -6.6157  -10.6821 C   0  0  0  0  0  0  0  0  0  0  0  0
   20.2918   -7.0395  -11.9744 C   0  0  0  0  0  0  0  0  0  0  0  0
   19.5273   -7.1907  -12.9734 O   0  0  0  0  0  0  0  0  0  0  0  0
   17.6067   -7.8745  -10.9060 C   0  0  0  0  0  0  0  0  0  0  0  0
   17.7292   -8.8011  -10.0905 O   0  0  0  0  0  0  0  0  0  0  0  0
   21.6403   -7.2971  -12.2000 O   0  0  0  0  0  0  0  0  0  0  0  0
   10.7442  -12.6016  -10.6792 N   0  0  0  0  0  0  0  0  0  0  0  0
   11.9146  -13.2137  -11.2137 C   0  0  0  0  0  0  0  0  0  0  0  0
   11.8741  -14.3676  -11.7734 N   0  0  0  0  0  0  0  0  0  0  0  0
   13.1492  -12.4861  -11.0974 N   0  0  0  0  0  0  0  0  0  0  0  0
   13.1343  -11.0695  -10.9168 C   0  0  0  0  0  0  0  0  0  0  0  0
   14.4681  -10.3979  -10.8978 C   0  0  0  0  0  0  0  0  0  0  0  0
   14.7488   -9.4119  -11.9807 C   0  0  0  0  0  0  0  0  0  0  0  0
   16.1629   -9.3619  -12.3666 C   0  0  2  0  0  0  0  0  0  0  0  0
   16.8471   -8.1258  -12.0670 N   0  0  0  0  0  0  0  0  0  0  0  0
   16.5086   -9.8257  -13.7034 C   0  0  0  0  0  0  0  0  0  0  0  0
   16.8509   -8.9095  -14.7165 O   0  0  0  0  0  0  0  0  0  0  0  0
   16.5235  -11.0398  -14.0245 O   0  0  0  0  0  0  0  0  0  0  0  0
  1  2  1  0
  3  2  1  0
  3  4  1  6
  5  6  2  0
  5  3  1  0
  7  5  1  0
  8  7  1  0
  9 10  1  0
  8  9  1  1
 10 14  1  0
 10 11  2  0
 12 23  1  0
 12  8  1  0
 13 12  2  0
 16 15  1  0
 17 16  2  0
 18 16  1  0
 19 18  1  0
 20 19  1  0
 21 20  1  0
 22 21  1  6
 22 23  1  0
 24 22  1  0
 25 24  1  0
 26 24  2  0
M  END
$$$$
