SDR.pdb
     RDKit          3D

 26 25  0  0  1  0  0  0  0  0999 V2000
   26.7404  -19.5445  -14.9381 O   0  0  0  0  0  0  0  0  0  0  0  0
   26.9119  -19.9756  -13.6354 C   0  0  0  0  0  0  0  0  0  0  0  0
   26.1580  -21.2789  -13.4150 C   0  0  2  0  0  0  0  0  0  0  0  0
   26.6338  -22.2351  -14.3806 N   0  0  0  0  0  0  0  0  0  0  0  0
   24.7030  -21.0577  -13.5404 C   0  0  0  0  0  0  0  0  0  0  0  0
   24.0386  -21.4448  -14.5400 O   0  0  0  0  0  0  0  0  0  0  0  0
   23.9329  -20.3808  -12.5259 N   0  0  0  0  0  0  0  0  0  0  0  0
   22.5105  -20.1640  -12.6872 C   0  0  1  0  0  0  0  0  0  0  0  0
   21.9748  -19.7337  -11.3363 C   0  0  0  0  0  0  0  0  0  0  0  0
   20.5046  -19.7885  -11.2792 C   0  0  0  0  0  0  0  0  0  0  0  0
   19.9061  -19.4771  -10.2067 O   0  0  0  0  0  0  0  0  0  0  0  0
   22.2280  -19.1384  -13.7270 C   0  0  0  0  0  0  0  0  0  0  0  0
   22.7802  -18.0282  -13.7620 O   0  0  0  0  0  0  0  0  0  0  0  0
   19.6877  -20.1663  -12.3401 O   0  0  0  0  0  0  0  0  0  0  0  0
   25.6963  -20.4953  -19.7738 N   0  0  0  0  0  0  0  0  0  0  0  0
   25.1462  -21.1231  -18.6191 C   0  0  0  0  0  0  0  0  0  0  0  0
   25.4489  -22.3287  -18.3008 N   0  0  0  0  0  0  0  0  0  0  0  0
   24.2315  -20.3506  -17.8230 N   0  0  0  0  0  0  0  0  0  0  0  0
   23.9076  -19.0109  -18.1970 C   0  0  0  0  0  0  0  0  0  0  0  0
   22.9397  -18.2993  -17.3098 C   0  0  0  0  0  0  0  0  0  0  0  0
   21.5994  -18.9259  -17.1242 C   0  0  0  0  0  0  0  0  0  0  0  0
   20.9647  -18.5697  -15.8509 C   0  0  2  0  0  0  0  0  0  0  0  0
   21.2845  -19.4277  -14.7339 N   0  0  0  0  0  0  0  0  0  0  0  0
   19.5391  -18.2718  -15.8740 C   0  0  0  0  0  0  0  0  0  0  0  0
   19.0752  -17.0058  -16.2804 O   0  0  0  0  0  0  0  0  0  0  0  0
   18.6598  -19.1053  -15.5431 O   0  0  0  0  0  0  0  0  0  0  0  0
  1  2  1  0
  3  2  1  0
  3  4  1  6
  5  6  2  0
  5  3  1  0
  7  5  1  0
  8  7  1  0
  9 10  1  0
  8  9  1  1
 10 14  1  0
 10 11  2  0
 12 23  1  0
 12  8  1  0
 13 12  2  0
 16 15  1  0
 17 16  2  0
 18 16  1  0
 19 18  1  0
 20 19  1  0
 21 20  1  0
 22 21  1  6
 22 23  1  0
 24 22  1  0
 25 24  1  0
 26 24  2  0
M  END
$$$$
