SDR.pdb
     RDKit          3D

 26 25  0  0  1  0  0  0  0  0999 V2000
   21.5542  -12.0753  -18.2163 O   0  0  0  0  0  0  0  0  0  0  0  0
   21.3997  -11.4845  -16.9756 C   0  0  0  0  0  0  0  0  0  0  0  0
   22.5452  -10.5180  -16.7130 C   0  0  2  0  0  0  0  0  0  0  0  0
   23.7319  -11.2943  -16.4633 N   0  0  0  0  0  0  0  0  0  0  0  0
   22.2221   -9.6369  -15.5724 C   0  0  0  0  0  0  0  0  0  0  0  0
   22.0057  -10.0776  -14.4108 O   0  0  0  0  0  0  0  0  0  0  0  0
   22.1301   -8.2034  -15.7037 N   0  0  0  0  0  0  0  0  0  0  0  0
   21.6766   -7.3792  -14.6031 C   0  0  1  0  0  0  0  0  0  0  0  0
   22.3775   -6.0420  -14.7365 C   0  0  0  0  0  0  0  0  0  0  0  0
   22.0002   -5.1081  -13.6627 C   0  0  0  0  0  0  0  0  0  0  0  0
   21.7953   -5.5473  -12.4921 O   0  0  0  0  0  0  0  0  0  0  0  0
   20.1984   -7.2131  -14.6171 C   0  0  0  0  0  0  0  0  0  0  0  0
   19.5547   -6.8918  -15.6275 O   0  0  0  0  0  0  0  0  0  0  0  0
   21.8440   -3.7357  -13.8300 O   0  0  0  0  0  0  0  0  0  0  0  0
   13.6940  -10.5783   -9.5803 N   0  0  0  0  0  0  0  0  0  0  0  0
   13.0030   -9.7309  -10.4939 C   0  0  0  0  0  0  0  0  0  0  0  0
   11.7292   -9.7912  -10.6350 N   0  0  0  0  0  0  0  0  0  0  0  0
   13.7933   -8.8040  -11.2578 N   0  0  0  0  0  0  0  0  0  0  0  0
   15.2192   -8.8732  -11.2195 C   0  0  0  0  0  0  0  0  0  0  0  0
   15.9432   -8.0073  -12.1975 C   0  0  0  0  0  0  0  0  0  0  0  0
   17.4240   -8.1640  -12.2790 C   0  0  0  0  0  0  0  0  0  0  0  0
   18.0447   -7.2910  -13.2807 C   0  0  2  0  0  0  0  0  0  0  0  0
   19.4751   -7.4285  -13.4262 N   0  0  0  0  0  0  0  0  0  0  0  0
   17.6655   -5.8847  -13.2699 C   0  0  0  0  0  0  0  0  0  0  0  0
   18.2877   -4.9787  -12.3895 O   0  0  0  0  0  0  0  0  0  0  0  0
   16.7845   -5.4072  -14.0270 O   0  0  0  0  0  0  0  0  0  0  0  0
  1  2  1  0
  3  2  1  0
  3  4  1  1
  5  6  2  0
  5  3  1  0
  7  5  1  0
  8  7  1  0
  9 10  1  0
  8  9  1  6
 10 14  1  0
 10 11  2  0
 12 23  1  0
 12  8  1  0
 13 12  2  0
 16 15  1  0
 17 16  2  0
 18 16  1  0
 19 18  1  0
 20 19  1  0
 21 20  1  0
 22 21  1  1
 22 23  1  0
 24 22  1  0
 25 24  1  0
 26 24  2  0
M  END
$$$$
