SDR.pdb
     RDKit          3D

 26 25  0  0  1  0  0  0  0  0999 V2000
   23.9196  -23.1552  -17.1398 O   0  0  0  0  0  0  0  0  0  0  0  0
   24.8683  -22.1517  -17.2123 C   0  0  0  0  0  0  0  0  0  0  0  0
   25.4222  -21.8580  -15.8258 C   0  0  2  0  0  0  0  0  0  0  0  0
   26.1393  -23.0238  -15.3787 N   0  0  0  0  0  0  0  0  0  0  0  0
   24.3270  -21.5052  -14.8996 C   0  0  0  0  0  0  0  0  0  0  0  0
   24.2959  -21.8956  -13.7009 O   0  0  0  0  0  0  0  0  0  0  0  0
   23.2093  -20.6857  -15.2994 N   0  0  0  0  0  0  0  0  0  0  0  0
   22.1403  -20.3758  -14.3734 C   0  0  1  0  0  0  0  0  0  0  0  0
   21.8490  -18.8954  -14.5168 C   0  0  0  0  0  0  0  0  0  0  0  0
   20.8334  -18.4340  -13.5559 C   0  0  0  0  0  0  0  0  0  0  0  0
   20.4674  -19.1983  -12.6140 O   0  0  0  0  0  0  0  0  0  0  0  0
   20.9259  -21.1899  -14.6477 C   0  0  0  0  0  0  0  0  0  0  0  0
   20.4337  -21.3266  -15.7780 O   0  0  0  0  0  0  0  0  0  0  0  0
   20.2197  -17.1860  -13.5955 O   0  0  0  0  0  0  0  0  0  0  0  0
   17.6282  -27.8371   -9.9240 N   0  0  0  0  0  0  0  0  0  0  0  0
   18.9024  -27.5129  -10.4729 C   0  0  0  0  0  0  0  0  0  0  0  0
   19.9648  -28.1419  -10.1234 N   0  0  0  0  0  0  0  0  0  0  0  0
   18.9520  -26.4460  -11.4354 N   0  0  0  0  0  0  0  0  0  0  0  0
   17.7484  -25.8077  -11.8634 C   0  0  0  0  0  0  0  0  0  0  0  0
   17.9103  -24.7016  -12.8538 C   0  0  0  0  0  0  0  0  0  0  0  0
   19.0552  -23.7681  -12.6499 C   0  0  0  0  0  0  0  0  0  0  0  0
   19.1652  -22.7485  -13.6984 C   0  0  2  0  0  0  0  0  0  0  0  0
   20.2879  -21.8481  -13.5764 N   0  0  0  0  0  0  0  0  0  0  0  0
   17.9568  -22.0136  -14.0466 C   0  0  0  0  0  0  0  0  0  0  0  0
   17.0727  -22.5057  -15.0261 O   0  0  0  0  0  0  0  0  0  0  0  0
   17.6377  -20.9253  -13.5070 O   0  0  0  0  0  0  0  0  0  0  0  0
  1  2  1  0
  3  2  1  0
  3  4  1  1
  5  6  2  0
  5  3  1  0
  7  5  1  0
  8  7  1  0
  9 10  1  0
  8  9  1  6
 10 14  1  0
 10 11  2  0
 12 23  1  0
 12  8  1  0
 13 12  2  0
 16 15  1  0
 17 16  2  0
 18 16  1  0
 19 18  1  0
 20 19  1  0
 21 20  1  0
 22 21  1  1
 22 23  1  0
 24 22  1  0
 25 24  1  0
 26 24  2  0
M  END
$$$$
