SDR.pdb
     RDKit          3D

 26 25  0  0  1  0  0  0  0  0999 V2000
   20.3572  -12.9010  -16.6839 O   0  0  0  0  0  0  0  0  0  0  0  0
   20.2685  -11.8211  -15.8248 C   0  0  0  0  0  0  0  0  0  0  0  0
   20.0433  -10.5422  -16.6179 C   0  0  2  0  0  0  0  0  0  0  0  0
   21.1221  -10.4103  -17.5623 N   0  0  0  0  0  0  0  0  0  0  0  0
   19.9717   -9.3803  -15.7087 C   0  0  0  0  0  0  0  0  0  0  0  0
   19.0981   -9.2747  -14.8054 O   0  0  0  0  0  0  0  0  0  0  0  0
   20.8984   -8.2777  -15.7876 N   0  0  0  0  0  0  0  0  0  0  0  0
   20.7434   -7.1090  -14.9471 C   0  0  1  0  0  0  0  0  0  0  0  0
   22.1382   -6.6203  -14.6112 C   0  0  0  0  0  0  0  0  0  0  0  0
   22.1168   -5.4676  -13.6954 C   0  0  0  0  0  0  0  0  0  0  0  0
   21.1673   -5.3426  -12.8659 O   0  0  0  0  0  0  0  0  0  0  0  0
   19.9529   -6.0477  -15.6264 C   0  0  0  0  0  0  0  0  0  0  0  0
   20.2229   -5.6085  -16.7546 O   0  0  0  0  0  0  0  0  0  0  0  0
   23.0847   -4.4688  -13.6621 O   0  0  0  0  0  0  0  0  0  0  0  0
   11.8148   -2.6664  -14.0527 N   0  0  0  0  0  0  0  0  0  0  0  0
   12.2793   -1.8906  -15.1538 C   0  0  0  0  0  0  0  0  0  0  0  0
   11.5566   -0.9705  -15.6804 N   0  0  0  0  0  0  0  0  0  0  0  0
   13.5942   -2.1831  -15.6565 N   0  0  0  0  0  0  0  0  0  0  0  0
   14.3812   -3.2119  -15.0551 C   0  0  0  0  0  0  0  0  0  0  0  0
   15.7761   -3.3545  -15.5694 C   0  0  0  0  0  0  0  0  0  0  0  0
   16.6125   -4.4372  -14.9763 C   0  0  0  0  0  0  0  0  0  0  0  0
   17.9882   -4.4507  -15.4845 C   0  0  2  0  0  0  0  0  0  0  0  0
   18.8335   -5.5008  -14.9662 N   0  0  0  0  0  0  0  0  0  0  0  0
   18.7053   -3.1831  -15.5084 C   0  0  0  0  0  0  0  0  0  0  0  0
   18.7105   -2.3812  -16.6660 O   0  0  0  0  0  0  0  0  0  0  0  0
   19.3446   -2.7393  -14.5226 O   0  0  0  0  0  0  0  0  0  0  0  0
  1  2  1  0
  3  2  1  0
  3  4  1  6
  5  6  2  0
  5  3  1  0
  7  5  1  0
  8  7  1  0
  9 10  1  0
  8  9  1  6
 10 14  1  0
 10 11  2  0
 12 23  1  0
 12  8  1  0
 13 12  2  0
 16 15  1  0
 17 16  2  0
 18 16  1  0
 19 18  1  0
 20 19  1  0
 21 20  1  0
 22 21  1  1
 22 23  1  0
 24 22  1  0
 25 24  1  0
 26 24  2  0
M  END
$$$$
