SDR.pdb
     RDKit          3D

 26 25  0  0  1  0  0  0  0  0999 V2000
   13.2838   -9.6047   -8.2998 O   0  0  0  0  0  0  0  0  0  0  0  0
   13.5427   -9.0048   -7.0811 C   0  0  0  0  0  0  0  0  0  0  0  0
   12.9633   -7.5980   -7.0598 C   0  0  2  0  0  0  0  0  0  0  0  0
   11.5491   -7.6970   -7.3116 N   0  0  0  0  0  0  0  0  0  0  0  0
   13.6363   -6.7505   -8.0651 C   0  0  0  0  0  0  0  0  0  0  0  0
   13.0111   -6.1616   -8.9885 O   0  0  0  0  0  0  0  0  0  0  0  0
   15.0623   -6.5335   -8.0645 N   0  0  0  0  0  0  0  0  0  0  0  0
   15.6904   -5.6877   -9.0577 C   0  0  1  0  0  0  0  0  0  0  0  0
   16.1700   -4.4437   -8.3369 C   0  0  0  0  0  0  0  0  0  0  0  0
   16.8439   -3.5010   -9.2451 C   0  0  0  0  0  0  0  0  0  0  0  0
   16.8751   -3.7413  -10.4887 O   0  0  0  0  0  0  0  0  0  0  0  0
   16.8180   -6.3832   -9.7342 C   0  0  0  0  0  0  0  0  0  0  0  0
   17.8122   -6.8198   -9.1345 O   0  0  0  0  0  0  0  0  0  0  0  0
   17.4714   -2.3274   -8.8397 O   0  0  0  0  0  0  0  0  0  0  0  0
   17.1481  -12.2020  -16.3908 N   0  0  0  0  0  0  0  0  0  0  0  0
   18.4696  -12.0823  -15.8717 C   0  0  0  0  0  0  0  0  0  0  0  0
   19.3418  -13.0094  -16.0326 N   0  0  0  0  0  0  0  0  0  0  0  0
   18.7878  -10.8777  -15.1540 N   0  0  0  0  0  0  0  0  0  0  0  0
   17.7594  -10.1468  -14.4849 C   0  0  0  0  0  0  0  0  0  0  0  0
   18.2138   -9.0039  -13.6376 C   0  0  0  0  0  0  0  0  0  0  0  0
   17.1772   -8.3063  -12.8237 C   0  0  0  0  0  0  0  0  0  0  0  0
   17.7353   -7.3016  -11.9126 C   0  0  2  0  0  0  0  0  0  0  0  0
   16.7698   -6.5640  -11.1316 N   0  0  0  0  0  0  0  0  0  0  0  0
   18.7518   -6.4053  -12.4464 C   0  0  0  0  0  0  0  0  0  0  0  0
   18.3870   -5.2501  -13.1646 O   0  0  0  0  0  0  0  0  0  0  0  0
   19.9836   -6.6026  -12.3008 O   0  0  0  0  0  0  0  0  0  0  0  0
  1  2  1  0
  3  2  1  0
  3  4  1  6
  5  6  2  0
  5  3  1  0
  7  5  1  0
  8  7  1  0
  9 10  1  0
  8  9  1  1
 10 14  1  0
 10 11  2  0
 12 23  1  0
 12  8  1  0
 13 12  2  0
 16 15  1  0
 17 16  2  0
 18 16  1  0
 19 18  1  0
 20 19  1  0
 21 20  1  0
 22 21  1  6
 22 23  1  0
 24 22  1  0
 25 24  1  0
 26 24  2  0
M  END
$$$$
