SDR.pdb
     RDKit          3D

 26 25  0  0  1  0  0  0  0  0999 V2000
   19.2849  -12.0563  -16.7037 O   0  0  0  0  0  0  0  0  0  0  0  0
   19.5025  -11.4083  -15.5016 C   0  0  0  0  0  0  0  0  0  0  0  0
   18.4991  -10.2772  -15.3309 C   0  0  2  0  0  0  0  0  0  0  0  0
   18.5507   -9.4565  -16.5128 N   0  0  0  0  0  0  0  0  0  0  0  0
   18.8060   -9.4980  -14.1142 C   0  0  0  0  0  0  0  0  0  0  0  0
   18.6237   -9.9503  -12.9513 O   0  0  0  0  0  0  0  0  0  0  0  0
   19.3385   -8.1585  -14.1670 N   0  0  0  0  0  0  0  0  0  0  0  0
   19.7374   -7.4643  -12.9606 C   0  0  1  0  0  0  0  0  0  0  0  0
   20.7457   -6.4103  -13.3722 C   0  0  0  0  0  0  0  0  0  0  0  0
   21.1736   -5.5777  -12.2358 C   0  0  0  0  0  0  0  0  0  0  0  0
   20.3073   -4.9532  -11.5541 O   0  0  0  0  0  0  0  0  0  0  0  0
   18.5708   -6.8498  -12.2720 C   0  0  0  0  0  0  0  0  0  0  0  0
   17.8026   -6.0414  -12.8150 O   0  0  0  0  0  0  0  0  0  0  0  0
   22.4949   -5.4127  -11.8324 O   0  0  0  0  0  0  0  0  0  0  0  0
   11.6175   -9.5544   -8.1757 N   0  0  0  0  0  0  0  0  0  0  0  0
   11.7957   -8.2849   -7.5538 C   0  0  0  0  0  0  0  0  0  0  0  0
   10.8798   -7.7581   -6.8260 N   0  0  0  0  0  0  0  0  0  0  0  0
   13.0467   -7.6124   -7.7779 N   0  0  0  0  0  0  0  0  0  0  0  0
   13.7196   -7.7448   -9.0305 C   0  0  0  0  0  0  0  0  0  0  0  0
   14.9606   -6.9307   -9.1964 C   0  0  0  0  0  0  0  0  0  0  0  0
   16.1111   -7.5778   -9.8903 C   0  0  0  0  0  0  0  0  0  0  0  0
   17.2342   -6.6643  -10.1250 C   0  0  2  0  0  0  0  0  0  0  0  0
   18.3103   -7.1939  -10.9297 N   0  0  0  0  0  0  0  0  0  0  0  0
   17.7636   -5.9451   -8.9743 C   0  0  0  0  0  0  0  0  0  0  0  0
   19.0691   -6.1941   -8.5086 O   0  0  0  0  0  0  0  0  0  0  0  0
   17.1052   -5.0802   -8.3451 O   0  0  0  0  0  0  0  0  0  0  0  0
  1  2  1  0
  3  2  1  0
  3  4  1  6
  5  6  2  0
  5  3  1  0
  7  5  1  0
  8  7  1  0
  9 10  1  0
  8  9  1  6
 10 14  1  0
 10 11  2  0
 12 23  1  0
 12  8  1  0
 13 12  2  0
 16 15  1  0
 17 16  2  0
 18 16  1  0
 19 18  1  0
 20 19  1  0
 21 20  1  0
 22 21  1  1
 22 23  1  0
 24 22  1  0
 25 24  1  0
 26 24  2  0
M  END
$$$$
