SDR.pdb
     RDKit          3D

 26 25  0  0  1  0  0  0  0  0999 V2000
   30.7447  -22.1919  -19.2826 O   0  0  0  0  0  0  0  0  0  0  0  0
   31.0261  -23.1529  -18.3289 C   0  0  0  0  0  0  0  0  0  0  0  0
   29.7337  -23.7691  -17.8137 C   0  0  2  0  0  0  0  0  0  0  0  0
   29.0602  -24.3834  -18.9282 N   0  0  0  0  0  0  0  0  0  0  0  0
   28.8933  -22.7376  -17.1722 C   0  0  0  0  0  0  0  0  0  0  0  0
   29.2486  -22.1192  -16.1321 O   0  0  0  0  0  0  0  0  0  0  0  0
   27.6007  -22.3607  -17.6897 N   0  0  0  0  0  0  0  0  0  0  0  0
   26.7900  -21.3635  -17.0229 C   0  0  1  0  0  0  0  0  0  0  0  0
   25.8566  -20.7848  -18.0673 C   0  0  0  0  0  0  0  0  0  0  0  0
   24.9190  -19.8060  -17.4924 C   0  0  0  0  0  0  0  0  0  0  0  0
   25.3540  -18.8947  -16.7272 O   0  0  0  0  0  0  0  0  0  0  0  0
   26.0272  -21.9486  -15.8877 C   0  0  0  0  0  0  0  0  0  0  0  0
   25.2653  -22.9206  -16.0030 O   0  0  0  0  0  0  0  0  0  0  0  0
   23.5475  -19.7962  -17.7261 O   0  0  0  0  0  0  0  0  0  0  0  0
   21.9695  -20.2101   -9.6282 N   0  0  0  0  0  0  0  0  0  0  0  0
   22.6127  -21.0215   -8.6495 C   0  0  0  0  0  0  0  0  0  0  0  0
   21.9706  -21.5050   -7.6494 N   0  0  0  0  0  0  0  0  0  0  0  0
   24.0170  -21.2754   -8.8251 N   0  0  0  0  0  0  0  0  0  0  0  0
   24.7074  -20.7441   -9.9567 C   0  0  0  0  0  0  0  0  0  0  0  0
   25.1480  -21.7379  -10.9808 C   0  0  0  0  0  0  0  0  0  0  0  0
   25.8881  -21.2128  -12.1641 C   0  0  0  0  0  0  0  0  0  0  0  0
   25.4017  -21.7525  -13.4381 C   0  0  2  0  0  0  0  0  0  0  0  0
   26.1663  -21.3795  -14.6052 N   0  0  0  0  0  0  0  0  0  0  0  0
   23.9742  -21.6474  -13.7079 C   0  0  0  0  0  0  0  0  0  0  0  0
   23.1230  -22.7533  -13.5188 O   0  0  0  0  0  0  0  0  0  0  0  0
   23.4298  -20.5908  -14.1136 O   0  0  0  0  0  0  0  0  0  0  0  0
  1  2  1  0
  3  2  1  0
  3  4  1  6
  5  6  2  0
  5  3  1  0
  7  5  1  0
  8  7  1  0
  9 10  1  0
  8  9  1  6
 10 14  1  0
 10 11  2  0
 12 23  1  0
 12  8  1  0
 13 12  2  0
 16 15  1  0
 17 16  2  0
 18 16  1  0
 19 18  1  0
 20 19  1  0
 21 20  1  0
 22 21  1  1
 22 23  1  0
 24 22  1  0
 25 24  1  0
 26 24  2  0
M  END
$$$$
