SDR.pdb
     RDKit          3D

 26 25  0  0  1  0  0  0  0  0999 V2000
   36.0223  -10.6516  -13.4630 O   0  0  0  0  0  0  0  0  0  0  0  0
   35.9232  -10.2379  -14.7787 C   0  0  0  0  0  0  0  0  0  0  0  0
   37.3109   -9.9959  -15.3542 C   0  0  2  0  0  0  0  0  0  0  0  0
   38.0239  -11.2466  -15.3333 N   0  0  0  0  0  0  0  0  0  0  0  0
   38.0148   -8.9559  -14.5765 C   0  0  0  0  0  0  0  0  0  0  0  0
   39.0932   -9.1779  -13.9615 O   0  0  0  0  0  0  0  0  0  0  0  0
   37.5192   -7.6061  -14.4631 N   0  0  0  0  0  0  0  0  0  0  0  0
   38.2467   -6.6027  -13.7147 C   0  0  1  0  0  0  0  0  0  0  0  0
   37.6169   -5.2644  -14.0450 C   0  0  0  0  0  0  0  0  0  0  0  0
   38.3247   -4.1443  -13.4030 C   0  0  0  0  0  0  0  0  0  0  0  0
   39.4187   -4.3562  -12.8002 O   0  0  0  0  0  0  0  0  0  0  0  0
   38.2001   -6.8706  -12.2522 C   0  0  0  0  0  0  0  0  0  0  0  0
   37.1648   -7.1864  -11.6463 O   0  0  0  0  0  0  0  0  0  0  0  0
   37.8788   -2.8264  -13.4020 O   0  0  0  0  0  0  0  0  0  0  0  0
   43.9819  -10.4532   -6.6522 N   0  0  0  0  0  0  0  0  0  0  0  0
   42.9479  -10.0168   -5.7744 C   0  0  0  0  0  0  0  0  0  0  0  0
   42.9458  -10.3295   -4.5300 N   0  0  0  0  0  0  0  0  0  0  0  0
   41.9001   -9.2116   -6.3410 N   0  0  0  0  0  0  0  0  0  0  0  0
   41.8875   -8.9298   -7.7410 C   0  0  0  0  0  0  0  0  0  0  0  0
   40.7597   -8.0804   -8.2278 C   0  0  0  0  0  0  0  0  0  0  0  0
   40.6857   -7.8232   -9.6948 C   0  0  0  0  0  0  0  0  0  0  0  0
   39.5093   -7.0401  -10.0871 C   0  0  2  0  0  0  0  0  0  0  0  0
   39.3875   -6.7639  -11.4995 N   0  0  0  0  0  0  0  0  0  0  0  0
   39.2080   -5.8482   -9.3060 C   0  0  0  0  0  0  0  0  0  0  0  0
   38.5515   -5.9489   -8.0642 O   0  0  0  0  0  0  0  0  0  0  0  0
   39.5092   -4.6884   -9.6824 O   0  0  0  0  0  0  0  0  0  0  0  0
  1  2  1  0
  3  2  1  0
  3  4  1  1
  5  6  2  0
  5  3  1  0
  7  5  1  0
  8  7  1  0
  9 10  1  0
  8  9  1  1
 10 14  1  0
 10 11  2  0
 12 23  1  0
 12  8  1  0
 13 12  2  0
 16 15  1  0
 17 16  2  0
 18 16  1  0
 19 18  1  0
 20 19  1  0
 21 20  1  0
 22 21  1  6
 22 23  1  0
 24 22  1  0
 25 24  1  0
 26 24  2  0
M  END
$$$$
