SDR.pdb
     RDKit          3D

 26 25  0  0  1  0  0  0  0  0999 V2000
   25.6403  -21.8194  -18.9233 O   0  0  0  0  0  0  0  0  0  0  0  0
   25.2241  -20.8949  -19.8637 C   0  0  0  0  0  0  0  0  0  0  0  0
   25.5040  -19.4844  -19.3662 C   0  0  2  0  0  0  0  0  0  0  0  0
   26.7645  -19.5016  -18.6704 N   0  0  0  0  0  0  0  0  0  0  0  0
   24.4070  -19.0212  -18.4922 C   0  0  0  0  0  0  0  0  0  0  0  0
   24.6096  -18.3708  -17.4310 O   0  0  0  0  0  0  0  0  0  0  0  0
   23.0194  -19.2796  -18.7892 N   0  0  0  0  0  0  0  0  0  0  0  0
   21.9719  -18.8834  -17.8715 C   0  0  1  0  0  0  0  0  0  0  0  0
   20.6788  -18.8630  -18.6618 C   0  0  0  0  0  0  0  0  0  0  0  0
   19.5517  -18.3453  -17.8685 C   0  0  0  0  0  0  0  0  0  0  0  0
   19.7372  -18.0047  -16.6624 O   0  0  0  0  0  0  0  0  0  0  0  0
   21.8781  -19.8133  -16.7143 C   0  0  0  0  0  0  0  0  0  0  0  0
   21.9858  -21.0450  -16.8147 O   0  0  0  0  0  0  0  0  0  0  0  0
   18.2544  -18.1927  -18.3476 O   0  0  0  0  0  0  0  0  0  0  0  0
   26.0967  -20.4669   -9.3266 N   0  0  0  0  0  0  0  0  0  0  0  0
   24.8489  -20.9881   -8.8777 C   0  0  0  0  0  0  0  0  0  0  0  0
   24.6928  -21.4207   -7.6799 N   0  0  0  0  0  0  0  0  0  0  0  0
   23.7676  -21.0139   -9.8250 N   0  0  0  0  0  0  0  0  0  0  0  0
   23.9246  -20.4137  -11.1114 C   0  0  0  0  0  0  0  0  0  0  0  0
   22.7768  -20.5745  -12.0533 C   0  0  0  0  0  0  0  0  0  0  0  0
   22.8529  -19.8416  -13.3497 C   0  0  0  0  0  0  0  0  0  0  0  0
   21.6721  -20.0388  -14.1969 C   0  0  2  0  0  0  0  0  0  0  0  0
   21.6547  -19.2826  -15.4273 N   0  0  0  0  0  0  0  0  0  0  0  0
   20.3682  -19.9903  -13.5495 C   0  0  0  0  0  0  0  0  0  0  0  0
   19.7959  -21.1521  -12.9965 O   0  0  0  0  0  0  0  0  0  0  0  0
   19.6936  -18.9359  -13.4464 O   0  0  0  0  0  0  0  0  0  0  0  0
  1  2  1  0
  3  2  1  0
  3  4  1  1
  5  6  2  0
  5  3  1  0
  7  5  1  0
  8  7  1  0
  9 10  1  0
  8  9  1  6
 10 14  1  0
 10 11  2  0
 12 23  1  0
 12  8  1  0
 13 12  2  0
 16 15  1  0
 17 16  2  0
 18 16  1  0
 19 18  1  0
 20 19  1  0
 21 20  1  0
 22 21  1  1
 22 23  1  0
 24 22  1  0
 25 24  1  0
 26 24  2  0
M  END
$$$$
