SVN.pdb
     RDKit          3D

 22 21  0  0  1  0  0  0  0  0999 V2000
    8.6496  -18.5381   16.4412 O   0  0  0  0  0  0  0  0  0  0  0  0
    7.5138  -17.7536   16.2932 C   0  0  0  0  0  0  0  0  0  0  0  0
    7.9844  -16.3361   16.0523 C   0  0  2  0  0  0  0  0  0  0  0  0
    8.8753  -16.3060   14.9318 N   0  0  0  0  0  0  0  0  0  0  0  0
    8.7065  -15.8169   17.2521 C   0  0  0  0  0  0  0  0  0  0  0  0
    9.9333  -15.8812   17.4118 O   0  0  0  0  0  0  0  0  0  0  0  0
    7.0835  -12.7375   19.4634 C   0  0  0  0  0  0  0  0  0  0  0  0
    7.4982  -13.9700   20.2708 C   0  0  2  0  0  0  0  0  0  0  0  0
    7.8711  -13.5369   21.6480 C   0  0  0  0  0  0  0  0  0  0  0  0
    8.5238  -14.7829   19.5520 C   0  0  2  0  0  0  0  0  0  0  0  0
    7.9203  -15.2057   18.2811 N   0  0  0  0  0  0  0  0  0  0  0  0
    9.0183  -15.9532   20.3132 C   0  0  0  0  0  0  0  0  0  0  0  0
    8.3957  -17.0412   20.2534 O   0  0  0  0  0  0  0  0  0  0  0  0
   12.3953  -20.1610   21.3062 N   0  0  0  0  0  0  0  0  0  0  0  0
   12.6218  -18.7683   21.4734 C   0  0  0  0  0  0  0  0  0  0  0  0
   13.6261  -18.4915   22.2253 O   0  0  0  0  0  0  0  0  0  0  0  0
   11.8479  -17.6818   20.8889 C   0  0  0  0  0  0  0  0  0  0  0  0
   10.7689  -17.0976   21.7548 C   0  0  2  0  0  0  0  0  0  0  0  0
   10.1793  -15.9186   21.1246 N   0  0  0  0  0  0  0  0  0  0  0  0
   11.3397  -16.6230   23.0402 C   0  0  0  0  0  0  0  0  0  0  0  0
   11.4592  -17.4298   24.1688 O   0  0  0  0  0  0  0  0  0  0  0  0
   11.7388  -15.4185   23.1138 O   0  0  0  0  0  0  0  0  0  0  0  0
  1  2  1  0
  3  5  1  0
  3  2  1  0
  3  4  1  6
  5  6  2  0
  5 11  1  0
  8  7  1  6
  8  9  1  0
  8 10  1  0
 10 12  1  0
 10 11  1  6
 12 13  2  0
 12 19  1  0
 15 17  1  0
 15 14  1  0
 16 15  2  0
 18 17  1  6
 19 18  1  0
 20 18  1  0
 20 21  1  0
 22 20  2  0
M  END
$$$$
