SVN.pdb
     RDKit          3D

 22 21  0  0  1  0  0  0  0  0999 V2000
    9.2857  -17.9220   16.3672 O   0  0  0  0  0  0  0  0  0  0  0  0
    8.0776  -17.2382   16.3484 C   0  0  0  0  0  0  0  0  0  0  0  0
    8.3998  -15.7787   16.1146 C   0  0  2  0  0  0  0  0  0  0  0  0
    9.1367  -15.6352   14.8954 N   0  0  0  0  0  0  0  0  0  0  0  0
    9.2243  -15.2417   17.2382 C   0  0  0  0  0  0  0  0  0  0  0  0
   10.4586  -15.1391   17.2128 O   0  0  0  0  0  0  0  0  0  0  0  0
    7.1553  -14.1245   20.9085 C   0  0  0  0  0  0  0  0  0  0  0  0
    8.2721  -13.3151   20.2447 C   0  0  2  0  0  0  0  0  0  0  0  0
    7.6559  -12.2433   19.4112 C   0  0  0  0  0  0  0  0  0  0  0  0
    9.2501  -14.1961   19.5400 C   0  0  2  0  0  0  0  0  0  0  0  0
    8.5335  -14.8198   18.4194 N   0  0  0  0  0  0  0  0  0  0  0  0
    9.8748  -15.2261   20.4017 C   0  0  0  0  0  0  0  0  0  0  0  0
    9.3699  -16.3734   20.4640 O   0  0  0  0  0  0  0  0  0  0  0  0
   14.3181  -14.2801   20.2756 N   0  0  0  0  0  0  0  0  0  0  0  0
   13.9139  -15.5165   20.8474 C   0  0  0  0  0  0  0  0  0  0  0  0
   14.2563  -16.5449   20.1577 O   0  0  0  0  0  0  0  0  0  0  0  0
   13.1812  -15.7045   22.0920 C   0  0  0  0  0  0  0  0  0  0  0  0
   11.7191  -16.0195   21.9579 C   0  0  2  0  0  0  0  0  0  0  0  0
   11.0356  -14.9895   21.1788 N   0  0  0  0  0  0  0  0  0  0  0  0
   11.0661  -16.0145   23.2909 C   0  0  0  0  0  0  0  0  0  0  0  0
   11.2949  -16.9890   24.2589 O   0  0  0  0  0  0  0  0  0  0  0  0
   10.2565  -15.0728   23.5614 O   0  0  0  0  0  0  0  0  0  0  0  0
  1  2  1  0
  3  5  1  0
  3  2  1  0
  3  4  1  6
  5  6  2  0
  5 11  1  0
  8  7  1  6
  8  9  1  0
  8 10  1  0
 10 12  1  0
 10 11  1  6
 12 13  2  0
 12 19  1  0
 15 17  1  0
 15 14  1  0
 16 15  2  0
 18 17  1  1
 19 18  1  0
 20 18  1  0
 20 21  1  0
 22 20  2  0
M  END
$$$$
