SVN.pdb
     RDKit          3D

 22 21  0  0  1  0  0  0  0  0999 V2000
    7.1657  -19.3319   17.6471 O   0  0  0  0  0  0  0  0  0  0  0  0
    8.0522  -18.6359   18.4577 C   0  0  0  0  0  0  0  0  0  0  0  0
    8.1390  -17.2281   17.9105 C   0  0  2  0  0  0  0  0  0  0  0  0
    8.8050  -17.2420   16.6430 N   0  0  0  0  0  0  0  0  0  0  0  0
    8.9076  -16.3532   18.8455 C   0  0  0  0  0  0  0  0  0  0  0  0
   10.1377  -16.2092   18.8164 O   0  0  0  0  0  0  0  0  0  0  0  0
    6.6284  -14.3221   21.9185 C   0  0  0  0  0  0  0  0  0  0  0  0
    7.9026  -13.7624   21.2811 C   0  0  2  0  0  0  0  0  0  0  0  0
    7.5185  -12.8104   20.1998 C   0  0  0  0  0  0  0  0  0  0  0  0
    8.8428  -14.8497   20.8772 C   0  0  2  0  0  0  0  0  0  0  0  0
    8.1649  -15.6371   19.8385 N   0  0  0  0  0  0  0  0  0  0  0  0
    9.2839  -15.7202   21.9912 C   0  0  0  0  0  0  0  0  0  0  0  0
    8.6543  -16.7768   22.2408 O   0  0  0  0  0  0  0  0  0  0  0  0
   14.3135  -15.5398   22.6451 N   0  0  0  0  0  0  0  0  0  0  0  0
   13.2612  -16.3608   23.1325 C   0  0  0  0  0  0  0  0  0  0  0  0
   13.1771  -17.5008   22.5462 O   0  0  0  0  0  0  0  0  0  0  0  0
   12.3176  -16.0327   24.1923 C   0  0  0  0  0  0  0  0  0  0  0  0
   10.8692  -16.2915   23.8921 C   0  0  2  0  0  0  0  0  0  0  0  0
   10.4003  -15.4257   22.8125 N   0  0  0  0  0  0  0  0  0  0  0  0
   10.0304  -15.9554   25.0697 C   0  0  0  0  0  0  0  0  0  0  0  0
    9.1141  -14.9069   25.0826 O   0  0  0  0  0  0  0  0  0  0  0  0
   10.1562  -16.6606   26.1197 O   0  0  0  0  0  0  0  0  0  0  0  0
  1  2  1  0
  3  5  1  0
  3  2  1  0
  3  4  1  6
  5  6  2  0
  5 11  1  0
  8  7  1  6
  8  9  1  0
  8 10  1  0
 10 12  1  0
 10 11  1  6
 12 13  2  0
 12 19  1  0
 15 17  1  0
 15 14  1  0
 16 15  2  0
 18 17  1  1
 19 18  1  0
 20 18  1  0
 20 21  1  0
 22 20  2  0
M  END
$$$$
