SVN.pdb
     RDKit          3D

 22 21  0  0  1  0  0  0  0  0999 V2000
    7.9596  -19.1543   18.1326 O   0  0  0  0  0  0  0  0  0  0  0  0
    7.0524  -18.4341   17.3673 C   0  0  0  0  0  0  0  0  0  0  0  0
    7.7962  -17.2425   16.8055 C   0  0  2  0  0  0  0  0  0  0  0  0
    8.7174  -17.6778   15.7996 N   0  0  0  0  0  0  0  0  0  0  0  0
    8.5595  -16.5494   17.8860 C   0  0  0  0  0  0  0  0  0  0  0  0
    9.7097  -16.8511   18.2333 O   0  0  0  0  0  0  0  0  0  0  0  0
    8.3786  -12.6759   21.0394 C   0  0  0  0  0  0  0  0  0  0  0  0
    7.7128  -13.5803   19.9993 C   0  0  2  0  0  0  0  0  0  0  0  0
    6.3183  -13.8706   20.4399 C   0  0  0  0  0  0  0  0  0  0  0  0
    8.5513  -14.7758   19.6878 C   0  0  2  0  0  0  0  0  0  0  0  0
    7.9106  -15.4652   18.5597 N   0  0  0  0  0  0  0  0  0  0  0  0
    8.7422  -15.7012   20.8282 C   0  0  0  0  0  0  0  0  0  0  0  0
    7.9531  -16.6644   20.9855 O   0  0  0  0  0  0  0  0  0  0  0  0
   12.3689  -19.7553   22.2479 N   0  0  0  0  0  0  0  0  0  0  0  0
   11.2800  -18.9216   22.6197 C   0  0  0  0  0  0  0  0  0  0  0  0
   10.7609  -19.2204   23.7563 O   0  0  0  0  0  0  0  0  0  0  0  0
   10.7323  -17.8089   21.8562 C   0  0  0  0  0  0  0  0  0  0  0  0
   10.2375  -16.6379   22.6556 C   0  0  2  0  0  0  0  0  0  0  0  0
    9.7865  -15.5622   21.7757 N   0  0  0  0  0  0  0  0  0  0  0  0
   11.3418  -16.0607   23.4623 C   0  0  0  0  0  0  0  0  0  0  0  0
   11.4891  -16.2842   24.8289 O   0  0  0  0  0  0  0  0  0  0  0  0
   12.1955  -15.3245   22.8752 O   0  0  0  0  0  0  0  0  0  0  0  0
  1  2  1  0
  3  5  1  0
  3  2  1  0
  3  4  1  6
  5  6  2  0
  5 11  1  0
  8  7  1  1
  8  9  1  0
  8 10  1  0
 10 12  1  0
 10 11  1  6
 12 13  2  0
 12 19  1  0
 15 17  1  0
 15 14  1  0
 16 15  2  0
 18 17  1  6
 19 18  1  0
 20 18  1  0
 20 21  1  0
 22 20  2  0
M  END
$$$$
