SVN.pdb
     RDKit          3D

 22 21  0  0  1  0  0  0  0  0999 V2000
    6.9874  -16.9108   21.4770 O   0  0  0  0  0  0  0  0  0  0  0  0
    6.1235  -15.8245   21.5084 C   0  0  0  0  0  0  0  0  0  0  0  0
    6.9693  -14.5823   21.3341 C   0  0  2  0  0  0  0  0  0  0  0  0
    7.7562  -14.6961   20.1433 N   0  0  0  0  0  0  0  0  0  0  0  0
    7.8872  -14.4105   22.4997 C   0  0  0  0  0  0  0  0  0  0  0  0
    9.0741  -14.7648   22.5132 O   0  0  0  0  0  0  0  0  0  0  0  0
    8.2441  -12.4467   27.0719 C   0  0  0  0  0  0  0  0  0  0  0  0
    7.4278  -12.7500   25.8130 C   0  0  2  0  0  0  0  0  0  0  0  0
    6.0453  -13.1325   26.2195 C   0  0  0  0  0  0  0  0  0  0  0  0
    8.1279  -13.7206   24.9202 C   0  0  2  0  0  0  0  0  0  0  0  0
    7.3507  -13.7940   23.6756 N   0  0  0  0  0  0  0  0  0  0  0  0
    8.3082  -15.0687   25.5065 C   0  0  0  0  0  0  0  0  0  0  0  0
    7.3931  -15.9207   25.3980 O   0  0  0  0  0  0  0  0  0  0  0  0
   10.8757  -19.9307   25.5277 N   0  0  0  0  0  0  0  0  0  0  0  0
   11.4143  -18.6927   25.9705 C   0  0  0  0  0  0  0  0  0  0  0  0
   12.4508  -18.8150   26.7197 O   0  0  0  0  0  0  0  0  0  0  0  0
   10.9137  -17.3613   25.6578 C   0  0  0  0  0  0  0  0  0  0  0  0
    9.8016  -16.8512   26.5287 C   0  0  2  0  0  0  0  0  0  0  0  0
    9.4789  -15.4648   26.1993 N   0  0  0  0  0  0  0  0  0  0  0  0
   10.2253  -16.8380   27.9512 C   0  0  0  0  0  0  0  0  0  0  0  0
   10.2783  -17.9812   28.7446 O   0  0  0  0  0  0  0  0  0  0  0  0
   10.5556  -15.7262   28.4710 O   0  0  0  0  0  0  0  0  0  0  0  0
  1  2  1  0
  3  5  1  0
  3  2  1  0
  3  4  1  6
  5  6  2  0
  5 11  1  0
  8  7  1  1
  8  9  1  0
  8 10  1  0
 10 12  1  0
 10 11  1  6
 12 13  2  0
 12 19  1  0
 15 17  1  0
 15 14  1  0
 16 15  2  0
 18 17  1  6
 19 18  1  0
 20 18  1  0
 20 21  1  0
 22 20  2  0
M  END
$$$$
