SVN.pdb
     RDKit          3D

 22 21  0  0  1  0  0  0  0  0999 V2000
    9.0484  -19.3504   20.9397 O   0  0  0  0  0  0  0  0  0  0  0  0
    8.0069  -18.9578   20.1098 C   0  0  0  0  0  0  0  0  0  0  0  0
    8.6165  -18.1394   18.9930 C   0  0  2  0  0  0  0  0  0  0  0  0
    9.6963  -18.8653   18.3952 N   0  0  0  0  0  0  0  0  0  0  0  0
    9.1444  -16.8470   19.5238 C   0  0  0  0  0  0  0  0  0  0  0  0
   10.3470  -16.5946   19.6805 O   0  0  0  0  0  0  0  0  0  0  0  0
    7.8584  -12.2115   20.8269 C   0  0  0  0  0  0  0  0  0  0  0  0
    7.5028  -13.5968   20.2813 C   0  0  2  0  0  0  0  0  0  0  0  0
    6.1713  -13.9963   20.8206 C   0  0  0  0  0  0  0  0  0  0  0  0
    8.6066  -14.5779   20.5006 C   0  0  2  0  0  0  0  0  0  0  0  0
    8.1894  -15.8385   19.8720 N   0  0  0  0  0  0  0  0  0  0  0  0
    8.9590  -14.7923   21.9230 C   0  0  0  0  0  0  0  0  0  0  0  0
    9.3894  -13.8327   22.6078 O   0  0  0  0  0  0  0  0  0  0  0  0
    6.4060  -15.2320   24.8632 N   0  0  0  0  0  0  0  0  0  0  0  0
    6.7752  -16.6007   24.9603 C   0  0  0  0  0  0  0  0  0  0  0  0
    5.8520  -17.3556   25.4382 O   0  0  0  0  0  0  0  0  0  0  0  0
    8.0515  -17.1897   24.5790 C   0  0  0  0  0  0  0  0  0  0  0  0
    9.0688  -16.2478   24.0020 C   0  0  2  0  0  0  0  0  0  0  0  0
    8.8371  -16.0449   22.5737 N   0  0  0  0  0  0  0  0  0  0  0  0
   10.4300  -16.8300   24.1095 C   0  0  0  0  0  0  0  0  0  0  0  0
   11.1048  -16.9807   25.3182 O   0  0  0  0  0  0  0  0  0  0  0  0
   11.0087  -17.2095   23.0434 O   0  0  0  0  0  0  0  0  0  0  0  0
  1  2  1  0
  3  5  1  0
  3  2  1  0
  3  4  1  1
  5  6  2  0
  5 11  1  0
  8  7  1  1
  8  9  1  0
  8 10  1  0
 10 12  1  0
 10 11  1  1
 12 13  2  0
 12 19  1  0
 15 17  1  0
 15 14  1  0
 16 15  2  0
 18 17  1  6
 19 18  1  0
 20 18  1  0
 20 21  1  0
 22 20  2  0
M  END
$$$$
