SVN.pdb
     RDKit          3D

 22 21  0  0  1  0  0  0  0  0999 V2000
    7.9874  -18.9031   17.0576 O   0  0  0  0  0  0  0  0  0  0  0  0
    6.9598  -18.0109   16.7833 C   0  0  0  0  0  0  0  0  0  0  0  0
    7.6012  -16.7482   16.2515 C   0  0  2  0  0  0  0  0  0  0  0  0
    8.4229  -17.0620   15.1216 N   0  0  0  0  0  0  0  0  0  0  0  0
    8.4536  -16.1157   17.3022 C   0  0  0  0  0  0  0  0  0  0  0  0
    9.6658  -16.3294   17.4413 O   0  0  0  0  0  0  0  0  0  0  0  0
    8.4137  -12.7285   20.9693 C   0  0  0  0  0  0  0  0  0  0  0  0
    7.6695  -13.5698   19.9293 C   0  0  2  0  0  0  0  0  0  0  0  0
    6.3917  -14.0509   20.5283 C   0  0  0  0  0  0  0  0  0  0  0  0
    8.5451  -14.6286   19.3449 C   0  0  2  0  0  0  0  0  0  0  0  0
    7.8186  -15.2027   18.2044 N   0  0  0  0  0  0  0  0  0  0  0  0
    8.9428  -15.6878   20.3006 C   0  0  0  0  0  0  0  0  0  0  0  0
    8.2506  -16.7304   20.3959 O   0  0  0  0  0  0  0  0  0  0  0  0
   12.7709  -19.3110   22.5958 N   0  0  0  0  0  0  0  0  0  0  0  0
   12.5861  -17.9093   22.7375 C   0  0  0  0  0  0  0  0  0  0  0  0
   13.0331  -17.4354   23.8449 O   0  0  0  0  0  0  0  0  0  0  0  0
   11.9641  -17.0093   21.7763 C   0  0  0  0  0  0  0  0  0  0  0  0
   10.5272  -16.6568   22.0337 C   0  0  2  0  0  0  0  0  0  0  0  0
   10.0845  -15.5937   21.1343 N   0  0  0  0  0  0  0  0  0  0  0  0
   10.3672  -16.1145   23.4061 C   0  0  0  0  0  0  0  0  0  0  0  0
   10.1572  -16.9153   24.5258 O   0  0  0  0  0  0  0  0  0  0  0  0
   10.4242  -14.8549   23.5665 O   0  0  0  0  0  0  0  0  0  0  0  0
  1  2  1  0
  3  5  1  0
  3  2  1  0
  3  4  1  6
  5  6  2  0
  5 11  1  0
  8  7  1  1
  8  9  1  0
  8 10  1  0
 10 12  1  0
 10 11  1  6
 12 13  2  0
 12 19  1  0
 15 17  1  0
 15 14  1  0
 16 15  2  0
 18 17  1  6
 19 18  1  0
 20 18  1  0
 20 21  1  0
 22 20  2  0
M  END
$$$$
