SVN.pdb
     RDKit          3D

 22 21  0  0  1  0  0  0  0  0999 V2000
    8.3333  -19.9616   17.6531 O   0  0  0  0  0  0  0  0  0  0  0  0
    7.9256  -19.5984   18.9295 C   0  0  0  0  0  0  0  0  0  0  0  0
    7.2888  -18.2306   18.8173 C   0  0  2  0  0  0  0  0  0  0  0  0
    7.1898  -17.8548   17.4392 N   0  0  0  0  0  0  0  0  0  0  0  0
    8.1144  -17.2124   19.5331 C   0  0  0  0  0  0  0  0  0  0  0  0
    9.1668  -17.4641   20.1361 O   0  0  0  0  0  0  0  0  0  0  0  0
    8.3628  -12.3451   20.6479 C   0  0  0  0  0  0  0  0  0  0  0  0
    7.6410  -13.5265   19.9948 C   0  0  2  0  0  0  0  0  0  0  0  0
    6.1811  -13.4090   20.2740 C   0  0  0  0  0  0  0  0  0  0  0  0
    8.2647  -14.8307   20.3681 C   0  0  2  0  0  0  0  0  0  0  0  0
    7.6507  -15.8577   19.5157 N   0  0  0  0  0  0  0  0  0  0  0  0
    8.1268  -15.1857   21.7993 C   0  0  0  0  0  0  0  0  0  0  0  0
    6.9904  -15.1879   22.3321 O   0  0  0  0  0  0  0  0  0  0  0  0
    7.2453  -17.8021   26.4010 N   0  0  0  0  0  0  0  0  0  0  0  0
    7.2216  -17.2052   25.1118 C   0  0  0  0  0  0  0  0  0  0  0  0
    6.1174  -16.6096   24.8349 O   0  0  0  0  0  0  0  0  0  0  0  0
    8.2950  -17.2108   24.1274 C   0  0  0  0  0  0  0  0  0  0  0  0
    9.0997  -15.9476   24.0187 C   0  0  2  0  0  0  0  0  0  0  0  0
    9.2259  -15.5312   22.6239 N   0  0  0  0  0  0  0  0  0  0  0  0
   10.4862  -16.1767   24.4967 C   0  0  0  0  0  0  0  0  0  0  0  0
   11.6025  -16.1111   23.6669 O   0  0  0  0  0  0  0  0  0  0  0  0
   10.6625  -16.4472   25.7260 O   0  0  0  0  0  0  0  0  0  0  0  0
  1  2  1  0
  3  5  1  0
  3  2  1  0
  3  4  1  6
  5  6  2  0
  5 11  1  0
  8  7  1  1
  8  9  1  0
  8 10  1  0
 10 12  1  0
 10 11  1  6
 12 13  2  0
 12 19  1  0
 15 17  1  0
 15 14  1  0
 16 15  2  0
 18 17  1  6
 19 18  1  0
 20 18  1  0
 20 21  1  0
 22 20  2  0
M  END
$$$$
