SVN.pdb
     RDKit          3D

 22 21  0  0  1  0  0  0  0  0999 V2000
    7.0452  -16.4117   21.6318 O   0  0  0  0  0  0  0  0  0  0  0  0
    6.1958  -15.3366   21.4082 C   0  0  0  0  0  0  0  0  0  0  0  0
    7.0378  -14.0828   21.4955 C   0  0  2  0  0  0  0  0  0  0  0  0
    7.8763  -13.9817   20.3393 N   0  0  0  0  0  0  0  0  0  0  0  0
    7.9030  -14.1212   22.7123 C   0  0  0  0  0  0  0  0  0  0  0  0
    9.0780  -14.5133   22.7226 O   0  0  0  0  0  0  0  0  0  0  0  0
    5.9843  -13.1851   26.4656 C   0  0  0  0  0  0  0  0  0  0  0  0
    7.4304  -12.7923   26.1531 C   0  0  2  0  0  0  0  0  0  0  0  0
    7.4578  -11.3619   25.7329 C   0  0  0  0  0  0  0  0  0  0  0  0
    8.0728  -13.7531   25.2079 C   0  0  2  0  0  0  0  0  0  0  0  0
    7.3274  -13.6729   23.9445 N   0  0  0  0  0  0  0  0  0  0  0  0
    8.1249  -15.1495   25.6987 C   0  0  0  0  0  0  0  0  0  0  0  0
    7.1096  -15.8806   25.6008 O   0  0  0  0  0  0  0  0  0  0  0  0
   11.6238  -20.0164   25.7862 N   0  0  0  0  0  0  0  0  0  0  0  0
   10.4084  -19.3101   25.9928 C   0  0  0  0  0  0  0  0  0  0  0  0
    9.4823  -20.0166   26.5348 O   0  0  0  0  0  0  0  0  0  0  0  0
   10.1401  -17.9181   25.6590 C   0  0  0  0  0  0  0  0  0  0  0  0
    9.3791  -17.1268   26.6836 C   0  0  2  0  0  0  0  0  0  0  0  0
    9.2789  -15.7242   26.2865 N   0  0  0  0  0  0  0  0  0  0  0  0
   10.1047  -17.1269   27.9785 C   0  0  0  0  0  0  0  0  0  0  0  0
   10.9549  -16.0996   28.3795 O   0  0  0  0  0  0  0  0  0  0  0  0
    9.9418  -18.1159   28.7600 O   0  0  0  0  0  0  0  0  0  0  0  0
  1  2  1  0
  3  5  1  0
  3  2  1  0
  3  4  1  6
  5  6  2  0
  5 11  1  0
  8  7  1  6
  8  9  1  0
  8 10  1  0
 10 12  1  0
 10 11  1  6
 12 13  2  0
 12 19  1  0
 15 17  1  0
 15 14  1  0
 16 15  2  0
 18 17  1  6
 19 18  1  0
 20 18  1  0
 20 21  1  0
 22 20  2  0
M  END
$$$$
