SVN.pdb
     RDKit          3D

 22 21  0  0  1  0  0  0  0  0999 V2000
    8.8138  -17.9002   15.3517 O   0  0  0  0  0  0  0  0  0  0  0  0
    7.8114  -17.1507   15.9525 C   0  0  0  0  0  0  0  0  0  0  0  0
    8.1652  -15.6943   15.7463 C   0  0  2  0  0  0  0  0  0  0  0  0
    8.8285  -15.5311   14.4880 N   0  0  0  0  0  0  0  0  0  0  0  0
    9.0753  -15.2215   16.8320 C   0  0  0  0  0  0  0  0  0  0  0  0
   10.3083  -15.1572   16.7321 O   0  0  0  0  0  0  0  0  0  0  0  0
    7.2558  -14.0141   20.6157 C   0  0  0  0  0  0  0  0  0  0  0  0
    8.4535  -13.3451   19.9366 C   0  0  2  0  0  0  0  0  0  0  0  0
    7.9647  -12.1831   19.1403 C   0  0  0  0  0  0  0  0  0  0  0  0
    9.2880  -14.3321   19.1891 C   0  0  2  0  0  0  0  0  0  0  0  0
    8.4735  -14.8178   18.0671 N   0  0  0  0  0  0  0  0  0  0  0  0
    9.7777  -15.4632   20.0103 C   0  0  0  0  0  0  0  0  0  0  0  0
    9.1009  -16.5177   20.0817 O   0  0  0  0  0  0  0  0  0  0  0  0
   13.9202  -14.5388   20.2351 N   0  0  0  0  0  0  0  0  0  0  0  0
   13.8528  -15.6141   21.1614 C   0  0  0  0  0  0  0  0  0  0  0  0
   14.6543  -15.4928   22.1581 O   0  0  0  0  0  0  0  0  0  0  0  0
   12.9899  -16.7845   21.0788 C   0  0  0  0  0  0  0  0  0  0  0  0
   11.5507  -16.5731   21.4516 C   0  0  2  0  0  0  0  0  0  0  0  0
   10.9928  -15.4266   20.7379 N   0  0  0  0  0  0  0  0  0  0  0  0
   11.4346  -16.2437   22.8943 C   0  0  0  0  0  0  0  0  0  0  0  0
   11.7834  -17.1281   23.9117 O   0  0  0  0  0  0  0  0  0  0  0  0
   10.9937  -15.0959   23.2164 O   0  0  0  0  0  0  0  0  0  0  0  0
  1  2  1  0
  3  5  1  0
  3  2  1  0
  3  4  1  6
  5  6  2  0
  5 11  1  0
  8  7  1  6
  8  9  1  0
  8 10  1  0
 10 12  1  0
 10 11  1  6
 12 13  2  0
 12 19  1  0
 15 17  1  0
 15 14  1  0
 16 15  2  0
 18 17  1  6
 19 18  1  0
 20 18  1  0
 20 21  1  0
 22 20  2  0
M  END
$$$$
