SVN.pdb
     RDKit          3D

 22 21  0  0  1  0  0  0  0  0999 V2000
    6.0359  -16.2976   20.0214 O   0  0  0  0  0  0  0  0  0  0  0  0
    6.4450  -15.9832   21.3102 C   0  0  0  0  0  0  0  0  0  0  0  0
    6.8462  -14.5245   21.3028 C   0  0  2  0  0  0  0  0  0  0  0  0
    7.5119  -14.2122   20.0743 N   0  0  0  0  0  0  0  0  0  0  0  0
    7.7736  -14.2345   22.4370 C   0  0  0  0  0  0  0  0  0  0  0  0
    9.0001  -14.4045   22.3982 O   0  0  0  0  0  0  0  0  0  0  0  0
    7.9962  -12.4103   27.0814 C   0  0  0  0  0  0  0  0  0  0  0  0
    7.2182  -12.7105   25.7978 C   0  0  2  0  0  0  0  0  0  0  0  0
    5.8636  -13.2133   26.1655 C   0  0  0  0  0  0  0  0  0  0  0  0
    7.9979  -13.5819   24.8693 C   0  0  2  0  0  0  0  0  0  0  0  0
    7.1978  -13.7265   23.6457 N   0  0  0  0  0  0  0  0  0  0  0  0
    8.3482  -14.9084   25.4270 C   0  0  0  0  0  0  0  0  0  0  0  0
    7.4805  -15.8142   25.4671 O   0  0  0  0  0  0  0  0  0  0  0  0
   11.8774  -19.3441   25.3390 N   0  0  0  0  0  0  0  0  0  0  0  0
   12.0258  -18.1386   26.0763 C   0  0  0  0  0  0  0  0  0  0  0  0
   12.7510  -18.2595   27.1299 O   0  0  0  0  0  0  0  0  0  0  0  0
   11.4530  -16.8399   25.7502 C   0  0  0  0  0  0  0  0  0  0  0  0
   10.0674  -16.5792   26.2670 C   0  0  2  0  0  0  0  0  0  0  0  0
    9.6342  -15.2250   25.9304 N   0  0  0  0  0  0  0  0  0  0  0  0
   10.0481  -16.6504   27.7495 C   0  0  0  0  0  0  0  0  0  0  0  0
    9.9017  -17.8409   28.4568 O   0  0  0  0  0  0  0  0  0  0  0  0
   10.1708  -15.5690   28.4061 O   0  0  0  0  0  0  0  0  0  0  0  0
  1  2  1  0
  3  5  1  0
  3  2  1  0
  3  4  1  6
  5  6  2  0
  5 11  1  0
  8  7  1  1
  8  9  1  0
  8 10  1  0
 10 12  1  0
 10 11  1  6
 12 13  2  0
 12 19  1  0
 15 17  1  0
 15 14  1  0
 16 15  2  0
 18 17  1  1
 19 18  1  0
 20 18  1  0
 20 21  1  0
 22 20  2  0
M  END
$$$$
