DRC.pdb
     RDKit          3D

 26 25  0  0  1  0  0  0  0  0999 V2000
   14.3953  -19.4642   14.1032 N   0  0  0  0  0  0  0  0  0  0  0  0
   15.1319  -20.1005   15.2061 C   0  0  1  0  0  0  0  0  0  0  0  0
   16.3003  -19.1962   15.5167 C   0  0  0  0  0  0  0  0  0  0  0  0
   17.3102  -19.3499   14.4442 C   0  0  0  0  0  0  0  0  0  0  0  0
   17.3011  -20.3828   13.7445 O   0  0  0  0  0  0  0  0  0  0  0  0
   14.2510  -20.2805   16.3850 C   0  0  0  0  0  0  0  0  0  0  0  0
   13.7279  -19.2601   16.9191 O   0  0  0  0  0  0  0  0  0  0  0  0
   18.2614  -18.3594   14.2123 O   0  0  0  0  0  0  0  0  0  0  0  0
   10.7840  -27.7541   18.7626 N   0  0  0  0  0  0  0  0  0  0  0  0
   12.0229  -27.0958   18.4684 C   0  0  0  0  0  0  0  0  0  0  0  0
   13.0365  -27.7929   18.1030 N   0  0  0  0  0  0  0  0  0  0  0  0
   12.1368  -25.6869   18.5781 N   0  0  0  0  0  0  0  0  0  0  0  0
   11.0750  -24.8622   19.1160 C   0  0  0  0  0  0  0  0  0  0  0  0
   11.5506  -23.4064   19.1120 C   0  0  0  0  0  0  0  0  0  0  0  0
   12.5808  -23.1812   18.0491 C   0  0  0  0  0  0  0  0  0  0  0  0
   13.0621  -21.7729   18.0449 C   0  0  2  0  0  0  0  0  0  0  0  0
   13.9828  -21.5451   16.9221 N   0  0  0  0  0  0  0  0  0  0  0  0
   13.7020  -21.3586   19.3071 C   0  0  0  0  0  0  0  0  0  0  0  0
   14.9085  -21.5489   19.5723 O   0  0  0  0  0  0  0  0  0  0  0  0
   13.9793  -27.3912   17.9470 N   0  0  0  0  0  0  0  0  0  0  0  0
   12.9388  -20.6871   20.3394 C   0  0  2  0  0  0  0  0  0  0  0  0
   13.5860  -20.2229   21.5537 C   0  0  0  0  0  0  0  0  0  0  0  0
   12.6711  -19.3034   22.3435 S   0  0  0  0  0  0  0  0  0  0  0  0
   11.0807  -20.1042   22.7136 C   0  0  0  0  0  0  0  0  0  0  0  0
   14.0175  -21.3600   22.3890 O   0  0  0  0  0  0  0  0  0  0  0  0
   14.9652  -21.0887   23.3822 O   0  0  0  0  0  0  0  0  0  0  0  0
  2  1  1  6
  3  2  1  0
  3  4  1  0
  4  8  1  0
  4  5  2  0
  6  2  1  0
  6  7  2  0
  9 10  1  0
 10 11  2  0
 10 12  1  0
 12 13  1  0
 14 15  1  0
 14 13  1  0
 16 15  1  1
 16 17  1  0
 17  6  1  0
 18 16  1  0
 19 18  2  0
 20 18  1  0
 21 20  1  0
 21 24  1  0
 21 22  1  6
 23 22  1  0
 24 25  1  0
 26 24  2  0
M  END
$$$$
