DRC.pdb
     RDKit          3D

 26 25  0  0  1  0  0  0  0  0999 V2000
    9.2655  -14.9689   19.1748 N   0  0  0  0  0  0  0  0  0  0  0  0
    8.3486  -13.9258   19.6596 C   0  0  1  0  0  0  0  0  0  0  0  0
    7.2207  -13.8501   18.6589 C   0  0  0  0  0  0  0  0  0  0  0  0
    7.8018  -13.6415   17.3126 C   0  0  0  0  0  0  0  0  0  0  0  0
    8.2685  -14.6193   16.6940 O   0  0  0  0  0  0  0  0  0  0  0  0
    7.8537  -14.2576   21.0174 C   0  0  0  0  0  0  0  0  0  0  0  0
    7.2181  -13.3788   21.6683 O   0  0  0  0  0  0  0  0  0  0  0  0
    7.8311  -12.3738   16.7364 O   0  0  0  0  0  0  0  0  0  0  0  0
    9.7423  -19.9238   20.0202 N   0  0  0  0  0  0  0  0  0  0  0  0
   10.8737  -19.9347   20.9003 C   0  0  0  0  0  0  0  0  0  0  0  0
   12.0297  -20.2458   20.4379 N   0  0  0  0  0  0  0  0  0  0  0  0
   10.7262  -19.6066   22.2716 N   0  0  0  0  0  0  0  0  0  0  0  0
    9.4485  -19.2456   22.8499 C   0  0  0  0  0  0  0  0  0  0  0  0
    9.1842  -17.7686   22.5433 C   0  0  0  0  0  0  0  0  0  0  0  0
    7.9662  -17.2804   23.2644 C   0  0  0  0  0  0  0  0  0  0  0  0
    7.7042  -15.8427   22.9822 C   0  0  2  0  0  0  0  0  0  0  0  0
    8.0698  -15.5132   21.5973 N   0  0  0  0  0  0  0  0  0  0  0  0
    8.3835  -14.9204   23.9108 C   0  0  0  0  0  0  0  0  0  0  0  0
    9.0528  -13.9302   23.5447 O   0  0  0  0  0  0  0  0  0  0  0  0
   12.8918  -20.2527   21.0135 N   0  0  0  0  0  0  0  0  0  0  0  0
    8.3072  -15.1217   25.3435 C   0  0  1  0  0  0  0  0  0  0  0  0
    8.6781  -14.0584   26.2603 C   0  0  0  0  0  0  0  0  0  0  0  0
    7.7117  -12.8910   26.1630 S   0  0  0  0  0  0  0  0  0  0  0  0
    6.0474  -13.3554   26.7305 C   0  0  0  0  0  0  0  0  0  0  0  0
    8.7437  -14.5571   27.6474 O   0  0  0  0  0  0  0  0  0  0  0  0
    8.4103  -15.9009   27.8506 O   0  0  0  0  0  0  0  0  0  0  0  0
  2  1  1  6
  3  2  1  0
  3  4  1  0
  4  8  1  0
  4  5  2  0
  6  2  1  0
  6  7  2  0
  9 10  1  0
 10 11  2  0
 10 12  1  0
 12 13  1  0
 14 15  1  0
 14 13  1  0
 16 15  1  1
 16 17  1  0
 17  6  1  0
 18 16  1  0
 19 18  2  0
 20 18  1  0
 21 20  1  0
 21 24  1  0
 21 22  1  6
 23 22  1  0
 24 25  1  0
 26 24  2  0
M  END
$$$$
