DRC.pdb
     RDKit          3D

 26 25  0  0  1  0  0  0  0  0999 V2000
   12.4715  -16.5994   19.7216 N   0  0  0  0  0  0  0  0  0  0  0  0
   13.0771  -15.4868   20.4695 C   0  0  1  0  0  0  0  0  0  0  0  0
   13.3071  -14.3771   19.4721 C   0  0  0  0  0  0  0  0  0  0  0  0
   14.5157  -14.7019   18.6799 C   0  0  0  0  0  0  0  0  0  0  0  0
   14.3859  -15.0521   17.4895 O   0  0  0  0  0  0  0  0  0  0  0  0
   12.1856  -15.0547   21.5726 C   0  0  0  0  0  0  0  0  0  0  0  0
   12.6645  -14.3446   22.5034 O   0  0  0  0  0  0  0  0  0  0  0  0
   15.7847  -14.6201   19.2480 O   0  0  0  0  0  0  0  0  0  0  0  0
    7.8454  -12.2753   18.2283 N   0  0  0  0  0  0  0  0  0  0  0  0
    7.6911  -13.6926   18.0786 C   0  0  0  0  0  0  0  0  0  0  0  0
    8.1848  -14.2756   17.0476 N   0  0  0  0  0  0  0  0  0  0  0  0
    6.9997  -14.4517   19.0562 N   0  0  0  0  0  0  0  0  0  0  0  0
    6.8741  -14.0156   20.4313 C   0  0  0  0  0  0  0  0  0  0  0  0
    8.2799  -13.9045   21.0288 C   0  0  0  0  0  0  0  0  0  0  0  0
    8.4951  -14.9382   22.0904 C   0  0  0  0  0  0  0  0  0  0  0  0
    9.8870  -14.8997   22.6158 C   0  0  2  0  0  0  0  0  0  0  0  0
   10.8321  -15.4099   21.6125 N   0  0  0  0  0  0  0  0  0  0  0  0
   10.0646  -15.6289   23.8852 C   0  0  0  0  0  0  0  0  0  0  0  0
   10.5797  -16.7645   23.9706 O   0  0  0  0  0  0  0  0  0  0  0  0
    8.1520  -15.3013   16.9013 N   0  0  0  0  0  0  0  0  0  0  0  0
    9.6363  -15.0463   25.1407 C   0  0  2  0  0  0  0  0  0  0  0  0
    9.6984  -15.8145   26.3714 C   0  0  0  0  0  0  0  0  0  0  0  0
    9.2666  -14.9758   27.5616 S   0  0  0  0  0  0  0  0  0  0  0  0
   10.1045  -13.3618   27.5776 C   0  0  0  0  0  0  0  0  0  0  0  0
    8.8723  -17.0332   26.2746 O   0  0  0  0  0  0  0  0  0  0  0  0
    8.9937  -17.9613   27.3149 O   0  0  0  0  0  0  0  0  0  0  0  0
  2  1  1  6
  3  2  1  0
  3  4  1  0
  4  8  1  0
  4  5  2  0
  6  2  1  0
  6  7  2  0
  9 10  1  0
 10 11  2  0
 10 12  1  0
 12 13  1  0
 14 15  1  0
 14 13  1  0
 16 15  1  6
 16 17  1  0
 17  6  1  0
 18 16  1  0
 19 18  2  0
 20 18  1  0
 21 20  1  0
 21 24  1  0
 21 22  1  6
 23 22  1  0
 24 25  1  0
 26 24  2  0
M  END
$$$$
