DRC.pdb
     RDKit          3D

 26 25  0  0  1  0  0  0  0  0999 V2000
    6.4809  -15.5885   19.2896 N   0  0  0  0  0  0  0  0  0  0  0  0
    7.6694  -15.1302   20.0253 C   0  0  1  0  0  0  0  0  0  0  0  0
    7.8323  -13.6644   19.7025 C   0  0  0  0  0  0  0  0  0  0  0  0
    8.2139  -13.5379   18.2769 C   0  0  0  0  0  0  0  0  0  0  0  0
    9.0204  -14.3552   17.7889 O   0  0  0  0  0  0  0  0  0  0  0  0
    7.4991  -15.3540   21.4811 C   0  0  0  0  0  0  0  0  0  0  0  0
    6.4548  -14.9206   22.0483 O   0  0  0  0  0  0  0  0  0  0  0  0
    7.6841  -12.5231   17.4836 O   0  0  0  0  0  0  0  0  0  0  0  0
    7.1808  -21.9437   26.4976 N   0  0  0  0  0  0  0  0  0  0  0  0
    7.6490  -20.9785   27.4484 C   0  0  0  0  0  0  0  0  0  0  0  0
    7.3476  -21.1166   28.6882 N   0  0  0  0  0  0  0  0  0  0  0  0
    8.4383  -19.8771   27.0316 N   0  0  0  0  0  0  0  0  0  0  0  0
    8.7010  -19.5949   25.6358 C   0  0  0  0  0  0  0  0  0  0  0  0
    8.3177  -18.1377   25.3614 C   0  0  0  0  0  0  0  0  0  0  0  0
    8.5395  -17.7861   23.9230 C   0  0  0  0  0  0  0  0  0  0  0  0
    8.2933  -16.3402   23.6701 C   0  0  2  0  0  0  0  0  0  0  0  0
    8.4592  -16.0299   22.2432 N   0  0  0  0  0  0  0  0  0  0  0  0
    9.1390  -15.4421   24.4780 C   0  0  0  0  0  0  0  0  0  0  0  0
    9.8654  -14.5471   23.9948 O   0  0  0  0  0  0  0  0  0  0  0  0
    7.6586  -20.4603   29.4278 N   0  0  0  0  0  0  0  0  0  0  0  0
    9.1721  -15.5553   25.9220 C   0  0  2  0  0  0  0  0  0  0  0  0
    9.2659  -14.3692   26.7546 C   0  0  0  0  0  0  0  0  0  0  0  0
    8.1619  -13.3804   26.4235 S   0  0  0  0  0  0  0  0  0  0  0  0
    8.1883  -11.9517   27.5486 C   0  0  0  0  0  0  0  0  0  0  0  0
    9.2249  -14.7251   28.1859 O   0  0  0  0  0  0  0  0  0  0  0  0
   10.0545  -13.9920   29.0417 O   0  0  0  0  0  0  0  0  0  0  0  0
  2  1  1  6
  3  2  1  0
  3  4  1  0
  4  8  1  0
  4  5  2  0
  6  2  1  0
  6  7  2  0
  9 10  1  0
 10 11  2  0
 10 12  1  0
 12 13  1  0
 14 15  1  0
 14 13  1  0
 16 15  1  6
 16 17  1  0
 17  6  1  0
 18 16  1  0
 19 18  2  0
 20 18  1  0
 21 20  1  0
 21 24  1  0
 21 22  1  6
 23 22  1  0
 24 25  1  0
 26 24  2  0
M  END
$$$$
