DRC.pdb
     RDKit          3D

 26 25  0  0  1  0  0  0  0  0999 V2000
   11.8188  -18.6025   21.2181 N   0  0  0  0  0  0  0  0  0  0  0  0
   11.8734  -17.1653   21.5268 C   0  0  1  0  0  0  0  0  0  0  0  0
   11.3827  -16.4450   20.2940 C   0  0  0  0  0  0  0  0  0  0  0  0
   12.4225  -16.5504   19.2445 C   0  0  0  0  0  0  0  0  0  0  0  0
   13.4919  -17.1376   19.5053 O   0  0  0  0  0  0  0  0  0  0  0  0
   11.0369  -16.8549   22.7110 C   0  0  0  0  0  0  0  0  0  0  0  0
   10.8227  -15.6441   23.0079 O   0  0  0  0  0  0  0  0  0  0  0  0
   12.2178  -16.0042   17.9797 O   0  0  0  0  0  0  0  0  0  0  0  0
   10.1119  -23.1010   23.5710 N   0  0  0  0  0  0  0  0  0  0  0  0
    8.7621  -23.1082   23.0886 C   0  0  0  0  0  0  0  0  0  0  0  0
    8.3113  -24.1504   22.4907 N   0  0  0  0  0  0  0  0  0  0  0  0
    7.9251  -21.9777   23.2655 N   0  0  0  0  0  0  0  0  0  0  0  0
    8.0467  -21.0930   24.4055 C   0  0  0  0  0  0  0  0  0  0  0  0
    8.7268  -19.8023   23.9398 C   0  0  0  0  0  0  0  0  0  0  0  0
    8.9111  -18.8508   25.0810 C   0  0  0  0  0  0  0  0  0  0  0  0
    9.5854  -17.5980   24.6440 C   0  0  2  0  0  0  0  0  0  0  0  0
   10.4791  -17.8619   23.5074 N   0  0  0  0  0  0  0  0  0  0  0  0
   10.3317  -16.9176   25.7184 C   0  0  0  0  0  0  0  0  0  0  0  0
   11.5681  -17.0122   25.8762 O   0  0  0  0  0  0  0  0  0  0  0  0
    7.3207  -24.2617   22.2063 N   0  0  0  0  0  0  0  0  0  0  0  0
    9.6468  -16.0764   26.6787 C   0  0  2  0  0  0  0  0  0  0  0  0
   10.3928  -15.3551   27.6945 C   0  0  0  0  0  0  0  0  0  0  0  0
    9.7496  -14.0127   27.9951 S   0  0  0  0  0  0  0  0  0  0  0  0
   10.6192  -13.1428   29.3347 C   0  0  0  0  0  0  0  0  0  0  0  0
   10.5130  -16.1553   28.9282 O   0  0  0  0  0  0  0  0  0  0  0  0
   11.6244  -15.9001   29.7394 O   0  0  0  0  0  0  0  0  0  0  0  0
  2  1  1  6
  3  2  1  0
  3  4  1  0
  4  8  1  0
  4  5  2  0
  6  2  1  0
  6  7  2  0
  9 10  1  0
 10 11  2  0
 10 12  1  0
 12 13  1  0
 14 15  1  0
 14 13  1  0
 16 15  1  1
 16 17  1  0
 17  6  1  0
 18 16  1  0
 19 18  2  0
 20 18  1  0
 21 20  1  0
 21 24  1  0
 21 22  1  1
 23 22  1  0
 24 25  1  0
 26 24  2  0
M  END
$$$$
