DRC.pdb
     RDKit          3D

 26 25  0  0  1  0  0  0  0  0999 V2000
    9.5025  -14.8649   19.1928 N   0  0  0  0  0  0  0  0  0  0  0  0
    8.4167  -13.9970   19.6741 C   0  0  1  0  0  0  0  0  0  0  0  0
    7.3835  -13.9559   18.5741 C   0  0  0  0  0  0  0  0  0  0  0  0
    8.0666  -14.1878   17.2805 C   0  0  0  0  0  0  0  0  0  0  0  0
    7.3963  -14.1743   16.2283 O   0  0  0  0  0  0  0  0  0  0  0  0
    7.8493  -14.5252   20.9380 C   0  0  0  0  0  0  0  0  0  0  0  0
    6.7525  -14.0564   21.3589 O   0  0  0  0  0  0  0  0  0  0  0  0
    9.4392  -14.4185   17.2295 O   0  0  0  0  0  0  0  0  0  0  0  0
    6.3023  -20.4154   25.6726 N   0  0  0  0  0  0  0  0  0  0  0  0
    7.2162  -20.0262   26.7061 C   0  0  0  0  0  0  0  0  0  0  0  0
    6.8831  -20.1843   27.9353 N   0  0  0  0  0  0  0  0  0  0  0  0
    8.4793  -19.4698   26.3824 N   0  0  0  0  0  0  0  0  0  0  0  0
    8.8489  -19.1210   25.0264 C   0  0  0  0  0  0  0  0  0  0  0  0
    8.2142  -17.7685   24.6898 C   0  0  0  0  0  0  0  0  0  0  0  0
    8.6222  -17.3090   23.3245 C   0  0  0  0  0  0  0  0  0  0  0  0
    8.0370  -15.9800   22.9981 C   0  0  2  0  0  0  0  0  0  0  0  0
    8.4920  -15.5258   21.6765 N   0  0  0  0  0  0  0  0  0  0  0  0
    8.3181  -14.9418   24.0069 C   0  0  0  0  0  0  0  0  0  0  0  0
    9.4665  -14.5373   24.2896 O   0  0  0  0  0  0  0  0  0  0  0  0
    7.4793  -19.8904   28.7307 N   0  0  0  0  0  0  0  0  0  0  0  0
    7.2408  -14.3165   24.7469 C   0  0  2  0  0  0  0  0  0  0  0  0
    7.5186  -13.2696   25.7141 C   0  0  0  0  0  0  0  0  0  0  0  0
    6.2577  -12.4975   26.0610 S   0  0  0  0  0  0  0  0  0  0  0  0
    6.5527  -11.3116   27.4079 C   0  0  0  0  0  0  0  0  0  0  0  0
    8.1315  -13.8281   26.9344 O   0  0  0  0  0  0  0  0  0  0  0  0
    7.7365  -15.1186   27.3043 O   0  0  0  0  0  0  0  0  0  0  0  0
  2  1  1  6
  3  2  1  0
  3  4  1  0
  4  8  1  0
  4  5  2  0
  6  2  1  0
  6  7  2  0
  9 10  1  0
 10 11  2  0
 10 12  1  0
 12 13  1  0
 14 15  1  0
 14 13  1  0
 16 15  1  1
 16 17  1  0
 17  6  1  0
 18 16  1  0
 19 18  2  0
 20 18  1  0
 21 20  1  0
 21 24  1  0
 21 22  1  6
 23 22  1  0
 24 25  1  0
 26 24  2  0
M  END
$$$$
