DRC.pdb
     RDKit          3D

 26 25  0  0  1  0  0  0  0  0999 V2000
   12.4544  -16.7946   20.5857 N   0  0  0  0  0  0  0  0  0  0  0  0
   13.1314  -15.8294   21.4654 C   0  0  1  0  0  0  0  0  0  0  0  0
   13.5038  -14.6504   20.5990 C   0  0  0  0  0  0  0  0  0  0  0  0
   14.5234  -15.0920   19.6196 C   0  0  0  0  0  0  0  0  0  0  0  0
   15.5825  -15.6047   20.0343 O   0  0  0  0  0  0  0  0  0  0  0  0
   12.2413  -15.4285   22.5814 C   0  0  0  0  0  0  0  0  0  0  0  0
   12.6610  -14.5853   23.4257 O   0  0  0  0  0  0  0  0  0  0  0  0
   14.3112  -14.9409   18.2513 O   0  0  0  0  0  0  0  0  0  0  0  0
    7.0602  -12.1405   19.8715 N   0  0  0  0  0  0  0  0  0  0  0  0
    7.7439  -13.2467   19.2684 C   0  0  0  0  0  0  0  0  0  0  0  0
    8.1201  -13.1643   18.0442 N   0  0  0  0  0  0  0  0  0  0  0  0
    8.0060  -14.4260   20.0103 N   0  0  0  0  0  0  0  0  0  0  0  0
    8.2465  -14.4071   21.4381 C   0  0  0  0  0  0  0  0  0  0  0  0
    8.3975  -15.8537   21.9176 C   0  0  0  0  0  0  0  0  0  0  0  0
    8.6162  -15.9084   23.3978 C   0  0  0  0  0  0  0  0  0  0  0  0
   10.0052  -15.5148   23.7595 C   0  0  2  0  0  0  0  0  0  0  0  0
   10.9527  -15.9559   22.7262 N   0  0  0  0  0  0  0  0  0  0  0  0
   10.4396  -16.0093   25.0790 C   0  0  0  0  0  0  0  0  0  0  0  0
   11.0716  -17.0740   25.2510 O   0  0  0  0  0  0  0  0  0  0  0  0
    8.6906  -13.8898   17.5723 N   0  0  0  0  0  0  0  0  0  0  0  0
   10.1461  -15.2610   26.2843 C   0  0  1  0  0  0  0  0  0  0  0  0
   10.5125  -15.7856   27.5879 C   0  0  0  0  0  0  0  0  0  0  0  0
   10.1966  -14.7868   28.6875 S   0  0  0  0  0  0  0  0  0  0  0  0
   10.5623  -13.0836   28.1650 C   0  0  0  0  0  0  0  0  0  0  0  0
    9.8342  -17.0695   27.8494 O   0  0  0  0  0  0  0  0  0  0  0  0
   10.2387  -17.7759   28.9876 O   0  0  0  0  0  0  0  0  0  0  0  0
  2  1  1  6
  3  2  1  0
  3  4  1  0
  4  8  1  0
  4  5  2  0
  6  2  1  0
  6  7  2  0
  9 10  1  0
 10 11  2  0
 10 12  1  0
 12 13  1  0
 14 15  1  0
 14 13  1  0
 16 15  1  6
 16 17  1  0
 17  6  1  0
 18 16  1  0
 19 18  2  0
 20 18  1  0
 21 20  1  0
 21 24  1  0
 21 22  1  6
 23 22  1  0
 24 25  1  0
 26 24  2  0
M  END
$$$$
