DRC.pdb
     RDKit          3D

 26 25  0  0  1  0  0  0  0  0999 V2000
    9.6066  -18.0565   19.7950 N   0  0  0  0  0  0  0  0  0  0  0  0
   10.7696  -17.1558   19.7827 C   0  0  1  0  0  0  0  0  0  0  0  0
   10.9750  -16.7435   18.3450 C   0  0  0  0  0  0  0  0  0  0  0  0
   11.8102  -17.7689   17.6780 C   0  0  0  0  0  0  0  0  0  0  0  0
   12.7858  -18.2496   18.2893 O   0  0  0  0  0  0  0  0  0  0  0  0
   10.5298  -15.9840   20.6589 C   0  0  0  0  0  0  0  0  0  0  0  0
   11.5044  -15.4837   21.2913 O   0  0  0  0  0  0  0  0  0  0  0  0
   11.5178  -18.1971   16.3854 O   0  0  0  0  0  0  0  0  0  0  0  0
    8.6340  -15.9396   17.1869 N   0  0  0  0  0  0  0  0  0  0  0  0
    8.1297  -14.7702   16.5289 C   0  0  0  0  0  0  0  0  0  0  0  0
    8.2135  -14.6794   15.2515 N   0  0  0  0  0  0  0  0  0  0  0  0
    7.5423  -13.7176   17.2750 N   0  0  0  0  0  0  0  0  0  0  0  0
    8.1043  -13.2431   18.5224 C   0  0  0  0  0  0  0  0  0  0  0  0
    7.4382  -14.0084   19.6696 C   0  0  0  0  0  0  0  0  0  0  0  0
    7.8454  -13.4475   20.9967 C   0  0  0  0  0  0  0  0  0  0  0  0
    8.9978  -14.1919   21.5738 C   0  0  2  0  0  0  0  0  0  0  0  0
    9.2582  -15.4173   20.8052 N   0  0  0  0  0  0  0  0  0  0  0  0
    8.8380  -14.5227   23.0019 C   0  0  0  0  0  0  0  0  0  0  0  0
    8.3296  -13.7510   23.8435 O   0  0  0  0  0  0  0  0  0  0  0  0
    8.0096  -13.8092   14.7265 N   0  0  0  0  0  0  0  0  0  0  0  0
    9.2771  -15.8025   23.5198 C   0  0  2  0  0  0  0  0  0  0  0  0
    9.1172  -16.1249   24.9267 C   0  0  0  0  0  0  0  0  0  0  0  0
    7.6617  -16.0250   25.3483 S   0  0  0  0  0  0  0  0  0  0  0  0
    7.2327  -14.3348   25.8648 C   0  0  0  0  0  0  0  0  0  0  0  0
    9.6470  -17.4697   25.2230 O   0  0  0  0  0  0  0  0  0  0  0  0
    9.6718  -17.8551   26.5680 O   0  0  0  0  0  0  0  0  0  0  0  0
  2  1  1  6
  3  2  1  0
  3  4  1  0
  4  8  1  0
  4  5  2  0
  6  2  1  0
  6  7  2  0
  9 10  1  0
 10 11  2  0
 10 12  1  0
 12 13  1  0
 14 15  1  0
 14 13  1  0
 16 15  1  6
 16 17  1  0
 17  6  1  0
 18 16  1  0
 19 18  2  0
 20 18  1  0
 21 20  1  0
 21 24  1  0
 21 22  1  1
 23 22  1  0
 24 25  1  0
 26 24  2  0
M  END
$$$$
