DRC.pdb
     RDKit          3D

 26 25  0  0  1  0  0  0  0  0999 V2000
   12.7564  -16.9575   20.6519 N   0  0  0  0  0  0  0  0  0  0  0  0
   13.4645  -16.0375   21.5552 C   0  0  1  0  0  0  0  0  0  0  0  0
   14.0380  -14.9438   20.6867 C   0  0  0  0  0  0  0  0  0  0  0  0
   15.2094  -15.4870   19.9612 C   0  0  0  0  0  0  0  0  0  0  0  0
   16.0294  -16.1978   20.5767 O   0  0  0  0  0  0  0  0  0  0  0  0
   12.5376  -15.4949   22.5773 C   0  0  0  0  0  0  0  0  0  0  0  0
   12.9838  -14.6818   23.4374 O   0  0  0  0  0  0  0  0  0  0  0  0
   15.4013  -15.2133   18.6091 O   0  0  0  0  0  0  0  0  0  0  0  0
    7.7170  -12.3487   20.5071 N   0  0  0  0  0  0  0  0  0  0  0  0
    7.5954  -13.3836   19.5228 C   0  0  0  0  0  0  0  0  0  0  0  0
    7.9198  -13.1380   18.3057 N   0  0  0  0  0  0  0  0  0  0  0  0
    7.1212  -14.6706   19.8816 N   0  0  0  0  0  0  0  0  0  0  0  0
    7.2136  -15.1825   21.2331 C   0  0  0  0  0  0  0  0  0  0  0  0
    8.6143  -14.8714   21.7684 C   0  0  0  0  0  0  0  0  0  0  0  0
    8.8302  -15.5056   23.1074 C   0  0  0  0  0  0  0  0  0  0  0  0
   10.2258  -15.3094   23.5858 C   0  0  2  0  0  0  0  0  0  0  0  0
   11.1858  -15.8565   22.6167 N   0  0  0  0  0  0  0  0  0  0  0  0
   10.4835  -15.8807   24.9206 C   0  0  0  0  0  0  0  0  0  0  0  0
   11.0327  -16.9872   25.1111 O   0  0  0  0  0  0  0  0  0  0  0  0
    7.8791  -13.8463   17.5499 N   0  0  0  0  0  0  0  0  0  0  0  0
   10.0999  -15.1643   26.1201 C   0  0  2  0  0  0  0  0  0  0  0  0
   10.3023  -15.7554   27.4309 C   0  0  0  0  0  0  0  0  0  0  0  0
    9.9358  -14.7779   28.5338 S   0  0  0  0  0  0  0  0  0  0  0  0
   10.3770  -13.0716   28.0848 C   0  0  0  0  0  0  0  0  0  0  0  0
    9.5278  -17.0033   27.5719 O   0  0  0  0  0  0  0  0  0  0  0  0
    9.7342  -17.7448   28.7406 O   0  0  0  0  0  0  0  0  0  0  0  0
  2  1  1  6
  3  2  1  0
  3  4  1  0
  4  8  1  0
  4  5  2  0
  6  2  1  0
  6  7  2  0
  9 10  1  0
 10 11  2  0
 10 12  1  0
 12 13  1  0
 14 15  1  0
 14 13  1  0
 16 15  1  6
 16 17  1  0
 17  6  1  0
 18 16  1  0
 19 18  2  0
 20 18  1  0
 21 20  1  0
 21 24  1  0
 21 22  1  6
 23 22  1  0
 24 25  1  0
 26 24  2  0
M  END
$$$$
