DRC.pdb
     RDKit          3D

 26 25  0  0  1  0  0  0  0  0999 V2000
   11.9049  -17.9310   14.8411 N   0  0  0  0  0  0  0  0  0  0  0  0
   12.3515  -19.2558   15.2984 C   0  0  1  0  0  0  0  0  0  0  0  0
   13.8103  -19.3668   14.9255 C   0  0  0  0  0  0  0  0  0  0  0  0
   13.9548  -19.0259   13.4914 C   0  0  0  0  0  0  0  0  0  0  0  0
   13.0666  -19.3803   12.6901 O   0  0  0  0  0  0  0  0  0  0  0  0
   12.1483  -19.3979   16.7602 C   0  0  0  0  0  0  0  0  0  0  0  0
   12.3372  -18.3926   17.5044 O   0  0  0  0  0  0  0  0  0  0  0  0
   15.0642  -18.3189   13.0342 O   0  0  0  0  0  0  0  0  0  0  0  0
    6.3246  -22.5360   16.2783 N   0  0  0  0  0  0  0  0  0  0  0  0
    6.9524  -23.3442   17.2820 C   0  0  0  0  0  0  0  0  0  0  0  0
    6.6525  -24.5890   17.3683 N   0  0  0  0  0  0  0  0  0  0  0  0
    7.8974  -22.7815   18.1766 N   0  0  0  0  0  0  0  0  0  0  0  0
    7.7273  -21.4665   18.7587 C   0  0  0  0  0  0  0  0  0  0  0  0
    9.0327  -20.6877   18.5722 C   0  0  0  0  0  0  0  0  0  0  0  0
   10.2124  -21.5098   18.9894 C   0  0  0  0  0  0  0  0  0  0  0  0
   11.4909  -20.7789   18.7742 C   0  0  2  0  0  0  0  0  0  0  0  0
   11.7542  -20.6104   17.3381 N   0  0  0  0  0  0  0  0  0  0  0  0
   12.6542  -21.4101   19.4244 C   0  0  0  0  0  0  0  0  0  0  0  0
   13.5458  -22.0315   18.8069 O   0  0  0  0  0  0  0  0  0  0  0  0
    7.1253  -25.2467   18.0152 N   0  0  0  0  0  0  0  0  0  0  0  0
   12.8290  -21.3397   20.8609 C   0  0  1  0  0  0  0  0  0  0  0  0
   14.1464  -21.1339   21.4362 C   0  0  0  0  0  0  0  0  0  0  0  0
   14.7364  -19.8076   20.9901 S   0  0  0  0  0  0  0  0  0  0  0  0
   16.4955  -19.6787   21.4336 C   0  0  0  0  0  0  0  0  0  0  0  0
   14.0955  -21.2044   22.9091 O   0  0  0  0  0  0  0  0  0  0  0  0
   14.9865  -22.0875   23.5290 O   0  0  0  0  0  0  0  0  0  0  0  0
  2  1  1  1
  3  2  1  0
  3  4  1  0
  4  8  1  0
  4  5  2  0
  6  2  1  0
  6  7  2  0
  9 10  1  0
 10 11  2  0
 10 12  1  0
 12 13  1  0
 14 15  1  0
 14 13  1  0
 16 15  1  6
 16 17  1  0
 17  6  1  0
 18 16  1  0
 19 18  2  0
 20 18  1  0
 21 20  1  0
 21 24  1  0
 21 22  1  1
 23 22  1  0
 24 25  1  0
 26 24  2  0
M  END
$$$$
