DRC.pdb
     RDKit          3D

 26 25  0  0  1  0  0  0  0  0999 V2000
    9.1891  -15.2177   19.5734 N   0  0  0  0  0  0  0  0  0  0  0  0
    8.4107  -14.0587   20.0367 C   0  0  1  0  0  0  0  0  0  0  0  0
    7.3543  -13.8071   18.9879 C   0  0  0  0  0  0  0  0  0  0  0  0
    8.0287  -13.5707   17.6905 C   0  0  0  0  0  0  0  0  0  0  0  0
    9.1116  -14.1437   17.4552 O   0  0  0  0  0  0  0  0  0  0  0  0
    7.8095  -14.3323   21.3641 C   0  0  0  0  0  0  0  0  0  0  0  0
    7.0872  -13.4445   21.9029 O   0  0  0  0  0  0  0  0  0  0  0  0
    7.4685  -12.7214   16.7394 O   0  0  0  0  0  0  0  0  0  0  0  0
    8.5145  -19.2674   18.8344 N   0  0  0  0  0  0  0  0  0  0  0  0
    9.4357  -19.5716   19.8897 C   0  0  0  0  0  0  0  0  0  0  0  0
   10.6826  -19.7081   19.6189 N   0  0  0  0  0  0  0  0  0  0  0  0
    8.9818  -19.7230   21.2242 N   0  0  0  0  0  0  0  0  0  0  0  0
    7.8826  -18.9490   21.7624 C   0  0  0  0  0  0  0  0  0  0  0  0
    8.4262  -18.0628   22.8870 C   0  0  0  0  0  0  0  0  0  0  0  0
    7.3207  -17.3069   23.5566 C   0  0  0  0  0  0  0  0  0  0  0  0
    7.4706  -15.8383   23.3672 C   0  0  2  0  0  0  0  0  0  0  0  0
    8.0183  -15.5425   22.0358 N   0  0  0  0  0  0  0  0  0  0  0  0
    8.2938  -15.1856   24.4020 C   0  0  0  0  0  0  0  0  0  0  0  0
    9.5389  -15.2775   24.4629 O   0  0  0  0  0  0  0  0  0  0  0  0
   11.4034  -19.9126   20.3353 N   0  0  0  0  0  0  0  0  0  0  0  0
    7.6805  -14.3771   25.4360 C   0  0  1  0  0  0  0  0  0  0  0  0
    8.4951  -13.7304   26.4494 C   0  0  0  0  0  0  0  0  0  0  0  0
    7.6984  -12.6794   27.2023 S   0  0  0  0  0  0  0  0  0  0  0  0
    6.7250  -11.6430   26.0683 C   0  0  0  0  0  0  0  0  0  0  0  0
    9.0543  -14.7218   27.3882 O   0  0  0  0  0  0  0  0  0  0  0  0
    9.9263  -14.2384   28.3701 O   0  0  0  0  0  0  0  0  0  0  0  0
  2  1  1  6
  3  2  1  0
  3  4  1  0
  4  8  1  0
  4  5  2  0
  6  2  1  0
  6  7  2  0
  9 10  1  0
 10 11  2  0
 10 12  1  0
 12 13  1  0
 14 15  1  0
 14 13  1  0
 16 15  1  1
 16 17  1  0
 17  6  1  0
 18 16  1  0
 19 18  2  0
 20 18  1  0
 21 20  1  0
 21 24  1  0
 21 22  1  1
 23 22  1  0
 24 25  1  0
 26 24  2  0
M  END
$$$$
