DRC.pdb
     RDKit          3D

 26 25  0  0  1  0  0  0  0  0999 V2000
   13.6471  -16.5283   20.6103 N   0  0  0  0  0  0  0  0  0  0  0  0
   12.8122  -17.3160   21.5302 C   0  0  1  0  0  0  0  0  0  0  0  0
   13.7423  -18.2702   22.2400 C   0  0  0  0  0  0  0  0  0  0  0  0
   14.1679  -19.3127   21.2778 C   0  0  0  0  0  0  0  0  0  0  0  0
   15.0192  -19.0286   20.4111 O   0  0  0  0  0  0  0  0  0  0  0  0
   12.1079  -16.4268   22.4851 C   0  0  0  0  0  0  0  0  0  0  0  0
   12.7903  -15.6557   23.2198 O   0  0  0  0  0  0  0  0  0  0  0  0
   13.6304  -20.5964   21.3323 O   0  0  0  0  0  0  0  0  0  0  0  0
    8.1771  -15.2138   18.7795 N   0  0  0  0  0  0  0  0  0  0  0  0
    7.5935  -13.9185   18.9699 C   0  0  0  0  0  0  0  0  0  0  0  0
    7.5822  -13.0822   17.9966 N   0  0  0  0  0  0  0  0  0  0  0  0
    7.0316  -13.5554   20.2199 N   0  0  0  0  0  0  0  0  0  0  0  0
    7.0489  -14.4415   21.3651 C   0  0  0  0  0  0  0  0  0  0  0  0
    8.4946  -14.5621   21.8557 C   0  0  0  0  0  0  0  0  0  0  0  0
    8.5708  -15.3842   23.1047 C   0  0  0  0  0  0  0  0  0  0  0  0
    9.9786  -15.5729   23.5492 C   0  0  2  0  0  0  0  0  0  0  0  0
   10.7125  -16.4169   22.5957 N   0  0  0  0  0  0  0  0  0  0  0  0
   10.1040  -16.1302   24.9087 C   0  0  0  0  0  0  0  0  0  0  0  0
   10.4286  -17.3129   25.1500 O   0  0  0  0  0  0  0  0  0  0  0  0
    7.2679  -12.0991   18.0922 N   0  0  0  0  0  0  0  0  0  0  0  0
    9.8486  -15.3074   26.0735 C   0  0  2  0  0  0  0  0  0  0  0  0
   10.0337  -15.8417   27.4110 C   0  0  0  0  0  0  0  0  0  0  0  0
    9.8561  -14.7593   28.4613 S   0  0  0  0  0  0  0  0  0  0  0  0
   10.7755  -13.2518   28.0259 C   0  0  0  0  0  0  0  0  0  0  0  0
    9.1066  -16.9611   27.6646 O   0  0  0  0  0  0  0  0  0  0  0  0
    9.3115  -17.6958   28.8379 O   0  0  0  0  0  0  0  0  0  0  0  0
  2  1  1  6
  3  2  1  0
  3  4  1  0
  4  8  1  0
  4  5  2  0
  6  2  1  0
  6  7  2  0
  9 10  1  0
 10 11  2  0
 10 12  1  0
 12 13  1  0
 14 15  1  0
 14 13  1  0
 16 15  1  6
 16 17  1  0
 17  6  1  0
 18 16  1  0
 19 18  2  0
 20 18  1  0
 21 20  1  0
 21 24  1  0
 21 22  1  6
 23 22  1  0
 24 25  1  0
 26 24  2  0
M  END
$$$$
