MID.pdb
     RDKit          3D

 25 24  0  0  1  0  0  0  0  0999 V2000
    7.1351  -20.1125   21.8936 C   0  0  0  0  0  0  0  0  0  0  0  0
    6.5622  -19.3651   20.3580 S   0  0  0  0  0  0  0  0  0  0  0  0
    6.8187  -17.5801   20.3155 C   0  0  0  0  0  0  0  0  0  0  0  0
    7.5159  -17.0344   21.5180 C   0  0  0  0  0  0  0  0  0  0  0  0
    7.5909  -15.5311   21.5736 C   0  0  2  0  0  0  0  0  0  0  0  0
    8.0804  -14.9793   20.3412 N   0  0  0  0  0  0  0  0  0  0  0  0
    8.2707  -15.0385   22.7870 C   0  0  0  0  0  0  0  0  0  0  0  0
    9.5148  -14.8984   22.7034 O   0  0  0  0  0  0  0  0  0  0  0  0
    5.7513  -11.6546   26.2711 C   0  0  0  0  0  0  0  0  0  0  0  0
    6.8042  -12.3174   25.4177 C   0  0  0  0  0  0  0  0  0  0  0  0
    7.3589  -13.5550   26.1224 C   0  0  2  0  0  0  0  0  0  0  0  0
    8.0025  -13.1014   27.4103 C   0  0  0  0  0  0  0  0  0  0  0  0
    8.3294  -14.2826   25.2221 C   0  0  2  0  0  0  0  0  0  0  0  0
    7.6362  -14.7217   24.0084 N   0  0  0  0  0  0  0  0  0  0  0  0
    8.9123  -15.4255   25.9342 C   0  0  0  0  0  0  0  0  0  0  0  0
    8.1271  -16.3761   26.3005 O   0  0  0  0  0  0  0  0  0  0  0  0
   10.2592  -15.6316   26.2771 N   0  0  0  0  0  0  0  0  0  0  0  0
   10.7371  -16.8871   26.8853 C   0  0  1  0  0  0  0  0  0  0  0  0
   12.2642  -16.8153   26.6727 C   0  0  0  0  0  0  0  0  0  0  0  0
   12.5916  -16.8201   25.2408 C   0  0  0  0  0  0  0  0  0  0  0  0
   11.7759  -17.3857   24.4545 O   0  0  0  0  0  0  0  0  0  0  0  0
   10.5535  -16.8538   28.3559 C   0  0  0  0  0  0  0  0  0  0  0  0
   10.8662  -17.9897   29.0792 O   0  0  0  0  0  0  0  0  0  0  0  0
   13.7367  -16.2364   24.7382 O   0  0  0  0  0  0  0  0  0  0  0  0
   10.1246  -15.8272   28.9526 O   0  0  0  0  0  0  0  0  0  0  0  0
  2  3  1  0
  2  1  1  0
  4  5  1  0
  4  3  1  0
  5  7  1  0
  5  6  1  6
  7 14  1  0
  8  7  2  0
 10  9  1  0
 11 12  1  1
 11 13  1  0
 11 10  1  0
 13 14  1  6
 15 17  1  0
 15 13  1  0
 16 15  2  0
 18 17  1  0
 18 19  1  1
 19 20  1  0
 20 24  1  0
 21 20  2  0
 22 18  1  0
 23 22  1  0
 25 22  2  0
M  END
$$$$
