MID.pdb
     RDKit          3D

 25 24  0  0  1  0  0  0  0  0999 V2000
    5.6985  -11.4753   26.9600 C   0  0  0  0  0  0  0  0  0  0  0  0
    7.1708  -12.3499   27.5187 S   0  0  0  0  0  0  0  0  0  0  0  0
    6.9456  -14.1393   27.5525 C   0  0  0  0  0  0  0  0  0  0  0  0
    7.6318  -14.8624   26.4405 C   0  0  0  0  0  0  0  0  0  0  0  0
    6.7056  -15.4889   25.4314 C   0  0  2  0  0  0  0  0  0  0  0  0
    5.9075  -16.5284   26.0189 N   0  0  0  0  0  0  0  0  0  0  0  0
    7.3946  -15.8666   24.1824 C   0  0  0  0  0  0  0  0  0  0  0  0
    7.6311  -17.0896   24.0317 O   0  0  0  0  0  0  0  0  0  0  0  0
    7.2538  -12.2859   20.0976 C   0  0  0  0  0  0  0  0  0  0  0  0
    7.1871  -13.6452   20.7486 C   0  0  0  0  0  0  0  0  0  0  0  0
    8.5949  -14.1783   21.0129 C   0  0  2  0  0  0  0  0  0  0  0  0
    9.2041  -14.5482   19.6822 C   0  0  0  0  0  0  0  0  0  0  0  0
    8.5439  -15.3499   21.9652 C   0  0  2  0  0  0  0  0  0  0  0  0
    7.7985  -14.9707   23.1682 N   0  0  0  0  0  0  0  0  0  0  0  0
    9.9055  -15.7773   22.3063 C   0  0  0  0  0  0  0  0  0  0  0  0
   10.6016  -15.0227   23.0811 O   0  0  0  0  0  0  0  0  0  0  0  0
   10.5727  -16.9421   21.8912 N   0  0  0  0  0  0  0  0  0  0  0  0
   11.9420  -17.2683   22.3310 C   0  0  1  0  0  0  0  0  0  0  0  0
   11.9577  -18.8114   22.2976 C   0  0  0  0  0  0  0  0  0  0  0  0
   13.2721  -19.3278   22.7018 C   0  0  0  0  0  0  0  0  0  0  0  0
   14.1701  -18.4836   22.9918 O   0  0  0  0  0  0  0  0  0  0  0  0
   12.9288  -16.8533   21.3056 C   0  0  0  0  0  0  0  0  0  0  0  0
   14.2393  -16.6592   21.7009 O   0  0  0  0  0  0  0  0  0  0  0  0
   13.5497  -20.6777   22.7752 O   0  0  0  0  0  0  0  0  0  0  0  0
   12.6037  -16.6759   20.0986 O   0  0  0  0  0  0  0  0  0  0  0  0
  2  3  1  0
  2  1  1  0
  4  5  1  0
  4  3  1  0
  5  7  1  0
  5  6  1  1
  7 14  1  0
  8  7  2  0
 10  9  1  0
 11 12  1  6
 11 13  1  0
 11 10  1  0
 13 14  1  1
 15 17  1  0
 15 13  1  0
 16 15  2  0
 18 17  1  0
 18 19  1  6
 19 20  1  0
 20 24  1  0
 21 20  2  0
 22 18  1  0
 23 22  1  0
 25 22  2  0
M  END
$$$$
