MID.pdb
     RDKit          3D

 25 24  0  0  1  0  0  0  0  0999 V2000
    5.1972  -11.7210   26.4549 C   0  0  0  0  0  0  0  0  0  0  0  0
    6.5488  -12.5034   27.3527 S   0  0  0  0  0  0  0  0  0  0  0  0
    6.8806  -14.1829   26.7844 C   0  0  0  0  0  0  0  0  0  0  0  0
    5.9593  -14.6571   25.7090 C   0  0  0  0  0  0  0  0  0  0  0  0
    6.1763  -16.0841   25.2787 C   0  0  2  0  0  0  0  0  0  0  0  0
    6.2775  -16.9678   26.4064 N   0  0  0  0  0  0  0  0  0  0  0  0
    7.2572  -16.2217   24.2838 C   0  0  0  0  0  0  0  0  0  0  0  0
    7.8453  -17.3298   24.2586 O   0  0  0  0  0  0  0  0  0  0  0  0
    7.2964  -12.4080   20.3294 C   0  0  0  0  0  0  0  0  0  0  0  0
    7.2730  -13.7791   20.9583 C   0  0  0  0  0  0  0  0  0  0  0  0
    8.6731  -14.1729   21.4283 C   0  0  2  0  0  0  0  0  0  0  0  0
    9.5354  -14.3550   20.2028 C   0  0  0  0  0  0  0  0  0  0  0  0
    8.6116  -15.4215   22.2764 C   0  0  2  0  0  0  0  0  0  0  0  0
    7.6687  -15.2182   23.3792 N   0  0  0  0  0  0  0  0  0  0  0  0
    9.9489  -15.7475   22.7849 C   0  0  0  0  0  0  0  0  0  0  0  0
   10.4987  -14.9306   23.6124 O   0  0  0  0  0  0  0  0  0  0  0  0
   10.7348  -16.8726   22.4838 N   0  0  0  0  0  0  0  0  0  0  0  0
   12.1167  -17.0263   22.9752 C   0  0  1  0  0  0  0  0  0  0  0  0
   12.2803  -18.5579   23.0745 C   0  0  0  0  0  0  0  0  0  0  0  0
   11.8142  -19.0482   24.3783 C   0  0  0  0  0  0  0  0  0  0  0  0
   11.3916  -18.1919   25.2100 O   0  0  0  0  0  0  0  0  0  0  0  0
   13.0866  -16.6043   21.9366 C   0  0  0  0  0  0  0  0  0  0  0  0
   14.4036  -16.4141   22.3112 O   0  0  0  0  0  0  0  0  0  0  0  0
   11.8211  -20.3866   24.7148 O   0  0  0  0  0  0  0  0  0  0  0  0
   12.7414  -16.4178   20.7366 O   0  0  0  0  0  0  0  0  0  0  0  0
  2  3  1  0
  2  1  1  0
  4  5  1  0
  4  3  1  0
  5  7  1  0
  5  6  1  1
  7 14  1  0
  8  7  2  0
 10  9  1  0
 11 12  1  6
 11 13  1  0
 11 10  1  0
 13 14  1  1
 15 17  1  0
 15 13  1  0
 16 15  2  0
 18 17  1  0
 18 19  1  6
 19 20  1  0
 20 24  1  0
 21 20  2  0
 22 18  1  0
 23 22  1  0
 25 22  2  0
M  END
$$$$
