MID.pdb
     RDKit          3D

 25 24  0  0  1  0  0  0  0  0999 V2000
    7.4713  -11.0617   26.7295 C   0  0  0  0  0  0  0  0  0  0  0  0
    6.3247  -12.0679   27.6874 S   0  0  0  0  0  0  0  0  0  0  0  0
    5.7569  -13.5236   26.7862 C   0  0  0  0  0  0  0  0  0  0  0  0
    6.7952  -14.1427   25.9094 C   0  0  0  0  0  0  0  0  0  0  0  0
    6.3346  -15.3606   25.1522 C   0  0  2  0  0  0  0  0  0  0  0  0
    5.9158  -16.4091   26.0400 N   0  0  0  0  0  0  0  0  0  0  0  0
    7.2892  -15.7771   24.1070 C   0  0  0  0  0  0  0  0  0  0  0  0
    7.7343  -16.9464   24.2014 O   0  0  0  0  0  0  0  0  0  0  0  0
    7.3673  -12.5912   19.8389 C   0  0  0  0  0  0  0  0  0  0  0  0
    7.3822  -13.9903   20.4030 C   0  0  0  0  0  0  0  0  0  0  0  0
    8.7736  -14.3356   20.9330 C   0  0  2  0  0  0  0  0  0  0  0  0
    9.6159  -14.7769   19.7607 C   0  0  0  0  0  0  0  0  0  0  0  0
    8.6805  -15.3972   22.0036 C   0  0  2  0  0  0  0  0  0  0  0  0
    7.7288  -14.9719   23.0331 N   0  0  0  0  0  0  0  0  0  0  0  0
   10.0059  -15.6399   22.5845 C   0  0  0  0  0  0  0  0  0  0  0  0
   10.4937  -14.7500   23.3747 O   0  0  0  0  0  0  0  0  0  0  0  0
   10.8406  -16.7537   22.3919 N   0  0  0  0  0  0  0  0  0  0  0  0
   12.1796  -16.8531   23.0018 C   0  0  1  0  0  0  0  0  0  0  0  0
   12.1436  -18.2331   23.6923 C   0  0  0  0  0  0  0  0  0  0  0  0
   13.4447  -18.5468   24.2975 C   0  0  0  0  0  0  0  0  0  0  0  0
   14.3724  -17.6945   24.1688 O   0  0  0  0  0  0  0  0  0  0  0  0
   13.2195  -16.9771   21.9527 C   0  0  0  0  0  0  0  0  0  0  0  0
   12.8130  -17.2392   20.6576 O   0  0  0  0  0  0  0  0  0  0  0  0
   13.6795  -19.7175   24.9897 O   0  0  0  0  0  0  0  0  0  0  0  0
   14.4486  -16.8507   22.2121 O   0  0  0  0  0  0  0  0  0  0  0  0
  2  3  1  0
  2  1  1  0
  4  5  1  0
  4  3  1  0
  5  7  1  0
  5  6  1  1
  7 14  1  0
  8  7  2  0
 10  9  1  0
 11 12  1  6
 11 13  1  0
 11 10  1  0
 13 14  1  1
 15 17  1  0
 15 13  1  0
 16 15  2  0
 18 17  1  0
 18 19  1  1
 19 20  1  0
 20 24  1  0
 21 20  2  0
 22 18  1  0
 23 22  1  0
 25 22  2  0
M  END
$$$$
