MID.pdb
     RDKit          3D

 25 24  0  0  1  0  0  0  0  0999 V2000
    6.0542  -21.3460   19.9984 C   0  0  0  0  0  0  0  0  0  0  0  0
    7.2317  -21.8492   18.7314 S   0  0  0  0  0  0  0  0  0  0  0  0
    8.0296  -20.4456   17.9271 C   0  0  0  0  0  0  0  0  0  0  0  0
    7.2971  -19.1538   18.0849 C   0  0  0  0  0  0  0  0  0  0  0  0
    7.9327  -17.9807   17.3860 C   0  0  2  0  0  0  0  0  0  0  0  0
    8.6503  -18.3896   16.2109 N   0  0  0  0  0  0  0  0  0  0  0  0
    8.6921  -17.1120   18.3057 C   0  0  0  0  0  0  0  0  0  0  0  0
    9.9396  -17.1242   18.1714 O   0  0  0  0  0  0  0  0  0  0  0  0
    6.5446  -12.3717   20.1983 C   0  0  0  0  0  0  0  0  0  0  0  0
    7.5625  -13.3479   19.6626 C   0  0  0  0  0  0  0  0  0  0  0  0
    7.9720  -14.3403   20.7505 C   0  0  2  0  0  0  0  0  0  0  0  0
    8.6204  -13.5577   21.8666 C   0  0  0  0  0  0  0  0  0  0  0  0
    8.8912  -15.3954   20.1813 C   0  0  2  0  0  0  0  0  0  0  0  0
    8.1285  -16.2874   19.3042 N   0  0  0  0  0  0  0  0  0  0  0  0
    9.5241  -16.1481   21.2704 C   0  0  0  0  0  0  0  0  0  0  0  0
    8.8218  -17.0348   21.8826 O   0  0  0  0  0  0  0  0  0  0  0  0
   10.8404  -16.0309   21.7476 N   0  0  0  0  0  0  0  0  0  0  0  0
   11.3859  -16.9208   22.7894 C   0  0  1  0  0  0  0  0  0  0  0  0
   12.9086  -16.6960   22.6739 C   0  0  0  0  0  0  0  0  0  0  0  0
   13.6364  -17.5728   23.6008 C   0  0  0  0  0  0  0  0  0  0  0  0
   14.6313  -17.0831   24.2123 O   0  0  0  0  0  0  0  0  0  0  0  0
   11.0266  -16.4217   24.1382 C   0  0  0  0  0  0  0  0  0  0  0  0
   10.5109  -15.1436   24.2458 O   0  0  0  0  0  0  0  0  0  0  0  0
   13.2736  -18.8859   23.8213 O   0  0  0  0  0  0  0  0  0  0  0  0
   11.1791  -17.1271   25.1741 O   0  0  0  0  0  0  0  0  0  0  0  0
  2  3  1  0
  2  1  1  0
  4  5  1  0
  4  3  1  0
  5  7  1  0
  5  6  1  6
  7 14  1  0
  8  7  2  0
 10  9  1  0
 11 12  1  1
 11 13  1  0
 11 10  1  0
 13 14  1  6
 15 17  1  0
 15 13  1  0
 16 15  2  0
 18 17  1  0
 18 19  1  1
 19 20  1  0
 20 24  1  0
 21 20  2  0
 22 18  1  0
 23 22  1  0
 25 22  2  0
M  END
$$$$
