MID.pdb
     RDKit          3D

 25 24  0  0  1  0  0  0  0  0999 V2000
   10.8931  -15.1740   30.7477 C   0  0  0  0  0  0  0  0  0  0  0  0
   10.0080  -14.8741   29.2077 S   0  0  0  0  0  0  0  0  0  0  0  0
   10.2849  -16.1692   27.9831 C   0  0  0  0  0  0  0  0  0  0  0  0
    9.6156  -17.4654   28.3028 C   0  0  0  0  0  0  0  0  0  0  0  0
    8.1854  -17.5657   27.8410 C   0  0  2  0  0  0  0  0  0  0  0  0
    7.5911  -18.8154   28.2256 N   0  0  0  0  0  0  0  0  0  0  0  0
    8.0195  -17.2118   26.4182 C   0  0  0  0  0  0  0  0  0  0  0  0
    8.1187  -18.1577   25.5997 O   0  0  0  0  0  0  0  0  0  0  0  0
    6.7193  -11.9680   25.3747 C   0  0  0  0  0  0  0  0  0  0  0  0
    6.5827  -13.4695   25.3230 C   0  0  0  0  0  0  0  0  0  0  0  0
    7.6050  -14.0639   24.3547 C   0  0  2  0  0  0  0  0  0  0  0  0
    7.2170  -13.6402   22.9588 C   0  0  0  0  0  0  0  0  0  0  0  0
    7.6592  -15.5662   24.5034 C   0  0  2  0  0  0  0  0  0  0  0  0
    7.7639  -15.9141   25.9227 N   0  0  0  0  0  0  0  0  0  0  0  0
    8.7966  -16.1033   23.7477 C   0  0  0  0  0  0  0  0  0  0  0  0
    8.5599  -16.6734   22.6194 O   0  0  0  0  0  0  0  0  0  0  0  0
   10.1566  -16.0731   24.0997 N   0  0  0  0  0  0  0  0  0  0  0  0
   11.1704  -16.8914   23.4088 C   0  0  1  0  0  0  0  0  0  0  0  0
   12.2763  -15.8663   23.0790 C   0  0  0  0  0  0  0  0  0  0  0  0
   12.0805  -15.3024   21.7369 C   0  0  0  0  0  0  0  0  0  0  0  0
   12.4880  -14.1212   21.5317 O   0  0  0  0  0  0  0  0  0  0  0  0
   11.8007  -17.8435   24.3541 C   0  0  0  0  0  0  0  0  0  0  0  0
   12.7715  -18.6998   23.8688 O   0  0  0  0  0  0  0  0  0  0  0  0
   11.4802  -16.0086   20.7144 O   0  0  0  0  0  0  0  0  0  0  0  0
   11.4754  -17.8886   25.5732 O   0  0  0  0  0  0  0  0  0  0  0  0
  2  3  1  0
  2  1  1  0
  4  5  1  0
  4  3  1  0
  5  7  1  0
  5  6  1  6
  7 14  1  0
  8  7  2  0
 10  9  1  0
 11 12  1  6
 11 13  1  0
 11 10  1  0
 13 14  1  1
 15 17  1  0
 15 13  1  0
 16 15  2  0
 18 17  1  0
 18 19  1  1
 19 20  1  0
 20 24  1  0
 21 20  2  0
 22 18  1  0
 23 22  1  0
 25 22  2  0
M  END
$$$$
