MID.pdb
     RDKit          3D

 25 24  0  0  1  0  0  0  0  0999 V2000
    5.6327  -19.9538   23.8811 C   0  0  0  0  0  0  0  0  0  0  0  0
    5.2912  -20.1114   22.1194 S   0  0  0  0  0  0  0  0  0  0  0  0
    6.2513  -18.9576   21.1191 C   0  0  0  0  0  0  0  0  0  0  0  0
    7.2055  -18.1175   21.9026 C   0  0  0  0  0  0  0  0  0  0  0  0
    7.1371  -16.6428   21.6038 C   0  0  2  0  0  0  0  0  0  0  0  0
    7.4302  -16.3676   20.2249 N   0  0  0  0  0  0  0  0  0  0  0  0
    7.8950  -15.8287   22.5734 C   0  0  0  0  0  0  0  0  0  0  0  0
    9.1178  -15.6824   22.3335 O   0  0  0  0  0  0  0  0  0  0  0  0
    7.0513  -11.7750   27.2341 C   0  0  0  0  0  0  0  0  0  0  0  0
    7.9712  -12.7248   26.5078 C   0  0  0  0  0  0  0  0  0  0  0  0
    7.1948  -13.5194   25.4580 C   0  0  2  0  0  0  0  0  0  0  0  0
    6.1024  -14.2788   26.1711 C   0  0  0  0  0  0  0  0  0  0  0  0
    8.1249  -14.4338   24.6960 C   0  0  2  0  0  0  0  0  0  0  0  0
    7.3552  -15.2174   23.7265 N   0  0  0  0  0  0  0  0  0  0  0  0
    8.8390  -15.3123   25.6296 C   0  0  0  0  0  0  0  0  0  0  0  0
    8.1814  -16.2664   26.1877 O   0  0  0  0  0  0  0  0  0  0  0  0
   10.1917  -15.2534   26.0051 N   0  0  0  0  0  0  0  0  0  0  0  0
   10.8199  -16.2768   26.8611 C   0  0  1  0  0  0  0  0  0  0  0  0
   12.3281  -16.0364   26.6376 C   0  0  0  0  0  0  0  0  0  0  0  0
   12.6782  -16.2056   25.2211 C   0  0  0  0  0  0  0  0  0  0  0  0
   12.1473  -17.1709   24.5969 O   0  0  0  0  0  0  0  0  0  0  0  0
   10.5911  -15.9674   28.2927 C   0  0  0  0  0  0  0  0  0  0  0  0
   11.0265  -16.8794   29.2359 O   0  0  0  0  0  0  0  0  0  0  0  0
   13.5486  -15.3594   24.5645 O   0  0  0  0  0  0  0  0  0  0  0  0
   10.0164  -14.9060   28.6632 O   0  0  0  0  0  0  0  0  0  0  0  0
  2  3  1  0
  2  1  1  0
  4  5  1  0
  4  3  1  0
  5  7  1  0
  5  6  1  6
  7 14  1  0
  8  7  2  0
 10  9  1  0
 11 12  1  1
 11 13  1  0
 11 10  1  0
 13 14  1  6
 15 17  1  0
 15 13  1  0
 16 15  2  0
 18 17  1  0
 18 19  1  1
 19 20  1  0
 20 24  1  0
 21 20  2  0
 22 18  1  0
 23 22  1  0
 25 22  2  0
M  END
$$$$
