MID.pdb
     RDKit          3D

 25 24  0  0  1  0  0  0  0  0999 V2000
    9.8759  -14.1727   30.5978 C   0  0  0  0  0  0  0  0  0  0  0  0
    9.3625  -15.1954   29.2066 S   0  0  0  0  0  0  0  0  0  0  0  0
   10.0343  -16.8674   29.2876 C   0  0  0  0  0  0  0  0  0  0  0  0
    9.7222  -17.7096   28.0946 C   0  0  0  0  0  0  0  0  0  0  0  0
    8.2687  -17.7273   27.6998 C   0  0  2  0  0  0  0  0  0  0  0  0
    7.6882  -19.0294   27.8746 N   0  0  0  0  0  0  0  0  0  0  0  0
    8.0288  -17.1133   26.3797 C   0  0  0  0  0  0  0  0  0  0  0  0
    7.8684  -17.9089   25.4228 O   0  0  0  0  0  0  0  0  0  0  0  0
    6.4250  -11.8960   26.1158 C   0  0  0  0  0  0  0  0  0  0  0  0
    6.4591  -13.3401   25.6803 C   0  0  0  0  0  0  0  0  0  0  0  0
    7.7448  -13.6326   24.9074 C   0  0  2  0  0  0  0  0  0  0  0  0
    7.6358  -12.9586   23.5611 C   0  0  0  0  0  0  0  0  0  0  0  0
    7.9585  -15.1231   24.7864 C   0  0  2  0  0  0  0  0  0  0  0  0
    7.9693  -15.7260   26.1217 N   0  0  0  0  0  0  0  0  0  0  0  0
    9.2163  -15.3928   24.0805 C   0  0  0  0  0  0  0  0  0  0  0  0
   10.2731  -14.7684   24.4647 O   0  0  0  0  0  0  0  0  0  0  0  0
    9.4308  -16.2752   23.0083 N   0  0  0  0  0  0  0  0  0  0  0  0
   10.7041  -16.3224   22.2658 C   0  0  1  0  0  0  0  0  0  0  0  0
   11.0224  -17.8321   22.2204 C   0  0  0  0  0  0  0  0  0  0  0  0
   11.4992  -18.3035   23.5273 C   0  0  0  0  0  0  0  0  0  0  0  0
   12.4081  -17.6309   24.0975 O   0  0  0  0  0  0  0  0  0  0  0  0
   10.4944  -15.9328   20.8510 C   0  0  0  0  0  0  0  0  0  0  0  0
   11.6053  -15.7934   20.0401 O   0  0  0  0  0  0  0  0  0  0  0  0
   10.9944  -19.4326   24.1396 O   0  0  0  0  0  0  0  0  0  0  0  0
    9.3417  -15.7287   20.3781 O   0  0  0  0  0  0  0  0  0  0  0  0
  2  3  1  0
  2  1  1  0
  4  5  1  0
  4  3  1  0
  5  7  1  0
  5  6  1  6
  7 14  1  0
  8  7  2  0
 10  9  1  0
 11 12  1  6
 11 13  1  0
 11 10  1  0
 13 14  1  1
 15 17  1  0
 15 13  1  0
 16 15  2  0
 18 17  1  0
 18 19  1  6
 19 20  1  0
 20 24  1  0
 21 20  2  0
 22 18  1  0
 23 22  1  0
 25 22  2  0
M  END
$$$$
