MID.pdb
     RDKit          3D

 25 24  0  0  1  0  0  0  0  0999 V2000
    7.8712  -11.3223   20.2148 C   0  0  0  0  0  0  0  0  0  0  0  0
    7.4759  -13.0510   20.5313 S   0  0  0  0  0  0  0  0  0  0  0  0
    8.7559  -14.1763   19.9405 C   0  0  0  0  0  0  0  0  0  0  0  0
    8.4337  -15.6220   20.1311 C   0  0  0  0  0  0  0  0  0  0  0  0
    7.6442  -15.9319   21.3758 C   0  0  2  0  0  0  0  0  0  0  0  0
    6.3067  -15.4142   21.2972 N   0  0  0  0  0  0  0  0  0  0  0  0
    8.3710  -15.5872   22.6128 C   0  0  0  0  0  0  0  0  0  0  0  0
    9.6218  -15.6712   22.5586 O   0  0  0  0  0  0  0  0  0  0  0  0
    6.0070  -12.1749   26.0919 C   0  0  0  0  0  0  0  0  0  0  0  0
    7.1028  -12.8198   25.2800 C   0  0  0  0  0  0  0  0  0  0  0  0
    7.6196  -14.0738   25.9846 C   0  0  2  0  0  0  0  0  0  0  0  0
    8.3461  -13.6338   27.2325 C   0  0  0  0  0  0  0  0  0  0  0  0
    8.5057  -14.8714   25.0569 C   0  0  2  0  0  0  0  0  0  0  0  0
    7.7735  -15.1799   23.8259 N   0  0  0  0  0  0  0  0  0  0  0  0
    8.9501  -16.1008   25.7234 C   0  0  0  0  0  0  0  0  0  0  0  0
    8.0539  -16.9361   26.1149 O   0  0  0  0  0  0  0  0  0  0  0  0
   10.2677  -16.5053   25.9962 N   0  0  0  0  0  0  0  0  0  0  0  0
   10.5848  -17.8158   26.5936 C   0  0  1  0  0  0  0  0  0  0  0  0
   11.9714  -18.1409   25.9984 C   0  0  0  0  0  0  0  0  0  0  0  0
   12.4966  -19.3944   26.5555 C   0  0  0  0  0  0  0  0  0  0  0  0
   11.7230  -20.3967   26.5762 O   0  0  0  0  0  0  0  0  0  0  0  0
   10.8167  -17.6790   28.0513 C   0  0  0  0  0  0  0  0  0  0  0  0
   10.9334  -16.4059   28.5776 O   0  0  0  0  0  0  0  0  0  0  0  0
   13.7820  -19.5095   27.0444 O   0  0  0  0  0  0  0  0  0  0  0  0
   10.9085  -18.6836   28.8104 O   0  0  0  0  0  0  0  0  0  0  0  0
  2  3  1  0
  2  1  1  0
  4  5  1  0
  4  3  1  0
  5  7  1  0
  5  6  1  6
  7 14  1  0
  8  7  2  0
 10  9  1  0
 11 12  1  1
 11 13  1  0
 11 10  1  0
 13 14  1  6
 15 17  1  0
 15 13  1  0
 16 15  2  0
 18 17  1  0
 18 19  1  6
 19 20  1  0
 20 24  1  0
 21 20  2  0
 22 18  1  0
 23 22  1  0
 25 22  2  0
M  END
$$$$
