MID.pdb
     RDKit          3D

 25 24  0  0  1  0  0  0  0  0999 V2000
    8.6593  -11.6182   19.0749 C   0  0  0  0  0  0  0  0  0  0  0  0
    7.5247  -12.8683   18.4465 S   0  0  0  0  0  0  0  0  0  0  0  0
    7.3669  -14.2835   19.5537 C   0  0  0  0  0  0  0  0  0  0  0  0
    8.1199  -14.1431   20.8356 C   0  0  0  0  0  0  0  0  0  0  0  0
    8.0333  -15.3367   21.7501 C   0  0  2  0  0  0  0  0  0  0  0  0
    6.6840  -15.8137   21.8721 N   0  0  0  0  0  0  0  0  0  0  0  0
    8.7349  -15.1259   23.0309 C   0  0  0  0  0  0  0  0  0  0  0  0
    9.9759  -14.9557   22.9581 O   0  0  0  0  0  0  0  0  0  0  0  0
    6.3131  -12.0388   26.4470 C   0  0  0  0  0  0  0  0  0  0  0  0
    7.3481  -12.7751   25.6330 C   0  0  0  0  0  0  0  0  0  0  0  0
    7.9184  -13.9468   26.4318 C   0  0  2  0  0  0  0  0  0  0  0  0
    8.6508  -13.3783   27.6230 C   0  0  0  0  0  0  0  0  0  0  0  0
    8.8147  -14.7926   25.5582 C   0  0  2  0  0  0  0  0  0  0  0  0
    8.1239  -15.1035   24.3040 N   0  0  0  0  0  0  0  0  0  0  0  0
    9.1900  -16.0212   26.2672 C   0  0  0  0  0  0  0  0  0  0  0  0
    8.2621  -16.8665   26.5483 O   0  0  0  0  0  0  0  0  0  0  0  0
   10.4705  -16.4152   26.6904 N   0  0  0  0  0  0  0  0  0  0  0  0
   10.7209  -17.7079   27.3546 C   0  0  1  0  0  0  0  0  0  0  0  0
   12.1973  -17.9949   27.0077 C   0  0  0  0  0  0  0  0  0  0  0  0
   12.4006  -17.9927   25.5530 C   0  0  0  0  0  0  0  0  0  0  0  0
   11.5647  -18.6256   24.8430 O   0  0  0  0  0  0  0  0  0  0  0  0
   10.6982  -17.5470   28.8280 C   0  0  0  0  0  0  0  0  0  0  0  0
   10.8457  -18.6769   29.6109 O   0  0  0  0  0  0  0  0  0  0  0  0
   13.4524  -17.3329   24.9506 O   0  0  0  0  0  0  0  0  0  0  0  0
   10.5493  -16.4188   29.3747 O   0  0  0  0  0  0  0  0  0  0  0  0
  2  3  1  0
  2  1  1  0
  4  5  1  0
  4  3  1  0
  5  7  1  0
  5  6  1  1
  7 14  1  0
  8  7  2  0
 10  9  1  0
 11 12  1  1
 11 13  1  0
 11 10  1  0
 13 14  1  6
 15 17  1  0
 15 13  1  0
 16 15  2  0
 18 17  1  0
 18 19  1  6
 19 20  1  0
 20 24  1  0
 21 20  2  0
 22 18  1  0
 23 22  1  0
 25 22  2  0
M  END
$$$$
