MID.pdb
     RDKit          3D

 25 24  0  0  1  0  0  0  0  0999 V2000
    7.8719  -11.3235   19.2940 C   0  0  0  0  0  0  0  0  0  0  0  0
    7.4076  -12.7844   18.3479 S   0  0  0  0  0  0  0  0  0  0  0  0
    7.5585  -14.3076   19.3022 C   0  0  0  0  0  0  0  0  0  0  0  0
    7.7081  -14.0948   20.7728 C   0  0  0  0  0  0  0  0  0  0  0  0
    7.8510  -15.3584   21.5800 C   0  0  2  0  0  0  0  0  0  0  0  0
    6.6022  -16.0589   21.6926 N   0  0  0  0  0  0  0  0  0  0  0  0
    8.5585  -15.1425   22.8567 C   0  0  0  0  0  0  0  0  0  0  0  0
    9.8100  -15.0808   22.7897 O   0  0  0  0  0  0  0  0  0  0  0  0
    6.1612  -12.0719   26.4960 C   0  0  0  0  0  0  0  0  0  0  0  0
    7.2045  -12.7319   25.6289 C   0  0  0  0  0  0  0  0  0  0  0  0
    7.7555  -13.9808   26.3164 C   0  0  2  0  0  0  0  0  0  0  0  0
    8.4795  -13.5372   27.5645 C   0  0  0  0  0  0  0  0  0  0  0  0
    8.6542  -14.7469   25.3744 C   0  0  2  0  0  0  0  0  0  0  0  0
    7.9423  -15.0046   24.1200 N   0  0  0  0  0  0  0  0  0  0  0  0
    9.0816  -16.0030   26.0010 C   0  0  0  0  0  0  0  0  0  0  0  0
    8.1788  -16.8682   26.3021 O   0  0  0  0  0  0  0  0  0  0  0  0
   10.3891  -16.4045   26.3227 N   0  0  0  0  0  0  0  0  0  0  0  0
   10.6915  -17.7313   26.8910 C   0  0  1  0  0  0  0  0  0  0  0  0
   12.1905  -17.9116   26.5700 C   0  0  0  0  0  0  0  0  0  0  0  0
   12.4324  -17.7902   25.1263 C   0  0  0  0  0  0  0  0  0  0  0  0
   11.7069  -18.4790   24.3500 O   0  0  0  0  0  0  0  0  0  0  0  0
   10.6193  -17.6904   28.3710 C   0  0  0  0  0  0  0  0  0  0  0  0
   10.7620  -18.8774   29.0651 O   0  0  0  0  0  0  0  0  0  0  0  0
   13.4051  -16.9630   24.6027 O   0  0  0  0  0  0  0  0  0  0  0  0
   10.4330  -16.6124   29.0013 O   0  0  0  0  0  0  0  0  0  0  0  0
  2  3  1  0
  2  1  1  0
  4  5  1  0
  4  3  1  0
  5  7  1  0
  5  6  1  1
  7 14  1  0
  8  7  2  0
 10  9  1  0
 11 12  1  1
 11 13  1  0
 11 10  1  0
 13 14  1  6
 15 17  1  0
 15 13  1  0
 16 15  2  0
 18 17  1  0
 18 19  1  1
 19 20  1  0
 20 24  1  0
 21 20  2  0
 22 18  1  0
 23 22  1  0
 25 22  2  0
M  END
$$$$
