MID.pdb
     RDKit          3D

 25 24  0  0  1  0  0  0  0  0999 V2000
    5.6407  -19.8446   24.3158 C   0  0  0  0  0  0  0  0  0  0  0  0
    6.3530  -20.0260   22.6712 S   0  0  0  0  0  0  0  0  0  0  0  0
    7.0002  -18.4738   22.0188 C   0  0  0  0  0  0  0  0  0  0  0  0
    6.2258  -17.2664   22.4343 C   0  0  0  0  0  0  0  0  0  0  0  0
    6.7704  -15.9609   21.9169 C   0  0  2  0  0  0  0  0  0  0  0  0
    7.3309  -16.1046   20.6024 N   0  0  0  0  0  0  0  0  0  0  0  0
    7.6436  -15.2806   22.8926 C   0  0  0  0  0  0  0  0  0  0  0  0
    8.8617  -15.2249   22.5971 O   0  0  0  0  0  0  0  0  0  0  0  0
    5.4254  -11.7251   26.5167 C   0  0  0  0  0  0  0  0  0  0  0  0
    6.4089  -12.2657   25.5084 C   0  0  0  0  0  0  0  0  0  0  0  0
    7.2656  -13.3645   26.1369 C   0  0  2  0  0  0  0  0  0  0  0  0
    8.1142  -12.7283   27.2110 C   0  0  0  0  0  0  0  0  0  0  0  0
    8.0985  -14.0514   25.0804 C   0  0  2  0  0  0  0  0  0  0  0  0
    7.2165  -14.7019   24.1080 N   0  0  0  0  0  0  0  0  0  0  0  0
    8.9964  -15.0279   25.7075 C   0  0  0  0  0  0  0  0  0  0  0  0
    9.9756  -14.5848   26.4140 O   0  0  0  0  0  0  0  0  0  0  0  0
    8.9255  -16.4297   25.6429 N   0  0  0  0  0  0  0  0  0  0  0  0
    9.8636  -17.3033   26.3721 C   0  0  1  0  0  0  0  0  0  0  0  0
    9.0334  -18.5833   26.6063 C   0  0  0  0  0  0  0  0  0  0  0  0
    9.3154  -19.1520   27.9309 C   0  0  0  0  0  0  0  0  0  0  0  0
   10.1517  -18.5460   28.6636 O   0  0  0  0  0  0  0  0  0  0  0  0
   10.9751  -17.7247   25.4864 C   0  0  0  0  0  0  0  0  0  0  0  0
   12.2211  -17.9237   26.0513 O   0  0  0  0  0  0  0  0  0  0  0  0
    8.7063  -20.3018   28.3910 O   0  0  0  0  0  0  0  0  0  0  0  0
   10.8111  -17.9029   24.2473 O   0  0  0  0  0  0  0  0  0  0  0  0
  2  3  1  0
  2  1  1  0
  4  5  1  0
  4  3  1  0
  5  7  1  0
  5  6  1  6
  7 14  1  0
  8  7  2  0
 10  9  1  0
 11 12  1  1
 11 13  1  0
 11 10  1  0
 13 14  1  6
 15 17  1  0
 15 13  1  0
 16 15  2  0
 18 17  1  0
 18 19  1  6
 19 20  1  0
 20 24  1  0
 21 20  2  0
 22 18  1  0
 23 22  1  0
 25 22  2  0
M  END
$$$$
