VVY.pdb
     RDKit          3D

 27 27  0  0  1  0  0  0  0  0999 V2000
   27.5718  -16.7168  -16.5922 C   0  0  0  0  0  0  0  0  0  0  0  0
   28.1988  -18.0978  -16.5053 C   0  0  1  0  0  0  0  0  0  0  0  0
   28.6879  -18.3823  -15.1127 C   0  0  0  0  0  0  0  0  0  0  0  0
   27.2113  -19.1459  -16.9763 C   0  0  2  0  0  0  0  0  0  0  0  0
   26.6846  -18.8608  -18.2756 N   0  0  0  0  0  0  0  0  0  0  0  0
   26.1236  -19.2269  -15.9682 C   0  0  0  0  0  0  0  0  0  0  0  0
   25.3372  -18.2332  -15.8378 O   0  0  0  0  0  0  0  0  0  0  0  0
   24.7937  -22.8784  -14.8340 C   0  0  0  0  0  0  0  0  0  0  0  0
   24.0267  -21.6051  -14.6352 C   0  0  2  0  0  0  0  0  0  0  0  0
   23.3884  -21.1815  -15.9400 C   0  0  0  0  0  0  0  0  0  0  0  0
   24.9652  -20.4707  -14.1958 C   0  0  2  0  0  0  0  0  0  0  0  0
   25.9942  -20.3904  -15.1920 N   0  0  0  0  0  0  0  0  0  0  0  0
   25.6293  -20.8431  -12.9041 C   0  0  0  0  0  0  0  0  0  0  0  0
   26.8077  -21.2697  -12.8542 O   0  0  0  0  0  0  0  0  0  0  0  0
   28.9967  -19.6024   -5.2663 O   0  0  0  0  0  0  0  0  0  0  0  0
   28.4388  -19.6914   -6.5368 C   0  0  0  0  0  0  0  0  0  0  0  0
   28.8118  -20.7016   -7.4021 C   0  0  0  0  0  0  0  0  0  0  0  0
   28.2745  -20.8088   -8.6597 C   0  0  0  0  0  0  0  0  0  0  0  0
   27.3351  -19.8836   -9.0750 C   0  0  0  0  0  0  0  0  0  0  0  0
   26.7776  -19.9993  -10.4263 C   0  0  0  0  0  0  0  0  0  0  0  0
   25.6196  -20.9449  -10.4336 C   0  0  2  0  0  0  0  0  0  0  0  0
   24.9066  -20.7107  -11.6970 N   0  0  0  0  0  0  0  0  0  0  0  0
   24.6989  -20.6904   -9.3128 C   0  0  0  0  0  0  0  0  0  0  0  0
   23.5600  -19.9119   -9.3893 O   0  0  0  0  0  0  0  0  0  0  0  0
   26.9619  -18.8799   -8.2215 C   0  0  0  0  0  0  0  0  0  0  0  0
   27.5062  -18.7807   -6.9621 C   0  0  0  0  0  0  0  0  0  0  0  0
   24.9462  -21.2128   -8.1751 O   0  0  0  0  0  0  0  0  0  0  0  0
  2  1  1  1
  2  4  1  0
  2  3  1  0
  4  6  1  0
  4  5  1  6
  6  7  2  0
  9  8  1  6
  9 11  1  0
 10  9  1  0
 11 13  1  0
 11 12  1  6
 12  6  1  0
 13 14  2  0
 15 16  1  0
 16 26  2  0
 16 17  1  0
 17 18  2  0
 18 19  1  0
 19 20  1  0
 21 20  1  1
 21 22  1  0
 21 23  1  0
 22 13  1  0
 23 27  2  0
 23 24  1  0
 25 19  2  0
 26 25  1  0
M  END
$$$$
