VVY.pdb
     RDKit          3D

 27 27  0  0  1  0  0  0  0  0999 V2000
   21.4516  -10.9975  -19.3856 C   0  0  0  0  0  0  0  0  0  0  0  0
   21.1989  -12.4733  -19.1285 C   0  0  1  0  0  0  0  0  0  0  0  0
   20.7447  -13.1696  -20.3809 C   0  0  0  0  0  0  0  0  0  0  0  0
   22.4412  -13.1186  -18.5490 C   0  0  2  0  0  0  0  0  0  0  0  0
   22.2353  -14.4898  -18.1964 N   0  0  0  0  0  0  0  0  0  0  0  0
   22.8535  -12.3219  -17.3652 C   0  0  0  0  0  0  0  0  0  0  0  0
   22.1872  -12.4427  -16.2862 O   0  0  0  0  0  0  0  0  0  0  0  0
   26.2574  -12.3235  -15.8695 C   0  0  0  0  0  0  0  0  0  0  0  0
   25.9187  -10.9099  -16.2387 C   0  0  2  0  0  0  0  0  0  0  0  0
   26.4322   -9.9645  -15.1747 C   0  0  0  0  0  0  0  0  0  0  0  0
   24.3960  -10.7218  -16.3211 C   0  0  2  0  0  0  0  0  0  0  0  0
   23.9600  -11.4630  -17.4692 N   0  0  0  0  0  0  0  0  0  0  0  0
   24.0837   -9.2788  -16.5825 C   0  0  0  0  0  0  0  0  0  0  0  0
   24.3570   -8.7199  -17.6717 O   0  0  0  0  0  0  0  0  0  0  0  0
   20.0530   -2.1674  -18.3715 O   0  0  0  0  0  0  0  0  0  0  0  0
   20.5516   -3.4195  -18.0295 C   0  0  0  0  0  0  0  0  0  0  0  0
   19.6959   -4.4659  -17.7442 C   0  0  0  0  0  0  0  0  0  0  0  0
   20.1656   -5.7093  -17.4047 C   0  0  0  0  0  0  0  0  0  0  0  0
   21.5299   -5.9241  -17.3457 C   0  0  0  0  0  0  0  0  0  0  0  0
   22.0211   -7.2532  -16.9682 C   0  0  0  0  0  0  0  0  0  0  0  0
   23.0504   -7.1419  -15.8897 C   0  0  2  0  0  0  0  0  0  0  0  0
   23.4595   -8.5165  -15.5695 N   0  0  0  0  0  0  0  0  0  0  0  0
   22.5043   -6.5124  -14.6755 C   0  0  0  0  0  0  0  0  0  0  0  0
   22.7269   -5.2020  -14.2987 O   0  0  0  0  0  0  0  0  0  0  0  0
   22.3827   -4.8904  -17.6273 C   0  0  0  0  0  0  0  0  0  0  0  0
   21.9023   -3.6469  -17.9670 C   0  0  0  0  0  0  0  0  0  0  0  0
   21.7694   -7.2040  -13.8944 O   0  0  0  0  0  0  0  0  0  0  0  0
  2  1  1  6
  2  4  1  0
  2  3  1  0
  4  6  1  0
  4  5  1  1
  6  7  2  0
  9  8  1  1
  9 11  1  0
 10  9  1  0
 11 13  1  0
 11 12  1  6
 12  6  1  0
 13 14  2  0
 15 16  1  0
 16 26  2  0
 16 17  1  0
 17 18  2  0
 18 19  1  0
 19 20  1  0
 21 20  1  6
 21 22  1  0
 21 23  1  0
 22 13  1  0
 23 27  2  0
 23 24  1  0
 25 19  2  0
 26 25  1  0
M  END
$$$$
