VVY.pdb
     RDKit          3D

 27 27  0  0  1  0  0  0  0  0999 V2000
   19.9373  -33.4186  -13.9131 C   0  0  0  0  0  0  0  0  0  0  0  0
   21.3484  -33.9228  -13.6627 C   0  0  1  0  0  0  0  0  0  0  0  0
   21.3308  -35.2944  -13.0481 C   0  0  0  0  0  0  0  0  0  0  0  0
   22.1441  -33.8977  -14.9519 C   0  0  2  0  0  0  0  0  0  0  0  0
   21.5722  -34.7275  -15.9674 N   0  0  0  0  0  0  0  0  0  0  0  0
   23.5307  -34.3251  -14.6351 C   0  0  0  0  0  0  0  0  0  0  0  0
   23.8400  -35.5520  -14.7832 O   0  0  0  0  0  0  0  0  0  0  0  0
   26.6638  -33.3566  -16.1221 C   0  0  0  0  0  0  0  0  0  0  0  0
   26.7409  -32.9387  -14.6837 C   0  0  2  0  0  0  0  0  0  0  0  0
   28.1399  -33.1706  -14.1562 C   0  0  0  0  0  0  0  0  0  0  0  0
   25.7831  -33.7780  -13.8241 C   0  0  2  0  0  0  0  0  0  0  0  0
   24.4559  -33.3695  -14.1837 N   0  0  0  0  0  0  0  0  0  0  0  0
   25.9751  -33.4315  -12.3780 C   0  0  0  0  0  0  0  0  0  0  0  0
   25.4117  -32.4465  -11.8437 O   0  0  0  0  0  0  0  0  0  0  0  0
   25.9496  -33.0655   -3.9953 O   0  0  0  0  0  0  0  0  0  0  0  0
   25.8819  -33.2576   -5.3708 C   0  0  0  0  0  0  0  0  0  0  0  0
   25.5718  -32.2092   -6.2153 C   0  0  0  0  0  0  0  0  0  0  0  0
   25.4997  -32.3757   -7.5750 C   0  0  0  0  0  0  0  0  0  0  0  0
   25.7430  -33.6237   -8.1174 C   0  0  0  0  0  0  0  0  0  0  0  0
   25.6495  -33.7937   -9.5709 C   0  0  0  0  0  0  0  0  0  0  0  0
   27.0144  -33.8650  -10.1767 C   0  0  2  0  0  0  0  0  0  0  0  0
   26.8197  -34.2398  -11.5841 N   0  0  0  0  0  0  0  0  0  0  0  0
   27.8501  -34.8863   -9.5230 C   0  0  0  0  0  0  0  0  0  0  0  0
   28.2467  -36.0732  -10.1085 O   0  0  0  0  0  0  0  0  0  0  0  0
   26.0506  -34.6666   -7.2850 C   0  0  0  0  0  0  0  0  0  0  0  0
   26.1207  -34.4899   -5.9226 C   0  0  0  0  0  0  0  0  0  0  0  0
   28.2509  -34.6887   -8.3277 O   0  0  0  0  0  0  0  0  0  0  0  0
  2  1  1  6
  2  4  1  0
  2  3  1  0
  4  6  1  0
  4  5  1  6
  6  7  2  0
  9  8  1  6
  9 11  1  0
 10  9  1  0
 11 13  1  0
 11 12  1  6
 12  6  1  0
 13 14  2  0
 15 16  1  0
 16 26  2  0
 16 17  1  0
 17 18  2  0
 18 19  1  0
 19 20  1  0
 21 20  1  1
 21 22  1  0
 21 23  1  0
 22 13  1  0
 23 27  2  0
 23 24  1  0
 25 19  2  0
 26 25  1  0
M  END
$$$$
