VVY.pdb
     RDKit          3D

 27 27  0  0  1  0  0  0  0  0999 V2000
   28.0346  -20.5713   -4.9983 C   0  0  0  0  0  0  0  0  0  0  0  0
   27.2808  -20.1282   -6.2406 C   0  0  1  0  0  0  0  0  0  0  0  0
   27.3500  -18.6363   -6.4109 C   0  0  0  0  0  0  0  0  0  0  0  0
   27.8147  -20.8555   -7.4578 C   0  0  2  0  0  0  0  0  0  0  0  0
   29.2323  -20.7234   -7.5994 N   0  0  0  0  0  0  0  0  0  0  0  0
   27.1095  -20.3191   -8.6498 C   0  0  0  0  0  0  0  0  0  0  0  0
   26.5307  -19.1879   -8.5586 O   0  0  0  0  0  0  0  0  0  0  0  0
   28.7511  -20.2177  -12.0538 C   0  0  0  0  0  0  0  0  0  0  0  0
   27.4242  -20.9040  -12.1870 C   0  0  2  0  0  0  0  0  0  0  0  0
   26.7426  -20.4604  -13.4629 C   0  0  0  0  0  0  0  0  0  0  0  0
   26.4997  -20.5259  -11.0194 C   0  0  2  0  0  0  0  0  0  0  0  0
   27.1011  -21.0704   -9.8365 N   0  0  0  0  0  0  0  0  0  0  0  0
   25.1732  -21.2034  -11.1923 C   0  0  0  0  0  0  0  0  0  0  0  0
   25.0343  -22.4448  -11.0794 O   0  0  0  0  0  0  0  0  0  0  0  0
   16.5809  -22.4634  -11.2863 O   0  0  0  0  0  0  0  0  0  0  0  0
   17.8508  -21.9001  -11.2276 C   0  0  0  0  0  0  0  0  0  0  0  0
   18.7154  -22.2149  -10.1972 C   0  0  0  0  0  0  0  0  0  0  0  0
   19.9725  -21.6714  -10.1193 C   0  0  0  0  0  0  0  0  0  0  0  0
   20.3879  -20.7853  -11.0956 C   0  0  0  0  0  0  0  0  0  0  0  0
   21.7285  -20.1994  -10.9951 C   0  0  0  0  0  0  0  0  0  0  0  0
   22.7407  -21.1020  -11.6241 C   0  0  2  0  0  0  0  0  0  0  0  0
   24.0359  -20.4204  -11.4931 N   0  0  0  0  0  0  0  0  0  0  0  0
   22.4619  -21.3245  -13.0530 C   0  0  0  0  0  0  0  0  0  0  0  0
   21.7020  -22.3631  -13.5555 O   0  0  0  0  0  0  0  0  0  0  0  0
   19.5349  -20.4693  -12.1192 C   0  0  0  0  0  0  0  0  0  0  0  0
   18.2761  -21.0196  -12.1889 C   0  0  0  0  0  0  0  0  0  0  0  0
   22.9457  -20.5156  -13.9133 O   0  0  0  0  0  0  0  0  0  0  0  0
  2  1  1  1
  2  4  1  0
  2  3  1  0
  4  6  1  0
  4  5  1  6
  6  7  2  0
  9  8  1  1
  9 11  1  0
 10  9  1  0
 11 13  1  0
 11 12  1  1
 12  6  1  0
 13 14  2  0
 15 16  1  0
 16 26  2  0
 16 17  1  0
 17 18  2  0
 18 19  1  0
 19 20  1  0
 21 20  1  6
 21 22  1  0
 21 23  1  0
 22 13  1  0
 23 27  2  0
 23 24  1  0
 25 19  2  0
 26 25  1  0
M  END
$$$$
