VVY.pdb
     RDKit          3D

 27 27  0  0  1  0  0  0  0  0999 V2000
   22.2608  -17.5700  -15.3472 C   0  0  0  0  0  0  0  0  0  0  0  0
   22.2569  -17.8466  -16.8410 C   0  0  1  0  0  0  0  0  0  0  0  0
   21.4712  -16.8011  -17.5819 C   0  0  0  0  0  0  0  0  0  0  0  0
   23.6793  -17.9451  -17.3535 C   0  0  2  0  0  0  0  0  0  0  0  0
   23.7407  -18.1951  -18.7609 N   0  0  0  0  0  0  0  0  0  0  0  0
   24.3600  -19.0235  -16.5922 C   0  0  0  0  0  0  0  0  0  0  0  0
   23.9734  -20.2258  -16.7592 O   0  0  0  0  0  0  0  0  0  0  0  0
   28.0886  -18.2668  -15.0437 C   0  0  0  0  0  0  0  0  0  0  0  0
   27.5496  -19.6381  -15.3238 C   0  0  2  0  0  0  0  0  0  0  0  0
   27.6707  -19.9454  -16.8004 C   0  0  0  0  0  0  0  0  0  0  0  0
   26.0588  -19.7183  -14.9608 C   0  0  2  0  0  0  0  0  0  0  0  0
   25.4045  -18.6884  -15.7149 N   0  0  0  0  0  0  0  0  0  0  0  0
   25.8787  -19.3855  -13.5100 C   0  0  0  0  0  0  0  0  0  0  0  0
   25.3323  -18.3229  -13.1283 O   0  0  0  0  0  0  0  0  0  0  0  0
   21.4339  -20.8492   -6.5743 O   0  0  0  0  0  0  0  0  0  0  0  0
   22.1472  -20.8266   -7.7676 C   0  0  0  0  0  0  0  0  0  0  0  0
   21.8926  -19.8625   -8.7238 C   0  0  0  0  0  0  0  0  0  0  0  0
   22.5839  -19.8210   -9.9079 C   0  0  0  0  0  0  0  0  0  0  0  0
   23.5614  -20.7671  -10.1538 C   0  0  0  0  0  0  0  0  0  0  0  0
   24.2846  -20.7219  -11.4287 C   0  0  0  0  0  0  0  0  0  0  0  0
   25.6964  -20.2803  -11.2122 C   0  0  2  0  0  0  0  0  0  0  0  0
   26.3389  -20.2975  -12.5336 N   0  0  0  0  0  0  0  0  0  0  0  0
   26.4242  -21.1952  -10.3167 C   0  0  0  0  0  0  0  0  0  0  0  0
   26.7222  -22.5124  -10.6083 O   0  0  0  0  0  0  0  0  0  0  0  0
   23.8178  -21.7252   -9.2098 C   0  0  0  0  0  0  0  0  0  0  0  0
   23.1193  -21.7587   -8.0251 C   0  0  0  0  0  0  0  0  0  0  0  0
   26.8198  -20.7684   -9.1810 O   0  0  0  0  0  0  0  0  0  0  0  0
  2  1  1  1
  2  4  1  0
  2  3  1  0
  4  6  1  0
  4  5  1  6
  6  7  2  0
  9  8  1  6
  9 11  1  0
 10  9  1  0
 11 13  1  0
 11 12  1  6
 12  6  1  0
 13 14  2  0
 15 16  1  0
 16 26  2  0
 16 17  1  0
 17 18  2  0
 18 19  1  0
 19 20  1  0
 21 20  1  6
 21 22  1  0
 21 23  1  0
 22 13  1  0
 23 27  2  0
 23 24  1  0
 25 19  2  0
 26 25  1  0
M  END
$$$$
