VVY.pdb
     RDKit          3D

 27 27  0  0  1  0  0  0  0  0999 V2000
   28.6883  -17.2838  -16.2410 C   0  0  0  0  0  0  0  0  0  0  0  0
   27.1908  -17.5355  -16.1954 C   0  0  1  0  0  0  0  0  0  0  0  0
   26.4256  -16.2417  -16.1926 C   0  0  0  0  0  0  0  0  0  0  0  0
   26.7796  -18.4261  -17.3500 C   0  0  2  0  0  0  0  0  0  0  0  0
   27.1086  -17.8628  -18.6234 N   0  0  0  0  0  0  0  0  0  0  0  0
   25.3183  -18.6663  -17.2369 C   0  0  0  0  0  0  0  0  0  0  0  0
   24.5201  -17.7113  -17.5085 O   0  0  0  0  0  0  0  0  0  0  0  0
   23.4296  -20.9999  -19.0881 C   0  0  0  0  0  0  0  0  0  0  0  0
   23.1508  -21.3648  -17.6604 C   0  0  2  0  0  0  0  0  0  0  0  0
   21.6862  -21.7064  -17.4945 C   0  0  0  0  0  0  0  0  0  0  0  0
   23.4522  -20.1798  -16.7300 C   0  0  2  0  0  0  0  0  0  0  0  0
   24.8611  -19.9325  -16.8359 N   0  0  0  0  0  0  0  0  0  0  0  0
   23.1792  -20.5768  -15.3101 C   0  0  0  0  0  0  0  0  0  0  0  0
   23.7271  -21.5695  -14.7739 O   0  0  0  0  0  0  0  0  0  0  0  0
   26.2659  -20.8973   -8.4241 O   0  0  0  0  0  0  0  0  0  0  0  0
   25.3769  -20.4494   -9.3950 C   0  0  0  0  0  0  0  0  0  0  0  0
   25.3767  -19.1271   -9.7953 C   0  0  0  0  0  0  0  0  0  0  0  0
   24.5090  -18.6634  -10.7512 C   0  0  0  0  0  0  0  0  0  0  0  0
   23.6102  -19.5392  -11.3309 C   0  0  0  0  0  0  0  0  0  0  0  0
   22.6778  -19.0299  -12.3416 C   0  0  0  0  0  0  0  0  0  0  0  0
   22.0934  -20.1589  -13.1283 C   0  0  2  0  0  0  0  0  0  0  0  0
   22.2734  -19.8089  -14.5441 N   0  0  0  0  0  0  0  0  0  0  0  0
   20.6555  -20.3267  -12.8582 C   0  0  0  0  0  0  0  0  0  0  0  0
   20.1304  -20.9469  -11.7409 O   0  0  0  0  0  0  0  0  0  0  0  0
   23.6058  -20.8509  -10.9378 C   0  0  0  0  0  0  0  0  0  0  0  0
   24.4800  -21.3068   -9.9784 C   0  0  0  0  0  0  0  0  0  0  0  0
   19.8088  -19.8778  -13.7009 O   0  0  0  0  0  0  0  0  0  0  0  0
  2  1  1  6
  2  4  1  0
  2  3  1  0
  4  6  1  0
  4  5  1  6
  6  7  2  0
  9  8  1  6
  9 11  1  0
 10  9  1  0
 11 13  1  0
 11 12  1  1
 12  6  1  0
 13 14  2  0
 15 16  1  0
 16 26  2  0
 16 17  1  0
 17 18  2  0
 18 19  1  0
 19 20  1  0
 21 20  1  1
 21 22  1  0
 21 23  1  0
 22 13  1  0
 23 27  2  0
 23 24  1  0
 25 19  2  0
 26 25  1  0
M  END
$$$$
