VVY.pdb
     RDKit          3D

 27 27  0  0  1  0  0  0  0  0999 V2000
   19.3181  -26.5432  -17.5945 C   0  0  0  0  0  0  0  0  0  0  0  0
   19.3395  -25.0305  -17.4560 C   0  0  1  0  0  0  0  0  0  0  0  0
   18.0439  -24.4271  -17.9216 C   0  0  0  0  0  0  0  0  0  0  0  0
   19.6533  -24.6456  -16.0246 C   0  0  2  0  0  0  0  0  0  0  0  0
   18.6105  -23.8738  -15.4214 N   0  0  0  0  0  0  0  0  0  0  0  0
   20.9349  -23.8950  -16.0294 C   0  0  0  0  0  0  0  0  0  0  0  0
   21.9813  -24.4769  -16.4645 O   0  0  0  0  0  0  0  0  0  0  0  0
   21.8577  -20.8521  -17.7402 C   0  0  0  0  0  0  0  0  0  0  0  0
   22.0028  -20.5616  -16.2759 C   0  0  2  0  0  0  0  0  0  0  0  0
   23.2255  -19.7016  -16.0420 C   0  0  0  0  0  0  0  0  0  0  0  0
   22.2004  -21.8627  -15.4829 C   0  0  2  0  0  0  0  0  0  0  0  0
   20.9561  -22.5725  -15.5566 N   0  0  0  0  0  0  0  0  0  0  0  0
   22.4381  -21.5370  -14.0387 C   0  0  0  0  0  0  0  0  0  0  0  0
   21.5170  -21.1587  -13.2760 O   0  0  0  0  0  0  0  0  0  0  0  0
   26.7608  -19.8313   -6.6319 O   0  0  0  0  0  0  0  0  0  0  0  0
   26.4357  -20.1993   -7.9328 C   0  0  0  0  0  0  0  0  0  0  0  0
   25.9764  -21.4719   -8.2122 C   0  0  0  0  0  0  0  0  0  0  0  0
   25.6497  -21.8566   -9.4878 C   0  0  0  0  0  0  0  0  0  0  0  0
   25.7824  -20.9498  -10.5226 C   0  0  0  0  0  0  0  0  0  0  0  0
   25.4437  -21.3759  -11.8843 C   0  0  0  0  0  0  0  0  0  0  0  0
   23.9765  -21.2251  -12.1283 C   0  0  2  0  0  0  0  0  0  0  0  0
   23.7441  -21.6587  -13.5129 N   0  0  0  0  0  0  0  0  0  0  0  0
   23.5398  -19.8257  -11.9877 C   0  0  0  0  0  0  0  0  0  0  0  0
   22.7586  -19.3436  -10.9552 O   0  0  0  0  0  0  0  0  0  0  0  0
   26.2376  -19.6871  -10.2515 C   0  0  0  0  0  0  0  0  0  0  0  0
   26.5626  -19.3104   -8.9690 C   0  0  0  0  0  0  0  0  0  0  0  0
   23.8923  -18.9737  -12.8699 O   0  0  0  0  0  0  0  0  0  0  0  0
  2  1  1  1
  2  4  1  0
  2  3  1  0
  4  6  1  0
  4  5  1  6
  6  7  2  0
  9  8  1  6
  9 11  1  0
 10  9  1  0
 11 13  1  0
 11 12  1  1
 12  6  1  0
 13 14  2  0
 15 16  1  0
 16 26  2  0
 16 17  1  0
 17 18  2  0
 18 19  1  0
 19 20  1  0
 21 20  1  6
 21 22  1  0
 21 23  1  0
 22 13  1  0
 23 27  2  0
 23 24  1  0
 25 19  2  0
 26 25  1  0
M  END
$$$$
