VVY.pdb
     RDKit          3D

 27 27  0  0  1  0  0  0  0  0999 V2000
   23.4028   -9.8033  -14.6425 C   0  0  0  0  0  0  0  0  0  0  0  0
   23.5241  -10.6378  -15.9062 C   0  0  1  0  0  0  0  0  0  0  0  0
   24.3038  -11.8969  -15.6492 C   0  0  0  0  0  0  0  0  0  0  0  0
   22.1474  -10.9364  -16.4641 C   0  0  2  0  0  0  0  0  0  0  0  0
   22.1900  -11.8143  -17.5930 N   0  0  0  0  0  0  0  0  0  0  0  0
   21.5145   -9.6413  -16.8218 C   0  0  0  0  0  0  0  0  0  0  0  0
   22.0014   -8.9709  -17.7894 O   0  0  0  0  0  0  0  0  0  0  0  0
   17.9979   -8.9860  -17.8149 C   0  0  0  0  0  0  0  0  0  0  0  0
   18.2820   -8.2266  -16.5532 C   0  0  2  0  0  0  0  0  0  0  0  0
   17.5741   -6.8897  -16.5883 C   0  0  0  0  0  0  0  0  0  0  0  0
   19.7863   -7.9440  -16.4185 C   0  0  2  0  0  0  0  0  0  0  0  0
   20.4034   -9.1957  -16.0870 N   0  0  0  0  0  0  0  0  0  0  0  0
   20.0196   -7.0171  -15.2633 C   0  0  0  0  0  0  0  0  0  0  0  0
   19.5406   -7.2312  -14.1240 O   0  0  0  0  0  0  0  0  0  0  0  0
   26.0831   -4.3339  -17.9952 O   0  0  0  0  0  0  0  0  0  0  0  0
   25.1649   -4.5442  -16.9724 C   0  0  0  0  0  0  0  0  0  0  0  0
   24.6593   -3.4817  -16.2485 C   0  0  0  0  0  0  0  0  0  0  0  0
   23.7527   -3.6657  -15.2356 C   0  0  0  0  0  0  0  0  0  0  0  0
   23.3320   -4.9463  -14.9288 C   0  0  0  0  0  0  0  0  0  0  0  0
   22.3732   -5.1328  -13.8350 C   0  0  0  0  0  0  0  0  0  0  0  0
   20.9753   -4.9374  -14.3277 C   0  0  2  0  0  0  0  0  0  0  0  0
   20.8063   -5.8596  -15.4592 N   0  0  0  0  0  0  0  0  0  0  0  0
   20.7488   -3.5602  -14.7977 C   0  0  0  0  0  0  0  0  0  0  0  0
   20.7428   -2.4415  -13.9870 O   0  0  0  0  0  0  0  0  0  0  0  0
   23.8300   -6.0032  -15.6429 C   0  0  0  0  0  0  0  0  0  0  0  0
   24.7388   -5.8088  -16.6571 C   0  0  0  0  0  0  0  0  0  0  0  0
   20.5385   -3.3546  -16.0395 O   0  0  0  0  0  0  0  0  0  0  0  0
  2  1  1  1
  2  4  1  0
  2  3  1  0
  4  6  1  0
  4  5  1  6
  6  7  2  0
  9  8  1  6
  9 11  1  0
 10  9  1  0
 11 13  1  0
 11 12  1  1
 12  6  1  0
 13 14  2  0
 15 16  1  0
 16 26  2  0
 16 17  1  0
 17 18  2  0
 18 19  1  0
 19 20  1  0
 21 20  1  6
 21 22  1  0
 21 23  1  0
 22 13  1  0
 23 27  2  0
 23 24  1  0
 25 19  2  0
 26 25  1  0
M  END
$$$$
