VVY.pdb
     RDKit          3D

 27 27  0  0  1  0  0  0  0  0999 V2000
   25.2986  -16.5126  -20.9429 C   0  0  0  0  0  0  0  0  0  0  0  0
   26.7756  -16.8638  -20.8877 C   0  0  1  0  0  0  0  0  0  0  0  0
   27.4176  -16.7126  -22.2384 C   0  0  0  0  0  0  0  0  0  0  0  0
   27.4706  -16.0179  -19.8402 C   0  0  2  0  0  0  0  0  0  0  0  0
   28.8709  -16.2967  -19.7487 N   0  0  0  0  0  0  0  0  0  0  0  0
   26.7942  -16.2625  -18.5407 C   0  0  0  0  0  0  0  0  0  0  0  0
   26.9495  -17.3934  -17.9753 O   0  0  0  0  0  0  0  0  0  0  0  0
   25.3196  -12.9939  -16.5643 C   0  0  0  0  0  0  0  0  0  0  0  0
   25.6062  -14.2763  -15.8413 C   0  0  2  0  0  0  0  0  0  0  0  0
   27.0713  -14.3389  -15.4685 C   0  0  0  0  0  0  0  0  0  0  0  0
   25.3121  -15.4842  -16.7442 C   0  0  2  0  0  0  0  0  0  0  0  0
   26.0073  -15.2453  -17.9759 N   0  0  0  0  0  0  0  0  0  0  0  0
   23.8478  -15.5246  -17.0643 C   0  0  0  0  0  0  0  0  0  0  0  0
   23.3668  -14.9622  -18.0769 O   0  0  0  0  0  0  0  0  0  0  0  0
   16.2061  -17.8225  -19.5940 O   0  0  0  0  0  0  0  0  0  0  0  0
   17.5115  -17.6241  -19.1581 C   0  0  0  0  0  0  0  0  0  0  0  0
   18.5736  -18.2064  -19.8226 C   0  0  0  0  0  0  0  0  0  0  0  0
   19.8692  -18.0242  -19.4104 C   0  0  0  0  0  0  0  0  0  0  0  0
   20.1221  -17.2381  -18.3017 C   0  0  0  0  0  0  0  0  0  0  0  0
   21.5097  -17.0615  -17.8615 C   0  0  0  0  0  0  0  0  0  0  0  0
   21.5555  -16.3090  -16.5704 C   0  0  2  0  0  0  0  0  0  0  0  0
   22.9741  -16.2195  -16.1978 N   0  0  0  0  0  0  0  0  0  0  0  0
   20.8257  -17.0119  -15.5017 C   0  0  0  0  0  0  0  0  0  0  0  0
   19.5231  -16.7430  -15.1281 O   0  0  0  0  0  0  0  0  0  0  0  0
   19.0732  -16.6587  -17.6391 C   0  0  0  0  0  0  0  0  0  0  0  0
   17.7772  -16.8471  -18.0601 C   0  0  0  0  0  0  0  0  0  0  0  0
   21.4147  -17.9411  -14.8550 O   0  0  0  0  0  0  0  0  0  0  0  0
  2  1  1  6
  2  4  1  0
  2  3  1  0
  4  6  1  0
  4  5  1  1
  6  7  2  0
  9  8  1  6
  9 11  1  0
 10  9  1  0
 11 13  1  0
 11 12  1  6
 12  6  1  0
 13 14  2  0
 15 16  1  0
 16 26  2  0
 16 17  1  0
 17 18  2  0
 18 19  1  0
 19 20  1  0
 21 20  1  6
 21 22  1  0
 21 23  1  0
 22 13  1  0
 23 27  2  0
 23 24  1  0
 25 19  2  0
 26 25  1  0
M  END
$$$$
