VVY.pdb
     RDKit          3D

 27 27  0  0  1  0  0  0  0  0999 V2000
   17.8577  -10.2785  -15.9453 C   0  0  0  0  0  0  0  0  0  0  0  0
   18.2966  -11.7115  -16.1943 C   0  0  1  0  0  0  0  0  0  0  0  0
   17.1528  -12.5470  -16.6972 C   0  0  0  0  0  0  0  0  0  0  0  0
   19.4701  -11.7351  -17.1524 C   0  0  2  0  0  0  0  0  0  0  0  0
   20.0298  -13.0429  -17.3044 N   0  0  0  0  0  0  0  0  0  0  0  0
   20.4864  -10.7780  -16.6453 C   0  0  0  0  0  0  0  0  0  0  0  0
   21.2187  -11.1287  -15.6637 O   0  0  0  0  0  0  0  0  0  0  0  0
   22.9655   -6.6650  -17.5652 C   0  0  0  0  0  0  0  0  0  0  0  0
   22.0582   -7.7813  -17.9896 C   0  0  2  0  0  0  0  0  0  0  0  0
   20.8309   -7.2148  -18.6695 C   0  0  0  0  0  0  0  0  0  0  0  0
   21.5767   -8.5812  -16.7693 C   0  0  2  0  0  0  0  0  0  0  0  0
   20.6099   -9.5207  -17.2593 N   0  0  0  0  0  0  0  0  0  0  0  0
   20.8617   -7.6655  -15.8215 C   0  0  0  0  0  0  0  0  0  0  0  0
   19.7166   -7.2132  -16.0612 O   0  0  0  0  0  0  0  0  0  0  0  0
   17.4811   -4.2720   -8.7442 O   0  0  0  0  0  0  0  0  0  0  0  0
   18.2261   -4.9996   -9.6656 C   0  0  0  0  0  0  0  0  0  0  0  0
   19.4869   -5.4641   -9.3442 C   0  0  0  0  0  0  0  0  0  0  0  0
   20.2393   -6.1839  -10.2373 C   0  0  0  0  0  0  0  0  0  0  0  0
   19.7256   -6.4530  -11.4922 C   0  0  0  0  0  0  0  0  0  0  0  0
   20.5441   -7.2111  -12.4438 C   0  0  0  0  0  0  0  0  0  0  0  0
   20.7663   -6.4158  -13.6901 C   0  0  2  0  0  0  0  0  0  0  0  0
   21.4955   -7.2957  -14.6139 N   0  0  0  0  0  0  0  0  0  0  0  0
   21.5793   -5.2147  -13.4346 C   0  0  0  0  0  0  0  0  0  0  0  0
   21.0708   -3.9440  -13.2464 O   0  0  0  0  0  0  0  0  0  0  0  0
   18.4766   -5.9948  -11.8162 C   0  0  0  0  0  0  0  0  0  0  0  0
   17.7293   -5.2739  -10.9138 C   0  0  0  0  0  0  0  0  0  0  0  0
   22.8494   -5.3250  -13.3790 O   0  0  0  0  0  0  0  0  0  0  0  0
  2  1  1  6
  2  4  1  0
  2  3  1  0
  4  6  1  0
  4  5  1  1
  6  7  2  0
  9  8  1  1
  9 11  1  0
 10  9  1  0
 11 13  1  0
 11 12  1  6
 12  6  1  0
 13 14  2  0
 15 16  1  0
 16 26  2  0
 16 17  1  0
 17 18  2  0
 18 19  1  0
 19 20  1  0
 21 20  1  1
 21 22  1  0
 21 23  1  0
 22 13  1  0
 23 27  2  0
 23 24  1  0
 25 19  2  0
 26 25  1  0
M  END
$$$$
