VVY.pdb
     RDKit          3D

 27 27  0  0  1  0  0  0  0  0999 V2000
   30.8158  -22.8270  -11.1119 C   0  0  0  0  0  0  0  0  0  0  0  0
   29.5407  -22.0737  -11.4506 C   0  0  1  0  0  0  0  0  0  0  0  0
   28.7227  -21.8143  -10.2164 C   0  0  0  0  0  0  0  0  0  0  0  0
   29.8761  -20.7886  -12.1797 C   0  0  2  0  0  0  0  0  0  0  0  0
   30.7626  -19.9487  -11.4343 N   0  0  0  0  0  0  0  0  0  0  0  0
   28.5992  -20.0878  -12.4702 C   0  0  0  0  0  0  0  0  0  0  0  0
   28.0980  -19.3356  -11.5726 O   0  0  0  0  0  0  0  0  0  0  0  0
   27.2472  -20.0614  -16.3775 C   0  0  0  0  0  0  0  0  0  0  0  0
   26.7668  -19.0640  -15.3657 C   0  0  2  0  0  0  0  0  0  0  0  0
   27.7398  -17.9083  -15.2822 C   0  0  0  0  0  0  0  0  0  0  0  0
   26.6932  -19.7016  -13.9696 C   0  0  2  0  0  0  0  0  0  0  0  0
   27.9845  -20.2738  -13.7195 N   0  0  0  0  0  0  0  0  0  0  0  0
   25.7060  -20.8300  -13.9866 C   0  0  0  0  0  0  0  0  0  0  0  0
   26.0542  -22.0280  -13.8576 O   0  0  0  0  0  0  0  0  0  0  0  0
   19.8353  -18.8314   -9.7258 O   0  0  0  0  0  0  0  0  0  0  0  0
   20.7044  -19.6323  -10.4584 C   0  0  0  0  0  0  0  0  0  0  0  0
   20.2222  -20.6571  -11.2495 C   0  0  0  0  0  0  0  0  0  0  0  0
   21.0610  -21.4593  -11.9806 C   0  0  0  0  0  0  0  0  0  0  0  0
   22.4247  -21.2392  -11.9267 C   0  0  0  0  0  0  0  0  0  0  0  0
   23.3132  -22.1116  -12.7012 C   0  0  0  0  0  0  0  0  0  0  0  0
   23.3799  -21.6572  -14.1240 C   0  0  2  0  0  0  0  0  0  0  0  0
   24.3332  -20.5393  -14.1535 N   0  0  0  0  0  0  0  0  0  0  0  0
   22.0728  -21.1814  -14.6079 C   0  0  0  0  0  0  0  0  0  0  0  0
   21.0144  -21.9998  -14.9524 O   0  0  0  0  0  0  0  0  0  0  0  0
   22.9082  -20.2250  -11.1439 C   0  0  0  0  0  0  0  0  0  0  0  0
   22.0592  -19.4256  -10.4143 C   0  0  0  0  0  0  0  0  0  0  0  0
   21.8749  -19.9266  -14.7293 O   0  0  0  0  0  0  0  0  0  0  0  0
  2  1  1  1
  2  4  1  0
  2  3  1  0
  4  6  1  0
  4  5  1  1
  6  7  2  0
  9  8  1  6
  9 11  1  0
 10  9  1  0
 11 13  1  0
 11 12  1  6
 12  6  1  0
 13 14  2  0
 15 16  1  0
 16 26  2  0
 16 17  1  0
 17 18  2  0
 18 19  1  0
 19 20  1  0
 21 20  1  1
 21 22  1  0
 21 23  1  0
 22 13  1  0
 23 27  2  0
 23 24  1  0
 25 19  2  0
 26 25  1  0
M  END
$$$$
