VVY.pdb
     RDKit          3D

 27 27  0  0  1  0  0  0  0  0999 V2000
   26.7544  -15.8593  -13.6707 C   0  0  0  0  0  0  0  0  0  0  0  0
   26.4970  -16.0203  -15.1592 C   0  0  1  0  0  0  0  0  0  0  0  0
   27.1558  -14.9202  -15.9434 C   0  0  0  0  0  0  0  0  0  0  0  0
   26.9572  -17.3885  -15.6197 C   0  0  2  0  0  0  0  0  0  0  0  0
   26.7824  -17.5830  -17.0263 N   0  0  0  0  0  0  0  0  0  0  0  0
   26.1998  -18.4042  -14.8448 C   0  0  0  0  0  0  0  0  0  0  0  0
   24.9428  -18.4991  -15.0283 O   0  0  0  0  0  0  0  0  0  0  0  0
   28.2957  -21.6931  -13.6375 C   0  0  0  0  0  0  0  0  0  0  0  0
   26.8347  -21.6038  -13.9642 C   0  0  2  0  0  0  0  0  0  0  0  0
   26.6490  -21.5007  -15.4623 C   0  0  0  0  0  0  0  0  0  0  0  0
   26.2162  -20.3439  -13.3390 C   0  0  2  0  0  0  0  0  0  0  0  0
   26.8876  -19.2262  -13.9369 N   0  0  0  0  0  0  0  0  0  0  0  0
   26.5242  -20.3107  -11.8719 C   0  0  0  0  0  0  0  0  0  0  0  0
   27.6004  -19.8489  -11.4228 O   0  0  0  0  0  0  0  0  0  0  0  0
   28.7681  -19.4651   -4.0985 O   0  0  0  0  0  0  0  0  0  0  0  0
   28.1456  -19.4505   -5.3417 C   0  0  0  0  0  0  0  0  0  0  0  0
   27.4956  -20.5724   -5.8187 C   0  0  0  0  0  0  0  0  0  0  0  0
   26.8748  -20.5805   -7.0419 C   0  0  0  0  0  0  0  0  0  0  0  0
   26.8982  -19.4381   -7.8199 C   0  0  0  0  0  0  0  0  0  0  0  0
   26.2434  -19.4622   -9.1318 C   0  0  0  0  0  0  0  0  0  0  0  0
   25.9365  -20.8685   -9.5358 C   0  0  2  0  0  0  0  0  0  0  0  0
   25.5720  -20.8164  -10.9584 N   0  0  0  0  0  0  0  0  0  0  0  0
   24.8042  -21.4216   -8.7739 C   0  0  0  0  0  0  0  0  0  0  0  0
   23.5029  -21.4892   -9.2333 O   0  0  0  0  0  0  0  0  0  0  0  0
   27.5413  -18.3233   -7.3523 C   0  0  0  0  0  0  0  0  0  0  0  0
   28.1610  -18.3246   -6.1241 C   0  0  0  0  0  0  0  0  0  0  0  0
   25.0094  -21.8778   -7.5999 O   0  0  0  0  0  0  0  0  0  0  0  0
  2  1  1  1
  2  4  1  0
  2  3  1  0
  4  6  1  0
  4  5  1  6
  6  7  2  0
  9  8  1  6
  9 11  1  0
 10  9  1  0
 11 13  1  0
 11 12  1  6
 12  6  1  0
 13 14  2  0
 15 16  1  0
 16 26  2  0
 16 17  1  0
 17 18  2  0
 18 19  1  0
 19 20  1  0
 21 20  1  1
 21 22  1  0
 21 23  1  0
 22 13  1  0
 23 27  2  0
 23 24  1  0
 25 19  2  0
 26 25  1  0
M  END
$$$$
