VVY.pdb
     RDKit          3D

 27 27  0  0  1  0  0  0  0  0999 V2000
   23.2904  -22.4798  -18.7776 C   0  0  0  0  0  0  0  0  0  0  0  0
   24.4453  -22.6527  -17.8058 C   0  0  1  0  0  0  0  0  0  0  0  0
   25.6603  -21.9001  -18.2714 C   0  0  0  0  0  0  0  0  0  0  0  0
   24.0212  -22.2250  -16.4155 C   0  0  2  0  0  0  0  0  0  0  0  0
   23.1280  -21.1074  -16.4324 N   0  0  0  0  0  0  0  0  0  0  0  0
   25.2513  -21.9104  -15.6449 C   0  0  0  0  0  0  0  0  0  0  0  0
   26.1352  -22.8176  -15.5095 O   0  0  0  0  0  0  0  0  0  0  0  0
   27.5361  -18.7441  -15.6470 C   0  0  0  0  0  0  0  0  0  0  0  0
   26.8741  -18.9285  -14.3140 C   0  0  2  0  0  0  0  0  0  0  0  0
   27.8522  -18.6044  -13.2060 C   0  0  0  0  0  0  0  0  0  0  0  0
   26.4361  -20.3890  -14.1245 C   0  0  2  0  0  0  0  0  0  0  0  0
   25.4035  -20.6286  -15.0908 N   0  0  0  0  0  0  0  0  0  0  0  0
   25.8185  -20.5540  -12.7682 C   0  0  0  0  0  0  0  0  0  0  0  0
   24.6103  -20.3006  -12.5460 O   0  0  0  0  0  0  0  0  0  0  0  0
   28.3255  -18.6506   -5.1362 O   0  0  0  0  0  0  0  0  0  0  0  0
   27.9873  -19.4598   -6.2152 C   0  0  0  0  0  0  0  0  0  0  0  0
   28.8572  -19.6211   -7.2763 C   0  0  0  0  0  0  0  0  0  0  0  0
   28.5444  -20.4144   -8.3508 C   0  0  0  0  0  0  0  0  0  0  0  0
   27.3281  -21.0709   -8.3756 C   0  0  0  0  0  0  0  0  0  0  0  0
   26.9981  -21.9052   -9.5355 C   0  0  0  0  0  0  0  0  0  0  0  0
   25.9801  -21.2257  -10.3941 C   0  0  2  0  0  0  0  0  0  0  0  0
   26.6213  -21.0107  -11.6987 N   0  0  0  0  0  0  0  0  0  0  0  0
   25.5798  -19.9216   -9.8394 C   0  0  0  0  0  0  0  0  0  0  0  0
   24.4474  -19.7025   -9.0788 O   0  0  0  0  0  0  0  0  0  0  0  0
   26.4619  -20.9144   -7.3267 C   0  0  0  0  0  0  0  0  0  0  0  0
   26.7844  -20.1168   -6.2533 C   0  0  0  0  0  0  0  0  0  0  0  0
   26.3123  -18.9007  -10.0624 O   0  0  0  0  0  0  0  0  0  0  0  0
  2  1  1  6
  2  4  1  0
  2  3  1  0
  4  6  1  0
  4  5  1  6
  6  7  2  0
  9  8  1  6
  9 11  1  0
 10  9  1  0
 11 13  1  0
 11 12  1  6
 12  6  1  0
 13 14  2  0
 15 16  1  0
 16 26  2  0
 16 17  1  0
 17 18  2  0
 18 19  1  0
 19 20  1  0
 21 20  1  1
 21 22  1  0
 21 23  1  0
 22 13  1  0
 23 27  2  0
 23 24  1  0
 25 19  2  0
 26 25  1  0
M  END
$$$$
