VVY.pdb
     RDKit          3D

 27 27  0  0  1  0  0  0  0  0999 V2000
   31.2904  -21.8120  -21.1493 C   0  0  0  0  0  0  0  0  0  0  0  0
   30.1590  -21.5989  -20.1581 C   0  0  1  0  0  0  0  0  0  0  0  0
   30.6267  -21.8259  -18.7477 C   0  0  0  0  0  0  0  0  0  0  0  0
   29.5682  -20.2151  -20.3357 C   0  0  2  0  0  0  0  0  0  0  0  0
   30.5529  -19.1810  -20.2456 N   0  0  0  0  0  0  0  0  0  0  0  0
   28.5155  -20.0376  -19.3031 C   0  0  0  0  0  0  0  0  0  0  0  0
   28.8199  -19.4458  -18.2168 O   0  0  0  0  0  0  0  0  0  0  0  0
   23.8267  -19.5752  -18.4040 C   0  0  0  0  0  0  0  0  0  0  0  0
   25.0597  -19.5792  -19.2579 C   0  0  2  0  0  0  0  0  0  0  0  0
   24.7731  -20.2767  -20.5697 C   0  0  0  0  0  0  0  0  0  0  0  0
   26.1939  -20.3521  -18.5674 C   0  0  2  0  0  0  0  0  0  0  0  0
   27.2220  -20.5248  -19.5527 N   0  0  0  0  0  0  0  0  0  0  0  0
   25.7096  -21.7201  -18.1903 C   0  0  0  0  0  0  0  0  0  0  0  0
   25.4899  -22.6128  -19.0435 O   0  0  0  0  0  0  0  0  0  0  0  0
   30.8140  -25.7240  -17.2316 O   0  0  0  0  0  0  0  0  0  0  0  0
   29.5972  -25.2433  -16.7607 C   0  0  0  0  0  0  0  0  0  0  0  0
   28.5463  -26.1051  -16.5128 C   0  0  0  0  0  0  0  0  0  0  0  0
   27.3375  -25.6531  -16.0480 C   0  0  0  0  0  0  0  0  0  0  0  0
   27.1630  -24.3008  -15.8207 C   0  0  0  0  0  0  0  0  0  0  0  0
   25.8623  -23.8268  -15.3372 C   0  0  0  0  0  0  0  0  0  0  0  0
   25.0166  -23.3669  -16.4810 C   0  0  2  0  0  0  0  0  0  0  0  0
   25.4912  -22.0199  -16.8267 N   0  0  0  0  0  0  0  0  0  0  0  0
   23.5929  -23.2903  -16.1122 C   0  0  0  0  0  0  0  0  0  0  0  0
   22.9086  -22.1193  -15.8492 O   0  0  0  0  0  0  0  0  0  0  0  0
   28.2012  -23.4419  -16.0649 C   0  0  0  0  0  0  0  0  0  0  0  0
   29.4100  -23.9046  -16.5309 C   0  0  0  0  0  0  0  0  0  0  0  0
   22.9166  -24.3685  -16.0196 O   0  0  0  0  0  0  0  0  0  0  0  0
  2  1  1  6
  2  4  1  0
  2  3  1  0
  4  6  1  0
  4  5  1  1
  6  7  2  0
  9  8  1  1
  9 11  1  0
 10  9  1  0
 11 13  1  0
 11 12  1  6
 12  6  1  0
 13 14  2  0
 15 16  1  0
 16 26  2  0
 16 17  1  0
 17 18  2  0
 18 19  1  0
 19 20  1  0
 21 20  1  1
 21 22  1  0
 21 23  1  0
 22 13  1  0
 23 27  2  0
 23 24  1  0
 25 19  2  0
 26 25  1  0
M  END
$$$$
