VVY.pdb
     RDKit          3D

 27 27  0  0  1  0  0  0  0  0999 V2000
   25.1320  -21.4583   -7.2880 C   0  0  0  0  0  0  0  0  0  0  0  0
   25.9978  -20.2919   -6.8431 C   0  0  1  0  0  0  0  0  0  0  0  0
   26.5347  -20.5157   -5.4570 C   0  0  0  0  0  0  0  0  0  0  0  0
   27.1118  -20.0620   -7.8440 C   0  0  2  0  0  0  0  0  0  0  0  0
   27.8904  -18.9000   -7.5430 N   0  0  0  0  0  0  0  0  0  0  0  0
   26.4939  -19.9533   -9.1902 C   0  0  0  0  0  0  0  0  0  0  0  0
   25.7987  -18.9208   -9.4610 O   0  0  0  0  0  0  0  0  0  0  0  0
   28.6586  -21.2928  -12.1884 C   0  0  0  0  0  0  0  0  0  0  0  0
   27.2241  -21.7091  -12.3235 C   0  0  2  0  0  0  0  0  0  0  0  0
   26.7876  -21.5856  -13.7670 C   0  0  0  0  0  0  0  0  0  0  0  0
   26.3139  -20.7934  -11.4906 C   0  0  2  0  0  0  0  0  0  0  0  0
   26.6929  -20.9865  -10.1207 N   0  0  0  0  0  0  0  0  0  0  0  0
   24.8911  -21.2478  -11.6233 C   0  0  0  0  0  0  0  0  0  0  0  0
   24.4441  -22.2426  -11.0038 O   0  0  0  0  0  0  0  0  0  0  0  0
   16.3340  -21.1619  -12.8425 O   0  0  0  0  0  0  0  0  0  0  0  0
   17.6749  -20.8454  -12.6553 C   0  0  0  0  0  0  0  0  0  0  0  0
   18.3694  -20.1246  -13.6075 C   0  0  0  0  0  0  0  0  0  0  0  0
   19.6924  -19.8011  -13.4437 C   0  0  0  0  0  0  0  0  0  0  0  0
   20.3506  -20.2052  -12.2972 C   0  0  0  0  0  0  0  0  0  0  0  0
   21.7685  -19.8660  -12.1388 C   0  0  0  0  0  0  0  0  0  0  0  0
   22.6300  -21.0003  -12.5929 C   0  0  2  0  0  0  0  0  0  0  0  0
   24.0185  -20.5336  -12.4750 N   0  0  0  0  0  0  0  0  0  0  0  0
   22.3659  -21.3597  -13.9964 C   0  0  0  0  0  0  0  0  0  0  0  0
   21.4792  -22.3366  -14.4064 O   0  0  0  0  0  0  0  0  0  0  0  0
   19.6673  -20.9201  -11.3502 C   0  0  0  0  0  0  0  0  0  0  0  0
   18.3405  -21.2398  -11.5232 C   0  0  0  0  0  0  0  0  0  0  0  0
   22.9880  -20.7414  -14.9233 O   0  0  0  0  0  0  0  0  0  0  0  0
  2  1  1  6
  2  4  1  0
  2  3  1  0
  4  6  1  0
  4  5  1  1
  6  7  2  0
  9  8  1  6
  9 11  1  0
 10  9  1  0
 11 13  1  0
 11 12  1  1
 12  6  1  0
 13 14  2  0
 15 16  1  0
 16 26  2  0
 16 17  1  0
 17 18  2  0
 18 19  1  0
 19 20  1  0
 21 20  1  6
 21 22  1  0
 21 23  1  0
 22 13  1  0
 23 27  2  0
 23 24  1  0
 25 19  2  0
 26 25  1  0
M  END
$$$$
