NPA.pdb
     RDKit          3D

 21 21  0  0  1  0  0  0  0  0999 V2000
   20.9278  -13.3114  -18.9126 N   0  0  0  0  0  0  0  0  0  0  0  0
   20.6360  -12.0217  -19.4295 C   0  0  0  0  0  0  0  0  0  0  0  0
   20.8002  -11.8509  -20.6608 O   0  0  0  0  0  0  0  0  0  0  0  0
   20.1605  -10.9541  -18.5165 C   0  0  0  0  0  0  0  0  0  0  0  0
   20.0307  -11.4976  -17.0980 C   0  0  2  0  0  0  0  0  0  0  0  0
   18.7767  -12.2753  -17.0722 N   0  0  0  0  0  0  0  0  0  0  0  0
   19.9721  -10.3989  -16.1040 C   0  0  0  0  0  0  0  0  0  0  0  0
   18.9165   -9.7356  -16.1074 O   0  0  0  0  0  0  0  0  0  0  0  0
   20.9982  -10.0872  -15.2051 N   0  0  0  0  0  0  0  0  0  0  0  0
   21.7072  -11.2388  -14.5298 C   0  0  0  0  0  0  0  0  0  0  0  0
   23.1388  -10.8951  -14.8247 C   0  0  0  0  0  0  0  0  0  0  0  0
   23.1385   -9.3958  -15.1034 C   0  0  0  0  0  0  0  0  0  0  0  0
   21.6961   -9.0432  -14.6230 C   0  0  1  0  0  0  0  0  0  0  0  0
   21.5499   -7.6472  -14.7438 C   0  0  0  0  0  0  0  0  0  0  0  0
   22.0029   -7.1985  -15.8962 O   0  0  0  0  0  0  0  0  0  0  0  0
   19.7444   -4.5245  -13.9038 C   0  0  0  0  0  0  0  0  0  0  0  0
   20.9042   -5.2618  -14.4624 C   0  0  2  0  0  0  0  0  0  0  0  0
   21.0452   -6.6298  -13.9404 N   0  0  0  0  0  0  0  0  0  0  0  0
   22.1655   -4.5120  -14.1373 C   0  0  0  0  0  0  0  0  0  0  0  0
   22.8663   -4.8964  -13.1624 O   0  0  0  0  0  0  0  0  0  0  0  0
   22.5939   -3.4128  -14.8632 O   0  0  0  0  0  0  0  0  0  0  0  0
  2  1  1  0
  2  3  2  0
  4  2  1  0
  5  4  1  0
  5  6  1  6
  5  7  1  0
  7  8  2  0
  9  7  1  0
  9 13  1  0
 10 11  1  0
 10  9  1  0
 11 12  1  0
 13 12  1  0
 13 14  1  6
 14 15  2  0
 14 18  1  0
 17 16  1  1
 17 19  1  0
 18 17  1  0
 19 21  1  0
 20 19  2  0
M  END
$$$$
