NPA.pdb
     RDKit          3D

 21 21  0  0  1  0  0  0  0  0999 V2000
   26.0820  -14.6082  -19.5408 N   0  0  0  0  0  0  0  0  0  0  0  0
   25.2200  -13.6125  -20.0709 C   0  0  0  0  0  0  0  0  0  0  0  0
   25.1585  -13.5183  -21.3197 O   0  0  0  0  0  0  0  0  0  0  0  0
   24.4455  -12.7450  -19.1507 C   0  0  0  0  0  0  0  0  0  0  0  0
   24.7316  -13.1295  -17.7034 C   0  0  2  0  0  0  0  0  0  0  0  0
   24.2878  -14.5295  -17.5579 N   0  0  0  0  0  0  0  0  0  0  0  0
   23.9927  -12.2576  -16.7587 C   0  0  0  0  0  0  0  0  0  0  0  0
   22.7948  -12.5568  -16.5861 O   0  0  0  0  0  0  0  0  0  0  0  0
   24.5515  -11.1664  -16.0841 N   0  0  0  0  0  0  0  0  0  0  0  0
   25.9332  -11.3429  -15.4971 C   0  0  0  0  0  0  0  0  0  0  0  0
   26.6341  -10.1454  -16.0712 C   0  0  0  0  0  0  0  0  0  0  0  0
   25.5214   -9.1623  -16.4188 C   0  0  0  0  0  0  0  0  0  0  0  0
   24.3259   -9.8573  -15.6953 C   0  0  1  0  0  0  0  0  0  0  0  0
   23.2033   -9.0214  -15.8556 C   0  0  0  0  0  0  0  0  0  0  0  0
   23.1008   -8.5581  -17.0842 O   0  0  0  0  0  0  0  0  0  0  0  0
   19.7652   -8.0635  -14.8244 C   0  0  0  0  0  0  0  0  0  0  0  0
   21.0170   -7.8645  -15.5953 C   0  0  2  0  0  0  0  0  0  0  0  0
   22.1798   -8.5665  -15.0306 N   0  0  0  0  0  0  0  0  0  0  0  0
   21.3399   -6.3973  -15.6373 C   0  0  0  0  0  0  0  0  0  0  0  0
   22.3951   -5.9915  -15.0794 O   0  0  0  0  0  0  0  0  0  0  0  0
   20.5266   -5.4671  -16.2634 O   0  0  0  0  0  0  0  0  0  0  0  0
  2  1  1  0
  2  3  2  0
  4  2  1  0
  5  4  1  0
  5  6  1  6
  5  7  1  0
  7  8  2  0
  9  7  1  0
  9 13  1  0
 10 11  1  0
 10  9  1  0
 11 12  1  0
 13 12  1  0
 13 14  1  6
 14 15  2  0
 14 18  1  0
 17 16  1  1
 17 19  1  0
 18 17  1  0
 19 21  1  0
 20 19  2  0
M  END
$$$$
