NPA.pdb
     RDKit          3D

 21 21  0  0  1  0  0  0  0  0999 V2000
   23.9512  -36.6963   -9.3537 N   0  0  0  0  0  0  0  0  0  0  0  0
   22.7327  -36.7443  -10.0807 C   0  0  0  0  0  0  0  0  0  0  0  0
   21.9161  -37.6420   -9.7653 O   0  0  0  0  0  0  0  0  0  0  0  0
   22.4795  -35.7562  -11.1572 C   0  0  0  0  0  0  0  0  0  0  0  0
   23.6151  -34.7404  -11.2134 C   0  0  2  0  0  0  0  0  0  0  0  0
   24.2373  -34.8973  -12.5424 N   0  0  0  0  0  0  0  0  0  0  0  0
   24.6147  -34.9912  -10.1474 C   0  0  0  0  0  0  0  0  0  0  0  0
   25.0156  -36.1686  -10.0618 O   0  0  0  0  0  0  0  0  0  0  0  0
   25.1055  -34.0137   -9.2747 N   0  0  0  0  0  0  0  0  0  0  0  0
   25.2164  -32.6012   -9.8013 C   0  0  0  0  0  0  0  0  0  0  0  0
   24.4817  -31.8470   -8.7306 C   0  0  0  0  0  0  0  0  0  0  0  0
   24.5339  -32.7487   -7.5020 C   0  0  0  0  0  0  0  0  0  0  0  0
   25.5815  -33.7960   -7.9933 C   0  0  1  0  0  0  0  0  0  0  0  0
   25.8103  -34.6846   -6.9243 C   0  0  0  0  0  0  0  0  0  0  0  0
   24.8222  -35.5418   -6.7713 O   0  0  0  0  0  0  0  0  0  0  0  0
   28.0942  -36.3668   -4.4799 C   0  0  0  0  0  0  0  0  0  0  0  0
   26.7726  -35.9967   -5.0432 C   0  0  2  0  0  0  0  0  0  0  0  0
   26.8251  -34.8737   -5.9918 N   0  0  0  0  0  0  0  0  0  0  0  0
   25.8513  -35.6096   -3.9208 C   0  0  0  0  0  0  0  0  0  0  0  0
   25.3689  -34.4449   -3.9054 O   0  0  0  0  0  0  0  0  0  0  0  0
   25.5075  -36.4781   -2.8980 O   0  0  0  0  0  0  0  0  0  0  0  0
  2  1  1  0
  2  3  2  0
  4  2  1  0
  5  4  1  0
  5  6  1  6
  5  7  1  0
  7  8  2  0
  9  7  1  0
  9 13  1  0
 10 11  1  0
 10  9  1  0
 11 12  1  0
 13 12  1  0
 13 14  1  1
 14 15  2  0
 14 18  1  0
 17 16  1  1
 17 19  1  0
 18 17  1  0
 19 21  1  0
 20 19  2  0
M  END
$$$$
