NPA.pdb
     RDKit          3D

 21 21  0  0  1  0  0  0  0  0999 V2000
   12.2458  -19.1008    0.0297 N   0  0  0  0  0  0  0  0  0  0  0  0
   11.9481  -18.8192    1.3890 C   0  0  0  0  0  0  0  0  0  0  0  0
   10.8826  -18.2008    1.6225 O   0  0  0  0  0  0  0  0  0  0  0  0
   12.8847  -19.2564    2.4525 C   0  0  0  0  0  0  0  0  0  0  0  0
   14.1807  -19.7659    1.8320 C   0  0  2  0  0  0  0  0  0  0  0  0
   13.8108  -20.9454    1.0258 N   0  0  0  0  0  0  0  0  0  0  0  0
   15.1635  -20.1466    2.8749 C   0  0  0  0  0  0  0  0  0  0  0  0
   14.8761  -21.1695    3.5272 O   0  0  0  0  0  0  0  0  0  0  0  0
   16.3425  -19.4441    3.1477 N   0  0  0  0  0  0  0  0  0  0  0  0
   17.1435  -18.9419    1.9683 C   0  0  0  0  0  0  0  0  0  0  0  0
   17.3083  -17.4963    2.3396 C   0  0  0  0  0  0  0  0  0  0  0  0
   17.1142  -17.4495    3.8513 C   0  0  0  0  0  0  0  0  0  0  0  0
   17.1562  -18.9776    4.1656 C   0  0  1  0  0  0  0  0  0  0  0  0
   17.0639  -19.1146    5.5647 C   0  0  0  0  0  0  0  0  0  0  0  0
   15.9391  -18.6200    6.0388 O   0  0  0  0  0  0  0  0  0  0  0  0
   18.0998  -20.6692    8.8059 C   0  0  0  0  0  0  0  0  0  0  0  0
   17.4285  -19.6462    7.9669 C   0  0  2  0  0  0  0  0  0  0  0  0
   17.8734  -19.6434    6.5648 N   0  0  0  0  0  0  0  0  0  0  0  0
   17.7023  -18.2842    8.5402 C   0  0  0  0  0  0  0  0  0  0  0  0
   18.3547  -17.4549    7.8504 O   0  0  0  0  0  0  0  0  0  0  0  0
   17.2688  -17.8979    9.7978 O   0  0  0  0  0  0  0  0  0  0  0  0
  2  1  1  0
  2  3  2  0
  4  2  1  0
  5  4  1  0
  5  6  1  1
  5  7  1  0
  7  8  2  0
  9  7  1  0
  9 13  1  0
 10 11  1  0
 10  9  1  0
 11 12  1  0
 13 12  1  0
 13 14  1  1
 14 15  2  0
 14 18  1  0
 17 16  1  1
 17 19  1  0
 18 17  1  0
 19 21  1  0
 20 19  2  0
M  END
$$$$
