NPA.pdb
     RDKit          3D

 21 21  0  0  1  0  0  0  0  0999 V2000
   26.1721  -16.6922  -17.9548 N   0  0  0  0  0  0  0  0  0  0  0  0
   25.4776  -15.7468  -18.7545 C   0  0  0  0  0  0  0  0  0  0  0  0
   25.3436  -16.0188  -19.9711 O   0  0  0  0  0  0  0  0  0  0  0  0
   24.9511  -14.5062  -18.1356 C   0  0  0  0  0  0  0  0  0  0  0  0
   25.3765  -14.4290  -16.6736 C   0  0  2  0  0  0  0  0  0  0  0  0
   24.9594  -15.7045  -16.0595 N   0  0  0  0  0  0  0  0  0  0  0  0
   24.7240  -13.2908  -15.9826 C   0  0  0  0  0  0  0  0  0  0  0  0
   23.5044  -13.4305  -15.7649 O   0  0  0  0  0  0  0  0  0  0  0  0
   25.3827  -12.1229  -15.5827 N   0  0  0  0  0  0  0  0  0  0  0  0
   26.8080  -12.2576  -15.0978 C   0  0  0  0  0  0  0  0  0  0  0  0
   27.4904  -11.2277  -15.9513 C   0  0  0  0  0  0  0  0  0  0  0  0
   26.3836  -10.2709  -16.3812 C   0  0  0  0  0  0  0  0  0  0  0  0
   25.2410  -10.7540  -15.4343 C   0  0  1  0  0  0  0  0  0  0  0  0
   24.1373   -9.9059  -15.6519 C   0  0  0  0  0  0  0  0  0  0  0  0
   23.8357   -9.8017  -16.9297 O   0  0  0  0  0  0  0  0  0  0  0  0
   20.9857   -8.3639  -14.4131 C   0  0  0  0  0  0  0  0  0  0  0  0
   22.0797   -8.5313  -15.4010 C   0  0  2  0  0  0  0  0  0  0  0  0
   23.2920   -9.1516  -14.8447 N   0  0  0  0  0  0  0  0  0  0  0  0
   22.4601   -7.1831  -15.9457 C   0  0  0  0  0  0  0  0  0  0  0  0
   23.6328   -6.7608  -15.7569 O   0  0  0  0  0  0  0  0  0  0  0  0
   21.5763   -6.3805  -16.6480 O   0  0  0  0  0  0  0  0  0  0  0  0
  2  1  1  0
  2  3  2  0
  4  2  1  0
  5  4  1  0
  5  6  1  1
  5  7  1  0
  7  8  2  0
  9  7  1  0
  9 13  1  0
 10 11  1  0
 10  9  1  0
 11 12  1  0
 13 12  1  0
 13 14  1  6
 14 15  2  0
 14 18  1  0
 17 16  1  1
 17 19  1  0
 18 17  1  0
 19 21  1  0
 20 19  2  0
M  END
$$$$
