NPA.pdb
     RDKit          3D

 21 21  0  0  1  0  0  0  0  0999 V2000
   25.0784  -24.2019  -13.6377 N   0  0  0  0  0  0  0  0  0  0  0  0
   23.9118  -23.5098  -14.0568 C   0  0  0  0  0  0  0  0  0  0  0  0
   23.0924  -24.1478  -14.7594 O   0  0  0  0  0  0  0  0  0  0  0  0
   23.7128  -22.0954  -13.6575 C   0  0  0  0  0  0  0  0  0  0  0  0
   24.8169  -21.6613  -12.6999 C   0  0  2  0  0  0  0  0  0  0  0  0
   24.2828  -21.8701  -11.3400 N   0  0  0  0  0  0  0  0  0  0  0  0
   25.1706  -20.2350  -12.8974 C   0  0  0  0  0  0  0  0  0  0  0  0
   24.2853  -19.4188  -12.5744 O   0  0  0  0  0  0  0  0  0  0  0  0
   26.3941  -19.7844  -13.4054 N   0  0  0  0  0  0  0  0  0  0  0  0
   27.6483  -20.4685  -12.9117 C   0  0  0  0  0  0  0  0  0  0  0  0
   28.3067  -20.8166  -14.2156 C   0  0  0  0  0  0  0  0  0  0  0  0
   27.7061  -19.8533  -15.2339 C   0  0  0  0  0  0  0  0  0  0  0  0
   26.9799  -18.8700  -14.2637 C   0  0  1  0  0  0  0  0  0  0  0  0
   26.4193  -17.8476  -15.0544 C   0  0  0  0  0  0  0  0  0  0  0  0
   25.8257  -18.3213  -16.1304 O   0  0  0  0  0  0  0  0  0  0  0  0
   25.2982  -14.2865  -15.5270 C   0  0  0  0  0  0  0  0  0  0  0  0
   25.5189  -15.6986  -15.9246 C   0  0  2  0  0  0  0  0  0  0  0  0
   26.3433  -16.4609  -14.9743 N   0  0  0  0  0  0  0  0  0  0  0  0
   26.2063  -15.7309  -17.2607 C   0  0  0  0  0  0  0  0  0  0  0  0
   27.4319  -16.0230  -17.3061 O   0  0  0  0  0  0  0  0  0  0  0  0
   25.5514  -15.4525  -18.4490 O   0  0  0  0  0  0  0  0  0  0  0  0
  2  1  1  0
  2  3  2  0
  4  2  1  0
  5  4  1  0
  5  6  1  1
  5  7  1  0
  7  8  2  0
  9  7  1  0
  9 13  1  0
 10 11  1  0
 10  9  1  0
 11 12  1  0
 13 12  1  0
 13 14  1  6
 14 15  2  0
 14 18  1  0
 17 16  1  1
 17 19  1  0
 18 17  1  0
 19 21  1  0
 20 19  2  0
M  END
$$$$
