NPA.pdb
     RDKit          3D

 21 21  0  0  1  0  0  0  0  0999 V2000
   20.2775  -21.7999  -10.4818 N   0  0  0  0  0  0  0  0  0  0  0  0
   20.4129  -21.8868  -11.8924 C   0  0  0  0  0  0  0  0  0  0  0  0
   19.3675  -22.0925  -12.5535 O   0  0  0  0  0  0  0  0  0  0  0  0
   21.7511  -21.7347  -12.5131 C   0  0  0  0  0  0  0  0  0  0  0  0
   22.0807  -20.2569  -12.6917 C   0  0  2  0  0  0  0  0  0  0  0  0
   21.1007  -19.7350  -13.6639 N   0  0  0  0  0  0  0  0  0  0  0  0
   23.4594  -20.0711  -13.2048 C   0  0  0  0  0  0  0  0  0  0  0  0
   23.5390  -19.7240  -14.3996 O   0  0  0  0  0  0  0  0  0  0  0  0
   24.6199  -20.2584  -12.4458 N   0  0  0  0  0  0  0  0  0  0  0  0
   24.5480  -19.9356  -10.9709 C   0  0  0  0  0  0  0  0  0  0  0  0
   25.0870  -21.2071  -10.3814 C   0  0  0  0  0  0  0  0  0  0  0  0
   25.9009  -21.8499  -11.4994 C   0  0  0  0  0  0  0  0  0  0  0  0
   25.9436  -20.6588  -12.5069 C   0  0  1  0  0  0  0  0  0  0  0  0
   26.7413  -21.0656  -13.5945 C   0  0  0  0  0  0  0  0  0  0  0  0
   27.4445  -22.1443  -13.3181 O   0  0  0  0  0  0  0  0  0  0  0  0
   26.4317  -22.2403  -16.6638 C   0  0  0  0  0  0  0  0  0  0  0  0
   27.4874  -21.5038  -15.9263 C   0  0  2  0  0  0  0  0  0  0  0  0
   26.9666  -20.6027  -14.8868 N   0  0  0  0  0  0  0  0  0  0  0  0
   28.2799  -20.6764  -16.8990 C   0  0  0  0  0  0  0  0  0  0  0  0
   28.1132  -19.4269  -16.9101 O   0  0  0  0  0  0  0  0  0  0  0  0
   29.1881  -21.2274  -17.7878 O   0  0  0  0  0  0  0  0  0  0  0  0
  2  1  1  0
  2  3  2  0
  4  2  1  0
  5  4  1  0
  5  6  1  6
  5  7  1  0
  7  8  2  0
  9  7  1  0
  9 13  1  0
 10 11  1  0
 10  9  1  0
 11 12  1  0
 13 12  1  0
 13 14  1  6
 14 15  2  0
 14 18  1  0
 17 16  1  6
 17 19  1  0
 18 17  1  0
 19 21  1  0
 20 19  2  0
M  END
$$$$
