NPA.pdb
     RDKit          3D

 21 21  0  0  1  0  0  0  0  0999 V2000
   20.7904  -22.7744   -7.4756 N   0  0  0  0  0  0  0  0  0  0  0  0
   20.0556  -22.9101   -8.6828 C   0  0  0  0  0  0  0  0  0  0  0  0
   19.1038  -23.7264   -8.6817 O   0  0  0  0  0  0  0  0  0  0  0  0
   20.4326  -22.1019   -9.8677 C   0  0  0  0  0  0  0  0  0  0  0  0
   21.6656  -21.2608   -9.5571 C   0  0  2  0  0  0  0  0  0  0  0  0
   21.3090  -20.4290   -8.3913 N   0  0  0  0  0  0  0  0  0  0  0  0
   22.0334  -20.3997  -10.7068 C   0  0  0  0  0  0  0  0  0  0  0  0
   21.1404  -19.6203  -11.0935 O   0  0  0  0  0  0  0  0  0  0  0  0
   23.2773  -20.4207  -11.3473 N   0  0  0  0  0  0  0  0  0  0  0  0
   24.5003  -20.6447  -10.4878 C   0  0  0  0  0  0  0  0  0  0  0  0
   25.1552  -21.7766  -11.2258 C   0  0  0  0  0  0  0  0  0  0  0  0
   24.6003  -21.7003  -12.6441 C   0  0  0  0  0  0  0  0  0  0  0  0
   23.9047  -20.3049  -12.5757 C   0  0  1  0  0  0  0  0  0  0  0  0
   23.3902  -20.0361  -13.8594 C   0  0  0  0  0  0  0  0  0  0  0  0
   22.8998  -21.1151  -14.4336 O   0  0  0  0  0  0  0  0  0  0  0  0
   21.6537  -17.6470  -16.0442 C   0  0  0  0  0  0  0  0  0  0  0  0
   22.3977  -18.9149  -15.8454 C   0  0  2  0  0  0  0  0  0  0  0  0
   23.2771  -18.9085  -14.6662 N   0  0  0  0  0  0  0  0  0  0  0  0
   23.2500  -19.1791  -17.0547 C   0  0  0  0  0  0  0  0  0  0  0  0
   22.6918  -19.2811  -18.1805 O   0  0  0  0  0  0  0  0  0  0  0  0
   24.6267  -19.3166  -16.9876 O   0  0  0  0  0  0  0  0  0  0  0  0
  2  1  1  0
  2  3  2  0
  4  2  1  0
  5  4  1  0
  5  6  1  1
  5  7  1  0
  7  8  2  0
  9  7  1  0
  9 13  1  0
 10 11  1  0
 10  9  1  0
 11 12  1  0
 13 12  1  0
 13 14  1  6
 14 15  2  0
 14 18  1  0
 17 16  1  6
 17 19  1  0
 18 17  1  0
 19 21  1  0
 20 19  2  0
M  END
$$$$
