NPA.pdb
     RDKit          3D

 21 21  0  0  1  0  0  0  0  0999 V2000
   15.2799  -16.0336  -16.4968 N   0  0  0  0  0  0  0  0  0  0  0  0
   16.1225  -15.1647  -17.2389 C   0  0  0  0  0  0  0  0  0  0  0  0
   16.0297  -15.2110  -18.4885 O   0  0  0  0  0  0  0  0  0  0  0  0
   17.0557  -14.2593  -16.5256 C   0  0  0  0  0  0  0  0  0  0  0  0
   18.4599  -14.3929  -17.1042 C   0  0  2  0  0  0  0  0  0  0  0  0
   18.8973  -15.7691  -16.7999 N   0  0  0  0  0  0  0  0  0  0  0  0
   19.3896  -13.4132  -16.4923 C   0  0  0  0  0  0  0  0  0  0  0  0
   19.3686  -13.3679  -15.2466 O   0  0  0  0  0  0  0  0  0  0  0  0
   20.2485  -12.5772  -17.2143 N   0  0  0  0  0  0  0  0  0  0  0  0
   20.9393  -13.1645  -18.4237 C   0  0  0  0  0  0  0  0  0  0  0  0
   20.5929  -12.1406  -19.4660 C   0  0  0  0  0  0  0  0  0  0  0  0
   20.2671  -10.8723  -18.6847 C   0  0  0  0  0  0  0  0  0  0  0  0
   20.7771  -11.2992  -17.2729 C   0  0  1  0  0  0  0  0  0  0  0  0
   20.6165  -10.1881  -16.4218 C   0  0  0  0  0  0  0  0  0  0  0  0
   19.4055   -9.6760  -16.4972 O   0  0  0  0  0  0  0  0  0  0  0  0
   21.4865   -8.3289  -13.3451 C   0  0  0  0  0  0  0  0  0  0  0  0
   20.8785   -8.4169  -14.6955 C   0  0  2  0  0  0  0  0  0  0  0  0
   21.4274   -9.5013  -15.5240 N   0  0  0  0  0  0  0  0  0  0  0  0
   21.1062   -7.1211  -15.4220 C   0  0  0  0  0  0  0  0  0  0  0  0
   20.6441   -6.0579  -14.9266 O   0  0  0  0  0  0  0  0  0  0  0  0
   21.8031   -7.0424  -16.6164 O   0  0  0  0  0  0  0  0  0  0  0  0
  2  1  1  0
  2  3  2  0
  4  2  1  0
  5  4  1  0
  5  6  1  1
  5  7  1  0
  7  8  2  0
  9  7  1  0
  9 13  1  0
 10 11  1  0
 10  9  1  0
 11 12  1  0
 13 12  1  0
 13 14  1  1
 14 15  2  0
 14 18  1  0
 17 16  1  1
 17 19  1  0
 18 17  1  0
 19 21  1  0
 20 19  2  0
M  END
$$$$
