NPA.pdb
     RDKit          3D

 21 21  0  0  1  0  0  0  0  0999 V2000
   15.3592  -10.9101  -18.0103 N   0  0  0  0  0  0  0  0  0  0  0  0
   15.1221   -9.7130  -17.2849 C   0  0  0  0  0  0  0  0  0  0  0  0
   14.0364   -9.1231  -17.4983 O   0  0  0  0  0  0  0  0  0  0  0  0
   16.1415   -9.2195  -16.3275 C   0  0  0  0  0  0  0  0  0  0  0  0
   17.3362  -10.1662  -16.3003 C   0  0  2  0  0  0  0  0  0  0  0  0
   16.9038  -11.3467  -15.5274 N   0  0  0  0  0  0  0  0  0  0  0  0
   18.5103   -9.5328  -15.6532 C   0  0  0  0  0  0  0  0  0  0  0  0
   18.4210   -9.3861  -14.4183 O   0  0  0  0  0  0  0  0  0  0  0  0
   19.6591   -9.1121  -16.3323 N   0  0  0  0  0  0  0  0  0  0  0  0
   20.2118  -10.0274  -17.4007 C   0  0  0  0  0  0  0  0  0  0  0  0
   20.3213   -9.0731  -18.5549 C   0  0  0  0  0  0  0  0  0  0  0  0
   20.3771   -7.6873  -17.9209 C   0  0  0  0  0  0  0  0  0  0  0  0
   20.5908   -8.0930  -16.4292 C   0  0  1  0  0  0  0  0  0  0  0  0
   20.7424   -6.9007  -15.6941 C   0  0  0  0  0  0  0  0  0  0  0  0
   19.7141   -6.0915  -15.8433 O   0  0  0  0  0  0  0  0  0  0  0  0
   22.1335   -5.1109  -12.7638 C   0  0  0  0  0  0  0  0  0  0  0  0
   21.4552   -5.1454  -14.0827 C   0  0  2  0  0  0  0  0  0  0  0  0
   21.7152   -6.3719  -14.8520 N   0  0  0  0  0  0  0  0  0  0  0  0
   21.9218   -3.9774  -14.9056 C   0  0  0  0  0  0  0  0  0  0  0  0
   21.6989   -2.8103  -14.4844 O   0  0  0  0  0  0  0  0  0  0  0  0
   22.5876   -4.1264  -16.1109 O   0  0  0  0  0  0  0  0  0  0  0  0
  2  1  1  0
  2  3  2  0
  4  2  1  0
  5  4  1  0
  5  6  1  1
  5  7  1  0
  7  8  2  0
  9  7  1  0
  9 13  1  0
 10 11  1  0
 10  9  1  0
 11 12  1  0
 13 12  1  0
 13 14  1  1
 14 15  2  0
 14 18  1  0
 17 16  1  1
 17 19  1  0
 18 17  1  0
 19 21  1  0
 20 19  2  0
M  END
$$$$
