NPA.pdb
     RDKit          3D

 21 21  0  0  1  0  0  0  0  0999 V2000
   16.9346  -23.0076  -12.0500 N   0  0  0  0  0  0  0  0  0  0  0  0
   15.6514  -23.2305  -11.4851 C   0  0  0  0  0  0  0  0  0  0  0  0
   14.7249  -22.4729  -11.8590 O   0  0  0  0  0  0  0  0  0  0  0  0
   15.4615  -24.3228  -10.5001 C   0  0  0  0  0  0  0  0  0  0  0  0
   16.7761  -25.0624  -10.2783 C   0  0  2  0  0  0  0  0  0  0  0  0
   16.9646  -25.9231  -11.4622 N   0  0  0  0  0  0  0  0  0  0  0  0
   16.7282  -25.8880   -9.0476 C   0  0  0  0  0  0  0  0  0  0  0  0
   15.8417  -26.7646   -9.0305 O   0  0  0  0  0  0  0  0  0  0  0  0
   17.5910  -25.7360   -7.9566 N   0  0  0  0  0  0  0  0  0  0  0  0
   19.0360  -25.4047   -8.2514 C   0  0  0  0  0  0  0  0  0  0  0  0
   19.2309  -24.2037   -7.3713 C   0  0  0  0  0  0  0  0  0  0  0  0
   18.1493  -24.3146   -6.3021 C   0  0  0  0  0  0  0  0  0  0  0  0
   17.6636  -25.7725   -6.5748 C   0  0  1  0  0  0  0  0  0  0  0  0
   16.6904  -26.0728   -5.6015 C   0  0  0  0  0  0  0  0  0  0  0  0
   15.6141  -25.3245   -5.7282 O   0  0  0  0  0  0  0  0  0  0  0  0
   15.3516  -28.1446   -2.7516 C   0  0  0  0  0  0  0  0  0  0  0  0
   15.3853  -27.0044   -3.7001 C   0  0  2  0  0  0  0  0  0  0  0  0
   16.5927  -26.9660   -4.5395 N   0  0  0  0  0  0  0  0  0  0  0  0
   15.3218  -25.7185   -2.9247 C   0  0  0  0  0  0  0  0  0  0  0  0
   16.3915  -25.0889   -2.7043 O   0  0  0  0  0  0  0  0  0  0  0  0
   14.1362  -25.1925   -2.4388 O   0  0  0  0  0  0  0  0  0  0  0  0
  2  1  1  0
  2  3  2  0
  4  2  1  0
  5  4  1  0
  5  6  1  6
  5  7  1  0
  7  8  2  0
  9  7  1  0
  9 13  1  0
 10 11  1  0
 10  9  1  0
 11 12  1  0
 13 12  1  0
 13 14  1  1
 14 15  2  0
 14 18  1  0
 17 16  1  1
 17 19  1  0
 18 17  1  0
 19 21  1  0
 20 19  2  0
M  END
$$$$
