NPA.pdb
     RDKit          3D

 21 21  0  0  1  0  0  0  0  0999 V2000
   26.5303  -13.5231  -20.7633 N   0  0  0  0  0  0  0  0  0  0  0  0
   25.3501  -13.9667  -20.1106 C   0  0  0  0  0  0  0  0  0  0  0  0
   25.0286  -15.1681  -20.2694 O   0  0  0  0  0  0  0  0  0  0  0  0
   24.5638  -13.0162  -19.2874 C   0  0  0  0  0  0  0  0  0  0  0  0
   24.9792  -13.1224  -17.8244 C   0  0  2  0  0  0  0  0  0  0  0  0
   24.6675  -14.5045  -17.4111 N   0  0  0  0  0  0  0  0  0  0  0  0
   24.2345  -12.1560  -16.9819 C   0  0  0  0  0  0  0  0  0  0  0  0
   22.9996  -12.3240  -16.9463 O   0  0  0  0  0  0  0  0  0  0  0  0
   24.8256  -11.1137  -16.2593 N   0  0  0  0  0  0  0  0  0  0  0  0
   26.1475  -11.3964  -15.5829 C   0  0  0  0  0  0  0  0  0  0  0  0
   26.9725  -10.2512  -16.0953 C   0  0  0  0  0  0  0  0  0  0  0  0
   25.9619   -9.1857  -16.5060 C   0  0  0  0  0  0  0  0  0  0  0  0
   24.6719   -9.7937  -15.8721 C   0  0  1  0  0  0  0  0  0  0  0  0
   23.6278   -8.8753  -16.0981 C   0  0  0  0  0  0  0  0  0  0  0  0
   23.5276   -8.5403  -17.3679 O   0  0  0  0  0  0  0  0  0  0  0  0
   20.3833   -7.3443  -15.0704 C   0  0  0  0  0  0  0  0  0  0  0  0
   21.5973   -7.4504  -15.9165 C   0  0  2  0  0  0  0  0  0  0  0  0
   22.6800   -8.2365  -15.3052 N   0  0  0  0  0  0  0  0  0  0  0  0
   22.1272   -6.0709  -16.1902 C   0  0  0  0  0  0  0  0  0  0  0  0
   21.3928   -5.2487  -16.8018 O   0  0  0  0  0  0  0  0  0  0  0  0
   23.3913   -5.6609  -15.7998 O   0  0  0  0  0  0  0  0  0  0  0  0
  2  1  1  0
  2  3  2  0
  4  2  1  0
  5  4  1  0
  5  6  1  1
  5  7  1  0
  7  8  2  0
  9  7  1  0
  9 13  1  0
 10 11  1  0
 10  9  1  0
 11 12  1  0
 13 12  1  0
 13 14  1  6
 14 15  2  0
 14 18  1  0
 17 16  1  1
 17 19  1  0
 18 17  1  0
 19 21  1  0
 20 19  2  0
M  END
$$$$
