NPA.pdb
     RDKit          3D

 21 21  0  0  1  0  0  0  0  0999 V2000
   25.1462  -14.3221  -17.1844 N   0  0  0  0  0  0  0  0  0  0  0  0
   25.6918  -13.3679  -16.2859 C   0  0  0  0  0  0  0  0  0  0  0  0
   26.6881  -13.7237  -15.6130 O   0  0  0  0  0  0  0  0  0  0  0  0
   25.0780  -12.0220  -16.1810 C   0  0  0  0  0  0  0  0  0  0  0  0
   23.7934  -11.9669  -17.0004 C   0  0  2  0  0  0  0  0  0  0  0  0
   24.1794  -12.2947  -18.3866 N   0  0  0  0  0  0  0  0  0  0  0  0
   23.1775  -10.6193  -16.9457 C   0  0  0  0  0  0  0  0  0  0  0  0
   23.7494   -9.7460  -17.6274 O   0  0  0  0  0  0  0  0  0  0  0  0
   22.0381  -10.2978  -16.1998 N   0  0  0  0  0  0  0  0  0  0  0  0
   20.9685  -11.3578  -16.0689 C   0  0  0  0  0  0  0  0  0  0  0  0
   20.7856  -11.3856  -14.5787 C   0  0  0  0  0  0  0  0  0  0  0  0
   21.2967  -10.0345  -14.0902 C   0  0  0  0  0  0  0  0  0  0  0  0
   21.4316   -9.2978  -15.4594 C   0  0  1  0  0  0  0  0  0  0  0  0
   21.8323   -7.9764  -15.1802 C   0  0  0  0  0  0  0  0  0  0  0  0
   23.0388   -7.9241  -14.6546 O   0  0  0  0  0  0  0  0  0  0  0  0
   21.4792   -4.2735  -15.6600 C   0  0  0  0  0  0  0  0  0  0  0  0
   22.0461   -5.5017  -15.0510 C   0  0  2  0  0  0  0  0  0  0  0  0
   21.2615   -6.7158  -15.3234 N   0  0  0  0  0  0  0  0  0  0  0  0
   22.1168   -5.3232  -13.5604 C   0  0  0  0  0  0  0  0  0  0  0  0
   21.3395   -5.9960  -12.8307 O   0  0  0  0  0  0  0  0  0  0  0  0
   23.0007   -4.4487  -12.9501 O   0  0  0  0  0  0  0  0  0  0  0  0
  2  1  1  0
  2  3  2  0
  4  2  1  0
  5  4  1  0
  5  6  1  6
  5  7  1  0
  7  8  2  0
  9  7  1  0
  9 13  1  0
 10 11  1  0
 10  9  1  0
 11 12  1  0
 13 12  1  0
 13 14  1  1
 14 15  2  0
 14 18  1  0
 17 16  1  6
 17 19  1  0
 18 17  1  0
 19 21  1  0
 20 19  2  0
M  END
$$$$
