NPA.pdb
     RDKit          3D

 21 21  0  0  1  0  0  0  0  0999 V2000
   14.4839  -11.8902  -14.7525 N   0  0  0  0  0  0  0  0  0  0  0  0
   15.2966  -11.2433  -15.7203 C   0  0  0  0  0  0  0  0  0  0  0  0
   14.9072  -11.2857  -16.9114 O   0  0  0  0  0  0  0  0  0  0  0  0
   16.5424  -10.5599  -15.2957 C   0  0  0  0  0  0  0  0  0  0  0  0
   17.6467  -10.8007  -16.3190 C   0  0  2  0  0  0  0  0  0  0  0  0
   17.9783  -12.2361  -16.2311 N   0  0  0  0  0  0  0  0  0  0  0  0
   18.8448   -9.9794  -16.0213 C   0  0  0  0  0  0  0  0  0  0  0  0
   19.3803  -10.2022  -14.9177 O   0  0  0  0  0  0  0  0  0  0  0  0
   19.3767   -9.0120  -16.8810 N   0  0  0  0  0  0  0  0  0  0  0  0
   19.4796   -9.3636  -18.3475 C   0  0  0  0  0  0  0  0  0  0  0  0
   18.7926   -8.1802  -18.9659 C   0  0  0  0  0  0  0  0  0  0  0  0
   18.8836   -7.0756  -17.9185 C   0  0  0  0  0  0  0  0  0  0  0  0
   19.9028   -7.7329  -16.9363 C   0  0  1  0  0  0  0  0  0  0  0  0
   20.1643   -6.7919  -15.9210 C   0  0  0  0  0  0  0  0  0  0  0  0
   19.0581   -6.2846  -15.4176 O   0  0  0  0  0  0  0  0  0  0  0  0
   22.4244   -5.3786  -13.3033 C   0  0  0  0  0  0  0  0  0  0  0  0
   21.2041   -5.3929  -14.1468 C   0  0  2  0  0  0  0  0  0  0  0  0
   21.3068   -6.2686  -15.3243 N   0  0  0  0  0  0  0  0  0  0  0  0
   20.9265   -3.9980  -14.6325 C   0  0  0  0  0  0  0  0  0  0  0  0
   21.2002   -3.7055  -15.8278 O   0  0  0  0  0  0  0  0  0  0  0  0
   20.3817   -3.0154  -13.8224 O   0  0  0  0  0  0  0  0  0  0  0  0
  2  1  1  0
  2  3  2  0
  4  2  1  0
  5  4  1  0
  5  6  1  1
  5  7  1  0
  7  8  2  0
  9  7  1  0
  9 13  1  0
 10 11  1  0
 10  9  1  0
 11 12  1  0
 13 12  1  0
 13 14  1  1
 14 15  2  0
 14 18  1  0
 17 16  1  6
 17 19  1  0
 18 17  1  0
 19 21  1  0
 20 19  2  0
M  END
$$$$
