GLS.pdb
     RDKit          3D

 19 18  0  0  1  0  0  0  0  0999 V2000
   20.0132  -11.7798  -18.6667 N   0  0  0  0  0  0  0  0  0  0  0  0
   21.0506  -10.8325  -19.0230 C   0  0  0  0  0  0  0  0  0  0  0  0
   21.5783  -10.2267  -17.7646 C   0  0  0  0  0  0  0  0  0  0  0  0
   20.8669  -10.2179  -16.7148 O   0  0  0  0  0  0  0  0  0  0  0  0
   26.9005  -10.4682  -15.9392 C   0  0  0  0  0  0  0  0  0  0  0  0
   25.3613  -10.5563  -15.9700 C   0  0  1  0  0  0  0  0  0  0  0  0
   24.9392  -11.1913  -14.7138 C   0  0  0  0  0  0  0  0  0  0  0  0
   24.8724   -9.2267  -16.3187 C   0  0  0  0  0  0  0  0  0  0  0  0
   23.4317   -8.9925  -16.5496 C   0  0  2  0  0  0  0  0  0  0  0  0
   22.8772   -9.6511  -17.7127 N   0  0  0  0  0  0  0  0  0  0  0  0
   23.0109   -7.5867  -16.4792 C   0  0  0  0  0  0  0  0  0  0  0  0
   23.1562   -6.8659  -17.4963 O   0  0  0  0  0  0  0  0  0  0  0  0
   19.7601   -6.2691  -14.9347 O   0  0  0  0  0  0  0  0  0  0  0  0
   20.5385   -5.4747  -15.7742 C   0  0  0  0  0  0  0  0  0  0  0  0
   21.9737   -5.5882  -15.3310 C   0  0  2  0  0  0  0  0  0  0  0  0
   22.4445   -6.9605  -15.3426 N   0  0  0  0  0  0  0  0  0  0  0  0
   22.1531   -4.9965  -13.9886 C   0  0  0  0  0  0  0  0  0  0  0  0
   21.8778   -3.6676  -13.7402 O   0  0  0  0  0  0  0  0  0  0  0  0
   22.5643   -5.7131  -13.0508 O   0  0  0  0  0  0  0  0  0  0  0  0
  2  1  1  0
  2  3  1  0
  3 10  1  0
  3  4  2  0
  6  8  1  0
  6  5  1  1
  7  6  1  0
  9  8  1  6
 10  9  1  0
 11  9  1  0
 11 16  1  0
 12 11  2  0
 13 14  1  0
 15 14  1  1
 15 16  1  0
 17 15  1  0
 18 17  1  0
 19 17  2  0
M  END
$$$$
