GLS.pdb
     RDKit          3D

 19 18  0  0  1  0  0  0  0  0999 V2000
   20.8719  -13.3810  -18.7806 N   0  0  0  0  0  0  0  0  0  0  0  0
   22.2697  -12.9991  -18.8122 C   0  0  0  0  0  0  0  0  0  0  0  0
   22.5478  -12.1557  -17.6121 C   0  0  0  0  0  0  0  0  0  0  0  0
   21.9945  -12.4238  -16.5030 O   0  0  0  0  0  0  0  0  0  0  0  0
   27.4740   -9.7544  -16.4323 C   0  0  0  0  0  0  0  0  0  0  0  0
   26.1742  -10.5729  -16.2963 C   0  0  1  0  0  0  0  0  0  0  0  0
   26.2817  -11.3520  -15.0549 C   0  0  0  0  0  0  0  0  0  0  0  0
   25.0693   -9.6383  -16.4808 C   0  0  0  0  0  0  0  0  0  0  0  0
   23.6797  -10.1295  -16.5884 C   0  0  2  0  0  0  0  0  0  0  0  0
   23.4302  -11.0432  -17.6825 N   0  0  0  0  0  0  0  0  0  0  0  0
   22.6447   -9.0895  -16.5131 C   0  0  0  0  0  0  0  0  0  0  0  0
   22.3326   -8.4774  -17.5634 O   0  0  0  0  0  0  0  0  0  0  0  0
   19.3965   -9.1380  -14.2836 O   0  0  0  0  0  0  0  0  0  0  0  0
   19.9688   -7.8736  -14.1596 C   0  0  0  0  0  0  0  0  0  0  0  0
   20.9324   -7.6798  -15.3011 C   0  0  2  0  0  0  0  0  0  0  0  0
   21.9544   -8.7091  -15.3369 N   0  0  0  0  0  0  0  0  0  0  0  0
   21.5555   -6.3413  -15.2358 C   0  0  0  0  0  0  0  0  0  0  0  0
   20.7974   -5.1886  -15.2368 O   0  0  0  0  0  0  0  0  0  0  0  0
   22.8003   -6.2448  -15.1782 O   0  0  0  0  0  0  0  0  0  0  0  0
  2  1  1  0
  2  3  1  0
  3 10  1  0
  3  4  2  0
  6  8  1  0
  6  5  1  1
  7  6  1  0
  9  8  1  6
 10  9  1  0
 11  9  1  0
 11 16  1  0
 12 11  2  0
 13 14  1  0
 15 14  1  1
 15 16  1  0
 17 15  1  0
 18 17  1  0
 19 17  2  0
M  END
$$$$
