GLS.pdb
     RDKit          3D

 19 18  0  0  1  0  0  0  0  0999 V2000
   21.7763  -12.0380  -19.0772 N   0  0  0  0  0  0  0  0  0  0  0  0
   20.9111  -11.7474  -17.9514 C   0  0  0  0  0  0  0  0  0  0  0  0
   21.6989  -10.9711  -16.9486 C   0  0  0  0  0  0  0  0  0  0  0  0
   21.1564  -10.5933  -15.8665 O   0  0  0  0  0  0  0  0  0  0  0  0
   25.0819  -12.4366  -15.7030 C   0  0  0  0  0  0  0  0  0  0  0  0
   25.9099  -11.1550  -15.4794 C   0  0  1  0  0  0  0  0  0  0  0  0
   27.3245  -11.5216  -15.6347 C   0  0  0  0  0  0  0  0  0  0  0  0
   25.3233  -10.1237  -16.3283 C   0  0  0  0  0  0  0  0  0  0  0  0
   23.8725   -9.8468  -16.2806 C   0  0  2  0  0  0  0  0  0  0  0  0
   23.0621  -10.6399  -17.1797 N   0  0  0  0  0  0  0  0  0  0  0  0
   23.5082   -8.4249  -16.3453 C   0  0  0  0  0  0  0  0  0  0  0  0
   23.5550   -7.8441  -17.4569 O   0  0  0  0  0  0  0  0  0  0  0  0
   20.7652   -5.0429  -16.3051 O   0  0  0  0  0  0  0  0  0  0  0  0
   21.2439   -6.3473  -16.2002 C   0  0  0  0  0  0  0  0  0  0  0  0
   22.5014   -6.3212  -15.3713 C   0  0  2  0  0  0  0  0  0  0  0  0
   23.1009   -7.6361  -15.2423 N   0  0  0  0  0  0  0  0  0  0  0  0
   22.2338   -5.7470  -14.0360 C   0  0  0  0  0  0  0  0  0  0  0  0
   21.9834   -6.5473  -12.9404 O   0  0  0  0  0  0  0  0  0  0  0  0
   22.2330   -4.5058  -13.8895 O   0  0  0  0  0  0  0  0  0  0  0  0
  2  1  1  0
  2  3  1  0
  3 10  1  0
  3  4  2  0
  6  8  1  0
  6  5  1  6
  7  6  1  0
  9  8  1  6
 10  9  1  0
 11  9  1  0
 11 16  1  0
 12 11  2  0
 13 14  1  0
 15 14  1  6
 15 16  1  0
 17 15  1  0
 18 17  1  0
 19 17  2  0
M  END
$$$$
