GLS.pdb
     RDKit          3D

 19 18  0  0  1  0  0  0  0  0999 V2000
   27.4240  -21.4112  -14.5944 N   0  0  0  0  0  0  0  0  0  0  0  0
   27.2857  -20.4113  -13.5545 C   0  0  0  0  0  0  0  0  0  0  0  0
   26.5838  -21.0399  -12.3964 C   0  0  0  0  0  0  0  0  0  0  0  0
   26.1410  -22.2247  -12.4867 O   0  0  0  0  0  0  0  0  0  0  0  0
   27.2727  -19.0534   -7.1342 C   0  0  0  0  0  0  0  0  0  0  0  0
   27.3181  -19.9223   -8.4074 C   0  0  1  0  0  0  0  0  0  0  0  0
   28.2777  -21.0067   -8.1567 C   0  0  0  0  0  0  0  0  0  0  0  0
   25.9351  -20.2335   -8.7518 C   0  0  0  0  0  0  0  0  0  0  0  0
   25.6014  -20.8158  -10.0685 C   0  0  2  0  0  0  0  0  0  0  0  0
   26.3967  -20.3333  -11.1769 N   0  0  0  0  0  0  0  0  0  0  0  0
   24.1702  -20.8240  -10.4003 C   0  0  0  0  0  0  0  0  0  0  0  0
   23.3582  -21.2458   -9.5413 O   0  0  0  0  0  0  0  0  0  0  0  0
   20.4410  -19.1143  -12.8972 O   0  0  0  0  0  0  0  0  0  0  0  0
   21.8250  -19.1259  -12.7355 C   0  0  0  0  0  0  0  0  0  0  0  0
   22.1888  -20.3143  -11.8843 C   0  0  2  0  0  0  0  0  0  0  0  0
   23.6149  -20.3895  -11.6281 N   0  0  0  0  0  0  0  0  0  0  0  0
   21.7135  -21.5672  -12.5078 C   0  0  0  0  0  0  0  0  0  0  0  0
   20.3752  -21.9013  -12.5331 O   0  0  0  0  0  0  0  0  0  0  0  0
   22.5403  -22.3477  -13.0268 O   0  0  0  0  0  0  0  0  0  0  0  0
  2  1  1  0
  2  3  1  0
  3 10  1  0
  3  4  2  0
  6  8  1  0
  6  5  1  1
  7  6  1  0
  9  8  1  1
 10  9  1  0
 11  9  1  0
 11 16  1  0
 12 11  2  0
 13 14  1  0
 15 14  1  6
 15 16  1  0
 17 15  1  0
 18 17  1  0
 19 17  2  0
M  END
$$$$
