GLS.pdb
     RDKit          3D

 19 18  0  0  1  0  0  0  0  0999 V2000
   27.8756  -21.6090  -15.8184 N   0  0  0  0  0  0  0  0  0  0  0  0
   27.3631  -20.5625  -14.9567 C   0  0  0  0  0  0  0  0  0  0  0  0
   26.2159  -21.1201  -14.1808 C   0  0  0  0  0  0  0  0  0  0  0  0
   25.6878  -22.2200  -14.5264 O   0  0  0  0  0  0  0  0  0  0  0  0
   25.5063  -20.1727   -8.6311 C   0  0  0  0  0  0  0  0  0  0  0  0
   25.7785  -20.7907  -10.0174 C   0  0  1  0  0  0  0  0  0  0  0  0
   26.2242  -22.1732   -9.7946 C   0  0  0  0  0  0  0  0  0  0  0  0
   24.5992  -20.5242  -10.8339 C   0  0  0  0  0  0  0  0  0  0  0  0
   24.5716  -20.9061  -12.2612 C   0  0  2  0  0  0  0  0  0  0  0  0
   25.6929  -20.4391  -13.0477 N   0  0  0  0  0  0  0  0  0  0  0  0
   23.2964  -20.6573  -12.9471 C   0  0  0  0  0  0  0  0  0  0  0  0
   23.0491  -19.4944  -13.3494 O   0  0  0  0  0  0  0  0  0  0  0  0
   20.7979  -23.6694  -14.3245 O   0  0  0  0  0  0  0  0  0  0  0  0
   20.8047  -22.4354  -14.9718 C   0  0  0  0  0  0  0  0  0  0  0  0
   21.0866  -21.3684  -13.9466 C   0  0  2  0  0  0  0  0  0  0  0  0
   22.3018  -21.6329  -13.1994 N   0  0  0  0  0  0  0  0  0  0  0  0
   19.9415  -21.2157  -13.0248 C   0  0  0  0  0  0  0  0  0  0  0  0
   20.0876  -21.3509  -11.6596 O   0  0  0  0  0  0  0  0  0  0  0  0
   18.8097  -20.9575  -13.4879 O   0  0  0  0  0  0  0  0  0  0  0  0
  2  1  1  0
  2  3  1  0
  3 10  1  0
  3  4  2  0
  6  8  1  0
  6  5  1  1
  7  6  1  0
  9  8  1  1
 10  9  1  0
 11  9  1  0
 11 16  1  0
 12 11  2  0
 13 14  1  0
 15 14  1  6
 15 16  1  0
 17 15  1  0
 18 17  1  0
 19 17  2  0
M  END
$$$$
