GLS.pdb
     RDKit          3D

 19 18  0  0  1  0  0  0  0  0999 V2000
   16.7973   -9.4472  -10.3379 N   0  0  0  0  0  0  0  0  0  0  0  0
   16.8413   -9.2335  -11.7707 C   0  0  0  0  0  0  0  0  0  0  0  0
   18.0831   -8.4679  -12.0880 C   0  0  0  0  0  0  0  0  0  0  0  0
   18.5401   -7.6236  -11.2595 O   0  0  0  0  0  0  0  0  0  0  0  0
   22.7283  -10.4154  -14.5200 C   0  0  0  0  0  0  0  0  0  0  0  0
   21.8195   -9.6487  -13.5380 C   0  0  1  0  0  0  0  0  0  0  0  0
   22.6794   -9.1400  -12.4604 C   0  0  0  0  0  0  0  0  0  0  0  0
   21.0239   -8.7240  -14.3382 C   0  0  0  0  0  0  0  0  0  0  0  0
   19.9517   -7.9211  -13.7141 C   0  0  2  0  0  0  0  0  0  0  0  0
   18.7765   -8.6644  -13.3136 N   0  0  0  0  0  0  0  0  0  0  0  0
   19.5886   -6.6967  -14.4404 C   0  0  0  0  0  0  0  0  0  0  0  0
   20.4864   -5.8528  -14.6791 O   0  0  0  0  0  0  0  0  0  0  0  0
   15.9634   -6.2496  -16.2723 O   0  0  0  0  0  0  0  0  0  0  0  0
   17.0065   -5.4911  -16.8000 C   0  0  0  0  0  0  0  0  0  0  0  0
   17.9826   -5.1982  -15.6907 C   0  0  2  0  0  0  0  0  0  0  0  0
   18.2893   -6.3781  -14.9041 N   0  0  0  0  0  0  0  0  0  0  0  0
   17.4723   -4.1196  -14.8186 C   0  0  0  0  0  0  0  0  0  0  0  0
   17.2497   -2.8451  -15.2977 O   0  0  0  0  0  0  0  0  0  0  0  0
   17.2346   -4.3622  -13.6158 O   0  0  0  0  0  0  0  0  0  0  0  0
  2  1  1  0
  2  3  1  0
  3 10  1  0
  3  4  2  0
  6  8  1  0
  6  5  1  6
  7  6  1  0
  9  8  1  6
 10  9  1  0
 11  9  1  0
 11 16  1  0
 12 11  2  0
 13 14  1  0
 15 14  1  6
 15 16  1  0
 17 15  1  0
 18 17  1  0
 19 17  2  0
M  END
$$$$
