GLS.pdb
     RDKit          3D

 19 18  0  0  1  0  0  0  0  0999 V2000
   16.5481  -10.8892  -16.3063 N   0  0  0  0  0  0  0  0  0  0  0  0
   17.7356  -10.2056  -16.7785 C   0  0  0  0  0  0  0  0  0  0  0  0
   18.2466   -9.3441  -15.6714 C   0  0  0  0  0  0  0  0  0  0  0  0
   17.4446   -8.8700  -14.8111 O   0  0  0  0  0  0  0  0  0  0  0  0
   22.8633   -9.9404  -12.5450 C   0  0  0  0  0  0  0  0  0  0  0  0
   21.3973   -9.6259  -12.9056 C   0  0  1  0  0  0  0  0  0  0  0  0
   20.6806   -9.3986  -11.6430 C   0  0  0  0  0  0  0  0  0  0  0  0
   21.4311   -8.5840  -13.9262 C   0  0  0  0  0  0  0  0  0  0  0  0
   20.1846   -8.1280  -14.5760 C   0  0  2  0  0  0  0  0  0  0  0  0
   19.6300   -9.0373  -15.5556 N   0  0  0  0  0  0  0  0  0  0  0  0
   20.2158   -6.7493  -15.0829 C   0  0  0  0  0  0  0  0  0  0  0  0
   20.7465   -6.5331  -16.1995 O   0  0  0  0  0  0  0  0  0  0  0  0
   17.4459   -3.9902  -14.9657 O   0  0  0  0  0  0  0  0  0  0  0  0
   18.6174   -3.4131  -14.4796 C   0  0  0  0  0  0  0  0  0  0  0  0
   19.7789   -4.2653  -14.9198 C   0  0  2  0  0  0  0  0  0  0  0  0
   19.6894   -5.6205  -14.4096 N   0  0  0  0  0  0  0  0  0  0  0  0
   21.0601   -3.6493  -14.5156 C   0  0  0  0  0  0  0  0  0  0  0  0
   21.4248   -2.3893  -14.9433 O   0  0  0  0  0  0  0  0  0  0  0  0
   21.8370   -4.2810  -13.7675 O   0  0  0  0  0  0  0  0  0  0  0  0
  2  1  1  0
  2  3  1  0
  3 10  1  0
  3  4  2  0
  6  8  1  0
  6  5  1  1
  7  6  1  0
  9  8  1  6
 10  9  1  0
 11  9  1  0
 11 16  1  0
 12 11  2  0
 13 14  1  0
 15 14  1  1
 15 16  1  0
 17 15  1  0
 18 17  1  0
 19 17  2  0
M  END
$$$$
