GLS.pdb
     RDKit          3D

 19 18  0  0  1  0  0  0  0  0999 V2000
   25.0132  -11.4915  -15.4923 N   0  0  0  0  0  0  0  0  0  0  0  0
   23.7304  -11.3743  -14.8280 C   0  0  0  0  0  0  0  0  0  0  0  0
   23.0015  -10.2172  -15.4269 C   0  0  0  0  0  0  0  0  0  0  0  0
   23.5305   -9.5476  -16.3650 O   0  0  0  0  0  0  0  0  0  0  0  0
   17.8557  -10.4145  -17.1414 C   0  0  0  0  0  0  0  0  0  0  0  0
   19.3562  -10.0605  -17.1082 C   0  0  1  0  0  0  0  0  0  0  0  0
   19.7255   -9.6155  -18.4592 C   0  0  0  0  0  0  0  0  0  0  0  0
   19.5524   -9.1741  -15.9662 C   0  0  0  0  0  0  0  0  0  0  0  0
   20.9134   -8.7817  -15.5447 C   0  0  2  0  0  0  0  0  0  0  0  0
   21.7103   -9.8415  -14.9652 N   0  0  0  0  0  0  0  0  0  0  0  0
   20.9857   -7.5558  -14.7383 C   0  0  0  0  0  0  0  0  0  0  0  0
   20.7491   -7.6328  -13.5081 O   0  0  0  0  0  0  0  0  0  0  0  0
   23.5669   -4.5958  -14.7919 O   0  0  0  0  0  0  0  0  0  0  0  0
   22.2916   -4.0459  -14.9061 C   0  0  0  0  0  0  0  0  0  0  0  0
   21.2946   -5.0670  -14.4242 C   0  0  2  0  0  0  0  0  0  0  0  0
   21.3049   -6.2694  -15.2362 N   0  0  0  0  0  0  0  0  0  0  0  0
   19.9351   -4.4888  -14.3822 C   0  0  0  0  0  0  0  0  0  0  0  0
   19.5524   -3.6094  -13.3906 O   0  0  0  0  0  0  0  0  0  0  0  0
   19.1069   -4.8009  -15.2648 O   0  0  0  0  0  0  0  0  0  0  0  0
  2  1  1  0
  2  3  1  0
  3 10  1  0
  3  4  2  0
  6  8  1  0
  6  5  1  6
  7  6  1  0
  9  8  1  1
 10  9  1  0
 11  9  1  0
 11 16  1  0
 12 11  2  0
 13 14  1  0
 15 14  1  6
 15 16  1  0
 17 15  1  0
 18 17  1  0
 19 17  2  0
M  END
$$$$
