GLS.pdb
     RDKit          3D

 19 18  0  0  1  0  0  0  0  0999 V2000
   22.9869  -11.7343  -16.8366 N   0  0  0  0  0  0  0  0  0  0  0  0
   22.9129  -10.5316  -16.0312 C   0  0  0  0  0  0  0  0  0  0  0  0
   21.6178   -9.8516  -16.3302 C   0  0  0  0  0  0  0  0  0  0  0  0
   21.2852   -9.6142  -17.5307 O   0  0  0  0  0  0  0  0  0  0  0  0
   16.8240  -11.3712  -14.3954 C   0  0  0  0  0  0  0  0  0  0  0  0
   17.8978  -10.8528  -15.3733 C   0  0  1  0  0  0  0  0  0  0  0  0
   17.3602  -11.0147  -16.7313 C   0  0  0  0  0  0  0  0  0  0  0  0
   18.2967   -9.5331  -14.8963 C   0  0  0  0  0  0  0  0  0  0  0  0
   19.4481   -8.8317  -15.5016 C   0  0  2  0  0  0  0  0  0  0  0  0
   20.7351   -9.4578  -15.2876 N   0  0  0  0  0  0  0  0  0  0  0  0
   19.5052   -7.3874  -15.2382 C   0  0  0  0  0  0  0  0  0  0  0  0
   20.0709   -6.9912  -14.1902 O   0  0  0  0  0  0  0  0  0  0  0  0
   19.9337   -4.5401  -17.9243 O   0  0  0  0  0  0  0  0  0  0  0  0
   18.9463   -4.1218  -17.0345 C   0  0  0  0  0  0  0  0  0  0  0  0
   19.0482   -4.9636  -15.7895 C   0  0  2  0  0  0  0  0  0  0  0  0
   18.9676   -6.3830  -16.0789 N   0  0  0  0  0  0  0  0  0  0  0  0
   18.0065   -4.5797  -14.8139 C   0  0  0  0  0  0  0  0  0  0  0  0
   17.9336   -3.3026  -14.2971 O   0  0  0  0  0  0  0  0  0  0  0  0
   17.1677   -5.4292  -14.4440 O   0  0  0  0  0  0  0  0  0  0  0  0
  2  1  1  0
  2  3  1  0
  3 10  1  0
  3  4  2  0
  6  8  1  0
  6  5  1  1
  7  6  1  0
  9  8  1  1
 10  9  1  0
 11  9  1  0
 11 16  1  0
 12 11  2  0
 13 14  1  0
 15 14  1  6
 15 16  1  0
 17 15  1  0
 18 17  1  0
 19 17  2  0
M  END
$$$$
