GLS.pdb
     RDKit          3D

 19 18  0  0  1  0  0  0  0  0999 V2000
   22.6616  -12.2270  -17.9017 N   0  0  0  0  0  0  0  0  0  0  0  0
   22.3188  -11.1798  -18.8431 C   0  0  0  0  0  0  0  0  0  0  0  0
   21.6244  -10.0910  -18.0939 C   0  0  0  0  0  0  0  0  0  0  0  0
   21.3144   -9.0109  -18.6815 O   0  0  0  0  0  0  0  0  0  0  0  0
   17.6418  -10.9134  -14.1148 C   0  0  0  0  0  0  0  0  0  0  0  0
   18.3382  -10.3820  -15.3839 C   0  0  1  0  0  0  0  0  0  0  0  0
   17.3628   -9.5419  -16.0928 C   0  0  0  0  0  0  0  0  0  0  0  0
   19.6150   -9.8201  -14.9571 C   0  0  0  0  0  0  0  0  0  0  0  0
   20.5581   -9.2600  -15.9475 C   0  0  2  0  0  0  0  0  0  0  0  0
   21.2973  -10.2368  -16.7180 N   0  0  0  0  0  0  0  0  0  0  0  0
   21.4406   -8.2021  -15.4371 C   0  0  0  0  0  0  0  0  0  0  0  0
   22.4348   -8.5324  -14.7458 O   0  0  0  0  0  0  0  0  0  0  0  0
   23.2662   -3.7647  -15.7160 O   0  0  0  0  0  0  0  0  0  0  0  0
   22.3611   -4.6927  -16.2273 C   0  0  0  0  0  0  0  0  0  0  0  0
   22.2085   -5.8038  -15.2217 C   0  0  2  0  0  0  0  0  0  0  0  0
   21.2652   -6.8150  -15.6605 N   0  0  0  0  0  0  0  0  0  0  0  0
   21.8061   -5.2643  -13.9059 C   0  0  0  0  0  0  0  0  0  0  0  0
   20.4917   -4.9576  -13.6201 O   0  0  0  0  0  0  0  0  0  0  0  0
   22.6741   -5.0791  -13.0259 O   0  0  0  0  0  0  0  0  0  0  0  0
  2  1  1  0
  2  3  1  0
  3 10  1  0
  3  4  2  0
  6  8  1  0
  6  5  1  1
  7  6  1  0
  9  8  1  1
 10  9  1  0
 11  9  1  0
 11 16  1  0
 12 11  2  0
 13 14  1  0
 15 14  1  6
 15 16  1  0
 17 15  1  0
 18 17  1  0
 19 17  2  0
M  END
$$$$
