GLS.pdb
     RDKit          3D

 19 18  0  0  1  0  0  0  0  0999 V2000
   34.8796  -39.2885   -6.6653 N   0  0  0  0  0  0  0  0  0  0  0  0
   33.5485  -38.7166   -6.6244 C   0  0  0  0  0  0  0  0  0  0  0  0
   33.5368  -37.6413   -5.5887 C   0  0  0  0  0  0  0  0  0  0  0  0
   34.5470  -37.4642   -4.8429 O   0  0  0  0  0  0  0  0  0  0  0  0
   31.2523  -32.6676   -6.4615 C   0  0  0  0  0  0  0  0  0  0  0  0
   32.2524  -33.7851   -6.1022 C   0  0  1  0  0  0  0  0  0  0  0  0
   33.5847  -33.1684   -6.0370 C   0  0  0  0  0  0  0  0  0  0  0  0
   31.7079  -34.4765   -4.9388 C   0  0  0  0  0  0  0  0  0  0  0  0
   32.3285  -35.7247   -4.4480 C   0  0  2  0  0  0  0  0  0  0  0  0
   32.4050  -36.7985   -5.4151 N   0  0  0  0  0  0  0  0  0  0  0  0
   31.8224  -36.2043   -3.1548 C   0  0  0  0  0  0  0  0  0  0  0  0
   30.9721  -37.1275   -3.1490 O   0  0  0  0  0  0  0  0  0  0  0  0
   33.8266  -36.5647    0.3876 O   0  0  0  0  0  0  0  0  0  0  0  0
   32.6267  -35.8697    0.5258 C   0  0  0  0  0  0  0  0  0  0  0  0
   31.7334  -36.2398   -0.6292 C   0  0  2  0  0  0  0  0  0  0  0  0
   32.2169  -35.7072   -1.8892 N   0  0  0  0  0  0  0  0  0  0  0  0
   30.3475  -35.7906   -0.3811 C   0  0  0  0  0  0  0  0  0  0  0  0
   29.6351  -36.2145    0.7217 O   0  0  0  0  0  0  0  0  0  0  0  0
   29.8017  -35.0067   -1.1873 O   0  0  0  0  0  0  0  0  0  0  0  0
  2  1  1  0
  2  3  1  0
  3 10  1  0
  3  4  2  0
  6  8  1  0
  6  5  1  1
  7  6  1  0
  9  8  1  6
 10  9  1  0
 11  9  1  0
 11 16  1  0
 12 11  2  0
 13 14  1  0
 15 14  1  1
 15 16  1  0
 17 15  1  0
 18 17  1  0
 19 17  2  0
M  END
$$$$
