GLS.pdb
     RDKit          3D

 19 18  0  0  1  0  0  0  0  0999 V2000
   18.9169  -12.2922  -19.0505 N   0  0  0  0  0  0  0  0  0  0  0  0
   19.6411  -11.0392  -19.1280 C   0  0  0  0  0  0  0  0  0  0  0  0
   20.1731  -10.7255  -17.7687 C   0  0  0  0  0  0  0  0  0  0  0  0
   19.3760  -10.5361  -16.8009 O   0  0  0  0  0  0  0  0  0  0  0  0
   24.4767  -13.0356  -15.1632 C   0  0  0  0  0  0  0  0  0  0  0  0
   23.0919  -12.4655  -15.5310 C   0  0  1  0  0  0  0  0  0  0  0  0
   22.1526  -12.9062  -14.4902 C   0  0  0  0  0  0  0  0  0  0  0  0
   23.2804  -11.0427  -15.7922 C   0  0  0  0  0  0  0  0  0  0  0  0
   22.1572  -10.2119  -16.2741 C   0  0  2  0  0  0  0  0  0  0  0  0
   21.5713  -10.6325  -17.5286 N   0  0  0  0  0  0  0  0  0  0  0  0
   22.4028   -8.7635  -16.2572 C   0  0  0  0  0  0  0  0  0  0  0  0
   22.8343   -8.2165  -17.3011 O   0  0  0  0  0  0  0  0  0  0  0  0
   21.3834   -4.5229  -16.2239 O   0  0  0  0  0  0  0  0  0  0  0  0
   21.2491   -5.9097  -16.2055 C   0  0  0  0  0  0  0  0  0  0  0  0
   22.2422   -6.4650  -15.2183 C   0  0  2  0  0  0  0  0  0  0  0  0
   22.1916   -7.9131  -15.1450 N   0  0  0  0  0  0  0  0  0  0  0  0
   22.0308   -5.8766  -13.8792 C   0  0  0  0  0  0  0  0  0  0  0  0
   22.4587   -4.6013  -13.5727 O   0  0  0  0  0  0  0  0  0  0  0  0
   21.4502   -6.5464  -12.9981 O   0  0  0  0  0  0  0  0  0  0  0  0
  2  1  1  0
  2  3  1  0
  3 10  1  0
  3  4  2  0
  6  8  1  0
  6  5  1  1
  7  6  1  0
  9  8  1  6
 10  9  1  0
 11  9  1  0
 11 16  1  0
 12 11  2  0
 13 14  1  0
 15 14  1  6
 15 16  1  0
 17 15  1  0
 18 17  1  0
 19 17  2  0
M  END
$$$$
