GLS.pdb
     RDKit          3D

 19 18  0  0  1  0  0  0  0  0999 V2000
   16.3429  -11.6758  -12.6646 N   0  0  0  0  0  0  0  0  0  0  0  0
   17.2195  -10.5273  -12.5505 C   0  0  0  0  0  0  0  0  0  0  0  0
   16.4070   -9.3685  -12.0751 C   0  0  0  0  0  0  0  0  0  0  0  0
   15.5859   -8.8024  -12.8582 O   0  0  0  0  0  0  0  0  0  0  0  0
   13.4322   -6.8462   -8.4424 C   0  0  0  0  0  0  0  0  0  0  0  0
   14.9201   -6.6496   -8.0882 C   0  0  1  0  0  0  0  0  0  0  0  0
   14.9994   -6.4861   -6.6299 C   0  0  0  0  0  0  0  0  0  0  0  0
   15.6530   -7.7264   -8.7451 C   0  0  0  0  0  0  0  0  0  0  0  0
   15.7816   -7.7589  -10.2170 C   0  0  2  0  0  0  0  0  0  0  0  0
   16.5325   -8.8766  -10.7471 N   0  0  0  0  0  0  0  0  0  0  0  0
   16.2004   -6.4926  -10.8329 C   0  0  0  0  0  0  0  0  0  0  0  0
   17.3903   -6.1205  -10.6886 O   0  0  0  0  0  0  0  0  0  0  0  0
   15.8069   -3.1074  -14.1810 O   0  0  0  0  0  0  0  0  0  0  0  0
   15.2977   -4.2854  -13.6380 C   0  0  0  0  0  0  0  0  0  0  0  0
   15.8262   -4.4226  -12.2341 C   0  0  2  0  0  0  0  0  0  0  0  0
   15.3635   -5.6376  -11.5901 N   0  0  0  0  0  0  0  0  0  0  0  0
   15.4625   -3.2422  -11.4225 C   0  0  0  0  0  0  0  0  0  0  0  0
   14.4553   -3.2930  -10.4810 O   0  0  0  0  0  0  0  0  0  0  0  0
   16.0796   -2.1681  -11.5888 O   0  0  0  0  0  0  0  0  0  0  0  0
  2  1  1  0
  2  3  1  0
  3 10  1  0
  3  4  2  0
  6  8  1  0
  6  5  1  1
  7  6  1  0
  9  8  1  1
 10  9  1  0
 11  9  1  0
 11 16  1  0
 12 11  2  0
 13 14  1  0
 15 14  1  6
 15 16  1  0
 17 15  1  0
 18 17  1  0
 19 17  2  0
M  END
$$$$
