GLS.pdb
     RDKit          3D

 19 18  0  0  1  0  0  0  0  0999 V2000
   21.6696  -21.5353   -6.6807 N   0  0  0  0  0  0  0  0  0  0  0  0
   22.8670  -22.2299   -7.1101 C   0  0  0  0  0  0  0  0  0  0  0  0
   23.6829  -21.2855   -7.9295 C   0  0  0  0  0  0  0  0  0  0  0  0
   23.1134  -20.4575   -8.7030 O   0  0  0  0  0  0  0  0  0  0  0  0
   26.4713  -19.2857   -6.2360 C   0  0  0  0  0  0  0  0  0  0  0  0
   27.5187  -19.1430   -7.3588 C   0  0  1  0  0  0  0  0  0  0  0  0
   28.8230  -18.9466   -6.7109 C   0  0  0  0  0  0  0  0  0  0  0  0
   27.3143  -20.2656   -8.2677 C   0  0  0  0  0  0  0  0  0  0  0  0
   25.9651  -20.5795   -8.7825 C   0  0  2  0  0  0  0  0  0  0  0  0
   25.1031  -21.2911   -7.8635 N   0  0  0  0  0  0  0  0  0  0  0  0
   25.9353  -21.1842  -10.1212 C   0  0  0  0  0  0  0  0  0  0  0  0
   26.2399  -22.3961  -10.2384 O   0  0  0  0  0  0  0  0  0  0  0  0
   24.5817  -19.1652  -13.4658 O   0  0  0  0  0  0  0  0  0  0  0  0
   24.4142  -20.5486  -13.4713 C   0  0  0  0  0  0  0  0  0  0  0  0
   25.4897  -21.1557  -12.6089 C   0  0  2  0  0  0  0  0  0  0  0  0
   25.5863  -20.5071  -11.3147 N   0  0  0  0  0  0  0  0  0  0  0  0
   26.7956  -21.1174  -13.2999 C   0  0  0  0  0  0  0  0  0  0  0  0
   27.8797  -20.4540  -12.7633 O   0  0  0  0  0  0  0  0  0  0  0  0
   26.9271  -21.6989  -14.3984 O   0  0  0  0  0  0  0  0  0  0  0  0
  2  1  1  0
  2  3  1  0
  3 10  1  0
  3  4  2  0
  6  8  1  0
  6  5  1  1
  7  6  1  0
  9  8  1  1
 10  9  1  0
 11  9  1  0
 11 16  1  0
 12 11  2  0
 13 14  1  0
 15 14  1  6
 15 16  1  0
 17 15  1  0
 18 17  1  0
 19 17  2  0
M  END
$$$$
