GLS.pdb
     RDKit          3D

 19 18  0  0  1  0  0  0  0  0999 V2000
   20.9442  -12.3077  -19.2380 N   0  0  0  0  0  0  0  0  0  0  0  0
   21.2276  -10.8997  -19.4319 C   0  0  0  0  0  0  0  0  0  0  0  0
   21.6877  -10.3350  -18.1286 C   0  0  0  0  0  0  0  0  0  0  0  0
   20.8925  -10.2787  -17.1425 O   0  0  0  0  0  0  0  0  0  0  0  0
   24.6340  -11.7949  -15.8547 C   0  0  0  0  0  0  0  0  0  0  0  0
   25.3050  -10.4688  -15.4431 C   0  0  1  0  0  0  0  0  0  0  0  0
   26.7223  -10.7622  -15.1885 C   0  0  0  0  0  0  0  0  0  0  0  0
   24.9311   -9.4802  -16.4486 C   0  0  0  0  0  0  0  0  0  0  0  0
   23.5089   -9.2230  -16.7570 C   0  0  2  0  0  0  0  0  0  0  0  0
   23.0146   -9.8517  -17.9629 N   0  0  0  0  0  0  0  0  0  0  0  0
   23.1014   -7.8134  -16.6828 C   0  0  0  0  0  0  0  0  0  0  0  0
   23.2143   -7.1019  -17.7106 O   0  0  0  0  0  0  0  0  0  0  0  0
   19.9251   -6.4206  -15.1033 O   0  0  0  0  0  0  0  0  0  0  0  0
   20.7166   -5.6296  -15.9337 C   0  0  0  0  0  0  0  0  0  0  0  0
   22.1520   -5.7884  -15.5055 C   0  0  2  0  0  0  0  0  0  0  0  0
   22.5822   -7.1738  -15.5313 N   0  0  0  0  0  0  0  0  0  0  0  0
   22.3617   -5.2118  -14.1609 C   0  0  0  0  0  0  0  0  0  0  0  0
   22.1623   -3.8701  -13.9090 O   0  0  0  0  0  0  0  0  0  0  0  0
   22.7289   -5.9536  -13.2244 O   0  0  0  0  0  0  0  0  0  0  0  0
  2  1  1  0
  2  3  1  0
  3 10  1  0
  3  4  2  0
  6  8  1  0
  6  5  1  6
  7  6  1  0
  9  8  1  6
 10  9  1  0
 11  9  1  0
 11 16  1  0
 12 11  2  0
 13 14  1  0
 15 14  1  1
 15 16  1  0
 17 15  1  0
 18 17  1  0
 19 17  2  0
M  END
$$$$
