SWF.pdb
     RDKit          3D

 32 34  0  0  1  0  0  0  0  0999 V2000
    9.7936  -20.0112   22.5249 O   0  0  0  0  0  0  0  0  0  0  0  0
    8.4734  -19.7068   22.7702 C   0  0  0  0  0  0  0  0  0  0  0  0
    8.0419  -18.5132   21.9847 C   0  0  2  0  0  0  0  0  0  0  0  0
    8.1709  -18.6414   20.5686 N   0  0  0  0  0  0  0  0  0  0  0  0
    8.8648  -17.3444   22.4404 C   0  0  0  0  0  0  0  0  0  0  0  0
    9.7263  -16.9157   21.6380 O   0  0  0  0  0  0  0  0  0  0  0  0
    8.6653  -16.7784   23.6983 N   0  0  0  0  0  0  0  0  0  0  0  0
    9.4674  -15.6045   24.0933 C   0  0  1  0  0  0  0  0  0  0  0  0
    8.8992  -15.1099   25.3693 C   0  0  0  0  0  0  0  0  0  0  0  0
    7.4884  -14.7466   25.3899 C   0  0  0  0  0  0  0  0  0  0  0  0
    6.3791  -15.5643   25.3753 C   0  0  0  0  0  0  0  0  0  0  0  0
    5.2626  -14.8142   25.3785 N   0  0  0  0  0  0  0  0  0  0  0  0
    5.6419  -13.5186   25.3951 C   0  0  0  0  0  0  0  0  0  0  0  0
    4.8931  -12.3608   25.4063 C   0  0  0  0  0  0  0  0  0  0  0  0
    5.4950  -11.1294   25.4248 C   0  0  0  0  0  0  0  0  0  0  0  0
    6.8739  -11.0438   25.4323 C   0  0  0  0  0  0  0  0  0  0  0  0
    7.6126  -12.2016   25.4211 C   0  0  0  0  0  0  0  0  0  0  0  0
    7.0032  -13.4569   25.4023 C   0  0  0  0  0  0  0  0  0  0  0  0
   10.8531  -16.1113   24.2856 C   0  0  0  0  0  0  0  0  0  0  0  0
   11.8250  -15.5765   23.6320 O   0  0  0  0  0  0  0  0  0  0  0  0
   11.1994  -17.1690   25.1652 N   0  0  0  0  0  0  0  0  0  0  0  0
   12.6170  -17.3672   25.4912 C   0  0  1  0  0  0  0  0  0  0  0  0
   13.0905  -16.1399   26.2864 C   0  0  0  0  0  0  0  0  0  0  0  0
   12.1040  -15.8461   27.3363 C   0  0  0  0  0  0  0  0  0  0  0  0
   11.9315  -16.7209   28.4131 C   0  0  0  0  0  0  0  0  0  0  0  0
   11.0423  -16.4554   29.4252 C   0  0  0  0  0  0  0  0  0  0  0  0
   10.2785  -15.3042   29.4168 C   0  0  0  0  0  0  0  0  0  0  0  0
   10.4468  -14.4303   28.3467 C   0  0  0  0  0  0  0  0  0  0  0  0
   11.3369  -14.6960   27.3341 C   0  0  0  0  0  0  0  0  0  0  0  0
   12.8277  -18.5513   26.3362 C   0  0  0  0  0  0  0  0  0  0  0  0
   13.9618  -18.8929   26.7180 O   0  0  0  0  0  0  0  0  0  0  0  0
   11.7453  -19.3086   26.7213 O   0  0  0  0  0  0  0  0  0  0  0  0
  1  2  1  0
  3  2  1  0
  3  4  1  6
  5  6  2  0
  5  3  1  0
  7  5  1  0
  8  7  1  0
  8  9  1  1
 10  9  1  0
 11 10  2  0
 12 13  1  0
 12 11  1  0
 13 18  2  0
 14 13  1  0
 14 15  2  0
 15 16  1  0
 16 17  2  0
 18 10  1  0
 18 17  1  0
 19  8  1  0
 19 21  1  0
 20 19  2  0
 22 21  1  0
 22 30  1  0
 22 23  1  1
 24 23  1  0
 25 24  2  0
 26 25  1  0
 27 26  2  0
 27 28  1  0
 28 29  2  0
 29 24  1  0
 30 31  2  0
 30 32  1  0
M  END
$$$$
