SWF.pdb
     RDKit          3D

 32 34  0  0  1  0  0  0  0  0999 V2000
   10.3367  -20.0918   22.0212 O   0  0  0  0  0  0  0  0  0  0  0  0
   10.6434  -19.7252   20.7299 C   0  0  0  0  0  0  0  0  0  0  0  0
    9.8432  -18.5398   20.3031 C   0  0  2  0  0  0  0  0  0  0  0  0
   10.0262  -18.1434   18.9437 N   0  0  0  0  0  0  0  0  0  0  0  0
   10.2155  -17.3921   21.1948 C   0  0  0  0  0  0  0  0  0  0  0  0
   11.2082  -16.7101   20.8494 O   0  0  0  0  0  0  0  0  0  0  0  0
    9.4805  -17.1152   22.3461 N   0  0  0  0  0  0  0  0  0  0  0  0
    9.9305  -16.0335   23.2430 C   0  0  1  0  0  0  0  0  0  0  0  0
    8.7090  -15.3904   23.7815 C   0  0  0  0  0  0  0  0  0  0  0  0
    7.7806  -14.7917   22.8315 C   0  0  0  0  0  0  0  0  0  0  0  0
    6.4150  -14.6346   22.9306 C   0  0  0  0  0  0  0  0  0  0  0  0
    5.9430  -14.0528   21.8135 N   0  0  0  0  0  0  0  0  0  0  0  0
    6.9929  -13.8327   20.9937 C   0  0  0  0  0  0  0  0  0  0  0  0
    7.0522  -13.2647   19.7386 C   0  0  0  0  0  0  0  0  0  0  0  0
    8.2453  -13.1362   19.0761 C   0  0  0  0  0  0  0  0  0  0  0  0
    9.4088  -13.5822   19.6730 C   0  0  0  0  0  0  0  0  0  0  0  0
    9.3413  -14.1468   20.9231 C   0  0  0  0  0  0  0  0  0  0  0  0
    8.1284  -14.2791   21.6006 C   0  0  0  0  0  0  0  0  0  0  0  0
   10.7031  -16.7034   24.3239 C   0  0  0  0  0  0  0  0  0  0  0  0
   10.5569  -17.9668   24.5243 O   0  0  0  0  0  0  0  0  0  0  0  0
   11.6222  -16.0383   25.1756 N   0  0  0  0  0  0  0  0  0  0  0  0
   11.8537  -16.5902   26.5160 C   0  0  1  0  0  0  0  0  0  0  0  0
   10.4929  -16.6858   27.2244 C   0  0  0  0  0  0  0  0  0  0  0  0
    9.9783  -15.3267   27.4474 C   0  0  0  0  0  0  0  0  0  0  0  0
    8.6264  -15.0367   27.2405 C   0  0  0  0  0  0  0  0  0  0  0  0
    8.1113  -13.7854   27.4733 C   0  0  0  0  0  0  0  0  0  0  0  0
    8.9169  -12.7576   27.9246 C   0  0  0  0  0  0  0  0  0  0  0  0
   10.2636  -13.0415   28.1320 C   0  0  0  0  0  0  0  0  0  0  0  0
   10.7787  -14.2940   27.8991 C   0  0  0  0  0  0  0  0  0  0  0  0
   12.4224  -17.9445   26.4636 C   0  0  0  0  0  0  0  0  0  0  0  0
   12.5980  -18.5424   25.3864 O   0  0  0  0  0  0  0  0  0  0  0  0
   12.7743  -18.5761   27.6344 O   0  0  0  0  0  0  0  0  0  0  0  0
  1  2  1  0
  3  2  1  0
  3  4  1  6
  5  6  2  0
  5  3  1  0
  7  5  1  0
  8  7  1  0
  8  9  1  1
 10  9  1  0
 11 10  2  0
 12 13  1  0
 12 11  1  0
 13 18  2  0
 14 13  1  0
 14 15  2  0
 15 16  1  0
 16 17  2  0
 18 10  1  0
 18 17  1  0
 19  8  1  0
 19 21  1  0
 20 19  2  0
 22 21  1  0
 22 30  1  0
 22 23  1  6
 24 23  1  0
 25 24  2  0
 26 25  1  0
 27 26  2  0
 27 28  1  0
 28 29  2  0
 29 24  1  0
 30 31  2  0
 30 32  1  0
M  END
$$$$
