SWF.pdb
     RDKit          3D

 32 34  0  0  1  0  0  0  0  0999 V2000
    7.8204  -19.4314   25.5303 O   0  0  0  0  0  0  0  0  0  0  0  0
    6.7806  -19.5607   24.6370 C   0  0  0  0  0  0  0  0  0  0  0  0
    7.2447  -19.3383   23.2359 C   0  0  2  0  0  0  0  0  0  0  0  0
    7.7766  -20.4917   22.5839 N   0  0  0  0  0  0  0  0  0  0  0  0
    8.2999  -18.2723   23.2679 C   0  0  0  0  0  0  0  0  0  0  0  0
    9.4801  -18.6427   23.0684 O   0  0  0  0  0  0  0  0  0  0  0  0
    7.9632  -16.9417   23.5097 N   0  0  0  0  0  0  0  0  0  0  0  0
    9.0127  -15.9081   23.4246 C   0  0  1  0  0  0  0  0  0  0  0  0
    8.3286  -14.6302   23.1169 C   0  0  0  0  0  0  0  0  0  0  0  0
    7.6160  -14.5283   21.8502 C   0  0  0  0  0  0  0  0  0  0  0  0
    6.3555  -14.9789   21.5222 C   0  0  0  0  0  0  0  0  0  0  0  0
    6.0948  -14.6989   20.2327 N   0  0  0  0  0  0  0  0  0  0  0  0
    7.1769  -14.0710   19.7252 C   0  0  0  0  0  0  0  0  0  0  0  0
    7.4210  -13.5764   18.4614 C   0  0  0  0  0  0  0  0  0  0  0  0
    8.6091  -12.9632   18.1592 C   0  0  0  0  0  0  0  0  0  0  0  0
    9.5795  -12.8371   19.1346 C   0  0  0  0  0  0  0  0  0  0  0  0
    9.3287  -13.3323   20.3908 C   0  0  0  0  0  0  0  0  0  0  0  0
    8.1203  -13.9572   20.7020 C   0  0  0  0  0  0  0  0  0  0  0  0
    9.6447  -15.8658   24.7710 C   0  0  0  0  0  0  0  0  0  0  0  0
   10.7539  -15.2332   24.9361 O   0  0  0  0  0  0  0  0  0  0  0  0
    9.1004  -16.4837   25.9261 N   0  0  0  0  0  0  0  0  0  0  0  0
    9.8170  -16.3342   27.1986 C   0  0  1  0  0  0  0  0  0  0  0  0
    8.8306  -15.7569   28.2264 C   0  0  0  0  0  0  0  0  0  0  0  0
    8.4051  -14.4230   27.7774 C   0  0  0  0  0  0  0  0  0  0  0  0
    7.1388  -14.2333   27.2165 C   0  0  0  0  0  0  0  0  0  0  0  0
    6.7018  -12.9935   26.8198 C   0  0  0  0  0  0  0  0  0  0  0  0
    7.5045  -11.8779   26.9615 C   0  0  0  0  0  0  0  0  0  0  0  0
    8.7662  -12.0619   27.5194 C   0  0  0  0  0  0  0  0  0  0  0  0
    9.2031  -13.3027   27.9165 C   0  0  0  0  0  0  0  0  0  0  0  0
   10.2934  -17.6243   27.7175 C   0  0  0  0  0  0  0  0  0  0  0  0
   10.0683  -18.6948   27.1243 O   0  0  0  0  0  0  0  0  0  0  0  0
   11.0105  -17.6579   28.8914 O   0  0  0  0  0  0  0  0  0  0  0  0
  1  2  1  0
  3  2  1  0
  3  4  1  1
  5  6  2  0
  5  3  1  0
  7  5  1  0
  8  7  1  0
  8  9  1  1
 10  9  1  0
 11 10  2  0
 12 13  1  0
 12 11  1  0
 13 18  2  0
 14 13  1  0
 14 15  2  0
 15 16  1  0
 16 17  2  0
 18 10  1  0
 18 17  1  0
 19  8  1  0
 19 21  1  0
 20 19  2  0
 22 21  1  0
 22 30  1  0
 22 23  1  1
 24 23  1  0
 25 24  2  0
 26 25  1  0
 27 26  2  0
 27 28  1  0
 28 29  2  0
 29 24  1  0
 30 31  2  0
 30 32  1  0
M  END
$$$$
