SWF.pdb
     RDKit          3D

 32 34  0  0  1  0  0  0  0  0999 V2000
   11.5319  -19.1022   18.3481 O   0  0  0  0  0  0  0  0  0  0  0  0
   11.3023  -18.3841   19.5003 C   0  0  0  0  0  0  0  0  0  0  0  0
   10.1135  -17.4939   19.3511 C   0  0  2  0  0  0  0  0  0  0  0  0
   10.1978  -16.5443   18.2883 N   0  0  0  0  0  0  0  0  0  0  0  0
    9.9302  -16.7558   20.6444 C   0  0  0  0  0  0  0  0  0  0  0  0
   10.6287  -15.7289   20.8101 O   0  0  0  0  0  0  0  0  0  0  0  0
    9.0229  -17.2070   21.6012 N   0  0  0  0  0  0  0  0  0  0  0  0
    8.8740  -16.4542   22.8614 C   0  0  1  0  0  0  0  0  0  0  0  0
    7.5610  -16.8351   23.4329 C   0  0  0  0  0  0  0  0  0  0  0  0
    7.0346  -16.0272   24.5251 C   0  0  0  0  0  0  0  0  0  0  0  0
    6.1730  -16.3889   25.5381 C   0  0  0  0  0  0  0  0  0  0  0  0
    5.9236  -15.3254   26.3230 N   0  0  0  0  0  0  0  0  0  0  0  0
    6.6173  -14.2796   25.8250 C   0  0  0  0  0  0  0  0  0  0  0  0
    6.7085  -12.9726   26.2546 C   0  0  0  0  0  0  0  0  0  0  0  0
    7.4866  -12.0618   25.5884 C   0  0  0  0  0  0  0  0  0  0  0  0
    8.1920  -12.4568   24.4680 C   0  0  0  0  0  0  0  0  0  0  0  0
    8.0960  -13.7604   24.0466 C   0  0  0  0  0  0  0  0  0  0  0  0
    7.3048  -14.6904   24.7224 C   0  0  0  0  0  0  0  0  0  0  0  0
    9.9896  -16.9087   23.7349 C   0  0  0  0  0  0  0  0  0  0  0  0
   10.4028  -18.1259   23.6614 O   0  0  0  0  0  0  0  0  0  0  0  0
   10.6589  -16.0774   24.6694 N   0  0  0  0  0  0  0  0  0  0  0  0
   11.7141  -16.6718   25.4990 C   0  0  1  0  0  0  0  0  0  0  0  0
   12.3574  -15.5419   26.3188 C   0  0  0  0  0  0  0  0  0  0  0  0
   11.3291  -14.9335   27.1756 C   0  0  0  0  0  0  0  0  0  0  0  0
   10.5078  -13.9144   26.6843 C   0  0  0  0  0  0  0  0  0  0  0  0
    9.5170  -13.3515   27.4503 C   0  0  0  0  0  0  0  0  0  0  0  0
    9.2931  -13.7749   28.7462 C   0  0  0  0  0  0  0  0  0  0  0  0
   10.1083  -14.7892   29.2398 C   0  0  0  0  0  0  0  0  0  0  0  0
   11.0996  -15.3526   28.4729 C   0  0  0  0  0  0  0  0  0  0  0  0
   11.1788  -17.6586   26.4478 C   0  0  0  0  0  0  0  0  0  0  0  0
   11.9226  -18.3448   27.1721 O   0  0  0  0  0  0  0  0  0  0  0  0
    9.8175  -17.8341   26.5449 O   0  0  0  0  0  0  0  0  0  0  0  0
  1  2  1  0
  3  2  1  0
  3  4  1  6
  5  6  2  0
  5  3  1  0
  7  5  1  0
  8  7  1  0
  8  9  1  1
 10  9  1  0
 11 10  2  0
 12 13  1  0
 12 11  1  0
 13 18  2  0
 14 13  1  0
 14 15  2  0
 15 16  1  0
 16 17  2  0
 18 10  1  0
 18 17  1  0
 19  8  1  0
 19 21  1  0
 20 19  2  0
 22 21  1  0
 22 30  1  0
 22 23  1  1
 24 23  1  0
 25 24  2  0
 26 25  1  0
 27 26  2  0
 27 28  1  0
 28 29  2  0
 29 24  1  0
 30 31  2  0
 30 32  1  0
M  END
$$$$
