SWF.pdb
     RDKit          3D

 32 34  0  0  1  0  0  0  0  0999 V2000
   13.6071  -18.2912   22.0018 O   0  0  0  0  0  0  0  0  0  0  0  0
   12.4488  -18.9786   21.7163 C   0  0  0  0  0  0  0  0  0  0  0  0
   11.5081  -18.1389   20.9178 C   0  0  2  0  0  0  0  0  0  0  0  0
   12.0643  -17.5643   19.7350 N   0  0  0  0  0  0  0  0  0  0  0  0
   11.0158  -17.0341   21.8055 C   0  0  0  0  0  0  0  0  0  0  0  0
   11.5627  -15.9153   21.6674 O   0  0  0  0  0  0  0  0  0  0  0  0
    9.9997  -17.2619   22.7317 N   0  0  0  0  0  0  0  0  0  0  0  0
    9.4388  -16.1196   23.4784 C   0  0  1  0  0  0  0  0  0  0  0  0
    7.9647  -16.2643   23.4349 C   0  0  0  0  0  0  0  0  0  0  0  0
    7.2787  -15.8704   22.2115 C   0  0  0  0  0  0  0  0  0  0  0  0
    6.3226  -16.5536   21.4914 C   0  0  0  0  0  0  0  0  0  0  0  0
    5.9728  -15.8375   20.4079 N   0  0  0  0  0  0  0  0  0  0  0  0
    6.6955  -14.6972   20.4223 C   0  0  0  0  0  0  0  0  0  0  0  0
    6.7148  -13.6319   19.5470 C   0  0  0  0  0  0  0  0  0  0  0  0
    7.5391  -12.5574   19.7587 C   0  0  0  0  0  0  0  0  0  0  0  0
    8.3652  -12.5388   20.8661 C   0  0  0  0  0  0  0  0  0  0  0  0
    8.3401  -13.6036   21.7331 C   0  0  0  0  0  0  0  0  0  0  0  0
    7.5020  -14.6991   21.5207 C   0  0  0  0  0  0  0  0  0  0  0  0
    9.9491  -16.2594   24.8691 C   0  0  0  0  0  0  0  0  0  0  0  0
   10.4368  -17.3850   25.2601 O   0  0  0  0  0  0  0  0  0  0  0  0
    9.9449  -15.2139   25.8280 N   0  0  0  0  0  0  0  0  0  0  0  0
   10.6128  -15.4466   27.1144 C   0  0  1  0  0  0  0  0  0  0  0  0
   10.5251  -14.1462   27.9293 C   0  0  0  0  0  0  0  0  0  0  0  0
    9.1716  -13.5894   27.7889 C   0  0  0  0  0  0  0  0  0  0  0  0
    8.8174  -12.8639   26.6476 C   0  0  0  0  0  0  0  0  0  0  0  0
    7.5514  -12.3615   26.4740 C   0  0  0  0  0  0  0  0  0  0  0  0
    6.5722  -12.5559   27.4291 C   0  0  0  0  0  0  0  0  0  0  0  0
    6.9202  -13.2775   28.5672 C   0  0  0  0  0  0  0  0  0  0  0  0
    8.1872  -13.7804   28.7405 C   0  0  0  0  0  0  0  0  0  0  0  0
    9.9534  -16.5038   27.8942 C   0  0  0  0  0  0  0  0  0  0  0  0
    8.9324  -17.0843   27.4827 O   0  0  0  0  0  0  0  0  0  0  0  0
   10.4742  -16.8688   29.1144 O   0  0  0  0  0  0  0  0  0  0  0  0
  1  2  1  0
  3  2  1  0
  3  4  1  6
  5  6  2  0
  5  3  1  0
  7  5  1  0
  8  7  1  0
  8  9  1  1
 10  9  1  0
 11 10  2  0
 12 13  1  0
 12 11  1  0
 13 18  2  0
 14 13  1  0
 14 15  2  0
 15 16  1  0
 16 17  2  0
 18 10  1  0
 18 17  1  0
 19  8  1  0
 19 21  1  0
 20 19  2  0
 22 21  1  0
 22 30  1  0
 22 23  1  1
 24 23  1  0
 25 24  2  0
 26 25  1  0
 27 26  2  0
 27 28  1  0
 28 29  2  0
 29 24  1  0
 30 31  2  0
 30 32  1  0
M  END
$$$$
