SWF.pdb
     RDKit          3D

 32 34  0  0  1  0  0  0  0  0999 V2000
   12.3140  -18.5390   20.0301 O   0  0  0  0  0  0  0  0  0  0  0  0
   11.0917  -18.4316   19.4052 C   0  0  0  0  0  0  0  0  0  0  0  0
   10.7200  -17.0017   19.1932 C   0  0  2  0  0  0  0  0  0  0  0  0
   11.7056  -16.2123   18.5269 N   0  0  0  0  0  0  0  0  0  0  0  0
   10.4457  -16.3966   20.5384 C   0  0  0  0  0  0  0  0  0  0  0  0
   11.3243  -15.6330   21.0017 O   0  0  0  0  0  0  0  0  0  0  0  0
    9.2657  -16.6830   21.2225 N   0  0  0  0  0  0  0  0  0  0  0  0
    9.0549  -16.1060   22.5641 C   0  0  1  0  0  0  0  0  0  0  0  0
    7.6125  -15.7826   22.6672 C   0  0  0  0  0  0  0  0  0  0  0  0
    7.1086  -15.3252   23.9554 C   0  0  0  0  0  0  0  0  0  0  0  0
    6.5314  -16.0544   24.9726 C   0  0  0  0  0  0  0  0  0  0  0  0
    6.1850  -15.2328   25.9797 N   0  0  0  0  0  0  0  0  0  0  0  0
    6.5338  -13.9787   25.6210 C   0  0  0  0  0  0  0  0  0  0  0  0
    6.4005  -12.7805   26.2902 C   0  0  0  0  0  0  0  0  0  0  0  0
    6.8325  -11.6061   25.7306 C   0  0  0  0  0  0  0  0  0  0  0  0
    7.4112  -11.6202   24.4760 C   0  0  0  0  0  0  0  0  0  0  0  0
    7.5404  -12.8176   23.8162 C   0  0  0  0  0  0  0  0  0  0  0  0
    7.1017  -14.0152   24.3828 C   0  0  0  0  0  0  0  0  0  0  0  0
    9.4330  -17.1768   23.5256 C   0  0  0  0  0  0  0  0  0  0  0  0
    8.5413  -18.0093   23.9373 O   0  0  0  0  0  0  0  0  0  0  0  0
   10.7432  -17.3615   24.0372 N   0  0  0  0  0  0  0  0  0  0  0  0
   11.1663  -16.5422   25.1795 C   0  0  1  0  0  0  0  0  0  0  0  0
   10.0026  -15.6048   25.5397 C   0  0  0  0  0  0  0  0  0  0  0  0
   10.1935  -15.1190   26.9142 C   0  0  0  0  0  0  0  0  0  0  0  0
   10.3153  -13.7506   27.1731 C   0  0  0  0  0  0  0  0  0  0  0  0
   10.4603  -13.2662   28.4497 C   0  0  0  0  0  0  0  0  0  0  0  0
   10.4915  -14.1204   29.5351 C   0  0  0  0  0  0  0  0  0  0  0  0
   10.3707  -15.4838   29.2823 C   0  0  0  0  0  0  0  0  0  0  0  0
   10.2254  -15.9683   28.0047 C   0  0  0  0  0  0  0  0  0  0  0  0
   11.4603  -17.3598   26.3650 C   0  0  0  0  0  0  0  0  0  0  0  0
   12.2003  -16.9510   27.2783 O   0  0  0  0  0  0  0  0  0  0  0  0
   10.9047  -18.6137   26.4765 O   0  0  0  0  0  0  0  0  0  0  0  0
  1  2  1  0
  3  2  1  0
  3  4  1  1
  5  6  2  0
  5  3  1  0
  7  5  1  0
  8  7  1  0
  8  9  1  6
 10  9  1  0
 11 10  2  0
 12 13  1  0
 12 11  1  0
 13 18  2  0
 14 13  1  0
 14 15  2  0
 15 16  1  0
 16 17  2  0
 18 10  1  0
 18 17  1  0
 19  8  1  0
 19 21  1  0
 20 19  2  0
 22 21  1  0
 22 30  1  0
 22 23  1  1
 24 23  1  0
 25 24  2  0
 26 25  1  0
 27 26  2  0
 27 28  1  0
 28 29  2  0
 29 24  1  0
 30 31  2  0
 30 32  1  0
M  END
$$$$
