SWF.pdb
     RDKit          3D

 32 34  0  0  1  0  0  0  0  0999 V2000
    8.6778  -20.1927   20.0355 O   0  0  0  0  0  0  0  0  0  0  0  0
    7.5388  -19.4829   20.3430 C   0  0  0  0  0  0  0  0  0  0  0  0
    7.5469  -18.1425   19.6863 C   0  0  2  0  0  0  0  0  0  0  0  0
    7.8226  -18.1562   18.2856 N   0  0  0  0  0  0  0  0  0  0  0  0
    8.5829  -17.3031   20.3740 C   0  0  0  0  0  0  0  0  0  0  0  0
    9.7014  -17.2203   19.8155 O   0  0  0  0  0  0  0  0  0  0  0  0
    8.2953  -16.6559   21.5744 N   0  0  0  0  0  0  0  0  0  0  0  0
    9.3569  -15.8814   22.2454 C   0  0  1  0  0  0  0  0  0  0  0  0
    8.7123  -14.6698   22.8040 C   0  0  0  0  0  0  0  0  0  0  0  0
    7.7805  -14.8441   23.9104 C   0  0  0  0  0  0  0  0  0  0  0  0
    7.1770  -15.9961   24.3665 C   0  0  0  0  0  0  0  0  0  0  0  0
    6.3656  -15.7051   25.3990 N   0  0  0  0  0  0  0  0  0  0  0  0
    6.4402  -14.3742   25.6135 C   0  0  0  0  0  0  0  0  0  0  0  0
    5.8123  -13.5754   26.5457 C   0  0  0  0  0  0  0  0  0  0  0  0
    6.0387  -12.2241   26.5864 C   0  0  0  0  0  0  0  0  0  0  0  0
    6.9095  -11.6504   25.6801 C   0  0  0  0  0  0  0  0  0  0  0  0
    7.5310  -12.4528   24.7549 C   0  0  0  0  0  0  0  0  0  0  0  0
    7.3029  -13.8289   24.7105 C   0  0  0  0  0  0  0  0  0  0  0  0
    9.8718  -16.7613   23.3292 C   0  0  0  0  0  0  0  0  0  0  0  0
    9.1091  -17.6690   23.8313 O   0  0  0  0  0  0  0  0  0  0  0  0
   11.1820  -16.6792   23.8669 N   0  0  0  0  0  0  0  0  0  0  0  0
   11.3350  -16.2681   25.2678 C   0  0  1  0  0  0  0  0  0  0  0  0
   10.3229  -15.1434   25.5388 C   0  0  0  0  0  0  0  0  0  0  0  0
   10.3879  -14.7803   26.9621 C   0  0  0  0  0  0  0  0  0  0  0  0
   10.9640  -15.6516   27.8913 C   0  0  0  0  0  0  0  0  0  0  0  0
   11.0689  -15.3246   29.2208 C   0  0  0  0  0  0  0  0  0  0  0  0
   10.6050  -14.1121   29.6936 C   0  0  0  0  0  0  0  0  0  0  0  0
   10.0306  -13.2414   28.7721 C   0  0  0  0  0  0  0  0  0  0  0  0
    9.9259  -13.5688   27.4416 C   0  0  0  0  0  0  0  0  0  0  0  0
   11.0382  -17.3655   26.1995 C   0  0  0  0  0  0  0  0  0  0  0  0
   11.7339  -17.5764   27.2096 O   0  0  0  0  0  0  0  0  0  0  0  0
    9.9617  -18.1872   25.9558 O   0  0  0  0  0  0  0  0  0  0  0  0
  1  2  1  0
  3  2  1  0
  3  4  1  6
  5  6  2  0
  5  3  1  0
  7  5  1  0
  8  7  1  0
  8  9  1  1
 10  9  1  0
 11 10  2  0
 12 13  1  0
 12 11  1  0
 13 18  2  0
 14 13  1  0
 14 15  2  0
 15 16  1  0
 16 17  2  0
 18 10  1  0
 18 17  1  0
 19  8  1  0
 19 21  1  0
 20 19  2  0
 22 21  1  0
 22 30  1  0
 22 23  1  1
 24 23  1  0
 25 24  2  0
 26 25  1  0
 27 26  2  0
 27 28  1  0
 28 29  2  0
 29 24  1  0
 30 31  2  0
 30 32  1  0
M  END
$$$$
