SWF.pdb
     RDKit          3D

 32 34  0  0  1  0  0  0  0  0999 V2000
    9.6131  -20.2829   23.6465 O   0  0  0  0  0  0  0  0  0  0  0  0
    8.3435  -19.8271   23.3708 C   0  0  0  0  0  0  0  0  0  0  0  0
    8.3219  -19.0238   22.1130 C   0  0  2  0  0  0  0  0  0  0  0  0
    8.7186  -19.7296   20.9370 N   0  0  0  0  0  0  0  0  0  0  0  0
    9.2378  -17.8510   22.3041 C   0  0  0  0  0  0  0  0  0  0  0  0
   10.3213  -17.8749   21.6754 O   0  0  0  0  0  0  0  0  0  0  0  0
    8.8823  -16.7973   23.1441 N   0  0  0  0  0  0  0  0  0  0  0  0
    9.8418  -15.6980   23.3634 C   0  0  1  0  0  0  0  0  0  0  0  0
    9.0758  -14.4347   23.2505 C   0  0  0  0  0  0  0  0  0  0  0  0
    8.0499  -14.3514   22.2193 C   0  0  0  0  0  0  0  0  0  0  0  0
    6.7713  -14.8657   22.2205 C   0  0  0  0  0  0  0  0  0  0  0  0
    6.1659  -14.5791   21.0540 N   0  0  0  0  0  0  0  0  0  0  0  0
    7.0434  -13.8837   20.2995 C   0  0  0  0  0  0  0  0  0  0  0  0
    6.9205  -13.3554   19.0317 C   0  0  0  0  0  0  0  0  0  0  0  0
    7.9549  -12.6721   18.4470 C   0  0  0  0  0  0  0  0  0  0  0  0
    9.1411  -12.5087   19.1364 C   0  0  0  0  0  0  0  0  0  0  0  0
    9.2555  -13.0379   20.3986 C   0  0  0  0  0  0  0  0  0  0  0  0
    8.2044  -13.7340   20.9970 C   0  0  0  0  0  0  0  0  0  0  0  0
   10.3605  -15.8874   24.7451 C   0  0  0  0  0  0  0  0  0  0  0  0
   11.3571  -15.1829   25.1552 O   0  0  0  0  0  0  0  0  0  0  0  0
    9.8220  -16.8101   25.6785 N   0  0  0  0  0  0  0  0  0  0  0  0
   10.3597  -16.8122   27.0445 C   0  0  1  0  0  0  0  0  0  0  0  0
    9.2019  -16.4933   28.0039 C   0  0  0  0  0  0  0  0  0  0  0  0
    8.6530  -15.1730   27.6617 C   0  0  0  0  0  0  0  0  0  0  0  0
    9.3206  -14.0058   28.0443 C   0  0  0  0  0  0  0  0  0  0  0  0
    8.8495  -12.7603   27.7093 C   0  0  0  0  0  0  0  0  0  0  0  0
    7.6881  -12.6131   26.9755 C   0  0  0  0  0  0  0  0  0  0  0  0
    7.0198  -13.7724   26.5924 C   0  0  0  0  0  0  0  0  0  0  0  0
    7.4917  -15.0187   26.9275 C   0  0  0  0  0  0  0  0  0  0  0  0
   10.8994  -18.1263   27.4221 C   0  0  0  0  0  0  0  0  0  0  0  0
   10.8624  -19.0993   26.6473 O   0  0  0  0  0  0  0  0  0  0  0  0
   11.4642  -18.2934   28.6657 O   0  0  0  0  0  0  0  0  0  0  0  0
  1  2  1  0
  3  2  1  0
  3  4  1  6
  5  6  2  0
  5  3  1  0
  7  5  1  0
  8  7  1  0
  8  9  1  1
 10  9  1  0
 11 10  2  0
 12 13  1  0
 12 11  1  0
 13 18  2  0
 14 13  1  0
 14 15  2  0
 15 16  1  0
 16 17  2  0
 18 10  1  0
 18 17  1  0
 19  8  1  0
 19 21  1  0
 20 19  2  0
 22 21  1  0
 22 30  1  0
 22 23  1  1
 24 23  1  0
 25 24  2  0
 26 25  1  0
 27 26  2  0
 27 28  1  0
 28 29  2  0
 29 24  1  0
 30 31  2  0
 30 32  1  0
M  END
$$$$
