SWF.pdb
     RDKit          3D

 32 34  0  0  1  0  0  0  0  0999 V2000
   11.5594  -19.4410   23.3793 O   0  0  0  0  0  0  0  0  0  0  0  0
   10.4328  -19.6083   22.6057 C   0  0  0  0  0  0  0  0  0  0  0  0
   10.3665  -18.5826   21.5234 C   0  0  2  0  0  0  0  0  0  0  0  0
   11.4534  -18.6078   20.5979 N   0  0  0  0  0  0  0  0  0  0  0  0
   10.3194  -17.2324   22.1758 C   0  0  0  0  0  0  0  0  0  0  0  0
   11.2949  -16.4736   21.9700 O   0  0  0  0  0  0  0  0  0  0  0  0
    9.2350  -16.8601   22.9682 N   0  0  0  0  0  0  0  0  0  0  0  0
    9.1135  -15.4563   23.4060 C   0  0  1  0  0  0  0  0  0  0  0  0
    7.6878  -15.0834   23.2515 C   0  0  0  0  0  0  0  0  0  0  0  0
    7.1653  -14.9397   21.8990 C   0  0  0  0  0  0  0  0  0  0  0  0
    6.2421  -15.7187   21.2355 C   0  0  0  0  0  0  0  0  0  0  0  0
    6.0624  -15.2466   19.9889 N   0  0  0  0  0  0  0  0  0  0  0  0
    6.8623  -14.1688   19.8419 C   0  0  0  0  0  0  0  0  0  0  0  0
    7.0526  -13.3284   18.7654 C   0  0  0  0  0  0  0  0  0  0  0  0
    7.9277  -12.2758   18.8361 C   0  0  0  0  0  0  0  0  0  0  0  0
    8.6318  -12.0508   20.0033 C   0  0  0  0  0  0  0  0  0  0  0  0
    8.4366  -12.8923   21.0710 C   0  0  0  0  0  0  0  0  0  0  0  0
    7.5465  -13.9649   21.0026 C   0  0  0  0  0  0  0  0  0  0  0  0
    9.5168  -15.4461   24.8383 C   0  0  0  0  0  0  0  0  0  0  0  0
    9.4951  -14.3417   25.4999 O   0  0  0  0  0  0  0  0  0  0  0  0
    9.9321  -16.5965   25.5570 N   0  0  0  0  0  0  0  0  0  0  0  0
   10.0693  -16.4944   27.0150 C   0  0  1  0  0  0  0  0  0  0  0  0
    8.6857  -16.1560   27.5929 C   0  0  0  0  0  0  0  0  0  0  0  0
    8.4414  -14.7159   27.4250 C   0  0  0  0  0  0  0  0  0  0  0  0
    7.2272  -14.2577   26.9053 C   0  0  0  0  0  0  0  0  0  0  0  0
    6.9583  -12.9181   26.7691 C   0  0  0  0  0  0  0  0  0  0  0  0
    7.8857  -11.9651   27.1439 C   0  0  0  0  0  0  0  0  0  0  0  0
    9.0962  -12.4165   27.6618 C   0  0  0  0  0  0  0  0  0  0  0  0
    9.3649  -13.7572   27.7982 C   0  0  0  0  0  0  0  0  0  0  0  0
   10.5034  -17.7627   27.6178 C   0  0  0  0  0  0  0  0  0  0  0  0
   10.6357  -18.7998   26.9429 O   0  0  0  0  0  0  0  0  0  0  0  0
   10.7742  -17.8131   28.9659 O   0  0  0  0  0  0  0  0  0  0  0  0
  1  2  1  0
  3  2  1  0
  3  4  1  6
  5  6  2  0
  5  3  1  0
  7  5  1  0
  8  7  1  0
  8  9  1  1
 10  9  1  0
 11 10  2  0
 12 13  1  0
 12 11  1  0
 13 18  2  0
 14 13  1  0
 14 15  2  0
 15 16  1  0
 16 17  2  0
 18 10  1  0
 18 17  1  0
 19  8  1  0
 19 21  1  0
 20 19  2  0
 22 21  1  0
 22 30  1  0
 22 23  1  1
 24 23  1  0
 25 24  2  0
 26 25  1  0
 27 26  2  0
 27 28  1  0
 28 29  2  0
 29 24  1  0
 30 31  2  0
 30 32  1  0
M  END
$$$$
