SWF.pdb
     RDKit          3D

 32 34  0  0  1  0  0  0  0  0999 V2000
   11.6434  -19.9850   23.5573 O   0  0  0  0  0  0  0  0  0  0  0  0
   10.4532  -20.0445   22.8677 C   0  0  0  0  0  0  0  0  0  0  0  0
   10.4246  -19.0475   21.7573 C   0  0  2  0  0  0  0  0  0  0  0  0
   11.4945  -19.1563   20.8182 N   0  0  0  0  0  0  0  0  0  0  0  0
   10.4586  -17.6789   22.3711 C   0  0  0  0  0  0  0  0  0  0  0  0
   11.4743  -16.9831   22.1388 O   0  0  0  0  0  0  0  0  0  0  0  0
    9.4025  -17.2233   23.1581 N   0  0  0  0  0  0  0  0  0  0  0  0
    9.3788  -15.8096   23.5802 C   0  0  1  0  0  0  0  0  0  0  0  0
    7.9590  -15.3857   23.5711 C   0  0  0  0  0  0  0  0  0  0  0  0
    7.3257  -15.1576   22.2790 C   0  0  0  0  0  0  0  0  0  0  0  0
    6.3888  -15.9253   21.6216 C   0  0  0  0  0  0  0  0  0  0  0  0
    6.0905  -15.3617   20.4373 N   0  0  0  0  0  0  0  0  0  0  0  0
    6.8275  -14.2360   20.3245 C   0  0  0  0  0  0  0  0  0  0  0  0
    6.8947  -13.3009   19.3134 C   0  0  0  0  0  0  0  0  0  0  0  0
    7.7248  -12.2143   19.4089 C   0  0  0  0  0  0  0  0  0  0  0  0
    8.5080  -12.0508   20.5354 C   0  0  0  0  0  0  0  0  0  0  0  0
    8.4353  -12.9865   21.5380 C   0  0  0  0  0  0  0  0  0  0  0  0
    7.5912  -14.0939   21.4441 C   0  0  0  0  0  0  0  0  0  0  0  0
    9.9330  -15.7936   24.9610 C   0  0  0  0  0  0  0  0  0  0  0  0
   10.2321  -14.6709   25.5160 O   0  0  0  0  0  0  0  0  0  0  0  0
   10.1604  -16.9562   25.7415 N   0  0  0  0  0  0  0  0  0  0  0  0
   10.4930  -16.7872   27.1614 C   0  0  1  0  0  0  0  0  0  0  0  0
    9.2082  -16.3736   27.8970 C   0  0  0  0  0  0  0  0  0  0  0  0
    8.9582  -14.9463   27.6479 C   0  0  0  0  0  0  0  0  0  0  0  0
    7.7600  -14.5272   27.0622 C   0  0  0  0  0  0  0  0  0  0  0  0
    7.4850  -13.1989   26.8489 C   0  0  0  0  0  0  0  0  0  0  0  0
    8.3902  -12.2189   27.2083 C   0  0  0  0  0  0  0  0  0  0  0  0
    9.5846  -12.6313   27.7917 C   0  0  0  0  0  0  0  0  0  0  0  0
    9.8594  -13.9607   28.0052 C   0  0  0  0  0  0  0  0  0  0  0  0
   10.9683  -18.0385   27.7686 C   0  0  0  0  0  0  0  0  0  0  0  0
   10.9935  -19.1088   27.1342 O   0  0  0  0  0  0  0  0  0  0  0  0
   11.4005  -18.0348   29.0750 O   0  0  0  0  0  0  0  0  0  0  0  0
  1  2  1  0
  3  2  1  0
  3  4  1  6
  5  6  2  0
  5  3  1  0
  7  5  1  0
  8  7  1  0
  8  9  1  1
 10  9  1  0
 11 10  2  0
 12 13  1  0
 12 11  1  0
 13 18  2  0
 14 13  1  0
 14 15  2  0
 15 16  1  0
 16 17  2  0
 18 10  1  0
 18 17  1  0
 19  8  1  0
 19 21  1  0
 20 19  2  0
 22 21  1  0
 22 30  1  0
 22 23  1  1
 24 23  1  0
 25 24  2  0
 26 25  1  0
 27 26  2  0
 27 28  1  0
 28 29  2  0
 29 24  1  0
 30 31  2  0
 30 32  1  0
M  END
$$$$
