SVK.pdb
     RDKit          3D

 23 22  0  0  1  0  0  0  0  0999 V2000
   20.3879  -13.5476  -20.0901 O   0  0  0  0  0  0  0  0  0  0  0  0
   20.0535  -12.8759  -18.9343 C   0  0  0  0  0  0  0  0  0  0  0  0
   20.9235  -13.2462  -17.7659 C   0  0  2  0  0  0  0  0  0  0  0  0
   20.6513  -14.5765  -17.3031 N   0  0  0  0  0  0  0  0  0  0  0  0
   20.7470  -12.2249  -16.7036 C   0  0  0  0  0  0  0  0  0  0  0  0
   19.7953  -12.4104  -15.8910 O   0  0  0  0  0  0  0  0  0  0  0  0
   22.9800  -11.1773  -13.9554 C   0  0  0  0  0  0  0  0  0  0  0  0
   22.6479   -9.9395  -14.7246 C   0  0  2  0  0  0  0  0  0  0  0  0
   22.5682   -8.8042  -13.7039 C   0  0  0  0  0  0  0  0  0  0  0  0
   21.3877  -10.0877  -15.5008 C   0  0  2  0  0  0  0  0  0  0  0  0
   21.5649  -11.0926  -16.5618 N   0  0  0  0  0  0  0  0  0  0  0  0
   21.0475   -8.8250  -16.1838 C   0  0  0  0  0  0  0  0  0  0  0  0
   21.8387   -8.3608  -17.0823 O   0  0  0  0  0  0  0  0  0  0  0  0
   19.8921   -8.0523  -15.9406 N   0  0  0  0  0  0  0  0  0  0  0  0
   19.6723   -6.7952  -16.7044 C   0  0  1  0  0  0  0  0  0  0  0  0
   18.2589   -6.8609  -17.1898 C   0  0  0  0  0  0  0  0  0  0  0  0
   17.8570   -5.6679  -17.9758 C   0  0  0  0  0  0  0  0  0  0  0  0
   16.4425   -5.7639  -18.5086 C   0  0  0  0  0  0  0  0  0  0  0  0
   16.0998   -4.6203  -19.4206 C   0  0  0  0  0  0  0  0  0  0  0  0
   14.7369   -4.7701  -19.9433 N   0  0  0  0  0  0  0  0  0  0  0  0
   19.9849   -5.6355  -15.8524 C   0  0  0  0  0  0  0  0  0  0  0  0
   20.3673   -4.5706  -16.3981 O   0  0  0  0  0  0  0  0  0  0  0  0
   19.8916   -5.6130  -14.4714 O   0  0  0  0  0  0  0  0  0  0  0  0
  2  1  1  0
  3  4  1  1
  3  2  1  0
  5  6  2  0
  5  3  1  0
  8  7  1  1
  8 10  1  0
  9  8  1  0
 10 11  1  6
 10 12  1  0
 11  5  1  0
 12 14  1  0
 13 12  2  0
 14 15  1  0
 15 21  1  0
 15 16  1  1
 17 16  1  0
 18 17  1  0
 19 18  1  0
 20 19  1  0
 21 22  2  0
 21 23  1  0
M  END
$$$$
