SVK.pdb
     RDKit          3D

 23 22  0  0  1  0  0  0  0  0999 V2000
   22.5616  -14.4006  -20.8166 O   0  0  0  0  0  0  0  0  0  0  0  0
   22.6823  -13.7137  -19.6282 C   0  0  0  0  0  0  0  0  0  0  0  0
   23.8675  -14.1510  -18.8137 C   0  0  2  0  0  0  0  0  0  0  0  0
   23.7663  -15.5291  -18.4283 N   0  0  0  0  0  0  0  0  0  0  0  0
   24.0015  -13.2409  -17.6490 C   0  0  0  0  0  0  0  0  0  0  0  0
   23.3328  -13.5382  -16.6169 O   0  0  0  0  0  0  0  0  0  0  0  0
   27.2087  -11.6801  -15.9373 C   0  0  0  0  0  0  0  0  0  0  0  0
   26.2480  -10.6165  -16.3613 C   0  0  2  0  0  0  0  0  0  0  0  0
   26.3302   -9.5136  -15.3059 C   0  0  0  0  0  0  0  0  0  0  0  0
   24.8661  -11.1443  -16.5169 C   0  0  2  0  0  0  0  0  0  0  0  0
   24.8138  -12.0959  -17.6389 N   0  0  0  0  0  0  0  0  0  0  0  0
   23.9302  -10.0558  -16.8576 C   0  0  0  0  0  0  0  0  0  0  0  0
   23.9868   -9.5165  -18.0216 O   0  0  0  0  0  0  0  0  0  0  0  0
   22.9391   -9.5343  -15.9992 N   0  0  0  0  0  0  0  0  0  0  0  0
   22.0879   -8.4042  -16.4576 C   0  0  1  0  0  0  0  0  0  0  0  0
   20.8296   -9.0300  -16.9700 C   0  0  0  0  0  0  0  0  0  0  0  0
   19.8234   -8.0341  -17.4156 C   0  0  0  0  0  0  0  0  0  0  0  0
   18.5113   -8.6681  -17.8285 C   0  0  0  0  0  0  0  0  0  0  0  0
   17.4896   -7.6453  -18.2371 C   0  0  0  0  0  0  0  0  0  0  0  0
   17.1642   -6.7647  -17.1093 N   0  0  0  0  0  0  0  0  0  0  0  0
   21.9023   -7.4440  -15.3565 C   0  0  0  0  0  0  0  0  0  0  0  0
   21.9174   -7.8698  -14.1748 O   0  0  0  0  0  0  0  0  0  0  0  0
   21.7092   -6.0820  -15.5109 O   0  0  0  0  0  0  0  0  0  0  0  0
  2  1  1  0
  3  4  1  1
  3  2  1  0
  5  6  2  0
  5  3  1  0
  8  7  1  1
  8 10  1  0
  9  8  1  0
 10 11  1  6
 10 12  1  0
 11  5  1  0
 12 14  1  0
 13 12  2  0
 14 15  1  0
 15 21  1  0
 15 16  1  1
 17 16  1  0
 18 17  1  0
 19 18  1  0
 20 19  1  0
 21 22  2  0
 21 23  1  0
M  END
$$$$
