SVK.pdb
     RDKit          3D

 23 22  0  0  1  0  0  0  0  0999 V2000
   21.5726  -10.7720  -21.4275 O   0  0  0  0  0  0  0  0  0  0  0  0
   21.1998  -10.3459  -20.1712 C   0  0  0  0  0  0  0  0  0  0  0  0
   21.4529  -11.3722  -19.1027 C   0  0  2  0  0  0  0  0  0  0  0  0
   20.6677  -12.5552  -19.3074 N   0  0  0  0  0  0  0  0  0  0  0  0
   21.2077  -10.7462  -17.7794 C   0  0  0  0  0  0  0  0  0  0  0  0
   20.0180  -10.7753  -17.3499 O   0  0  0  0  0  0  0  0  0  0  0  0
   22.6439  -11.8195  -14.6267 C   0  0  0  0  0  0  0  0  0  0  0  0
   22.9147  -10.3511  -14.6933 C   0  0  2  0  0  0  0  0  0  0  0  0
   22.7941   -9.8237  -13.2635 C   0  0  0  0  0  0  0  0  0  0  0  0
   21.9904   -9.6563  -15.6290 C   0  0  2  0  0  0  0  0  0  0  0  0
   22.2073  -10.1394  -17.0026 N   0  0  0  0  0  0  0  0  0  0  0  0
   22.2697   -8.2079  -15.6542 C   0  0  0  0  0  0  0  0  0  0  0  0
   23.4181   -7.7937  -16.0522 O   0  0  0  0  0  0  0  0  0  0  0  0
   21.3624   -7.1960  -15.2746 N   0  0  0  0  0  0  0  0  0  0  0  0
   21.7946   -5.7731  -15.2958 C   0  0  1  0  0  0  0  0  0  0  0  0
   20.7008   -5.0305  -15.9955 C   0  0  0  0  0  0  0  0  0  0  0  0
   20.6455   -5.3110  -17.4518 C   0  0  0  0  0  0  0  0  0  0  0  0
   19.5649   -4.5224  -18.1621 C   0  0  0  0  0  0  0  0  0  0  0  0
   19.4913   -4.8504  -19.6263 C   0  0  0  0  0  0  0  0  0  0  0  0
   18.5298   -3.9718  -20.3022 N   0  0  0  0  0  0  0  0  0  0  0  0
   22.0764   -5.3194  -13.9234 C   0  0  0  0  0  0  0  0  0  0  0  0
   21.5194   -5.9109  -12.9653 O   0  0  0  0  0  0  0  0  0  0  0  0
   22.9208   -4.2755  -13.5868 O   0  0  0  0  0  0  0  0  0  0  0  0
  2  1  1  0
  3  4  1  6
  3  2  1  0
  5  6  2  0
  5  3  1  0
  8  7  1  1
  8 10  1  0
  9  8  1  0
 10 11  1  6
 10 12  1  0
 11  5  1  0
 12 14  1  0
 13 12  2  0
 14 15  1  0
 15 21  1  0
 15 16  1  1
 17 16  1  0
 18 17  1  0
 19 18  1  0
 20 19  1  0
 21 22  2  0
 21 23  1  0
M  END
$$$$
