SVK.pdb
     RDKit          3D

 23 22  0  0  1  0  0  0  0  0999 V2000
   18.0756  -12.7479  -18.8489 O   0  0  0  0  0  0  0  0  0  0  0  0
   18.4310  -12.1352  -17.6669 C   0  0  0  0  0  0  0  0  0  0  0  0
   19.6178  -12.7774  -17.0049 C   0  0  2  0  0  0  0  0  0  0  0  0
   19.2848  -14.0553  -16.4443 N   0  0  0  0  0  0  0  0  0  0  0  0
   20.1622  -11.8355  -15.9954 C   0  0  0  0  0  0  0  0  0  0  0  0
   19.6472  -11.8817  -14.8407 O   0  0  0  0  0  0  0  0  0  0  0  0
   24.0287  -10.4947  -16.0906 C   0  0  0  0  0  0  0  0  0  0  0  0
   23.1407  -10.4443  -14.8894 C   0  0  2  0  0  0  0  0  0  0  0  0
   23.1766  -11.8397  -14.2660 C   0  0  0  0  0  0  0  0  0  0  0  0
   21.7583  -10.0186  -15.2364 C   0  0  2  0  0  0  0  0  0  0  0  0
   21.1944  -10.9199  -16.2546 N   0  0  0  0  0  0  0  0  0  0  0  0
   21.7660   -8.6720  -15.8389 C   0  0  0  0  0  0  0  0  0  0  0  0
   21.9007   -8.5504  -17.1101 O   0  0  0  0  0  0  0  0  0  0  0  0
   21.6291   -7.4603  -15.1288 N   0  0  0  0  0  0  0  0  0  0  0  0
   21.5486   -6.1752  -15.8730 C   0  0  1  0  0  0  0  0  0  0  0  0
   20.4309   -6.3464  -16.8522 C   0  0  0  0  0  0  0  0  0  0  0  0
   20.1699   -5.1271  -17.6571 C   0  0  0  0  0  0  0  0  0  0  0  0
   18.9388   -5.2514  -18.5306 C   0  0  0  0  0  0  0  0  0  0  0  0
   19.2866   -5.4918  -19.9722 C   0  0  0  0  0  0  0  0  0  0  0  0
   18.0780   -5.7862  -20.7505 N   0  0  0  0  0  0  0  0  0  0  0  0
   21.3801   -5.0617  -14.9241 C   0  0  0  0  0  0  0  0  0  0  0  0
   20.9625   -5.3127  -13.7662 O   0  0  0  0  0  0  0  0  0  0  0  0
   21.6480   -3.7320  -15.2001 O   0  0  0  0  0  0  0  0  0  0  0  0
  2  1  1  0
  3  4  1  1
  3  2  1  0
  5  6  2  0
  5  3  1  0
  8  7  1  6
  8 10  1  0
  9  8  1  0
 10 11  1  6
 10 12  1  0
 11  5  1  0
 12 14  1  0
 13 12  2  0
 14 15  1  0
 15 21  1  0
 15 16  1  6
 17 16  1  0
 18 17  1  0
 19 18  1  0
 20 19  1  0
 21 22  2  0
 21 23  1  0
M  END
$$$$
