SVK.pdb
     RDKit          3D

 23 22  0  0  1  0  0  0  0  0999 V2000
   22.8585  -12.9003  -17.2706 O   0  0  0  0  0  0  0  0  0  0  0  0
   21.6474  -12.3324  -17.6013 C   0  0  0  0  0  0  0  0  0  0  0  0
   20.4963  -12.9071  -16.8240 C   0  0  2  0  0  0  0  0  0  0  0  0
   20.1922  -14.2461  -17.2394 N   0  0  0  0  0  0  0  0  0  0  0  0
   19.3353  -11.9916  -16.9538 C   0  0  0  0  0  0  0  0  0  0  0  0
   18.6831  -12.0526  -18.0361 O   0  0  0  0  0  0  0  0  0  0  0  0
   16.0026  -11.8103  -15.5041 C   0  0  0  0  0  0  0  0  0  0  0  0
   16.7292  -10.5677  -15.1017 C   0  0  2  0  0  0  0  0  0  0  0  0
   15.6679   -9.4793  -14.9397 C   0  0  0  0  0  0  0  0  0  0  0  0
   17.7758  -10.1902  -16.0889 C   0  0  2  0  0  0  0  0  0  0  0  0
   18.9374  -11.0851  -15.9584 N   0  0  0  0  0  0  0  0  0  0  0  0
   18.2747   -8.8279  -15.8210 C   0  0  0  0  0  0  0  0  0  0  0  0
   18.9753   -8.6086  -14.7675 O   0  0  0  0  0  0  0  0  0  0  0  0
   18.0533   -7.7024  -16.6427 N   0  0  0  0  0  0  0  0  0  0  0  0
   18.6302   -6.3861  -16.2602 C   0  0  1  0  0  0  0  0  0  0  0  0
   18.7179   -5.6007  -17.5302 C   0  0  0  0  0  0  0  0  0  0  0  0
   19.2554   -4.2315  -17.3323 C   0  0  0  0  0  0  0  0  0  0  0  0
   19.2191   -3.3971  -18.5959 C   0  0  0  0  0  0  0  0  0  0  0  0
   19.7609   -2.0128  -18.3786 C   0  0  0  0  0  0  0  0  0  0  0  0
   19.6152   -1.2068  -19.5961 N   0  0  0  0  0  0  0  0  0  0  0  0
   17.8084   -5.7719  -15.2037 C   0  0  0  0  0  0  0  0  0  0  0  0
   16.5634   -5.9364  -15.2345 O   0  0  0  0  0  0  0  0  0  0  0  0
   18.2969   -5.0127  -14.1544 O   0  0  0  0  0  0  0  0  0  0  0  0
  2  1  1  0
  3  4  1  6
  3  2  1  0
  5  6  2  0
  5  3  1  0
  8  7  1  6
  8 10  1  0
  9  8  1  0
 10 11  1  1
 10 12  1  0
 11  5  1  0
 12 14  1  0
 13 12  2  0
 14 15  1  0
 15 21  1  0
 15 16  1  6
 17 16  1  0
 18 17  1  0
 19 18  1  0
 20 19  1  0
 21 22  2  0
 21 23  1  0
M  END
$$$$
