SVK.pdb
     RDKit          3D

 23 22  0  0  1  0  0  0  0  0999 V2000
   18.0627  -11.0067  -19.2761 O   0  0  0  0  0  0  0  0  0  0  0  0
   18.7361  -10.6750  -18.1206 C   0  0  0  0  0  0  0  0  0  0  0  0
   19.5479  -11.8119  -17.5658 C   0  0  2  0  0  0  0  0  0  0  0  0
   18.7129  -12.8814  -17.0999 N   0  0  0  0  0  0  0  0  0  0  0  0
   20.4404  -11.2811  -16.5054 C   0  0  0  0  0  0  0  0  0  0  0  0
   19.9423  -11.1705  -15.3476 O   0  0  0  0  0  0  0  0  0  0  0  0
   23.9912  -12.4061  -15.5008 C   0  0  0  0  0  0  0  0  0  0  0  0
   24.0035  -10.9348  -15.7641 C   0  0  2  0  0  0  0  0  0  0  0  0
   24.9702  -10.3222  -14.7507 C   0  0  0  0  0  0  0  0  0  0  0  0
   22.6426  -10.3415  -15.6732 C   0  0  2  0  0  0  0  0  0  0  0  0
   21.7760  -10.9060  -16.7208 N   0  0  0  0  0  0  0  0  0  0  0  0
   22.6927   -8.8880  -15.9208 C   0  0  0  0  0  0  0  0  0  0  0  0
   22.8337   -8.4572  -17.1222 O   0  0  0  0  0  0  0  0  0  0  0  0
   22.5916   -7.8883  -14.9301 N   0  0  0  0  0  0  0  0  0  0  0  0
   22.5884   -6.4551  -15.3272 C   0  0  1  0  0  0  0  0  0  0  0  0
   21.3423   -6.2632  -16.1321 C   0  0  0  0  0  0  0  0  0  0  0  0
   21.1207   -4.8520  -16.5349 C   0  0  0  0  0  0  0  0  0  0  0  0
   19.8071   -4.6468  -17.2605 C   0  0  0  0  0  0  0  0  0  0  0  0
   19.6347   -3.2318  -17.7348 C   0  0  0  0  0  0  0  0  0  0  0  0
   18.3486   -3.0734  -18.4232 N   0  0  0  0  0  0  0  0  0  0  0  0
   22.6916   -5.6072  -14.1276 C   0  0  0  0  0  0  0  0  0  0  0  0
   22.2414   -6.0435  -13.0389 O   0  0  0  0  0  0  0  0  0  0  0  0
   23.2546   -4.3432  -14.0911 O   0  0  0  0  0  0  0  0  0  0  0  0
  2  1  1  0
  3  4  1  1
  3  2  1  0
  5  6  2  0
  5  3  1  0
  8  7  1  1
  8 10  1  0
  9  8  1  0
 10 11  1  6
 10 12  1  0
 11  5  1  0
 12 14  1  0
 13 12  2  0
 14 15  1  0
 15 21  1  0
 15 16  1  1
 17 16  1  0
 18 17  1  0
 19 18  1  0
 20 19  1  0
 21 22  2  0
 21 23  1  0
M  END
$$$$
