SVK.pdb
     RDKit          3D

 23 22  0  0  1  0  0  0  0  0999 V2000
   28.0648  -19.1103  -16.9444 O   0  0  0  0  0  0  0  0  0  0  0  0
   27.0830  -19.7586  -16.2271 C   0  0  0  0  0  0  0  0  0  0  0  0
   27.6341  -20.7040  -15.1968 C   0  0  2  0  0  0  0  0  0  0  0  0
   28.3398  -21.7960  -15.8031 N   0  0  0  0  0  0  0  0  0  0  0  0
   26.5196  -21.1568  -14.3275 C   0  0  0  0  0  0  0  0  0  0  0  0
   25.8683  -22.1677  -14.7208 O   0  0  0  0  0  0  0  0  0  0  0  0
   26.6884  -21.0945  -10.2833 C   0  0  0  0  0  0  0  0  0  0  0  0
   25.3946  -20.5756  -10.8225 C   0  0  2  0  0  0  0  0  0  0  0  0
   24.3083  -21.0210   -9.8434 C   0  0  0  0  0  0  0  0  0  0  0  0
   25.1356  -21.0556  -12.2064 C   0  0  2  0  0  0  0  0  0  0  0  0
   26.1635  -20.5328  -13.1214 N   0  0  0  0  0  0  0  0  0  0  0  0
   23.8448  -20.5402  -12.7013 C   0  0  0  0  0  0  0  0  0  0  0  0
   23.6828  -19.2740  -12.8406 O   0  0  0  0  0  0  0  0  0  0  0  0
   22.7321  -21.3328  -13.0545 N   0  0  0  0  0  0  0  0  0  0  0  0
   21.4874  -20.6801  -13.5410 C   0  0  1  0  0  0  0  0  0  0  0  0
   20.9346  -21.5960  -14.5864 C   0  0  0  0  0  0  0  0  0  0  0  0
   19.6343  -21.1364  -15.1348 C   0  0  0  0  0  0  0  0  0  0  0  0
   19.0098  -22.1374  -16.0847 C   0  0  0  0  0  0  0  0  0  0  0  0
   17.7482  -21.6156  -16.7114 C   0  0  0  0  0  0  0  0  0  0  0  0
   17.1861  -22.6059  -17.6368 N   0  0  0  0  0  0  0  0  0  0  0  0
   20.5881  -20.4170  -12.4049 C   0  0  0  0  0  0  0  0  0  0  0  0
   20.5463  -21.2470  -11.4628 O   0  0  0  0  0  0  0  0  0  0  0  0
   19.7661  -19.3104  -12.2787 O   0  0  0  0  0  0  0  0  0  0  0  0
  2  1  1  0
  3  4  1  6
  3  2  1  0
  5  6  2  0
  5  3  1  0
  8  7  1  1
  8 10  1  0
  9  8  1  0
 10 11  1  6
 10 12  1  0
 11  5  1  0
 12 14  1  0
 13 12  2  0
 14 15  1  0
 15 21  1  0
 15 16  1  6
 17 16  1  0
 18 17  1  0
 19 18  1  0
 20 19  1  0
 21 22  2  0
 21 23  1  0
M  END
$$$$
