SVK.pdb
     RDKit          3D

 23 22  0  0  1  0  0  0  0  0999 V2000
   18.8905   -8.7897  -13.5100 O   0  0  0  0  0  0  0  0  0  0  0  0
   17.7947   -8.1973  -12.9211 C   0  0  0  0  0  0  0  0  0  0  0  0
   17.0493   -9.1227  -12.0007 C   0  0  2  0  0  0  0  0  0  0  0  0
   16.4632  -10.2209  -12.7139 N   0  0  0  0  0  0  0  0  0  0  0  0
   16.0456   -8.3310  -11.2467 C   0  0  0  0  0  0  0  0  0  0  0  0
   14.9302   -8.1423  -11.8131 O   0  0  0  0  0  0  0  0  0  0  0  0
   14.3674   -9.0239   -8.1600 C   0  0  0  0  0  0  0  0  0  0  0  0
   14.9337   -7.6567   -7.9500 C   0  0  2  0  0  0  0  0  0  0  0  0
   13.8889   -6.8730   -7.1555 C   0  0  0  0  0  0  0  0  0  0  0  0
   15.2768   -6.9926   -9.2360 C   0  0  2  0  0  0  0  0  0  0  0  0
   16.2697   -7.7957   -9.9683 N   0  0  0  0  0  0  0  0  0  0  0  0
   15.9087   -5.6822   -8.9909 C   0  0  0  0  0  0  0  0  0  0  0  0
   17.1846   -5.5700   -9.0829 O   0  0  0  0  0  0  0  0  0  0  0  0
   15.2217   -4.4954   -8.6582 N   0  0  0  0  0  0  0  0  0  0  0  0
   15.7376   -3.1861   -9.1392 C   0  0  1  0  0  0  0  0  0  0  0  0
   15.8482   -3.3181  -10.6251 C   0  0  0  0  0  0  0  0  0  0  0  0
   16.2986   -2.0694  -11.2888 C   0  0  0  0  0  0  0  0  0  0  0  0
   16.5614   -2.2521  -12.7693 C   0  0  0  0  0  0  0  0  0  0  0  0
   16.9733   -0.9704  -13.4359 C   0  0  0  0  0  0  0  0  0  0  0  0
   17.2631   -1.1995  -14.8560 N   0  0  0  0  0  0  0  0  0  0  0  0
   14.8542   -2.1033   -8.6743 C   0  0  0  0  0  0  0  0  0  0  0  0
   13.6107   -2.2742   -8.7255 O   0  0  0  0  0  0  0  0  0  0  0  0
   15.2817   -0.8859   -8.1730 O   0  0  0  0  0  0  0  0  0  0  0  0
  2  1  1  0
  3  4  1  6
  3  2  1  0
  5  6  2  0
  5  3  1  0
  8  7  1  6
  8 10  1  0
  9  8  1  0
 10 11  1  1
 10 12  1  0
 11  5  1  0
 12 14  1  0
 13 12  2  0
 14 15  1  0
 15 21  1  0
 15 16  1  6
 17 16  1  0
 18 17  1  0
 19 18  1  0
 20 19  1  0
 21 22  2  0
 21 23  1  0
M  END
$$$$
