SVK.pdb
     RDKit          3D

 23 22  0  0  1  0  0  0  0  0999 V2000
   23.2879  -21.1702   -8.0732 O   0  0  0  0  0  0  0  0  0  0  0  0
   23.7301  -20.5776   -9.2360 C   0  0  0  0  0  0  0  0  0  0  0  0
   25.1422  -20.9534   -9.5878 C   0  0  2  0  0  0  0  0  0  0  0  0
   26.0728  -20.5110   -8.5897 N   0  0  0  0  0  0  0  0  0  0  0  0
   25.4521  -20.4151  -10.9358 C   0  0  0  0  0  0  0  0  0  0  0  0
   26.0028  -19.2769  -10.9791 O   0  0  0  0  0  0  0  0  0  0  0  0
   27.6716  -21.5836  -13.6347 C   0  0  0  0  0  0  0  0  0  0  0  0
   26.3112  -21.4577  -14.2409 C   0  0  2  0  0  0  0  0  0  0  0  0
   26.5209  -20.9874  -15.6803 C   0  0  0  0  0  0  0  0  0  0  0  0
   25.4407  -20.5319  -13.4678 C   0  0  2  0  0  0  0  0  0  0  0  0
   25.1702  -21.0914  -12.1333 N   0  0  0  0  0  0  0  0  0  0  0  0
   24.1280  -20.3840  -14.1248 C   0  0  0  0  0  0  0  0  0  0  0  0
   23.2597  -21.3240  -14.0182 O   0  0  0  0  0  0  0  0  0  0  0  0
   23.7168  -19.2667  -14.8821 N   0  0  0  0  0  0  0  0  0  0  0  0
   22.3300  -19.2087  -15.4161 C   0  0  1  0  0  0  0  0  0  0  0  0
   22.0004  -17.7535  -15.5235 C   0  0  0  0  0  0  0  0  0  0  0  0
   20.6220  -17.5032  -16.0135 C   0  0  0  0  0  0  0  0  0  0  0  0
   20.5908  -16.6947  -17.2940 C   0  0  0  0  0  0  0  0  0  0  0  0
   19.1910  -16.3398  -17.7081 C   0  0  0  0  0  0  0  0  0  0  0  0
   19.2059  -15.5408  -18.9388 N   0  0  0  0  0  0  0  0  0  0  0  0
   22.2530  -19.9596  -16.6806 C   0  0  0  0  0  0  0  0  0  0  0  0
   23.2281  -19.9127  -17.4713 O   0  0  0  0  0  0  0  0  0  0  0  0
   21.1775  -20.7315  -17.0849 O   0  0  0  0  0  0  0  0  0  0  0  0
  2  1  1  0
  3  4  1  1
  3  2  1  0
  5  6  2  0
  5  3  1  0
  8  7  1  1
  8 10  1  0
  9  8  1  0
 10 11  1  1
 10 12  1  0
 11  5  1  0
 12 14  1  0
 13 12  2  0
 14 15  1  0
 15 21  1  0
 15 16  1  6
 17 16  1  0
 18 17  1  0
 19 18  1  0
 20 19  1  0
 21 22  2  0
 21 23  1  0
M  END
$$$$
