SVK.pdb
     RDKit          3D

 23 22  0  0  1  0  0  0  0  0999 V2000
   25.6481  -24.0065  -15.6497 O   0  0  0  0  0  0  0  0  0  0  0  0
   24.8010  -23.3392  -14.7918 C   0  0  0  0  0  0  0  0  0  0  0  0
   24.6460  -21.8834  -15.1323 C   0  0  2  0  0  0  0  0  0  0  0  0
   25.9033  -21.1936  -15.0948 N   0  0  0  0  0  0  0  0  0  0  0  0
   23.6411  -21.2888  -14.2160 C   0  0  0  0  0  0  0  0  0  0  0  0
   24.0787  -20.8022  -13.1332 O   0  0  0  0  0  0  0  0  0  0  0  0
   21.3818  -18.4047  -14.7952 C   0  0  0  0  0  0  0  0  0  0  0  0
   20.5228  -19.5585  -14.3891 C   0  0  2  0  0  0  0  0  0  0  0  0
   19.3612  -18.9717  -13.5870 C   0  0  0  0  0  0  0  0  0  0  0  0
   21.2847  -20.5745  -13.6146 C   0  0  2  0  0  0  0  0  0  0  0  0
   22.2645  -21.2422  -14.4871 N   0  0  0  0  0  0  0  0  0  0  0  0
   20.3840  -21.6341  -13.1221 C   0  0  0  0  0  0  0  0  0  0  0  0
   19.8011  -22.4084  -13.9645 O   0  0  0  0  0  0  0  0  0  0  0  0
   20.0944  -21.8924  -11.7655 N   0  0  0  0  0  0  0  0  0  0  0  0
   19.1699  -23.0010  -11.4076 C   0  0  1  0  0  0  0  0  0  0  0  0
   19.4498  -23.3109   -9.9713 C   0  0  0  0  0  0  0  0  0  0  0  0
   18.5540  -24.3557   -9.4156 C   0  0  0  0  0  0  0  0  0  0  0  0
   18.7669  -24.5855   -7.9338 C   0  0  0  0  0  0  0  0  0  0  0  0
   17.7516  -25.5284   -7.3532 C   0  0  0  0  0  0  0  0  0  0  0  0
   17.8884  -25.5963   -5.8938 N   0  0  0  0  0  0  0  0  0  0  0  0
   17.7822  -22.6042  -11.7001 C   0  0  0  0  0  0  0  0  0  0  0  0
   17.0492  -23.3981  -12.3409 O   0  0  0  0  0  0  0  0  0  0  0  0
   17.1991  -21.4070  -11.3221 O   0  0  0  0  0  0  0  0  0  0  0  0
  2  1  1  0
  3  4  1  1
  3  2  1  0
  5  6  2  0
  5  3  1  0
  8  7  1  1
  8 10  1  0
  9  8  1  0
 10 11  1  6
 10 12  1  0
 11  5  1  0
 12 14  1  0
 13 12  2  0
 14 15  1  0
 15 21  1  0
 15 16  1  1
 17 16  1  0
 18 17  1  0
 19 18  1  0
 20 19  1  0
 21 22  2  0
 21 23  1  0
M  END
$$$$
