TMM.pdb
     RDKit          3D

 24 23  0  0  1  0  0  0  0  0999 V2000
    8.7418  -16.4454   19.2924 C   0  0  0  0  0  0  0  0  0  0  0  0
    8.7988  -14.9668   18.9200 C   0  0  1  0  0  0  0  0  0  0  0  0
    8.1607  -14.9107   17.6440 O   0  0  0  0  0  0  0  0  0  0  0  0
    7.9456  -14.1105   19.8093 C   0  0  2  0  0  0  0  0  0  0  0  0
    7.9605  -12.7147   19.3114 N   0  0  0  0  0  0  0  0  0  0  0  0
    8.3066  -14.0462   21.2148 C   0  0  0  0  0  0  0  0  0  0  0  0
    9.3310  -13.3400   21.5369 O   0  0  0  0  0  0  0  0  0  0  0  0
    6.9569  -12.9284   27.3848 C   0  0  0  0  0  0  0  0  0  0  0  0
    6.2435  -11.9658   26.0210 S   0  0  0  0  0  0  0  0  0  0  0  0
    6.5259  -12.8132   24.4315 C   0  0  0  0  0  0  0  0  0  0  0  0
    7.1409  -14.1408   24.6566 C   0  0  0  0  0  0  0  0  0  0  0  0
    8.1658  -14.6033   23.6879 C   0  0  2  0  0  0  0  0  0  0  0  0
    7.6780  -14.6633   22.3173 N   0  0  0  0  0  0  0  0  0  0  0  0
    8.9364  -15.7835   24.0523 C   0  0  0  0  0  0  0  0  0  0  0  0
    9.0106  -16.8442   23.3841 O   0  0  0  0  0  0  0  0  0  0  0  0
   10.1397  -13.2263   29.4432 C   0  0  0  0  0  0  0  0  0  0  0  0
   10.2892  -14.9317   28.9972 S   0  0  0  0  0  0  0  0  0  0  0  0
   11.1150  -15.3203   27.4672 C   0  0  0  0  0  0  0  0  0  0  0  0
   11.0245  -16.7326   27.0459 C   0  0  0  0  0  0  0  0  0  0  0  0
   10.5366  -16.9295   25.6601 C   0  0  2  0  0  0  0  0  0  0  0  0
    9.6846  -15.7798   25.2601 N   0  0  0  0  0  0  0  0  0  0  0  0
    9.8751  -18.1913   25.3558 C   0  0  0  0  0  0  0  0  0  0  0  0
   10.6710  -19.3630   25.3294 O   0  0  0  0  0  0  0  0  0  0  0  0
    8.6758  -18.3014   25.1220 O   0  0  0  0  0  0  0  0  0  0  0  0
  2  1  1  1
  2  3  1  0
  4  6  1  0
  4  2  1  0
  4  5  1  6
  6  7  2  0
  8  9  1  0
 10 11  1  0
 10  9  1  0
 12 11  1  1
 12 14  1  0
 13 12  1  0
 13  6  1  0
 14 21  1  0
 14 15  2  0
 16 17  1  0
 17 18  1  0
 18 19  1  0
 20 19  1  1
 20 22  1  0
 21 20  1  0
 22 24  2  0
 22 23  1  0
M  END
$$$$
