TMM.pdb
     RDKit          3D

 24 23  0  0  1  0  0  0  0  0999 V2000
    7.4063  -18.3106   20.3271 C   0  0  0  0  0  0  0  0  0  0  0  0
    8.0532  -17.2008   19.5036 C   0  0  1  0  0  0  0  0  0  0  0  0
    7.4469  -17.3315   18.2176 O   0  0  0  0  0  0  0  0  0  0  0  0
    7.6633  -15.8288   19.9697 C   0  0  2  0  0  0  0  0  0  0  0  0
    8.1004  -14.8257   18.9701 N   0  0  0  0  0  0  0  0  0  0  0  0
    8.1910  -15.3868   21.2488 C   0  0  0  0  0  0  0  0  0  0  0  0
    9.3784  -14.8951   21.2676 O   0  0  0  0  0  0  0  0  0  0  0  0
    6.9336  -11.6482   26.8975 C   0  0  0  0  0  0  0  0  0  0  0  0
    5.7916  -12.5051   25.7762 S   0  0  0  0  0  0  0  0  0  0  0  0
    6.7030  -13.2192   24.3677 C   0  0  0  0  0  0  0  0  0  0  0  0
    7.3874  -14.4669   24.7751 C   0  0  0  0  0  0  0  0  0  0  0  0
    8.2523  -15.1414   23.7752 C   0  0  2  0  0  0  0  0  0  0  0  0
    7.5729  -15.4162   22.5171 N   0  0  0  0  0  0  0  0  0  0  0  0
    9.0386  -16.2760   24.2378 C   0  0  0  0  0  0  0  0  0  0  0  0
    8.5954  -17.4281   24.4686 O   0  0  0  0  0  0  0  0  0  0  0  0
   10.9168  -12.9132   29.4938 C   0  0  0  0  0  0  0  0  0  0  0  0
   10.3280  -14.5790   29.4009 S   0  0  0  0  0  0  0  0  0  0  0  0
   11.0355  -15.6414   28.1581 C   0  0  0  0  0  0  0  0  0  0  0  0
   10.5377  -15.4203   26.7856 C   0  0  0  0  0  0  0  0  0  0  0  0
   11.0533  -16.3830   25.7833 C   0  0  2  0  0  0  0  0  0  0  0  0
   10.4320  -16.1117   24.4611 N   0  0  0  0  0  0  0  0  0  0  0  0
   10.9697  -17.8000   26.1107 C   0  0  0  0  0  0  0  0  0  0  0  0
    9.7401  -18.4609   25.8689 O   0  0  0  0  0  0  0  0  0  0  0  0
   11.8950  -18.4540   26.5812 O   0  0  0  0  0  0  0  0  0  0  0  0
  2  1  1  1
  2  3  1  0
  4  6  1  0
  4  2  1  0
  4  5  1  6
  6  7  2  0
  8  9  1  0
 10 11  1  0
 10  9  1  0
 12 11  1  1
 12 14  1  0
 13 12  1  0
 13  6  1  0
 14 21  1  0
 14 15  2  0
 16 17  1  0
 17 18  1  0
 18 19  1  0
 20 19  1  1
 20 22  1  0
 21 20  1  0
 22 24  2  0
 22 23  1  0
M  END
$$$$
