TMM.pdb
     RDKit          3D

 24 23  0  0  1  0  0  0  0  0999 V2000
    9.3925  -19.2127   20.8171 C   0  0  0  0  0  0  0  0  0  0  0  0
   10.0545  -18.2117   19.8748 C   0  0  1  0  0  0  0  0  0  0  0  0
    9.7899  -18.7392   18.5748 O   0  0  0  0  0  0  0  0  0  0  0  0
    9.3807  -16.8708   19.8850 C   0  0  2  0  0  0  0  0  0  0  0  0
    9.9940  -16.0031   18.8519 N   0  0  0  0  0  0  0  0  0  0  0  0
    9.4194  -16.1173   21.1262 C   0  0  0  0  0  0  0  0  0  0  0  0
   10.5104  -15.5044   21.4194 O   0  0  0  0  0  0  0  0  0  0  0  0
    5.7931  -11.4334   25.0975 C   0  0  0  0  0  0  0  0  0  0  0  0
    5.7909  -13.1852   25.5735 S   0  0  0  0  0  0  0  0  0  0  0  0
    7.3993  -13.9501   25.1829 C   0  0  0  0  0  0  0  0  0  0  0  0
    7.3468  -14.6158   23.8617 C   0  0  0  0  0  0  0  0  0  0  0  0
    8.5791  -15.2824   23.3720 C   0  0  2  0  0  0  0  0  0  0  0  0
    8.4026  -15.9508   22.0905 N   0  0  0  0  0  0  0  0  0  0  0  0
    9.3125  -16.1018   24.3260 C   0  0  0  0  0  0  0  0  0  0  0  0
    9.4522  -17.3483   24.2649 O   0  0  0  0  0  0  0  0  0  0  0  0
   10.9964  -13.5562   30.3297 C   0  0  0  0  0  0  0  0  0  0  0  0
   11.7675  -15.1473   30.2688 S   0  0  0  0  0  0  0  0  0  0  0  0
   11.5374  -16.1255   28.7978 C   0  0  0  0  0  0  0  0  0  0  0  0
   10.8912  -15.4229   27.6712 C   0  0  0  0  0  0  0  0  0  0  0  0
   10.6637  -16.2646   26.4724 C   0  0  2  0  0  0  0  0  0  0  0  0
    9.9407  -15.4799   25.4383 N   0  0  0  0  0  0  0  0  0  0  0  0
   10.0281  -17.5597   26.6742 C   0  0  0  0  0  0  0  0  0  0  0  0
    8.6142  -17.5942   26.7577 O   0  0  0  0  0  0  0  0  0  0  0  0
   10.6393  -18.6186   26.7759 O   0  0  0  0  0  0  0  0  0  0  0  0
  2  1  1  1
  2  3  1  0
  4  6  1  0
  4  2  1  0
  4  5  1  6
  6  7  2  0
  8  9  1  0
 10 11  1  0
 10  9  1  0
 12 11  1  1
 12 14  1  0
 13 12  1  0
 13  6  1  0
 14 21  1  0
 14 15  2  0
 16 17  1  0
 17 18  1  0
 18 19  1  0
 20 19  1  1
 20 22  1  0
 21 20  1  0
 22 24  2  0
 22 23  1  0
M  END
$$$$
