TMM.pdb
     RDKit          3D

 24 23  0  0  1  0  0  0  0  0999 V2000
    6.9919  -18.0278   20.8181 C   0  0  0  0  0  0  0  0  0  0  0  0
    8.0040  -17.2364   19.9949 C   0  0  1  0  0  0  0  0  0  0  0  0
    7.5364  -17.3750   18.6530 O   0  0  0  0  0  0  0  0  0  0  0  0
    7.9475  -15.7616   20.2664 C   0  0  2  0  0  0  0  0  0  0  0  0
    8.8391  -15.0515   19.3191 N   0  0  0  0  0  0  0  0  0  0  0  0
    8.3268  -15.3159   21.5958 C   0  0  0  0  0  0  0  0  0  0  0  0
    9.5765  -15.3268   21.8958 O   0  0  0  0  0  0  0  0  0  0  0  0
    6.4246  -10.5403   26.1889 C   0  0  0  0  0  0  0  0  0  0  0  0
    6.2039  -12.2069   26.8739 S   0  0  0  0  0  0  0  0  0  0  0  0
    7.4224  -13.3552   26.1521 C   0  0  0  0  0  0  0  0  0  0  0  0
    7.0707  -13.6652   24.7480 C   0  0  0  0  0  0  0  0  0  0  0  0
    7.9524  -14.5973   24.0020 C   0  0  2  0  0  0  0  0  0  0  0  0
    7.4998  -14.8554   22.6424 N   0  0  0  0  0  0  0  0  0  0  0  0
    8.3612  -15.8142   24.6886 C   0  0  0  0  0  0  0  0  0  0  0  0
    7.6428  -16.8280   24.8715 O   0  0  0  0  0  0  0  0  0  0  0  0
   10.0553  -21.9382   25.6031 C   0  0  0  0  0  0  0  0  0  0  0  0
   10.4068  -20.6873   24.4024 S   0  0  0  0  0  0  0  0  0  0  0  0
   11.3592  -19.2765   24.9280 C   0  0  0  0  0  0  0  0  0  0  0  0
   10.7914  -17.9636   24.5615 C   0  0  0  0  0  0  0  0  0  0  0  0
   10.2401  -17.1935   25.7018 C   0  0  2  0  0  0  0  0  0  0  0  0
    9.6780  -15.9076   25.2137 N   0  0  0  0  0  0  0  0  0  0  0  0
   11.1144  -16.9724   26.8458 C   0  0  0  0  0  0  0  0  0  0  0  0
   10.7304  -17.5362   28.0875 O   0  0  0  0  0  0  0  0  0  0  0  0
   12.1589  -16.3305   26.8006 O   0  0  0  0  0  0  0  0  0  0  0  0
  2  1  1  1
  2  3  1  0
  4  6  1  0
  4  2  1  0
  4  5  1  6
  6  7  2  0
  8  9  1  0
 10 11  1  0
 10  9  1  0
 12 11  1  1
 12 14  1  0
 13 12  1  0
 13  6  1  0
 14 21  1  0
 14 15  2  0
 16 17  1  0
 17 18  1  0
 18 19  1  0
 20 19  1  6
 20 22  1  0
 21 20  1  0
 22 24  2  0
 22 23  1  0
M  END
$$$$
