TMM.pdb
     RDKit          3D

 24 23  0  0  1  0  0  0  0  0999 V2000
   12.7797  -16.3666   19.9474 C   0  0  0  0  0  0  0  0  0  0  0  0
   11.3074  -16.3254   19.5490 C   0  0  1  0  0  0  0  0  0  0  0  0
   11.2686  -17.0324   18.3093 O   0  0  0  0  0  0  0  0  0  0  0  0
   10.4336  -17.1255   20.4701 C   0  0  2  0  0  0  0  0  0  0  0  0
    9.1210  -17.3608   19.8237 N   0  0  0  0  0  0  0  0  0  0  0  0
   10.1492  -16.5572   21.7762 C   0  0  0  0  0  0  0  0  0  0  0  0
   11.1458  -16.2994   22.5457 O   0  0  0  0  0  0  0  0  0  0  0  0
    6.0044  -12.2261   26.0023 C   0  0  0  0  0  0  0  0  0  0  0  0
    7.4688  -13.2425   25.6588 S   0  0  0  0  0  0  0  0  0  0  0  0
    6.9870  -14.9823   25.4037 C   0  0  0  0  0  0  0  0  0  0  0  0
    7.3046  -15.4085   24.0220 C   0  0  0  0  0  0  0  0  0  0  0  0
    8.7034  -15.8040   23.7228 C   0  0  2  0  0  0  0  0  0  0  0  0
    8.8991  -16.2334   22.3453 N   0  0  0  0  0  0  0  0  0  0  0  0
    9.3598  -16.6877   24.6755 C   0  0  0  0  0  0  0  0  0  0  0  0
    9.2376  -17.9368   24.7196 O   0  0  0  0  0  0  0  0  0  0  0  0
   11.0147  -12.7462   28.1149 C   0  0  0  0  0  0  0  0  0  0  0  0
   10.1011  -14.1427   28.7023 S   0  0  0  0  0  0  0  0  0  0  0  0
   10.9541  -15.7022   28.8214 C   0  0  0  0  0  0  0  0  0  0  0  0
   11.6764  -16.1176   27.6024 C   0  0  0  0  0  0  0  0  0  0  0  0
   10.8891  -16.9754   26.6849 C   0  0  2  0  0  0  0  0  0  0  0  0
   10.2223  -16.1327   25.6587 N   0  0  0  0  0  0  0  0  0  0  0  0
    9.9404  -17.9039   27.2849 C   0  0  0  0  0  0  0  0  0  0  0  0
   10.4617  -19.0422   27.9478 O   0  0  0  0  0  0  0  0  0  0  0  0
    8.7223  -17.7614   27.2516 O   0  0  0  0  0  0  0  0  0  0  0  0
  2  1  1  1
  2  3  1  0
  4  6  1  0
  4  2  1  0
  4  5  1  6
  6  7  2  0
  8  9  1  0
 10 11  1  0
 10  9  1  0
 12 11  1  1
 12 14  1  0
 13 12  1  0
 13  6  1  0
 14 21  1  0
 14 15  2  0
 16 17  1  0
 17 18  1  0
 18 19  1  0
 20 19  1  1
 20 22  1  0
 21 20  1  0
 22 24  2  0
 22 23  1  0
M  END
$$$$
