TMM.pdb
     RDKit          3D

 24 23  0  0  1  0  0  0  0  0999 V2000
    8.7555  -16.7125   17.6800 C   0  0  0  0  0  0  0  0  0  0  0  0
    8.7824  -15.9903   19.0238 C   0  0  1  0  0  0  0  0  0  0  0  0
    7.4595  -16.1637   19.5318 O   0  0  0  0  0  0  0  0  0  0  0  0
    9.6672  -16.6670   20.0294 C   0  0  2  0  0  0  0  0  0  0  0  0
    9.2948  -18.0979   20.1299 N   0  0  0  0  0  0  0  0  0  0  0  0
    9.6521  -16.1453   21.3850 C   0  0  0  0  0  0  0  0  0  0  0  0
   10.6913  -15.5078   21.7916 O   0  0  0  0  0  0  0  0  0  0  0  0
    6.3810  -12.7438   26.4671 C   0  0  0  0  0  0  0  0  0  0  0  0
    7.2490  -12.7882   24.8733 S   0  0  0  0  0  0  0  0  0  0  0  0
    6.7176  -14.2371   23.9024 C   0  0  0  0  0  0  0  0  0  0  0  0
    7.4353  -15.4511   24.3521 C   0  0  0  0  0  0  0  0  0  0  0  0
    8.7455  -15.7544   23.7242 C   0  0  2  0  0  0  0  0  0  0  0  0
    8.6310  -16.2359   22.3549 N   0  0  0  0  0  0  0  0  0  0  0  0
    9.6899  -16.5374   24.5081 C   0  0  0  0  0  0  0  0  0  0  0  0
    9.9486  -17.7548   24.3397 O   0  0  0  0  0  0  0  0  0  0  0  0
    9.5015  -13.2462   30.0674 C   0  0  0  0  0  0  0  0  0  0  0  0
   10.7989  -13.7219   28.9627 S   0  0  0  0  0  0  0  0  0  0  0  0
   10.9787  -15.4548   28.5907 C   0  0  0  0  0  0  0  0  0  0  0  0
   11.8947  -15.7658   27.4750 C   0  0  0  0  0  0  0  0  0  0  0  0
   11.3260  -16.6711   26.4482 C   0  0  2  0  0  0  0  0  0  0  0  0
   10.4032  -15.9116   25.5655 N   0  0  0  0  0  0  0  0  0  0  0  0
   10.6987  -17.9009   26.9131 C   0  0  0  0  0  0  0  0  0  0  0  0
    9.2917  -17.9013   27.0785 O   0  0  0  0  0  0  0  0  0  0  0  0
   11.3114  -18.9325   27.1692 O   0  0  0  0  0  0  0  0  0  0  0  0
  2  1  1  6
  2  3  1  0
  4  6  1  0
  4  2  1  0
  4  5  1  1
  6  7  2  0
  8  9  1  0
 10 11  1  0
 10  9  1  0
 12 11  1  1
 12 14  1  0
 13 12  1  0
 13  6  1  0
 14 21  1  0
 14 15  2  0
 16 17  1  0
 17 18  1  0
 18 19  1  0
 20 19  1  1
 20 22  1  0
 21 20  1  0
 22 24  2  0
 22 23  1  0
M  END
$$$$
