TMM.pdb
     RDKit          3D

 24 23  0  0  1  0  0  0  0  0999 V2000
    7.9026  -15.9839   19.1378 C   0  0  0  0  0  0  0  0  0  0  0  0
    8.3495  -14.6168   18.6284 C   0  0  1  0  0  0  0  0  0  0  0  0
    7.7095  -14.4995   17.3575 O   0  0  0  0  0  0  0  0  0  0  0  0
    7.7927  -13.4840   19.4400 C   0  0  2  0  0  0  0  0  0  0  0  0
    8.2238  -12.1953   18.8486 N   0  0  0  0  0  0  0  0  0  0  0  0
    8.1583  -13.4308   20.8448 C   0  0  0  0  0  0  0  0  0  0  0  0
    9.3306  -12.9952   21.1411 O   0  0  0  0  0  0  0  0  0  0  0  0
    6.9744  -11.6614   28.1793 C   0  0  0  0  0  0  0  0  0  0  0  0
    6.1568  -12.5437   26.8197 S   0  0  0  0  0  0  0  0  0  0  0  0
    7.3941  -13.3691   25.7651 C   0  0  0  0  0  0  0  0  0  0  0  0
    6.9815  -13.3127   24.3446 C   0  0  0  0  0  0  0  0  0  0  0  0
    7.9060  -13.8792   23.3311 C   0  0  2  0  0  0  0  0  0  0  0  0
    7.3915  -13.7970   21.9715 N   0  0  0  0  0  0  0  0  0  0  0  0
    8.4914  -15.1799   23.6227 C   0  0  0  0  0  0  0  0  0  0  0  0
    7.8962  -16.2833   23.5498 O   0  0  0  0  0  0  0  0  0  0  0  0
   12.2288  -13.9690   21.2232 C   0  0  0  0  0  0  0  0  0  0  0  0
   12.5649  -15.6835   20.9447 S   0  0  0  0  0  0  0  0  0  0  0  0
   11.8304  -16.8648   22.0577 C   0  0  0  0  0  0  0  0  0  0  0  0
   11.8689  -16.4905   23.4855 C   0  0  0  0  0  0  0  0  0  0  0  0
   10.5569  -16.5549   24.1724 C   0  0  2  0  0  0  0  0  0  0  0  0
    9.8509  -15.2555   24.0285 N   0  0  0  0  0  0  0  0  0  0  0  0
   10.5489  -16.9945   25.5612 C   0  0  0  0  0  0  0  0  0  0  0  0
   11.0354  -18.2947   25.8439 O   0  0  0  0  0  0  0  0  0  0  0  0
   10.1483  -16.3107   26.4979 O   0  0  0  0  0  0  0  0  0  0  0  0
  2  1  1  1
  2  3  1  0
  4  6  1  0
  4  2  1  0
  4  5  1  6
  6  7  2  0
  8  9  1  0
 10 11  1  0
 10  9  1  0
 12 11  1  1
 12 14  1  0
 13 12  1  0
 13  6  1  0
 14 21  1  0
 14 15  2  0
 16 17  1  0
 17 18  1  0
 18 19  1  0
 20 19  1  1
 20 22  1  0
 21 20  1  0
 22 24  2  0
 22 23  1  0
M  END
$$$$
