TMM.pdb
     RDKit          3D

 24 23  0  0  1  0  0  0  0  0999 V2000
    5.3716  -20.5966   24.0719 C   0  0  0  0  0  0  0  0  0  0  0  0
    6.1869  -19.3315   23.8213 C   0  0  1  0  0  0  0  0  0  0  0  0
    7.4733  -19.6419   24.3575 O   0  0  0  0  0  0  0  0  0  0  0  0
    6.4342  -19.0789   22.3629 C   0  0  2  0  0  0  0  0  0  0  0  0
    7.0333  -20.2870   21.7480 N   0  0  0  0  0  0  0  0  0  0  0  0
    7.3077  -17.9704   22.0194 C   0  0  0  0  0  0  0  0  0  0  0  0
    8.5306  -18.2406   21.7303 O   0  0  0  0  0  0  0  0  0  0  0  0
    6.6587  -12.6973   18.4111 C   0  0  0  0  0  0  0  0  0  0  0  0
    7.5268  -11.9329   19.8103 S   0  0  0  0  0  0  0  0  0  0  0  0
    8.3542  -13.2087   20.8162 C   0  0  0  0  0  0  0  0  0  0  0  0
    7.4415  -14.3494   21.0554 C   0  0  0  0  0  0  0  0  0  0  0  0
    7.9866  -15.5379   21.7578 C   0  0  2  0  0  0  0  0  0  0  0  0
    7.0033  -16.5941   21.9520 N   0  0  0  0  0  0  0  0  0  0  0  0
    8.7791  -15.2940   22.9545 C   0  0  0  0  0  0  0  0  0  0  0  0
    9.8903  -14.7100   22.9900 O   0  0  0  0  0  0  0  0  0  0  0  0
    7.1756  -11.2179   27.3924 C   0  0  0  0  0  0  0  0  0  0  0  0
    6.3467  -12.5935   26.6504 S   0  0  0  0  0  0  0  0  0  0  0  0
    7.3078  -13.6856   25.6222 C   0  0  0  0  0  0  0  0  0  0  0  0
    8.2273  -14.5843   26.3483 C   0  0  0  0  0  0  0  0  0  0  0  0
    9.0288  -15.4764   25.4771 C   0  0  2  0  0  0  0  0  0  0  0  0
    8.2923  -15.7377   24.2133 N   0  0  0  0  0  0  0  0  0  0  0  0
    9.5130  -16.7215   26.0579 C   0  0  0  0  0  0  0  0  0  0  0  0
   10.3920  -16.6341   27.1656 O   0  0  0  0  0  0  0  0  0  0  0  0
    9.2078  -17.8371   25.6485 O   0  0  0  0  0  0  0  0  0  0  0  0
  2  1  1  6
  2  3  1  0
  4  6  1  0
  4  2  1  0
  4  5  1  1
  6  7  2  0
  8  9  1  0
 10 11  1  0
 10  9  1  0
 12 11  1  1
 12 14  1  0
 13 12  1  0
 13  6  1  0
 14 21  1  0
 14 15  2  0
 16 17  1  0
 17 18  1  0
 18 19  1  0
 20 19  1  1
 20 22  1  0
 21 20  1  0
 22 24  2  0
 22 23  1  0
M  END
$$$$
