TMM.pdb
     RDKit          3D

 24 23  0  0  1  0  0  0  0  0999 V2000
    8.1990  -16.5395   18.8602 C   0  0  0  0  0  0  0  0  0  0  0  0
    8.5448  -15.1340   18.3775 C   0  0  1  0  0  0  0  0  0  0  0  0
    7.9364  -15.0558   17.0882 O   0  0  0  0  0  0  0  0  0  0  0  0
    7.8704  -14.0613   19.1814 C   0  0  2  0  0  0  0  0  0  0  0  0
    8.0904  -12.7471   18.5327 N   0  0  0  0  0  0  0  0  0  0  0  0
    8.2854  -13.9079   20.5649 C   0  0  0  0  0  0  0  0  0  0  0  0
    9.3941  -13.2988   20.7922 O   0  0  0  0  0  0  0  0  0  0  0  0
    6.9380  -11.3380   27.5358 C   0  0  0  0  0  0  0  0  0  0  0  0
    6.2431  -12.5395   26.3657 S   0  0  0  0  0  0  0  0  0  0  0  0
    7.5767  -13.3499   25.4227 C   0  0  0  0  0  0  0  0  0  0  0  0
    7.1820  -13.5108   24.0050 C   0  0  0  0  0  0  0  0  0  0  0  0
    8.1465  -14.1663   23.0870 C   0  0  2  0  0  0  0  0  0  0  0  0
    7.6297  -14.3413   21.7370 N   0  0  0  0  0  0  0  0  0  0  0  0
    8.8232  -15.3579   23.5784 C   0  0  0  0  0  0  0  0  0  0  0  0
    8.3120  -16.5005   23.6798 O   0  0  0  0  0  0  0  0  0  0  0  0
   10.3413  -13.3885   28.6389 C   0  0  0  0  0  0  0  0  0  0  0  0
   10.1277  -15.1071   29.0002 S   0  0  0  0  0  0  0  0  0  0  0  0
   10.1501  -16.2513   27.6348 C   0  0  0  0  0  0  0  0  0  0  0  0
    9.7260  -15.6888   26.3371 C   0  0  0  0  0  0  0  0  0  0  0  0
   10.6731  -15.9333   25.2233 C   0  0  2  0  0  0  0  0  0  0  0  0
   10.1799  -15.2673   23.9900 N   0  0  0  0  0  0  0  0  0  0  0  0
   11.0427  -17.3155   24.9497 C   0  0  0  0  0  0  0  0  0  0  0  0
   10.4852  -17.9321   23.8024 O   0  0  0  0  0  0  0  0  0  0  0  0
   11.8041  -17.9763   25.6488 O   0  0  0  0  0  0  0  0  0  0  0  0
  2  1  1  1
  2  3  1  0
  4  6  1  0
  4  2  1  0
  4  5  1  6
  6  7  2  0
  8  9  1  0
 10 11  1  0
 10  9  1  0
 12 11  1  1
 12 14  1  0
 13 12  1  0
 13  6  1  0
 14 21  1  0
 14 15  2  0
 16 17  1  0
 17 18  1  0
 18 19  1  0
 20 19  1  1
 20 22  1  0
 21 20  1  0
 22 24  2  0
 22 23  1  0
M  END
$$$$
