TMM.pdb
     RDKit          3D

 24 23  0  0  1  0  0  0  0  0999 V2000
    9.4398  -19.1347   19.0198 C   0  0  0  0  0  0  0  0  0  0  0  0
    9.5198  -18.5048   20.4073 C   0  0  1  0  0  0  0  0  0  0  0  0
   10.8620  -18.7598   20.8217 O   0  0  0  0  0  0  0  0  0  0  0  0
    9.4106  -17.0085   20.3732 C   0  0  2  0  0  0  0  0  0  0  0  0
   10.5658  -16.4466   19.6341 N   0  0  0  0  0  0  0  0  0  0  0  0
    9.3671  -16.3164   21.6495 C   0  0  0  0  0  0  0  0  0  0  0  0
   10.4777  -15.8909   22.1367 O   0  0  0  0  0  0  0  0  0  0  0  0
    7.1612  -11.5718   27.0221 C   0  0  0  0  0  0  0  0  0  0  0  0
    7.3454  -12.3878   25.4109 S   0  0  0  0  0  0  0  0  0  0  0  0
    7.0243  -14.1759   25.5656 C   0  0  0  0  0  0  0  0  0  0  0  0
    7.0520  -14.8223   24.2342 C   0  0  0  0  0  0  0  0  0  0  0  0
    8.3217  -15.4542   23.7967 C   0  0  2  0  0  0  0  0  0  0  0  0
    8.2489  -16.0303   22.4615 N   0  0  0  0  0  0  0  0  0  0  0  0
    8.9819  -16.3396   24.7452 C   0  0  0  0  0  0  0  0  0  0  0  0
    8.7713  -17.5719   24.8649 O   0  0  0  0  0  0  0  0  0  0  0  0
    9.8145  -12.6485   28.1118 C   0  0  0  0  0  0  0  0  0  0  0  0
   10.2177  -13.8787   29.3176 S   0  0  0  0  0  0  0  0  0  0  0  0
   11.0115  -15.3690   28.7496 C   0  0  0  0  0  0  0  0  0  0  0  0
   10.1410  -16.2983   28.0020 C   0  0  0  0  0  0  0  0  0  0  0  0
   10.6362  -16.6492   26.6496 C   0  0  2  0  0  0  0  0  0  0  0  0
    9.9557  -15.8069   25.6320 N   0  0  0  0  0  0  0  0  0  0  0  0
   10.5968  -18.0538   26.2654 C   0  0  0  0  0  0  0  0  0  0  0  0
   11.8024  -18.6489   25.8186 O   0  0  0  0  0  0  0  0  0  0  0  0
    9.5878  -18.7507   26.3048 O   0  0  0  0  0  0  0  0  0  0  0  0
  2  1  1  6
  2  3  1  0
  4  6  1  0
  4  2  1  0
  4  5  1  6
  6  7  2  0
  8  9  1  0
 10 11  1  0
 10  9  1  0
 12 11  1  1
 12 14  1  0
 13 12  1  0
 13  6  1  0
 14 21  1  0
 14 15  2  0
 16 17  1  0
 17 18  1  0
 18 19  1  0
 20 19  1  1
 20 22  1  0
 21 20  1  0
 22 24  2  0
 22 23  1  0
M  END
$$$$
