QTD.pdb
     RDKit          3D

 25 24  0  0  1  0  0  0  0  0999 V2000
   17.2138  -16.4237  -16.1741 N   0  0  0  0  0  0  0  0  0  0  0  0
   17.7857  -17.6215  -15.6410 C   0  0  0  0  0  0  0  0  0  0  0  0
   17.0019  -18.5929  -15.4633 O   0  0  0  0  0  0  0  0  0  0  0  0
   19.2237  -17.6839  -15.3267 C   0  0  0  0  0  0  0  0  0  0  0  0
   19.9617  -16.3985  -15.4627 C   0  0  0  0  0  0  0  0  0  0  0  0
   21.2186  -16.4728  -16.2874 C   0  0  2  0  0  0  0  0  0  0  0  0
   22.1319  -17.4840  -15.7902 N   0  0  0  0  0  0  0  0  0  0  0  0
   21.8640  -15.1587  -16.4373 C   0  0  0  0  0  0  0  0  0  0  0  0
   22.6858  -14.7900  -15.5660 O   0  0  0  0  0  0  0  0  0  0  0  0
   23.8480  -13.6200  -19.5223 C   0  0  0  0  0  0  0  0  0  0  0  0
   22.8200  -12.6455  -18.9757 C   0  0  1  0  0  0  0  0  0  0  0  0
   21.7990  -12.4025  -19.8817 O   0  0  0  0  0  0  0  0  0  0  0  0
   22.3424  -13.0148  -17.6138 C   0  0  2  0  0  0  0  0  0  0  0  0
   21.6488  -14.2425  -17.4900 N   0  0  0  0  0  0  0  0  0  0  0  0
   21.5133  -11.8741  -17.1053 C   0  0  0  0  0  0  0  0  0  0  0  0
   20.2442  -11.9385  -17.1139 O   0  0  0  0  0  0  0  0  0  0  0  0
   22.0624  -10.6722  -16.5905 N   0  0  0  0  0  0  0  0  0  0  0  0
   21.2441   -9.5800  -16.0968 C   0  0  1  0  0  0  0  0  0  0  0  0
   21.5560   -9.4245  -14.6263 C   0  0  0  0  0  0  0  0  0  0  0  0
   20.8463   -8.2754  -14.0224 C   0  0  0  0  0  0  0  0  0  0  0  0
   19.6448   -7.9851  -14.2305 O   0  0  0  0  0  0  0  0  0  0  0  0
   21.6161   -8.2917  -16.7378 C   0  0  0  0  0  0  0  0  0  0  0  0
   22.7396   -8.2176  -17.2898 O   0  0  0  0  0  0  0  0  0  0  0  0
   21.5886   -7.4677  -13.1601 O   0  0  0  0  0  0  0  0  0  0  0  0
   20.8041   -7.1747  -16.7634 O   0  0  0  0  0  0  0  0  0  0  0  0
  2  1  1  0
  2  3  2  0
  4  2  1  0
  5  4  1  0
  6  5  1  0
  6  8  1  0
  6  7  1  1
  8  9  2  0
 11 10  1  6
 12 11  1  0
 13 11  1  0
 14  8  1  0
 13 14  1  6
 15 16  2  0
 15 13  1  0
 17 15  1  0
 18 17  1  0
 19 20  1  0
 18 19  1  1
 20 21  2  0
 22 18  1  0
 22 25  1  0
 23 22  2  0
 24 20  1  0
M  END
$$$$
