QTD.pdb
     RDKit          3D

 25 24  0  0  1  0  0  0  0  0999 V2000
   17.2913  -12.1128  -19.2590 N   0  0  0  0  0  0  0  0  0  0  0  0
   17.3858  -13.1787  -18.3099 C   0  0  0  0  0  0  0  0  0  0  0  0
   16.3258  -13.8168  -18.0675 O   0  0  0  0  0  0  0  0  0  0  0  0
   18.6739  -13.4902  -17.6663 C   0  0  0  0  0  0  0  0  0  0  0  0
   19.7900  -12.5610  -17.9925 C   0  0  0  0  0  0  0  0  0  0  0  0
   21.1106  -12.9090  -17.3599 C   0  0  2  0  0  0  0  0  0  0  0  0
   21.1131  -14.2555  -16.8206 N   0  0  0  0  0  0  0  0  0  0  0  0
   21.5339  -11.9068  -16.3688 C   0  0  0  0  0  0  0  0  0  0  0  0
   21.2172  -12.0778  -15.1683 O   0  0  0  0  0  0  0  0  0  0  0  0
   24.7762  -11.0798  -14.9346 C   0  0  0  0  0  0  0  0  0  0  0  0
   24.1813   -9.7583  -15.3874 C   0  0  1  0  0  0  0  0  0  0  0  0
   24.8941   -9.1984  -16.4365 O   0  0  0  0  0  0  0  0  0  0  0  0
   22.7140   -9.8398  -15.6310 C   0  0  2  0  0  0  0  0  0  0  0  0
   22.2809  -10.7386  -16.6352 N   0  0  0  0  0  0  0  0  0  0  0  0
   22.2278   -8.4489  -15.9070 C   0  0  0  0  0  0  0  0  0  0  0  0
   21.5738   -8.1868  -16.9645 O   0  0  0  0  0  0  0  0  0  0  0  0
   22.4519   -7.3514  -15.0373 N   0  0  0  0  0  0  0  0  0  0  0  0
   21.8812   -6.0365  -15.2645 C   0  0  1  0  0  0  0  0  0  0  0  0
   20.3884   -6.1629  -15.0659 C   0  0  0  0  0  0  0  0  0  0  0  0
   19.6981   -4.8585  -15.1681 C   0  0  0  0  0  0  0  0  0  0  0  0
   20.1796   -3.8326  -15.7038 O   0  0  0  0  0  0  0  0  0  0  0  0
   22.3529   -5.0585  -14.2497 C   0  0  0  0  0  0  0  0  0  0  0  0
   22.6617   -5.4968  -13.1161 O   0  0  0  0  0  0  0  0  0  0  0  0
   18.4165   -4.7869  -14.6209 O   0  0  0  0  0  0  0  0  0  0  0  0
   22.4720   -3.7012  -14.4765 O   0  0  0  0  0  0  0  0  0  0  0  0
  2  1  1  0
  2  3  2  0
  4  2  1  0
  5  4  1  0
  6  5  1  0
  6  8  1  0
  6  7  1  1
  8  9  2  0
 11 10  1  6
 12 11  1  0
 13 11  1  0
 14  8  1  0
 13 14  1  6
 15 16  2  0
 15 13  1  0
 17 15  1  0
 18 17  1  0
 19 20  1  0
 18 19  1  1
 20 21  2  0
 22 18  1  0
 22 25  1  0
 23 22  2  0
 24 20  1  0
M  END
$$$$
