QTD.pdb
     RDKit          3D

 25 24  0  0  1  0  0  0  0  0999 V2000
   19.9614  -13.6986  -15.3979 N   0  0  0  0  0  0  0  0  0  0  0  0
   19.1124  -14.2745  -16.3945 C   0  0  0  0  0  0  0  0  0  0  0  0
   18.9051  -15.5155  -16.3136 O   0  0  0  0  0  0  0  0  0  0  0  0
   18.5242  -13.4307  -17.4493 C   0  0  0  0  0  0  0  0  0  0  0  0
   18.8594  -11.9827  -17.3673 C   0  0  0  0  0  0  0  0  0  0  0  0
   17.9127  -11.1585  -16.5368 C   0  0  2  0  0  0  0  0  0  0  0  0
   16.5264  -11.4447  -16.8538 N   0  0  0  0  0  0  0  0  0  0  0  0
   18.2189   -9.7208  -16.6066 C   0  0  0  0  0  0  0  0  0  0  0  0
   18.2417   -9.1650  -17.7296 O   0  0  0  0  0  0  0  0  0  0  0  0
   18.0715   -5.1087  -15.2176 C   0  0  0  0  0  0  0  0  0  0  0  0
   17.6733   -6.5717  -15.1388 C   0  0  1  0  0  0  0  0  0  0  0  0
   16.4287   -6.8040  -15.7037 O   0  0  0  0  0  0  0  0  0  0  0  0
   18.7399   -7.4871  -15.6325 C   0  0  2  0  0  0  0  0  0  0  0  0
   18.4981   -8.8764  -15.5098 N   0  0  0  0  0  0  0  0  0  0  0  0
   20.0153   -7.0997  -14.9468 C   0  0  0  0  0  0  0  0  0  0  0  0
   20.2813   -7.5260  -13.7796 O   0  0  0  0  0  0  0  0  0  0  0  0
   20.9944   -6.2545  -15.5282 N   0  0  0  0  0  0  0  0  0  0  0  0
   22.2111   -5.8671  -14.8384 C   0  0  1  0  0  0  0  0  0  0  0  0
   23.0770   -5.1434  -15.8436 C   0  0  0  0  0  0  0  0  0  0  0  0
   23.5478   -6.0383  -16.9234 C   0  0  0  0  0  0  0  0  0  0  0  0
   23.7550   -7.2680  -16.7961 O   0  0  0  0  0  0  0  0  0  0  0  0
   21.9313   -4.8906  -13.7534 C   0  0  0  0  0  0  0  0  0  0  0  0
   20.9973   -4.0730  -13.9307 O   0  0  0  0  0  0  0  0  0  0  0  0
   23.7716   -5.4490  -18.1682 O   0  0  0  0  0  0  0  0  0  0  0  0
   22.6337   -4.8278  -12.5658 O   0  0  0  0  0  0  0  0  0  0  0  0
  2  1  1  0
  2  3  2  0
  4  2  1  0
  5  4  1  0
  6  5  1  0
  6  8  1  0
  6  7  1  6
  8  9  2  0
 11 10  1  6
 12 11  1  0
 13 11  1  0
 14  8  1  0
 13 14  1  1
 15 16  2  0
 15 13  1  0
 17 15  1  0
 18 17  1  0
 19 20  1  0
 18 19  1  6
 20 21  2  0
 22 18  1  0
 22 25  1  0
 23 22  2  0
 24 20  1  0
M  END
$$$$
