QTD.pdb
     RDKit          3D

 25 24  0  0  1  0  0  0  0  0999 V2000
   29.7728  -21.3923  -12.2872 N   0  0  0  0  0  0  0  0  0  0  0  0
   29.8568  -21.8083  -10.9213 C   0  0  0  0  0  0  0  0  0  0  0  0
   30.7385  -22.6658  -10.6437 O   0  0  0  0  0  0  0  0  0  0  0  0
   28.9437  -21.2422   -9.9133 C   0  0  0  0  0  0  0  0  0  0  0  0
   28.0813  -20.1267  -10.3902 C   0  0  0  0  0  0  0  0  0  0  0  0
   26.7748  -20.5528  -11.0041 C   0  0  2  0  0  0  0  0  0  0  0  0
   26.7383  -21.9800  -11.2602 N   0  0  0  0  0  0  0  0  0  0  0  0
   26.4358  -19.7598  -12.1966 C   0  0  0  0  0  0  0  0  0  0  0  0
   26.3951  -18.5113  -12.0965 O   0  0  0  0  0  0  0  0  0  0  0  0
   28.0926  -18.6783  -15.2010 C   0  0  0  0  0  0  0  0  0  0  0  0
   26.8053  -19.3316  -15.6717 C   0  0  1  0  0  0  0  0  0  0  0  0
   27.0416  -20.5106  -16.3619 O   0  0  0  0  0  0  0  0  0  0  0  0
   25.7938  -19.4610  -14.5858 C   0  0  2  0  0  0  0  0  0  0  0  0
   26.1427  -20.2721  -13.4794 N   0  0  0  0  0  0  0  0  0  0  0  0
   24.5173  -19.9302  -15.2163 C   0  0  0  0  0  0  0  0  0  0  0  0
   23.9397  -20.9854  -14.8070 O   0  0  0  0  0  0  0  0  0  0  0  0
   23.8742  -19.2547  -16.2846 N   0  0  0  0  0  0  0  0  0  0  0  0
   22.4702  -19.4393  -16.6023 C   0  0  1  0  0  0  0  0  0  0  0  0
   21.6786  -18.9026  -15.4322 C   0  0  0  0  0  0  0  0  0  0  0  0
   20.2640  -19.3340  -15.4688 C   0  0  0  0  0  0  0  0  0  0  0  0
   19.7480  -20.0232  -16.3798 O   0  0  0  0  0  0  0  0  0  0  0  0
   22.0701  -18.6270  -17.7808 C   0  0  0  0  0  0  0  0  0  0  0  0
   20.9503  -18.8578  -18.2957 O   0  0  0  0  0  0  0  0  0  0  0  0
   19.4620  -18.9327  -14.3997 O   0  0  0  0  0  0  0  0  0  0  0  0
   22.8523  -17.6367  -18.3424 O   0  0  0  0  0  0  0  0  0  0  0  0
  2  1  1  0
  2  3  2  0
  4  2  1  0
  5  4  1  0
  6  5  1  0
  6  8  1  0
  6  7  1  6
  8  9  2  0
 11 10  1  1
 12 11  1  0
 13 11  1  0
 14  8  1  0
 13 14  1  1
 15 16  2  0
 15 13  1  0
 17 15  1  0
 18 17  1  0
 19 20  1  0
 18 19  1  1
 20 21  2  0
 22 18  1  0
 22 25  1  0
 23 22  2  0
 24 20  1  0
M  END
$$$$
