QTD.pdb
     RDKit          3D

 25 24  0  0  1  0  0  0  0  0999 V2000
   25.6446  -21.1051  -12.0439 N   0  0  0  0  0  0  0  0  0  0  0  0
   26.9262  -20.9612  -11.4255 C   0  0  0  0  0  0  0  0  0  0  0  0
   27.1467  -21.6714  -10.4073 O   0  0  0  0  0  0  0  0  0  0  0  0
   27.9175  -20.0212  -11.9770 C   0  0  0  0  0  0  0  0  0  0  0  0
   27.4359  -19.1765  -13.1040 C   0  0  0  0  0  0  0  0  0  0  0  0
   26.6779  -19.9170  -14.1729 C   0  0  2  0  0  0  0  0  0  0  0  0
   27.4435  -20.0274  -15.4000 N   0  0  0  0  0  0  0  0  0  0  0  0
   25.3374  -19.3523  -14.3967 C   0  0  0  0  0  0  0  0  0  0  0  0
   25.2323  -18.1231  -14.6172 O   0  0  0  0  0  0  0  0  0  0  0  0
   23.1761  -19.7976  -17.2026 C   0  0  0  0  0  0  0  0  0  0  0  0
   22.7712  -18.8628  -16.0768 C   0  0  1  0  0  0  0  0  0  0  0  0
   21.5488  -18.2549  -16.3186 O   0  0  0  0  0  0  0  0  0  0  0  0
   22.8728  -19.4994  -14.7338 C   0  0  2  0  0  0  0  0  0  0  0  0
   24.1215  -20.0701  -14.3890 N   0  0  0  0  0  0  0  0  0  0  0  0
   21.7718  -20.5117  -14.6336 C   0  0  0  0  0  0  0  0  0  0  0  0
   22.0289  -21.7276  -14.3684 O   0  0  0  0  0  0  0  0  0  0  0  0
   20.4006  -20.2021  -14.8203 N   0  0  0  0  0  0  0  0  0  0  0  0
   19.3291  -21.0914  -14.4114 C   0  0  1  0  0  0  0  0  0  0  0  0
   19.4388  -21.2552  -12.9131 C   0  0  0  0  0  0  0  0  0  0  0  0
   18.7714  -22.4857  -12.4345 C   0  0  0  0  0  0  0  0  0  0  0  0
   18.8270  -23.6000  -13.0058 O   0  0  0  0  0  0  0  0  0  0  0  0
   17.9958  -20.4859  -14.6655 C   0  0  0  0  0  0  0  0  0  0  0  0
   17.9212  -19.2348  -14.7058 O   0  0  0  0  0  0  0  0  0  0  0  0
   18.0298  -22.3751  -11.2577 O   0  0  0  0  0  0  0  0  0  0  0  0
   16.8375  -21.2129  -14.8595 O   0  0  0  0  0  0  0  0  0  0  0  0
  2  1  1  0
  2  3  2  0
  4  2  1  0
  5  4  1  0
  6  5  1  0
  6  8  1  0
  6  7  1  6
  8  9  2  0
 11 10  1  6
 12 11  1  0
 13 11  1  0
 14  8  1  0
 13 14  1  6
 15 16  2  0
 15 13  1  0
 17 15  1  0
 18 17  1  0
 19 20  1  0
 18 19  1  1
 20 21  2  0
 22 18  1  0
 22 25  1  0
 23 22  2  0
 24 20  1  0
M  END
$$$$
