QTD.pdb
     RDKit          3D

 25 24  0  0  1  0  0  0  0  0999 V2000
   14.9913  -11.3762  -14.6244 N   0  0  0  0  0  0  0  0  0  0  0  0
   15.5482  -12.6756  -14.4073 C   0  0  0  0  0  0  0  0  0  0  0  0
   14.7361  -13.6029  -14.1423 O   0  0  0  0  0  0  0  0  0  0  0  0
   17.0036  -12.8862  -14.4974 C   0  0  0  0  0  0  0  0  0  0  0  0
   17.8064  -11.6677  -14.7907 C   0  0  0  0  0  0  0  0  0  0  0  0
   18.1226  -11.4515  -16.2463 C   0  0  2  0  0  0  0  0  0  0  0  0
   19.1060  -12.4006  -16.7322 N   0  0  0  0  0  0  0  0  0  0  0  0
   18.4984  -10.0578  -16.5329 C   0  0  0  0  0  0  0  0  0  0  0  0
   19.6960   -9.8006  -16.7976 O   0  0  0  0  0  0  0  0  0  0  0  0
   17.5452   -5.3239  -17.6975 C   0  0  0  0  0  0  0  0  0  0  0  0
   16.9906   -6.6909  -17.3381 C   0  0  1  0  0  0  0  0  0  0  0  0
   16.1963   -7.2127  -18.3476 O   0  0  0  0  0  0  0  0  0  0  0  0
   18.0402   -7.6291  -16.8509 C   0  0  2  0  0  0  0  0  0  0  0  0
   17.6266   -8.9470  -16.5412 N   0  0  0  0  0  0  0  0  0  0  0  0
   18.7069   -6.9832  -15.6739 C   0  0  0  0  0  0  0  0  0  0  0  0
   18.9141   -7.6374  -14.6044 O   0  0  0  0  0  0  0  0  0  0  0  0
   19.1454   -5.6346  -15.6619 N   0  0  0  0  0  0  0  0  0  0  0  0
   19.9265   -5.0695  -14.5770 C   0  0  1  0  0  0  0  0  0  0  0  0
   21.2361   -5.8226  -14.5372 C   0  0  0  0  0  0  0  0  0  0  0  0
   22.1751   -5.2597  -13.5422 C   0  0  0  0  0  0  0  0  0  0  0  0
   22.3028   -5.6700  -12.3646 O   0  0  0  0  0  0  0  0  0  0  0  0
   20.2734   -3.6488  -14.8421 C   0  0  0  0  0  0  0  0  0  0  0  0
   20.4247   -3.2982  -16.0365 O   0  0  0  0  0  0  0  0  0  0  0  0
   22.9679   -4.1930  -13.9671 O   0  0  0  0  0  0  0  0  0  0  0  0
   20.4389   -2.6938  -13.8581 O   0  0  0  0  0  0  0  0  0  0  0  0
  2  1  1  0
  2  3  2  0
  4  2  1  0
  5  4  1  0
  6  5  1  0
  6  8  1  0
  6  7  1  1
  8  9  2  0
 11 10  1  6
 12 11  1  0
 13 11  1  0
 14  8  1  0
 13 14  1  1
 15 16  2  0
 15 13  1  0
 17 15  1  0
 18 17  1  0
 19 20  1  0
 18 19  1  6
 20 21  2  0
 22 18  1  0
 22 25  1  0
 23 22  2  0
 24 20  1  0
M  END
$$$$
