QTD.pdb
     RDKit          3D

 25 24  0  0  1  0  0  0  0  0999 V2000
   18.9211  -14.7776  -16.2390 N   0  0  0  0  0  0  0  0  0  0  0  0
   17.6531  -14.2318  -15.8650 C   0  0  0  0  0  0  0  0  0  0  0  0
   16.6792  -15.0320  -15.8335 O   0  0  0  0  0  0  0  0  0  0  0  0
   17.5259  -12.8010  -15.5378 C   0  0  0  0  0  0  0  0  0  0  0  0
   18.7636  -11.9941  -15.7176 C   0  0  0  0  0  0  0  0  0  0  0  0
   18.6252  -10.5352  -15.3746 C   0  0  2  0  0  0  0  0  0  0  0  0
   17.2449  -10.0938  -15.4383 N   0  0  0  0  0  0  0  0  0  0  0  0
   19.5229   -9.6878  -16.1758 C   0  0  0  0  0  0  0  0  0  0  0  0
   20.4307  -10.2367  -16.8430 O   0  0  0  0  0  0  0  0  0  0  0  0
   19.1770   -8.1544  -19.3924 C   0  0  0  0  0  0  0  0  0  0  0  0
   19.5133   -7.0401  -18.4173 C   0  0  1  0  0  0  0  0  0  0  0  0
   18.4138   -6.2434  -18.1372 O   0  0  0  0  0  0  0  0  0  0  0  0
   20.2271   -7.5305  -17.2052 C   0  0  2  0  0  0  0  0  0  0  0  0
   19.4680   -8.2803  -16.2750 N   0  0  0  0  0  0  0  0  0  0  0  0
   20.8627   -6.3424  -16.5484 C   0  0  0  0  0  0  0  0  0  0  0  0
   21.7287   -5.6453  -17.1640 O   0  0  0  0  0  0  0  0  0  0  0  0
   20.5572   -5.9162  -15.2309 N   0  0  0  0  0  0  0  0  0  0  0  0
   21.2326   -4.8057  -14.5851 C   0  0  1  0  0  0  0  0  0  0  0  0
   20.1845   -4.0430  -13.8082 C   0  0  0  0  0  0  0  0  0  0  0  0
   19.3134   -3.2345  -14.6892 C   0  0  0  0  0  0  0  0  0  0  0  0
   19.6287   -2.8286  -15.8324 O   0  0  0  0  0  0  0  0  0  0  0  0
   22.2242   -5.2820  -13.5858 C   0  0  0  0  0  0  0  0  0  0  0  0
   22.1748   -6.4873  -13.2433 O   0  0  0  0  0  0  0  0  0  0  0  0
   18.0509   -2.9109  -14.1906 O   0  0  0  0  0  0  0  0  0  0  0  0
   23.1936   -4.4825  -13.0125 O   0  0  0  0  0  0  0  0  0  0  0  0
  2  1  1  0
  2  3  2  0
  4  2  1  0
  5  4  1  0
  6  5  1  0
  6  8  1  0
  6  7  1  6
  8  9  2  0
 11 10  1  1
 12 11  1  0
 13 11  1  0
 14  8  1  0
 13 14  1  1
 15 16  2  0
 15 13  1  0
 17 15  1  0
 18 17  1  0
 19 20  1  0
 18 19  1  1
 20 21  2  0
 22 18  1  0
 22 25  1  0
 23 22  2  0
 24 20  1  0
M  END
$$$$
