QTD.pdb
     RDKit          3D

 25 24  0  0  1  0  0  0  0  0999 V2000
   20.4895  -13.6419  -15.2587 N   0  0  0  0  0  0  0  0  0  0  0  0
   19.5519  -14.5713  -15.8090 C   0  0  0  0  0  0  0  0  0  0  0  0
   19.5882  -15.7475  -15.3564 O   0  0  0  0  0  0  0  0  0  0  0  0
   18.6032  -14.1424  -16.8514 C   0  0  0  0  0  0  0  0  0  0  0  0
   18.6377  -12.6926  -17.1865 C   0  0  0  0  0  0  0  0  0  0  0  0
   17.8241  -11.8117  -16.2768 C   0  0  2  0  0  0  0  0  0  0  0  0
   16.4023  -12.0672  -16.4072 N   0  0  0  0  0  0  0  0  0  0  0  0
   18.1555  -10.3871  -16.4397 C   0  0  0  0  0  0  0  0  0  0  0  0
   17.8476   -9.8174  -17.5126 O   0  0  0  0  0  0  0  0  0  0  0  0
   16.5260   -7.4932  -15.8339 C   0  0  0  0  0  0  0  0  0  0  0  0
   17.8232   -7.3369  -15.0604 C   0  0  1  0  0  0  0  0  0  0  0  0
   17.6374   -7.4906  -13.6951 O   0  0  0  0  0  0  0  0  0  0  0  0
   18.9291   -8.1663  -15.6155 C   0  0  2  0  0  0  0  0  0  0  0  0
   18.8028   -9.5703  -15.4869 N   0  0  0  0  0  0  0  0  0  0  0  0
   20.2060   -7.6816  -14.9978 C   0  0  0  0  0  0  0  0  0  0  0  0
   20.7247   -8.2936  -14.0123 O   0  0  0  0  0  0  0  0  0  0  0  0
   20.9134   -6.5388  -15.4504 N   0  0  0  0  0  0  0  0  0  0  0  0
   22.1482   -6.0830  -14.8391 C   0  0  1  0  0  0  0  0  0  0  0  0
   22.7332   -5.0334  -15.7556 C   0  0  0  0  0  0  0  0  0  0  0  0
   23.1099   -5.5890  -17.0739 C   0  0  0  0  0  0  0  0  0  0  0  0
   23.4526   -6.7771  -17.2798 O   0  0  0  0  0  0  0  0  0  0  0  0
   21.8922   -5.4043  -13.5419 C   0  0  0  0  0  0  0  0  0  0  0  0
   20.7150   -5.0542  -13.2888 O   0  0  0  0  0  0  0  0  0  0  0  0
   23.0743   -4.7076  -18.1551 O   0  0  0  0  0  0  0  0  0  0  0  0
   22.8669   -5.1359  -12.6009 O   0  0  0  0  0  0  0  0  0  0  0  0
  2  1  1  0
  2  3  2  0
  4  2  1  0
  5  4  1  0
  6  5  1  0
  6  8  1  0
  6  7  1  6
  8  9  2  0
 11 10  1  6
 12 11  1  0
 13 11  1  0
 14  8  1  0
 13 14  1  1
 15 16  2  0
 15 13  1  0
 17 15  1  0
 18 17  1  0
 19 20  1  0
 18 19  1  6
 20 21  2  0
 22 18  1  0
 22 25  1  0
 23 22  2  0
 24 20  1  0
M  END
$$$$
