QTD.pdb
     RDKit          3D

 25 24  0  0  1  0  0  0  0  0999 V2000
   19.6490  -14.4093  -15.8588 N   0  0  0  0  0  0  0  0  0  0  0  0
   18.3948  -15.0176  -15.5380 C   0  0  0  0  0  0  0  0  0  0  0  0
   18.4381  -16.1712  -15.0311 O   0  0  0  0  0  0  0  0  0  0  0  0
   17.1329  -14.3035  -15.7989 C   0  0  0  0  0  0  0  0  0  0  0  0
   17.2816  -12.9129  -16.3085 C   0  0  0  0  0  0  0  0  0  0  0  0
   16.9474  -11.8337  -15.3141 C   0  0  2  0  0  0  0  0  0  0  0  0
   15.5900  -11.9578  -14.8179 N   0  0  0  0  0  0  0  0  0  0  0  0
   17.2329  -10.4879  -15.8368 C   0  0  0  0  0  0  0  0  0  0  0  0
   17.6045  -10.3723  -17.0280 O   0  0  0  0  0  0  0  0  0  0  0  0
   15.2127   -7.7427  -17.0050 C   0  0  0  0  0  0  0  0  0  0  0  0
   16.1207   -7.1687  -15.9319 C   0  0  1  0  0  0  0  0  0  0  0  0
   15.4245   -6.8506  -14.7759 O   0  0  0  0  0  0  0  0  0  0  0  0
   17.3327   -8.0020  -15.6958 C   0  0  2  0  0  0  0  0  0  0  0  0
   17.1295   -9.2776  -15.1168 N   0  0  0  0  0  0  0  0  0  0  0  0
   18.2858   -7.1845  -14.8770 C   0  0  0  0  0  0  0  0  0  0  0  0
   18.6825   -7.5929  -13.7410 O   0  0  0  0  0  0  0  0  0  0  0  0
   18.8035   -5.9314  -15.2926 N   0  0  0  0  0  0  0  0  0  0  0  0
   19.7383   -5.1607  -14.4936 C   0  0  1  0  0  0  0  0  0  0  0  0
   21.0015   -5.9822  -14.3773 C   0  0  0  0  0  0  0  0  0  0  0  0
   22.0893   -5.2427  -13.7001 C   0  0  0  0  0  0  0  0  0  0  0  0
   21.9344   -4.4812  -12.7166 O   0  0  0  0  0  0  0  0  0  0  0  0
   20.1255   -3.8999  -15.1787 C   0  0  0  0  0  0  0  0  0  0  0  0
   20.6788   -3.0086  -14.4917 O   0  0  0  0  0  0  0  0  0  0  0  0
   23.3757   -5.4207  -14.2105 O   0  0  0  0  0  0  0  0  0  0  0  0
   19.9146   -3.6495  -16.5205 O   0  0  0  0  0  0  0  0  0  0  0  0
  2  1  1  0
  2  3  2  0
  4  2  1  0
  5  4  1  0
  6  5  1  0
  6  8  1  0
  6  7  1  6
  8  9  2  0
 11 10  1  6
 12 11  1  0
 13 11  1  0
 14  8  1  0
 13 14  1  1
 15 16  2  0
 15 13  1  0
 17 15  1  0
 18 17  1  0
 19 20  1  0
 18 19  1  6
 20 21  2  0
 22 18  1  0
 22 25  1  0
 23 22  2  0
 24 20  1  0
M  END
$$$$
