QTD.pdb
     RDKit          3D

 25 24  0  0  1  0  0  0  0  0999 V2000
   14.3070   -9.6154  -16.3463 N   0  0  0  0  0  0  0  0  0  0  0  0
   14.5455  -10.6420  -17.3132 C   0  0  0  0  0  0  0  0  0  0  0  0
   13.5772  -10.9551  -18.0575 O   0  0  0  0  0  0  0  0  0  0  0  0
   15.8696  -11.2809  -17.4093 C   0  0  0  0  0  0  0  0  0  0  0  0
   16.9000  -10.7550  -16.4727 C   0  0  0  0  0  0  0  0  0  0  0  0
   18.2744  -11.3433  -16.6462 C   0  0  2  0  0  0  0  0  0  0  0  0
   18.2995  -12.7593  -16.3326 N   0  0  0  0  0  0  0  0  0  0  0  0
   19.3001  -10.5872  -15.9099 C   0  0  0  0  0  0  0  0  0  0  0  0
   19.4390  -10.8009  -14.6829 O   0  0  0  0  0  0  0  0  0  0  0  0
   23.5154   -8.4572  -15.0714 C   0  0  0  0  0  0  0  0  0  0  0  0
   22.5481   -9.3573  -15.8195 C   0  0  1  0  0  0  0  0  0  0  0  0
   22.7437  -10.6965  -15.5185 O   0  0  0  0  0  0  0  0  0  0  0  0
   21.1321   -8.9118  -15.6948 C   0  0  2  0  0  0  0  0  0  0  0  0
   20.1697   -9.6179  -16.4558 N   0  0  0  0  0  0  0  0  0  0  0  0
   21.0947   -7.4459  -16.0058 C   0  0  0  0  0  0  0  0  0  0  0  0
   21.3566   -7.0225  -17.1750 O   0  0  0  0  0  0  0  0  0  0  0  0
   20.7739   -6.4481  -15.0505 N   0  0  0  0  0  0  0  0  0  0  0  0
   20.8040   -5.0289  -15.3526 C   0  0  1  0  0  0  0  0  0  0  0  0
   19.8578   -4.3521  -14.3880 C   0  0  0  0  0  0  0  0  0  0  0  0
   18.4397   -4.5911  -14.7350 C   0  0  0  0  0  0  0  0  0  0  0  0
   18.0376   -5.0587  -15.8263 O   0  0  0  0  0  0  0  0  0  0  0  0
   22.1470   -4.4480  -15.0921 C   0  0  0  0  0  0  0  0  0  0  0  0
   22.7972   -4.8952  -14.1175 O   0  0  0  0  0  0  0  0  0  0  0  0
   17.4960   -4.2647  -13.7603 O   0  0  0  0  0  0  0  0  0  0  0  0
   22.7218   -3.4496  -15.8540 O   0  0  0  0  0  0  0  0  0  0  0  0
  2  1  1  0
  2  3  2  0
  4  2  1  0
  5  4  1  0
  6  5  1  0
  6  8  1  0
  6  7  1  1
  8  9  2  0
 11 10  1  1
 12 11  1  0
 13 11  1  0
 14  8  1  0
 13 14  1  6
 15 16  2  0
 15 13  1  0
 17 15  1  0
 18 17  1  0
 19 20  1  0
 18 19  1  1
 20 21  2  0
 22 18  1  0
 22 25  1  0
 23 22  2  0
 24 20  1  0
M  END
$$$$
