QTD.pdb
     RDKit          3D

 25 24  0  0  1  0  0  0  0  0999 V2000
   16.6754  -12.8704  -12.6998 N   0  0  0  0  0  0  0  0  0  0  0  0
   15.5449  -13.6893  -12.3882 C   0  0  0  0  0  0  0  0  0  0  0  0
   15.7097  -14.9367  -12.4684 O   0  0  0  0  0  0  0  0  0  0  0  0
   14.2654  -13.0735  -11.9952 C   0  0  0  0  0  0  0  0  0  0  0  0
   14.2741  -11.5876  -11.9078 C   0  0  0  0  0  0  0  0  0  0  0  0
   13.9929  -11.0311  -10.5379 C   0  0  2  0  0  0  0  0  0  0  0  0
   12.6440  -11.3332  -10.0985 N   0  0  0  0  0  0  0  0  0  0  0  0
   14.3049   -9.5959  -10.4458 C   0  0  0  0  0  0  0  0  0  0  0  0
   13.4954   -8.7725  -10.9330 O   0  0  0  0  0  0  0  0  0  0  0  0
   15.8872   -5.5085   -8.4834 C   0  0  0  0  0  0  0  0  0  0  0  0
   15.5183   -6.9812   -8.4633 C   0  0  1  0  0  0  0  0  0  0  0  0
   14.2723   -7.1984   -7.8955 O   0  0  0  0  0  0  0  0  0  0  0  0
   15.7006   -7.6393   -9.7872 C   0  0  2  0  0  0  0  0  0  0  0  0
   15.4536   -9.0318   -9.8491 N   0  0  0  0  0  0  0  0  0  0  0  0
   17.0856   -7.3164  -10.2611 C   0  0  0  0  0  0  0  0  0  0  0  0
   18.1036   -7.7768   -9.6557 O   0  0  0  0  0  0  0  0  0  0  0  0
   17.3600   -6.4984  -11.3865 N   0  0  0  0  0  0  0  0  0  0  0  0
   18.6937   -6.3338  -11.9347 C   0  0  1  0  0  0  0  0  0  0  0  0
   19.0388   -7.6196  -12.6498 C   0  0  0  0  0  0  0  0  0  0  0  0
   20.3729   -7.5647  -13.2868 C   0  0  0  0  0  0  0  0  0  0  0  0
   21.3381   -6.8814  -12.8714 O   0  0  0  0  0  0  0  0  0  0  0  0
   18.7272   -5.2642  -12.9661 C   0  0  0  0  0  0  0  0  0  0  0  0
   17.6362   -4.9025  -13.4674 O   0  0  0  0  0  0  0  0  0  0  0  0
   20.5479   -8.3389  -14.4345 O   0  0  0  0  0  0  0  0  0  0  0  0
   19.8814   -4.6456  -13.4054 O   0  0  0  0  0  0  0  0  0  0  0  0
  2  1  1  0
  2  3  2  0
  4  2  1  0
  5  4  1  0
  6  5  1  0
  6  8  1  0
  6  7  1  6
  8  9  2  0
 11 10  1  6
 12 11  1  0
 13 11  1  0
 14  8  1  0
 13 14  1  1
 15 16  2  0
 15 13  1  0
 17 15  1  0
 18 17  1  0
 19 20  1  0
 18 19  1  6
 20 21  2  0
 22 18  1  0
 22 25  1  0
 23 22  2  0
 24 20  1  0
M  END
$$$$
