QTD.pdb
     RDKit          3D

 25 24  0  0  1  0  0  0  0  0999 V2000
   27.5236  -15.9787  -15.3068 N   0  0  0  0  0  0  0  0  0  0  0  0
   26.3886  -16.8306  -15.1280 C   0  0  0  0  0  0  0  0  0  0  0  0
   26.6247  -18.0415  -14.8680 O   0  0  0  0  0  0  0  0  0  0  0  0
   25.0243  -16.2876  -15.2474 C   0  0  0  0  0  0  0  0  0  0  0  0
   24.9403  -14.8158  -15.4532 C   0  0  0  0  0  0  0  0  0  0  0  0
   23.5479  -14.2823  -15.6580 C   0  0  2  0  0  0  0  0  0  0  0  0
   22.7141  -15.2157  -16.3912 N   0  0  0  0  0  0  0  0  0  0  0  0
   23.5497  -12.9393  -16.2596 C   0  0  0  0  0  0  0  0  0  0  0  0
   24.0871  -12.7839  -17.3811 O   0  0  0  0  0  0  0  0  0  0  0  0
   22.2622  -11.6162  -18.6862 C   0  0  0  0  0  0  0  0  0  0  0  0
   21.7215  -10.7583  -17.5561 C   0  0  1  0  0  0  0  0  0  0  0  0
   20.4561  -11.1601  -17.1566 O   0  0  0  0  0  0  0  0  0  0  0  0
   22.6887  -10.6073  -16.4332 C   0  0  2  0  0  0  0  0  0  0  0  0
   22.9938  -11.7729  -15.6902 N   0  0  0  0  0  0  0  0  0  0  0  0
   22.1725   -9.5192  -15.5406 C   0  0  0  0  0  0  0  0  0  0  0  0
   21.4732   -9.7958  -14.5163 O   0  0  0  0  0  0  0  0  0  0  0  0
   22.4165   -8.1399  -15.7617 N   0  0  0  0  0  0  0  0  0  0  0  0
   21.9503   -7.1026  -14.8599 C   0  0  1  0  0  0  0  0  0  0  0  0
   22.5791   -5.8062  -15.3157 C   0  0  0  0  0  0  0  0  0  0  0  0
   22.2386   -4.6757  -14.4243 C   0  0  0  0  0  0  0  0  0  0  0  0
   21.5616   -4.7698  -13.3736 O   0  0  0  0  0  0  0  0  0  0  0  0
   20.4805   -6.9109  -14.9685 C   0  0  0  0  0  0  0  0  0  0  0  0
   19.9534   -7.0662  -16.0956 O   0  0  0  0  0  0  0  0  0  0  0  0
   22.7168   -3.4198  -14.8001 O   0  0  0  0  0  0  0  0  0  0  0  0
   19.6615   -6.5733  -13.9087 O   0  0  0  0  0  0  0  0  0  0  0  0
  2  1  1  0
  2  3  2  0
  4  2  1  0
  5  4  1  0
  6  5  1  0
  6  8  1  0
  6  7  1  6
  8  9  2  0
 11 10  1  6
 12 11  1  0
 13 11  1  0
 14  8  1  0
 13 14  1  1
 15 16  2  0
 15 13  1  0
 17 15  1  0
 18 17  1  0
 19 20  1  0
 18 19  1  6
 20 21  2  0
 22 18  1  0
 22 25  1  0
 23 22  2  0
 24 20  1  0
M  END
$$$$
