QTD.pdb
     RDKit          3D

 25 24  0  0  1  0  0  0  0  0999 V2000
   15.3165  -11.0176  -14.7870 N   0  0  0  0  0  0  0  0  0  0  0  0
   15.0145  -12.4063  -14.9483 C   0  0  0  0  0  0  0  0  0  0  0  0
   13.7941  -12.7176  -15.0056 O   0  0  0  0  0  0  0  0  0  0  0  0
   16.0999  -13.3983  -15.0406 C   0  0  0  0  0  0  0  0  0  0  0  0
   17.4784  -12.8439  -14.9518 C   0  0  0  0  0  0  0  0  0  0  0  0
   18.3914  -13.2296  -16.0846 C   0  0  2  0  0  0  0  0  0  0  0  0
   18.8335  -14.6070  -15.9771 N   0  0  0  0  0  0  0  0  0  0  0  0
   19.5139  -12.2904  -16.2387 C   0  0  0  0  0  0  0  0  0  0  0  0
   20.5963  -12.5478  -15.6620 O   0  0  0  0  0  0  0  0  0  0  0  0
   21.4060  -11.0209  -19.3764 C   0  0  0  0  0  0  0  0  0  0  0  0
   20.9963   -9.8414  -18.5125 C   0  0  1  0  0  0  0  0  0  0  0  0
   20.0539   -9.0398  -19.1383 O   0  0  0  0  0  0  0  0  0  0  0  0
   20.6221  -10.2432  -17.1278 C   0  0  2  0  0  0  0  0  0  0  0  0
   19.4998  -11.0948  -16.9897 N   0  0  0  0  0  0  0  0  0  0  0  0
   20.4467   -8.9871  -16.3288 C   0  0  0  0  0  0  0  0  0  0  0  0
   19.2946   -8.6221  -15.9360 O   0  0  0  0  0  0  0  0  0  0  0  0
   21.5183   -8.1348  -15.9597 N   0  0  0  0  0  0  0  0  0  0  0  0
   21.3322   -6.9314  -15.1701 C   0  0  1  0  0  0  0  0  0  0  0  0
   22.4605   -6.8834  -14.1659 C   0  0  0  0  0  0  0  0  0  0  0  0
   22.4093   -5.6677  -13.3245 C   0  0  0  0  0  0  0  0  0  0  0  0
   21.6768   -5.5230  -12.3176 O   0  0  0  0  0  0  0  0  0  0  0  0
   21.4683   -5.7093  -16.0049 C   0  0  0  0  0  0  0  0  0  0  0  0
   21.0112   -4.6355  -15.5463 O   0  0  0  0  0  0  0  0  0  0  0  0
   23.2467   -4.6157  -13.6975 O   0  0  0  0  0  0  0  0  0  0  0  0
   22.0649   -5.6827  -17.2503 O   0  0  0  0  0  0  0  0  0  0  0  0
  2  1  1  0
  2  3  2  0
  4  2  1  0
  5  4  1  0
  6  5  1  0
  6  8  1  0
  6  7  1  1
  8  9  2  0
 11 10  1  6
 12 11  1  0
 13 11  1  0
 14  8  1  0
 13 14  1  6
 15 16  2  0
 15 13  1  0
 17 15  1  0
 18 17  1  0
 19 20  1  0
 18 19  1  1
 20 21  2  0
 22 18  1  0
 22 25  1  0
 23 22  2  0
 24 20  1  0
M  END
$$$$
