QTD.pdb
     RDKit          3D

 25 24  0  0  1  0  0  0  0  0999 V2000
   13.9716  -10.9823  -15.0299 N   0  0  0  0  0  0  0  0  0  0  0  0
   13.4259  -12.1792  -14.4683 C   0  0  0  0  0  0  0  0  0  0  0  0
   12.1716  -12.3014  -14.5052 O   0  0  0  0  0  0  0  0  0  0  0  0
   14.3139  -13.1995  -13.8843 C   0  0  0  0  0  0  0  0  0  0  0  0
   15.7617  -12.8542  -13.8758 C   0  0  0  0  0  0  0  0  0  0  0  0
   16.4769  -13.0861  -15.1796 C   0  0  2  0  0  0  0  0  0  0  0  0
   16.5794  -14.4981  -15.4958 N   0  0  0  0  0  0  0  0  0  0  0  0
   17.7801  -12.4041  -15.2283 C   0  0  0  0  0  0  0  0  0  0  0  0
   18.7729  -12.9678  -14.7115 O   0  0  0  0  0  0  0  0  0  0  0  0
   20.2159  -11.9460  -17.8248 C   0  0  0  0  0  0  0  0  0  0  0  0
   19.9453  -10.5561  -17.2768 C   0  0  1  0  0  0  0  0  0  0  0  0
   19.2646   -9.7610  -18.1861 O   0  0  0  0  0  0  0  0  0  0  0  0
   19.3315  -10.5808  -15.9197 C   0  0  2  0  0  0  0  0  0  0  0  0
   18.0376  -11.1448  -15.8126 N   0  0  0  0  0  0  0  0  0  0  0  0
   19.3528   -9.1776  -15.3929 C   0  0  0  0  0  0  0  0  0  0  0  0
   18.2820   -8.4986  -15.3087 O   0  0  0  0  0  0  0  0  0  0  0  0
   20.5317   -8.5187  -14.9603 N   0  0  0  0  0  0  0  0  0  0  0  0
   20.5473   -7.1326  -14.5304 C   0  0  1  0  0  0  0  0  0  0  0  0
   21.8680   -6.9015  -13.8331 C   0  0  0  0  0  0  0  0  0  0  0  0
   21.9786   -5.5323  -13.2840 C   0  0  0  0  0  0  0  0  0  0  0  0
   23.0532   -4.9042  -13.1350 O   0  0  0  0  0  0  0  0  0  0  0  0
   20.5239   -6.2050  -15.6915 C   0  0  0  0  0  0  0  0  0  0  0  0
   21.0594   -6.5909  -16.7576 O   0  0  0  0  0  0  0  0  0  0  0  0
   20.7857   -4.9123  -12.9104 O   0  0  0  0  0  0  0  0  0  0  0  0
   19.9508   -4.9485  -15.6694 O   0  0  0  0  0  0  0  0  0  0  0  0
  2  1  1  0
  2  3  2  0
  4  2  1  0
  5  4  1  0
  6  5  1  0
  6  8  1  0
  6  7  1  1
  8  9  2  0
 11 10  1  6
 12 11  1  0
 13 11  1  0
 14  8  1  0
 13 14  1  6
 15 16  2  0
 15 13  1  0
 17 15  1  0
 18 17  1  0
 19 20  1  0
 18 19  1  6
 20 21  2  0
 22 18  1  0
 22 25  1  0
 23 22  2  0
 24 20  1  0
M  END
$$$$
