NQH.pdb
     RDKit          3D

 28 28  0  0  1  0  0  0  0  0999 V2000
   17.9266  -16.7207  -15.7823 N   0  0  0  0  0  0  0  0  0  0  0  0
   18.8641  -16.4172  -16.7894 C   0  0  0  0  0  0  0  0  0  0  0  0
   19.6092  -17.3242  -17.2349 O   0  0  0  0  0  0  0  0  0  0  0  0
   18.9533  -15.0335  -17.3036 C   0  0  0  0  0  0  0  0  0  0  0  0
   18.0234  -14.0805  -16.6509 C   0  0  2  0  0  0  0  0  0  0  0  0
   16.6109  -14.4035  -16.9369 N   0  0  0  0  0  0  0  0  0  0  0  0
   18.2084  -12.6539  -17.0177 C   0  0  0  0  0  0  0  0  0  0  0  0
   18.7291  -12.3948  -18.1585 O   0  0  0  0  0  0  0  0  0  0  0  0
   14.2572   -8.4898  -15.7961 N   0  0  0  0  0  0  0  0  0  0  0  0
   15.2470   -7.5685  -16.1796 C   0  0  0  0  0  0  0  0  0  0  0  0
   14.9844   -6.3555  -16.2669 O   0  0  0  0  0  0  0  0  0  0  0  0
   16.6288   -8.0345  -16.4876 C   0  0  0  0  0  0  0  0  0  0  0  0
   16.6694   -9.5273  -16.3459 C   0  0  0  0  0  0  0  0  0  0  0  0
   17.9985  -10.1732  -16.5562 C   0  0  2  0  0  0  0  0  0  0  0  0
   17.8437  -11.6079  -16.1716 N   0  0  0  0  0  0  0  0  0  0  0  0
   19.1132   -9.6472  -15.7668 C   0  0  0  0  0  0  0  0  0  0  0  0
   19.2203   -9.9401  -14.5187 O   0  0  0  0  0  0  0  0  0  0  0  0
   20.1545   -8.8064  -16.2370 N   0  0  0  0  0  0  0  0  0  0  0  0
   21.2034   -8.2624  -15.3803 C   0  0  1  0  0  0  0  0  0  0  0  0
   22.4371   -7.9381  -16.1807 C   0  0  0  0  0  0  0  0  0  0  0  0
   23.0604   -9.1791  -16.6636 C   0  0  0  0  0  0  0  0  0  0  0  0
   22.6851  -10.4721  -16.3870 C   0  0  0  0  0  0  0  0  0  0  0  0
   23.5515  -11.2812  -17.0246 N   0  0  0  0  0  0  0  0  0  0  0  0
   24.4634  -10.5524  -17.6960 C   0  0  0  0  0  0  0  0  0  0  0  0
   24.1374   -9.2572  -17.4564 N   0  0  0  0  0  0  0  0  0  0  0  0
   20.7060   -7.1512  -14.5608 C   0  0  0  0  0  0  0  0  0  0  0  0
   21.2162   -6.7813  -13.3316 O   0  0  0  0  0  0  0  0  0  0  0  0
   19.7226   -6.4260  -14.9535 O   0  0  0  0  0  0  0  0  0  0  0  0
  1  2  1  0
  2  3  2  0
  4  5  1  0
  4  2  1  0
  5  6  1  6
  7  5  1  0
  7  8  2  0
 10  9  1  0
 10 12  1  0
 11 10  2  0
 13 12  1  0
 14 13  1  1
 14 15  1  0
 15  7  1  0
 16 14  1  0
 17 16  2  0
 18 16  1  0
 19 18  1  0
 19 26  1  0
 20 21  1  0
 19 20  1  6
 21 22  2  0
 23 22  1  0
 24 23  1  0
 25 24  2  0
 25 21  1  0
 26 27  1  0
 28 26  2  0
M  END
$$$$
