NQH.pdb
     RDKit          3D

 28 28  0  0  1  0  0  0  0  0999 V2000
   29.1701  -23.0266  -15.8905 N   0  0  0  0  0  0  0  0  0  0  0  0
   28.4741  -23.4965  -17.0219 C   0  0  0  0  0  0  0  0  0  0  0  0
   28.8587  -24.5465  -17.5929 O   0  0  0  0  0  0  0  0  0  0  0  0
   27.3020  -22.7428  -17.5167 C   0  0  0  0  0  0  0  0  0  0  0  0
   26.9193  -21.5876  -16.6695 C   0  0  2  0  0  0  0  0  0  0  0  0
   28.0898  -20.9759  -16.0082 N   0  0  0  0  0  0  0  0  0  0  0  0
   25.9377  -21.8801  -15.5948 C   0  0  0  0  0  0  0  0  0  0  0  0
   25.0061  -22.7201  -15.8515 O   0  0  0  0  0  0  0  0  0  0  0  0
   26.8080  -20.2371   -9.8343 N   0  0  0  0  0  0  0  0  0  0  0  0
   25.5435  -20.8127   -9.6210 C   0  0  0  0  0  0  0  0  0  0  0  0
   25.0129  -20.7783   -8.4962 O   0  0  0  0  0  0  0  0  0  0  0  0
   24.8198  -21.4742  -10.7436 C   0  0  0  0  0  0  0  0  0  0  0  0
   25.6824  -21.4088  -11.9690 C   0  0  0  0  0  0  0  0  0  0  0  0
   24.9767  -21.5294  -13.2787 C   0  0  2  0  0  0  0  0  0  0  0  0
   25.9961  -21.2755  -14.3401 N   0  0  0  0  0  0  0  0  0  0  0  0
   23.8803  -20.5901  -13.5195 C   0  0  0  0  0  0  0  0  0  0  0  0
   24.1292  -19.3766  -13.8667 O   0  0  0  0  0  0  0  0  0  0  0  0
   22.4936  -20.8701  -13.4142 N   0  0  0  0  0  0  0  0  0  0  0  0
   21.4528  -20.0324  -14.0015 C   0  0  1  0  0  0  0  0  0  0  0  0
   21.7491  -19.7426  -15.4493 C   0  0  0  0  0  0  0  0  0  0  0  0
   20.7490  -18.8088  -15.9871 C   0  0  0  0  0  0  0  0  0  0  0  0
   19.9476  -17.9388  -15.2868 C   0  0  0  0  0  0  0  0  0  0  0  0
   19.1753  -17.3005  -16.1856 N   0  0  0  0  0  0  0  0  0  0  0  0
   19.4546  -17.7311  -17.4306 C   0  0  0  0  0  0  0  0  0  0  0  0
   20.4300  -18.6624  -17.2799 N   0  0  0  0  0  0  0  0  0  0  0  0
   20.1157  -20.5861  -13.7580 C   0  0  0  0  0  0  0  0  0  0  0  0
   19.6828  -21.8287  -14.1784 O   0  0  0  0  0  0  0  0  0  0  0  0
   19.2290  -19.9188  -13.1133 O   0  0  0  0  0  0  0  0  0  0  0  0
  1  2  1  0
  2  3  2  0
  4  5  1  0
  4  2  1  0
  5  6  1  1
  7  5  1  0
  7  8  2  0
 10  9  1  0
 10 12  1  0
 11 10  2  0
 13 12  1  0
 14 13  1  1
 14 15  1  0
 15  7  1  0
 16 14  1  0
 17 16  2  0
 18 16  1  0
 19 18  1  0
 19 26  1  0
 20 21  1  0
 19 20  1  6
 21 22  2  0
 23 22  1  0
 24 23  1  0
 25 24  2  0
 25 21  1  0
 26 27  1  0
 28 26  2  0
M  END
$$$$
