NQH.pdb
     RDKit          3D

 28 28  0  0  1  0  0  0  0  0999 V2000
   20.5068  -17.9494   13.0807 N   0  0  0  0  0  0  0  0  0  0  0  0
   21.4070  -16.9448   12.6735 C   0  0  0  0  0  0  0  0  0  0  0  0
   22.1829  -16.4307   13.5162 O   0  0  0  0  0  0  0  0  0  0  0  0
   21.4209  -16.5138   11.2590 C   0  0  0  0  0  0  0  0  0  0  0  0
   21.3923  -17.6292   10.2825 C   0  0  2  0  0  0  0  0  0  0  0  0
   22.7024  -18.3025   10.1744 N   0  0  0  0  0  0  0  0  0  0  0  0
   20.9976  -17.2588    8.9000 C   0  0  0  0  0  0  0  0  0  0  0  0
   21.9313  -17.0683    8.0448 O   0  0  0  0  0  0  0  0  0  0  0  0
   16.6823  -19.8457    5.9836 N   0  0  0  0  0  0  0  0  0  0  0  0
   16.8323  -18.8248    5.0292 C   0  0  0  0  0  0  0  0  0  0  0  0
   16.2236  -18.8758    3.9453 O   0  0  0  0  0  0  0  0  0  0  0  0
   17.7256  -17.6639    5.3045 C   0  0  0  0  0  0  0  0  0  0  0  0
   18.3369  -17.8462    6.6621 C   0  0  0  0  0  0  0  0  0  0  0  0
   19.2698  -16.7724    7.1143 C   0  0  2  0  0  0  0  0  0  0  0  0
   19.6665  -17.1102    8.5138 N   0  0  0  0  0  0  0  0  0  0  0  0
   18.7322  -15.4115    7.1495 C   0  0  0  0  0  0  0  0  0  0  0  0
   18.0258  -15.0180    8.1502 O   0  0  0  0  0  0  0  0  0  0  0  0
   18.9071  -14.4115    6.1587 N   0  0  0  0  0  0  0  0  0  0  0  0
   18.2631  -13.1028    6.2084 C   0  0  1  0  0  0  0  0  0  0  0  0
   19.0535  -12.0846    5.4297 C   0  0  0  0  0  0  0  0  0  0  0  0
   20.1691  -11.5857    6.2473 C   0  0  0  0  0  0  0  0  0  0  0  0
   20.4156  -11.8353    7.5764 C   0  0  0  0  0  0  0  0  0  0  0  0
   21.5303  -11.1571    7.9068 N   0  0  0  0  0  0  0  0  0  0  0  0
   22.0022  -10.4858    6.8390 C   0  0  0  0  0  0  0  0  0  0  0  0
   21.1431  -10.7677    5.8272 N   0  0  0  0  0  0  0  0  0  0  0  0
   16.8474  -13.1854    5.8307 C   0  0  0  0  0  0  0  0  0  0  0  0
   16.2001  -14.3365    5.4255 O   0  0  0  0  0  0  0  0  0  0  0  0
   16.0933  -12.1471    5.8534 O   0  0  0  0  0  0  0  0  0  0  0  0
  1  2  1  0
  2  3  2  0
  4  5  1  0
  4  2  1  0
  5  6  1  6
  7  5  1  0
  7  8  2  0
 10  9  1  0
 10 12  1  0
 11 10  2  0
 13 12  1  0
 14 13  1  1
 14 15  1  0
 15  7  1  0
 16 14  1  0
 17 16  2  0
 18 16  1  0
 19 18  1  0
 19 26  1  0
 20 21  1  0
 19 20  1  6
 21 22  2  0
 23 22  1  0
 24 23  1  0
 25 24  2  0
 25 21  1  0
 26 27  1  0
 28 26  2  0
M  END
$$$$
