NQH.pdb
     RDKit          3D

 28 28  0  0  1  0  0  0  0  0999 V2000
   14.4147  -12.6229  -17.1004 N   0  0  0  0  0  0  0  0  0  0  0  0
   15.3117  -11.5474  -16.9456 C   0  0  0  0  0  0  0  0  0  0  0  0
   15.6020  -10.8360  -17.9385 O   0  0  0  0  0  0  0  0  0  0  0  0
   15.8959  -11.2765  -15.6144 C   0  0  0  0  0  0  0  0  0  0  0  0
   17.3439  -10.9582  -15.6384 C   0  0  2  0  0  0  0  0  0  0  0  0
   18.1678  -12.1538  -15.9095 N   0  0  0  0  0  0  0  0  0  0  0  0
   17.8857  -10.3503  -14.3969 C   0  0  0  0  0  0  0  0  0  0  0  0
   17.8843  -11.0646  -13.3343 O   0  0  0  0  0  0  0  0  0  0  0  0
   21.9170   -5.8533  -14.5756 N   0  0  0  0  0  0  0  0  0  0  0  0
   21.7096   -5.7882  -13.1869 C   0  0  0  0  0  0  0  0  0  0  0  0
   22.3705   -5.0033  -12.4834 O   0  0  0  0  0  0  0  0  0  0  0  0
   20.6918   -6.6620  -12.5372 C   0  0  0  0  0  0  0  0  0  0  0  0
   20.0738   -7.5347  -13.5891 C   0  0  0  0  0  0  0  0  0  0  0  0
   19.0042   -8.4674  -13.1265 C   0  0  2  0  0  0  0  0  0  0  0  0
   18.3818   -9.0484  -14.3534 N   0  0  0  0  0  0  0  0  0  0  0  0
   17.9160   -7.8780  -12.3452 C   0  0  0  0  0  0  0  0  0  0  0  0
   17.1713   -6.9620  -12.8567 O   0  0  0  0  0  0  0  0  0  0  0  0
   17.5570   -8.2145  -11.0146 N   0  0  0  0  0  0  0  0  0  0  0  0
   16.4225   -7.6261  -10.3100 C   0  0  1  0  0  0  0  0  0  0  0  0
   15.6240   -8.6855   -9.5973 C   0  0  0  0  0  0  0  0  0  0  0  0
   14.4493   -8.0784   -8.9543 C   0  0  0  0  0  0  0  0  0  0  0  0
   14.1131   -6.7466   -8.9018 C   0  0  0  0  0  0  0  0  0  0  0  0
   12.9715   -6.6537   -8.1949 N   0  0  0  0  0  0  0  0  0  0  0  0
   12.5687   -7.8752   -7.7958 C   0  0  0  0  0  0  0  0  0  0  0  0
   13.4990   -8.7373   -8.2781 N   0  0  0  0  0  0  0  0  0  0  0  0
   16.8409   -6.5086   -9.4557 C   0  0  0  0  0  0  0  0  0  0  0  0
   16.1624   -5.3125   -9.3247 O   0  0  0  0  0  0  0  0  0  0  0  0
   17.9104   -6.5780   -8.7496 O   0  0  0  0  0  0  0  0  0  0  0  0
  1  2  1  0
  2  3  2  0
  4  5  1  0
  4  2  1  0
  5  6  1  1
  7  5  1  0
  7  8  2  0
 10  9  1  0
 10 12  1  0
 11 10  2  0
 13 12  1  0
 14 13  1  6
 14 15  1  0
 15  7  1  0
 16 14  1  0
 17 16  2  0
 18 16  1  0
 19 18  1  0
 19 26  1  0
 20 21  1  0
 19 20  1  1
 21 22  2  0
 23 22  1  0
 24 23  1  0
 25 24  2  0
 25 21  1  0
 26 27  1  0
 28 26  2  0
M  END
$$$$
