NQH.pdb
     RDKit          3D

 28 28  0  0  1  0  0  0  0  0999 V2000
   17.2775  -11.2268  -18.8460 N   0  0  0  0  0  0  0  0  0  0  0  0
   16.8812  -10.5493  -17.6758 C   0  0  0  0  0  0  0  0  0  0  0  0
   15.6946  -10.1557  -17.5605 O   0  0  0  0  0  0  0  0  0  0  0  0
   17.8721  -10.3138  -16.6037 C   0  0  0  0  0  0  0  0  0  0  0  0
   19.2080  -10.8997  -16.8702 C   0  0  2  0  0  0  0  0  0  0  0  0
   19.2495  -12.3435  -16.5616 N   0  0  0  0  0  0  0  0  0  0  0  0
   20.3366  -10.2816  -16.1296 C   0  0  0  0  0  0  0  0  0  0  0  0
   20.4611  -10.5665  -14.8875 O   0  0  0  0  0  0  0  0  0  0  0  0
   26.0798   -9.2622  -15.5154 N   0  0  0  0  0  0  0  0  0  0  0  0
   25.4335  -10.5013  -15.6663 C   0  0  0  0  0  0  0  0  0  0  0  0
   25.9859  -11.5534  -15.2979 O   0  0  0  0  0  0  0  0  0  0  0  0
   24.0734  -10.5707  -16.2718 C   0  0  0  0  0  0  0  0  0  0  0  0
   23.6240   -9.1759  -16.5918 C   0  0  0  0  0  0  0  0  0  0  0  0
   22.3383   -8.7392  -15.9719 C   0  0  2  0  0  0  0  0  0  0  0  0
   21.2445   -9.4131  -16.7333 N   0  0  0  0  0  0  0  0  0  0  0  0
   22.0495   -7.3048  -16.0074 C   0  0  0  0  0  0  0  0  0  0  0  0
   21.9915   -6.6816  -17.1313 O   0  0  0  0  0  0  0  0  0  0  0  0
   21.8077   -6.4670  -14.8884 N   0  0  0  0  0  0  0  0  0  0  0  0
   21.5205   -5.0400  -14.9940 C   0  0  1  0  0  0  0  0  0  0  0  0
   20.1613   -4.7218  -14.4291 C   0  0  0  0  0  0  0  0  0  0  0  0
   19.1147   -5.2389  -15.3230 C   0  0  0  0  0  0  0  0  0  0  0  0
   19.2449   -5.6261  -16.6354 C   0  0  0  0  0  0  0  0  0  0  0  0
   18.0258   -6.0090  -17.0584 N   0  0  0  0  0  0  0  0  0  0  0  0
   17.1253   -5.8801  -16.0654 C   0  0  0  0  0  0  0  0  0  0  0  0
   17.8239   -5.4027  -15.0046 N   0  0  0  0  0  0  0  0  0  0  0  0
   22.6103   -4.2296  -14.4378 C   0  0  0  0  0  0  0  0  0  0  0  0
   22.6754   -2.8505  -14.4810 O   0  0  0  0  0  0  0  0  0  0  0  0
   23.6131   -4.7780  -13.8539 O   0  0  0  0  0  0  0  0  0  0  0  0
  1  2  1  0
  2  3  2  0
  4  5  1  0
  4  2  1  0
  5  6  1  1
  7  5  1  0
  7  8  2  0
 10  9  1  0
 10 12  1  0
 11 10  2  0
 13 12  1  0
 14 13  1  6
 14 15  1  0
 15  7  1  0
 16 14  1  0
 17 16  2  0
 18 16  1  0
 19 18  1  0
 19 26  1  0
 20 21  1  0
 19 20  1  1
 21 22  2  0
 23 22  1  0
 24 23  1  0
 25 24  2  0
 25 21  1  0
 26 27  1  0
 28 26  2  0
M  END
$$$$
