NQH.pdb
     RDKit          3D

 28 28  0  0  1  0  0  0  0  0999 V2000
   16.1843   -9.2342  -15.2917 N   0  0  0  0  0  0  0  0  0  0  0  0
   16.6861   -7.9192  -15.2279 C   0  0  0  0  0  0  0  0  0  0  0  0
   15.9800   -6.9667  -15.6407 O   0  0  0  0  0  0  0  0  0  0  0  0
   18.0377   -7.6850  -14.6754 C   0  0  0  0  0  0  0  0  0  0  0  0
   18.7335   -8.9153  -14.2269 C   0  0  2  0  0  0  0  0  0  0  0  0
   18.1149   -9.4888  -13.0144 N   0  0  0  0  0  0  0  0  0  0  0  0
   20.1785   -8.7584  -13.9245 C   0  0  0  0  0  0  0  0  0  0  0  0
   20.5053   -8.4349  -12.7296 O   0  0  0  0  0  0  0  0  0  0  0  0
   24.5529  -11.5053  -17.0811 N   0  0  0  0  0  0  0  0  0  0  0  0
   25.3987  -10.8320  -16.1828 C   0  0  0  0  0  0  0  0  0  0  0  0
   26.6159  -11.0867  -16.1460 O   0  0  0  0  0  0  0  0  0  0  0  0
   24.8461   -9.8006  -15.2596 C   0  0  0  0  0  0  0  0  0  0  0  0
   23.3577   -9.7513  -15.4384 C   0  0  0  0  0  0  0  0  0  0  0  0
   22.6233   -8.7731  -14.5831 C   0  0  2  0  0  0  0  0  0  0  0  0
   21.1709   -8.9446  -14.8855 N   0  0  0  0  0  0  0  0  0  0  0  0
   22.9301   -7.3580  -14.7972 C   0  0  0  0  0  0  0  0  0  0  0  0
   24.1297   -6.9221  -14.6361 O   0  0  0  0  0  0  0  0  0  0  0  0
   22.0138   -6.3477  -15.1871 N   0  0  0  0  0  0  0  0  0  0  0  0
   22.3809   -4.9456  -15.3579 C   0  0  1  0  0  0  0  0  0  0  0  0
   21.4887   -4.2755  -16.3692 C   0  0  0  0  0  0  0  0  0  0  0  0
   21.7143   -4.8594  -17.6996 C   0  0  0  0  0  0  0  0  0  0  0  0
   22.7918   -5.6015  -18.1212 C   0  0  0  0  0  0  0  0  0  0  0  0
   22.5816   -5.9055  -19.4155 N   0  0  0  0  0  0  0  0  0  0  0  0
   21.4118   -5.3852  -19.8333 C   0  0  0  0  0  0  0  0  0  0  0  0
   20.8963   -4.7441  -18.7542 N   0  0  0  0  0  0  0  0  0  0  0  0
   22.4608   -4.2497  -14.0683 C   0  0  0  0  0  0  0  0  0  0  0  0
   22.6800   -2.8950  -13.9099 O   0  0  0  0  0  0  0  0  0  0  0  0
   22.3279   -4.8863  -12.9619 O   0  0  0  0  0  0  0  0  0  0  0  0
  1  2  1  0
  2  3  2  0
  4  5  1  0
  4  2  1  0
  5  6  1  1
  7  5  1  0
  7  8  2  0
 10  9  1  0
 10 12  1  0
 11 10  2  0
 13 12  1  0
 14 13  1  6
 14 15  1  0
 15  7  1  0
 16 14  1  0
 17 16  2  0
 18 16  1  0
 19 18  1  0
 19 26  1  0
 20 21  1  0
 19 20  1  6
 21 22  2  0
 23 22  1  0
 24 23  1  0
 25 24  2  0
 25 21  1  0
 26 27  1  0
 28 26  2  0
M  END
$$$$
