NQH.pdb
     RDKit          3D

 28 28  0  0  1  0  0  0  0  0999 V2000
   26.1262  -17.0067  -18.7456 N   0  0  0  0  0  0  0  0  0  0  0  0
   26.5127  -15.6823  -19.0321 C   0  0  0  0  0  0  0  0  0  0  0  0
   27.6968  -15.4437  -19.3746 O   0  0  0  0  0  0  0  0  0  0  0  0
   25.5149  -14.5963  -18.9235 C   0  0  0  0  0  0  0  0  0  0  0  0
   24.1583  -15.0527  -18.5360 C   0  0  2  0  0  0  0  0  0  0  0  0
   23.6404  -16.0872  -19.4542 N   0  0  0  0  0  0  0  0  0  0  0  0
   23.1208  -13.9926  -18.4730 C   0  0  0  0  0  0  0  0  0  0  0  0
   22.0883  -14.1246  -19.2184 O   0  0  0  0  0  0  0  0  0  0  0  0
   18.7896  -13.9686  -16.3003 N   0  0  0  0  0  0  0  0  0  0  0  0
   18.6081  -12.5773  -16.3845 C   0  0  0  0  0  0  0  0  0  0  0  0
   17.5123  -12.0624  -16.0982 O   0  0  0  0  0  0  0  0  0  0  0  0
   19.7301  -11.6980  -16.8197 C   0  0  0  0  0  0  0  0  0  0  0  0
   20.9272  -12.5578  -17.0980 C   0  0  0  0  0  0  0  0  0  0  0  0
   22.1636  -11.8447  -17.5344 C   0  0  2  0  0  0  0  0  0  0  0  0
   23.2373  -12.8767  -17.6458 N   0  0  0  0  0  0  0  0  0  0  0  0
   22.6724  -10.8081  -16.6349 C   0  0  0  0  0  0  0  0  0  0  0  0
   23.0635  -11.1132  -15.4478 O   0  0  0  0  0  0  0  0  0  0  0  0
   22.7983   -9.4261  -16.9291 N   0  0  0  0  0  0  0  0  0  0  0  0
   23.2610   -8.4332  -15.9648 C   0  0  1  0  0  0  0  0  0  0  0  0
   24.3991   -7.6248  -16.5295 C   0  0  0  0  0  0  0  0  0  0  0  0
   25.5944   -8.4702  -16.6643 C   0  0  0  0  0  0  0  0  0  0  0  0
   25.7330   -9.7930  -16.3172 C   0  0  0  0  0  0  0  0  0  0  0  0
   27.0014  -10.1455  -16.5977 N   0  0  0  0  0  0  0  0  0  0  0  0
   27.6749   -9.0978  -17.1097 C   0  0  0  0  0  0  0  0  0  0  0  0
   26.7829   -8.0756  -17.1402 N   0  0  0  0  0  0  0  0  0  0  0  0
   22.1487   -7.6290  -15.4453 C   0  0  0  0  0  0  0  0  0  0  0  0
   20.8331   -7.7379  -15.8519 O   0  0  0  0  0  0  0  0  0  0  0  0
   22.3406   -6.7358  -14.5439 O   0  0  0  0  0  0  0  0  0  0  0  0
  1  2  1  0
  2  3  2  0
  4  5  1  0
  4  2  1  0
  5  6  1  6
  7  5  1  0
  7  8  2  0
 10  9  1  0
 10 12  1  0
 11 10  2  0
 13 12  1  0
 14 13  1  1
 14 15  1  0
 15  7  1  0
 16 14  1  0
 17 16  2  0
 18 16  1  0
 19 18  1  0
 19 26  1  0
 20 21  1  0
 19 20  1  6
 21 22  2  0
 23 22  1  0
 24 23  1  0
 25 24  2  0
 25 21  1  0
 26 27  1  0
 28 26  2  0
M  END
$$$$
