NQH.pdb
     RDKit          3D

 28 28  0  0  1  0  0  0  0  0999 V2000
   14.6834  -13.6221  -15.5314 N   0  0  0  0  0  0  0  0  0  0  0  0
   15.7758  -14.3847  -15.0726 C   0  0  0  0  0  0  0  0  0  0  0  0
   15.5668  -15.4796  -14.4948 O   0  0  0  0  0  0  0  0  0  0  0  0
   17.1502  -13.8802  -15.2802 C   0  0  0  0  0  0  0  0  0  0  0  0
   17.2192  -12.5617  -15.9553 C   0  0  2  0  0  0  0  0  0  0  0  0
   16.9176  -12.6632  -17.3976 N   0  0  0  0  0  0  0  0  0  0  0  0
   18.5213  -11.8565  -15.8493 C   0  0  0  0  0  0  0  0  0  0  0  0
   19.0027  -11.6673  -14.6780 O   0  0  0  0  0  0  0  0  0  0  0  0
   22.6124  -11.9092  -20.3380 N   0  0  0  0  0  0  0  0  0  0  0  0
   22.6732  -12.8493  -19.2948 C   0  0  0  0  0  0  0  0  0  0  0  0
   23.2756  -13.9271  -19.4471 O   0  0  0  0  0  0  0  0  0  0  0  0
   22.0144  -12.5658  -17.9883 C   0  0  0  0  0  0  0  0  0  0  0  0
   21.3344  -11.2318  -18.0786 C   0  0  0  0  0  0  0  0  0  0  0  0
   20.5813  -10.7927  -16.8670 C   0  0  2  0  0  0  0  0  0  0  0  0
   19.2199  -11.3986  -16.9653 N   0  0  0  0  0  0  0  0  0  0  0  0
   20.3862   -9.3512  -16.7054 C   0  0  0  0  0  0  0  0  0  0  0  0
   19.4039   -8.7593  -17.2883 O   0  0  0  0  0  0  0  0  0  0  0  0
   21.1931   -8.4736  -15.9364 N   0  0  0  0  0  0  0  0  0  0  0  0
   21.0331   -7.0230  -15.9325 C   0  0  1  0  0  0  0  0  0  0  0  0
   21.1690   -6.4708  -14.5380 C   0  0  0  0  0  0  0  0  0  0  0  0
   21.0777   -5.0037  -14.5701 C   0  0  0  0  0  0  0  0  0  0  0  0
   22.0993   -4.1007  -14.7439 C   0  0  0  0  0  0  0  0  0  0  0  0
   21.5559   -2.8708  -14.6820 N   0  0  0  0  0  0  0  0  0  0  0  0
   20.2279   -2.9570  -14.4755 C   0  0  0  0  0  0  0  0  0  0  0  0
   19.9584   -4.2853  -14.4102 N   0  0  0  0  0  0  0  0  0  0  0  0
   21.9064   -6.3829  -16.9230 C   0  0  0  0  0  0  0  0  0  0  0  0
   21.5970   -5.2386  -17.6321 O   0  0  0  0  0  0  0  0  0  0  0  0
   23.0599   -6.8707  -17.2036 O   0  0  0  0  0  0  0  0  0  0  0  0
  1  2  1  0
  2  3  2  0
  4  5  1  0
  4  2  1  0
  5  6  1  6
  7  5  1  0
  7  8  2  0
 10  9  1  0
 10 12  1  0
 11 10  2  0
 13 12  1  0
 14 13  1  6
 14 15  1  0
 15  7  1  0
 16 14  1  0
 17 16  2  0
 18 16  1  0
 19 18  1  0
 19 26  1  0
 20 21  1  0
 19 20  1  1
 21 22  2  0
 23 22  1  0
 24 23  1  0
 25 24  2  0
 25 21  1  0
 26 27  1  0
 28 26  2  0
M  END
$$$$
