NQH.pdb
     RDKit          3D

 28 28  0  0  1  0  0  0  0  0999 V2000
   35.5555  -24.9087  -19.1866 N   0  0  0  0  0  0  0  0  0  0  0  0
   34.2585  -25.1701  -19.6712 C   0  0  0  0  0  0  0  0  0  0  0  0
   33.4762  -24.2134  -19.8928 O   0  0  0  0  0  0  0  0  0  0  0  0
   33.8420  -26.5688  -19.9098 C   0  0  0  0  0  0  0  0  0  0  0  0
   34.8419  -27.5813  -19.4927 C   0  0  2  0  0  0  0  0  0  0  0  0
   36.0611  -27.5289  -20.3247 N   0  0  0  0  0  0  0  0  0  0  0  0
   34.3758  -28.9905  -19.5227 C   0  0  0  0  0  0  0  0  0  0  0  0
   34.4033  -29.6031  -20.6467 O   0  0  0  0  0  0  0  0  0  0  0  0
   34.6342  -32.7437  -14.8055 N   0  0  0  0  0  0  0  0  0  0  0  0
   33.6938  -33.5068  -15.5189 C   0  0  0  0  0  0  0  0  0  0  0  0
   33.2762  -34.5863  -15.0626 O   0  0  0  0  0  0  0  0  0  0  0  0
   33.1831  -33.0308  -16.8357 C   0  0  0  0  0  0  0  0  0  0  0  0
   33.7413  -31.6630  -17.0955 C   0  0  0  0  0  0  0  0  0  0  0  0
   33.4206  -31.0618  -18.4235 C   0  0  2  0  0  0  0  0  0  0  0  0
   33.9133  -29.6525  -18.3865 N   0  0  0  0  0  0  0  0  0  0  0  0
   32.0045  -30.9996  -18.7882 C   0  0  0  0  0  0  0  0  0  0  0  0
   31.3178  -29.9387  -18.5475 O   0  0  0  0  0  0  0  0  0  0  0  0
   31.2510  -32.0252  -19.4151 N   0  0  0  0  0  0  0  0  0  0  0  0
   29.8582  -31.8709  -19.8229 C   0  0  1  0  0  0  0  0  0  0  0  0
   29.1453  -30.8824  -18.9383 C   0  0  0  0  0  0  0  0  0  0  0  0
   27.7362  -30.7739  -19.3438 C   0  0  0  0  0  0  0  0  0  0  0  0
   26.8797  -31.7916  -19.6904 C   0  0  0  0  0  0  0  0  0  0  0  0
   25.7005  -31.2260  -20.0087 N   0  0  0  0  0  0  0  0  0  0  0  0
   25.7742  -29.8877  -19.8778 C   0  0  0  0  0  0  0  0  0  0  0  0
   27.0421  -29.6348  -19.4660 N   0  0  0  0  0  0  0  0  0  0  0  0
   29.7466  -31.5866  -21.2583 C   0  0  0  0  0  0  0  0  0  0  0  0
   30.4003  -30.5641  -21.9179 O   0  0  0  0  0  0  0  0  0  0  0  0
   29.0004  -32.3012  -22.0197 O   0  0  0  0  0  0  0  0  0  0  0  0
  1  2  1  0
  2  3  2  0
  4  5  1  0
  4  2  1  0
  5  6  1  6
  7  5  1  0
  7  8  2  0
 10  9  1  0
 10 12  1  0
 11 10  2  0
 13 12  1  0
 14 13  1  1
 14 15  1  0
 15  7  1  0
 16 14  1  0
 17 16  2  0
 18 16  1  0
 19 18  1  0
 19 26  1  0
 20 21  1  0
 19 20  1  1
 21 22  2  0
 23 22  1  0
 24 23  1  0
 25 24  2  0
 25 21  1  0
 26 27  1  0
 28 26  2  0
M  END
$$$$
