NQH.pdb
     RDKit          3D

 28 28  0  0  1  0  0  0  0  0999 V2000
   27.2097  -13.4980  -15.7099 N   0  0  0  0  0  0  0  0  0  0  0  0
   27.2350  -12.0907  -15.7743 C   0  0  0  0  0  0  0  0  0  0  0  0
   28.3060  -11.4796  -15.5379 O   0  0  0  0  0  0  0  0  0  0  0  0
   25.9975  -11.3584  -16.1194 C   0  0  0  0  0  0  0  0  0  0  0  0
   24.8297  -12.2309  -16.3914 C   0  0  2  0  0  0  0  0  0  0  0  0
   25.0451  -13.0891  -17.5741 N   0  0  0  0  0  0  0  0  0  0  0  0
   23.5429  -11.5253  -16.6159 C   0  0  0  0  0  0  0  0  0  0  0  0
   23.2968  -11.0967  -17.7970 O   0  0  0  0  0  0  0  0  0  0  0  0
   18.4791  -13.7052  -15.5748 N   0  0  0  0  0  0  0  0  0  0  0  0
   17.9349  -12.4134  -15.6793 C   0  0  0  0  0  0  0  0  0  0  0  0
   16.7025  -12.2427  -15.6783 O   0  0  0  0  0  0  0  0  0  0  0  0
   18.8305  -11.2275  -15.7930 C   0  0  0  0  0  0  0  0  0  0  0  0
   20.2531  -11.6979  -15.7221 C   0  0  0  0  0  0  0  0  0  0  0  0
   21.3025  -10.6424  -15.8339 C   0  0  2  0  0  0  0  0  0  0  0  0
   22.6145  -11.3153  -15.5975 N   0  0  0  0  0  0  0  0  0  0  0  0
   21.2220   -9.5367  -14.8782 C   0  0  0  0  0  0  0  0  0  0  0  0
   22.0702   -9.4480  -13.9150 O   0  0  0  0  0  0  0  0  0  0  0  0
   20.2691   -8.4858  -14.8852 N   0  0  0  0  0  0  0  0  0  0  0  0
   20.6148   -7.0800  -14.7006 C   0  0  1  0  0  0  0  0  0  0  0  0
   21.8342   -6.7159  -15.5058 C   0  0  0  0  0  0  0  0  0  0  0  0
   22.2127   -5.3209  -15.2368 C   0  0  0  0  0  0  0  0  0  0  0  0
   22.2090   -4.6660  -14.0283 C   0  0  0  0  0  0  0  0  0  0  0  0
   22.6088   -3.4020  -14.2613 N   0  0  0  0  0  0  0  0  0  0  0  0
   22.8667   -3.2279  -15.5715 C   0  0  0  0  0  0  0  0  0  0  0  0
   22.6141   -4.4283  -16.1515 N   0  0  0  0  0  0  0  0  0  0  0  0
   19.4574   -6.2072  -14.9295 C   0  0  0  0  0  0  0  0  0  0  0  0
   19.0183   -5.2273  -14.0605 O   0  0  0  0  0  0  0  0  0  0  0  0
   18.7519   -6.3078  -15.9968 O   0  0  0  0  0  0  0  0  0  0  0  0
  1  2  1  0
  2  3  2  0
  4  5  1  0
  4  2  1  0
  5  6  1  6
  7  5  1  0
  7  8  2  0
 10  9  1  0
 10 12  1  0
 11 10  2  0
 13 12  1  0
 14 13  1  1
 14 15  1  0
 15  7  1  0
 16 14  1  0
 17 16  2  0
 18 16  1  0
 19 18  1  0
 19 26  1  0
 20 21  1  0
 19 20  1  6
 21 22  2  0
 23 22  1  0
 24 23  1  0
 25 24  2  0
 25 21  1  0
 26 27  1  0
 28 26  2  0
M  END
$$$$
