NQH.pdb
     RDKit          3D

 28 28  0  0  1  0  0  0  0  0999 V2000
   24.7212  -40.1637  -10.8596 N   0  0  0  0  0  0  0  0  0  0  0  0
   24.1851  -39.1006  -11.6132 C   0  0  0  0  0  0  0  0  0  0  0  0
   23.6175  -39.3419  -12.7068 O   0  0  0  0  0  0  0  0  0  0  0  0
   24.3014  -37.7182  -11.1012 C   0  0  0  0  0  0  0  0  0  0  0  0
   24.9629  -37.6127   -9.7782 C   0  0  2  0  0  0  0  0  0  0  0  0
   23.9972  -37.7309   -8.6669 N   0  0  0  0  0  0  0  0  0  0  0  0
   25.7216  -36.3588   -9.5409 C   0  0  0  0  0  0  0  0  0  0  0  0
   26.6463  -36.0556  -10.3730 O   0  0  0  0  0  0  0  0  0  0  0  0
   24.8726  -31.8741  -11.6393 N   0  0  0  0  0  0  0  0  0  0  0  0
   25.8696  -32.8266  -11.9120 C   0  0  0  0  0  0  0  0  0  0  0  0
   26.3534  -32.9288  -13.0536 O   0  0  0  0  0  0  0  0  0  0  0  0
   26.3617  -33.7296  -10.8331 C   0  0  0  0  0  0  0  0  0  0  0  0
   25.6246  -33.4038   -9.5680 C   0  0  0  0  0  0  0  0  0  0  0  0
   26.0493  -34.1502   -8.3471 C   0  0  2  0  0  0  0  0  0  0  0  0
   25.4655  -35.5203   -8.4573 N   0  0  0  0  0  0  0  0  0  0  0  0
   25.6045  -33.6087   -7.0621 C   0  0  0  0  0  0  0  0  0  0  0  0
   24.4325  -33.0909   -6.9463 O   0  0  0  0  0  0  0  0  0  0  0  0
   26.3495  -33.5860   -5.8551 N   0  0  0  0  0  0  0  0  0  0  0  0
   25.7448  -33.6776   -4.5300 C   0  0  1  0  0  0  0  0  0  0  0  0
   24.7455  -34.8027   -4.4717 C   0  0  0  0  0  0  0  0  0  0  0  0
   24.1057  -34.8351   -3.1482 C   0  0  0  0  0  0  0  0  0  0  0  0
   23.8948  -33.7826   -2.2896 C   0  0  0  0  0  0  0  0  0  0  0  0
   23.2984  -34.2811   -1.1907 N   0  0  0  0  0  0  0  0  0  0  0  0
   23.1219  -35.6102   -1.3175 C   0  0  0  0  0  0  0  0  0  0  0  0
   23.6292  -35.9269   -2.5355 N   0  0  0  0  0  0  0  0  0  0  0  0
   26.7644  -33.7204   -3.4754 C   0  0  0  0  0  0  0  0  0  0  0  0
   26.5156  -33.5735   -2.1246 O   0  0  0  0  0  0  0  0  0  0  0  0
   28.0030  -33.9031   -3.7576 O   0  0  0  0  0  0  0  0  0  0  0  0
  1  2  1  0
  2  3  2  0
  4  5  1  0
  4  2  1  0
  5  6  1  1
  7  5  1  0
  7  8  2  0
 10  9  1  0
 10 12  1  0
 11 10  2  0
 13 12  1  0
 14 13  1  6
 14 15  1  0
 15  7  1  0
 16 14  1  0
 17 16  2  0
 18 16  1  0
 19 18  1  0
 19 26  1  0
 20 21  1  0
 19 20  1  6
 21 22  2  0
 23 22  1  0
 24 23  1  0
 25 24  2  0
 25 21  1  0
 26 27  1  0
 28 26  2  0
M  END
$$$$
