NQH.pdb
     RDKit          3D

 28 28  0  0  1  0  0  0  0  0999 V2000
   28.1284  -11.3234  -15.1334 N   0  0  0  0  0  0  0  0  0  0  0  0
   27.8865  -11.8168  -16.4308 C   0  0  0  0  0  0  0  0  0  0  0  0
   28.6740  -12.6577  -16.9298 O   0  0  0  0  0  0  0  0  0  0  0  0
   26.7078  -11.3339  -17.1820 C   0  0  0  0  0  0  0  0  0  0  0  0
   25.9640  -10.2410  -16.5104 C   0  0  2  0  0  0  0  0  0  0  0  0
   25.4590  -10.6504  -15.1842 N   0  0  0  0  0  0  0  0  0  0  0  0
   24.7955   -9.7102  -17.2568 C   0  0  0  0  0  0  0  0  0  0  0  0
   25.0068   -9.2087  -18.4158 O   0  0  0  0  0  0  0  0  0  0  0  0
   20.9100  -12.6551  -16.3050 N   0  0  0  0  0  0  0  0  0  0  0  0
   21.5437  -12.7794  -17.5535 C   0  0  0  0  0  0  0  0  0  0  0  0
   21.8579  -13.8988  -17.9963 O   0  0  0  0  0  0  0  0  0  0  0  0
   21.8485  -11.5674  -18.3656 C   0  0  0  0  0  0  0  0  0  0  0  0
   21.3612  -10.3607  -17.6197 C   0  0  0  0  0  0  0  0  0  0  0  0
   22.3228   -9.2250  -17.5037 C   0  0  2  0  0  0  0  0  0  0  0  0
   23.5006   -9.7365  -16.7413 N   0  0  0  0  0  0  0  0  0  0  0  0
   21.8486   -8.0371  -16.7921 C   0  0  0  0  0  0  0  0  0  0  0  0
   20.6316   -7.6422  -16.9265 O   0  0  0  0  0  0  0  0  0  0  0  0
   22.6099   -7.2201  -15.9173 N   0  0  0  0  0  0  0  0  0  0  0  0
   22.0750   -6.0434  -15.2398 C   0  0  1  0  0  0  0  0  0  0  0  0
   21.0811   -6.4387  -14.1797 C   0  0  0  0  0  0  0  0  0  0  0  0
   19.7476   -6.5967  -14.7786 C   0  0  0  0  0  0  0  0  0  0  0  0
   19.3884   -6.4144  -16.0928 C   0  0  0  0  0  0  0  0  0  0  0  0
   18.0655   -6.6477  -16.1781 N   0  0  0  0  0  0  0  0  0  0  0  0
   17.5696   -6.9714  -14.9686 C   0  0  0  0  0  0  0  0  0  0  0  0
   18.6293   -6.9326  -14.1220 N   0  0  0  0  0  0  0  0  0  0  0  0
   23.1481   -5.1632  -14.7629 C   0  0  0  0  0  0  0  0  0  0  0  0
   22.9710   -4.0751  -13.9306 O   0  0  0  0  0  0  0  0  0  0  0  0
   24.3688   -5.3591  -15.1075 O   0  0  0  0  0  0  0  0  0  0  0  0
  1  2  1  0
  2  3  2  0
  4  5  1  0
  4  2  1  0
  5  6  1  1
  7  5  1  0
  7  8  2  0
 10  9  1  0
 10 12  1  0
 11 10  2  0
 13 12  1  0
 14 13  1  1
 14 15  1  0
 15  7  1  0
 16 14  1  0
 17 16  2  0
 18 16  1  0
 19 18  1  0
 19 26  1  0
 20 21  1  0
 19 20  1  1
 21 22  2  0
 23 22  1  0
 24 23  1  0
 25 24  2  0
 25 21  1  0
 26 27  1  0
 28 26  2  0
M  END
$$$$
