NQH.pdb
     RDKit          3D

 28 28  0  0  1  0  0  0  0  0999 V2000
   28.0358  -26.5615  -16.7784 N   0  0  0  0  0  0  0  0  0  0  0  0
   26.8611  -25.8293  -17.0415 C   0  0  0  0  0  0  0  0  0  0  0  0
   26.5322  -25.5933  -18.2299 O   0  0  0  0  0  0  0  0  0  0  0  0
   26.0362  -25.3514  -15.9110 C   0  0  0  0  0  0  0  0  0  0  0  0
   25.6551  -23.9210  -15.9975 C   0  0  2  0  0  0  0  0  0  0  0  0
   26.8307  -23.0466  -16.1848 N   0  0  0  0  0  0  0  0  0  0  0  0
   24.9173  -23.3839  -14.8265 C   0  0  0  0  0  0  0  0  0  0  0  0
   23.7749  -23.8952  -14.5566 O   0  0  0  0  0  0  0  0  0  0  0  0
   27.8074  -21.2179  -10.0469 N   0  0  0  0  0  0  0  0  0  0  0  0
   26.5375  -20.7912   -9.6214 C   0  0  0  0  0  0  0  0  0  0  0  0
   26.3777  -20.3125   -8.4842 O   0  0  0  0  0  0  0  0  0  0  0  0
   25.3620  -20.9074  -10.5304 C   0  0  0  0  0  0  0  0  0  0  0  0
   25.8093  -21.5609  -11.8043 C   0  0  0  0  0  0  0  0  0  0  0  0
   24.7350  -21.8989  -12.7839 C   0  0  2  0  0  0  0  0  0  0  0  0
   25.4194  -22.3559  -14.0301 N   0  0  0  0  0  0  0  0  0  0  0  0
   23.8401  -20.8086  -13.1747 C   0  0  0  0  0  0  0  0  0  0  0  0
   24.3219  -19.6871  -13.5815 O   0  0  0  0  0  0  0  0  0  0  0  0
   22.4219  -20.8385  -13.1630 N   0  0  0  0  0  0  0  0  0  0  0  0
   21.5920  -20.2394  -14.2033 C   0  0  1  0  0  0  0  0  0  0  0  0
   22.1009  -20.6034  -15.5731 C   0  0  0  0  0  0  0  0  0  0  0  0
   21.2998  -19.9231  -16.6013 C   0  0  0  0  0  0  0  0  0  0  0  0
   20.2550  -19.0499  -16.4127 C   0  0  0  0  0  0  0  0  0  0  0  0
   19.8104  -18.6947  -17.6325 N   0  0  0  0  0  0  0  0  0  0  0  0
   20.5322  -19.3084  -18.5896 C   0  0  0  0  0  0  0  0  0  0  0  0
   21.4454  -20.0611  -17.9257 N   0  0  0  0  0  0  0  0  0  0  0  0
   20.1695  -20.5307  -13.9907 C   0  0  0  0  0  0  0  0  0  0  0  0
   19.6642  -21.3212  -12.9767 O   0  0  0  0  0  0  0  0  0  0  0  0
   19.2704  -20.0490  -14.7696 O   0  0  0  0  0  0  0  0  0  0  0  0
  1  2  1  0
  2  3  2  0
  4  5  1  0
  4  2  1  0
  5  6  1  1
  7  5  1  0
  7  8  2  0
 10  9  1  0
 10 12  1  0
 11 10  2  0
 13 12  1  0
 14 13  1  1
 14 15  1  0
 15  7  1  0
 16 14  1  0
 17 16  2  0
 18 16  1  0
 19 18  1  0
 19 26  1  0
 20 21  1  0
 19 20  1  6
 21 22  2  0
 23 22  1  0
 24 23  1  0
 25 24  2  0
 25 21  1  0
 26 27  1  0
 28 26  2  0
M  END
$$$$
