NQH.pdb
     RDKit          3D

 28 28  0  0  1  0  0  0  0  0999 V2000
   28.5082  -18.2751  -18.1667 N   0  0  0  0  0  0  0  0  0  0  0  0
   27.1396  -18.0464  -18.4111 C   0  0  0  0  0  0  0  0  0  0  0  0
   26.7919  -17.0660  -19.1142 O   0  0  0  0  0  0  0  0  0  0  0  0
   26.1364  -18.9667  -17.8337 C   0  0  0  0  0  0  0  0  0  0  0  0
   26.7122  -20.0495  -17.0002 C   0  0  2  0  0  0  0  0  0  0  0  0
   27.2319  -21.1617  -17.8216 N   0  0  0  0  0  0  0  0  0  0  0  0
   25.7857  -20.6573  -16.0121 C   0  0  0  0  0  0  0  0  0  0  0  0
   25.0097  -21.5910  -16.4190 O   0  0  0  0  0  0  0  0  0  0  0  0
   26.7735  -20.8562  -10.0584 N   0  0  0  0  0  0  0  0  0  0  0  0
   25.3943  -21.1118   -9.9670 C   0  0  0  0  0  0  0  0  0  0  0  0
   24.8640  -21.3428   -8.8655 O   0  0  0  0  0  0  0  0  0  0  0  0
   24.5466  -21.1093  -11.1929 C   0  0  0  0  0  0  0  0  0  0  0  0
   25.4218  -20.8153  -12.3751 C   0  0  0  0  0  0  0  0  0  0  0  0
   24.7484  -20.8053  -13.7072 C   0  0  2  0  0  0  0  0  0  0  0  0
   25.7329  -20.2464  -14.6812 N   0  0  0  0  0  0  0  0  0  0  0  0
   23.5385  -19.9896  -13.8218 C   0  0  0  0  0  0  0  0  0  0  0  0
   23.6189  -18.7541  -14.1713 O   0  0  0  0  0  0  0  0  0  0  0  0
   22.2078  -20.4198  -13.5842 N   0  0  0  0  0  0  0  0  0  0  0  0
   21.0287  -19.6506  -13.9685 C   0  0  1  0  0  0  0  0  0  0  0  0
   21.1406  -19.1698  -15.3913 C   0  0  0  0  0  0  0  0  0  0  0  0
   19.9860  -18.3229  -15.7253 C   0  0  0  0  0  0  0  0  0  0  0  0
   19.4044  -17.3489  -14.9491 C   0  0  0  0  0  0  0  0  0  0  0  0
   18.3674  -16.8517  -15.6484 N   0  0  0  0  0  0  0  0  0  0  0  0
   18.2670  -17.4720  -16.8394 C   0  0  0  0  0  0  0  0  0  0  0  0
   19.2787  -18.3761  -16.8616 N   0  0  0  0  0  0  0  0  0  0  0  0
   19.7904  -20.3810  -13.6738 C   0  0  0  0  0  0  0  0  0  0  0  0
   18.5961  -19.7984  -13.2963 O   0  0  0  0  0  0  0  0  0  0  0  0
   19.7415  -21.6612  -13.7505 O   0  0  0  0  0  0  0  0  0  0  0  0
  1  2  1  0
  2  3  2  0
  4  5  1  0
  4  2  1  0
  5  6  1  6
  7  5  1  0
  7  8  2  0
 10  9  1  0
 10 12  1  0
 11 10  2  0
 13 12  1  0
 14 13  1  1
 14 15  1  0
 15  7  1  0
 16 14  1  0
 17 16  2  0
 18 16  1  0
 19 18  1  0
 19 26  1  0
 20 21  1  0
 19 20  1  6
 21 22  2  0
 23 22  1  0
 24 23  1  0
 25 24  2  0
 25 21  1  0
 26 27  1  0
 28 26  2  0
M  END
$$$$
