NQH.pdb
     RDKit          3D

 28 28  0  0  1  0  0  0  0  0999 V2000
   25.1654  -21.8994   -9.2426 N   0  0  0  0  0  0  0  0  0  0  0  0
   25.8280  -20.6648   -9.3915 C   0  0  0  0  0  0  0  0  0  0  0  0
   26.5027  -20.2056   -8.4374 O   0  0  0  0  0  0  0  0  0  0  0  0
   25.7157  -19.9315  -10.6707 C   0  0  0  0  0  0  0  0  0  0  0  0
   24.8410  -20.5864  -11.6731 C   0  0  2  0  0  0  0  0  0  0  0  0
   25.3729  -21.8972  -12.0978 N   0  0  0  0  0  0  0  0  0  0  0  0
   24.6002  -19.8106  -12.9158 C   0  0  0  0  0  0  0  0  0  0  0  0
   24.0490  -18.6605  -12.8026 O   0  0  0  0  0  0  0  0  0  0  0  0
   29.0808  -21.0743  -16.4856 N   0  0  0  0  0  0  0  0  0  0  0  0
   28.4843  -19.8149  -16.6697 C   0  0  0  0  0  0  0  0  0  0  0  0
   28.8247  -19.0847  -17.6178 O   0  0  0  0  0  0  0  0  0  0  0  0
   27.4327  -19.3365  -15.7280 C   0  0  0  0  0  0  0  0  0  0  0  0
   26.0993  -19.8133  -16.2228 C   0  0  0  0  0  0  0  0  0  0  0  0
   24.9152  -19.4299  -15.3990 C   0  0  2  0  0  0  0  0  0  0  0  0
   24.9453  -20.2898  -14.1784 N   0  0  0  0  0  0  0  0  0  0  0  0
   23.6010  -19.6231  -16.0137 C   0  0  0  0  0  0  0  0  0  0  0  0
   23.1161  -20.8067  -16.1512 O   0  0  0  0  0  0  0  0  0  0  0  0
   22.7427  -18.6050  -16.5030 N   0  0  0  0  0  0  0  0  0  0  0  0
   21.4339  -18.8658  -17.0935 C   0  0  1  0  0  0  0  0  0  0  0  0
   20.4530  -17.7838  -16.7260 C   0  0  0  0  0  0  0  0  0  0  0  0
   20.0737  -17.9123  -15.3113 C   0  0  0  0  0  0  0  0  0  0  0  0
   20.4492  -18.8938  -14.4252 C   0  0  0  0  0  0  0  0  0  0  0  0
   19.8484  -18.6197  -13.2523 N   0  0  0  0  0  0  0  0  0  0  0  0
   19.1052  -17.5017  -13.3584 C   0  0  0  0  0  0  0  0  0  0  0  0
   19.2618  -17.0847  -14.6402 N   0  0  0  0  0  0  0  0  0  0  0  0
   21.5359  -19.1240  -18.5345 C   0  0  0  0  0  0  0  0  0  0  0  0
   20.8019  -20.0685  -19.2254 O   0  0  0  0  0  0  0  0  0  0  0  0
   22.3505  -18.4599  -19.2712 O   0  0  0  0  0  0  0  0  0  0  0  0
  1  2  1  0
  2  3  2  0
  4  5  1  0
  4  2  1  0
  5  6  1  6
  7  5  1  0
  7  8  2  0
 10  9  1  0
 10 12  1  0
 11 10  2  0
 13 12  1  0
 14 13  1  6
 14 15  1  0
 15  7  1  0
 16 14  1  0
 17 16  2  0
 18 16  1  0
 19 18  1  0
 19 26  1  0
 20 21  1  0
 19 20  1  6
 21 22  2  0
 23 22  1  0
 24 23  1  0
 25 24  2  0
 25 21  1  0
 26 27  1  0
 28 26  2  0
M  END
$$$$
