TAW.pdb
     RDKit          3D

 27 28  0  0  1  0  0  0  0  0999 V2000
   29.5215  -16.9971  -16.8347 C   0  0  0  0  0  0  0  0  0  0  0  0
   28.5293  -17.9718  -16.2049 C   0  0  1  0  0  0  0  0  0  0  0  0
   27.6264  -17.3141  -15.3891 O   0  0  0  0  0  0  0  0  0  0  0  0
   27.8444  -18.7811  -17.2951 C   0  0  2  0  0  0  0  0  0  0  0  0
   27.1425  -17.8716  -18.1450 N   0  0  0  0  0  0  0  0  0  0  0  0
   26.9564  -19.8197  -16.7076 C   0  0  0  0  0  0  0  0  0  0  0  0
   25.7462  -19.5619  -16.4738 O   0  0  0  0  0  0  0  0  0  0  0  0
   26.9776  -23.4738  -16.0441 C   0  0  0  0  0  0  0  0  0  0  0  0
   26.5458  -22.0492  -15.7417 C   0  0  2  0  0  0  0  0  0  0  0  0
   27.4169  -21.1250  -16.3875 N   0  0  0  0  0  0  0  0  0  0  0  0
   26.4282  -21.8222  -14.2794 C   0  0  0  0  0  0  0  0  0  0  0  0
   27.4830  -21.8390  -13.5882 O   0  0  0  0  0  0  0  0  0  0  0  0
   25.2033  -21.5880  -13.6151 N   0  0  0  0  0  0  0  0  0  0  0  0
   25.1074  -21.2315  -12.1847 C   0  0  1  0  0  0  0  0  0  0  0  0
   26.0626  -20.1519  -11.8486 C   0  0  0  0  0  0  0  0  0  0  0  0
   27.2425  -20.4727  -11.0725 C   0  0  0  0  0  0  0  0  0  0  0  0
   28.4656  -20.9822  -11.5208 C   0  0  0  0  0  0  0  0  0  0  0  0
   29.2762  -21.1599  -10.4722 N   0  0  0  0  0  0  0  0  0  0  0  0
   28.6231  -20.7822   -9.3498 C   0  0  0  0  0  0  0  0  0  0  0  0
   29.0635  -20.7760   -8.0398 C   0  0  0  0  0  0  0  0  0  0  0  0
   28.2299  -20.3301   -7.0442 C   0  0  0  0  0  0  0  0  0  0  0  0
   26.9620  -19.8935   -7.3648 C   0  0  0  0  0  0  0  0  0  0  0  0
   26.5333  -19.9035   -8.6657 C   0  0  0  0  0  0  0  0  0  0  0  0
   27.3511  -20.3479   -9.6898 C   0  0  0  0  0  0  0  0  0  0  0  0
   23.7139  -21.0594  -11.7660 C   0  0  0  0  0  0  0  0  0  0  0  0
   23.4023  -20.7422  -10.6196 O   0  0  0  0  0  0  0  0  0  0  0  0
   22.7171  -21.2673  -12.7163 O   0  0  0  0  0  0  0  0  0  0  0  0
  2  1  1  6
  2  4  1  0
  2  3  1  0
  4  6  1  0
  4  5  1  6
  6  7  2  0
  9  8  1  1
 10  9  1  0
 10  6  1  0
 11 12  2  0
 11  9  1  0
 13 11  1  0
 14 13  1  0
 14 25  1  0
 14 15  1  6
 16 15  1  0
 17 16  2  0
 18 19  1  0
 18 17  1  0
 19 24  2  0
 20 19  1  0
 20 21  2  0
 21 22  1  0
 22 23  2  0
 24 16  1  0
 24 23  1  0
 25 27  1  0
 26 25  2  0
M  END
$$$$
