TAW.pdb
     RDKit          3D

 27 28  0  0  1  0  0  0  0  0999 V2000
   16.3177  -11.0866  -16.4854 C   0  0  0  0  0  0  0  0  0  0  0  0
   17.0638   -9.7589  -16.3760 C   0  0  1  0  0  0  0  0  0  0  0  0
   17.7911   -9.6855  -15.2016 O   0  0  0  0  0  0  0  0  0  0  0  0
   17.9300   -9.5551  -17.6092 C   0  0  2  0  0  0  0  0  0  0  0  0
   18.8355  -10.6570  -17.6996 N   0  0  0  0  0  0  0  0  0  0  0  0
   18.6267   -8.2419  -17.5582 C   0  0  0  0  0  0  0  0  0  0  0  0
   19.8692   -8.1898  -17.3601 O   0  0  0  0  0  0  0  0  0  0  0  0
   17.7797   -4.6582  -18.2543 C   0  0  0  0  0  0  0  0  0  0  0  0
   18.6765   -5.7882  -17.7782 C   0  0  2  0  0  0  0  0  0  0  0  0
   17.9426   -7.0082  -17.7263 N   0  0  0  0  0  0  0  0  0  0  0  0
   19.3374   -5.4451  -16.4940 C   0  0  0  0  0  0  0  0  0  0  0  0
   18.7511   -5.7563  -15.4216 O   0  0  0  0  0  0  0  0  0  0  0  0
   20.5858   -4.7898  -16.4016 N   0  0  0  0  0  0  0  0  0  0  0  0
   21.2132   -4.4091  -15.1195 C   0  0  1  0  0  0  0  0  0  0  0  0
   22.5659   -4.9986  -15.0025 C   0  0  0  0  0  0  0  0  0  0  0  0
   22.7051   -6.4397  -14.9690 C   0  0  0  0  0  0  0  0  0  0  0  0
   23.2766   -7.2803  -15.9301 C   0  0  0  0  0  0  0  0  0  0  0  0
   23.1760   -8.5483  -15.5176 N   0  0  0  0  0  0  0  0  0  0  0  0
   22.5568   -8.5658  -14.3154 C   0  0  0  0  0  0  0  0  0  0  0  0
   22.2484   -9.6414  -13.5042 C   0  0  0  0  0  0  0  0  0  0  0  0
   21.6243   -9.4282  -12.3000 C   0  0  0  0  0  0  0  0  0  0  0  0
   21.3129   -8.1414  -11.9150 C   0  0  0  0  0  0  0  0  0  0  0  0
   21.6216   -7.0811  -12.7254 C   0  0  0  0  0  0  0  0  0  0  0  0
   22.2498   -7.2657  -13.9446 C   0  0  0  0  0  0  0  0  0  0  0  0
   21.0732   -2.9744  -14.8576 C   0  0  0  0  0  0  0  0  0  0  0  0
   21.4200   -2.4588  -13.7966 O   0  0  0  0  0  0  0  0  0  0  0  0
   20.5238   -2.1791  -15.8606 O   0  0  0  0  0  0  0  0  0  0  0  0
  2  1  1  6
  2  4  1  0
  2  3  1  0
  4  6  1  0
  4  5  1  1
  6  7  2  0
  9  8  1  1
 10  9  1  0
 10  6  1  0
 11 12  2  0
 11  9  1  0
 13 11  1  0
 14 13  1  0
 14 25  1  0
 14 15  1  6
 16 15  1  0
 17 16  2  0
 18 19  1  0
 18 17  1  0
 19 24  2  0
 20 19  1  0
 20 21  2  0
 21 22  1  0
 22 23  2  0
 24 16  1  0
 24 23  1  0
 25 27  1  0
 26 25  2  0
M  END
$$$$
