TAW.pdb
     RDKit          3D

 27 28  0  0  1  0  0  0  0  0999 V2000
   16.7658  -11.9552  -16.5494 C   0  0  0  0  0  0  0  0  0  0  0  0
   16.5817  -10.4502  -16.3694 C   0  0  1  0  0  0  0  0  0  0  0  0
   17.7960   -9.8124  -16.1901 O   0  0  0  0  0  0  0  0  0  0  0  0
   15.7973   -9.8862  -17.5437 C   0  0  2  0  0  0  0  0  0  0  0  0
   16.5031  -10.2114  -18.7430 N   0  0  0  0  0  0  0  0  0  0  0  0
   15.5798   -8.4234  -17.3841 C   0  0  0  0  0  0  0  0  0  0  0  0
   15.3392   -7.7040  -18.3892 O   0  0  0  0  0  0  0  0  0  0  0  0
   13.9245   -6.1495  -16.6325 C   0  0  0  0  0  0  0  0  0  0  0  0
   15.2869   -6.3998  -16.0089 C   0  0  2  0  0  0  0  0  0  0  0  0
   15.6312   -7.7779  -16.1196 N   0  0  0  0  0  0  0  0  0  0  0  0
   15.3420   -5.8905  -14.6157 C   0  0  0  0  0  0  0  0  0  0  0  0
   15.0697   -4.6755  -14.4153 O   0  0  0  0  0  0  0  0  0  0  0  0
   15.6817   -6.6872  -13.4992 N   0  0  0  0  0  0  0  0  0  0  0  0
   15.5794   -6.2179  -12.1021 C   0  0  1  0  0  0  0  0  0  0  0  0
   14.8332   -7.1927  -11.2752 C   0  0  0  0  0  0  0  0  0  0  0  0
   14.8947   -7.0844   -9.8324 C   0  0  0  0  0  0  0  0  0  0  0  0
   15.9701   -6.6760   -9.0365 C   0  0  0  0  0  0  0  0  0  0  0  0
   15.6137   -6.7468   -7.7496 N   0  0  0  0  0  0  0  0  0  0  0  0
   14.3375   -7.1883   -7.6764 C   0  0  0  0  0  0  0  0  0  0  0  0
   13.5471   -7.4032   -6.5632 C   0  0  0  0  0  0  0  0  0  0  0  0
   12.2564   -7.8438   -6.7203 C   0  0  0  0  0  0  0  0  0  0  0  0
   11.7645   -8.0665   -7.9889 C   0  0  0  0  0  0  0  0  0  0  0  0
   12.5548   -7.8515   -9.0868 C   0  0  0  0  0  0  0  0  0  0  0  0
   13.8595   -7.4083   -8.9591 C   0  0  0  0  0  0  0  0  0  0  0  0
   16.8721   -5.7484  -11.5969 C   0  0  0  0  0  0  0  0  0  0  0  0
   17.9416   -6.2228  -11.9747 O   0  0  0  0  0  0  0  0  0  0  0  0
   16.8701   -4.7246  -10.6524 O   0  0  0  0  0  0  0  0  0  0  0  0
  2  1  1  6
  2  4  1  0
  2  3  1  0
  4  6  1  0
  4  5  1  6
  6  7  2  0
  9  8  1  1
 10  9  1  0
 10  6  1  0
 11 12  2  0
 11  9  1  0
 13 11  1  0
 14 13  1  0
 14 25  1  0
 14 15  1  1
 16 15  1  0
 17 16  2  0
 18 19  1  0
 18 17  1  0
 19 24  2  0
 20 19  1  0
 20 21  2  0
 21 22  1  0
 22 23  2  0
 24 16  1  0
 24 23  1  0
 25 27  1  0
 26 25  2  0
M  END
$$$$
