TAW.pdb
     RDKit          3D

 27 28  0  0  1  0  0  0  0  0999 V2000
   25.2077  -22.7197  -16.1551 C   0  0  0  0  0  0  0  0  0  0  0  0
   26.4059  -22.9815  -17.0646 C   0  0  1  0  0  0  0  0  0  0  0  0
   26.0115  -23.5315  -18.2710 O   0  0  0  0  0  0  0  0  0  0  0  0
   27.2024  -21.6986  -17.2441 C   0  0  2  0  0  0  0  0  0  0  0  0
   28.3449  -21.9973  -18.0489 N   0  0  0  0  0  0  0  0  0  0  0  0
   27.5657  -21.1100  -15.9272 C   0  0  0  0  0  0  0  0  0  0  0  0
   28.4285  -21.6675  -15.1990 O   0  0  0  0  0  0  0  0  0  0  0  0
   27.1641  -17.8852  -14.1453 C   0  0  0  0  0  0  0  0  0  0  0  0
   27.3732  -19.3896  -14.1736 C   0  0  2  0  0  0  0  0  0  0  0  0
   26.9720  -19.9169  -15.4350 N   0  0  0  0  0  0  0  0  0  0  0  0
   26.7048  -20.0469  -13.0227 C   0  0  0  0  0  0  0  0  0  0  0  0
   25.4964  -20.3848  -13.1503 O   0  0  0  0  0  0  0  0  0  0  0  0
   27.3427  -20.3168  -11.7911 N   0  0  0  0  0  0  0  0  0  0  0  0
   26.6373  -20.8511  -10.6081 C   0  0  1  0  0  0  0  0  0  0  0  0
   27.5440  -20.9102   -9.4397 C   0  0  0  0  0  0  0  0  0  0  0  0
   26.9865  -20.7830   -8.1091 C   0  0  0  0  0  0  0  0  0  0  0  0
   25.7026  -21.1212   -7.6687 C   0  0  0  0  0  0  0  0  0  0  0  0
   25.5910  -20.8173   -6.3713 N   0  0  0  0  0  0  0  0  0  0  0  0
   26.7619  -20.2906   -5.9466 C   0  0  0  0  0  0  0  0  0  0  0  0
   27.1173  -19.8462   -4.6871 C   0  0  0  0  0  0  0  0  0  0  0  0
   28.3818  -19.3576   -4.4699 C   0  0  0  0  0  0  0  0  0  0  0  0
   29.2824  -19.3165   -5.5131 C   0  0  0  0  0  0  0  0  0  0  0  0
   28.9218  -19.7585   -6.7584 C   0  0  0  0  0  0  0  0  0  0  0  0
   27.6544  -20.2555   -7.0070 C   0  0  0  0  0  0  0  0  0  0  0  0
   25.3338  -20.2080  -10.4237 C   0  0  0  0  0  0  0  0  0  0  0  0
   25.1950  -18.9863  -10.4110 O   0  0  0  0  0  0  0  0  0  0  0  0
   24.2199  -21.0277  -10.2577 O   0  0  0  0  0  0  0  0  0  0  0  0
  2  1  1  1
  2  4  1  0
  2  3  1  0
  4  6  1  0
  4  5  1  1
  6  7  2  0
  9  8  1  6
 10  9  1  0
 10  6  1  0
 11 12  2  0
 11  9  1  0
 13 11  1  0
 14 13  1  0
 14 25  1  0
 14 15  1  1
 16 15  1  0
 17 16  2  0
 18 19  1  0
 18 17  1  0
 19 24  2  0
 20 19  1  0
 20 21  2  0
 21 22  1  0
 22 23  2  0
 24 16  1  0
 24 23  1  0
 25 27  1  0
 26 25  2  0
M  END
$$$$
