TAW.pdb
     RDKit          3D

 27 28  0  0  1  0  0  0  0  0999 V2000
   17.9090  -13.0941    5.8815 C   0  0  0  0  0  0  0  0  0  0  0  0
   19.1855  -12.2962    5.6258 C   0  0  1  0  0  0  0  0  0  0  0  0
   18.9220  -11.1391    4.9151 O   0  0  0  0  0  0  0  0  0  0  0  0
   19.8894  -12.0198    6.9451 C   0  0  2  0  0  0  0  0  0  0  0  0
   21.0935  -11.3043    6.6615 N   0  0  0  0  0  0  0  0  0  0  0  0
   20.1342  -13.2827    7.6918 C   0  0  0  0  0  0  0  0  0  0  0  0
   21.0824  -14.0424    7.3607 O   0  0  0  0  0  0  0  0  0  0  0  0
   18.7991  -15.0342   10.7226 C   0  0  0  0  0  0  0  0  0  0  0  0
   19.5454  -14.9564    9.4018 C   0  0  2  0  0  0  0  0  0  0  0  0
   19.3300  -13.6875    8.7907 N   0  0  0  0  0  0  0  0  0  0  0  0
   19.1985  -16.0994    8.5204 C   0  0  0  0  0  0  0  0  0  0  0  0
   18.2056  -15.9782    7.7522 O   0  0  0  0  0  0  0  0  0  0  0  0
   19.9155  -17.3166    8.4908 N   0  0  0  0  0  0  0  0  0  0  0  0
   19.5178  -18.4766    7.6671 C   0  0  1  0  0  0  0  0  0  0  0  0
   20.7029  -19.2723    7.2755 C   0  0  0  0  0  0  0  0  0  0  0  0
   20.5181  -20.6386    6.8324 C   0  0  0  0  0  0  0  0  0  0  0  0
   20.1398  -21.0981    5.5665 C   0  0  0  0  0  0  0  0  0  0  0  0
   20.0597  -22.4327    5.5915 N   0  0  0  0  0  0  0  0  0  0  0  0
   20.3743  -22.8632    6.8343 C   0  0  0  0  0  0  0  0  0  0  0  0
   20.4393  -24.1538    7.3244 C   0  0  0  0  0  0  0  0  0  0  0  0
   20.8010  -24.3677    8.6314 C   0  0  0  0  0  0  0  0  0  0  0  0
   21.0954  -23.2901    9.4396 C   0  0  0  0  0  0  0  0  0  0  0  0
   21.0280  -22.0142    8.9460 C   0  0  0  0  0  0  0  0  0  0  0  0
   20.6658  -21.7682    7.6332 C   0  0  0  0  0  0  0  0  0  0  0  0
   18.3849  -19.1928    8.2588 C   0  0  0  0  0  0  0  0  0  0  0  0
   17.5821  -19.8340    7.5833 O   0  0  0  0  0  0  0  0  0  0  0  0
   18.2265  -19.1339    9.6414 O   0  0  0  0  0  0  0  0  0  0  0  0
  2  1  1  1
  2  4  1  0
  2  3  1  0
  4  6  1  0
  4  5  1  6
  6  7  2  0
  9  8  1  1
 10  9  1  0
 10  6  1  0
 11 12  2  0
 11  9  1  0
 13 11  1  0
 14 13  1  0
 14 25  1  0
 14 15  1  1
 16 15  1  0
 17 16  2  0
 18 19  1  0
 18 17  1  0
 19 24  2  0
 20 19  1  0
 20 21  2  0
 21 22  1  0
 22 23  2  0
 24 16  1  0
 24 23  1  0
 25 27  1  0
 26 25  2  0
M  END
$$$$
