TAW.pdb
     RDKit          3D

 27 28  0  0  1  0  0  0  0  0999 V2000
   27.3744  -15.3716  -17.1773 C   0  0  0  0  0  0  0  0  0  0  0  0
   26.5616  -14.0998  -17.4078 C   0  0  1  0  0  0  0  0  0  0  0  0
   27.3576  -13.0726  -17.8819 O   0  0  0  0  0  0  0  0  0  0  0  0
   25.3909  -14.4005  -18.3305 C   0  0  2  0  0  0  0  0  0  0  0  0
   25.9167  -14.7296  -19.6179 N   0  0  0  0  0  0  0  0  0  0  0  0
   24.4407  -13.2570  -18.3735 C   0  0  0  0  0  0  0  0  0  0  0  0
   24.6866  -12.2539  -19.0940 O   0  0  0  0  0  0  0  0  0  0  0  0
   20.9417  -12.5260  -17.8673 C   0  0  0  0  0  0  0  0  0  0  0  0
   22.3849  -12.0957  -17.6683 C   0  0  2  0  0  0  0  0  0  0  0  0
   23.2353  -13.2379  -17.6218 N   0  0  0  0  0  0  0  0  0  0  0  0
   22.5236  -11.2113  -16.4842 C   0  0  0  0  0  0  0  0  0  0  0  0
   22.7498  -11.7470  -15.3650 O   0  0  0  0  0  0  0  0  0  0  0  0
   22.4172   -9.8033  -16.5364 N   0  0  0  0  0  0  0  0  0  0  0  0
   22.5300   -8.9331  -15.3479 C   0  0  1  0  0  0  0  0  0  0  0  0
   23.8314   -9.1348  -14.6723 C   0  0  0  0  0  0  0  0  0  0  0  0
   25.0510   -9.0155  -15.4442 C   0  0  0  0  0  0  0  0  0  0  0  0
   25.3666   -8.0757  -16.4310 C   0  0  0  0  0  0  0  0  0  0  0  0
   26.5862   -8.3390  -16.9118 N   0  0  0  0  0  0  0  0  0  0  0  0
   27.0810   -9.4221  -16.2707 C   0  0  0  0  0  0  0  0  0  0  0  0
   28.3037  -10.0481  -16.4233 C   0  0  0  0  0  0  0  0  0  0  0  0
   28.6115  -11.1378  -15.6471 C   0  0  0  0  0  0  0  0  0  0  0  0
   27.6951  -11.5944  -14.7236 C   0  0  0  0  0  0  0  0  0  0  0  0
   26.4853  -10.9684  -14.5791 C   0  0  0  0  0  0  0  0  0  0  0  0
   26.1474   -9.8685  -15.3480 C   0  0  0  0  0  0  0  0  0  0  0  0
   22.1280   -7.5568  -15.6495 C   0  0  0  0  0  0  0  0  0  0  0  0
   21.9857   -6.7030  -14.7762 O   0  0  0  0  0  0  0  0  0  0  0  0
   21.9024   -7.2206  -16.9822 O   0  0  0  0  0  0  0  0  0  0  0  0
  2  1  1  6
  2  4  1  0
  2  3  1  0
  4  6  1  0
  4  5  1  6
  6  7  2  0
  9  8  1  1
 10  9  1  0
 10  6  1  0
 11 12  2  0
 11  9  1  0
 13 11  1  0
 14 13  1  0
 14 25  1  0
 14 15  1  6
 16 15  1  0
 17 16  2  0
 18 19  1  0
 18 17  1  0
 19 24  2  0
 20 19  1  0
 20 21  2  0
 21 22  1  0
 22 23  2  0
 24 16  1  0
 24 23  1  0
 25 27  1  0
 26 25  2  0
M  END
$$$$
