TAW.pdb
     RDKit          3D

 27 28  0  0  1  0  0  0  0  0999 V2000
   27.4019  -20.3826  -20.3165 C   0  0  0  0  0  0  0  0  0  0  0  0
   27.2836  -20.3727  -18.7943 C   0  0  1  0  0  0  0  0  0  0  0  0
   27.0875  -21.6483  -18.2963 O   0  0  0  0  0  0  0  0  0  0  0  0
   28.5034  -19.6947  -18.1903 C   0  0  2  0  0  0  0  0  0  0  0  0
   29.6485  -20.4939  -18.4942 N   0  0  0  0  0  0  0  0  0  0  0  0
   28.3237  -19.4809  -16.7293 C   0  0  0  0  0  0  0  0  0  0  0  0
   28.9345  -20.2073  -15.9016 O   0  0  0  0  0  0  0  0  0  0  0  0
   26.5271  -17.0938  -14.4624 C   0  0  0  0  0  0  0  0  0  0  0  0
   27.2493  -18.3868  -14.8005 C   0  0  2  0  0  0  0  0  0  0  0  0
   27.4741  -18.4703  -16.2049 N   0  0  0  0  0  0  0  0  0  0  0  0
   26.5312  -19.5634  -14.2495 C   0  0  0  0  0  0  0  0  0  0  0  0
   25.7968  -20.2303  -15.0283 O   0  0  0  0  0  0  0  0  0  0  0  0
   26.6217  -19.9811  -12.9027 N   0  0  0  0  0  0  0  0  0  0  0  0
   25.8893  -21.1433  -12.3592 C   0  0  1  0  0  0  0  0  0  0  0  0
   26.5884  -21.6977  -11.1783 C   0  0  0  0  0  0  0  0  0  0  0  0
   26.5645  -20.9567   -9.9342 C   0  0  0  0  0  0  0  0  0  0  0  0
   25.4956  -20.2647   -9.3552 C   0  0  0  0  0  0  0  0  0  0  0  0
   25.9078  -19.6957   -8.2175 N   0  0  0  0  0  0  0  0  0  0  0  0
   27.2138  -19.9934   -8.0316 C   0  0  0  0  0  0  0  0  0  0  0  0
   28.0547  -19.6375   -6.9941 C   0  0  0  0  0  0  0  0  0  0  0  0
   29.3583  -20.0682   -6.9968 C   0  0  0  0  0  0  0  0  0  0  0  0
   29.8124  -20.8517   -8.0365 C   0  0  0  0  0  0  0  0  0  0  0  0
   28.9725  -21.1994   -9.0611 C   0  0  0  0  0  0  0  0  0  0  0  0
   27.6541  -20.7794   -9.0854 C   0  0  0  0  0  0  0  0  0  0  0  0
   24.4569  -20.8635  -12.2304 C   0  0  0  0  0  0  0  0  0  0  0  0
   23.6120  -21.7547  -12.1680 O   0  0  0  0  0  0  0  0  0  0  0  0
   24.0549  -19.5310  -12.1784 O   0  0  0  0  0  0  0  0  0  0  0  0
  2  1  1  6
  2  4  1  0
  2  3  1  0
  4  6  1  0
  4  5  1  1
  6  7  2  0
  9  8  1  6
 10  9  1  0
 10  6  1  0
 11 12  2  0
 11  9  1  0
 13 11  1  0
 14 13  1  0
 14 25  1  0
 14 15  1  1
 16 15  1  0
 17 16  2  0
 18 19  1  0
 18 17  1  0
 19 24  2  0
 20 19  1  0
 20 21  2  0
 21 22  1  0
 22 23  2  0
 24 16  1  0
 24 23  1  0
 25 27  1  0
 26 25  2  0
M  END
$$$$
