TAW.pdb
     RDKit          3D

 27 28  0  0  1  0  0  0  0  0999 V2000
   26.6746  -28.4597  -16.8121 C   0  0  0  0  0  0  0  0  0  0  0  0
   26.5462  -26.9425  -16.6981 C   0  0  1  0  0  0  0  0  0  0  0  0
   26.3139  -26.5537  -15.3910 O   0  0  0  0  0  0  0  0  0  0  0  0
   27.7788  -26.2783  -17.2912 C   0  0  2  0  0  0  0  0  0  0  0  0
   28.9223  -26.7514  -16.5765 N   0  0  0  0  0  0  0  0  0  0  0  0
   27.6527  -24.7966  -17.2568 C   0  0  0  0  0  0  0  0  0  0  0  0
   28.3377  -24.1199  -16.4453 O   0  0  0  0  0  0  0  0  0  0  0  0
   25.9334  -22.1151  -19.2303 C   0  0  0  0  0  0  0  0  0  0  0  0
   26.6886  -22.6658  -18.0327 C   0  0  2  0  0  0  0  0  0  0  0  0
   26.7738  -24.0855  -18.1171 N   0  0  0  0  0  0  0  0  0  0  0  0
   26.0969  -22.1875  -16.7580 C   0  0  0  0  0  0  0  0  0  0  0  0
   25.2729  -22.9371  -16.1666 O   0  0  0  0  0  0  0  0  0  0  0  0
   26.4024  -20.9409  -16.1672 N   0  0  0  0  0  0  0  0  0  0  0  0
   25.8330  -20.4871  -14.8817 C   0  0  1  0  0  0  0  0  0  0  0  0
   26.7569  -19.5531  -14.1999 C   0  0  0  0  0  0  0  0  0  0  0  0
   26.8874  -18.2008  -14.7016 C   0  0  0  0  0  0  0  0  0  0  0  0
   26.1881  -17.0558  -14.3058 C   0  0  0  0  0  0  0  0  0  0  0  0
   26.5958  -16.0175  -15.0432 N   0  0  0  0  0  0  0  0  0  0  0  0
   27.5413  -16.4455  -15.9102 C   0  0  0  0  0  0  0  0  0  0  0  0
   28.2544  -15.7295  -16.8530 C   0  0  0  0  0  0  0  0  0  0  0  0
   29.1915  -16.3685  -17.6266 C   0  0  0  0  0  0  0  0  0  0  0  0
   29.4094  -17.7187  -17.4525 C   0  0  0  0  0  0  0  0  0  0  0  0
   28.6979  -18.4210  -16.5161 C   0  0  0  0  0  0  0  0  0  0  0  0
   27.7468  -17.8038  -15.7227 C   0  0  0  0  0  0  0  0  0  0  0  0
   24.4356  -20.0725  -15.0295 C   0  0  0  0  0  0  0  0  0  0  0  0
   23.9613  -19.7182  -16.1072 O   0  0  0  0  0  0  0  0  0  0  0  0
   23.6279  -20.0861  -13.8948 O   0  0  0  0  0  0  0  0  0  0  0  0
  2  1  1  1
  2  4  1  0
  2  3  1  0
  4  6  1  0
  4  5  1  1
  6  7  2  0
  9  8  1  6
 10  9  1  0
 10  6  1  0
 11 12  2  0
 11  9  1  0
 13 11  1  0
 14 13  1  0
 14 25  1  0
 14 15  1  6
 16 15  1  0
 17 16  2  0
 18 19  1  0
 18 17  1  0
 19 24  2  0
 20 19  1  0
 20 21  2  0
 21 22  1  0
 22 23  2  0
 24 16  1  0
 24 23  1  0
 25 27  1  0
 26 25  2  0
M  END
$$$$
