TAW.pdb
     RDKit          3D

 27 28  0  0  1  0  0  0  0  0999 V2000
   30.0842  -18.5263  -19.8114 C   0  0  0  0  0  0  0  0  0  0  0  0
   29.1656  -18.9574  -18.6705 C   0  0  1  0  0  0  0  0  0  0  0  0
   29.2505  -18.0862  -17.5994 O   0  0  0  0  0  0  0  0  0  0  0  0
   27.7430  -19.1062  -19.1868 C   0  0  2  0  0  0  0  0  0  0  0  0
   27.3514  -17.8602  -19.7667 N   0  0  0  0  0  0  0  0  0  0  0  0
   26.8271  -19.5475  -18.1011 C   0  0  0  0  0  0  0  0  0  0  0  0
   26.2523  -18.6977  -17.3709 O   0  0  0  0  0  0  0  0  0  0  0  0
   25.2218  -22.7154  -16.9405 C   0  0  0  0  0  0  0  0  0  0  0  0
   25.6934  -21.2818  -16.7674 C   0  0  2  0  0  0  0  0  0  0  0  0
   26.5598  -20.9178  -17.8382 N   0  0  0  0  0  0  0  0  0  0  0  0
   26.2959  -21.0724  -15.4270 C   0  0  0  0  0  0  0  0  0  0  0  0
   27.5537  -21.0452  -15.3379 O   0  0  0  0  0  0  0  0  0  0  0  0
   25.5431  -20.9016  -14.2435 N   0  0  0  0  0  0  0  0  0  0  0  0
   26.1514  -20.7491  -12.9059 C   0  0  1  0  0  0  0  0  0  0  0  0
   25.6316  -19.5401  -12.2286 C   0  0  0  0  0  0  0  0  0  0  0  0
   25.9582  -19.3188  -10.8351 C   0  0  0  0  0  0  0  0  0  0  0  0
   26.8415  -18.3825  -10.2875 C   0  0  0  0  0  0  0  0  0  0  0  0
   26.8697  -18.5325   -8.9590 N   0  0  0  0  0  0  0  0  0  0  0  0
   26.0319  -19.5377   -8.6178 C   0  0  0  0  0  0  0  0  0  0  0  0
   25.7271  -20.0377   -7.3660 C   0  0  0  0  0  0  0  0  0  0  0  0
   24.8241  -21.0648   -7.2451 C   0  0  0  0  0  0  0  0  0  0  0  0
   24.2320  -21.5850   -8.3764 C   0  0  0  0  0  0  0  0  0  0  0  0
   24.5402  -21.0840   -9.6134 C   0  0  0  0  0  0  0  0  0  0  0  0
   25.4469  -20.0497   -9.7658 C   0  0  0  0  0  0  0  0  0  0  0  0
   26.1281  -22.0089  -12.1581 C   0  0  0  0  0  0  0  0  0  0  0  0
   25.1413  -22.7417  -12.1278 O   0  0  0  0  0  0  0  0  0  0  0  0
   27.2769  -22.3744  -11.4605 O   0  0  0  0  0  0  0  0  0  0  0  0
  2  1  1  6
  2  4  1  0
  2  3  1  0
  4  6  1  0
  4  5  1  1
  6  7  2  0
  9  8  1  6
 10  9  1  0
 10  6  1  0
 11 12  2  0
 11  9  1  0
 13 11  1  0
 14 13  1  0
 14 25  1  0
 14 15  1  1
 16 15  1  0
 17 16  2  0
 18 19  1  0
 18 17  1  0
 19 24  2  0
 20 19  1  0
 20 21  2  0
 21 22  1  0
 22 23  2  0
 24 16  1  0
 24 23  1  0
 25 27  1  0
 26 25  2  0
M  END
$$$$
