TAW.pdb
     RDKit          3D

 27 28  0  0  1  0  0  0  0  0999 V2000
   28.5908  -18.6427  -18.4073 C   0  0  0  0  0  0  0  0  0  0  0  0
   28.0313  -18.9344  -17.0168 C   0  0  1  0  0  0  0  0  0  0  0  0
   29.0367  -19.2807  -16.1321 O   0  0  0  0  0  0  0  0  0  0  0  0
   27.2162  -17.7453  -16.5331 C   0  0  2  0  0  0  0  0  0  0  0  0
   28.0356  -16.5787  -16.6323 N   0  0  0  0  0  0  0  0  0  0  0  0
   26.7084  -17.9747  -15.1540 C   0  0  0  0  0  0  0  0  0  0  0  0
   27.4538  -17.7679  -14.1604 O   0  0  0  0  0  0  0  0  0  0  0  0
   23.4754  -18.9057  -13.4989 C   0  0  0  0  0  0  0  0  0  0  0  0
   24.9795  -18.7007  -13.5553 C   0  0  2  0  0  0  0  0  0  0  0  0
   25.3877  -18.4283  -14.8929 N   0  0  0  0  0  0  0  0  0  0  0  0
   25.7010  -19.8440  -12.9422 C   0  0  0  0  0  0  0  0  0  0  0  0
   25.9911  -20.8272  -13.6769 O   0  0  0  0  0  0  0  0  0  0  0  0
   26.0826  -19.8963  -11.5827 N   0  0  0  0  0  0  0  0  0  0  0  0
   26.7670  -21.0546  -10.9725 C   0  0  1  0  0  0  0  0  0  0  0  0
   27.6808  -20.6151   -9.8943 C   0  0  0  0  0  0  0  0  0  0  0  0
   27.1329  -20.3069   -8.5896 C   0  0  0  0  0  0  0  0  0  0  0  0
   25.7954  -20.1021   -8.2348 C   0  0  0  0  0  0  0  0  0  0  0  0
   25.7278  -19.8142   -6.9307 N   0  0  0  0  0  0  0  0  0  0  0  0
   26.9794  -19.8244   -6.4186 C   0  0  0  0  0  0  0  0  0  0  0  0
   27.3970  -19.5984   -5.1206 C   0  0  0  0  0  0  0  0  0  0  0  0
   28.7327  -19.6758   -4.8127 C   0  0  0  0  0  0  0  0  0  0  0  0
   29.6418  -19.9786   -5.8041 C   0  0  0  0  0  0  0  0  0  0  0  0
   29.2194  -20.2006   -7.0881 C   0  0  0  0  0  0  0  0  0  0  0  0
   27.8799  -20.1288   -7.4279 C   0  0  0  0  0  0  0  0  0  0  0  0
   25.8257  -22.1348  -10.6661 C   0  0  0  0  0  0  0  0  0  0  0  0
   24.6175  -21.9436  -10.5416 O   0  0  0  0  0  0  0  0  0  0  0  0
   26.3370  -23.4214  -10.5132 O   0  0  0  0  0  0  0  0  0  0  0  0
  2  1  1  6
  2  4  1  0
  2  3  1  0
  4  6  1  0
  4  5  1  1
  6  7  2  0
  9  8  1  6
 10  9  1  0
 10  6  1  0
 11 12  2  0
 11  9  1  0
 13 11  1  0
 14 13  1  0
 14 25  1  0
 14 15  1  1
 16 15  1  0
 17 16  2  0
 18 19  1  0
 18 17  1  0
 19 24  2  0
 20 19  1  0
 20 21  2  0
 21 22  1  0
 22 23  2  0
 24 16  1  0
 24 23  1  0
 25 27  1  0
 26 25  2  0
M  END
$$$$
