TAW.pdb
     RDKit          3D

 27 28  0  0  1  0  0  0  0  0999 V2000
   29.4388  -25.4086  -17.2399 C   0  0  0  0  0  0  0  0  0  0  0  0
   29.1106  -26.8991  -17.2883 C   0  0  1  0  0  0  0  0  0  0  0  0
   27.7713  -27.1283  -17.0289 O   0  0  0  0  0  0  0  0  0  0  0  0
   29.5505  -27.4772  -18.6243 C   0  0  2  0  0  0  0  0  0  0  0  0
   28.7075  -26.9310  -19.6407 N   0  0  0  0  0  0  0  0  0  0  0  0
   29.5246  -28.9641  -18.5943 C   0  0  0  0  0  0  0  0  0  0  0  0
   28.4916  -29.5883  -18.9535 O   0  0  0  0  0  0  0  0  0  0  0  0
   31.8654  -31.7604  -17.6891 C   0  0  0  0  0  0  0  0  0  0  0  0
   30.5329  -31.1574  -18.0997 C   0  0  2  0  0  0  0  0  0  0  0  0
   30.6374  -29.7381  -18.1691 N   0  0  0  0  0  0  0  0  0  0  0  0
   29.4365  -31.6231  -17.2140 C   0  0  0  0  0  0  0  0  0  0  0  0
   29.1548  -30.9278  -16.2002 O   0  0  0  0  0  0  0  0  0  0  0  0
   28.6887  -32.8006  -17.4395 N   0  0  0  0  0  0  0  0  0  0  0  0
   27.5484  -33.2155  -16.5969 C   0  0  1  0  0  0  0  0  0  0  0  0
   26.4588  -32.2158  -16.6604 C   0  0  0  0  0  0  0  0  0  0  0  0
   25.2295  -32.4678  -15.9373 C   0  0  0  0  0  0  0  0  0  0  0  0
   24.7900  -31.8892  -14.7421 C   0  0  0  0  0  0  0  0  0  0  0  0
   23.6115  -32.4235  -14.4048 N   0  0  0  0  0  0  0  0  0  0  0  0
   23.2637  -33.3343  -15.3419 C   0  0  0  0  0  0  0  0  0  0  0  0
   22.1308  -34.1219  -15.4206 C   0  0  0  0  0  0  0  0  0  0  0  0
   21.9701  -34.9784  -16.4816 C   0  0  0  0  0  0  0  0  0  0  0  0
   22.9430  -35.0417  -17.4565 C   0  0  0  0  0  0  0  0  0  0  0  0
   24.0631  -34.2580  -17.3706 C   0  0  0  0  0  0  0  0  0  0  0  0
   24.2523  -33.3861  -16.3126 C   0  0  0  0  0  0  0  0  0  0  0  0
   27.1955  -34.6194  -16.8234 C   0  0  0  0  0  0  0  0  0  0  0  0
   27.2203  -35.1358  -17.9390 O   0  0  0  0  0  0  0  0  0  0  0  0
   26.8196  -35.3833  -15.7211 O   0  0  0  0  0  0  0  0  0  0  0  0
  2  1  1  6
  2  4  1  0
  2  3  1  0
  4  6  1  0
  4  5  1  6
  6  7  2  0
  9  8  1  1
 10  9  1  0
 10  6  1  0
 11 12  2  0
 11  9  1  0
 13 11  1  0
 14 13  1  0
 14 25  1  0
 14 15  1  6
 16 15  1  0
 17 16  2  0
 18 19  1  0
 18 17  1  0
 19 24  2  0
 20 19  1  0
 20 21  2  0
 21 22  1  0
 22 23  2  0
 24 16  1  0
 24 23  1  0
 25 27  1  0
 26 25  2  0
M  END
$$$$
