EKL.pdb
     RDKit          3D

 27 26  0  0  1  0  0  0  0  0999 V2000
    9.7611  -17.9684   18.4737 N   0  0  0  0  0  0  0  0  0  0  0  0
    9.7146  -18.6937   19.7396 C   0  0  1  0  0  0  0  0  0  0  0  0
   11.1422  -18.8069   20.2167 C   0  0  0  0  0  0  0  0  0  0  0  0
   11.9150  -17.5269   19.9490 C   0  0  0  0  0  0  0  0  0  0  0  0
   13.3241  -17.6524   20.3379 C   0  0  0  0  0  0  0  0  0  0  0  0
   14.0872  -16.6455   20.1717 O   0  0  0  0  0  0  0  0  0  0  0  0
    8.8368  -17.9625   20.6587 C   0  0  0  0  0  0  0  0  0  0  0  0
    8.7192  -16.6950   20.5953 O   0  0  0  0  0  0  0  0  0  0  0  0
   13.8530  -18.7983   20.8666 O   0  0  0  0  0  0  0  0  0  0  0  0
    8.0678  -18.5912   21.6659 N   0  0  0  0  0  0  0  0  0  0  0  0
    7.0340  -17.8671   22.4328 C   0  0  1  0  0  0  0  0  0  0  0  0
    6.1405  -18.9250   22.9988 C   0  0  0  0  0  0  0  0  0  0  0  0
    5.1541  -19.5212   22.0612 C   0  0  0  0  0  0  0  0  0  0  0  0
    4.3659  -20.5908   22.7747 C   0  0  0  0  0  0  0  0  0  0  0  0
    3.3316  -21.2308   21.8887 C   0  0  0  0  0  0  0  0  0  0  0  0
    2.6922  -22.3263   22.5804 N   0  0  0  0  0  0  0  0  0  0  0  0
    7.6977  -17.1512   23.5678 C   0  0  0  0  0  0  0  0  0  0  0  0
    8.7748  -17.5699   24.0207 O   0  0  0  0  0  0  0  0  0  0  0  0
    6.2101  -12.1084   26.7945 C   0  0  0  0  0  0  0  0  0  0  0  0
    7.3371  -13.0143   26.3664 C   0  0  2  0  0  0  0  0  0  0  0  0
    8.6283  -12.3273   26.0686 C   0  0  0  0  0  0  0  0  0  0  0  0
    6.9733  -14.0079   25.3485 C   0  0  0  0  0  0  0  0  0  0  0  0
    7.7398  -15.2726   25.2318 C   0  0  2  0  0  0  0  0  0  0  0  0
    7.0915  -15.9982   24.1204 N   0  0  0  0  0  0  0  0  0  0  0  0
    7.7370  -16.1742   26.3800 C   0  0  0  0  0  0  0  0  0  0  0  0
    6.6920  -16.8441   26.6347 O   0  0  0  0  0  0  0  0  0  0  0  0
    8.7985  -16.3887   27.2569 O   0  0  0  0  0  0  0  0  0  0  0  0
  2  1  1  6
  2  7  1  0
  3  2  1  0
  4  3  1  0
  5  4  1  0
  5  9  1  0
  6  5  2  0
  7  8  2  0
 10  7  1  0
 10 11  1  0
 11 12  1  1
 13 14  1  0
 13 12  1  0
 14 15  1  0
 16 15  1  0
 17 11  1  0
 17 18  2  0
 20 19  1  6
 20 21  1  0
 20 22  1  0
 23 22  1  1
 23 24  1  0
 24 17  1  0
 25 27  1  0
 25 23  1  0
 26 25  2  0
M  END
$$$$
