EKL.pdb
     RDKit          3D

 27 26  0  0  1  0  0  0  0  0999 V2000
    5.9379  -19.1617   19.9256 N   0  0  0  0  0  0  0  0  0  0  0  0
    7.2571  -18.9694   20.5202 C   0  0  1  0  0  0  0  0  0  0  0  0
    7.9518  -17.9231   19.6828 C   0  0  0  0  0  0  0  0  0  0  0  0
    8.0234  -18.3435   18.2249 C   0  0  0  0  0  0  0  0  0  0  0  0
    8.7061  -17.3379   17.4032 C   0  0  0  0  0  0  0  0  0  0  0  0
    9.2941  -16.3744   17.9946 O   0  0  0  0  0  0  0  0  0  0  0  0
    7.0792  -18.5854   21.9241 C   0  0  0  0  0  0  0  0  0  0  0  0
    5.9917  -18.0636   22.3358 O   0  0  0  0  0  0  0  0  0  0  0  0
    8.7373  -17.3877   16.0361 O   0  0  0  0  0  0  0  0  0  0  0  0
    8.0775  -18.7598   22.9110 N   0  0  0  0  0  0  0  0  0  0  0  0
    7.8615  -18.3839   24.3228 C   0  0  1  0  0  0  0  0  0  0  0  0
    8.7215  -19.3121   25.1207 C   0  0  0  0  0  0  0  0  0  0  0  0
    8.7450  -19.0857   26.5888 C   0  0  0  0  0  0  0  0  0  0  0  0
    9.7421  -20.0210   27.2255 C   0  0  0  0  0  0  0  0  0  0  0  0
    9.8835  -19.7905   28.7057 C   0  0  0  0  0  0  0  0  0  0  0  0
    8.8957  -20.5601   29.4263 N   0  0  0  0  0  0  0  0  0  0  0  0
    8.3592  -16.9864   24.5246 C   0  0  0  0  0  0  0  0  0  0  0  0
    9.4499  -16.6406   24.0439 O   0  0  0  0  0  0  0  0  0  0  0  0
    5.8203  -12.0487   27.2264 C   0  0  0  0  0  0  0  0  0  0  0  0
    6.9706  -12.5504   26.3904 C   0  0  2  0  0  0  0  0  0  0  0  0
    7.3955  -11.6446   25.2827 C   0  0  0  0  0  0  0  0  0  0  0  0
    6.8569  -13.9518   25.9675 C   0  0  0  0  0  0  0  0  0  0  0  0
    8.0441  -14.6739   25.4481 C   0  0  2  0  0  0  0  0  0  0  0  0
    7.5817  -16.0649   25.2653 N   0  0  0  0  0  0  0  0  0  0  0  0
    9.2271  -14.7335   26.3017 C   0  0  0  0  0  0  0  0  0  0  0  0
   10.2188  -13.9921   26.0326 O   0  0  0  0  0  0  0  0  0  0  0  0
    9.3892  -15.5445   27.4231 O   0  0  0  0  0  0  0  0  0  0  0  0
  2  1  1  6
  2  7  1  0
  3  2  1  0
  4  3  1  0
  5  4  1  0
  5  9  1  0
  6  5  2  0
  7  8  2  0
 10  7  1  0
 10 11  1  0
 11 12  1  1
 13 14  1  0
 13 12  1  0
 14 15  1  0
 16 15  1  0
 17 11  1  0
 17 18  2  0
 20 19  1  6
 20 21  1  0
 20 22  1  0
 23 22  1  1
 23 24  1  0
 24 17  1  0
 25 27  1  0
 25 23  1  0
 26 25  2  0
M  END
$$$$
