EKL.pdb
     RDKit          3D

 27 26  0  0  1  0  0  0  0  0999 V2000
   10.3925  -14.2458   18.1437 N   0  0  0  0  0  0  0  0  0  0  0  0
   10.5265  -15.4195   19.0013 C   0  0  1  0  0  0  0  0  0  0  0  0
   11.9403  -15.4002   19.5296 C   0  0  0  0  0  0  0  0  0  0  0  0
   12.7000  -14.1857   19.0245 C   0  0  0  0  0  0  0  0  0  0  0  0
   14.0856  -14.1732   19.5067 C   0  0  0  0  0  0  0  0  0  0  0  0
   15.0227  -14.2886   18.6509 O   0  0  0  0  0  0  0  0  0  0  0  0
    9.5003  -15.3474   20.0461 C   0  0  0  0  0  0  0  0  0  0  0  0
    8.7321  -14.3359   20.1519 O   0  0  0  0  0  0  0  0  0  0  0  0
   14.4143  -14.0460   20.8288 O   0  0  0  0  0  0  0  0  0  0  0  0
    9.2858  -16.3715   20.9981 N   0  0  0  0  0  0  0  0  0  0  0  0
    8.1570  -16.3363   21.9499 C   0  0  1  0  0  0  0  0  0  0  0  0
    7.8166  -17.7675   22.2209 C   0  0  0  0  0  0  0  0  0  0  0  0
    7.0829  -18.4825   21.1449 C   0  0  0  0  0  0  0  0  0  0  0  0
    6.8689  -19.9189   21.5517 C   0  0  0  0  0  0  0  0  0  0  0  0
    6.1626  -20.7183   20.4904 C   0  0  0  0  0  0  0  0  0  0  0  0
    6.0937  -22.1086   20.8772 N   0  0  0  0  0  0  0  0  0  0  0  0
    8.6298  -15.7124   23.2259 C   0  0  0  0  0  0  0  0  0  0  0  0
    9.5647  -16.2273   23.8594 O   0  0  0  0  0  0  0  0  0  0  0  0
    7.3331  -13.1335   27.8701 C   0  0  0  0  0  0  0  0  0  0  0  0
    6.9580  -12.4238   26.5936 C   0  0  2  0  0  0  0  0  0  0  0  0
    5.7308  -11.5778   26.6724 C   0  0  0  0  0  0  0  0  0  0  0  0
    6.9933  -13.2645   25.3905 C   0  0  0  0  0  0  0  0  0  0  0  0
    8.1709  -14.1232   25.1137 C   0  0  2  0  0  0  0  0  0  0  0  0
    8.0061  -14.5360   23.7050 N   0  0  0  0  0  0  0  0  0  0  0  0
    8.3147  -15.3475   25.8959 C   0  0  0  0  0  0  0  0  0  0  0  0
    9.2885  -15.4541   26.6996 O   0  0  0  0  0  0  0  0  0  0  0  0
    7.4648  -16.4509   25.8558 O   0  0  0  0  0  0  0  0  0  0  0  0
  2  1  1  6
  2  7  1  0
  3  2  1  0
  4  3  1  0
  5  4  1  0
  5  9  1  0
  6  5  2  0
  7  8  2  0
 10  7  1  0
 10 11  1  0
 11 12  1  1
 13 14  1  0
 13 12  1  0
 14 15  1  0
 16 15  1  0
 17 11  1  0
 17 18  2  0
 20 19  1  1
 20 21  1  0
 20 22  1  0
 23 22  1  1
 23 24  1  0
 24 17  1  0
 25 27  1  0
 25 23  1  0
 26 25  2  0
M  END
$$$$
