EKL.pdb
     RDKit          3D

 27 26  0  0  1  0  0  0  0  0999 V2000
   12.0332  -20.9596   22.5867 N   0  0  0  0  0  0  0  0  0  0  0  0
   11.0270  -20.2556   23.3759 C   0  0  1  0  0  0  0  0  0  0  0  0
   11.2459  -20.6706   24.8105 C   0  0  0  0  0  0  0  0  0  0  0  0
   12.6776  -21.1231   25.0402 C   0  0  0  0  0  0  0  0  0  0  0  0
   12.7666  -22.1167   26.1161 C   0  0  0  0  0  0  0  0  0  0  0  0
   13.6822  -21.9770   26.9913 O   0  0  0  0  0  0  0  0  0  0  0  0
   11.1818  -18.8162   23.1432 C   0  0  0  0  0  0  0  0  0  0  0  0
   12.3343  -18.2781   23.0620 O   0  0  0  0  0  0  0  0  0  0  0  0
   11.9152  -23.1829   26.2193 O   0  0  0  0  0  0  0  0  0  0  0  0
   10.0892  -17.9302   22.9933 N   0  0  0  0  0  0  0  0  0  0  0  0
   10.2731  -16.5075   22.6422 C   0  0  1  0  0  0  0  0  0  0  0  0
    9.0452  -16.1208   21.8804 C   0  0  0  0  0  0  0  0  0  0  0  0
    9.0746  -16.3732   20.4166 C   0  0  0  0  0  0  0  0  0  0  0  0
    7.9669  -17.3286   20.0492 C   0  0  0  0  0  0  0  0  0  0  0  0
    7.9541  -17.6573   18.5809 C   0  0  0  0  0  0  0  0  0  0  0  0
    6.8155  -18.4894   18.2667 N   0  0  0  0  0  0  0  0  0  0  0  0
   10.3173  -15.7073   23.9067 C   0  0  0  0  0  0  0  0  0  0  0  0
   10.6202  -14.5042   23.8696 O   0  0  0  0  0  0  0  0  0  0  0  0
    7.2224  -12.8699   26.9911 C   0  0  0  0  0  0  0  0  0  0  0  0
    8.4540  -13.6898   27.2823 C   0  0  2  0  0  0  0  0  0  0  0  0
    9.5826  -12.9424   27.9112 C   0  0  0  0  0  0  0  0  0  0  0  0
    8.8896  -14.5562   26.1799 C   0  0  0  0  0  0  0  0  0  0  0  0
    9.9822  -15.5378   26.3884 C   0  0  2  0  0  0  0  0  0  0  0  0
   10.0135  -16.3286   25.1412 N   0  0  0  0  0  0  0  0  0  0  0  0
    9.8365  -16.4898   27.4856 C   0  0  0  0  0  0  0  0  0  0  0  0
    8.9908  -17.4274   27.3795 O   0  0  0  0  0  0  0  0  0  0  0  0
   10.5549  -16.4814   28.6796 O   0  0  0  0  0  0  0  0  0  0  0  0
  2  1  1  6
  2  7  1  0
  3  2  1  0
  4  3  1  0
  5  4  1  0
  5  9  1  0
  6  5  2  0
  7  8  2  0
 10  7  1  0
 10 11  1  0
 11 12  1  6
 13 14  1  0
 13 12  1  0
 14 15  1  0
 16 15  1  0
 17 11  1  0
 17 18  2  0
 20 19  1  6
 20 21  1  0
 20 22  1  0
 23 22  1  6
 23 24  1  0
 24 17  1  0
 25 27  1  0
 25 23  1  0
 26 25  2  0
M  END
$$$$
