EKL.pdb
     RDKit          3D

 27 26  0  0  1  0  0  0  0  0999 V2000
   10.0326  -15.2101   19.4104 N   0  0  0  0  0  0  0  0  0  0  0  0
    9.0175  -14.2494   19.8316 C   0  0  1  0  0  0  0  0  0  0  0  0
    8.1340  -14.0116   18.6310 C   0  0  0  0  0  0  0  0  0  0  0  0
    8.7123  -14.6600   17.3850 C   0  0  0  0  0  0  0  0  0  0  0  0
    7.8193  -14.5093   16.2307 C   0  0  0  0  0  0  0  0  0  0  0  0
    6.7933  -13.7640   16.3557 O   0  0  0  0  0  0  0  0  0  0  0  0
    8.3098  -14.8035   20.9901 C   0  0  0  0  0  0  0  0  0  0  0  0
    7.3623  -14.1652   21.5553 O   0  0  0  0  0  0  0  0  0  0  0  0
    8.0375  -15.1326   15.0323 O   0  0  0  0  0  0  0  0  0  0  0  0
    8.6149  -16.0619   21.5596 N   0  0  0  0  0  0  0  0  0  0  0  0
    7.9348  -16.5621   22.7713 C   0  0  1  0  0  0  0  0  0  0  0  0
    8.2074  -18.0326   22.8056 C   0  0  0  0  0  0  0  0  0  0  0  0
    7.6051  -18.7854   23.9360 C   0  0  0  0  0  0  0  0  0  0  0  0
    8.0352  -20.2291   23.8641 C   0  0  0  0  0  0  0  0  0  0  0  0
    7.4942  -21.0481   25.0046 C   0  0  0  0  0  0  0  0  0  0  0  0
    8.0065  -22.3973   24.9359 N   0  0  0  0  0  0  0  0  0  0  0  0
    8.5750  -15.9340   23.9699 C   0  0  0  0  0  0  0  0  0  0  0  0
    9.8095  -15.9552   24.0968 O   0  0  0  0  0  0  0  0  0  0  0  0
    8.8605  -11.7307   25.4222 C   0  0  0  0  0  0  0  0  0  0  0  0
    7.5089  -12.3708   25.6160 C   0  0  2  0  0  0  0  0  0  0  0  0
    6.3969  -11.4270   25.9329 C   0  0  0  0  0  0  0  0  0  0  0  0
    7.5103  -13.5588   26.4788 C   0  0  0  0  0  0  0  0  0  0  0  0
    8.3812  -14.7154   26.1557 C   0  0  2  0  0  0  0  0  0  0  0  0
    7.7671  -15.3184   24.9552 N   0  0  0  0  0  0  0  0  0  0  0  0
    8.4909  -15.7787   27.1501 C   0  0  0  0  0  0  0  0  0  0  0  0
    9.1559  -15.5669   28.2077 O   0  0  0  0  0  0  0  0  0  0  0  0
    7.9204  -17.0469   27.0611 O   0  0  0  0  0  0  0  0  0  0  0  0
  2  1  1  6
  2  7  1  0
  3  2  1  0
  4  3  1  0
  5  4  1  0
  5  9  1  0
  6  5  2  0
  7  8  2  0
 10  7  1  0
 10 11  1  0
 11 12  1  1
 13 14  1  0
 13 12  1  0
 14 15  1  0
 16 15  1  0
 17 11  1  0
 17 18  2  0
 20 19  1  1
 20 21  1  0
 20 22  1  0
 23 22  1  1
 23 24  1  0
 24 17  1  0
 25 27  1  0
 25 23  1  0
 26 25  2  0
M  END
$$$$
