EKL.pdb
     RDKit          3D

 27 26  0  0  1  0  0  0  0  0999 V2000
    9.7207  -16.5078   19.4138 N   0  0  0  0  0  0  0  0  0  0  0  0
    8.3814  -15.9581   19.6003 C   0  0  1  0  0  0  0  0  0  0  0  0
    7.5216  -16.5572   18.5139 C   0  0  0  0  0  0  0  0  0  0  0  0
    7.9178  -17.9955   18.2288 C   0  0  0  0  0  0  0  0  0  0  0  0
    6.9897  -18.6385   17.2919 C   0  0  0  0  0  0  0  0  0  0  0  0
    6.3296  -19.6507   17.6967 O   0  0  0  0  0  0  0  0  0  0  0  0
    7.9344  -16.2819   20.9587 C   0  0  0  0  0  0  0  0  0  0  0  0
    6.7837  -15.9304   21.3792 O   0  0  0  0  0  0  0  0  0  0  0  0
    6.8042  -18.2028   16.0082 O   0  0  0  0  0  0  0  0  0  0  0  0
    8.7263  -16.9942   21.8895 N   0  0  0  0  0  0  0  0  0  0  0  0
    8.2749  -17.2507   23.2721 C   0  0  1  0  0  0  0  0  0  0  0  0
    8.9281  -18.5347   23.6752 C   0  0  0  0  0  0  0  0  0  0  0  0
    8.6560  -19.0032   25.0586 C   0  0  0  0  0  0  0  0  0  0  0  0
    9.3211  -20.3391   25.2765 C   0  0  0  0  0  0  0  0  0  0  0  0
    9.0079  -20.9243   26.6269 C   0  0  0  0  0  0  0  0  0  0  0  0
    7.7269  -21.5918   26.5956 N   0  0  0  0  0  0  0  0  0  0  0  0
    8.7953  -16.1579   24.1531 C   0  0  0  0  0  0  0  0  0  0  0  0
   10.0000  -15.8606   24.1272 O   0  0  0  0  0  0  0  0  0  0  0  0
    6.1587  -11.3176   26.1683 C   0  0  0  0  0  0  0  0  0  0  0  0
    7.4007  -12.1291   25.8984 C   0  0  2  0  0  0  0  0  0  0  0  0
    8.0490  -11.8807   24.5771 C   0  0  0  0  0  0  0  0  0  0  0  0
    7.2810  -13.5580   26.2138 C   0  0  0  0  0  0  0  0  0  0  0  0
    8.4239  -14.4735   25.9764 C   0  0  2  0  0  0  0  0  0  0  0  0
    7.9087  -15.4684   25.0138 N   0  0  0  0  0  0  0  0  0  0  0  0
    8.9398  -15.2225   27.1185 C   0  0  0  0  0  0  0  0  0  0  0  0
    8.4589  -16.3669   27.3727 O   0  0  0  0  0  0  0  0  0  0  0  0
    9.9425  -14.8018   27.9898 O   0  0  0  0  0  0  0  0  0  0  0  0
  2  1  1  6
  2  7  1  0
  3  2  1  0
  4  3  1  0
  5  4  1  0
  5  9  1  0
  6  5  2  0
  7  8  2  0
 10  7  1  0
 10 11  1  0
 11 12  1  1
 13 14  1  0
 13 12  1  0
 14 15  1  0
 16 15  1  0
 17 11  1  0
 17 18  2  0
 20 19  1  6
 20 21  1  0
 20 22  1  0
 23 22  1  1
 23 24  1  0
 24 17  1  0
 25 27  1  0
 25 23  1  0
 26 25  2  0
M  END
$$$$
