EKL.pdb
     RDKit          3D

 27 26  0  0  1  0  0  0  0  0999 V2000
    9.1303  -14.9682   18.4883 N   0  0  0  0  0  0  0  0  0  0  0  0
    8.9261  -13.7761   19.3054 C   0  0  1  0  0  0  0  0  0  0  0  0
    8.0697  -12.8413   18.4861 C   0  0  0  0  0  0  0  0  0  0  0  0
    7.3567  -13.5845   17.3697 C   0  0  0  0  0  0  0  0  0  0  0  0
    8.3041  -14.2612   16.4769 C   0  0  0  0  0  0  0  0  0  0  0  0
    8.5674  -15.4886   16.6962 O   0  0  0  0  0  0  0  0  0  0  0  0
    8.3145  -14.1848   20.5738 C   0  0  0  0  0  0  0  0  0  0  0  0
    7.9681  -13.3261   21.4497 O   0  0  0  0  0  0  0  0  0  0  0  0
    8.9161  -13.6349   15.4255 O   0  0  0  0  0  0  0  0  0  0  0  0
    8.0653  -15.5339   20.9185 N   0  0  0  0  0  0  0  0  0  0  0  0
    7.5095  -15.9203   22.2311 C   0  0  1  0  0  0  0  0  0  0  0  0
    7.1166  -17.3570   22.0927 C   0  0  0  0  0  0  0  0  0  0  0  0
    5.7406  -17.6160   21.5959 C   0  0  0  0  0  0  0  0  0  0  0  0
    5.5289  -19.1025   21.4546 C   0  0  0  0  0  0  0  0  0  0  0  0
    4.1853  -19.4390   20.8667 C   0  0  0  0  0  0  0  0  0  0  0  0
    4.0342  -20.8717   20.7571 N   0  0  0  0  0  0  0  0  0  0  0  0
    8.5970  -15.8235   23.2555 C   0  0  0  0  0  0  0  0  0  0  0  0
    9.7095  -15.3735   22.9389 O   0  0  0  0  0  0  0  0  0  0  0  0
    8.3073  -13.2592   27.6706 C   0  0  0  0  0  0  0  0  0  0  0  0
    7.5923  -13.0428   26.3607 C   0  0  2  0  0  0  0  0  0  0  0  0
    6.2159  -12.4764   26.4724 C   0  0  0  0  0  0  0  0  0  0  0  0
    7.6687  -14.1721   25.4255 C   0  0  0  0  0  0  0  0  0  0  0  0
    8.5602  -15.3221   25.7145 C   0  0  2  0  0  0  0  0  0  0  0  0
    8.3504  -16.2477   24.5827 N   0  0  0  0  0  0  0  0  0  0  0  0
    8.3072  -16.0850   26.9333 C   0  0  0  0  0  0  0  0  0  0  0  0
    9.0828  -15.9376   27.9244 O   0  0  0  0  0  0  0  0  0  0  0  0
    7.2657  -16.9887   27.1339 O   0  0  0  0  0  0  0  0  0  0  0  0
  2  1  1  6
  2  7  1  0
  3  2  1  0
  4  3  1  0
  5  4  1  0
  5  9  1  0
  6  5  2  0
  7  8  2  0
 10  7  1  0
 10 11  1  0
 11 12  1  6
 13 14  1  0
 13 12  1  0
 14 15  1  0
 16 15  1  0
 17 11  1  0
 17 18  2  0
 20 19  1  1
 20 21  1  0
 20 22  1  0
 23 22  1  6
 23 24  1  0
 24 17  1  0
 25 27  1  0
 25 23  1  0
 26 25  2  0
M  END
$$$$
