EKL.pdb
     RDKit          3D

 27 26  0  0  1  0  0  0  0  0999 V2000
    9.9511  -16.3626   18.0752 N   0  0  0  0  0  0  0  0  0  0  0  0
   10.5113  -17.0683   19.2236 C   0  0  1  0  0  0  0  0  0  0  0  0
   11.8900  -16.4945   19.4433 C   0  0  0  0  0  0  0  0  0  0  0  0
   12.0023  -15.0949   18.8639 C   0  0  0  0  0  0  0  0  0  0  0  0
   13.3591  -14.5554   19.0075 C   0  0  0  0  0  0  0  0  0  0  0  0
   13.5727  -13.6979   19.9257 O   0  0  0  0  0  0  0  0  0  0  0  0
    9.6048  -16.8901   20.3622 C   0  0  0  0  0  0  0  0  0  0  0  0
    8.8544  -15.8643   20.4577 O   0  0  0  0  0  0  0  0  0  0  0  0
   14.3998  -14.9291   18.2016 O   0  0  0  0  0  0  0  0  0  0  0  0
    9.4931  -17.8213   21.4212 N   0  0  0  0  0  0  0  0  0  0  0  0
    8.4530  -17.7057   22.4634 C   0  0  1  0  0  0  0  0  0  0  0  0
    8.3593  -19.0617   23.0880 C   0  0  0  0  0  0  0  0  0  0  0  0
    7.4413  -19.1871   24.2494 C   0  0  0  0  0  0  0  0  0  0  0  0
    7.5004  -20.5950   24.7868 C   0  0  0  0  0  0  0  0  0  0  0  0
    6.4486  -20.8570   25.8305 C   0  0  0  0  0  0  0  0  0  0  0  0
    6.5410  -22.2204   26.2995 N   0  0  0  0  0  0  0  0  0  0  0  0
    8.9262  -16.7375   23.5025 C   0  0  0  0  0  0  0  0  0  0  0  0
   10.1345  -16.6618   23.7759 O   0  0  0  0  0  0  0  0  0  0  0  0
    8.6462  -12.6878   26.9358 C   0  0  0  0  0  0  0  0  0  0  0  0
    7.5133  -12.6497   25.9413 C   0  0  2  0  0  0  0  0  0  0  0  0
    6.2000  -12.1991   26.4891 C   0  0  0  0  0  0  0  0  0  0  0  0
    7.3976  -13.8447   25.0963 C   0  0  0  0  0  0  0  0  0  0  0  0
    8.4490  -14.8906   25.1338 C   0  0  2  0  0  0  0  0  0  0  0  0
    7.9907  -15.9121   24.1703 N   0  0  0  0  0  0  0  0  0  0  0  0
    8.6734  -15.5797   26.4012 C   0  0  0  0  0  0  0  0  0  0  0  0
    7.8311  -16.4425   26.7908 O   0  0  0  0  0  0  0  0  0  0  0  0
    9.7543  -15.3872   27.2592 O   0  0  0  0  0  0  0  0  0  0  0  0
  2  1  1  6
  2  7  1  0
  3  2  1  0
  4  3  1  0
  5  4  1  0
  5  9  1  0
  6  5  2  0
  7  8  2  0
 10  7  1  0
 10 11  1  0
 11 12  1  1
 13 14  1  0
 13 12  1  0
 14 15  1  0
 16 15  1  0
 17 11  1  0
 17 18  2  0
 20 19  1  1
 20 21  1  0
 20 22  1  0
 23 22  1  1
 23 24  1  0
 24 17  1  0
 25 27  1  0
 25 23  1  0
 26 25  2  0
M  END
$$$$
