EKL.pdb
     RDKit          3D

 27 26  0  0  1  0  0  0  0  0999 V2000
    7.1139  -19.9278   22.3775 N   0  0  0  0  0  0  0  0  0  0  0  0
    6.6518  -18.6377   22.8803 C   0  0  1  0  0  0  0  0  0  0  0  0
    6.3091  -18.8471   24.3354 C   0  0  0  0  0  0  0  0  0  0  0  0
    7.5361  -19.2437   25.1381 C   0  0  0  0  0  0  0  0  0  0  0  0
    7.2457  -19.3125   26.5746 C   0  0  0  0  0  0  0  0  0  0  0  0
    6.0384  -19.1614   26.9534 O   0  0  0  0  0  0  0  0  0  0  0  0
    7.7103  -17.6484   22.6553 C   0  0  0  0  0  0  0  0  0  0  0  0
    8.9322  -17.9966   22.5535 O   0  0  0  0  0  0  0  0  0  0  0  0
    8.2099  -19.5286   27.5212 O   0  0  0  0  0  0  0  0  0  0  0  0
    7.4655  -16.2603   22.5355 N   0  0  0  0  0  0  0  0  0  0  0  0
    8.5529  -15.2868   22.3098 C   0  0  1  0  0  0  0  0  0  0  0  0
    7.9409  -14.1809   21.5096 C   0  0  0  0  0  0  0  0  0  0  0  0
    7.5464  -14.5188   20.1177 C   0  0  0  0  0  0  0  0  0  0  0  0
    8.0061  -13.4257   19.1859 C   0  0  0  0  0  0  0  0  0  0  0  0
    7.6755  -13.7190   17.7475 C   0  0  0  0  0  0  0  0  0  0  0  0
    7.8708  -12.5367   16.9404 N   0  0  0  0  0  0  0  0  0  0  0  0
    8.9786  -14.7334   23.6340 C   0  0  0  0  0  0  0  0  0  0  0  0
    9.9323  -13.9417   23.6982 O   0  0  0  0  0  0  0  0  0  0  0  0
    5.9810  -12.1806   27.3164 C   0  0  0  0  0  0  0  0  0  0  0  0
    7.3783  -12.6402   26.9844 C   0  0  2  0  0  0  0  0  0  0  0  0
    8.0877  -11.8277   25.9528 C   0  0  0  0  0  0  0  0  0  0  0  0
    7.5128  -14.0853   26.7619 C   0  0  0  0  0  0  0  0  0  0  0  0
    8.7383  -14.6329   26.1305 C   0  0  2  0  0  0  0  0  0  0  0  0
    8.2900  -15.1175   24.8090 N   0  0  0  0  0  0  0  0  0  0  0  0
    9.3946  -15.7581   26.7897 C   0  0  0  0  0  0  0  0  0  0  0  0
    9.8647  -15.5999   27.9558 O   0  0  0  0  0  0  0  0  0  0  0  0
    9.5640  -17.0349   26.2581 O   0  0  0  0  0  0  0  0  0  0  0  0
  2  1  1  1
  2  7  1  0
  3  2  1  0
  4  3  1  0
  5  4  1  0
  5  9  1  0
  6  5  2  0
  7  8  2  0
 10  7  1  0
 10 11  1  0
 11 12  1  6
 13 14  1  0
 13 12  1  0
 14 15  1  0
 16 15  1  0
 17 11  1  0
 17 18  2  0
 20 19  1  6
 20 21  1  0
 20 22  1  0
 23 22  1  1
 23 24  1  0
 24 17  1  0
 25 27  1  0
 25 23  1  0
 26 25  2  0
M  END
$$$$
