EKL.pdb
     RDKit          3D

 27 26  0  0  1  0  0  0  0  0999 V2000
   11.7631  -18.3000   20.4600 N   0  0  0  0  0  0  0  0  0  0  0  0
   11.2503  -16.9348   20.3960 C   0  0  1  0  0  0  0  0  0  0  0  0
   10.9866  -16.6482   18.9377 C   0  0  0  0  0  0  0  0  0  0  0  0
   11.8243  -17.5431   18.0407 C   0  0  0  0  0  0  0  0  0  0  0  0
   12.4565  -16.7847   16.9555 C   0  0  0  0  0  0  0  0  0  0  0  0
   13.3083  -17.3818   16.2195 O   0  0  0  0  0  0  0  0  0  0  0  0
   10.0571  -16.8496   21.2439 C   0  0  0  0  0  0  0  0  0  0  0  0
    9.3502  -15.7899   21.2887 O   0  0  0  0  0  0  0  0  0  0  0  0
   12.1746  -15.4700   16.7014 O   0  0  0  0  0  0  0  0  0  0  0  0
    9.6053  -17.9124   22.0607 N   0  0  0  0  0  0  0  0  0  0  0  0
    8.4487  -17.7699   22.9681 C   0  0  1  0  0  0  0  0  0  0  0  0
    8.0727  -19.1637   23.3599 C   0  0  0  0  0  0  0  0  0  0  0  0
    6.8854  -19.2994   24.2427 C   0  0  0  0  0  0  0  0  0  0  0  0
    6.6253  -20.7600   24.5138 C   0  0  0  0  0  0  0  0  0  0  0  0
    5.4344  -20.9760   25.4078 C   0  0  0  0  0  0  0  0  0  0  0  0
    5.2381  -22.3878   25.6437 N   0  0  0  0  0  0  0  0  0  0  0  0
    8.8941  -17.0370   24.1952 C   0  0  0  0  0  0  0  0  0  0  0  0
   10.0716  -17.1250   24.5775 O   0  0  0  0  0  0  0  0  0  0  0  0
    8.2804  -12.4893   25.7208 C   0  0  0  0  0  0  0  0  0  0  0  0
    7.0654  -13.3823   25.7384 C   0  0  2  0  0  0  0  0  0  0  0  0
    5.7792  -12.7011   26.0694 C   0  0  0  0  0  0  0  0  0  0  0  0
    7.2429  -14.6463   26.4639 C   0  0  0  0  0  0  0  0  0  0  0  0
    8.3842  -15.5379   26.1426 C   0  0  2  0  0  0  0  0  0  0  0  0
    7.9674  -16.2464   24.9153 N   0  0  0  0  0  0  0  0  0  0  0  0
    8.7380  -16.5634   27.1197 C   0  0  0  0  0  0  0  0  0  0  0  0
    8.0579  -17.6315   27.1655 O   0  0  0  0  0  0  0  0  0  0  0  0
    9.7827  -16.4943   28.0392 O   0  0  0  0  0  0  0  0  0  0  0  0
  2  1  1  6
  2  7  1  0
  3  2  1  0
  4  3  1  0
  5  4  1  0
  5  9  1  0
  6  5  2  0
  7  8  2  0
 10  7  1  0
 10 11  1  0
 11 12  1  1
 13 14  1  0
 13 12  1  0
 14 15  1  0
 16 15  1  0
 17 11  1  0
 17 18  2  0
 20 19  1  1
 20 21  1  0
 20 22  1  0
 23 22  1  1
 23 24  1  0
 24 17  1  0
 25 27  1  0
 25 23  1  0
 26 25  2  0
M  END
$$$$
