EKL.pdb
     RDKit          3D

 27 26  0  0  1  0  0  0  0  0999 V2000
    8.0471  -13.7530   18.5946 N   0  0  0  0  0  0  0  0  0  0  0  0
    8.6685  -14.9428   19.1682 C   0  0  1  0  0  0  0  0  0  0  0  0
   10.1599  -14.7360   19.0617 C   0  0  0  0  0  0  0  0  0  0  0  0
   10.6631  -13.7923   20.1404 C   0  0  0  0  0  0  0  0  0  0  0  0
   12.1119  -13.5819   20.0445 C   0  0  0  0  0  0  0  0  0  0  0  0
   12.8208  -13.7874   21.0833 O   0  0  0  0  0  0  0  0  0  0  0  0
    8.1865  -15.0975   20.5443 C   0  0  0  0  0  0  0  0  0  0  0  0
    7.5721  -14.1539   21.1414 O   0  0  0  0  0  0  0  0  0  0  0  0
   12.7322  -13.1745   18.8950 O   0  0  0  0  0  0  0  0  0  0  0  0
    8.3608  -16.2795   21.3016 N   0  0  0  0  0  0  0  0  0  0  0  0
    7.6627  -16.5018   22.5840 C   0  0  1  0  0  0  0  0  0  0  0  0
    7.6887  -17.9813   22.8032 C   0  0  0  0  0  0  0  0  0  0  0  0
    7.0938  -18.4667   24.0751 C   0  0  0  0  0  0  0  0  0  0  0  0
    7.1478  -19.9734   24.1122 C   0  0  0  0  0  0  0  0  0  0  0  0
    6.5649  -20.5390   25.3788 C   0  0  0  0  0  0  0  0  0  0  0  0
    6.6003  -21.9829   25.3422 N   0  0  0  0  0  0  0  0  0  0  0  0
    8.4520  -15.8477   23.6750 C   0  0  0  0  0  0  0  0  0  0  0  0
    9.6841  -15.9898   23.7205 O   0  0  0  0  0  0  0  0  0  0  0  0
    9.0078  -11.6350   24.8651 C   0  0  0  0  0  0  0  0  0  0  0  0
    7.6750  -12.1569   25.3396 C   0  0  2  0  0  0  0  0  0  0  0  0
    6.7269  -11.1191   25.8417 C   0  0  0  0  0  0  0  0  0  0  0  0
    7.7527  -13.3298   26.2193 C   0  0  0  0  0  0  0  0  0  0  0  0
    8.5307  -14.5232   25.8057 C   0  0  2  0  0  0  0  0  0  0  0  0
    7.7871  -15.0693   24.6520 N   0  0  0  0  0  0  0  0  0  0  0  0
    8.6663  -15.6106   26.7704 C   0  0  0  0  0  0  0  0  0  0  0  0
    9.6032  -15.5650   27.6223 O   0  0  0  0  0  0  0  0  0  0  0  0
    7.8456  -16.7329   26.8620 O   0  0  0  0  0  0  0  0  0  0  0  0
  2  1  1  1
  2  7  1  0
  3  2  1  0
  4  3  1  0
  5  4  1  0
  5  9  1  0
  6  5  2  0
  7  8  2  0
 10  7  1  0
 10 11  1  0
 11 12  1  1
 13 14  1  0
 13 12  1  0
 14 15  1  0
 16 15  1  0
 17 11  1  0
 17 18  2  0
 20 19  1  1
 20 21  1  0
 20 22  1  0
 23 22  1  1
 23 24  1  0
 24 17  1  0
 25 27  1  0
 25 23  1  0
 26 25  2  0
M  END
$$$$
