EKL.pdb
     RDKit          3D

 27 26  0  0  1  0  0  0  0  0999 V2000
    7.6597  -18.5538   19.0204 N   0  0  0  0  0  0  0  0  0  0  0  0
    8.6060  -18.5522   20.1319 C   0  0  1  0  0  0  0  0  0  0  0  0
    9.7452  -17.6523   19.7183 C   0  0  0  0  0  0  0  0  0  0  0  0
   10.5787  -18.2893   18.6198 C   0  0  0  0  0  0  0  0  0  0  0  0
   11.7561  -17.4774   18.2922 C   0  0  0  0  0  0  0  0  0  0  0  0
   12.8512  -17.7350   18.8906 O   0  0  0  0  0  0  0  0  0  0  0  0
    7.9017  -18.1039   21.3373 C   0  0  0  0  0  0  0  0  0  0  0  0
    6.8856  -17.3380   21.2649 O   0  0  0  0  0  0  0  0  0  0  0  0
   11.7295  -16.4594   17.3783 O   0  0  0  0  0  0  0  0  0  0  0  0
    8.2849  -18.4774   22.6467 N   0  0  0  0  0  0  0  0  0  0  0  0
    7.5201  -18.0596   23.8391 C   0  0  1  0  0  0  0  0  0  0  0  0
    7.2700  -19.3141   24.6145 C   0  0  0  0  0  0  0  0  0  0  0  0
    6.0726  -20.1008   24.2213 C   0  0  0  0  0  0  0  0  0  0  0  0
    5.9410  -21.3010   25.1250 C   0  0  0  0  0  0  0  0  0  0  0  0
    4.7591  -22.1618   24.7697 C   0  0  0  0  0  0  0  0  0  0  0  0
    4.6124  -23.2287   25.7329 N   0  0  0  0  0  0  0  0  0  0  0  0
    8.3824  -17.1565   24.6651 C   0  0  0  0  0  0  0  0  0  0  0  0
    9.6176  -17.2711   24.6257 O   0  0  0  0  0  0  0  0  0  0  0  0
    7.8581  -12.6526   24.9384 C   0  0  0  0  0  0  0  0  0  0  0  0
    6.9689  -13.3705   25.9222 C   0  0  2  0  0  0  0  0  0  0  0  0
    5.9569  -12.5143   26.6084 C   0  0  0  0  0  0  0  0  0  0  0  0
    7.6740  -14.2688   26.8451 C   0  0  0  0  0  0  0  0  0  0  0  0
    8.6186  -15.2857   26.3216 C   0  0  2  0  0  0  0  0  0  0  0  0
    7.7828  -16.1749   25.4893 N   0  0  0  0  0  0  0  0  0  0  0  0
    9.3016  -16.1375   27.2908 C   0  0  0  0  0  0  0  0  0  0  0  0
   10.2191  -15.6401   28.0094 O   0  0  0  0  0  0  0  0  0  0  0  0
    9.0429  -17.4869   27.5226 O   0  0  0  0  0  0  0  0  0  0  0  0
  2  1  1  6
  2  7  1  0
  3  2  1  0
  4  3  1  0
  5  4  1  0
  5  9  1  0
  6  5  2  0
  7  8  2  0
 10  7  1  0
 10 11  1  0
 11 12  1  1
 13 14  1  0
 13 12  1  0
 14 15  1  0
 16 15  1  0
 17 11  1  0
 17 18  2  0
 20 19  1  1
 20 21  1  0
 20 22  1  0
 23 22  1  1
 23 24  1  0
 24 17  1  0
 25 27  1  0
 25 23  1  0
 26 25  2  0
M  END
$$$$
