EKL.pdb
     RDKit          3D

 27 26  0  0  1  0  0  0  0  0999 V2000
    6.1626  -16.7694   19.7439 N   0  0  0  0  0  0  0  0  0  0  0  0
    6.9728  -15.8058   20.4827 C   0  0  1  0  0  0  0  0  0  0  0  0
    6.5861  -14.4413   19.9660 C   0  0  0  0  0  0  0  0  0  0  0  0
    7.8081  -13.5612   19.7676 C   0  0  0  0  0  0  0  0  0  0  0  0
    8.6806  -14.0755   18.7060 C   0  0  0  0  0  0  0  0  0  0  0  0
    8.8803  -15.3326   18.6462 O   0  0  0  0  0  0  0  0  0  0  0  0
    6.7207  -15.9925   21.9150 C   0  0  0  0  0  0  0  0  0  0  0  0
    5.6976  -15.4837   22.4797 O   0  0  0  0  0  0  0  0  0  0  0  0
    9.2881  -13.2683   17.7832 O   0  0  0  0  0  0  0  0  0  0  0  0
    7.5732  -16.7354   22.7648 N   0  0  0  0  0  0  0  0  0  0  0  0
    7.2901  -16.9116   24.2036 C   0  0  1  0  0  0  0  0  0  0  0  0
    7.6796  -18.3211   24.5190 C   0  0  0  0  0  0  0  0  0  0  0  0
    7.5370  -18.7394   25.9374 C   0  0  0  0  0  0  0  0  0  0  0  0
    8.0285  -20.1564   26.0951 C   0  0  0  0  0  0  0  0  0  0  0  0
    7.7133  -20.7272   27.4512 C   0  0  0  0  0  0  0  0  0  0  0  0
    8.0451  -22.1328   27.4895 N   0  0  0  0  0  0  0  0  0  0  0  0
    8.1786  -15.9900   24.9798 C   0  0  0  0  0  0  0  0  0  0  0  0
    9.3368  -15.7711   24.5911 O   0  0  0  0  0  0  0  0  0  0  0  0
    7.4946  -11.7303   25.9941 C   0  0  0  0  0  0  0  0  0  0  0  0
    6.7651  -12.6694   26.9214 C   0  0  2  0  0  0  0  0  0  0  0  0
    5.7177  -12.0354   27.7752 C   0  0  0  0  0  0  0  0  0  0  0  0
    7.6313  -13.5877   27.6712 C   0  0  0  0  0  0  0  0  0  0  0  0
    8.5667  -14.4868   26.9520 C   0  0  2  0  0  0  0  0  0  0  0  0
    7.6922  -15.3723   26.1563 N   0  0  0  0  0  0  0  0  0  0  0  0
    9.4238  -15.3542   27.7547 C   0  0  0  0  0  0  0  0  0  0  0  0
   10.3292  -14.8328   28.4717 O   0  0  0  0  0  0  0  0  0  0  0  0
    9.3500  -16.7439   27.8234 O   0  0  0  0  0  0  0  0  0  0  0  0
  2  1  1  6
  2  7  1  0
  3  2  1  0
  4  3  1  0
  5  4  1  0
  5  9  1  0
  6  5  2  0
  7  8  2  0
 10  7  1  0
 10 11  1  0
 11 12  1  1
 13 14  1  0
 13 12  1  0
 14 15  1  0
 16 15  1  0
 17 11  1  0
 17 18  2  0
 20 19  1  1
 20 21  1  0
 20 22  1  0
 23 22  1  1
 23 24  1  0
 24 17  1  0
 25 27  1  0
 25 23  1  0
 26 25  2  0
M  END
$$$$
