CSR.pdb
     RDKit          3D

 24 23  0  0  1  0  0  0  0  0999 V2000
   22.8590  -12.5290  -16.9473 N   0  0  0  0  0  0  0  0  0  0  0  0
   22.2293  -11.2513  -17.1037 C   0  0  1  0  0  0  0  0  0  0  0  0
   21.2344  -11.2928  -18.2086 C   0  0  0  0  0  0  0  0  0  0  0  0
   19.9292  -12.5153  -17.9371 S   0  0  0  0  0  0  0  0  0  0  0  0
   21.6822  -10.7168  -15.8321 C   0  0  0  0  0  0  0  0  0  0  0  0
   21.2488  -11.5240  -14.9599 O   0  0  0  0  0  0  0  0  0  0  0  0
   21.1328   -6.5963  -15.1652 O   0  0  0  0  0  0  0  0  0  0  0  0
   21.5514   -7.4073  -14.1400 C   0  0  0  0  0  0  0  0  0  0  0  0
   21.0516   -8.8320  -14.2642 C   0  0  2  0  0  0  0  0  0  0  0  0
   21.6053   -9.3442  -15.5105 N   0  0  0  0  0  0  0  0  0  0  0  0
   19.5676   -8.7691  -14.3150 C   0  0  0  0  0  0  0  0  0  0  0  0
   19.0449   -8.6096  -15.4471 O   0  0  0  0  0  0  0  0  0  0  0  0
   13.0487  -10.5387   -8.4876 N   0  0  0  0  0  0  0  0  0  0  0  0
   12.3934  -10.0397   -9.6353 C   0  0  0  0  0  0  0  0  0  0  0  0
   11.0939  -10.0808   -9.7165 N   0  0  0  0  0  0  0  0  0  0  0  0
   13.1183   -9.4844  -10.7234 N   0  0  0  0  0  0  0  0  0  0  0  0
   14.5299   -9.7821  -10.8260 C   0  0  0  0  0  0  0  0  0  0  0  0
   15.1084   -9.0948  -12.0657 C   0  0  0  0  0  0  0  0  0  0  0  0
   16.6020   -9.3015  -12.0859 C   0  0  0  0  0  0  0  0  0  0  0  0
   17.2758   -8.6593  -13.2526 C   0  0  2  0  0  0  0  0  0  0  0  0
   18.7317   -8.8742  -13.2034 N   0  0  0  0  0  0  0  0  0  0  0  0
   17.0609   -7.2094  -13.3575 C   0  0  0  0  0  0  0  0  0  0  0  0
   16.0345   -6.7239  -13.9292 O   0  0  0  0  0  0  0  0  0  0  0  0
   17.9488   -6.2852  -12.8465 O   0  0  0  0  0  0  0  0  0  0  0  0
  2  1  1  1
  2  3  1  0
  4  3  1  0
  5  2  1  0
  6  5  2  0
  7  8  1  0
  9  8  1  6
  9 11  1  0
  9 10  1  0
 10  5  1  0
 11 21  1  0
 12 11  2  0
 14 13  1  0
 15 14  2  0
 16 14  1  0
 17 16  1  0
 18 17  1  0
 19 18  1  0
 20 19  1  1
 20 22  1  0
 21 20  1  0
 22 23  2  0
 22 24  1  0
M  END
$$$$
