CSR.pdb
     RDKit          3D

 24 23  0  0  1  0  0  0  0  0999 V2000
   20.9667  -15.4996  -17.8890 N   0  0  0  0  0  0  0  0  0  0  0  0
   20.0475  -14.4588  -18.2430 C   0  0  1  0  0  0  0  0  0  0  0  0
   18.8230  -15.0337  -18.8614 C   0  0  0  0  0  0  0  0  0  0  0  0
   19.1108  -15.6820  -20.5253 S   0  0  0  0  0  0  0  0  0  0  0  0
   19.7657  -13.5298  -17.1207 C   0  0  0  0  0  0  0  0  0  0  0  0
   19.3628  -14.0000  -16.0176 O   0  0  0  0  0  0  0  0  0  0  0  0
   20.2619   -8.9927  -15.4066 O   0  0  0  0  0  0  0  0  0  0  0  0
   20.4232   -9.9594  -16.3676 C   0  0  0  0  0  0  0  0  0  0  0  0
   19.6490  -11.2279  -16.0739 C   0  0  2  0  0  0  0  0  0  0  0  0
   19.9153  -12.1276  -17.1883 N   0  0  0  0  0  0  0  0  0  0  0  0
   18.2118  -10.8548  -16.0092 C   0  0  0  0  0  0  0  0  0  0  0  0
   17.6119  -10.7153  -17.1052 O   0  0  0  0  0  0  0  0  0  0  0  0
   11.5180  -13.3737  -11.0737 N   0  0  0  0  0  0  0  0  0  0  0  0
   10.9631  -12.3577  -11.8833 C   0  0  0  0  0  0  0  0  0  0  0  0
    9.6727  -12.1828  -11.9209 N   0  0  0  0  0  0  0  0  0  0  0  0
   11.7810  -11.5050  -12.6719 N   0  0  0  0  0  0  0  0  0  0  0  0
   13.1829  -11.8351  -12.8043 C   0  0  0  0  0  0  0  0  0  0  0  0
   13.8482  -10.8582  -13.7776 C   0  0  0  0  0  0  0  0  0  0  0  0
   15.3060  -11.2199  -13.9115 C   0  0  0  0  0  0  0  0  0  0  0  0
   16.0728  -10.2856  -14.7872 C   0  0  2  0  0  0  0  0  0  0  0  0
   17.4981  -10.6528  -14.8280 N   0  0  0  0  0  0  0  0  0  0  0  0
   16.0060   -8.8755  -14.3788 C   0  0  0  0  0  0  0  0  0  0  0  0
   16.9843   -8.2955  -13.8107 O   0  0  0  0  0  0  0  0  0  0  0  0
   14.8888   -8.0921  -14.5834 O   0  0  0  0  0  0  0  0  0  0  0  0
  2  1  1  1
  2  3  1  0
  4  3  1  0
  5  2  1  0
  6  5  2  0
  7  8  1  0
  9  8  1  6
  9 11  1  0
  9 10  1  0
 10  5  1  0
 11 21  1  0
 12 11  2  0
 14 13  1  0
 15 14  2  0
 16 14  1  0
 17 16  1  0
 18 17  1  0
 19 18  1  0
 20 19  1  1
 20 22  1  0
 21 20  1  0
 22 23  2  0
 22 24  1  0
M  END
$$$$
