CSR.pdb
     RDKit          3D

 24 23  0  0  1  0  0  0  0  0999 V2000
   20.8574  -10.8091  -15.3441 N   0  0  0  0  0  0  0  0  0  0  0  0
   20.3409   -9.4765  -15.4485 C   0  0  1  0  0  0  0  0  0  0  0  0
   19.0727   -9.4689  -16.2257 C   0  0  0  0  0  0  0  0  0  0  0  0
   19.3330   -9.6857  -18.0025 S   0  0  0  0  0  0  0  0  0  0  0  0
   20.2368   -8.7923  -14.1358 C   0  0  0  0  0  0  0  0  0  0  0  0
   19.7104   -9.4041  -13.1618 O   0  0  0  0  0  0  0  0  0  0  0  0
   21.1581   -4.7349  -13.6595 O   0  0  0  0  0  0  0  0  0  0  0  0
   21.4886   -5.6108  -12.6558 C   0  0  0  0  0  0  0  0  0  0  0  0
   20.5731   -6.8159  -12.5900 C   0  0  2  0  0  0  0  0  0  0  0  0
   20.6900   -7.4796  -13.8816 N   0  0  0  0  0  0  0  0  0  0  0  0
   19.1961   -6.3039  -12.3657 C   0  0  0  0  0  0  0  0  0  0  0  0
   18.5556   -5.9340  -13.3823 O   0  0  0  0  0  0  0  0  0  0  0  0
   13.3849   -8.5748   -6.7019 N   0  0  0  0  0  0  0  0  0  0  0  0
   13.3983   -8.7331   -8.1055 C   0  0  0  0  0  0  0  0  0  0  0  0
   12.7236   -9.6989   -8.6615 N   0  0  0  0  0  0  0  0  0  0  0  0
   14.1367   -7.8576   -8.9459 N   0  0  0  0  0  0  0  0  0  0  0  0
   14.4785   -6.5483   -8.4353 C   0  0  0  0  0  0  0  0  0  0  0  0
   15.1518   -5.7289   -9.5396 C   0  0  0  0  0  0  0  0  0  0  0  0
   16.5205   -6.3025   -9.8070 C   0  0  0  0  0  0  0  0  0  0  0  0
   17.2527   -5.6070  -10.9061 C   0  0  2  0  0  0  0  0  0  0  0  0
   18.5794   -6.2094  -11.1182 N   0  0  0  0  0  0  0  0  0  0  0  0
   17.4662   -4.1706  -10.6816 C   0  0  0  0  0  0  0  0  0  0  0  0
   16.5228   -3.3266  -10.7987 O   0  0  0  0  0  0  0  0  0  0  0  0
   18.6928   -3.6451  -10.3304 O   0  0  0  0  0  0  0  0  0  0  0  0
  2  1  1  1
  2  3  1  0
  4  3  1  0
  5  2  1  0
  6  5  2  0
  7  8  1  0
  9  8  1  6
  9 11  1  0
  9 10  1  0
 10  5  1  0
 11 21  1  0
 12 11  2  0
 14 13  1  0
 15 14  2  0
 16 14  1  0
 17 16  1  0
 18 17  1  0
 19 18  1  0
 20 19  1  1
 20 22  1  0
 21 20  1  0
 22 23  2  0
 22 24  1  0
M  END
$$$$
