CSR.pdb
     RDKit          3D

 24 23  0  0  1  0  0  0  0  0999 V2000
   30.4471  -24.1599  -16.9126 N   0  0  0  0  0  0  0  0  0  0  0  0
   29.7274  -23.0423  -17.4481 C   0  0  1  0  0  0  0  0  0  0  0  0
   29.1616  -23.3781  -18.7820 C   0  0  0  0  0  0  0  0  0  0  0  0
   30.4014  -24.0180  -19.9334 S   0  0  0  0  0  0  0  0  0  0  0  0
   28.7272  -22.4910  -16.5007 C   0  0  0  0  0  0  0  0  0  0  0  0
   28.1909  -23.2616  -15.6529 O   0  0  0  0  0  0  0  0  0  0  0  0
   27.9641  -18.4637  -16.4182 O   0  0  0  0  0  0  0  0  0  0  0  0
   27.7032  -19.1819  -15.2781 C   0  0  0  0  0  0  0  0  0  0  0  0
   27.3103  -20.6186  -15.5546 C   0  0  2  0  0  0  0  0  0  0  0  0
   28.3165  -21.1406  -16.4698 N   0  0  0  0  0  0  0  0  0  0  0  0
   25.9657  -20.5875  -16.1869 C   0  0  0  0  0  0  0  0  0  0  0  0
   25.9276  -20.4098  -17.4309 O   0  0  0  0  0  0  0  0  0  0  0  0
   18.9169  -22.9529  -12.3042 N   0  0  0  0  0  0  0  0  0  0  0  0
   19.9128  -21.9558  -12.4021 C   0  0  0  0  0  0  0  0  0  0  0  0
   20.5905  -21.6021  -11.3472 N   0  0  0  0  0  0  0  0  0  0  0  0
   20.2049  -21.3146  -13.6356 N   0  0  0  0  0  0  0  0  0  0  0  0
   20.0825  -22.0872  -14.8521 C   0  0  0  0  0  0  0  0  0  0  0  0
   21.0692  -21.5568  -15.8958 C   0  0  0  0  0  0  0  0  0  0  0  0
   22.4233  -21.3992  -15.2511 C   0  0  0  0  0  0  0  0  0  0  0  0
   23.4461  -20.7956  -16.1552 C   0  0  2  0  0  0  0  0  0  0  0  0
   24.7625  -20.7406  -15.4980 N   0  0  0  0  0  0  0  0  0  0  0  0
   23.1339  -19.4309  -16.6022 C   0  0  0  0  0  0  0  0  0  0  0  0
   23.3992  -18.4143  -15.8866 O   0  0  0  0  0  0  0  0  0  0  0  0
   22.5389  -19.1623  -17.8178 O   0  0  0  0  0  0  0  0  0  0  0  0
  2  1  1  1
  2  3  1  0
  4  3  1  0
  5  2  1  0
  6  5  2  0
  7  8  1  0
  9  8  1  6
  9 11  1  0
  9 10  1  0
 10  5  1  0
 11 21  1  0
 12 11  2  0
 14 13  1  0
 15 14  2  0
 16 14  1  0
 17 16  1  0
 18 17  1  0
 19 18  1  0
 20 19  1  1
 20 22  1  0
 21 20  1  0
 22 23  2  0
 22 24  1  0
M  END
$$$$
