CSR.pdb
     RDKit          3D

 24 23  0  0  1  0  0  0  0  0999 V2000
   21.8616  -16.4194  -17.7205 N   0  0  0  0  0  0  0  0  0  0  0  0
   21.0727  -15.3448  -18.2462 C   0  0  1  0  0  0  0  0  0  0  0  0
   19.8392  -15.8708  -18.8899 C   0  0  0  0  0  0  0  0  0  0  0  0
   20.1850  -17.0102  -20.2515 S   0  0  0  0  0  0  0  0  0  0  0  0
   20.8129  -14.2767  -17.2494 C   0  0  0  0  0  0  0  0  0  0  0  0
   20.4377  -14.5983  -16.0849 O   0  0  0  0  0  0  0  0  0  0  0  0
   21.3499  -10.3196  -18.2562 O   0  0  0  0  0  0  0  0  0  0  0  0
   21.5430  -10.6657  -16.9422 C   0  0  0  0  0  0  0  0  0  0  0  0
   20.7131  -11.8574  -16.5108 C   0  0  2  0  0  0  0  0  0  0  0  0
   20.9550  -12.8954  -17.5041 N   0  0  0  0  0  0  0  0  0  0  0  0
   19.2921  -11.4221  -16.5157 C   0  0  0  0  0  0  0  0  0  0  0  0
   18.6472  -11.6022  -17.5797 O   0  0  0  0  0  0  0  0  0  0  0  0
   12.5181  -13.2696  -11.7404 N   0  0  0  0  0  0  0  0  0  0  0  0
   11.9912  -12.3051  -12.6280 C   0  0  0  0  0  0  0  0  0  0  0  0
   10.7059  -12.1000  -12.6835 N   0  0  0  0  0  0  0  0  0  0  0  0
   12.8324  -11.5377  -13.4774 N   0  0  0  0  0  0  0  0  0  0  0  0
   14.2580  -11.7749  -13.4214 C   0  0  0  0  0  0  0  0  0  0  0  0
   14.9638  -10.8928  -14.4548 C   0  0  0  0  0  0  0  0  0  0  0  0
   16.4383  -11.2080  -14.4395 C   0  0  0  0  0  0  0  0  0  0  0  0
   17.2220  -10.4372  -15.4492 C   0  0  2  0  0  0  0  0  0  0  0  0
   18.6393  -10.8359  -15.4314 N   0  0  0  0  0  0  0  0  0  0  0  0
   17.1854   -8.9798  -15.2649 C   0  0  0  0  0  0  0  0  0  0  0  0
   17.9219   -8.3938  -14.4104 O   0  0  0  0  0  0  0  0  0  0  0  0
   16.3585   -8.1558  -16.0006 O   0  0  0  0  0  0  0  0  0  0  0  0
  2  1  1  1
  2  3  1  0
  4  3  1  0
  5  2  1  0
  6  5  2  0
  7  8  1  0
  9  8  1  6
  9 11  1  0
  9 10  1  0
 10  5  1  0
 11 21  1  0
 12 11  2  0
 14 13  1  0
 15 14  2  0
 16 14  1  0
 17 16  1  0
 18 17  1  0
 19 18  1  0
 20 19  1  1
 20 22  1  0
 21 20  1  0
 22 23  2  0
 22 24  1  0
M  END
$$$$
