CSR.pdb
     RDKit          3D

 24 23  0  0  1  0  0  0  0  0999 V2000
   18.0172  -15.5888  -17.1670 N   0  0  0  0  0  0  0  0  0  0  0  0
   18.2333  -14.7337  -16.0375 C   0  0  1  0  0  0  0  0  0  0  0  0
   19.3215  -15.2714  -15.1779 C   0  0  0  0  0  0  0  0  0  0  0  0
   18.8980  -16.8539  -14.4110 S   0  0  0  0  0  0  0  0  0  0  0  0
   18.4240  -13.3119  -16.4168 C   0  0  0  0  0  0  0  0  0  0  0  0
   19.1149  -13.0340  -17.4394 O   0  0  0  0  0  0  0  0  0  0  0  0
   17.0425   -8.6949  -15.6036 O   0  0  0  0  0  0  0  0  0  0  0  0
   17.0188  -10.0393  -15.3284 C   0  0  0  0  0  0  0  0  0  0  0  0
   18.0490  -10.8270  -16.1114 C   0  0  2  0  0  0  0  0  0  0  0  0
   17.8820  -12.2171  -15.7090 N   0  0  0  0  0  0  0  0  0  0  0  0
   19.3844  -10.3054  -15.7199 C   0  0  0  0  0  0  0  0  0  0  0  0
   19.8406  -10.6879  -14.6126 O   0  0  0  0  0  0  0  0  0  0  0  0
   25.4831   -5.2763  -19.8514 N   0  0  0  0  0  0  0  0  0  0  0  0
   26.0920   -5.6412  -18.6301 C   0  0  0  0  0  0  0  0  0  0  0  0
   27.2768   -5.1907  -18.3295 N   0  0  0  0  0  0  0  0  0  0  0  0
   25.4428   -6.4989  -17.7022 N   0  0  0  0  0  0  0  0  0  0  0  0
   24.1286   -6.9996  -18.0396 C   0  0  0  0  0  0  0  0  0  0  0  0
   23.5367   -7.7345  -16.8340 C   0  0  0  0  0  0  0  0  0  0  0  0
   22.1611   -8.2357  -17.1953 C   0  0  0  0  0  0  0  0  0  0  0  0
   21.4416   -8.8740  -16.0539 C   0  0  2  0  0  0  0  0  0  0  0  0
   20.1513   -9.4323  -16.4913 N   0  0  0  0  0  0  0  0  0  0  0  0
   21.1576   -7.9695  -14.9310 C   0  0  0  0  0  0  0  0  0  0  0  0
   21.8986   -7.9298  -13.8988 O   0  0  0  0  0  0  0  0  0  0  0  0
   20.0790   -7.1091  -14.9211 O   0  0  0  0  0  0  0  0  0  0  0  0
  2  1  1  6
  2  3  1  0
  4  3  1  0
  5  2  1  0
  6  5  2  0
  7  8  1  0
  9  8  1  1
  9 11  1  0
  9 10  1  0
 10  5  1  0
 11 21  1  0
 12 11  2  0
 14 13  1  0
 15 14  2  0
 16 14  1  0
 17 16  1  0
 18 17  1  0
 19 18  1  0
 20 19  1  6
 20 22  1  0
 21 20  1  0
 22 23  2  0
 22 24  1  0
M  END
$$$$
