CSR.pdb
     RDKit          3D

 24 23  0  0  1  0  0  0  0  0999 V2000
   27.1087  -10.0498  -16.0961 N   0  0  0  0  0  0  0  0  0  0  0  0
   26.1243   -9.4093  -16.9173 C   0  0  1  0  0  0  0  0  0  0  0  0
   25.6305  -10.3443  -17.9633 C   0  0  0  0  0  0  0  0  0  0  0  0
   26.9415  -10.9260  -19.0655 S   0  0  0  0  0  0  0  0  0  0  0  0
   25.0395   -8.7730  -16.1297 C   0  0  0  0  0  0  0  0  0  0  0  0
   24.4140   -9.4623  -15.2730 O   0  0  0  0  0  0  0  0  0  0  0  0
   22.9200   -4.5821  -14.8230 O   0  0  0  0  0  0  0  0  0  0  0  0
   23.8238   -5.3139  -15.5519 C   0  0  0  0  0  0  0  0  0  0  0  0
   23.5864   -6.8078  -15.4702 C   0  0  2  0  0  0  0  0  0  0  0  0
   24.6402   -7.4256  -16.2641 N   0  0  0  0  0  0  0  0  0  0  0  0
   22.2445   -7.0672  -16.0539 C   0  0  0  0  0  0  0  0  0  0  0  0
   22.1595   -7.0563  -17.3081 O   0  0  0  0  0  0  0  0  0  0  0  0
   15.4705  -12.1524  -13.8509 N   0  0  0  0  0  0  0  0  0  0  0  0
   15.0411  -11.5147  -15.0360 C   0  0  0  0  0  0  0  0  0  0  0  0
   13.9073  -11.8479  -15.5844 N   0  0  0  0  0  0  0  0  0  0  0  0
   15.8192  -10.5036  -15.6607 N   0  0  0  0  0  0  0  0  0  0  0  0
   17.0937  -10.1603  -15.0694 C   0  0  0  0  0  0  0  0  0  0  0  0
   17.7331   -9.0168  -15.8617 C   0  0  0  0  0  0  0  0  0  0  0  0
   19.0951   -8.7250  -15.2841 C   0  0  0  0  0  0  0  0  0  0  0  0
   19.7663   -7.5471  -15.9085 C   0  0  2  0  0  0  0  0  0  0  0  0
   21.0918   -7.3181  -15.3097 N   0  0  0  0  0  0  0  0  0  0  0  0
   19.0197   -6.2871  -15.7893 C   0  0  0  0  0  0  0  0  0  0  0  0
   19.3149   -5.4137  -14.9140 O   0  0  0  0  0  0  0  0  0  0  0  0
   17.9589   -5.9683  -16.6120 O   0  0  0  0  0  0  0  0  0  0  0  0
  2  1  1  1
  2  3  1  0
  4  3  1  0
  5  2  1  0
  6  5  2  0
  7  8  1  0
  9  8  1  6
  9 11  1  0
  9 10  1  0
 10  5  1  0
 11 21  1  0
 12 11  2  0
 14 13  1  0
 15 14  2  0
 16 14  1  0
 17 16  1  0
 18 17  1  0
 19 18  1  0
 20 19  1  1
 20 22  1  0
 21 20  1  0
 22 23  2  0
 22 24  1  0
M  END
$$$$
