CSR.pdb
     RDKit          3D

 24 23  0  0  1  0  0  0  0  0999 V2000
   13.7651   -9.8443  -10.0128 N   0  0  0  0  0  0  0  0  0  0  0  0
   15.1847   -9.7368  -10.1764 C   0  0  1  0  0  0  0  0  0  0  0  0
   15.6801  -10.7738  -11.1204 C   0  0  0  0  0  0  0  0  0  0  0  0
   15.8796  -12.3959  -10.3452 S   0  0  0  0  0  0  0  0  0  0  0  0
   15.6245   -8.3619  -10.5204 C   0  0  0  0  0  0  0  0  0  0  0  0
   15.0538   -7.7517  -11.4702 O   0  0  0  0  0  0  0  0  0  0  0  0
   18.0303   -6.1694   -8.0285 O   0  0  0  0  0  0  0  0  0  0  0  0
   17.2792   -5.5428   -8.9913 C   0  0  0  0  0  0  0  0  0  0  0  0
   17.1438   -6.3533  -10.2639 C   0  0  2  0  0  0  0  0  0  0  0  0
   16.6554   -7.6636   -9.8551 N   0  0  0  0  0  0  0  0  0  0  0  0
   18.4988   -6.4435  -10.8679 C   0  0  0  0  0  0  0  0  0  0  0  0
   19.2793   -7.3025  -10.3849 O   0  0  0  0  0  0  0  0  0  0  0  0
   21.9226  -11.0896  -15.8723 N   0  0  0  0  0  0  0  0  0  0  0  0
   22.8743  -10.4371  -15.0575 C   0  0  0  0  0  0  0  0  0  0  0  0
   24.0801  -10.9177  -14.9467 N   0  0  0  0  0  0  0  0  0  0  0  0
   22.5537   -9.2525  -14.3420 N   0  0  0  0  0  0  0  0  0  0  0  0
   21.7472   -8.2518  -15.0051 C   0  0  0  0  0  0  0  0  0  0  0  0
   21.7184   -6.9759  -14.1593 C   0  0  0  0  0  0  0  0  0  0  0  0
   20.4232   -6.9309  -13.3883 C   0  0  0  0  0  0  0  0  0  0  0  0
   20.3049   -5.7429  -12.4926 C   0  0  2  0  0  0  0  0  0  0  0  0
   18.9516   -5.6479  -11.9202 N   0  0  0  0  0  0  0  0  0  0  0  0
   20.5836   -4.4569  -13.1469 C   0  0  0  0  0  0  0  0  0  0  0  0
   21.7567   -4.1321  -13.5136 O   0  0  0  0  0  0  0  0  0  0  0  0
   19.6007   -3.5242  -13.4070 O   0  0  0  0  0  0  0  0  0  0  0  0
  2  1  1  6
  2  3  1  0
  4  3  1  0
  5  2  1  0
  6  5  2  0
  7  8  1  0
  9  8  1  1
  9 11  1  0
  9 10  1  0
 10  5  1  0
 11 21  1  0
 12 11  2  0
 14 13  1  0
 15 14  2  0
 16 14  1  0
 17 16  1  0
 18 17  1  0
 19 18  1  0
 20 19  1  6
 20 22  1  0
 21 20  1  0
 22 23  2  0
 22 24  1  0
M  END
$$$$
