CSR.pdb
     RDKit          3D

 24 23  0  0  1  0  0  0  0  0999 V2000
   25.2803  -21.1712   -8.7636 N   0  0  0  0  0  0  0  0  0  0  0  0
   24.6230  -21.0167  -10.0276 C   0  0  1  0  0  0  0  0  0  0  0  0
   23.3982  -20.1860   -9.8796 C   0  0  0  0  0  0  0  0  0  0  0  0
   21.9218  -21.1648   -9.5135 S   0  0  0  0  0  0  0  0  0  0  0  0
   25.5345  -20.5450  -11.0994 C   0  0  0  0  0  0  0  0  0  0  0  0
   26.2527  -19.5244  -10.8929 O   0  0  0  0  0  0  0  0  0  0  0  0
   25.5214  -22.1541  -15.0262 O   0  0  0  0  0  0  0  0  0  0  0  0
   26.6933  -21.8014  -14.4047 C   0  0  0  0  0  0  0  0  0  0  0  0
   26.5284  -20.6579  -13.4249 C   0  0  2  0  0  0  0  0  0  0  0  0
   25.6668  -21.1604  -12.3631 N   0  0  0  0  0  0  0  0  0  0  0  0
   25.8837  -19.5415  -14.1643 C   0  0  0  0  0  0  0  0  0  0  0  0
   24.6269  -19.5300  -14.1915 O   0  0  0  0  0  0  0  0  0  0  0  0
   29.0361  -12.0991  -17.9359 N   0  0  0  0  0  0  0  0  0  0  0  0
   27.6376  -12.0230  -18.1203 C   0  0  0  0  0  0  0  0  0  0  0  0
   27.1108  -10.9869  -18.7087 N   0  0  0  0  0  0  0  0  0  0  0  0
   26.7714  -13.0580  -17.6773 N   0  0  0  0  0  0  0  0  0  0  0  0
   27.3507  -14.1731  -16.9613 C   0  0  0  0  0  0  0  0  0  0  0  0
   26.2579  -15.1951  -16.6366 C   0  0  0  0  0  0  0  0  0  0  0  0
   26.8639  -16.3191  -15.8345 C   0  0  0  0  0  0  0  0  0  0  0  0
   25.9153  -17.4409  -15.5712 C   0  0  2  0  0  0  0  0  0  0  0  0
   26.5742  -18.5219  -14.8194 N   0  0  0  0  0  0  0  0  0  0  0  0
   25.3410  -18.0488  -16.7795 C   0  0  0  0  0  0  0  0  0  0  0  0
   25.9569  -18.9472  -17.4351 O   0  0  0  0  0  0  0  0  0  0  0  0
   24.1057  -17.6909  -17.2793 O   0  0  0  0  0  0  0  0  0  0  0  0
  2  1  1  1
  2  3  1  0
  4  3  1  0
  5  2  1  0
  6  5  2  0
  7  8  1  0
  9  8  1  6
  9 11  1  0
  9 10  1  0
 10  5  1  0
 11 21  1  0
 12 11  2  0
 14 13  1  0
 15 14  2  0
 16 14  1  0
 17 16  1  0
 18 17  1  0
 19 18  1  0
 20 19  1  6
 20 22  1  0
 21 20  1  0
 22 23  2  0
 22 24  1  0
M  END
$$$$
