CSR.pdb
     RDKit          3D

 24 23  0  0  1  0  0  0  0  0999 V2000
   20.9120  -13.6692  -18.9020 N   0  0  0  0  0  0  0  0  0  0  0  0
   20.3159  -12.3663  -18.8748 C   0  0  1  0  0  0  0  0  0  0  0  0
   18.8378  -12.4671  -19.0057 C   0  0  0  0  0  0  0  0  0  0  0  0
   18.3080  -12.9532  -20.6655 S   0  0  0  0  0  0  0  0  0  0  0  0
   20.7550  -11.5536  -17.7135 C   0  0  0  0  0  0  0  0  0  0  0  0
   20.6737  -12.0455  -16.5509 O   0  0  0  0  0  0  0  0  0  0  0  0
   22.8181   -7.3741  -16.2256 O   0  0  0  0  0  0  0  0  0  0  0  0
   22.4370   -8.2682  -17.1947 C   0  0  0  0  0  0  0  0  0  0  0  0
   21.6252   -9.4264  -16.6522 C   0  0  2  0  0  0  0  0  0  0  0  0
   21.2693  -10.2420  -17.8056 N   0  0  0  0  0  0  0  0  0  0  0  0
   20.4196   -8.8466  -16.0049 C   0  0  0  0  0  0  0  0  0  0  0  0
   19.4970   -8.4603  -16.7665 O   0  0  0  0  0  0  0  0  0  0  0  0
   17.9393   -5.9708   -9.3434 N   0  0  0  0  0  0  0  0  0  0  0  0
   16.6310   -6.4879   -9.4712 C   0  0  0  0  0  0  0  0  0  0  0  0
   15.6014   -5.7377   -9.1988 N   0  0  0  0  0  0  0  0  0  0  0  0
   16.3971   -7.8235   -9.8948 N   0  0  0  0  0  0  0  0  0  0  0  0
   17.4576   -8.5126  -10.5964 C   0  0  0  0  0  0  0  0  0  0  0  0
   17.6533   -7.8790  -11.9765 C   0  0  0  0  0  0  0  0  0  0  0  0
   18.8797   -8.4769  -12.6183 C   0  0  0  0  0  0  0  0  0  0  0  0
   19.1156   -7.9975  -14.0120 C   0  0  2  0  0  0  0  0  0  0  0  0
   20.2500   -8.7062  -14.6276 N   0  0  0  0  0  0  0  0  0  0  0  0
   19.3994   -6.5598  -14.1214 C   0  0  0  0  0  0  0  0  0  0  0  0
   18.4691   -5.6985  -14.2158 O   0  0  0  0  0  0  0  0  0  0  0  0
   20.6821   -6.0514  -14.1276 O   0  0  0  0  0  0  0  0  0  0  0  0
  2  1  1  1
  2  3  1  0
  4  3  1  0
  5  2  1  0
  6  5  2  0
  7  8  1  0
  9  8  1  6
  9 11  1  0
  9 10  1  0
 10  5  1  0
 11 21  1  0
 12 11  2  0
 14 13  1  0
 15 14  2  0
 16 14  1  0
 17 16  1  0
 18 17  1  0
 19 18  1  0
 20 19  1  1
 20 22  1  0
 21 20  1  0
 22 23  2  0
 22 24  1  0
M  END
$$$$
