CSR.pdb
     RDKit          3D

 24 23  0  0  1  0  0  0  0  0999 V2000
   23.9964  -12.3909  -15.6105 N   0  0  0  0  0  0  0  0  0  0  0  0
   22.8363  -11.7932  -16.2025 C   0  0  1  0  0  0  0  0  0  0  0  0
   21.9926  -12.8293  -16.8558 C   0  0  0  0  0  0  0  0  0  0  0  0
   22.7486  -13.5162  -18.3487 S   0  0  0  0  0  0  0  0  0  0  0  0
   22.0876  -10.9259  -15.2595 C   0  0  0  0  0  0  0  0  0  0  0  0
   21.6954  -11.4079  -14.1576 O   0  0  0  0  0  0  0  0  0  0  0  0
   20.8106   -6.4115  -14.0131 O   0  0  0  0  0  0  0  0  0  0  0  0
   21.4907   -7.3296  -14.7737 C   0  0  0  0  0  0  0  0  0  0  0  0
   20.9870   -8.7465  -14.5907 C   0  0  2  0  0  0  0  0  0  0  0  0
   21.7704   -9.5715  -15.5006 N   0  0  0  0  0  0  0  0  0  0  0  0
   19.5476   -8.7472  -14.9606 C   0  0  0  0  0  0  0  0  0  0  0  0
   19.2772   -8.7637  -16.1882 O   0  0  0  0  0  0  0  0  0  0  0  0
   12.4108  -12.2790  -11.3063 N   0  0  0  0  0  0  0  0  0  0  0  0
   11.8644  -11.4253  -12.2903 C   0  0  0  0  0  0  0  0  0  0  0  0
   10.5831  -11.4338  -12.5254 N   0  0  0  0  0  0  0  0  0  0  0  0
   12.6812  -10.5418  -13.0454 N   0  0  0  0  0  0  0  0  0  0  0  0
   14.1043  -10.5393  -12.7869 C   0  0  0  0  0  0  0  0  0  0  0  0
   14.7996   -9.5885  -13.7651 C   0  0  0  0  0  0  0  0  0  0  0  0
   16.2758   -9.5668  -13.4582 C   0  0  0  0  0  0  0  0  0  0  0  0
   17.0747   -8.7686  -14.4342 C   0  0  2  0  0  0  0  0  0  0  0  0
   18.4945   -8.7310  -14.0461 N   0  0  0  0  0  0  0  0  0  0  0  0
   16.6354   -7.3743  -14.5844 C   0  0  0  0  0  0  0  0  0  0  0  0
   17.2464   -6.4146  -14.0173 O   0  0  0  0  0  0  0  0  0  0  0  0
   15.5416   -7.0151  -15.3449 O   0  0  0  0  0  0  0  0  0  0  0  0
  2  1  1  1
  2  3  1  0
  4  3  1  0
  5  2  1  0
  6  5  2  0
  7  8  1  0
  9  8  1  6
  9 11  1  0
  9 10  1  0
 10  5  1  0
 11 21  1  0
 12 11  2  0
 14 13  1  0
 15 14  2  0
 16 14  1  0
 17 16  1  0
 18 17  1  0
 19 18  1  0
 20 19  1  1
 20 22  1  0
 21 20  1  0
 22 23  2  0
 22 24  1  0
M  END
$$$$
