CSR.pdb
     RDKit          3D

 24 23  0  0  1  0  0  0  0  0999 V2000
   20.7068  -12.8694  -17.0791 N   0  0  0  0  0  0  0  0  0  0  0  0
   20.2066  -11.5294  -17.1667 C   0  0  1  0  0  0  0  0  0  0  0  0
   19.1125  -11.4466  -18.1709 C   0  0  0  0  0  0  0  0  0  0  0  0
   19.6686  -11.8151  -19.8522 S   0  0  0  0  0  0  0  0  0  0  0  0
   19.8440  -10.9601  -15.8452 C   0  0  0  0  0  0  0  0  0  0  0  0
   19.2931  -11.7045  -14.9835 O   0  0  0  0  0  0  0  0  0  0  0  0
   20.6431   -6.9831  -14.9231 O   0  0  0  0  0  0  0  0  0  0  0  0
   20.6889   -7.9230  -13.9240 C   0  0  0  0  0  0  0  0  0  0  0  0
   19.7401   -9.0819  -14.1510 C   0  0  2  0  0  0  0  0  0  0  0  0
   20.0707   -9.6198  -15.4640 N   0  0  0  0  0  0  0  0  0  0  0  0
   18.3617   -8.5270  -14.1233 C   0  0  0  0  0  0  0  0  0  0  0  0
   17.9217   -8.0467  -15.1986 O   0  0  0  0  0  0  0  0  0  0  0  0
   11.4726   -9.5680   -8.6129 N   0  0  0  0  0  0  0  0  0  0  0  0
   10.9990   -8.6826   -9.6065 C   0  0  0  0  0  0  0  0  0  0  0  0
    9.7551   -8.2956   -9.5990 N   0  0  0  0  0  0  0  0  0  0  0  0
   11.8503   -8.1913  -10.6321 N   0  0  0  0  0  0  0  0  0  0  0  0
   13.2254   -8.6391  -10.6506 C   0  0  0  0  0  0  0  0  0  0  0  0
   13.9693   -7.9577  -11.8023 C   0  0  0  0  0  0  0  0  0  0  0  0
   15.3584   -8.5370  -11.8962 C   0  0  0  0  0  0  0  0  0  0  0  0
   16.1800   -7.9384  -12.9891 C   0  0  2  0  0  0  0  0  0  0  0  0
   17.5386   -8.5060  -12.9975 N   0  0  0  0  0  0  0  0  0  0  0  0
   16.3270   -6.4783  -12.9102 C   0  0  0  0  0  0  0  0  0  0  0  0
   17.3205   -5.9353  -12.3321 O   0  0  0  0  0  0  0  0  0  0  0  0
   15.4069   -5.6058  -13.4542 O   0  0  0  0  0  0  0  0  0  0  0  0
  2  1  1  1
  2  3  1  0
  4  3  1  0
  5  2  1  0
  6  5  2  0
  7  8  1  0
  9  8  1  6
  9 11  1  0
  9 10  1  0
 10  5  1  0
 11 21  1  0
 12 11  2  0
 14 13  1  0
 15 14  2  0
 16 14  1  0
 17 16  1  0
 18 17  1  0
 19 18  1  0
 20 19  1  1
 20 22  1  0
 21 20  1  0
 22 23  2  0
 22 24  1  0
M  END
$$$$
