CSR.pdb
     RDKit          3D

 24 23  0  0  1  0  0  0  0  0999 V2000
   23.7258  -15.5550  -16.6515 N   0  0  0  0  0  0  0  0  0  0  0  0
   22.9339  -15.0125  -17.7156 C   0  0  1  0  0  0  0  0  0  0  0  0
   21.7465  -15.8710  -17.9709 C   0  0  0  0  0  0  0  0  0  0  0  0
   22.1862  -17.5515  -18.4755 S   0  0  0  0  0  0  0  0  0  0  0  0
   22.5994  -13.5807  -17.5155 C   0  0  0  0  0  0  0  0  0  0  0  0
   22.0302  -13.2247  -16.4434 O   0  0  0  0  0  0  0  0  0  0  0  0
   22.9285   -9.0537  -19.3633 O   0  0  0  0  0  0  0  0  0  0  0  0
   23.1351  -10.4093  -19.4219 C   0  0  0  0  0  0  0  0  0  0  0  0
   22.5833  -11.1496  -18.2210 C   0  0  2  0  0  0  0  0  0  0  0  0
   22.8730  -12.5588  -18.4503 N   0  0  0  0  0  0  0  0  0  0  0  0
   21.1194  -10.8948  -18.1884 C   0  0  0  0  0  0  0  0  0  0  0  0
   20.3991  -11.6314  -18.9089 O   0  0  0  0  0  0  0  0  0  0  0  0
   15.2473  -13.3277  -13.2062 N   0  0  0  0  0  0  0  0  0  0  0  0
   14.4928  -12.4150  -13.9765 C   0  0  0  0  0  0  0  0  0  0  0  0
   13.1976  -12.3634  -13.8465 N   0  0  0  0  0  0  0  0  0  0  0  0
   15.1115  -11.5358  -14.9050 N   0  0  0  0  0  0  0  0  0  0  0  0
   16.5400  -11.6465  -15.1022 C   0  0  0  0  0  0  0  0  0  0  0  0
   16.9984  -10.5969  -16.1183 C   0  0  0  0  0  0  0  0  0  0  0  0
   18.4816  -10.7506  -16.3429 C   0  0  0  0  0  0  0  0  0  0  0  0
   19.0445   -9.7544  -17.3013 C   0  0  2  0  0  0  0  0  0  0  0  0
   20.5042   -9.9059  -17.4210 N   0  0  0  0  0  0  0  0  0  0  0  0
   18.7881   -8.3525  -16.9429 C   0  0  0  0  0  0  0  0  0  0  0  0
   19.6062   -7.6805  -16.2393 O   0  0  0  0  0  0  0  0  0  0  0  0
   17.6538   -7.6762  -17.3429 O   0  0  0  0  0  0  0  0  0  0  0  0
  2  1  1  1
  2  3  1  0
  4  3  1  0
  5  2  1  0
  6  5  2  0
  7  8  1  0
  9  8  1  6
  9 11  1  0
  9 10  1  0
 10  5  1  0
 11 21  1  0
 12 11  2  0
 14 13  1  0
 15 14  2  0
 16 14  1  0
 17 16  1  0
 18 17  1  0
 19 18  1  0
 20 19  1  1
 20 22  1  0
 21 20  1  0
 22 23  2  0
 22 24  1  0
M  END
$$$$
