CSR.pdb
     RDKit          3D

 24 23  0  0  1  0  0  0  0  0999 V2000
   29.2549  -31.8748  -18.3020 N   0  0  0  0  0  0  0  0  0  0  0  0
   29.1125  -32.5020  -17.0214 C   0  0  1  0  0  0  0  0  0  0  0  0
   30.1699  -32.0280  -16.0890 C   0  0  0  0  0  0  0  0  0  0  0  0
   31.8303  -32.5505  -16.5810 S   0  0  0  0  0  0  0  0  0  0  0  0
   27.7396  -32.3863  -16.4703 C   0  0  0  0  0  0  0  0  0  0  0  0
   26.8634  -31.7522  -17.1264 O   0  0  0  0  0  0  0  0  0  0  0  0
   23.7953  -33.7472  -15.3690 O   0  0  0  0  0  0  0  0  0  0  0  0
   25.1106  -33.6363  -15.7450 C   0  0  0  0  0  0  0  0  0  0  0  0
   25.9560  -32.8779  -14.7425 C   0  0  2  0  0  0  0  0  0  0  0  0
   27.3234  -32.9418  -15.2410 N   0  0  0  0  0  0  0  0  0  0  0  0
   25.8199  -33.5803  -13.4398 C   0  0  0  0  0  0  0  0  0  0  0  0
   26.4342  -34.6702  -13.3159 O   0  0  0  0  0  0  0  0  0  0  0  0
   23.8080  -33.8085   -5.8861 N   0  0  0  0  0  0  0  0  0  0  0  0
   25.0002  -33.1638   -5.4878 C   0  0  0  0  0  0  0  0  0  0  0  0
   25.5017  -33.3874   -4.3065 N   0  0  0  0  0  0  0  0  0  0  0  0
   25.6825  -32.2635   -6.3491 N   0  0  0  0  0  0  0  0  0  0  0  0
   25.0822  -31.9553   -7.6283 C   0  0  0  0  0  0  0  0  0  0  0  0
   25.3957  -33.0760   -8.6232 C   0  0  0  0  0  0  0  0  0  0  0  0
   24.8158  -32.7120   -9.9667 C   0  0  0  0  0  0  0  0  0  0  0  0
   25.0835  -33.7293  -11.0257 C   0  0  2  0  0  0  0  0  0  0  0  0
   25.0658  -33.1139  -12.3632 N   0  0  0  0  0  0  0  0  0  0  0  0
   24.1260  -34.8437  -11.0550 C   0  0  0  0  0  0  0  0  0  0  0  0
   23.1141  -34.8375  -11.8244 O   0  0  0  0  0  0  0  0  0  0  0  0
   24.2595  -35.9625  -10.2586 O   0  0  0  0  0  0  0  0  0  0  0  0
  2  1  1  6
  2  3  1  0
  4  3  1  0
  5  2  1  0
  6  5  2  0
  7  8  1  0
  9  8  1  6
  9 11  1  0
  9 10  1  0
 10  5  1  0
 11 21  1  0
 12 11  2  0
 14 13  1  0
 15 14  2  0
 16 14  1  0
 17 16  1  0
 18 17  1  0
 19 18  1  0
 20 19  1  1
 20 22  1  0
 21 20  1  0
 22 23  2  0
 22 24  1  0
M  END
$$$$
