CSR.pdb
     RDKit          3D

 24 23  0  0  1  0  0  0  0  0999 V2000
   15.7341  -21.1588    2.2556 N   0  0  0  0  0  0  0  0  0  0  0  0
   16.1911  -20.6058    3.4961 C   0  0  1  0  0  0  0  0  0  0  0  0
   17.3727  -21.3573    3.9973 C   0  0  0  0  0  0  0  0  0  0  0  0
   16.9410  -22.9731    4.6861 S   0  0  0  0  0  0  0  0  0  0  0  0
   16.4041  -19.1387    3.4315 C   0  0  0  0  0  0  0  0  0  0  0  0
   16.9131  -18.6350    2.3888 O   0  0  0  0  0  0  0  0  0  0  0  0
   14.0887  -16.6450    5.4885 O   0  0  0  0  0  0  0  0  0  0  0  0
   14.8087  -16.2323    4.3952 C   0  0  0  0  0  0  0  0  0  0  0  0
   16.2160  -16.7918    4.3616 C   0  0  2  0  0  0  0  0  0  0  0  0
   16.0755  -18.2379    4.4678 N   0  0  0  0  0  0  0  0  0  0  0  0
   16.9356  -16.2290    5.5339 C   0  0  0  0  0  0  0  0  0  0  0  0
   17.0971  -16.9916    6.5202 O   0  0  0  0  0  0  0  0  0  0  0  0
   22.3401   -9.2748    6.6225 N   0  0  0  0  0  0  0  0  0  0  0  0
   22.3328   -9.9228    7.8777 C   0  0  0  0  0  0  0  0  0  0  0  0
   23.1178   -9.5098    8.8318 N   0  0  0  0  0  0  0  0  0  0  0  0
   21.4819  -11.0300    8.1384 N   0  0  0  0  0  0  0  0  0  0  0  0
   20.6341  -11.5062    7.0677 C   0  0  0  0  0  0  0  0  0  0  0  0
   19.7884  -12.6800    7.5691 C   0  0  0  0  0  0  0  0  0  0  0  0
   18.9373  -13.1884    6.4329 C   0  0  0  0  0  0  0  0  0  0  0  0
   18.1142  -14.3803    6.7932 C   0  0  2  0  0  0  0  0  0  0  0  0
   17.4350  -14.9288    5.6075 N   0  0  0  0  0  0  0  0  0  0  0  0
   17.0752  -14.1210    7.7994 C   0  0  0  0  0  0  0  0  0  0  0  0
   15.8892  -13.8019    7.4710 O   0  0  0  0  0  0  0  0  0  0  0  0
   17.3129  -14.2068    9.1559 O   0  0  0  0  0  0  0  0  0  0  0  0
  2  1  1  6
  2  3  1  0
  4  3  1  0
  5  2  1  0
  6  5  2  0
  7  8  1  0
  9  8  1  1
  9 11  1  0
  9 10  1  0
 10  5  1  0
 11 21  1  0
 12 11  2  0
 14 13  1  0
 15 14  2  0
 16 14  1  0
 17 16  1  0
 18 17  1  0
 19 18  1  0
 20 19  1  6
 20 22  1  0
 21 20  1  0
 22 23  2  0
 22 24  1  0
M  END
$$$$
