CSR.pdb
     RDKit          3D

 24 23  0  0  1  0  0  0  0  0999 V2000
   30.5317  -14.1697  -19.2455 N   0  0  0  0  0  0  0  0  0  0  0  0
   29.3803  -15.0202  -19.1791 C   0  0  1  0  0  0  0  0  0  0  0  0
   29.6728  -16.3418  -19.7955 C   0  0  0  0  0  0  0  0  0  0  0  0
   28.1948  -17.3619  -20.0121 S   0  0  0  0  0  0  0  0  0  0  0  0
   28.8101  -15.1157  -17.8124 C   0  0  0  0  0  0  0  0  0  0  0  0
   29.5845  -15.3266  -16.8347 O   0  0  0  0  0  0  0  0  0  0  0  0
   24.8329  -14.2118  -17.0134 O   0  0  0  0  0  0  0  0  0  0  0  0
   25.7867  -14.1395  -16.0291 C   0  0  0  0  0  0  0  0  0  0  0  0
   26.8779  -15.1797  -16.1781 C   0  0  2  0  0  0  0  0  0  0  0  0
   27.4373  -14.9866  -17.5093 N   0  0  0  0  0  0  0  0  0  0  0  0
   26.2297  -16.5110  -16.0497 C   0  0  0  0  0  0  0  0  0  0  0  0
   25.9130  -17.0933  -17.1179 O   0  0  0  0  0  0  0  0  0  0  0  0
   25.6666  -21.0352   -8.9753 N   0  0  0  0  0  0  0  0  0  0  0  0
   26.5543  -21.1979  -10.0620 C   0  0  0  0  0  0  0  0  0  0  0  0
   27.7320  -21.7213   -9.8720 N   0  0  0  0  0  0  0  0  0  0  0  0
   26.1982  -20.8024  -11.3791 N   0  0  0  0  0  0  0  0  0  0  0  0
   24.7940  -20.7578  -11.7222 C   0  0  0  0  0  0  0  0  0  0  0  0
   24.6372  -20.3019  -13.1754 C   0  0  0  0  0  0  0  0  0  0  0  0
   25.3971  -19.0136  -13.3672 C   0  0  0  0  0  0  0  0  0  0  0  0
   25.2391  -18.4270  -14.7305 C   0  0  2  0  0  0  0  0  0  0  0  0
   25.9551  -17.1449  -14.8380 N   0  0  0  0  0  0  0  0  0  0  0  0
   23.8468  -18.1737  -15.1266 C   0  0  0  0  0  0  0  0  0  0  0  0
   23.2687  -17.0699  -14.8744 O   0  0  0  0  0  0  0  0  0  0  0  0
   23.0800  -19.1066  -15.7941 O   0  0  0  0  0  0  0  0  0  0  0  0
  2  1  1  1
  2  3  1  0
  4  3  1  0
  5  2  1  0
  6  5  2  0
  7  8  1  0
  9  8  1  6
  9 11  1  0
  9 10  1  0
 10  5  1  0
 11 21  1  0
 12 11  2  0
 14 13  1  0
 15 14  2  0
 16 14  1  0
 17 16  1  0
 18 17  1  0
 19 18  1  0
 20 19  1  1
 20 22  1  0
 21 20  1  0
 22 23  2  0
 22 24  1  0
M  END
$$$$
