CSR.pdb
     RDKit          3D

 24 23  0  0  1  0  0  0  0  0999 V2000
   24.9017  -20.5370  -10.6055 N   0  0  0  0  0  0  0  0  0  0  0  0
   25.4670  -20.4786  -11.9210 C   0  0  1  0  0  0  0  0  0  0  0  0
   26.3596  -21.6448  -12.1564 C   0  0  0  0  0  0  0  0  0  0  0  0
   28.0305  -21.3962  -11.5097 S   0  0  0  0  0  0  0  0  0  0  0  0
   24.4462  -20.2887  -12.9811 C   0  0  0  0  0  0  0  0  0  0  0  0
   23.3038  -20.8126  -12.8378 O   0  0  0  0  0  0  0  0  0  0  0  0
   24.3661  -17.1776  -15.6949 O   0  0  0  0  0  0  0  0  0  0  0  0
   24.2390  -18.4386  -16.2217 C   0  0  0  0  0  0  0  0  0  0  0  0
   23.6730  -19.4420  -15.2381 C   0  0  2  0  0  0  0  0  0  0  0  0
   24.6543  -19.5511  -14.1668 N   0  0  0  0  0  0  0  0  0  0  0  0
   23.5210  -20.7278  -15.9678 C   0  0  0  0  0  0  0  0  0  0  0  0
   24.2224  -21.6923  -15.5700 O   0  0  0  0  0  0  0  0  0  0  0  0
   20.8334  -26.7197  -13.3044 N   0  0  0  0  0  0  0  0  0  0  0  0
   21.2463  -26.7342  -14.6553 C   0  0  0  0  0  0  0  0  0  0  0  0
   21.9393  -27.7360  -15.1169 N   0  0  0  0  0  0  0  0  0  0  0  0
   20.9245  -25.6728  -15.5429 N   0  0  0  0  0  0  0  0  0  0  0  0
   20.2968  -24.4909  -14.9943 C   0  0  0  0  0  0  0  0  0  0  0  0
   20.0124  -23.4938  -16.1209 C   0  0  0  0  0  0  0  0  0  0  0  0
   20.9628  -22.3300  -15.9938 C   0  0  0  0  0  0  0  0  0  0  0  0
   21.8095  -22.1184  -17.2046 C   0  0  2  0  0  0  0  0  0  0  0  0
   22.6628  -20.9286  -17.0488 N   0  0  0  0  0  0  0  0  0  0  0  0
   21.0539  -21.9422  -18.4526 C   0  0  0  0  0  0  0  0  0  0  0  0
   20.6844  -20.7947  -18.8558 O   0  0  0  0  0  0  0  0  0  0  0  0
   20.6988  -22.9997  -19.2648 O   0  0  0  0  0  0  0  0  0  0  0  0
  2  1  1  1
  2  3  1  0
  4  3  1  0
  5  2  1  0
  6  5  2  0
  7  8  1  0
  9  8  1  6
  9 11  1  0
  9 10  1  0
 10  5  1  0
 11 21  1  0
 12 11  2  0
 14 13  1  0
 15 14  2  0
 16 14  1  0
 17 16  1  0
 18 17  1  0
 19 18  1  0
 20 19  1  1
 20 22  1  0
 21 20  1  0
 22 23  2  0
 22 24  1  0
M  END
$$$$
