IET.pdb
     RDKit          3D

 25 24  0  0  1  0  0  0  0  0999 V2000
    6.9468  -11.9767   19.6205 C   0  0  0  0  0  0  0  0  0  0  0  0
    7.5437  -13.3400   19.5251 C   0  0  0  0  0  0  0  0  0  0  0  0
    7.7721  -13.9911   20.8604 C   0  0  2  0  0  0  0  0  0  0  0  0
    8.7113  -13.1252   21.6707 C   0  0  0  0  0  0  0  0  0  0  0  0
    8.4083  -15.3508   20.7059 C   0  0  2  0  0  0  0  0  0  0  0  0
    7.5703  -16.1847   19.9436 N   0  0  0  0  0  0  0  0  0  0  0  0
    8.6293  -15.9971   22.0403 C   0  0  0  0  0  0  0  0  0  0  0  0
    7.6786  -16.5294   22.6890 O   0  0  0  0  0  0  0  0  0  0  0  0
    9.9102  -16.0478   22.6473 N   0  0  0  0  0  0  0  0  0  0  0  0
   10.1461  -16.6297   23.9703 C   0  0  1  0  0  0  0  0  0  0  0  0
   11.3280  -17.5344   23.8169 C   0  0  0  0  0  0  0  0  0  0  0  0
   11.1788  -18.5960   22.7693 C   0  0  0  0  0  0  0  0  0  0  0  0
   12.4395  -19.3523   22.6531 C   0  0  0  0  0  0  0  0  0  0  0  0
   13.0091  -19.4622   21.5509 O   0  0  0  0  0  0  0  0  0  0  0  0
   10.3229  -15.5441   24.9368 C   0  0  0  0  0  0  0  0  0  0  0  0
   11.1508  -14.6072   24.8041 O   0  0  0  0  0  0  0  0  0  0  0  0
   12.9856  -19.9385   23.7736 O   0  0  0  0  0  0  0  0  0  0  0  0
    8.3565  -12.6827   25.8751 C   0  0  0  0  0  0  0  0  0  0  0  0
    8.5062  -13.4947   27.1321 C   0  0  1  0  0  0  0  0  0  0  0  0
    7.3461  -14.2368   27.2917 O   0  0  0  0  0  0  0  0  0  0  0  0
    9.7059  -14.4148   27.0986 C   0  0  2  0  0  0  0  0  0  0  0  0
    9.5286  -15.4856   26.1394 N   0  0  0  0  0  0  0  0  0  0  0  0
   10.0382  -14.9460   28.4344 C   0  0  0  0  0  0  0  0  0  0  0  0
   10.3193  -14.1414   29.5252 O   0  0  0  0  0  0  0  0  0  0  0  0
   10.0697  -16.1902   28.5979 O   0  0  0  0  0  0  0  0  0  0  0  0
  2  1  1  0
  3  2  1  0
  3  4  1  1
  5  3  1  0
  5  6  1  6
  7  5  1  0
  7  8  2  0
  9  7  1  0
 10  9  1  0
 10 11  1  6
 12 11  1  0
 13 12  1  0
 14 13  2  0
 15 22  1  0
 15 10  1  0
 16 15  2  0
 17 13  1  0
 19 20  1  0
 19 18  1  6
 19 21  1  0
 21 22  1  6
 21 23  1  0
 23 25  2  0
 23 24  1  0
M  END
$$$$
