IET.pdb
     RDKit          3D

 25 24  0  0  1  0  0  0  0  0999 V2000
    7.2027  -11.8811   19.0138 C   0  0  0  0  0  0  0  0  0  0  0  0
    7.6334  -13.2672   18.6710 C   0  0  0  0  0  0  0  0  0  0  0  0
    7.9911  -14.0995   19.8704 C   0  0  2  0  0  0  0  0  0  0  0  0
    9.1958  -13.4851   20.5483 C   0  0  0  0  0  0  0  0  0  0  0  0
    8.3494  -15.5102   19.4718 C   0  0  2  0  0  0  0  0  0  0  0  0
    7.2666  -16.1044   18.7987 N   0  0  0  0  0  0  0  0  0  0  0  0
    8.6723  -16.3445   20.6747 C   0  0  0  0  0  0  0  0  0  0  0  0
    7.7638  -16.8890   21.3718 O   0  0  0  0  0  0  0  0  0  0  0  0
   10.0078  -16.5691   21.0964 N   0  0  0  0  0  0  0  0  0  0  0  0
   10.3589  -17.4724   22.1942 C   0  0  1  0  0  0  0  0  0  0  0  0
   11.7641  -17.9137   21.9303 C   0  0  0  0  0  0  0  0  0  0  0  0
   11.9427  -18.7501   20.6993 C   0  0  0  0  0  0  0  0  0  0  0  0
   13.3381  -18.6471   20.2334 C   0  0  0  0  0  0  0  0  0  0  0  0
   14.1939  -18.0696   20.9300 O   0  0  0  0  0  0  0  0  0  0  0  0
   10.1623  -16.7691   23.4632 C   0  0  0  0  0  0  0  0  0  0  0  0
   10.7641  -15.7138   23.7873 O   0  0  0  0  0  0  0  0  0  0  0  0
   13.6912  -19.1949   19.0198 O   0  0  0  0  0  0  0  0  0  0  0  0
    7.3841  -14.9219   24.8813 C   0  0  0  0  0  0  0  0  0  0  0  0
    7.6731  -16.0202   25.8672 C   0  0  1  0  0  0  0  0  0  0  0  0
    6.7306  -17.0178   25.6707 O   0  0  0  0  0  0  0  0  0  0  0  0
    9.0658  -16.5909   25.7204 C   0  0  2  0  0  0  0  0  0  0  0  0
    9.2335  -17.2647   24.4493 N   0  0  0  0  0  0  0  0  0  0  0  0
    9.4264  -17.4765   26.8442 C   0  0  0  0  0  0  0  0  0  0  0  0
    9.3730  -17.0834   28.1705 O   0  0  0  0  0  0  0  0  0  0  0  0
    9.8017  -18.6476   26.5928 O   0  0  0  0  0  0  0  0  0  0  0  0
  2  1  1  0
  3  2  1  0
  3  4  1  6
  5  3  1  0
  5  6  1  1
  7  5  1  0
  7  8  2  0
  9  7  1  0
 10  9  1  0
 10 11  1  6
 12 11  1  0
 13 12  1  0
 14 13  2  0
 15 22  1  0
 15 10  1  0
 16 15  2  0
 17 13  1  0
 19 20  1  0
 19 18  1  6
 19 21  1  0
 21 22  1  6
 21 23  1  0
 23 25  2  0
 23 24  1  0
M  END
$$$$
