IET.pdb
     RDKit          3D

 25 24  0  0  1  0  0  0  0  0999 V2000
    7.0757  -11.8641   19.9313 C   0  0  0  0  0  0  0  0  0  0  0  0
    7.3721  -13.3191   19.7920 C   0  0  0  0  0  0  0  0  0  0  0  0
    7.7980  -13.9716   21.0773 C   0  0  2  0  0  0  0  0  0  0  0  0
    9.0556  -13.2939   21.5747 C   0  0  0  0  0  0  0  0  0  0  0  0
    8.1062  -15.4348   20.8738 C   0  0  2  0  0  0  0  0  0  0  0  0
    6.9530  -16.1070   20.4298 N   0  0  0  0  0  0  0  0  0  0  0  0
    8.5613  -16.0725   22.1517 C   0  0  0  0  0  0  0  0  0  0  0  0
    7.7362  -16.5005   23.0142 O   0  0  0  0  0  0  0  0  0  0  0  0
    9.9358  -16.2311   22.4640 N   0  0  0  0  0  0  0  0  0  0  0  0
   10.4083  -16.8822   23.6876 C   0  0  1  0  0  0  0  0  0  0  0  0
   11.6585  -17.6119   23.3089 C   0  0  0  0  0  0  0  0  0  0  0  0
   12.3632  -18.2892   24.4454 C   0  0  0  0  0  0  0  0  0  0  0  0
   13.5793  -18.9550   23.9427 C   0  0  0  0  0  0  0  0  0  0  0  0
   14.0746  -19.9145   24.5632 O   0  0  0  0  0  0  0  0  0  0  0  0
   10.5800  -15.8642   24.7259 C   0  0  0  0  0  0  0  0  0  0  0  0
   11.3814  -14.8990   24.6440 O   0  0  0  0  0  0  0  0  0  0  0  0
   14.1664  -18.5085   22.7793 O   0  0  0  0  0  0  0  0  0  0  0  0
    8.9003  -13.0458   25.9700 C   0  0  0  0  0  0  0  0  0  0  0  0
    8.9896  -13.9549   27.1647 C   0  0  1  0  0  0  0  0  0  0  0  0
    7.7593  -14.5772   27.3101 O   0  0  0  0  0  0  0  0  0  0  0  0
   10.0803  -14.9940   27.0329 C   0  0  2  0  0  0  0  0  0  0  0  0
    9.8116  -15.9125   25.9458 N   0  0  0  0  0  0  0  0  0  0  0  0
   10.3152  -15.7187   28.2966 C   0  0  0  0  0  0  0  0  0  0  0  0
    9.3930  -16.5832   28.8610 O   0  0  0  0  0  0  0  0  0  0  0  0
   11.4046  -15.5478   28.8963 O   0  0  0  0  0  0  0  0  0  0  0  0
  2  1  1  0
  3  2  1  0
  3  4  1  6
  5  3  1  0
  5  6  1  1
  7  5  1  0
  7  8  2  0
  9  7  1  0
 10  9  1  0
 10 11  1  6
 12 11  1  0
 13 12  1  0
 14 13  2  0
 15 22  1  0
 15 10  1  0
 16 15  2  0
 17 13  1  0
 19 20  1  0
 19 18  1  6
 19 21  1  0
 21 22  1  6
 21 23  1  0
 23 25  2  0
 23 24  1  0
M  END
$$$$
