IET.pdb
     RDKit          3D

 25 24  0  0  1  0  0  0  0  0999 V2000
    7.1859  -11.8853   19.6846 C   0  0  0  0  0  0  0  0  0  0  0  0
    7.5275  -13.2602   19.2184 C   0  0  0  0  0  0  0  0  0  0  0  0
    7.9365  -14.1872   20.3286 C   0  0  2  0  0  0  0  0  0  0  0  0
    9.1536  -13.6131   21.0195 C   0  0  0  0  0  0  0  0  0  0  0  0
    8.3022  -15.5514   19.7973 C   0  0  2  0  0  0  0  0  0  0  0  0
    7.1942  -16.1205   19.1436 N   0  0  0  0  0  0  0  0  0  0  0  0
    8.7170  -16.4689   20.9079 C   0  0  0  0  0  0  0  0  0  0  0  0
    7.8676  -17.0079   21.6799 O   0  0  0  0  0  0  0  0  0  0  0  0
   10.0781  -16.7826   21.1541 N   0  0  0  0  0  0  0  0  0  0  0  0
   10.5103  -17.6863   22.2223 C   0  0  1  0  0  0  0  0  0  0  0  0
   11.9590  -17.9611   21.9675 C   0  0  0  0  0  0  0  0  0  0  0  0
   12.6272  -18.8269   22.9927 C   0  0  0  0  0  0  0  0  0  0  0  0
   14.0421  -19.0209   22.6249 C   0  0  0  0  0  0  0  0  0  0  0  0
   14.3805  -19.9800   21.9061 O   0  0  0  0  0  0  0  0  0  0  0  0
   10.2201  -17.0606   23.5139 C   0  0  0  0  0  0  0  0  0  0  0  0
   10.6178  -15.9164   23.8504 O   0  0  0  0  0  0  0  0  0  0  0  0
   14.9906  -18.1329   23.0822 O   0  0  0  0  0  0  0  0  0  0  0  0
    7.3702  -15.5946   24.9284 C   0  0  0  0  0  0  0  0  0  0  0  0
    7.7172  -16.6891   25.8996 C   0  0  1  0  0  0  0  0  0  0  0  0
    6.8721  -17.7582   25.6449 O   0  0  0  0  0  0  0  0  0  0  0  0
    9.1583  -17.1348   25.7934 C   0  0  2  0  0  0  0  0  0  0  0  0
    9.4330  -17.7462   24.5095 N   0  0  0  0  0  0  0  0  0  0  0  0
    9.5491  -18.0263   26.9023 C   0  0  0  0  0  0  0  0  0  0  0  0
    9.4418  -17.6735   28.2366 O   0  0  0  0  0  0  0  0  0  0  0  0
   10.0029  -19.1645   26.6297 O   0  0  0  0  0  0  0  0  0  0  0  0
  2  1  1  0
  3  2  1  0
  3  4  1  6
  5  3  1  0
  5  6  1  1
  7  5  1  0
  7  8  2  0
  9  7  1  0
 10  9  1  0
 10 11  1  6
 12 11  1  0
 13 12  1  0
 14 13  2  0
 15 22  1  0
 15 10  1  0
 16 15  2  0
 17 13  1  0
 19 20  1  0
 19 18  1  6
 19 21  1  0
 21 22  1  6
 21 23  1  0
 23 25  2  0
 23 24  1  0
M  END
$$$$
