IET.pdb
     RDKit          3D

 25 24  0  0  1  0  0  0  0  0999 V2000
    7.0158  -12.2978   26.4227 C   0  0  0  0  0  0  0  0  0  0  0  0
    6.9250  -13.5146   25.5653 C   0  0  0  0  0  0  0  0  0  0  0  0
    7.6131  -13.3669   24.2372 C   0  0  2  0  0  0  0  0  0  0  0  0
    6.8938  -12.3084   23.4306 C   0  0  0  0  0  0  0  0  0  0  0  0
    7.5754  -14.6559   23.4535 C   0  0  2  0  0  0  0  0  0  0  0  0
    6.2534  -15.1317   23.3829 N   0  0  0  0  0  0  0  0  0  0  0  0
    8.4211  -15.7080   24.1054 C   0  0  0  0  0  0  0  0  0  0  0  0
    7.9344  -16.5371   24.9320 O   0  0  0  0  0  0  0  0  0  0  0  0
    9.8076  -15.8321   23.8332 N   0  0  0  0  0  0  0  0  0  0  0  0
   10.6464  -16.8816   24.4157 C   0  0  1  0  0  0  0  0  0  0  0  0
   11.6898  -17.1916   23.3890 C   0  0  0  0  0  0  0  0  0  0  0  0
   12.6742  -18.2491   23.7884 C   0  0  0  0  0  0  0  0  0  0  0  0
   13.5988  -18.5076   22.6690 C   0  0  0  0  0  0  0  0  0  0  0  0
   14.8252  -18.5892   22.8706 O   0  0  0  0  0  0  0  0  0  0  0  0
   11.1674  -16.4087   25.6998 C   0  0  0  0  0  0  0  0  0  0  0  0
   11.9440  -15.4286   25.8298 O   0  0  0  0  0  0  0  0  0  0  0  0
   13.0974  -18.6589   21.3950 O   0  0  0  0  0  0  0  0  0  0  0  0
   10.4701  -14.3984   28.3118 C   0  0  0  0  0  0  0  0  0  0  0  0
   10.6116  -15.7374   28.9815 C   0  0  1  0  0  0  0  0  0  0  0  0
    9.3369  -16.2511   29.1640 O   0  0  0  0  0  0  0  0  0  0  0  0
   11.4493  -16.7097   28.1815 C   0  0  2  0  0  0  0  0  0  0  0  0
   10.8062  -17.0640   26.9330 N   0  0  0  0  0  0  0  0  0  0  0  0
   11.8015  -17.9130   28.9593 C   0  0  0  0  0  0  0  0  0  0  0  0
   12.5210  -17.8717   30.1413 O   0  0  0  0  0  0  0  0  0  0  0  0
   11.4334  -19.0352   28.5340 O   0  0  0  0  0  0  0  0  0  0  0  0
  2  1  1  0
  3  2  1  0
  3  4  1  6
  5  3  1  0
  5  6  1  1
  7  5  1  0
  7  8  2  0
  9  7  1  0
 10  9  1  0
 10 11  1  6
 12 11  1  0
 13 12  1  0
 14 13  2  0
 15 22  1  0
 15 10  1  0
 16 15  2  0
 17 13  1  0
 19 20  1  0
 19 18  1  6
 19 21  1  0
 21 22  1  6
 21 23  1  0
 23 25  2  0
 23 24  1  0
M  END
$$$$
