IET.pdb
     RDKit          3D

 25 24  0  0  1  0  0  0  0  0999 V2000
    6.9018  -11.9838   19.2946 C   0  0  0  0  0  0  0  0  0  0  0  0
    7.5192  -13.2802   18.8916 C   0  0  0  0  0  0  0  0  0  0  0  0
    7.9491  -14.1288   20.0553 C   0  0  2  0  0  0  0  0  0  0  0  0
    8.9553  -13.3544   20.8778 C   0  0  0  0  0  0  0  0  0  0  0  0
    8.6094  -15.4035   19.5903 C   0  0  2  0  0  0  0  0  0  0  0  0
    7.7345  -16.1131   18.7478 N   0  0  0  0  0  0  0  0  0  0  0  0
    8.9621  -16.2827   20.7521 C   0  0  0  0  0  0  0  0  0  0  0  0
    8.1058  -17.0422   21.2976 O   0  0  0  0  0  0  0  0  0  0  0  0
   10.2692  -16.3121   21.3020 N   0  0  0  0  0  0  0  0  0  0  0  0
   10.6408  -17.1597   22.4369 C   0  0  1  0  0  0  0  0  0  0  0  0
   12.0803  -17.5134   22.2323 C   0  0  0  0  0  0  0  0  0  0  0  0
   12.3555  -18.3714   21.0343 C   0  0  0  0  0  0  0  0  0  0  0  0
   13.8076  -18.6008   20.9174 C   0  0  0  0  0  0  0  0  0  0  0  0
   14.2405  -19.6292   20.3642 O   0  0  0  0  0  0  0  0  0  0  0  0
   10.3548  -16.4365   23.6775 C   0  0  0  0  0  0  0  0  0  0  0  0
   10.9562  -15.3949   24.0435 O   0  0  0  0  0  0  0  0  0  0  0  0
   14.6855  -17.6685   21.4250 O   0  0  0  0  0  0  0  0  0  0  0  0
    7.5455  -14.4777   24.8071 C   0  0  0  0  0  0  0  0  0  0  0  0
    7.6929  -15.5689   25.8313 C   0  0  1  0  0  0  0  0  0  0  0  0
    6.7318  -16.5305   25.5599 O   0  0  0  0  0  0  0  0  0  0  0  0
    9.0678  -16.1988   25.8261 C   0  0  2  0  0  0  0  0  0  0  0  0
    9.3296  -16.8945   24.5831 N   0  0  0  0  0  0  0  0  0  0  0  0
    9.2793  -17.0846   26.9870 C   0  0  0  0  0  0  0  0  0  0  0  0
    9.1672  -16.6591   28.2995 O   0  0  0  0  0  0  0  0  0  0  0  0
    9.5764  -18.2868   26.7820 O   0  0  0  0  0  0  0  0  0  0  0  0
  2  1  1  0
  3  2  1  0
  3  4  1  1
  5  3  1  0
  5  6  1  6
  7  5  1  0
  7  8  2  0
  9  7  1  0
 10  9  1  0
 10 11  1  6
 12 11  1  0
 13 12  1  0
 14 13  2  0
 15 22  1  0
 15 10  1  0
 16 15  2  0
 17 13  1  0
 19 20  1  0
 19 18  1  6
 19 21  1  0
 21 22  1  6
 21 23  1  0
 23 25  2  0
 23 24  1  0
M  END
$$$$
