IET.pdb
     RDKit          3D

 25 24  0  0  1  0  0  0  0  0999 V2000
-33741.7461-159257.9844-23808.5234 C   0  0  0  0  0  0  0  0  0  0  0  0
-33742.1914-159259.2344-23807.8262 C   0  0  0  0  0  0  0  0  0  0  0  0
-33741.0742-159259.8750-23807.0488 C   0  0  2  0  0  0  0  0  0  0  0  0
-33740.2539-159258.8281-23806.3730 C   0  0  0  0  0  0  0  0  0  0  0  0
-33740.1484-159260.7344-23807.8906 C   0  0  2  0  0  0  0  0  0  0  0  0
-33740.4141-159262.0625-23807.5957 N   0  0  0  0  0  0  0  0  0  0  0  0
-33738.7109-159260.4062-23807.5586 C   0  0  0  0  0  0  0  0  0  0  0  0
-33737.8320-159260.2031-23808.4688 O   0  0  0  0  0  0  0  0  0  0  0  0
-33738.2422-159260.3281-23806.1934 N   0  0  0  0  0  0  0  0  0  0  0  0
-33736.8828-159260.5312-23805.8066 C   0  0  1  0  0  0  0  0  0  0  0  0
-33736.6367-159261.9531-23805.8652 C   0  0  0  0  0  0  0  0  0  0  0  0
-33736.9141-159262.7344-23804.5977 C   0  0  0  0  0  0  0  0  0  0  0  0
-33738.4023-159262.8438-23804.4395 C   0  0  0  0  0  0  0  0  0  0  0  0
-33739.1797-159262.3594-23805.2812 O   0  0  0  0  0  0  0  0  0  0  0  0
-33736.0078-159259.7031-23806.6484 C   0  0  0  0  0  0  0  0  0  0  0  0
-33735.0352-159259.0938-23806.2617 O   0  0  0  0  0  0  0  0  0  0  0  0
-33738.8828-159263.5156-23803.3594 O   0  0  0  0  0  0  0  0  0  0  0  0
-33733.6797-159259.4375-23808.7637 C   0  0  0  0  0  0  0  0  0  0  0  0
-33734.3750-159260.6719-23809.1543 C   0  0  1  0  0  0  0  0  0  0  0  0
-33733.8984-159261.7500-23808.4023 O   0  0  0  0  0  0  0  0  0  0  0  0
-33735.8984-159260.6406-23808.9668 C   0  0  2  0  0  0  0  0  0  0  0  0
-33736.3047-159259.6406-23808.1035 N   0  0  0  0  0  0  0  0  0  0  0  0
-33736.4492-159261.9375-23808.5859 C   0  0  0  0  0  0  0  0  0  0  0  0
-33736.1250-159263.1250-23809.2812 O   0  0  0  0  0  0  0  0  0  0  0  0
-33737.1758-159262.0000-23807.5938 O   0  0  0  0  0  0  0  0  0  0  0  0
  2  1  1  0
  3  2  1  0
  3  4  1  6
  5  3  1  0
  5  6  1  1
  7  5  1  0
  7  8  2  0
  9  7  1  0
 10  9  1  0
 10 11  1  6
 12 11  1  0
 13 12  1  0
 14 13  2  0
 15 22  1  0
 15 10  1  0
 16 15  2  0
 17 13  1  0
 19 20  1  0
 19 18  1  1
 19 21  1  0
 21 22  1  1
 21 23  1  0
 23 25  2  0
 23 24  1  0
M  END
$$$$
