IET.pdb
     RDKit          3D

 25 24  0  0  1  0  0  0  0  0999 V2000
    7.5661  -11.9123   18.5786 C   0  0  0  0  0  0  0  0  0  0  0  0
    7.9256  -13.3528   18.7199 C   0  0  0  0  0  0  0  0  0  0  0  0
    7.7479  -13.8826   20.1152 C   0  0  2  0  0  0  0  0  0  0  0  0
    8.6610  -13.1171   21.0472 C   0  0  0  0  0  0  0  0  0  0  0  0
    8.1161  -15.3437   20.1980 C   0  0  2  0  0  0  0  0  0  0  0  0
    7.2713  -16.0958   19.3616 N   0  0  0  0  0  0  0  0  0  0  0  0
    7.9717  -15.8573   21.5989 C   0  0  0  0  0  0  0  0  0  0  0  0
    6.8346  -16.0156   22.1372 O   0  0  0  0  0  0  0  0  0  0  0  0
    9.0963  -16.1930   22.3954 N   0  0  0  0  0  0  0  0  0  0  0  0
    8.9877  -16.6353   23.7872 C   0  0  1  0  0  0  0  0  0  0  0  0
   10.0556  -17.6663   23.9757 C   0  0  0  0  0  0  0  0  0  0  0  0
   10.2444  -18.1286   25.3891 C   0  0  0  0  0  0  0  0  0  0  0  0
   11.3451  -19.1086   25.4425 C   0  0  0  0  0  0  0  0  0  0  0  0
   12.5214  -18.7459   25.2530 O   0  0  0  0  0  0  0  0  0  0  0  0
    9.0988  -15.4665   24.6621 C   0  0  0  0  0  0  0  0  0  0  0  0
    9.9790  -14.5765   24.5446 O   0  0  0  0  0  0  0  0  0  0  0  0
   11.0645  -20.4316   25.7041 O   0  0  0  0  0  0  0  0  0  0  0  0
    7.0723  -11.9560   26.7954 C   0  0  0  0  0  0  0  0  0  0  0  0
    6.9875  -13.4540   26.8980 C   0  0  1  0  0  0  0  0  0  0  0  0
    6.0520  -13.8849   25.9700 O   0  0  0  0  0  0  0  0  0  0  0  0
    8.3135  -14.1368   26.6481 C   0  0  2  0  0  0  0  0  0  0  0  0
    8.1711  -15.2622   25.7476 N   0  0  0  0  0  0  0  0  0  0  0  0
    8.9782  -14.5392   27.9024 C   0  0  0  0  0  0  0  0  0  0  0  0
    9.4581  -13.6343   28.8337 O   0  0  0  0  0  0  0  0  0  0  0  0
    9.1195  -15.7627   28.1445 O   0  0  0  0  0  0  0  0  0  0  0  0
  2  1  1  0
  3  2  1  0
  3  4  1  1
  5  3  1  0
  5  6  1  6
  7  5  1  0
  7  8  2  0
  9  7  1  0
 10  9  1  0
 10 11  1  1
 12 11  1  0
 13 12  1  0
 14 13  2  0
 15 22  1  0
 15 10  1  0
 16 15  2  0
 17 13  1  0
 19 20  1  0
 19 18  1  6
 19 21  1  0
 21 22  1  6
 21 23  1  0
 23 25  2  0
 23 24  1  0
M  END
$$$$
