IET.pdb
     RDKit          3D

 25 24  0  0  1  0  0  0  0  0999 V2000
    7.0527  -11.8121   19.2483 C   0  0  0  0  0  0  0  0  0  0  0  0
    7.8081  -12.9908   18.7342 C   0  0  0  0  0  0  0  0  0  0  0  0
    8.1726  -13.9837   19.8021 C   0  0  2  0  0  0  0  0  0  0  0  0
    9.1046  -13.3172   20.7898 C   0  0  0  0  0  0  0  0  0  0  0  0
    8.8876  -15.1781   19.2195 C   0  0  2  0  0  0  0  0  0  0  0  0
    8.0652  -15.8077   18.2676 N   0  0  0  0  0  0  0  0  0  0  0  0
    9.2252  -16.1768   20.2853 C   0  0  0  0  0  0  0  0  0  0  0  0
    8.3361  -16.9019   20.8253 O   0  0  0  0  0  0  0  0  0  0  0  0
   10.5537  -16.3638   20.7456 N   0  0  0  0  0  0  0  0  0  0  0  0
   10.9044  -17.2944   21.8205 C   0  0  1  0  0  0  0  0  0  0  0  0
   12.3303  -17.6803   21.5815 C   0  0  0  0  0  0  0  0  0  0  0  0
   12.9320  -18.5586   22.6368 C   0  0  0  0  0  0  0  0  0  0  0  0
   14.3266  -18.8748   22.2762 C   0  0  0  0  0  0  0  0  0  0  0  0
   15.1779  -19.0710   23.1639 O   0  0  0  0  0  0  0  0  0  0  0  0
   10.6499  -16.6440   23.1074 C   0  0  0  0  0  0  0  0  0  0  0  0
   11.2204  -15.5922   23.4930 O   0  0  0  0  0  0  0  0  0  0  0  0
   14.6839  -18.9522   20.9481 O   0  0  0  0  0  0  0  0  0  0  0  0
    7.6908  -14.9750   24.4664 C   0  0  0  0  0  0  0  0  0  0  0  0
    8.0200  -16.0783   25.4339 C   0  0  1  0  0  0  0  0  0  0  0  0
    7.1495  -17.1279   25.1840 O   0  0  0  0  0  0  0  0  0  0  0  0
    9.4501  -16.5559   25.3169 C   0  0  2  0  0  0  0  0  0  0  0  0
    9.6956  -17.1929   24.0395 N   0  0  0  0  0  0  0  0  0  0  0  0
    9.8361  -17.4382   26.4348 C   0  0  0  0  0  0  0  0  0  0  0  0
    9.7551  -17.0618   27.7645 O   0  0  0  0  0  0  0  0  0  0  0  0
   10.2606  -18.5905   26.1747 O   0  0  0  0  0  0  0  0  0  0  0  0
  2  1  1  0
  3  2  1  0
  3  4  1  1
  5  3  1  0
  5  6  1  6
  7  5  1  0
  7  8  2  0
  9  7  1  0
 10  9  1  0
 10 11  1  1
 12 11  1  0
 13 12  1  0
 14 13  2  0
 15 22  1  0
 15 10  1  0
 16 15  2  0
 17 13  1  0
 19 20  1  0
 19 18  1  6
 19 21  1  0
 21 22  1  6
 21 23  1  0
 23 25  2  0
 23 24  1  0
M  END
$$$$
