IET.pdb
     RDKit          3D

 25 24  0  0  1  0  0  0  0  0999 V2000
    7.0628  -12.5470   18.9758 C   0  0  0  0  0  0  0  0  0  0  0  0
    8.2691  -13.2882   19.4446 C   0  0  0  0  0  0  0  0  0  0  0  0
    8.1109  -13.8896   20.8130 C   0  0  2  0  0  0  0  0  0  0  0  0
    7.8481  -12.7792   21.8061 C   0  0  0  0  0  0  0  0  0  0  0  0
    9.3641  -14.6122   21.2427 C   0  0  2  0  0  0  0  0  0  0  0  0
    9.7055  -15.5842   20.2848 N   0  0  0  0  0  0  0  0  0  0  0  0
    9.1656  -15.2982   22.5607 C   0  0  0  0  0  0  0  0  0  0  0  0
    8.3655  -14.8457   23.4341 O   0  0  0  0  0  0  0  0  0  0  0  0
    9.8602  -16.4872   22.9007 N   0  0  0  0  0  0  0  0  0  0  0  0
    9.7551  -17.1277   24.2134 C   0  0  1  0  0  0  0  0  0  0  0  0
   10.3914  -18.4740   24.0663 C   0  0  0  0  0  0  0  0  0  0  0  0
   11.8528  -18.4487   23.7338 C   0  0  0  0  0  0  0  0  0  0  0  0
   12.3452  -19.8300   23.5776 C   0  0  0  0  0  0  0  0  0  0  0  0
   11.5595  -20.7925   23.6639 O   0  0  0  0  0  0  0  0  0  0  0  0
   10.3786  -16.2577   25.2124 C   0  0  0  0  0  0  0  0  0  0  0  0
   10.9194  -15.1535   24.9496 O   0  0  0  0  0  0  0  0  0  0  0  0
   13.6830  -20.0509   23.3350 O   0  0  0  0  0  0  0  0  0  0  0  0
    9.8428  -13.6858   26.4605 C   0  0  0  0  0  0  0  0  0  0  0  0
    9.8732  -14.5155   27.7144 C   0  0  1  0  0  0  0  0  0  0  0  0
    8.5845  -14.9712   27.9463 O   0  0  0  0  0  0  0  0  0  0  0  0
   10.8250  -15.6870   27.6216 C   0  0  2  0  0  0  0  0  0  0  0  0
   10.4091  -16.6314   26.6053 N   0  0  0  0  0  0  0  0  0  0  0  0
   11.0151  -16.3550   28.9235 C   0  0  0  0  0  0  0  0  0  0  0  0
   11.5569  -15.7247   30.0304 O   0  0  0  0  0  0  0  0  0  0  0  0
   10.6703  -17.5562   29.0410 O   0  0  0  0  0  0  0  0  0  0  0  0
  2  1  1  0
  3  2  1  0
  3  4  1  1
  5  3  1  0
  5  6  1  6
  7  5  1  0
  7  8  2  0
  9  7  1  0
 10  9  1  0
 10 11  1  6
 12 11  1  0
 13 12  1  0
 14 13  2  0
 15 22  1  0
 15 10  1  0
 16 15  2  0
 17 13  1  0
 19 20  1  0
 19 18  1  6
 19 21  1  0
 21 22  1  6
 21 23  1  0
 23 25  2  0
 23 24  1  0
M  END
$$$$
