IET.pdb
     RDKit          3D

 25 24  0  0  1  0  0  0  0  0999 V2000
    7.3364  -11.8941   22.8228 C   0  0  0  0  0  0  0  0  0  0  0  0
    7.3141  -13.3437   22.4730 C   0  0  0  0  0  0  0  0  0  0  0  0
    8.1623  -13.6875   21.2807 C   0  0  2  0  0  0  0  0  0  0  0  0
    7.6396  -12.9345   20.0773 C   0  0  0  0  0  0  0  0  0  0  0  0
    8.1000  -15.1630   20.9705 C   0  0  2  0  0  0  0  0  0  0  0  0
    6.7696  -15.5393   20.7108 N   0  0  0  0  0  0  0  0  0  0  0  0
    8.6042  -15.9779   22.1233 C   0  0  0  0  0  0  0  0  0  0  0  0
    7.8130  -16.5702   22.9177 O   0  0  0  0  0  0  0  0  0  0  0  0
    9.9896  -16.1298   22.3865 N   0  0  0  0  0  0  0  0  0  0  0  0
   10.5099  -16.9322   23.4955 C   0  0  1  0  0  0  0  0  0  0  0  0
   11.7645  -17.5706   22.9881 C   0  0  0  0  0  0  0  0  0  0  0  0
   12.4907  -18.4186   23.9884 C   0  0  0  0  0  0  0  0  0  0  0  0
   13.6993  -18.9883   23.3643 C   0  0  0  0  0  0  0  0  0  0  0  0
   14.6144  -19.4520   24.0706 O   0  0  0  0  0  0  0  0  0  0  0  0
   10.6886  -16.0640   24.6609 C   0  0  0  0  0  0  0  0  0  0  0  0
   11.0780  -14.8702   24.6001 O   0  0  0  0  0  0  0  0  0  0  0  0
   13.8113  -19.0049   21.9915 O   0  0  0  0  0  0  0  0  0  0  0  0
    9.8022  -13.7553   28.4826 C   0  0  0  0  0  0  0  0  0  0  0  0
    9.5347  -14.7139   27.3551 C   0  0  1  0  0  0  0  0  0  0  0  0
    9.3533  -13.9646   26.2028 O   0  0  0  0  0  0  0  0  0  0  0  0
   10.6546  -15.7095   27.1514 C   0  0  2  0  0  0  0  0  0  0  0  0
   10.4182  -16.5465   25.9931 N   0  0  0  0  0  0  0  0  0  0  0  0
   10.9014  -16.5249   28.3561 C   0  0  0  0  0  0  0  0  0  0  0  0
   11.5021  -16.0293   29.5006 O   0  0  0  0  0  0  0  0  0  0  0  0
   10.5516  -17.7304   28.3505 O   0  0  0  0  0  0  0  0  0  0  0  0
  2  1  1  0
  3  2  1  0
  3  4  1  6
  5  3  1  0
  5  6  1  1
  7  5  1  0
  7  8  2  0
  9  7  1  0
 10  9  1  0
 10 11  1  6
 12 11  1  0
 13 12  1  0
 14 13  2  0
 15 22  1  0
 15 10  1  0
 16 15  2  0
 17 13  1  0
 19 20  1  0
 19 18  1  1
 19 21  1  0
 21 22  1  6
 21 23  1  0
 23 25  2  0
 23 24  1  0
M  END
$$$$
