IET.pdb
     RDKit          3D

 25 24  0  0  1  0  0  0  0  0999 V2000
    6.3803  -10.7868   27.5353 C   0  0  0  0  0  0  0  0  0  0  0  0
    6.6570  -12.2520   27.5673 C   0  0  0  0  0  0  0  0  0  0  0  0
    7.4438  -12.7412   26.3838 C   0  0  2  0  0  0  0  0  0  0  0  0
    6.6590  -12.4519   25.1233 C   0  0  0  0  0  0  0  0  0  0  0  0
    7.6757  -14.2305   26.4570 C   0  0  2  0  0  0  0  0  0  0  0  0
    8.2140  -14.5675   27.7122 N   0  0  0  0  0  0  0  0  0  0  0  0
    8.6353  -14.6793   25.3964 C   0  0  0  0  0  0  0  0  0  0  0  0
    9.7769  -14.1445   25.2605 O   0  0  0  0  0  0  0  0  0  0  0  0
    8.3186  -15.7236   24.4903 N   0  0  0  0  0  0  0  0  0  0  0  0
    9.1493  -16.0564   23.3311 C   0  0  1  0  0  0  0  0  0  0  0  0
    9.6737  -17.4350   23.5831 C   0  0  0  0  0  0  0  0  0  0  0  0
   10.5626  -17.9791   22.5057 C   0  0  0  0  0  0  0  0  0  0  0  0
   11.0261  -19.3267   22.8851 C   0  0  0  0  0  0  0  0  0  0  0  0
   12.1805  -19.4966   23.3207 O   0  0  0  0  0  0  0  0  0  0  0  0
    8.3413  -15.9171   22.1180 C   0  0  0  0  0  0  0  0  0  0  0  0
    7.1318  -16.2493   22.0321 O   0  0  0  0  0  0  0  0  0  0  0  0
   10.1728  -20.4002   22.7547 O   0  0  0  0  0  0  0  0  0  0  0  0
    7.6338  -12.8258   20.0812 C   0  0  0  0  0  0  0  0  0  0  0  0
    8.1646  -13.8623   19.1296 C   0  0  1  0  0  0  0  0  0  0  0  0
    9.4728  -13.5193   18.8242 O   0  0  0  0  0  0  0  0  0  0  0  0
    8.1186  -15.2624   19.6991 C   0  0  2  0  0  0  0  0  0  0  0  0
    8.9075  -15.3709   20.9089 N   0  0  0  0  0  0  0  0  0  0  0  0
    8.5193  -16.2803   18.7090 C   0  0  0  0  0  0  0  0  0  0  0  0
    7.8445  -16.4916   17.5189 O   0  0  0  0  0  0  0  0  0  0  0  0
    9.5224  -16.9950   18.9510 O   0  0  0  0  0  0  0  0  0  0  0  0
  2  1  1  0
  3  2  1  0
  3  4  1  6
  5  3  1  0
  5  6  1  1
  7  5  1  0
  7  8  2  0
  9  7  1  0
 10  9  1  0
 10 11  1  1
 12 11  1  0
 13 12  1  0
 14 13  2  0
 15 22  1  0
 15 10  1  0
 16 15  2  0
 17 13  1  0
 19 20  1  0
 19 18  1  1
 19 21  1  0
 21 22  1  1
 21 23  1  0
 23 25  2  0
 23 24  1  0
M  END
$$$$
