IET.pdb
     RDKit          3D

 25 24  0  0  1  0  0  0  0  0999 V2000
    7.4439  -11.7233   18.8603 C   0  0  0  0  0  0  0  0  0  0  0  0
    7.5876  -13.2053   18.9445 C   0  0  0  0  0  0  0  0  0  0  0  0
    7.7028  -13.7192   20.3523 C   0  0  2  0  0  0  0  0  0  0  0  0
    8.8648  -13.0273   21.0301 C   0  0  0  0  0  0  0  0  0  0  0  0
    7.9677  -15.2046   20.3740 C   0  0  2  0  0  0  0  0  0  0  0  0
    6.9160  -15.8853   19.7341 N   0  0  0  0  0  0  0  0  0  0  0  0
    8.0719  -15.7130   21.7803 C   0  0  0  0  0  0  0  0  0  0  0  0
    7.0548  -15.8105   22.5312 O   0  0  0  0  0  0  0  0  0  0  0  0
    9.3105  -16.1112   22.3452 N   0  0  0  0  0  0  0  0  0  0  0  0
    9.4429  -16.6003   23.7191 C   0  0  1  0  0  0  0  0  0  0  0  0
   10.5978  -17.5517   23.7076 C   0  0  0  0  0  0  0  0  0  0  0  0
   10.9550  -18.1273   25.0448 C   0  0  0  0  0  0  0  0  0  0  0  0
   12.1696  -18.9537   24.9153 C   0  0  0  0  0  0  0  0  0  0  0  0
   13.2962  -18.4478   25.0767 O   0  0  0  0  0  0  0  0  0  0  0  0
    9.5998  -15.4522   24.6140 C   0  0  0  0  0  0  0  0  0  0  0  0
   10.4168  -14.5153   24.4256 O   0  0  0  0  0  0  0  0  0  0  0  0
   12.0511  -20.2926   24.6139 O   0  0  0  0  0  0  0  0  0  0  0  0
    7.4047  -12.6266   25.4850 C   0  0  0  0  0  0  0  0  0  0  0  0
    7.6926  -13.3624   26.7645 C   0  0  1  0  0  0  0  0  0  0  0  0
    6.6042  -14.1784   27.0322 O   0  0  0  0  0  0  0  0  0  0  0  0
    8.9544  -14.1930   26.6943 C   0  0  2  0  0  0  0  0  0  0  0  0
    8.7969  -15.3260   25.8058 N   0  0  0  0  0  0  0  0  0  0  0  0
    9.4137  -14.6228   28.0290 C   0  0  0  0  0  0  0  0  0  0  0  0
    9.6951  -13.7403   29.0577 O   0  0  0  0  0  0  0  0  0  0  0  0
    9.5590  -15.8498   28.2506 O   0  0  0  0  0  0  0  0  0  0  0  0
  2  1  1  0
  3  2  1  0
  3  4  1  6
  5  3  1  0
  5  6  1  1
  7  5  1  0
  7  8  2  0
  9  7  1  0
 10  9  1  0
 10 11  1  6
 12 11  1  0
 13 12  1  0
 14 13  2  0
 15 22  1  0
 15 10  1  0
 16 15  2  0
 17 13  1  0
 19 20  1  0
 19 18  1  6
 19 21  1  0
 21 22  1  6
 21 23  1  0
 23 25  2  0
 23 24  1  0
M  END
$$$$
