HQE.pdb
     RDKit          3D

 29 29  0  0  1  0  0  0  0  0999 V2000
   26.0680  -31.7106    4.6259 N   0  0  0  0  0  0  0  0  0  0  0  0
   27.4886  -31.6301    4.9078 C   0  0  1  0  0  0  0  0  0  0  0  0
   27.6796  -30.8626    6.1970 C   0  0  0  0  0  0  0  0  0  0  0  0
   27.3129  -29.4453    5.9312 C   0  0  0  0  0  0  0  0  0  0  0  0
   26.2126  -28.7618    6.3977 C   0  0  0  0  0  0  0  0  0  0  0  0
   26.2538  -27.4914    5.9211 N   0  0  0  0  0  0  0  0  0  0  0  0
   27.3543  -27.3740    5.1708 C   0  0  0  0  0  0  0  0  0  0  0  0
   27.9928  -28.5642    5.1812 N   0  0  0  0  0  0  0  0  0  0  0  0
   28.0934  -32.9625    4.9321 C   0  0  0  0  0  0  0  0  0  0  0  0
   27.4740  -33.9133    5.5010 O   0  0  0  0  0  0  0  0  0  0  0  0
   33.7615  -34.6012    3.5589 N   0  0  0  0  0  0  0  0  0  0  0  0
   33.2049  -35.9168    3.5250 C   0  0  0  0  0  0  0  0  0  0  0  0
   34.0213  -36.8698    3.5770 O   0  0  0  0  0  0  0  0  0  0  0  0
   31.7321  -36.0708    3.4317 C   0  0  0  0  0  0  0  0  0  0  0  0
   30.9824  -34.7726    3.3867 C   0  0  0  0  0  0  0  0  0  0  0  0
   29.9337  -34.6096    4.4515 C   0  0  2  0  0  0  0  0  0  0  0  0
   29.3360  -33.2595    4.3563 N   0  0  0  0  0  0  0  0  0  0  0  0
   30.4570  -34.7649    5.8338 C   0  0  0  0  0  0  0  0  0  0  0  0
   30.6880  -33.7673    6.5620 O   0  0  0  0  0  0  0  0  0  0  0  0
   30.7241  -36.0372    6.4075 N   0  0  0  0  0  0  0  0  0  0  0  0
   31.1984  -36.2195    7.7553 C   0  0  1  0  0  0  0  0  0  0  0  0
   30.5533  -35.3054    8.7339 C   0  0  0  0  0  0  0  0  0  0  0  0
   30.8664  -35.4530   10.1589 C   0  0  0  0  0  0  0  0  0  0  0  0
   30.2155  -34.6059   11.1373 C   0  0  0  0  0  0  0  0  0  0  0  0
   29.2883  -33.7876   10.9621 O   0  0  0  0  0  0  0  0  0  0  0  0
   31.3587  -37.6173    8.1747 C   0  0  0  0  0  0  0  0  0  0  0  0
   30.9797  -38.6365    7.3294 O   0  0  0  0  0  0  0  0  0  0  0  0
   30.6588  -34.6847   12.4829 O   0  0  0  0  0  0  0  0  0  0  0  0
   31.8326  -37.8885    9.2927 O   0  0  0  0  0  0  0  0  0  0  0  0
  2  1  1  1
  3  2  1  0
  3  4  1  0
  4  5  2  0
  4  8  1  0
  5  6  1  0
  6  7  1  0
  8  7  2  0
  9 17  1  0
  9  2  1  0
 10  9  2  0
 12 11  1  0
 13 12  2  0
 14 12  1  0
 16 15  1  6
 15 14  1  0
 16 17  1  0
 18 20  1  0
 18 16  1  0
 19 18  2  0
 21 22  1  1
 21 20  1  0
 23 22  1  0
 24 23  1  0
 24 25  2  0
 26 21  1  0
 27 26  1  0
 28 24  1  0
 29 26  2  0
M  END
$$$$
