HQE.pdb
     RDKit          3D

 29 29  0  0  1  0  0  0  0  0999 V2000
   24.6059  -13.7349  -18.8295 N   0  0  0  0  0  0  0  0  0  0  0  0
   24.3676  -13.1219  -17.5366 C   0  0  1  0  0  0  0  0  0  0  0  0
   25.7022  -12.7601  -16.9235 C   0  0  0  0  0  0  0  0  0  0  0  0
   26.3879  -14.0309  -16.5649 C   0  0  0  0  0  0  0  0  0  0  0  0
   27.4230  -14.6435  -17.2347 C   0  0  0  0  0  0  0  0  0  0  0  0
   27.7555  -15.7828  -16.5758 N   0  0  0  0  0  0  0  0  0  0  0  0
   26.9495  -15.8883  -15.5141 C   0  0  0  0  0  0  0  0  0  0  0  0
   26.1215  -14.8212  -15.5135 N   0  0  0  0  0  0  0  0  0  0  0  0
   23.4579  -11.9820  -17.6577 C   0  0  0  0  0  0  0  0  0  0  0  0
   23.6100  -11.1680  -18.6199 O   0  0  0  0  0  0  0  0  0  0  0  0
   17.4101  -12.0156  -16.8649 N   0  0  0  0  0  0  0  0  0  0  0  0
   17.6095  -10.6012  -16.8272 C   0  0  0  0  0  0  0  0  0  0  0  0
   16.5756   -9.8939  -16.7359 O   0  0  0  0  0  0  0  0  0  0  0  0
   18.9928  -10.0693  -16.8976 C   0  0  0  0  0  0  0  0  0  0  0  0
   20.0547  -11.1279  -16.9328 C   0  0  0  0  0  0  0  0  0  0  0  0
   21.4653  -10.6092  -16.9683 C   0  0  2  0  0  0  0  0  0  0  0  0
   22.4107  -11.7284  -16.7618 N   0  0  0  0  0  0  0  0  0  0  0  0
   21.7531   -9.5895  -15.9261 C   0  0  0  0  0  0  0  0  0  0  0  0
   22.1578   -9.9183  -14.7829 O   0  0  0  0  0  0  0  0  0  0  0  0
   21.5891   -8.1973  -16.1584 N   0  0  0  0  0  0  0  0  0  0  0  0
   21.8273   -7.1892  -15.1575 C   0  0  1  0  0  0  0  0  0  0  0  0
   21.9586   -5.8202  -15.7217 C   0  0  0  0  0  0  0  0  0  0  0  0
   22.1795   -4.6931  -14.8101 C   0  0  0  0  0  0  0  0  0  0  0  0
   22.2523   -3.3425  -15.3291 C   0  0  0  0  0  0  0  0  0  0  0  0
   22.5162   -2.9703  -16.4917 O   0  0  0  0  0  0  0  0  0  0  0  0
   21.0182   -7.3186  -13.9393 C   0  0  0  0  0  0  0  0  0  0  0  0
   21.6221   -7.2574  -12.7030 O   0  0  0  0  0  0  0  0  0  0  0  0
   21.9971   -2.2727  -14.4326 O   0  0  0  0  0  0  0  0  0  0  0  0
   19.7878   -7.4869  -14.0160 O   0  0  0  0  0  0  0  0  0  0  0  0
  2  1  1  6
  3  2  1  0
  3  4  1  0
  4  5  2  0
  4  8  1  0
  5  6  1  0
  6  7  1  0
  8  7  2  0
  9 17  1  0
  9  2  1  0
 10  9  2  0
 12 11  1  0
 13 12  2  0
 14 12  1  0
 16 15  1  1
 15 14  1  0
 16 17  1  0
 18 20  1  0
 18 16  1  0
 19 18  2  0
 21 22  1  6
 21 20  1  0
 23 22  1  0
 24 23  1  0
 24 25  2  0
 26 21  1  0
 27 26  1  0
 28 24  1  0
 29 26  2  0
M  END
$$$$
