HQE.pdb
     RDKit          3D

 29 29  0  0  1  0  0  0  0  0999 V2000
   21.9270  -14.6187  -17.4168 N   0  0  0  0  0  0  0  0  0  0  0  0
   21.8100  -13.2181  -17.7754 C   0  0  1  0  0  0  0  0  0  0  0  0
   20.3542  -12.9124  -18.0488 C   0  0  0  0  0  0  0  0  0  0  0  0
   19.9478  -13.7051  -19.2405 C   0  0  0  0  0  0  0  0  0  0  0  0
   19.4361  -14.9829  -19.2634 C   0  0  0  0  0  0  0  0  0  0  0  0
   19.1984  -15.3349  -20.5527 N   0  0  0  0  0  0  0  0  0  0  0  0
   19.5516  -14.3038  -21.3273 C   0  0  0  0  0  0  0  0  0  0  0  0
   20.0058  -13.3174  -20.5240 N   0  0  0  0  0  0  0  0  0  0  0  0
   22.3972  -12.3629  -16.7431 C   0  0  0  0  0  0  0  0  0  0  0  0
   22.0398  -12.5165  -15.5347 O   0  0  0  0  0  0  0  0  0  0  0  0
   28.1352  -10.5409  -16.2123 N   0  0  0  0  0  0  0  0  0  0  0  0
   27.4994  -11.7020  -15.6744 C   0  0  0  0  0  0  0  0  0  0  0  0
   28.2558  -12.6443  -15.3316 O   0  0  0  0  0  0  0  0  0  0  0  0
   26.0203  -11.7215  -15.5582 C   0  0  0  0  0  0  0  0  0  0  0  0
   25.3560  -10.4460  -15.9835 C   0  0  0  0  0  0  0  0  0  0  0  0
   23.8532  -10.4717  -15.9469 C   0  0  2  0  0  0  0  0  0  0  0  0
   23.3465  -11.3673  -17.0101 N   0  0  0  0  0  0  0  0  0  0  0  0
   23.2278   -9.1397  -16.1557 C   0  0  0  0  0  0  0  0  0  0  0  0
   22.9555   -8.7179  -17.3074 O   0  0  0  0  0  0  0  0  0  0  0  0
   22.9046   -8.2738  -15.0764 N   0  0  0  0  0  0  0  0  0  0  0  0
   22.0342   -7.1331  -15.2036 C   0  0  1  0  0  0  0  0  0  0  0  0
   20.7919   -7.4240  -15.9664 C   0  0  0  0  0  0  0  0  0  0  0  0
   19.7713   -6.3783  -16.0895 C   0  0  0  0  0  0  0  0  0  0  0  0
   18.5523   -6.6364  -16.8286 C   0  0  0  0  0  0  0  0  0  0  0  0
   18.2049   -7.6844  -17.4122 O   0  0  0  0  0  0  0  0  0  0  0  0
   21.8790   -6.3299  -13.9845 C   0  0  0  0  0  0  0  0  0  0  0  0
   21.8718   -4.9550  -14.0633 O   0  0  0  0  0  0  0  0  0  0  0  0
   17.6014   -5.5878  -16.9267 O   0  0  0  0  0  0  0  0  0  0  0  0
   21.7569   -6.8840  -12.8771 O   0  0  0  0  0  0  0  0  0  0  0  0
  2  1  1  1
  3  2  1  0
  3  4  1  0
  4  5  2  0
  4  8  1  0
  5  6  1  0
  6  7  1  0
  8  7  2  0
  9 17  1  0
  9  2  1  0
 10  9  2  0
 12 11  1  0
 13 12  2  0
 14 12  1  0
 16 15  1  6
 15 14  1  0
 16 17  1  0
 18 20  1  0
 18 16  1  0
 19 18  2  0
 21 22  1  1
 21 20  1  0
 23 22  1  0
 24 23  1  0
 24 25  2  0
 26 21  1  0
 27 26  1  0
 28 24  1  0
 29 26  2  0
M  END
$$$$
