HQE.pdb
     RDKit          3D

 29 29  0  0  1  0  0  0  0  0999 V2000
   20.8155  -12.1654  -17.9650 N   0  0  0  0  0  0  0  0  0  0  0  0
   20.6774  -12.3223  -16.5296 C   0  0  1  0  0  0  0  0  0  0  0  0
   21.0055  -13.7542  -16.1693 C   0  0  0  0  0  0  0  0  0  0  0  0
   19.9931  -14.6233  -16.8277 C   0  0  0  0  0  0  0  0  0  0  0  0
   18.7019  -14.8668  -16.4165 C   0  0  0  0  0  0  0  0  0  0  0  0
   18.1160  -15.7163  -17.2984 N   0  0  0  0  0  0  0  0  0  0  0  0
   19.0154  -16.0034  -18.2451 C   0  0  0  0  0  0  0  0  0  0  0  0
   20.1531  -15.3364  -17.9532 N   0  0  0  0  0  0  0  0  0  0  0  0
   21.4972  -11.3430  -15.8150 C   0  0  0  0  0  0  0  0  0  0  0  0
   21.4542  -11.3072  -14.5469 O   0  0  0  0  0  0  0  0  0  0  0  0
   27.3765  -10.3185  -16.3434 N   0  0  0  0  0  0  0  0  0  0  0  0
   26.6211  -11.3186  -15.6571 C   0  0  0  0  0  0  0  0  0  0  0  0
   27.2547  -12.3348  -15.2785 O   0  0  0  0  0  0  0  0  0  0  0  0
   25.1698  -11.0993  -15.4408 C   0  0  0  0  0  0  0  0  0  0  0  0
   24.6554   -9.8073  -16.0023 C   0  0  0  0  0  0  0  0  0  0  0  0
   23.2154   -9.5093  -15.6896 C   0  0  2  0  0  0  0  0  0  0  0  0
   22.3418  -10.4260  -16.4549 N   0  0  0  0  0  0  0  0  0  0  0  0
   22.8053   -8.1217  -16.0289 C   0  0  0  0  0  0  0  0  0  0  0  0
   22.3790   -7.8266  -17.1734 O   0  0  0  0  0  0  0  0  0  0  0  0
   22.8704   -7.0580  -15.0889 N   0  0  0  0  0  0  0  0  0  0  0  0
   22.2981   -5.7562  -15.3183 C   0  0  1  0  0  0  0  0  0  0  0  0
   20.8826   -5.8078  -15.7694 C   0  0  0  0  0  0  0  0  0  0  0  0
   20.1292   -4.5558  -15.8932 C   0  0  0  0  0  0  0  0  0  0  0  0
   18.7210   -4.5858  -16.2318 C   0  0  0  0  0  0  0  0  0  0  0  0
   18.1458   -5.2726  -17.1020 O   0  0  0  0  0  0  0  0  0  0  0  0
   22.6238   -4.7459  -14.3040 C   0  0  0  0  0  0  0  0  0  0  0  0
   22.5938   -3.4085  -14.6314 O   0  0  0  0  0  0  0  0  0  0  0  0
   17.8454   -3.7395  -15.5035 O   0  0  0  0  0  0  0  0  0  0  0  0
   22.9309   -5.0904  -13.1485 O   0  0  0  0  0  0  0  0  0  0  0  0
  2  1  1  6
  3  2  1  0
  3  4  1  0
  4  5  2  0
  4  8  1  0
  5  6  1  0
  6  7  1  0
  8  7  2  0
  9 17  1  0
  9  2  1  0
 10  9  2  0
 12 11  1  0
 13 12  2  0
 14 12  1  0
 16 15  1  6
 15 14  1  0
 16 17  1  0
 18 20  1  0
 18 16  1  0
 19 18  2  0
 21 22  1  1
 21 20  1  0
 23 22  1  0
 24 23  1  0
 24 25  2  0
 26 21  1  0
 27 26  1  0
 28 24  1  0
 29 26  2  0
M  END
$$$$
