HQE.pdb
     RDKit          3D

 29 29  0  0  1  0  0  0  0  0999 V2000
   23.3094  -15.0167  -17.2489 N   0  0  0  0  0  0  0  0  0  0  0  0
   22.4739  -14.0066  -17.8698 C   0  0  1  0  0  0  0  0  0  0  0  0
   21.4363  -14.7004  -18.7240 C   0  0  0  0  0  0  0  0  0  0  0  0
   22.1626  -15.5372  -19.7169 C   0  0  0  0  0  0  0  0  0  0  0  0
   22.0440  -16.8941  -19.9172 C   0  0  0  0  0  0  0  0  0  0  0  0
   22.8830  -17.2624  -20.9188 N   0  0  0  0  0  0  0  0  0  0  0  0
   23.5174  -16.1643  -21.3421 C   0  0  0  0  0  0  0  0  0  0  0  0
   23.0753  -15.1201  -20.6081 N   0  0  0  0  0  0  0  0  0  0  0  0
   21.8941  -13.1163  -16.8634 C   0  0  0  0  0  0  0  0  0  0  0  0
   21.4270  -13.6131  -15.7927 O   0  0  0  0  0  0  0  0  0  0  0  0
   22.9215   -6.9796  -15.8375 N   0  0  0  0  0  0  0  0  0  0  0  0
   21.8006   -7.2200  -14.9846 C   0  0  0  0  0  0  0  0  0  0  0  0
   21.4696   -6.2805  -14.2196 O   0  0  0  0  0  0  0  0  0  0  0  0
   21.1147   -8.5339  -15.0540 C   0  0  0  0  0  0  0  0  0  0  0  0
   21.7497   -9.5066  -16.0027 C   0  0  0  0  0  0  0  0  0  0  0  0
   21.1250  -10.8740  -16.0201 C   0  0  2  0  0  0  0  0  0  0  0  0
   21.8210  -11.7246  -17.0106 N   0  0  0  0  0  0  0  0  0  0  0  0
   19.6828  -10.8672  -16.3790 C   0  0  0  0  0  0  0  0  0  0  0  0
   19.2451  -11.5441  -17.3428 O   0  0  0  0  0  0  0  0  0  0  0  0
   18.7240  -10.1027  -15.6611 N   0  0  0  0  0  0  0  0  0  0  0  0
   17.3362  -10.4710  -15.5458 C   0  0  1  0  0  0  0  0  0  0  0  0
   17.1320  -11.9226  -15.2993 C   0  0  0  0  0  0  0  0  0  0  0  0
   16.2766  -12.6861  -16.2136 C   0  0  0  0  0  0  0  0  0  0  0  0
   15.9740  -14.0752  -15.9356 C   0  0  0  0  0  0  0  0  0  0  0  0
   16.2191  -15.0791  -16.6371 O   0  0  0  0  0  0  0  0  0  0  0  0
   16.5124   -9.5514  -14.7514 C   0  0  0  0  0  0  0  0  0  0  0  0
   15.1400   -9.5888  -14.8606 O   0  0  0  0  0  0  0  0  0  0  0  0
   15.3130  -14.3793  -14.7174 O   0  0  0  0  0  0  0  0  0  0  0  0
   17.0468   -8.7340  -13.9804 O   0  0  0  0  0  0  0  0  0  0  0  0
  2  1  1  1
  3  2  1  0
  3  4  1  0
  4  5  2  0
  4  8  1  0
  5  6  1  0
  6  7  1  0
  8  7  2  0
  9 17  1  0
  9  2  1  0
 10  9  2  0
 12 11  1  0
 13 12  2  0
 14 12  1  0
 16 15  1  6
 15 14  1  0
 16 17  1  0
 18 20  1  0
 18 16  1  0
 19 18  2  0
 21 22  1  1
 21 20  1  0
 23 22  1  0
 24 23  1  0
 24 25  2  0
 26 21  1  0
 27 26  1  0
 28 24  1  0
 29 26  2  0
M  END
$$$$
