HQE.pdb
     RDKit          3D

 29 29  0  0  1  0  0  0  0  0999 V2000
   21.9331  -14.3201  -17.6144 N   0  0  0  0  0  0  0  0  0  0  0  0
   21.6515  -13.9869  -16.2311 C   0  0  1  0  0  0  0  0  0  0  0  0
   21.8742  -15.2207  -15.3851 C   0  0  0  0  0  0  0  0  0  0  0  0
   20.9373  -16.2698  -15.8702 C   0  0  0  0  0  0  0  0  0  0  0  0
   21.0058  -16.9748  -17.0508 C   0  0  0  0  0  0  0  0  0  0  0  0
   19.9575  -17.8353  -17.1066 N   0  0  0  0  0  0  0  0  0  0  0  0
   19.2425  -17.6783  -15.9877 C   0  0  0  0  0  0  0  0  0  0  0  0
   19.8430  -16.7260  -15.2413 N   0  0  0  0  0  0  0  0  0  0  0  0
   22.4458  -12.8366  -15.7979 C   0  0  0  0  0  0  0  0  0  0  0  0
   22.3341  -12.4217  -14.6034 O   0  0  0  0  0  0  0  0  0  0  0  0
   27.6561  -10.3770  -18.4342 N   0  0  0  0  0  0  0  0  0  0  0  0
   27.2795   -9.3277  -17.5404 C   0  0  0  0  0  0  0  0  0  0  0  0
   28.0326   -8.3229  -17.5103 O   0  0  0  0  0  0  0  0  0  0  0  0
   26.0520   -9.4876  -16.7225 C   0  0  0  0  0  0  0  0  0  0  0  0
   25.3264  -10.7797  -16.9536 C   0  0  0  0  0  0  0  0  0  0  0  0
   24.0431  -10.9317  -16.1853 C   0  0  2  0  0  0  0  0  0  0  0  0
   23.3378  -12.1524  -16.6344 N   0  0  0  0  0  0  0  0  0  0  0  0
   23.1057   -9.7912  -16.3570 C   0  0  0  0  0  0  0  0  0  0  0  0
   22.6559   -9.4783  -17.4877 O   0  0  0  0  0  0  0  0  0  0  0  0
   22.6674   -8.9958  -15.2641 N   0  0  0  0  0  0  0  0  0  0  0  0
   21.6875   -7.9469  -15.3847 C   0  0  1  0  0  0  0  0  0  0  0  0
   20.4913   -8.3479  -16.1707 C   0  0  0  0  0  0  0  0  0  0  0  0
   19.5423   -9.3007  -15.5859 C   0  0  0  0  0  0  0  0  0  0  0  0
   18.3156   -9.6258  -16.2846 C   0  0  0  0  0  0  0  0  0  0  0  0
   17.9068   -9.1887  -17.3808 O   0  0  0  0  0  0  0  0  0  0  0  0
   21.4358   -7.1863  -14.1544 C   0  0  0  0  0  0  0  0  0  0  0  0
   20.6439   -6.0601  -14.1924 O   0  0  0  0  0  0  0  0  0  0  0  0
   17.4346  -10.5589  -15.6792 O   0  0  0  0  0  0  0  0  0  0  0  0
   21.9368   -7.5509  -13.0755 O   0  0  0  0  0  0  0  0  0  0  0  0
  2  1  1  6
  3  2  1  0
  3  4  1  0
  4  5  2  0
  4  8  1  0
  5  6  1  0
  6  7  1  0
  8  7  2  0
  9 17  1  0
  9  2  1  0
 10  9  2  0
 12 11  1  0
 13 12  2  0
 14 12  1  0
 16 15  1  6
 15 14  1  0
 16 17  1  0
 18 20  1  0
 18 16  1  0
 19 18  2  0
 21 22  1  1
 21 20  1  0
 23 22  1  0
 24 23  1  0
 24 25  2  0
 26 21  1  0
 27 26  1  0
 28 24  1  0
 29 26  2  0
M  END
$$$$
