HQE.pdb
     RDKit          3D

 29 29  0  0  1  0  0  0  0  0999 V2000
   24.2041  -13.9582  -15.7709 N   0  0  0  0  0  0  0  0  0  0  0  0
   23.3063  -12.9778  -16.3513 C   0  0  1  0  0  0  0  0  0  0  0  0
   21.9194  -13.2070  -15.7929 C   0  0  0  0  0  0  0  0  0  0  0  0
   21.5001  -14.5787  -16.1884 C   0  0  0  0  0  0  0  0  0  0  0  0
   21.7637  -15.7589  -15.5304 C   0  0  0  0  0  0  0  0  0  0  0  0
   21.2014  -16.7807  -16.2249 N   0  0  0  0  0  0  0  0  0  0  0  0
   20.5963  -16.2591  -17.2971 C   0  0  0  0  0  0  0  0  0  0  0  0
   20.7816  -14.9214  -17.2688 N   0  0  0  0  0  0  0  0  0  0  0  0
   23.8022  -11.6187  -16.1302 C   0  0  0  0  0  0  0  0  0  0  0  0
   24.3099  -11.3202  -15.0057 O   0  0  0  0  0  0  0  0  0  0  0  0
   27.2884   -7.9864  -19.5011 N   0  0  0  0  0  0  0  0  0  0  0  0
   26.6712   -6.9711  -18.7074 C   0  0  0  0  0  0  0  0  0  0  0  0
   27.0676   -5.7947  -18.8992 O   0  0  0  0  0  0  0  0  0  0  0  0
   25.6262   -7.3609  -17.7290 C   0  0  0  0  0  0  0  0  0  0  0  0
   25.2517   -8.8123  -17.7790 C   0  0  0  0  0  0  0  0  0  0  0  0
   24.1841   -9.2250  -16.8042 C   0  0  2  0  0  0  0  0  0  0  0  0
   23.7505  -10.6083  -17.0998 N   0  0  0  0  0  0  0  0  0  0  0  0
   22.9733   -8.3640  -16.8448 C   0  0  0  0  0  0  0  0  0  0  0  0
   22.1694   -8.4103  -17.8093 O   0  0  0  0  0  0  0  0  0  0  0  0
   22.6567   -7.4474  -15.8061 N   0  0  0  0  0  0  0  0  0  0  0  0
   21.3129   -7.0389  -15.4865 C   0  0  1  0  0  0  0  0  0  0  0  0
   20.3300   -8.1523  -15.5477 C   0  0  0  0  0  0  0  0  0  0  0  0
   18.9665   -7.9255  -15.0577 C   0  0  0  0  0  0  0  0  0  0  0  0
   17.9692   -8.9695  -15.1755 C   0  0  0  0  0  0  0  0  0  0  0  0
   17.9410   -9.9304  -15.9728 O   0  0  0  0  0  0  0  0  0  0  0  0
   21.1955   -6.1263  -14.3425 C   0  0  0  0  0  0  0  0  0  0  0  0
   22.2979   -5.8568  -13.5620 O   0  0  0  0  0  0  0  0  0  0  0  0
   16.8626   -8.9331  -14.2881 O   0  0  0  0  0  0  0  0  0  0  0  0
   20.1036   -5.5957  -14.0702 O   0  0  0  0  0  0  0  0  0  0  0  0
  2  1  1  1
  3  2  1  0
  3  4  1  0
  4  5  2  0
  4  8  1  0
  5  6  1  0
  6  7  1  0
  8  7  2  0
  9 17  1  0
  9  2  1  0
 10  9  2  0
 12 11  1  0
 13 12  2  0
 14 12  1  0
 16 15  1  6
 15 14  1  0
 16 17  1  0
 18 20  1  0
 18 16  1  0
 19 18  2  0
 21 22  1  1
 21 20  1  0
 23 22  1  0
 24 23  1  0
 24 25  2  0
 26 21  1  0
 27 26  1  0
 28 24  1  0
 29 26  2  0
M  END
$$$$
