HQE.pdb
     RDKit          3D

 29 29  0  0  1  0  0  0  0  0999 V2000
   23.8599  -13.3583  -17.7228 N   0  0  0  0  0  0  0  0  0  0  0  0
   23.8152  -12.1358  -16.9433 C   0  0  1  0  0  0  0  0  0  0  0  0
   25.0895  -11.3602  -17.1930 C   0  0  0  0  0  0  0  0  0  0  0  0
   26.2225  -12.1967  -16.7130 C   0  0  0  0  0  0  0  0  0  0  0  0
   26.5776  -12.4595  -15.4090 C   0  0  0  0  0  0  0  0  0  0  0  0
   27.6699  -13.2655  -15.4082 N   0  0  0  0  0  0  0  0  0  0  0  0
   27.9980  -13.5068  -16.6817 C   0  0  0  0  0  0  0  0  0  0  0  0
   27.1150  -12.8548  -17.4689 N   0  0  0  0  0  0  0  0  0  0  0  0
   22.6038  -11.3702  -17.2399 C   0  0  0  0  0  0  0  0  0  0  0  0
   22.3002  -11.1360  -18.4500 O   0  0  0  0  0  0  0  0  0  0  0  0
   17.0500  -12.5670  -16.5581 N   0  0  0  0  0  0  0  0  0  0  0  0
   17.8379  -12.5314  -15.3666 C   0  0  0  0  0  0  0  0  0  0  0  0
   17.4114  -13.2036  -14.3951 O   0  0  0  0  0  0  0  0  0  0  0  0
   19.0806  -11.7210  -15.3519 C   0  0  0  0  0  0  0  0  0  0  0  0
   19.3356  -10.9681  -16.6238 C   0  0  0  0  0  0  0  0  0  0  0  0
   20.5443  -10.0745  -16.5994 C   0  0  2  0  0  0  0  0  0  0  0  0
   21.7427  -10.8705  -16.2537 N   0  0  0  0  0  0  0  0  0  0  0  0
   20.4490   -8.9677  -15.6121 C   0  0  0  0  0  0  0  0  0  0  0  0
   21.3179   -8.8115  -14.7181 O   0  0  0  0  0  0  0  0  0  0  0  0
   19.3807   -8.0308  -15.6208 N   0  0  0  0  0  0  0  0  0  0  0  0
   19.4264   -6.7642  -14.9364 C   0  0  1  0  0  0  0  0  0  0  0  0
   20.7502   -6.0942  -15.0280 C   0  0  0  0  0  0  0  0  0  0  0  0
   20.9399   -4.7996  -14.3658 C   0  0  0  0  0  0  0  0  0  0  0  0
   22.2204   -4.1264  -14.4400 C   0  0  0  0  0  0  0  0  0  0  0  0
   22.6517   -3.3743  -15.3389 O   0  0  0  0  0  0  0  0  0  0  0  0
   18.2477   -5.9103  -15.1284 C   0  0  0  0  0  0  0  0  0  0  0  0
   17.7792   -5.1407  -14.0867 O   0  0  0  0  0  0  0  0  0  0  0  0
   23.1344   -4.3198  -13.3719 O   0  0  0  0  0  0  0  0  0  0  0  0
   17.6653   -5.8794  -16.2274 O   0  0  0  0  0  0  0  0  0  0  0  0
  2  1  1  6
  3  2  1  0
  3  4  1  0
  4  5  2  0
  4  8  1  0
  5  6  1  0
  6  7  1  0
  8  7  2  0
  9 17  1  0
  9  2  1  0
 10  9  2  0
 12 11  1  0
 13 12  2  0
 14 12  1  0
 16 15  1  1
 15 14  1  0
 16 17  1  0
 18 20  1  0
 18 16  1  0
 19 18  2  0
 21 22  1  6
 21 20  1  0
 23 22  1  0
 24 23  1  0
 24 25  2  0
 26 21  1  0
 27 26  1  0
 28 24  1  0
 29 26  2  0
M  END
$$$$
