HQE.pdb
     RDKit          3D

 29 29  0  0  1  0  0  0  0  0999 V2000
   26.7044  -18.8317  -19.3371 N   0  0  0  0  0  0  0  0  0  0  0  0
   26.1971  -18.1846  -18.1421 C   0  0  1  0  0  0  0  0  0  0  0  0
   25.7047  -16.8041  -18.5159 C   0  0  0  0  0  0  0  0  0  0  0  0
   26.9011  -15.9588  -18.7762 C   0  0  0  0  0  0  0  0  0  0  0  0
   28.2245  -16.3278  -18.6868 C   0  0  0  0  0  0  0  0  0  0  0  0
   28.9980  -15.2590  -19.0062 N   0  0  0  0  0  0  0  0  0  0  0  0
   28.1831  -14.2380  -19.2910 C   0  0  0  0  0  0  0  0  0  0  0  0
   26.9111  -14.6698  -19.1494 N   0  0  0  0  0  0  0  0  0  0  0  0
   25.1752  -19.0082  -17.4948 C   0  0  0  0  0  0  0  0  0  0  0  0
   24.3932  -19.7031  -18.2138 O   0  0  0  0  0  0  0  0  0  0  0  0
   25.9220  -22.7081  -12.7775 N   0  0  0  0  0  0  0  0  0  0  0  0
   24.5140  -22.8606  -12.9672 C   0  0  0  0  0  0  0  0  0  0  0  0
   23.9656  -23.8030  -12.3437 O   0  0  0  0  0  0  0  0  0  0  0  0
   23.8051  -21.9188  -13.8682 C   0  0  0  0  0  0  0  0  0  0  0  0
   24.7008  -20.9169  -14.5338 C   0  0  0  0  0  0  0  0  0  0  0  0
   24.0094  -19.9866  -15.4913 C   0  0  2  0  0  0  0  0  0  0  0  0
   25.0031  -19.0789  -16.1058 N   0  0  0  0  0  0  0  0  0  0  0  0
   22.9701  -19.1372  -14.8532 C   0  0  0  0  0  0  0  0  0  0  0  0
   23.2745  -18.2378  -14.0303 O   0  0  0  0  0  0  0  0  0  0  0  0
   21.5854  -19.2905  -15.1330 N   0  0  0  0  0  0  0  0  0  0  0  0
   20.5527  -18.5187  -14.4906 C   0  0  1  0  0  0  0  0  0  0  0  0
   19.6323  -17.8545  -15.4505 C   0  0  0  0  0  0  0  0  0  0  0  0
   20.1599  -16.8126  -16.3373 C   0  0  0  0  0  0  0  0  0  0  0  0
   19.2766  -16.1265  -17.2580 C   0  0  0  0  0  0  0  0  0  0  0  0
   18.1396  -15.6579  -17.0402 O   0  0  0  0  0  0  0  0  0  0  0  0
   19.9300  -19.1601  -13.3260 C   0  0  0  0  0  0  0  0  0  0  0  0
   19.1942  -18.4072  -12.4380 O   0  0  0  0  0  0  0  0  0  0  0  0
   19.7228  -15.9415  -18.5922 O   0  0  0  0  0  0  0  0  0  0  0  0
   20.0654  -20.3818  -13.1332 O   0  0  0  0  0  0  0  0  0  0  0  0
  2  1  1  6
  3  2  1  0
  3  4  1  0
  4  5  2  0
  4  8  1  0
  5  6  1  0
  6  7  1  0
  8  7  2  0
  9 17  1  0
  9  2  1  0
 10  9  2  0
 12 11  1  0
 13 12  2  0
 14 12  1  0
 16 15  1  1
 15 14  1  0
 16 17  1  0
 18 20  1  0
 18 16  1  0
 19 18  2  0
 21 22  1  6
 21 20  1  0
 23 22  1  0
 24 23  1  0
 24 25  2  0
 26 21  1  0
 27 26  1  0
 28 24  1  0
 29 26  2  0
M  END
$$$$
