HQE.pdb
     RDKit          3D

 29 29  0  0  1  0  0  0  0  0999 V2000
   18.2324  -12.5131  -16.1251 N   0  0  0  0  0  0  0  0  0  0  0  0
   17.4570  -11.6754  -15.2301 C   0  0  1  0  0  0  0  0  0  0  0  0
   17.4548  -12.3118  -13.8580 C   0  0  0  0  0  0  0  0  0  0  0  0
   16.6489  -13.5594  -13.9461 C   0  0  0  0  0  0  0  0  0  0  0  0
   17.1118  -14.8545  -14.0083 C   0  0  0  0  0  0  0  0  0  0  0  0
   16.0483  -15.6951  -14.0794 N   0  0  0  0  0  0  0  0  0  0  0  0
   14.9387  -14.9493  -14.0625 C   0  0  0  0  0  0  0  0  0  0  0  0
   15.3106  -13.6533  -13.9815 N   0  0  0  0  0  0  0  0  0  0  0  0
   17.9620  -10.3018  -15.2304 C   0  0  0  0  0  0  0  0  0  0  0  0
   19.1655  -10.0845  -14.8900 O   0  0  0  0  0  0  0  0  0  0  0  0
   16.0459   -7.8997  -19.0967 N   0  0  0  0  0  0  0  0  0  0  0  0
   17.4447   -8.1871  -19.1473 C   0  0  0  0  0  0  0  0  0  0  0  0
   17.8589   -8.7637  -20.1834 O   0  0  0  0  0  0  0  0  0  0  0  0
   18.2997   -7.7965  -17.9994 C   0  0  0  0  0  0  0  0  0  0  0  0
   17.5520   -7.1509  -16.8709 C   0  0  0  0  0  0  0  0  0  0  0  0
   17.7261   -7.8153  -15.5335 C   0  0  2  0  0  0  0  0  0  0  0  0
   17.1860   -9.1915  -15.5894 N   0  0  0  0  0  0  0  0  0  0  0  0
   17.0321   -7.1128  -14.4228 C   0  0  0  0  0  0  0  0  0  0  0  0
   16.3030   -7.7341  -13.6097 O   0  0  0  0  0  0  0  0  0  0  0  0
   17.1508   -5.7118  -14.2171 N   0  0  0  0  0  0  0  0  0  0  0  0
   16.5904   -5.0229  -13.0829 C   0  0  1  0  0  0  0  0  0  0  0  0
   16.9319   -5.6572  -11.7827 C   0  0  0  0  0  0  0  0  0  0  0  0
   16.5109   -5.0030  -10.5396 C   0  0  0  0  0  0  0  0  0  0  0  0
   16.9653   -5.5111   -9.2613 C   0  0  0  0  0  0  0  0  0  0  0  0
   17.7322   -6.4705   -9.0350 O   0  0  0  0  0  0  0  0  0  0  0  0
   16.6788   -3.5585  -13.1385 C   0  0  0  0  0  0  0  0  0  0  0  0
   15.8359   -2.7891  -12.3676 O   0  0  0  0  0  0  0  0  0  0  0  0
   16.5024   -4.8626   -8.0872 O   0  0  0  0  0  0  0  0  0  0  0  0
   17.5098   -3.0060  -13.8816 O   0  0  0  0  0  0  0  0  0  0  0  0
  2  1  1  6
  3  2  1  0
  3  4  1  0
  4  5  2  0
  4  8  1  0
  5  6  1  0
  6  7  1  0
  8  7  2  0
  9 17  1  0
  9  2  1  0
 10  9  2  0
 12 11  1  0
 13 12  2  0
 14 12  1  0
 16 15  1  6
 15 14  1  0
 16 17  1  0
 18 20  1  0
 18 16  1  0
 19 18  2  0
 21 22  1  1
 21 20  1  0
 23 22  1  0
 24 23  1  0
 24 25  2  0
 26 21  1  0
 27 26  1  0
 28 24  1  0
 29 26  2  0
M  END
$$$$
