HQE.pdb
     RDKit          3D

 29 29  0  0  1  0  0  0  0  0999 V2000
   25.3453  -18.8356  -16.7529 N   0  0  0  0  0  0  0  0  0  0  0  0
   24.0128  -19.4082  -16.7769 C   0  0  1  0  0  0  0  0  0  0  0  0
   24.1367  -20.9148  -16.7261 C   0  0  0  0  0  0  0  0  0  0  0  0
   24.8595  -21.3448  -17.9535 C   0  0  0  0  0  0  0  0  0  0  0  0
   24.3138  -21.7133  -19.1626 C   0  0  0  0  0  0  0  0  0  0  0  0
   25.3198  -22.0343  -20.0156 N   0  0  0  0  0  0  0  0  0  0  0  0
   26.4747  -21.8727  -19.3614 C   0  0  0  0  0  0  0  0  0  0  0  0
   26.1879  -21.4538  -18.1097 N   0  0  0  0  0  0  0  0  0  0  0  0
   23.1877  -18.8585  -15.7005 C   0  0  0  0  0  0  0  0  0  0  0  0
   23.6980  -18.6985  -14.5492 O   0  0  0  0  0  0  0  0  0  0  0  0
   19.3509  -14.1868  -16.3981 N   0  0  0  0  0  0  0  0  0  0  0  0
   18.9699  -14.5707  -15.0755 C   0  0  0  0  0  0  0  0  0  0  0  0
   18.0761  -13.8779  -14.5289 O   0  0  0  0  0  0  0  0  0  0  0  0
   19.6390  -15.7355  -14.4454 C   0  0  0  0  0  0  0  0  0  0  0  0
   20.5646  -16.4792  -15.3616 C   0  0  0  0  0  0  0  0  0  0  0  0
   21.1028  -17.7691  -14.8077 C   0  0  2  0  0  0  0  0  0  0  0  0
   21.8453  -18.4911  -15.8644 N   0  0  0  0  0  0  0  0  0  0  0  0
   20.0495  -18.6873  -14.3015 C   0  0  0  0  0  0  0  0  0  0  0  0
   19.2815  -18.3499  -13.3661 O   0  0  0  0  0  0  0  0  0  0  0  0
   19.8510  -19.9873  -14.8399 N   0  0  0  0  0  0  0  0  0  0  0  0
   18.8810  -20.9215  -14.3287 C   0  0  1  0  0  0  0  0  0  0  0  0
   19.1278  -22.3215  -14.7633 C   0  0  0  0  0  0  0  0  0  0  0  0
   20.1976  -23.0889  -14.1175 C   0  0  0  0  0  0  0  0  0  0  0  0
   20.4341  -24.4668  -14.4971 C   0  0  0  0  0  0  0  0  0  0  0  0
   19.8167  -25.1590  -15.3334 O   0  0  0  0  0  0  0  0  0  0  0  0
   18.5151  -20.7299  -12.9198 C   0  0  0  0  0  0  0  0  0  0  0  0
   17.4782  -21.4538  -12.3743 O   0  0  0  0  0  0  0  0  0  0  0  0
   21.4967  -25.1576  -13.8592 O   0  0  0  0  0  0  0  0  0  0  0  0
   19.1344  -19.9135  -12.2142 O   0  0  0  0  0  0  0  0  0  0  0  0
  2  1  1  1
  3  2  1  0
  3  4  1  0
  4  5  2  0
  4  8  1  0
  5  6  1  0
  6  7  1  0
  8  7  2  0
  9 17  1  0
  9  2  1  0
 10  9  2  0
 12 11  1  0
 13 12  2  0
 14 12  1  0
 16 15  1  6
 15 14  1  0
 16 17  1  0
 18 20  1  0
 18 16  1  0
 19 18  2  0
 21 22  1  1
 21 20  1  0
 23 22  1  0
 24 23  1  0
 24 25  2  0
 26 21  1  0
 27 26  1  0
 28 24  1  0
 29 26  2  0
M  END
$$$$
