HQE.pdb
     RDKit          3D

 29 29  0  0  1  0  0  0  0  0999 V2000
   21.6819  -12.9136  -19.7543 N   0  0  0  0  0  0  0  0  0  0  0  0
   22.4499  -11.8542  -19.1285 C   0  0  1  0  0  0  0  0  0  0  0  0
   23.5397  -11.4222  -20.0842 C   0  0  0  0  0  0  0  0  0  0  0  0
   24.5266  -12.5326  -20.1671 C   0  0  0  0  0  0  0  0  0  0  0  0
   24.5465  -13.6941  -19.4283 C   0  0  0  0  0  0  0  0  0  0  0  0
   25.6138  -14.4387  -19.8145 N   0  0  0  0  0  0  0  0  0  0  0  0
   26.2539  -13.7640  -20.7751 C   0  0  0  0  0  0  0  0  0  0  0  0
   25.5884  -12.6074  -20.9844 N   0  0  0  0  0  0  0  0  0  0  0  0
   21.5795  -10.7554  -18.7079 C   0  0  0  0  0  0  0  0  0  0  0  0
   20.7077  -10.3118  -19.5169 O   0  0  0  0  0  0  0  0  0  0  0  0
   17.4278  -10.2727  -14.7705 N   0  0  0  0  0  0  0  0  0  0  0  0
   18.6561  -10.9756  -14.5727 C   0  0  0  0  0  0  0  0  0  0  0  0
   18.6369  -11.9067  -13.7299 O   0  0  0  0  0  0  0  0  0  0  0  0
   19.8492  -10.5702  -15.3560 C   0  0  0  0  0  0  0  0  0  0  0  0
   19.5914   -9.4643  -16.3358 C   0  0  0  0  0  0  0  0  0  0  0  0
   20.8028   -8.9916  -17.0905 C   0  0  2  0  0  0  0  0  0  0  0  0
   21.6499  -10.1516  -17.4453 N   0  0  0  0  0  0  0  0  0  0  0  0
   21.6514   -8.0426  -16.3237 C   0  0  0  0  0  0  0  0  0  0  0  0
   22.9027   -8.0453  -16.4367 O   0  0  0  0  0  0  0  0  0  0  0  0
   21.1034   -7.0863  -15.4268 N   0  0  0  0  0  0  0  0  0  0  0  0
   21.8280   -5.9377  -14.9468 C   0  0  1  0  0  0  0  0  0  0  0  0
   22.7103   -5.3274  -15.9757 C   0  0  0  0  0  0  0  0  0  0  0  0
   23.5268   -4.1643  -15.6137 C   0  0  0  0  0  0  0  0  0  0  0  0
   24.2819   -3.4618  -16.6310 C   0  0  0  0  0  0  0  0  0  0  0  0
   23.8523   -2.7804  -17.5854 O   0  0  0  0  0  0  0  0  0  0  0  0
   21.0454   -5.0080  -14.1230 C   0  0  0  0  0  0  0  0  0  0  0  0
   21.6663   -4.2724  -13.1380 O   0  0  0  0  0  0  0  0  0  0  0  0
   25.6979   -3.5310  -16.5724 O   0  0  0  0  0  0  0  0  0  0  0  0
   19.8213   -4.8820  -14.3066 O   0  0  0  0  0  0  0  0  0  0  0  0
  2  1  1  6
  3  2  1  0
  3  4  1  0
  4  5  2  0
  4  8  1  0
  5  6  1  0
  6  7  1  0
  8  7  2  0
  9 17  1  0
  9  2  1  0
 10  9  2  0
 12 11  1  0
 13 12  2  0
 14 12  1  0
 16 15  1  1
 15 14  1  0
 16 17  1  0
 18 20  1  0
 18 16  1  0
 19 18  2  0
 21 22  1  6
 21 20  1  0
 23 22  1  0
 24 23  1  0
 24 25  2  0
 26 21  1  0
 27 26  1  0
 28 24  1  0
 29 26  2  0
M  END
$$$$
