HQE.pdb
     RDKit          3D

 29 29  0  0  1  0  0  0  0  0999 V2000
   24.0323  -15.8381  -18.1306 N   0  0  0  0  0  0  0  0  0  0  0  0
   23.9031  -14.5378  -18.7602 C   0  0  1  0  0  0  0  0  0  0  0  0
   22.4560  -14.3353  -19.1512 C   0  0  0  0  0  0  0  0  0  0  0  0
   22.1378  -15.3272  -20.2136 C   0  0  0  0  0  0  0  0  0  0  0  0
   21.3278  -16.4356  -20.1109 C   0  0  0  0  0  0  0  0  0  0  0  0
   21.3056  -17.0725  -21.3096 N   0  0  0  0  0  0  0  0  0  0  0  0
   22.0833  -16.3830  -22.1507 C   0  0  0  0  0  0  0  0  0  0  0  0
   22.5856  -15.3244  -21.4787 N   0  0  0  0  0  0  0  0  0  0  0  0
   24.4209  -13.4813  -17.8898 C   0  0  0  0  0  0  0  0  0  0  0  0
   24.1027  -13.4800  -16.6610 O   0  0  0  0  0  0  0  0  0  0  0  0
   29.7592  -10.2374  -18.4334 N   0  0  0  0  0  0  0  0  0  0  0  0
   29.2156   -9.7109  -17.2214 C   0  0  0  0  0  0  0  0  0  0  0  0
   29.9747   -8.9762  -16.5420 O   0  0  0  0  0  0  0  0  0  0  0  0
   27.8217  -10.0577  -16.8498 C   0  0  0  0  0  0  0  0  0  0  0  0
   27.1772  -11.0612  -17.7593 C   0  0  0  0  0  0  0  0  0  0  0  0
   25.7512  -11.3976  -17.4222 C   0  0  2  0  0  0  0  0  0  0  0  0
   25.2612  -12.4527  -18.3365 N   0  0  0  0  0  0  0  0  0  0  0  0
   24.8217  -10.2440  -17.5399 C   0  0  0  0  0  0  0  0  0  0  0  0
   24.5693   -9.7178  -18.6526 O   0  0  0  0  0  0  0  0  0  0  0  0
   24.1704   -9.6740  -16.4129 N   0  0  0  0  0  0  0  0  0  0  0  0
   23.2852   -8.5405  -16.4934 C   0  0  1  0  0  0  0  0  0  0  0  0
   21.9300   -8.8132  -15.9469 C   0  0  0  0  0  0  0  0  0  0  0  0
   21.1502   -9.9251  -16.5001 C   0  0  0  0  0  0  0  0  0  0  0  0
   19.8443  -10.2377  -15.9567 C   0  0  0  0  0  0  0  0  0  0  0  0
   19.5294  -11.1557  -15.1707 O   0  0  0  0  0  0  0  0  0  0  0  0
   23.8889   -7.2526  -16.1298 C   0  0  0  0  0  0  0  0  0  0  0  0
   23.1713   -6.0878  -16.2881 O   0  0  0  0  0  0  0  0  0  0  0  0
   18.7518   -9.4184  -16.3424 O   0  0  0  0  0  0  0  0  0  0  0  0
   25.0487   -7.2054  -15.6817 O   0  0  0  0  0  0  0  0  0  0  0  0
  2  1  1  1
  3  2  1  0
  3  4  1  0
  4  5  2  0
  4  8  1  0
  5  6  1  0
  6  7  1  0
  8  7  2  0
  9 17  1  0
  9  2  1  0
 10  9  2  0
 12 11  1  0
 13 12  2  0
 14 12  1  0
 16 15  1  6
 15 14  1  0
 16 17  1  0
 18 20  1  0
 18 16  1  0
 19 18  2  0
 21 22  1  1
 21 20  1  0
 23 22  1  0
 24 23  1  0
 24 25  2  0
 26 21  1  0
 27 26  1  0
 28 24  1  0
 29 26  2  0
M  END
$$$$
