HQE.pdb
     RDKit          3D

 29 29  0  0  1  0  0  0  0  0999 V2000
   16.3671   -7.2691   -8.7075 N   0  0  0  0  0  0  0  0  0  0  0  0
   16.2672   -7.7543  -10.0708 C   0  0  1  0  0  0  0  0  0  0  0  0
   14.9317   -7.3253  -10.6366 C   0  0  0  0  0  0  0  0  0  0  0  0
   13.8807   -8.1337   -9.9617 C   0  0  0  0  0  0  0  0  0  0  0  0
   13.5078   -9.4286  -10.2440 C   0  0  0  0  0  0  0  0  0  0  0  0
   12.5119   -9.7908   -9.3956 N   0  0  0  0  0  0  0  0  0  0  0  0
   12.2608   -8.7495   -8.5954 C   0  0  0  0  0  0  0  0  0  0  0  0
   13.0954   -7.7466   -8.9445 N   0  0  0  0  0  0  0  0  0  0  0  0
   17.4067   -7.3039  -10.8712 C   0  0  0  0  0  0  0  0  0  0  0  0
   17.9564   -6.1933  -10.5958 O   0  0  0  0  0  0  0  0  0  0  0  0
   21.3638  -10.8129  -14.3302 N   0  0  0  0  0  0  0  0  0  0  0  0
   21.7290   -9.4972  -14.7513 C   0  0  0  0  0  0  0  0  0  0  0  0
   22.7265   -9.4106  -15.5096 O   0  0  0  0  0  0  0  0  0  0  0  0
   20.9265   -8.3431  -14.2767 C   0  0  0  0  0  0  0  0  0  0  0  0
   19.8329   -8.7106  -13.3184 C   0  0  0  0  0  0  0  0  0  0  0  0
   19.0981   -7.5443  -12.7182 C   0  0  2  0  0  0  0  0  0  0  0  0
   17.9383   -8.0353  -11.9418 N   0  0  0  0  0  0  0  0  0  0  0  0
   18.5803   -6.5823  -13.7258 C   0  0  0  0  0  0  0  0  0  0  0  0
   17.5487   -6.8310  -14.3984 O   0  0  0  0  0  0  0  0  0  0  0  0
   19.2148   -5.3375  -13.9851 N   0  0  0  0  0  0  0  0  0  0  0  0
   18.7807   -4.4199  -15.0070 C   0  0  1  0  0  0  0  0  0  0  0  0
   18.2471   -3.1437  -14.4626 C   0  0  0  0  0  0  0  0  0  0  0  0
   17.7759   -2.1144  -15.3947 C   0  0  0  0  0  0  0  0  0  0  0  0
   17.2390   -0.8675  -14.8892 C   0  0  0  0  0  0  0  0  0  0  0  0
   17.2275   -0.4467  -13.7134 O   0  0  0  0  0  0  0  0  0  0  0  0
   19.6744   -4.3121  -16.1669 C   0  0  0  0  0  0  0  0  0  0  0  0
   19.1505   -4.0800  -17.4192 O   0  0  0  0  0  0  0  0  0  0  0  0
   16.6387    0.0214  -15.8181 O   0  0  0  0  0  0  0  0  0  0  0  0
   20.9048   -4.4328  -16.0267 O   0  0  0  0  0  0  0  0  0  0  0  0
  2  1  1  1
  3  2  1  0
  3  4  1  0
  4  5  2  0
  4  8  1  0
  5  6  1  0
  6  7  1  0
  8  7  2  0
  9 17  1  0
  9  2  1  0
 10  9  2  0
 12 11  1  0
 13 12  2  0
 14 12  1  0
 16 15  1  6
 15 14  1  0
 16 17  1  0
 18 20  1  0
 18 16  1  0
 19 18  2  0
 21 22  1  1
 21 20  1  0
 23 22  1  0
 24 23  1  0
 24 25  2  0
 26 21  1  0
 27 26  1  0
 28 24  1  0
 29 26  2  0
M  END
$$$$
