HQE.pdb
     RDKit          3D

 29 29  0  0  1  0  0  0  0  0999 V2000
   22.3671  -11.0679  -16.0534 N   0  0  0  0  0  0  0  0  0  0  0  0
   22.8843  -10.9573  -17.4040 C   0  0  1  0  0  0  0  0  0  0  0  0
   22.9773  -12.3453  -17.9978 C   0  0  0  0  0  0  0  0  0  0  0  0
   23.8909  -13.1402  -17.1334 C   0  0  0  0  0  0  0  0  0  0  0  0
   24.9406  -12.6768  -16.3728 C   0  0  0  0  0  0  0  0  0  0  0  0
   25.5157  -13.7286  -15.7357 N   0  0  0  0  0  0  0  0  0  0  0  0
   24.8454  -14.8314  -16.0852 C   0  0  0  0  0  0  0  0  0  0  0  0
   23.8600  -14.4670  -16.9341 N   0  0  0  0  0  0  0  0  0  0  0  0
   22.0708  -10.0393  -18.2022 C   0  0  0  0  0  0  0  0  0  0  0  0
   22.4435   -9.7458  -19.3797 O   0  0  0  0  0  0  0  0  0  0  0  0
   18.9598   -7.5551  -21.6284 N   0  0  0  0  0  0  0  0  0  0  0  0
   19.3003   -8.9393  -21.7279 C   0  0  0  0  0  0  0  0  0  0  0  0
   19.5159   -9.3793  -22.8845 O   0  0  0  0  0  0  0  0  0  0  0  0
   19.3749   -9.7510  -20.4882 C   0  0  0  0  0  0  0  0  0  0  0  0
   19.0197   -8.9977  -19.2409 C   0  0  0  0  0  0  0  0  0  0  0  0
   20.1879   -8.3988  -18.5082 C   0  0  2  0  0  0  0  0  0  0  0  0
   20.8848   -9.4536  -17.7396 N   0  0  0  0  0  0  0  0  0  0  0  0
   19.8065   -7.3308  -17.5477 C   0  0  0  0  0  0  0  0  0  0  0  0
   19.3118   -7.6057  -16.4259 O   0  0  0  0  0  0  0  0  0  0  0  0
   19.9768   -5.9503  -17.8382 N   0  0  0  0  0  0  0  0  0  0  0  0
   19.7067   -4.8980  -16.8924 C   0  0  1  0  0  0  0  0  0  0  0  0
   20.1822   -5.2066  -15.5183 C   0  0  0  0  0  0  0  0  0  0  0  0
   21.5602   -4.8670  -15.1492 C   0  0  0  0  0  0  0  0  0  0  0  0
   22.0400   -5.1341  -13.8087 C   0  0  0  0  0  0  0  0  0  0  0  0
   23.0942   -5.7062  -13.4606 O   0  0  0  0  0  0  0  0  0  0  0  0
   19.9656   -3.5387  -17.3832 C   0  0  0  0  0  0  0  0  0  0  0  0
   20.6274   -3.3531  -18.5767 O   0  0  0  0  0  0  0  0  0  0  0  0
   21.2377   -4.7062  -12.7193 O   0  0  0  0  0  0  0  0  0  0  0  0
   19.5934   -2.5505  -16.7252 O   0  0  0  0  0  0  0  0  0  0  0  0
  2  1  1  1
  3  2  1  0
  3  4  1  0
  4  5  2  0
  4  8  1  0
  5  6  1  0
  6  7  1  0
  8  7  2  0
  9 17  1  0
  9  2  1  0
 10  9  2  0
 12 11  1  0
 13 12  2  0
 14 12  1  0
 16 15  1  1
 15 14  1  0
 16 17  1  0
 18 20  1  0
 18 16  1  0
 19 18  2  0
 21 22  1  1
 21 20  1  0
 23 22  1  0
 24 23  1  0
 24 25  2  0
 26 21  1  0
 27 26  1  0
 28 24  1  0
 29 26  2  0
M  END
$$$$
