RDA.pdb
     RDKit          3D

 25 24  0  0  1  0  0  0  0  0999 V2000
   16.3439  -14.0304  -16.9549 N   0  0  0  0  0  0  0  0  0  0  0  0
   15.2586  -13.2666  -17.4575 C   0  0  0  0  0  0  0  0  0  0  0  0
   14.6198  -13.7260  -18.5055 N   0  0  0  0  0  0  0  0  0  0  0  0
   14.8751  -12.0411  -16.8486 N   0  0  0  0  0  0  0  0  0  0  0  0
   15.5681  -11.5369  -15.6810 C   0  0  0  0  0  0  0  0  0  0  0  0
   16.9829  -11.1450  -15.9804 C   0  0  0  0  0  0  0  0  0  0  0  0
   17.6215  -10.5164  -14.7877 C   0  0  0  0  0  0  0  0  0  0  0  0
   19.0174  -10.0781  -15.0640 C   0  0  2  0  0  0  0  0  0  0  0  0
   19.8762  -11.2436  -15.0476 N   0  0  0  0  0  0  0  0  0  0  0  0
   19.5162   -9.1458  -13.9985 C   0  0  0  0  0  0  0  0  0  0  0  0
   19.8029   -9.5912  -12.8628 O   0  0  0  0  0  0  0  0  0  0  0  0
   13.7764  -13.2388  -18.8780 N   0  0  0  0  0  0  0  0  0  0  0  0
   19.6768   -7.7593  -14.2317 C   0  0  1  0  0  0  0  0  0  0  0  0
   20.1797   -6.8272  -13.2544 C   0  0  0  0  0  0  0  0  0  0  0  0
   21.0835   -5.8335  -13.9872 C   0  0  0  0  0  0  0  0  0  0  0  0
   21.6549   -4.8797  -13.0062 O   0  0  0  0  0  0  0  0  0  0  0  0
   21.8618   -5.2855  -11.8305 C   0  0  0  0  0  0  0  0  0  0  0  0
   19.0596   -6.1282  -12.5950 O   0  0  0  0  0  0  0  0  0  0  0  0
   18.1623   -5.5152  -13.2692 O   0  0  0  0  0  0  0  0  0  0  0  0
   21.9787   -3.5569  -13.3009 C   0  0  0  0  0  0  0  0  0  0  0  0
   17.7377   -5.7642   -9.0840 C   0  0  1  0  0  0  0  0  0  0  0  0
   17.7090   -5.5108  -10.5910 N   0  0  0  0  0  0  0  0  0  0  0  0
   18.9097   -6.0932  -11.1840 C   0  0  0  0  0  0  0  0  0  0  0  0
   17.7474   -4.0455  -10.7927 O   0  0  0  0  0  0  0  0  0  0  0  0
   16.7141   -3.2129  -10.3663 O   0  0  0  0  0  0  0  0  0  0  0  0
  2  3  2  0
  2  1  1  0
  4  2  1  0
  5  4  1  0
  6  5  1  0
  7  6  1  0
  8  7  1  0
  8 10  1  0
  8  9  1  1
 10 12  1  0
 11 10  2  0
 12 13  1  0
 13 14  1  6
 14 15  1  0
 15 19  1  0
 16 15  2  0
 17 13  1  0
 17 18  2  0
 21 20  1  6
 21 22  1  0
 21 23  1  0
 22 17  1  0
 23 25  2  0
 23 24  1  0
M  END
$$$$
