RDA.pdb
     RDKit          3D

 25 24  0  0  1  0  0  0  0  0999 V2000
   20.4629  -19.0364   -9.7328 N   0  0  0  0  0  0  0  0  0  0  0  0
   20.1753  -20.3710  -10.1200 C   0  0  0  0  0  0  0  0  0  0  0  0
   19.0133  -20.6105  -10.6766 N   0  0  0  0  0  0  0  0  0  0  0  0
   21.1134  -21.4178   -9.9102 N   0  0  0  0  0  0  0  0  0  0  0  0
   22.4611  -21.1357   -9.4611 C   0  0  0  0  0  0  0  0  0  0  0  0
   23.2328  -20.3142  -10.4485 C   0  0  0  0  0  0  0  0  0  0  0  0
   24.6894  -20.3309  -10.1268 C   0  0  0  0  0  0  0  0  0  0  0  0
   25.5005  -20.9212  -11.2270 C   0  0  2  0  0  0  0  0  0  0  0  0
   26.8923  -20.9103  -10.8280 N   0  0  0  0  0  0  0  0  0  0  0  0
   25.3934  -20.1035  -12.4813 C   0  0  0  0  0  0  0  0  0  0  0  0
   25.9195  -18.9674  -12.5333 O   0  0  0  0  0  0  0  0  0  0  0  0
   18.7620  -21.5668  -11.0079 N   0  0  0  0  0  0  0  0  0  0  0  0
   24.7083  -20.5748  -13.6264 C   0  0  2  0  0  0  0  0  0  0  0  0
   24.5130  -19.8028  -14.8274 C   0  0  0  0  0  0  0  0  0  0  0  0
   25.2691  -20.5067  -15.9562 C   0  0  0  0  0  0  0  0  0  0  0  0
   25.1728  -19.6903  -17.1902 O   0  0  0  0  0  0  0  0  0  0  0  0
   24.1060  -19.7451  -17.8601 C   0  0  0  0  0  0  0  0  0  0  0  0
   23.0743  -19.7065  -15.1417 O   0  0  0  0  0  0  0  0  0  0  0  0
   22.2878  -20.7041  -14.9939 O   0  0  0  0  0  0  0  0  0  0  0  0
   26.1907  -18.8631  -17.6605 C   0  0  0  0  0  0  0  0  0  0  0  0
   20.3302  -17.7971  -14.7483 C   0  0  1  0  0  0  0  0  0  0  0  0
   21.0488  -18.4736  -15.9154 N   0  0  0  0  0  0  0  0  0  0  0  0
   22.4790  -18.5112  -15.6229 C   0  0  0  0  0  0  0  0  0  0  0  0
   20.8351  -17.6310  -17.1129 O   0  0  0  0  0  0  0  0  0  0  0  0
   19.6084  -17.5810  -17.7727 O   0  0  0  0  0  0  0  0  0  0  0  0
  2  3  2  0
  2  1  1  0
  4  2  1  0
  5  4  1  0
  6  5  1  0
  7  6  1  0
  8  7  1  0
  8 10  1  0
  8  9  1  1
 10 12  1  0
 11 10  2  0
 12 13  1  0
 13 14  1  6
 14 15  1  0
 15 19  1  0
 16 15  2  0
 17 13  1  0
 17 18  2  0
 21 20  1  1
 21 22  1  0
 21 23  1  0
 22 17  1  0
 23 25  2  0
 23 24  1  0
M  END
$$$$
