RDA.pdb
     RDKit          3D

 25 24  0  0  1  0  0  0  0  0999 V2000
   31.6444  -21.6556  -11.5133 N   0  0  0  0  0  0  0  0  0  0  0  0
   31.3416  -22.1567  -10.2206 C   0  0  0  0  0  0  0  0  0  0  0  0
   32.3310  -22.6171   -9.4949 N   0  0  0  0  0  0  0  0  0  0  0  0
   30.0092  -22.1636   -9.7261 N   0  0  0  0  0  0  0  0  0  0  0  0
   28.8903  -21.8397  -10.5866 C   0  0  0  0  0  0  0  0  0  0  0  0
   27.5774  -21.9067   -9.8674 C   0  0  0  0  0  0  0  0  0  0  0  0
   26.4464  -21.6500  -10.8057 C   0  0  0  0  0  0  0  0  0  0  0  0
   25.8811  -20.2823  -10.6426 C   0  0  2  0  0  0  0  0  0  0  0  0
   25.2953  -20.1822   -9.3223 N   0  0  0  0  0  0  0  0  0  0  0  0
   24.7840  -20.0249  -11.6342 C   0  0  0  0  0  0  0  0  0  0  0  0
   23.5860  -20.1183  -11.2788 O   0  0  0  0  0  0  0  0  0  0  0  0
   32.1696  -22.9708   -8.5273 N   0  0  0  0  0  0  0  0  0  0  0  0
   25.0561  -19.6757  -12.9784 C   0  0  2  0  0  0  0  0  0  0  0  0
   24.0415  -19.4122  -13.9673 C   0  0  0  0  0  0  0  0  0  0  0  0
   24.7498  -18.9538  -15.2438 C   0  0  0  0  0  0  0  0  0  0  0  0
   23.7346  -18.5458  -16.2445 O   0  0  0  0  0  0  0  0  0  0  0  0
   22.5165  -18.6701  -15.9434 C   0  0  0  0  0  0  0  0  0  0  0  0
   23.2474  -20.6307  -14.2181 O   0  0  0  0  0  0  0  0  0  0  0  0
   23.7886  -21.7890  -14.2480 O   0  0  0  0  0  0  0  0  0  0  0  0
   24.0411  -18.0322  -17.5030 C   0  0  0  0  0  0  0  0  0  0  0  0
   21.6428  -22.7675  -13.3797 C   0  0  2  0  0  0  0  0  0  0  0  0
   21.0738  -21.8326  -14.4467 N   0  0  0  0  0  0  0  0  0  0  0  0
   21.8460  -20.5931  -14.4395 C   0  0  0  0  0  0  0  0  0  0  0  0
   19.6795  -21.5210  -14.0620 O   0  0  0  0  0  0  0  0  0  0  0  0
   18.6868  -22.4988  -14.0232 O   0  0  0  0  0  0  0  0  0  0  0  0
  2  3  2  0
  2  1  1  0
  4  2  1  0
  5  4  1  0
  6  5  1  0
  7  6  1  0
  8  7  1  0
  8 10  1  0
  8  9  1  1
 10 12  1  0
 11 10  2  0
 12 13  1  0
 13 14  1  6
 14 15  1  0
 15 19  1  0
 16 15  2  0
 17 13  1  0
 17 18  2  0
 21 20  1  6
 21 22  1  0
 21 23  1  0
 22 17  1  0
 23 25  2  0
 23 24  1  0
M  END
$$$$
