RDA.pdb
     RDKit          3D

 25 24  0  0  1  0  0  0  0  0999 V2000
   23.0185  -26.5258  -13.1676 N   0  0  0  0  0  0  0  0  0  0  0  0
   22.2856  -25.4762  -13.7799 C   0  0  0  0  0  0  0  0  0  0  0  0
   21.2082  -25.0451  -13.1710 N   0  0  0  0  0  0  0  0  0  0  0  0
   22.7015  -24.9097  -15.0152 N   0  0  0  0  0  0  0  0  0  0  0  0
   23.8714  -25.4064  -15.7097 C   0  0  0  0  0  0  0  0  0  0  0  0
   25.0291  -24.4585  -15.6303 C   0  0  0  0  0  0  0  0  0  0  0  0
   24.7119  -23.1766  -16.3243 C   0  0  0  0  0  0  0  0  0  0  0  0
   25.3549  -22.0070  -15.6642 C   0  0  2  0  0  0  0  0  0  0  0  0
   26.0798  -22.4768  -14.5024 N   0  0  0  0  0  0  0  0  0  0  0  0
   24.3293  -21.0244  -15.1783 C   0  0  0  0  0  0  0  0  0  0  0  0
   23.8289  -21.1565  -14.0371 O   0  0  0  0  0  0  0  0  0  0  0  0
   20.6130  -24.3002  -13.5931 N   0  0  0  0  0  0  0  0  0  0  0  0
   23.8981  -19.9366  -15.9744 C   0  0  1  0  0  0  0  0  0  0  0  0
   22.9829  -18.9181  -15.5254 C   0  0  0  0  0  0  0  0  0  0  0  0
   23.0587  -17.7586  -16.5210 C   0  0  0  0  0  0  0  0  0  0  0  0
   22.2153  -16.6412  -16.0326 O   0  0  0  0  0  0  0  0  0  0  0  0
   21.6620  -16.7597  -14.9058 C   0  0  0  0  0  0  0  0  0  0  0  0
   21.6121  -19.4606  -15.4572 O   0  0  0  0  0  0  0  0  0  0  0  0
   21.1662  -20.2684  -16.3427 O   0  0  0  0  0  0  0  0  0  0  0  0
   21.9925  -15.4630  -16.7424 C   0  0  0  0  0  0  0  0  0  0  0  0
   19.3809  -20.9115  -13.4530 C   0  0  1  0  0  0  0  0  0  0  0  0
   19.3714  -19.7029  -14.3885 N   0  0  0  0  0  0  0  0  0  0  0  0
   20.7113  -19.1228  -14.4136 C   0  0  0  0  0  0  0  0  0  0  0  0
   18.4383  -18.7082  -13.8146 O   0  0  0  0  0  0  0  0  0  0  0  0
   17.0569  -18.8932  -13.8331 O   0  0  0  0  0  0  0  0  0  0  0  0
  2  3  2  0
  2  1  1  0
  4  2  1  0
  5  4  1  0
  6  5  1  0
  7  6  1  0
  8  7  1  0
  8 10  1  0
  8  9  1  1
 10 12  1  0
 11 10  2  0
 12 13  1  0
 13 14  1  6
 14 15  1  0
 15 19  1  0
 16 15  2  0
 17 13  1  0
 17 18  2  0
 21 20  1  6
 21 22  1  0
 21 23  1  0
 22 17  1  0
 23 25  2  0
 23 24  1  0
M  END
$$$$
