RDA.pdb
     RDKit          3D

 25 24  0  0  1  0  0  0  0  0999 V2000
   29.5039  -21.1482  -13.2142 N   0  0  0  0  0  0  0  0  0  0  0  0
   28.5811  -20.0874  -13.4066 C   0  0  0  0  0  0  0  0  0  0  0  0
   28.5878  -19.4721  -14.5637 N   0  0  0  0  0  0  0  0  0  0  0  0
   27.6789  -19.6995  -12.3793 N   0  0  0  0  0  0  0  0  0  0  0  0
   27.4519  -20.5442  -11.2250 C   0  0  0  0  0  0  0  0  0  0  0  0
   26.4050  -21.5864  -11.4758 C   0  0  0  0  0  0  0  0  0  0  0  0
   25.1220  -20.9557  -11.9019 C   0  0  0  0  0  0  0  0  0  0  0  0
   24.0620  -21.9661  -12.1711 C   0  0  2  0  0  0  0  0  0  0  0  0
   24.4764  -22.7775  -13.2964 N   0  0  0  0  0  0  0  0  0  0  0  0
   22.7675  -21.3087  -12.5525 C   0  0  0  0  0  0  0  0  0  0  0  0
   22.1586  -20.5977  -11.7195 O   0  0  0  0  0  0  0  0  0  0  0  0
   27.9064  -18.7109  -14.7725 N   0  0  0  0  0  0  0  0  0  0  0  0
   22.1988  -21.4649  -13.8390 C   0  0  1  0  0  0  0  0  0  0  0  0
   20.9357  -20.8985  -14.2395 C   0  0  0  0  0  0  0  0  0  0  0  0
   21.1077  -20.3424  -15.6546 C   0  0  0  0  0  0  0  0  0  0  0  0
   21.7976  -19.0319  -15.5824 O   0  0  0  0  0  0  0  0  0  0  0  0
   22.8795  -18.8916  -16.2145 C   0  0  0  0  0  0  0  0  0  0  0  0
   19.8822  -21.9316  -14.2076 O   0  0  0  0  0  0  0  0  0  0  0  0
   20.1526  -23.1699  -14.3772 O   0  0  0  0  0  0  0  0  0  0  0  0
   21.3257  -17.9400  -14.8566 C   0  0  0  0  0  0  0  0  0  0  0  0
   17.8138  -23.4638  -12.5769 C   0  0  1  0  0  0  0  0  0  0  0  0
   17.5307  -22.6890  -13.8636 N   0  0  0  0  0  0  0  0  0  0  0  0
   18.5154  -21.6178  -13.9884 C   0  0  0  0  0  0  0  0  0  0  0  0
   16.1887  -22.0811  -13.7263 O   0  0  0  0  0  0  0  0  0  0  0  0
   15.0205  -22.8147  -13.9265 O   0  0  0  0  0  0  0  0  0  0  0  0
  2  3  2  0
  2  1  1  0
  4  2  1  0
  5  4  1  0
  6  5  1  0
  7  6  1  0
  8  7  1  0
  8 10  1  0
  8  9  1  6
 10 12  1  0
 11 10  2  0
 12 13  1  0
 13 14  1  1
 14 15  1  0
 15 19  1  0
 16 15  2  0
 17 13  1  0
 17 18  2  0
 21 20  1  6
 21 22  1  0
 21 23  1  0
 22 17  1  0
 23 25  2  0
 23 24  1  0
M  END
$$$$
