RDA.pdb
     RDKit          3D

 25 24  0  0  1  0  0  0  0  0999 V2000
   12.0069  -11.4983   -9.9804 N   0  0  0  0  0  0  0  0  0  0  0  0
   12.0676  -11.8362  -11.3573 C   0  0  0  0  0  0  0  0  0  0  0  0
   10.9411  -11.8923  -12.0245 N   0  0  0  0  0  0  0  0  0  0  0  0
   13.3079  -12.1086  -11.9955 N   0  0  0  0  0  0  0  0  0  0  0  0
   14.2539  -11.0483  -12.2754 C   0  0  0  0  0  0  0  0  0  0  0  0
   14.3627  -10.0665  -11.1488 C   0  0  0  0  0  0  0  0  0  0  0  0
   15.2926   -8.9552  -11.5033 C   0  0  0  0  0  0  0  0  0  0  0  0
   16.6707   -9.4442  -11.7836 C   0  0  2  0  0  0  0  0  0  0  0  0
   17.2223   -9.9882  -10.5604 N   0  0  0  0  0  0  0  0  0  0  0  0
   17.5698   -8.3216  -12.2135 C   0  0  0  0  0  0  0  0  0  0  0  0
   17.9589   -7.4764  -11.3742 O   0  0  0  0  0  0  0  0  0  0  0  0
   10.9285  -12.1256  -13.0408 N   0  0  0  0  0  0  0  0  0  0  0  0
   18.0010   -8.1788  -13.5538 C   0  0  2  0  0  0  0  0  0  0  0  0
   18.8135   -7.0884  -14.0306 C   0  0  0  0  0  0  0  0  0  0  0  0
   19.8482   -7.6717  -14.9951 C   0  0  0  0  0  0  0  0  0  0  0  0
   20.9753   -8.2386  -14.2161 O   0  0  0  0  0  0  0  0  0  0  0  0
   21.1582   -7.8202  -13.0408 C   0  0  0  0  0  0  0  0  0  0  0  0
   17.9706   -6.0858  -14.7108 O   0  0  0  0  0  0  0  0  0  0  0  0
   17.1991   -6.4051  -15.6794 O   0  0  0  0  0  0  0  0  0  0  0  0
   21.8505   -9.2080  -14.7016 C   0  0  0  0  0  0  0  0  0  0  0  0
   16.2243   -3.0330  -14.1596 C   0  0  2  0  0  0  0  0  0  0  0  0
   17.1850   -3.7518  -15.1064 N   0  0  0  0  0  0  0  0  0  0  0  0
   17.9636   -4.7171  -14.3353 C   0  0  0  0  0  0  0  0  0  0  0  0
   18.1077   -2.7335  -15.6552 O   0  0  0  0  0  0  0  0  0  0  0  0
   17.6579   -1.6770  -16.4451 O   0  0  0  0  0  0  0  0  0  0  0  0
  2  3  2  0
  2  1  1  0
  4  2  1  0
  5  4  1  0
  6  5  1  0
  7  6  1  0
  8  7  1  0
  8 10  1  0
  8  9  1  1
 10 12  1  0
 11 10  2  0
 12 13  1  0
 13 14  1  1
 14 15  1  0
 15 19  1  0
 16 15  2  0
 17 13  1  0
 17 18  2  0
 21 20  1  6
 21 22  1  0
 21 23  1  0
 22 17  1  0
 23 25  2  0
 23 24  1  0
M  END
$$$$
