RDA.pdb
     RDKit          3D

 25 24  0  0  1  0  0  0  0  0999 V2000
   27.8210  -23.3109  -19.6376 N   0  0  0  0  0  0  0  0  0  0  0  0
   28.1282  -24.6810  -19.8432 C   0  0  0  0  0  0  0  0  0  0  0  0
   28.8419  -24.9974  -20.8958 N   0  0  0  0  0  0  0  0  0  0  0  0
   27.6762  -25.6814  -18.9406 N   0  0  0  0  0  0  0  0  0  0  0  0
   26.6558  -25.3930  -17.9542 C   0  0  0  0  0  0  0  0  0  0  0  0
   27.2240  -25.2104  -16.5798 C   0  0  0  0  0  0  0  0  0  0  0  0
   26.1472  -24.8797  -15.6017 C   0  0  0  0  0  0  0  0  0  0  0  0
   25.5331  -23.5503  -15.8712 C   0  0  2  0  0  0  0  0  0  0  0  0
   26.5936  -22.5746  -16.0106 N   0  0  0  0  0  0  0  0  0  0  0  0
   24.6712  -23.1065  -14.7251 C   0  0  0  0  0  0  0  0  0  0  0  0
   23.7052  -23.8155  -14.3587 O   0  0  0  0  0  0  0  0  0  0  0  0
   29.1319  -25.9832  -21.0730 N   0  0  0  0  0  0  0  0  0  0  0  0
   24.9120  -21.8966  -14.0317 C   0  0  1  0  0  0  0  0  0  0  0  0
   24.0463  -21.3630  -13.0106 C   0  0  0  0  0  0  0  0  0  0  0  0
   24.9325  -20.6926  -11.9587 C   0  0  0  0  0  0  0  0  0  0  0  0
   24.5138  -21.1439  -10.6098 O   0  0  0  0  0  0  0  0  0  0  0  0
   23.4618  -21.8317  -10.5107 C   0  0  0  0  0  0  0  0  0  0  0  0
   23.1053  -20.3902  -13.5992 O   0  0  0  0  0  0  0  0  0  0  0  0
   23.4654  -19.5859  -14.5259 O   0  0  0  0  0  0  0  0  0  0  0  0
   25.2107  -20.8544   -9.4384 C   0  0  0  0  0  0  0  0  0  0  0  0
   21.3200  -19.7267  -15.4987 C   0  0  2  0  0  0  0  0  0  0  0  0
   20.7448  -19.7454  -14.0827 N   0  0  0  0  0  0  0  0  0  0  0  0
   21.7540  -20.2879  -13.1773 C   0  0  0  0  0  0  0  0  0  0  0  0
   19.5805  -20.6584  -14.0915 O   0  0  0  0  0  0  0  0  0  0  0  0
   18.4239  -20.3750  -14.8157 O   0  0  0  0  0  0  0  0  0  0  0  0
  2  3  2  0
  2  1  1  0
  4  2  1  0
  5  4  1  0
  6  5  1  0
  7  6  1  0
  8  7  1  0
  8 10  1  0
  8  9  1  1
 10 12  1  0
 11 10  2  0
 12 13  1  0
 13 14  1  6
 14 15  1  0
 15 19  1  0
 16 15  2  0
 17 13  1  0
 17 18  2  0
 21 20  1  1
 21 22  1  0
 21 23  1  0
 22 17  1  0
 23 25  2  0
 23 24  1  0
M  END
$$$$
