RDA.pdb
     RDKit          3D

 25 24  0  0  1  0  0  0  0  0999 V2000
   24.3244  -21.1915  -10.9409 N   0  0  0  0  0  0  0  0  0  0  0  0
   25.4736  -20.5039  -10.4715 C   0  0  0  0  0  0  0  0  0  0  0  0
   25.3679  -19.8253   -9.3554 N   0  0  0  0  0  0  0  0  0  0  0  0
   26.7008  -20.5451  -11.1870 N   0  0  0  0  0  0  0  0  0  0  0  0
   26.7391  -20.9193  -12.5855 C   0  0  0  0  0  0  0  0  0  0  0  0
   27.3996  -19.8791  -13.4382 C   0  0  0  0  0  0  0  0  0  0  0  0
   26.6236  -19.6517  -14.6918 C   0  0  0  0  0  0  0  0  0  0  0  0
   26.0193  -20.9085  -15.2136 C   0  0  2  0  0  0  0  0  0  0  0  0
   26.8919  -21.4476  -16.2354 N   0  0  0  0  0  0  0  0  0  0  0  0
   24.6903  -20.6458  -15.8603 C   0  0  0  0  0  0  0  0  0  0  0  0
   24.6420  -20.2038  -17.0318 O   0  0  0  0  0  0  0  0  0  0  0  0
   26.1768  -19.2902   -8.9721 N   0  0  0  0  0  0  0  0  0  0  0  0
   23.4691  -20.8815  -15.1850 C   0  0  2  0  0  0  0  0  0  0  0  0
   22.1707  -20.7791  -15.8015 C   0  0  0  0  0  0  0  0  0  0  0  0
   21.2280  -21.7219  -15.0506 C   0  0  0  0  0  0  0  0  0  0  0  0
   21.5151  -23.1199  -15.4527 O   0  0  0  0  0  0  0  0  0  0  0  0
   21.2599  -24.0415  -14.6309 C   0  0  0  0  0  0  0  0  0  0  0  0
   21.6834  -19.3877  -15.7327 O   0  0  0  0  0  0  0  0  0  0  0  0
   21.7093  -18.7218  -14.6413 O   0  0  0  0  0  0  0  0  0  0  0  0
   22.0524  -23.4829  -16.6860 C   0  0  0  0  0  0  0  0  0  0  0  0
   20.5551  -16.7395  -18.1486 C   0  0  1  0  0  0  0  0  0  0  0  0
   20.7243  -17.3195  -16.7446 N   0  0  0  0  0  0  0  0  0  0  0  0
   21.1606  -18.7080  -16.8638 C   0  0  0  0  0  0  0  0  0  0  0  0
   19.3949  -17.2978  -16.0953 O   0  0  0  0  0  0  0  0  0  0  0  0
   18.9232  -16.1776  -15.4130 O   0  0  0  0  0  0  0  0  0  0  0  0
  2  3  2  0
  2  1  1  0
  4  2  1  0
  5  4  1  0
  6  5  1  0
  7  6  1  0
  8  7  1  0
  8 10  1  0
  8  9  1  6
 10 12  1  0
 11 10  2  0
 12 13  1  0
 13 14  1  6
 14 15  1  0
 15 19  1  0
 16 15  2  0
 17 13  1  0
 17 18  2  0
 21 20  1  1
 21 22  1  0
 21 23  1  0
 22 17  1  0
 23 25  2  0
 23 24  1  0
M  END
$$$$
