RDA.pdb
     RDKit          3D

 25 24  0  0  1  0  0  0  0  0999 V2000
   26.9696  -21.0634  -10.1159 N   0  0  0  0  0  0  0  0  0  0  0  0
   26.4130  -20.7456  -11.3820 C   0  0  0  0  0  0  0  0  0  0  0  0
   27.0561  -21.1455  -12.4516 N   0  0  0  0  0  0  0  0  0  0  0  0
   25.1989  -20.0149  -11.4912 N   0  0  0  0  0  0  0  0  0  0  0  0
   23.9162  -20.6865  -11.4580 C   0  0  0  0  0  0  0  0  0  0  0  0
   23.6418  -21.4580  -12.7129 C   0  0  0  0  0  0  0  0  0  0  0  0
   22.5662  -20.8028  -13.5124 C   0  0  0  0  0  0  0  0  0  0  0  0
   21.5306  -21.7735  -13.9620 C   0  0  2  0  0  0  0  0  0  0  0  0
   22.1939  -22.9881  -14.3873 N   0  0  0  0  0  0  0  0  0  0  0  0
   20.7688  -21.2482  -15.1440 C   0  0  0  0  0  0  0  0  0  0  0  0
   21.2444  -21.3675  -16.2971 O   0  0  0  0  0  0  0  0  0  0  0  0
   27.9328  -21.7048  -12.3748 N   0  0  0  0  0  0  0  0  0  0  0  0
   19.5127  -20.6116  -15.0026 C   0  0  2  0  0  0  0  0  0  0  0  0
   18.7586  -20.0573  -16.0984 C   0  0  0  0  0  0  0  0  0  0  0  0
   17.4073  -19.6010  -15.5442 C   0  0  0  0  0  0  0  0  0  0  0  0
   16.6148  -20.7912  -15.1519 O   0  0  0  0  0  0  0  0  0  0  0  0
   15.6955  -20.6422  -14.3019 C   0  0  0  0  0  0  0  0  0  0  0  0
   19.4893  -18.9227  -16.6959 O   0  0  0  0  0  0  0  0  0  0  0  0
   19.8695  -17.9251  -15.9918 O   0  0  0  0  0  0  0  0  0  0  0  0
   16.8219  -22.0706  -15.6638 C   0  0  0  0  0  0  0  0  0  0  0  0
   21.8806  -18.1931  -19.1539 C   0  0  2  0  0  0  0  0  0  0  0  0
   20.5322  -17.7171  -18.6143 N   0  0  0  0  0  0  0  0  0  0  0  0
   19.8129  -18.8687  -18.0768 C   0  0  0  0  0  0  0  0  0  0  0  0
   19.7658  -17.1752  -19.7581 O   0  0  0  0  0  0  0  0  0  0  0  0
   18.5834  -17.7648  -20.2019 O   0  0  0  0  0  0  0  0  0  0  0  0
  2  3  2  0
  2  1  1  0
  4  2  1  0
  5  4  1  0
  6  5  1  0
  7  6  1  0
  8  7  1  0
  8 10  1  0
  8  9  1  6
 10 12  1  0
 11 10  2  0
 12 13  1  0
 13 14  1  6
 14 15  1  0
 15 19  1  0
 16 15  2  0
 17 13  1  0
 17 18  2  0
 21 20  1  1
 21 22  1  0
 21 23  1  0
 22 17  1  0
 23 25  2  0
 23 24  1  0
M  END
$$$$
