RDA.pdb
     RDKit          3D

 25 24  0  0  1  0  0  0  0  0999 V2000
   14.2325  -14.2674  -15.4315 N   0  0  0  0  0  0  0  0  0  0  0  0
   13.7144  -13.0250  -14.9823 C   0  0  0  0  0  0  0  0  0  0  0  0
   12.7710  -13.0475  -14.0729 N   0  0  0  0  0  0  0  0  0  0  0  0
   14.1983  -11.7936  -15.5012 N   0  0  0  0  0  0  0  0  0  0  0  0
   15.4570  -11.7254  -16.2142 C   0  0  0  0  0  0  0  0  0  0  0  0
   16.6043  -11.3730  -15.3172 C   0  0  0  0  0  0  0  0  0  0  0  0
   16.9987   -9.9457  -15.4984 C   0  0  0  0  0  0  0  0  0  0  0  0
   18.4765   -9.7758  -15.5641 C   0  0  2  0  0  0  0  0  0  0  0  0
   19.0840  -11.0842  -15.6872 N   0  0  0  0  0  0  0  0  0  0  0  0
   19.0097   -9.1570  -14.3047 C   0  0  0  0  0  0  0  0  0  0  0  0
   19.1703   -9.8623  -13.2815 O   0  0  0  0  0  0  0  0  0  0  0  0
   12.3185  -12.1672  -13.7449 N   0  0  0  0  0  0  0  0  0  0  0  0
   19.3428   -7.7837  -14.2278 C   0  0  2  0  0  0  0  0  0  0  0  0
   19.9877   -7.1697  -13.0948 C   0  0  0  0  0  0  0  0  0  0  0  0
   20.8129   -5.9915  -13.6164 C   0  0  0  0  0  0  0  0  0  0  0  0
   21.5869   -5.4048  -12.4960 O   0  0  0  0  0  0  0  0  0  0  0  0
   21.8557   -4.1737  -12.5368 C   0  0  0  0  0  0  0  0  0  0  0  0
   18.9774   -6.7110  -12.1217 O   0  0  0  0  0  0  0  0  0  0  0  0
   17.9743   -6.0034  -12.4803 O   0  0  0  0  0  0  0  0  0  0  0  0
   22.0396   -6.1301  -11.3957 C   0  0  0  0  0  0  0  0  0  0  0  0
   18.0832   -4.9292   -9.9917 C   0  0  2  0  0  0  0  0  0  0  0  0
   18.0942   -6.4460   -9.8040 N   0  0  0  0  0  0  0  0  0  0  0  0
   19.0553   -7.0239  -10.7394 C   0  0  0  0  0  0  0  0  0  0  0  0
   16.7440   -6.9430  -10.1492 O   0  0  0  0  0  0  0  0  0  0  0  0
   15.6138   -6.5826   -9.4174 O   0  0  0  0  0  0  0  0  0  0  0  0
  2  3  2  0
  2  1  1  0
  4  2  1  0
  5  4  1  0
  6  5  1  0
  7  6  1  0
  8  7  1  0
  8 10  1  0
  8  9  1  1
 10 12  1  0
 11 10  2  0
 12 13  1  0
 13 14  1  6
 14 15  1  0
 15 19  1  0
 16 15  2  0
 17 13  1  0
 17 18  2  0
 21 20  1  1
 21 22  1  0
 21 23  1  0
 22 17  1  0
 23 25  2  0
 23 24  1  0
M  END
$$$$
