RDA.pdb
     RDKit          3D

 25 24  0  0  1  0  0  0  0  0999 V2000
   13.8781   -7.2174   -7.3607 N   0  0  0  0  0  0  0  0  0  0  0  0
   13.0177   -8.2402   -7.8375 C   0  0  0  0  0  0  0  0  0  0  0  0
   11.9988   -8.5825   -7.0877 N   0  0  0  0  0  0  0  0  0  0  0  0
   13.2514   -8.8775   -9.0862 N   0  0  0  0  0  0  0  0  0  0  0  0
   14.3486   -8.4711   -9.9397 C   0  0  0  0  0  0  0  0  0  0  0  0
   14.3763   -9.2255  -11.2340 C   0  0  0  0  0  0  0  0  0  0  0  0
   15.7603   -9.2743  -11.7885 C   0  0  0  0  0  0  0  0  0  0  0  0
   15.7826   -9.7419  -13.2019 C   0  0  2  0  0  0  0  0  0  0  0  0
   15.7032  -11.1876  -13.2084 N   0  0  0  0  0  0  0  0  0  0  0  0
   17.0685   -9.3664  -13.8793 C   0  0  0  0  0  0  0  0  0  0  0  0
   18.0907  -10.0723  -13.7149 O   0  0  0  0  0  0  0  0  0  0  0  0
   11.2921   -9.2724   -7.4223 N   0  0  0  0  0  0  0  0  0  0  0  0
   17.1719   -8.2253  -14.7100 C   0  0  2  0  0  0  0  0  0  0  0  0
   18.3860   -7.8085  -15.3649 C   0  0  0  0  0  0  0  0  0  0  0  0
   17.9897   -6.9527  -16.5698 C   0  0  0  0  0  0  0  0  0  0  0  0
   19.2084   -6.5936  -17.3342 O   0  0  0  0  0  0  0  0  0  0  0  0
   20.1107   -7.4648  -17.4621 C   0  0  0  0  0  0  0  0  0  0  0  0
   19.2291   -7.0380  -14.4302 O   0  0  0  0  0  0  0  0  0  0  0  0
   18.7340   -6.1411  -13.6648 O   0  0  0  0  0  0  0  0  0  0  0  0
   19.4225   -5.3487  -17.9225 C   0  0  0  0  0  0  0  0  0  0  0  0
   22.6707   -7.3415  -13.0134 C   0  0  1  0  0  0  0  0  0  0  0  0
   21.3925   -6.5500  -13.2888 N   0  0  0  0  0  0  0  0  0  0  0  0
   20.6295   -7.2428  -14.3234 C   0  0  0  0  0  0  0  0  0  0  0  0
   21.7975   -5.2256  -13.8097 O   0  0  0  0  0  0  0  0  0  0  0  0
   21.5552   -4.8437  -15.1281 O   0  0  0  0  0  0  0  0  0  0  0  0
  2  3  2  0
  2  1  1  0
  4  2  1  0
  5  4  1  0
  6  5  1  0
  7  6  1  0
  8  7  1  0
  8 10  1  0
  8  9  1  1
 10 12  1  0
 11 10  2  0
 12 13  1  0
 13 14  1  6
 14 15  1  0
 15 19  1  0
 16 15  2  0
 17 13  1  0
 17 18  2  0
 21 20  1  1
 21 22  1  0
 21 23  1  0
 22 17  1  0
 23 25  2  0
 23 24  1  0
M  END
$$$$
