RDA.pdb
     RDKit          3D

 25 24  0  0  1  0  0  0  0  0999 V2000
   30.6907  -23.6460  -15.8652 N   0  0  0  0  0  0  0  0  0  0  0  0
   30.7329  -24.9539  -16.4142 C   0  0  0  0  0  0  0  0  0  0  0  0
   31.7664  -25.7063  -16.1256 N   0  0  0  0  0  0  0  0  0  0  0  0
   29.6913  -25.4354  -17.2527 N   0  0  0  0  0  0  0  0  0  0  0  0
   28.5145  -24.6343  -17.5188 C   0  0  0  0  0  0  0  0  0  0  0  0
   28.4991  -24.0860  -18.9132 C   0  0  0  0  0  0  0  0  0  0  0  0
   27.3234  -23.1905  -19.1167 C   0  0  0  0  0  0  0  0  0  0  0  0
   26.9061  -22.5169  -17.8561 C   0  0  2  0  0  0  0  0  0  0  0  0
   26.4965  -23.5311  -16.9076 N   0  0  0  0  0  0  0  0  0  0  0  0
   25.7237  -21.6205  -18.0837 C   0  0  0  0  0  0  0  0  0  0  0  0
   25.6524  -20.9335  -19.1292 O   0  0  0  0  0  0  0  0  0  0  0  0
   31.8276  -26.6901  -16.4657 N   0  0  0  0  0  0  0  0  0  0  0  0
   24.6689  -21.5195  -17.1456 C   0  0  1  0  0  0  0  0  0  0  0  0
   23.4717  -20.7451  -17.3544 C   0  0  0  0  0  0  0  0  0  0  0  0
   22.6906  -20.7397  -16.0386 C   0  0  0  0  0  0  0  0  0  0  0  0
   21.2379  -20.7649  -16.3343 O   0  0  0  0  0  0  0  0  0  0  0  0
   20.7916  -19.9658  -17.2014 C   0  0  0  0  0  0  0  0  0  0  0  0
   23.8202  -19.3701  -17.7618 O   0  0  0  0  0  0  0  0  0  0  0  0
   24.5625  -18.6238  -17.0356 O   0  0  0  0  0  0  0  0  0  0  0  0
   20.3292  -21.6184  -15.7119 C   0  0  0  0  0  0  0  0  0  0  0  0
   24.4222  -17.4062  -20.6561 C   0  0  1  0  0  0  0  0  0  0  0  0
   23.7024  -17.4163  -19.3078 N   0  0  0  0  0  0  0  0  0  0  0  0
   23.3575  -18.7956  -18.9744 C   0  0  0  0  0  0  0  0  0  0  0  0
   22.4507  -16.6441  -19.4703 O   0  0  0  0  0  0  0  0  0  0  0  0
   22.4552  -15.2798  -19.7559 O   0  0  0  0  0  0  0  0  0  0  0  0
  2  3  2  0
  2  1  1  0
  4  2  1  0
  5  4  1  0
  6  5  1  0
  7  6  1  0
  8  7  1  0
  8 10  1  0
  8  9  1  1
 10 12  1  0
 11 10  2  0
 12 13  1  0
 13 14  1  6
 14 15  1  0
 15 19  1  0
 16 15  2  0
 17 13  1  0
 17 18  2  0
 21 20  1  1
 21 22  1  0
 21 23  1  0
 22 17  1  0
 23 25  2  0
 23 24  1  0
M  END
$$$$
