RDA.pdb
     RDKit          3D

 25 24  0  0  1  0  0  0  0  0999 V2000
   32.0573  -32.4694   -4.7855 N   0  0  0  0  0  0  0  0  0  0  0  0
   32.1327  -32.9490   -6.1190 C   0  0  0  0  0  0  0  0  0  0  0  0
   32.6576  -32.1606   -7.0247 N   0  0  0  0  0  0  0  0  0  0  0  0
   31.6530  -34.2411   -6.4660 N   0  0  0  0  0  0  0  0  0  0  0  0
   31.1477  -35.1476   -5.4558 C   0  0  0  0  0  0  0  0  0  0  0  0
   32.0748  -36.2975   -5.2040 C   0  0  0  0  0  0  0  0  0  0  0  0
   31.5273  -37.1968   -4.1471 C   0  0  0  0  0  0  0  0  0  0  0  0
   32.4712  -38.2949   -3.8003 C   0  0  2  0  0  0  0  0  0  0  0  0
   31.9225  -39.5429   -4.2876 N   0  0  0  0  0  0  0  0  0  0  0  0
   32.6260  -38.4302   -2.3133 C   0  0  0  0  0  0  0  0  0  0  0  0
   31.7678  -39.0580   -1.6503 O   0  0  0  0  0  0  0  0  0  0  0  0
   32.7477  -32.4665   -8.0175 N   0  0  0  0  0  0  0  0  0  0  0  0
   33.7227  -37.8651   -1.6199 C   0  0  2  0  0  0  0  0  0  0  0  0
   33.8802  -37.9011   -0.1880 C   0  0  0  0  0  0  0  0  0  0  0  0
   35.3732  -37.7592    0.1155 C   0  0  0  0  0  0  0  0  0  0  0  0
   35.6032  -38.0118    1.5583 O   0  0  0  0  0  0  0  0  0  0  0  0
   36.7867  -37.9664    1.9907 C   0  0  0  0  0  0  0  0  0  0  0  0
   33.1129  -36.8055    0.4357 O   0  0  0  0  0  0  0  0  0  0  0  0
   33.1942  -35.6028    0.0086 O   0  0  0  0  0  0  0  0  0  0  0  0
   34.5908  -38.2986    2.4719 C   0  0  0  0  0  0  0  0  0  0  0  0
   30.0107  -36.5533    2.3676 C   0  0  1  0  0  0  0  0  0  0  0  0
   31.3603  -35.9447    1.9877 N   0  0  0  0  0  0  0  0  0  0  0  0
   32.2445  -37.0165    1.5383 C   0  0  0  0  0  0  0  0  0  0  0  0
   31.9335  -35.3437    3.2123 O   0  0  0  0  0  0  0  0  0  0  0  0
   31.3114  -34.2902    3.8800 O   0  0  0  0  0  0  0  0  0  0  0  0
  2  3  2  0
  2  1  1  0
  4  2  1  0
  5  4  1  0
  6  5  1  0
  7  6  1  0
  8  7  1  0
  8 10  1  0
  8  9  1  1
 10 12  1  0
 11 10  2  0
 12 13  1  0
 13 14  1  6
 14 15  1  0
 15 19  1  0
 16 15  2  0
 17 13  1  0
 17 18  2  0
 21 20  1  6
 21 22  1  0
 21 23  1  0
 22 17  1  0
 23 25  2  0
 23 24  1  0
M  END
$$$$
