RDA.pdb
     RDKit          3D

 25 24  0  0  1  0  0  0  0  0999 V2000
   18.7368  -13.3896  -14.9678 N   0  0  0  0  0  0  0  0  0  0  0  0
   18.3940  -12.4017  -15.9272 C   0  0  0  0  0  0  0  0  0  0  0  0
   17.1222  -12.1531  -16.1226 N   0  0  0  0  0  0  0  0  0  0  0  0
   19.3943  -11.7040  -16.6567 N   0  0  0  0  0  0  0  0  0  0  0  0
   20.5049  -11.0658  -15.9808 C   0  0  0  0  0  0  0  0  0  0  0  0
   21.4209  -10.3558  -16.9304 C   0  0  0  0  0  0  0  0  0  0  0  0
   22.5240   -9.6748  -16.1922 C   0  0  0  0  0  0  0  0  0  0  0  0
   22.0429   -8.4860  -15.4357 C   0  0  2  0  0  0  0  0  0  0  0  0
   20.7376   -8.7885  -14.8870 N   0  0  0  0  0  0  0  0  0  0  0  0
   21.8792   -7.2969  -16.3371 C   0  0  0  0  0  0  0  0  0  0  0  0
   22.8684   -6.8423  -16.9576 O   0  0  0  0  0  0  0  0  0  0  0  0
   16.8124  -11.4704  -16.8475 N   0  0  0  0  0  0  0  0  0  0  0  0
   20.6288   -6.6583  -16.5149 C   0  0  1  0  0  0  0  0  0  0  0  0
   20.4160   -5.5208  -17.3735 C   0  0  0  0  0  0  0  0  0  0  0  0
   19.0310   -5.6729  -18.0059 C   0  0  0  0  0  0  0  0  0  0  0  0
   18.8687   -4.6570  -19.0736 O   0  0  0  0  0  0  0  0  0  0  0  0
   18.3735   -3.5396  -18.7636 C   0  0  0  0  0  0  0  0  0  0  0  0
   20.5003   -4.2714  -16.5924 O   0  0  0  0  0  0  0  0  0  0  0  0
   20.2716   -4.2509  -15.3343 O   0  0  0  0  0  0  0  0  0  0  0  0
   19.2288   -4.8586  -20.4044 C   0  0  0  0  0  0  0  0  0  0  0  0
   21.4904   -0.6883  -17.2242 C   0  0  1  0  0  0  0  0  0  0  0  0
   21.0021   -1.8405  -16.3467 N   0  0  0  0  0  0  0  0  0  0  0  0
   20.8377   -3.0259  -17.1835 C   0  0  0  0  0  0  0  0  0  0  0  0
   19.6779   -1.4557  -15.8101 O   0  0  0  0  0  0  0  0  0  0  0  0
   19.5317   -0.4601  -14.8456 O   0  0  0  0  0  0  0  0  0  0  0  0
  2  3  2  0
  2  1  1  0
  4  2  1  0
  5  4  1  0
  6  5  1  0
  7  6  1  0
  8  7  1  0
  8 10  1  0
  8  9  1  6
 10 12  1  0
 11 10  2  0
 12 13  1  0
 13 14  1  6
 14 15  1  0
 15 19  1  0
 16 15  2  0
 17 13  1  0
 17 18  2  0
 21 20  1  1
 21 22  1  0
 21 23  1  0
 22 17  1  0
 23 25  2  0
 23 24  1  0
M  END
$$$$
