AHE.pdb
     RDKit          3D

 25 25  0  0  1  0  0  0  0  0999 V2000
   19.7916  -11.2878  -19.8201 C   0  0  0  0  0  0  0  0  0  0  0  0
   20.8888  -10.3984  -19.2521 C   0  0  2  0  0  0  0  0  0  0  0  0
   22.0105  -11.1788  -18.7777 N   0  0  0  0  0  0  0  0  0  0  0  0
   20.2956   -9.6756  -18.0909 C   0  0  0  0  0  0  0  0  0  0  0  0
   19.2852   -8.9383  -18.3091 O   0  0  0  0  0  0  0  0  0  0  0  0
   20.8389   -9.8057  -16.7898 N   0  0  0  0  0  0  0  0  0  0  0  0
   20.1590   -9.0315  -15.7178 C   0  0  1  0  0  0  0  0  0  0  0  0
   19.7603  -10.0107  -14.6440 C   0  0  0  0  0  0  0  0  0  0  0  0
   18.4481  -10.6384  -14.7912 C   0  0  0  0  0  0  0  0  0  0  0  0
   17.5055  -10.3863  -15.7522 C   0  0  0  0  0  0  0  0  0  0  0  0
   16.4379  -11.1538  -15.4939 N   0  0  0  0  0  0  0  0  0  0  0  0
   16.6895  -11.8819  -14.3921 C   0  0  0  0  0  0  0  0  0  0  0  0
   17.9067  -11.5726  -13.9630 N   0  0  0  0  0  0  0  0  0  0  0  0
   21.1305   -8.0211  -15.2658 C   0  0  0  0  0  0  0  0  0  0  0  0
   22.3542   -8.3384  -15.0373 O   0  0  0  0  0  0  0  0  0  0  0  0
   20.8028   -6.6591  -15.0617 N   0  0  0  0  0  0  0  0  0  0  0  0
   21.8873   -5.7401  -14.6339 C   0  0  1  0  0  0  0  0  0  0  0  0
   21.5518   -4.3569  -15.2262 C   0  0  0  0  0  0  0  0  0  0  0  0
   21.6767   -4.4382  -16.7147 C   0  0  0  0  0  0  0  0  0  0  0  0
   21.3439   -3.1046  -17.3108 C   0  0  0  0  0  0  0  0  0  0  0  0
   21.0128   -2.1871  -16.5533 O   0  0  0  0  0  0  0  0  0  0  0  0
   21.8328   -5.6174  -13.1787 C   0  0  0  0  0  0  0  0  0  0  0  0
   22.6536   -4.9764  -12.4619 O   0  0  0  0  0  0  0  0  0  0  0  0
   21.4190   -2.9513  -18.6752 O   0  0  0  0  0  0  0  0  0  0  0  0
   20.7897   -6.2538  -12.4972 O   0  0  0  0  0  0  0  0  0  0  0  0
  2  1  1  1
  2  4  1  0
  3  2  1  0
  4  5  2  0
  6  7  1  0
  6  4  1  0
  7  8  1  1
  9  8  1  0
 10  9  2  0
 11 12  1  0
 11 10  1  0
 12 13  2  0
 13  9  1  0
 14  7  1  0
 14 15  2  0
 16 14  1  0
 17 16  1  0
 17 22  1  0
 17 18  1  6
 19 20  1  0
 19 18  1  0
 20 24  1  0
 20 21  2  0
 22 23  2  0
 22 25  1  0
M  END
$$$$
