AHE.pdb
     RDKit          3D

 25 25  0  0  1  0  0  0  0  0999 V2000
   20.1177  -11.8466  -20.0968 C   0  0  0  0  0  0  0  0  0  0  0  0
   21.2124  -11.0764  -19.3717 C   0  0  2  0  0  0  0  0  0  0  0  0
   22.1727  -11.9694  -18.7613 N   0  0  0  0  0  0  0  0  0  0  0  0
   20.5435  -10.2969  -18.2910 C   0  0  0  0  0  0  0  0  0  0  0  0
   19.6948   -9.4182  -18.6368 O   0  0  0  0  0  0  0  0  0  0  0  0
   20.8432  -10.5275  -16.9265 N   0  0  0  0  0  0  0  0  0  0  0  0
   20.1148   -9.6800  -15.9457 C   0  0  1  0  0  0  0  0  0  0  0  0
   19.6445  -10.5846  -14.8362 C   0  0  0  0  0  0  0  0  0  0  0  0
   18.2796  -11.0963  -14.9490 C   0  0  0  0  0  0  0  0  0  0  0  0
   17.3608  -10.8149  -15.9248 C   0  0  0  0  0  0  0  0  0  0  0  0
   16.2280  -11.4645  -15.6243 N   0  0  0  0  0  0  0  0  0  0  0  0
   16.4154  -12.1474  -14.4815 C   0  0  0  0  0  0  0  0  0  0  0  0
   17.6574  -11.9271  -14.0689 N   0  0  0  0  0  0  0  0  0  0  0  0
   21.0727   -8.6519  -15.5046 C   0  0  0  0  0  0  0  0  0  0  0  0
   22.2929   -8.9562  -15.2423 O   0  0  0  0  0  0  0  0  0  0  0  0
   20.7351   -7.2860  -15.3479 N   0  0  0  0  0  0  0  0  0  0  0  0
   21.8177   -6.3410  -14.9755 C   0  0  1  0  0  0  0  0  0  0  0  0
   21.7817   -5.1996  -16.0112 C   0  0  0  0  0  0  0  0  0  0  0  0
   22.8739   -4.2311  -15.6839 C   0  0  0  0  0  0  0  0  0  0  0  0
   22.7959   -3.0651  -16.6214 C   0  0  0  0  0  0  0  0  0  0  0  0
   22.8526   -1.9252  -16.1494 O   0  0  0  0  0  0  0  0  0  0  0  0
   21.4891   -5.7615  -13.6748 C   0  0  0  0  0  0  0  0  0  0  0  0
   20.3265   -5.6473  -13.1913 O   0  0  0  0  0  0  0  0  0  0  0  0
   22.6645   -3.3059  -17.9688 O   0  0  0  0  0  0  0  0  0  0  0  0
   22.5351   -5.2869  -12.8759 O   0  0  0  0  0  0  0  0  0  0  0  0
  2  1  1  1
  2  4  1  0
  3  2  1  0
  4  5  2  0
  6  7  1  0
  6  4  1  0
  7  8  1  1
  9  8  1  0
 10  9  2  0
 11 12  1  0
 11 10  1  0
 12 13  2  0
 13  9  1  0
 14  7  1  0
 14 15  2  0
 16 14  1  0
 17 16  1  0
 17 22  1  0
 17 18  1  6
 19 20  1  0
 19 18  1  0
 20 24  1  0
 20 21  2  0
 22 23  2  0
 22 25  1  0
M  END
$$$$
