AHE.pdb
     RDKit          3D

 25 25  0  0  1  0  0  0  0  0999 V2000
   22.4149   -7.6706  -21.3289 C   0  0  0  0  0  0  0  0  0  0  0  0
   23.1749   -8.8003  -20.6480 C   0  0  2  0  0  0  0  0  0  0  0  0
   22.8887  -10.0775  -21.2637 N   0  0  0  0  0  0  0  0  0  0  0  0
   22.7014   -8.8441  -19.2349 C   0  0  0  0  0  0  0  0  0  0  0  0
   21.4829   -9.1364  -19.0304 O   0  0  0  0  0  0  0  0  0  0  0  0
   23.5786   -8.5696  -18.1579 N   0  0  0  0  0  0  0  0  0  0  0  0
   23.0058   -8.7212  -16.7942 C   0  0  1  0  0  0  0  0  0  0  0  0
   24.0001   -9.5044  -15.9765 C   0  0  0  0  0  0  0  0  0  0  0  0
   24.0628  -10.9425  -16.2320 C   0  0  0  0  0  0  0  0  0  0  0  0
   23.2459  -11.6821  -17.0452 C   0  0  0  0  0  0  0  0  0  0  0  0
   23.6295  -12.9631  -16.9600 N   0  0  0  0  0  0  0  0  0  0  0  0
   24.6691  -13.0440  -16.1113 C   0  0  0  0  0  0  0  0  0  0  0  0
   24.9349  -11.8218  -15.6679 N   0  0  0  0  0  0  0  0  0  0  0  0
   22.7748   -7.3551  -16.2948 C   0  0  0  0  0  0  0  0  0  0  0  0
   23.6337   -6.4226  -16.5028 O   0  0  0  0  0  0  0  0  0  0  0  0
   21.6178   -6.9721  -15.5746 N   0  0  0  0  0  0  0  0  0  0  0  0
   21.5198   -5.5641  -15.1149 C   0  0  1  0  0  0  0  0  0  0  0  0
   20.0172   -5.2516  -14.9694 C   0  0  0  0  0  0  0  0  0  0  0  0
   19.4137   -5.1893  -16.3369 C   0  0  0  0  0  0  0  0  0  0  0  0
   17.9491   -4.8977  -16.2165 C   0  0  0  0  0  0  0  0  0  0  0  0
   17.1897   -5.8181  -15.8981 O   0  0  0  0  0  0  0  0  0  0  0  0
   22.1152   -5.4771  -13.7832 C   0  0  0  0  0  0  0  0  0  0  0  0
   22.4242   -6.4585  -13.0484 O   0  0  0  0  0  0  0  0  0  0  0  0
   17.5054   -3.6199  -16.4641 O   0  0  0  0  0  0  0  0  0  0  0  0
   22.3778   -4.2085  -13.2547 O   0  0  0  0  0  0  0  0  0  0  0  0
  2  1  1  6
  2  4  1  0
  3  2  1  0
  4  5  2  0
  6  7  1  0
  6  4  1  0
  7  8  1  1
  9  8  1  0
 10  9  2  0
 11 12  1  0
 11 10  1  0
 12 13  2  0
 13  9  1  0
 14  7  1  0
 14 15  2  0
 16 14  1  0
 17 16  1  0
 17 22  1  0
 17 18  1  1
 19 20  1  0
 19 18  1  0
 20 24  1  0
 20 21  2  0
 22 23  2  0
 22 25  1  0
M  END
$$$$
