AHE.pdb
     RDKit          3D

 25 25  0  0  1  0  0  0  0  0999 V2000
   33.5230  -36.0381   -5.4401 C   0  0  0  0  0  0  0  0  0  0  0  0
   32.4693  -36.0001   -6.5382 C   0  0  2  0  0  0  0  0  0  0  0  0
   32.9276  -35.2485   -7.6860 N   0  0  0  0  0  0  0  0  0  0  0  0
   31.2803  -35.3053   -5.9667 C   0  0  0  0  0  0  0  0  0  0  0  0
   31.3960  -34.0722   -5.6874 O   0  0  0  0  0  0  0  0  0  0  0  0
   30.0643  -35.9952   -5.7428 N   0  0  0  0  0  0  0  0  0  0  0  0
   28.9246  -35.1703   -5.2618 C   0  0  1  0  0  0  0  0  0  0  0  0
   27.7810  -35.3870   -6.2190 C   0  0  0  0  0  0  0  0  0  0  0  0
   27.6715  -34.4388   -7.3264 C   0  0  0  0  0  0  0  0  0  0  0  0
   28.4534  -33.3400   -7.5647 C   0  0  0  0  0  0  0  0  0  0  0  0
   27.9854  -32.7311   -8.6627 N   0  0  0  0  0  0  0  0  0  0  0  0
   26.9269  -33.4233   -9.1188 C   0  0  0  0  0  0  0  0  0  0  0  0
   26.7333  -34.4590   -8.3119 N   0  0  0  0  0  0  0  0  0  0  0  0
   28.6420  -35.6257   -3.8900 C   0  0  0  0  0  0  0  0  0  0  0  0
   29.1338  -36.7262   -3.4458 O   0  0  0  0  0  0  0  0  0  0  0  0
   27.8364  -34.9027   -2.9776 N   0  0  0  0  0  0  0  0  0  0  0  0
   27.6296  -35.4792   -1.6254 C   0  0  1  0  0  0  0  0  0  0  0  0
   29.0195  -35.5593   -0.9634 C   0  0  0  0  0  0  0  0  0  0  0  0
   28.8448  -36.0337    0.4446 C   0  0  0  0  0  0  0  0  0  0  0  0
   30.1057  -35.7759    1.2117 C   0  0  0  0  0  0  0  0  0  0  0  0
   31.1824  -35.8263    0.6088 O   0  0  0  0  0  0  0  0  0  0  0  0
   26.8282  -34.5376   -0.8465 C   0  0  0  0  0  0  0  0  0  0  0  0
   26.5370  -33.3565   -1.1909 O   0  0  0  0  0  0  0  0  0  0  0  0
   30.0183  -35.4933    2.5546 O   0  0  0  0  0  0  0  0  0  0  0  0
   26.3262  -34.9573    0.3903 O   0  0  0  0  0  0  0  0  0  0  0  0
  2  1  1  1
  2  4  1  0
  3  2  1  0
  4  5  2  0
  6  7  1  0
  6  4  1  0
  7  8  1  6
  9  8  1  0
 10  9  2  0
 11 12  1  0
 11 10  1  0
 12 13  2  0
 13  9  1  0
 14  7  1  0
 14 15  2  0
 16 14  1  0
 17 16  1  0
 17 22  1  0
 17 18  1  1
 19 20  1  0
 19 18  1  0
 20 24  1  0
 20 21  2  0
 22 23  2  0
 22 25  1  0
M  END
$$$$
