AHE.pdb
     RDKit          3D

 25 25  0  0  1  0  0  0  0  0999 V2000
   26.3100  -19.9827  -21.0313 C   0  0  0  0  0  0  0  0  0  0  0  0
   24.9028  -20.2131  -20.4983 C   0  0  2  0  0  0  0  0  0  0  0  0
   23.9345  -19.3864  -21.1847 N   0  0  0  0  0  0  0  0  0  0  0  0
   24.9200  -19.8199  -19.0602 C   0  0  0  0  0  0  0  0  0  0  0  0
   25.7093  -20.4458  -18.2874 O   0  0  0  0  0  0  0  0  0  0  0  0
   24.0860  -18.7850  -18.5721 N   0  0  0  0  0  0  0  0  0  0  0  0
   24.1389  -18.5401  -17.1065 C   0  0  1  0  0  0  0  0  0  0  0  0
   24.6521  -17.1375  -16.9062 C   0  0  0  0  0  0  0  0  0  0  0  0
   26.0945  -16.9463  -17.0496 C   0  0  0  0  0  0  0  0  0  0  0  0
   27.0654  -17.9116  -17.0791 C   0  0  0  0  0  0  0  0  0  0  0  0
   28.2525  -17.2993  -17.1865 N   0  0  0  0  0  0  0  0  0  0  0  0
   28.0480  -15.9711  -17.2252 C   0  0  0  0  0  0  0  0  0  0  0  0
   26.7417  -15.7528  -17.1425 N   0  0  0  0  0  0  0  0  0  0  0  0
   22.7678  -18.7449  -16.6092 C   0  0  0  0  0  0  0  0  0  0  0  0
   21.7655  -18.1897  -17.1901 O   0  0  0  0  0  0  0  0  0  0  0  0
   22.4559  -19.5529  -15.4894 N   0  0  0  0  0  0  0  0  0  0  0  0
   21.0233  -19.7801  -15.1740 C   0  0  1  0  0  0  0  0  0  0  0  0
   20.9808  -20.8466  -14.0616 C   0  0  0  0  0  0  0  0  0  0  0  0
   19.5500  -21.1005  -13.7059 C   0  0  0  0  0  0  0  0  0  0  0  0
   19.4877  -22.1274  -12.6168 C   0  0  0  0  0  0  0  0  0  0  0  0
   20.1781  -21.9574  -11.6070 O   0  0  0  0  0  0  0  0  0  0  0  0
   20.4782  -18.5444  -14.6158 C   0  0  0  0  0  0  0  0  0  0  0  0
   21.1236  -17.6938  -13.9389 O   0  0  0  0  0  0  0  0  0  0  0  0
   18.6665  -23.2181  -12.7807 O   0  0  0  0  0  0  0  0  0  0  0  0
   19.1276  -18.2543  -14.8384 O   0  0  0  0  0  0  0  0  0  0  0  0
  2  1  1  6
  2  4  1  0
  3  2  1  0
  4  5  2  0
  6  7  1  0
  6  4  1  0
  7  8  1  6
  9  8  1  0
 10  9  2  0
 11 12  1  0
 11 10  1  0
 12 13  2  0
 13  9  1  0
 14  7  1  0
 14 15  2  0
 16 14  1  0
 17 16  1  0
 17 22  1  0
 17 18  1  1
 19 20  1  0
 19 18  1  0
 20 24  1  0
 20 21  2  0
 22 23  2  0
 22 25  1  0
M  END
$$$$
