AHE.pdb
     RDKit          3D

 25 25  0  0  1  0  0  0  0  0999 V2000
   20.2536  -12.4557  -16.4831 C   0  0  0  0  0  0  0  0  0  0  0  0
   21.4782  -12.0584  -17.2955 C   0  0  2  0  0  0  0  0  0  0  0  0
   22.3711  -13.1796  -17.4903 N   0  0  0  0  0  0  0  0  0  0  0  0
   22.1969  -11.0180  -16.5055 C   0  0  0  0  0  0  0  0  0  0  0  0
   22.1263  -11.0858  -15.2396 O   0  0  0  0  0  0  0  0  0  0  0  0
   22.9327   -9.9900  -17.1431 N   0  0  0  0  0  0  0  0  0  0  0  0
   23.5940   -9.0068  -16.2450 C   0  0  1  0  0  0  0  0  0  0  0  0
   25.0497   -8.9575  -16.6312 C   0  0  0  0  0  0  0  0  0  0  0  0
   25.8818  -10.0691  -16.1735 C   0  0  0  0  0  0  0  0  0  0  0  0
   25.4990  -11.1378  -15.4074 C   0  0  0  0  0  0  0  0  0  0  0  0
   26.5810  -11.8977  -15.1898 N   0  0  0  0  0  0  0  0  0  0  0  0
   27.6344  -11.3297  -15.8023 C   0  0  0  0  0  0  0  0  0  0  0  0
   27.2150  -10.2213  -16.3997 N   0  0  0  0  0  0  0  0  0  0  0  0
   22.8855   -7.7312  -16.4449 C   0  0  0  0  0  0  0  0  0  0  0  0
   22.5349   -7.3484  -17.6200 O   0  0  0  0  0  0  0  0  0  0  0  0
   22.5385   -6.8566  -15.3871 N   0  0  0  0  0  0  0  0  0  0  0  0
   21.7718   -5.6305  -15.7225 C   0  0  1  0  0  0  0  0  0  0  0  0
   20.5542   -5.6000  -14.7775 C   0  0  0  0  0  0  0  0  0  0  0  0
   19.8131   -4.3203  -15.0041 C   0  0  0  0  0  0  0  0  0  0  0  0
   18.3407   -4.5799  -14.9084 C   0  0  0  0  0  0  0  0  0  0  0  0
   17.8739   -5.5524  -15.5098 O   0  0  0  0  0  0  0  0  0  0  0  0
   22.6027   -4.4718  -15.4025 C   0  0  0  0  0  0  0  0  0  0  0  0
   22.6135   -3.3759  -16.0328 O   0  0  0  0  0  0  0  0  0  0  0  0
   17.5652   -3.7287  -14.1568 O   0  0  0  0  0  0  0  0  0  0  0  0
   23.4679   -4.5575  -14.3062 O   0  0  0  0  0  0  0  0  0  0  0  0
  2  1  1  1
  2  4  1  0
  3  2  1  0
  4  5  2  0
  6  7  1  0
  6  4  1  0
  7  8  1  6
  9  8  1  0
 10  9  2  0
 11 12  1  0
 11 10  1  0
 12 13  2  0
 13  9  1  0
 14  7  1  0
 14 15  2  0
 16 14  1  0
 17 16  1  0
 17 22  1  0
 17 18  1  1
 19 20  1  0
 19 18  1  0
 20 24  1  0
 20 21  2  0
 22 23  2  0
 22 25  1  0
M  END
$$$$
