AHE.pdb
     RDKit          3D

 25 25  0  0  1  0  0  0  0  0999 V2000
   36.4715  -27.8848  -16.2651 C   0  0  0  0  0  0  0  0  0  0  0  0
   36.0000  -27.1908  -17.5354 C   0  0  2  0  0  0  0  0  0  0  0  0
   36.5238  -25.8459  -17.6298 N   0  0  0  0  0  0  0  0  0  0  0  0
   34.5135  -27.1106  -17.4529 C   0  0  0  0  0  0  0  0  0  0  0  0
   33.9564  -27.5591  -16.4038 O   0  0  0  0  0  0  0  0  0  0  0  0
   33.7487  -26.5542  -18.5065 N   0  0  0  0  0  0  0  0  0  0  0  0
   32.3012  -26.3572  -18.2294 C   0  0  1  0  0  0  0  0  0  0  0  0
   32.1909  -25.3044  -17.1569 C   0  0  0  0  0  0  0  0  0  0  0  0
   30.8499  -24.7872  -16.8891 C   0  0  0  0  0  0  0  0  0  0  0  0
   29.6934  -25.0780  -17.5624 C   0  0  0  0  0  0  0  0  0  0  0  0
   28.7046  -24.3598  -17.0129 N   0  0  0  0  0  0  0  0  0  0  0  0
   29.2149  -23.6245  -16.0096 C   0  0  0  0  0  0  0  0  0  0  0  0
   30.5147  -23.8805  -15.9312 N   0  0  0  0  0  0  0  0  0  0  0  0
   31.6908  -25.9627  -19.5103 C   0  0  0  0  0  0  0  0  0  0  0  0
   32.3392  -25.2469  -20.3574 O   0  0  0  0  0  0  0  0  0  0  0  0
   30.3826  -26.3379  -19.9003 N   0  0  0  0  0  0  0  0  0  0  0  0
   29.8879  -25.8653  -21.2177 C   0  0  1  0  0  0  0  0  0  0  0  0
   28.7056  -26.7788  -21.5978 C   0  0  0  0  0  0  0  0  0  0  0  0
   28.1520  -26.3134  -22.9074 C   0  0  0  0  0  0  0  0  0  0  0  0
   26.9558  -27.1437  -23.2598 C   0  0  0  0  0  0  0  0  0  0  0  0
   26.4660  -27.8700  -22.3892 O   0  0  0  0  0  0  0  0  0  0  0  0
   29.3588  -24.5138  -21.0475 C   0  0  0  0  0  0  0  0  0  0  0  0
   29.0305  -23.9839  -19.9476 O   0  0  0  0  0  0  0  0  0  0  0  0
   26.4485  -27.0671  -24.5356 O   0  0  0  0  0  0  0  0  0  0  0  0
   29.1945  -23.7167  -22.1856 O   0  0  0  0  0  0  0  0  0  0  0  0
  2  1  1  1
  2  4  1  0
  3  2  1  0
  4  5  2  0
  6  7  1  0
  6  4  1  0
  7  8  1  1
  9  8  1  0
 10  9  2  0
 11 12  1  0
 11 10  1  0
 12 13  2  0
 13  9  1  0
 14  7  1  0
 14 15  2  0
 16 14  1  0
 17 16  1  0
 17 22  1  0
 17 18  1  1
 19 20  1  0
 19 18  1  0
 20 24  1  0
 20 21  2  0
 22 23  2  0
 22 25  1  0
M  END
$$$$
