AHE.pdb
     RDKit          3D

 25 25  0  0  1  0  0  0  0  0999 V2000
   21.5148  -11.6272  -20.3504 C   0  0  0  0  0  0  0  0  0  0  0  0
   22.7716  -12.2525  -19.7613 C   0  0  2  0  0  0  0  0  0  0  0  0
   22.6349  -13.6858  -19.6227 N   0  0  0  0  0  0  0  0  0  0  0  0
   22.9460  -11.6642  -18.4025 C   0  0  0  0  0  0  0  0  0  0  0  0
   22.0967  -11.9761  -17.5118 O   0  0  0  0  0  0  0  0  0  0  0  0
   24.0205  -10.7884  -18.1141 N   0  0  0  0  0  0  0  0  0  0  0  0
   24.1576  -10.3684  -16.6944 C   0  0  1  0  0  0  0  0  0  0  0  0
   25.6288  -10.3683  -16.3686 C   0  0  0  0  0  0  0  0  0  0  0  0
   26.2611  -11.6778  -16.2165 C   0  0  0  0  0  0  0  0  0  0  0  0
   25.6578  -12.9063  -16.2632 C   0  0  0  0  0  0  0  0  0  0  0  0
   26.5968  -13.8356  -16.0391 N   0  0  0  0  0  0  0  0  0  0  0  0
   27.7761  -13.2175  -15.8528 C   0  0  0  0  0  0  0  0  0  0  0  0
   27.5772  -11.9098  -15.9595 N   0  0  0  0  0  0  0  0  0  0  0  0
   23.5309   -9.0389  -16.6003 C   0  0  0  0  0  0  0  0  0  0  0  0
   23.7179   -8.1553  -17.5138 O   0  0  0  0  0  0  0  0  0  0  0  0
   22.6912   -8.6454  -15.5306 N   0  0  0  0  0  0  0  0  0  0  0  0
   22.1104   -7.2799  -15.5694 C   0  0  1  0  0  0  0  0  0  0  0  0
   21.0317   -7.2910  -16.6707 C   0  0  0  0  0  0  0  0  0  0  0  0
   20.0294   -8.3507  -16.3387 C   0  0  0  0  0  0  0  0  0  0  0  0
   18.9191   -8.3114  -17.3439 C   0  0  0  0  0  0  0  0  0  0  0  0
   19.0488   -8.9550  -18.3899 O   0  0  0  0  0  0  0  0  0  0  0  0
   21.4336   -7.0364  -14.2973 C   0  0  0  0  0  0  0  0  0  0  0  0
   21.2542   -7.8904  -13.3825 O   0  0  0  0  0  0  0  0  0  0  0  0
   17.8000   -7.5624  -17.0660 O   0  0  0  0  0  0  0  0  0  0  0  0
   20.9341   -5.7539  -14.0455 O   0  0  0  0  0  0  0  0  0  0  0  0
  2  1  1  1
  2  4  1  0
  3  2  1  0
  4  5  2  0
  6  7  1  0
  6  4  1  0
  7  8  1  6
  9  8  1  0
 10  9  2  0
 11 12  1  0
 11 10  1  0
 12 13  2  0
 13  9  1  0
 14  7  1  0
 14 15  2  0
 16 14  1  0
 17 16  1  0
 17 22  1  0
 17 18  1  6
 19 20  1  0
 19 18  1  0
 20 24  1  0
 20 21  2  0
 22 23  2  0
 22 25  1  0
M  END
$$$$
