AHE.pdb
     RDKit          3D

 25 25  0  0  1  0  0  0  0  0999 V2000
   28.9785   -6.1645  -19.6627 C   0  0  0  0  0  0  0  0  0  0  0  0
   29.7321   -7.4873  -19.6679 C   0  0  2  0  0  0  0  0  0  0  0  0
   28.8263   -8.6124  -19.7459 N   0  0  0  0  0  0  0  0  0  0  0  0
   30.4676   -7.5660  -18.3735 C   0  0  0  0  0  0  0  0  0  0  0  0
   29.7976   -7.8403  -17.3305 O   0  0  0  0  0  0  0  0  0  0  0  0
   31.8643   -7.3431  -18.3080 N   0  0  0  0  0  0  0  0  0  0  0  0
   32.4817   -7.4590  -16.9604 C   0  0  1  0  0  0  0  0  0  0  0  0
   33.5440   -8.5243  -17.0458 C   0  0  0  0  0  0  0  0  0  0  0  0
   33.0751   -9.8965  -17.2319 C   0  0  0  0  0  0  0  0  0  0  0  0
   31.7809  -10.3266  -17.3564 C   0  0  0  0  0  0  0  0  0  0  0  0
   31.7992  -11.6615  -17.4716 N   0  0  0  0  0  0  0  0  0  0  0  0
   33.0763  -12.0787  -17.4223 C   0  0  0  0  0  0  0  0  0  0  0  0
   33.8528  -11.0124  -17.2771 N   0  0  0  0  0  0  0  0  0  0  0  0
   33.0092   -6.1224  -16.6372 C   0  0  0  0  0  0  0  0  0  0  0  0
   33.4370   -5.3406  -17.5624 O   0  0  0  0  0  0  0  0  0  0  0  0
   33.0761   -5.6067  -15.3205 N   0  0  0  0  0  0  0  0  0  0  0  0
   33.5747   -4.2200  -15.1419 C   0  0  1  0  0  0  0  0  0  0  0  0
   32.9049   -3.6718  -13.8661 C   0  0  0  0  0  0  0  0  0  0  0  0
   33.3690   -2.2651  -13.6568 C   0  0  0  0  0  0  0  0  0  0  0  0
   32.8125   -1.7496  -12.3648 C   0  0  0  0  0  0  0  0  0  0  0  0
   33.5372   -1.0521  -11.6482 O   0  0  0  0  0  0  0  0  0  0  0  0
   35.0126   -4.2819  -14.8886 C   0  0  0  0  0  0  0  0  0  0  0  0
   35.6222   -5.2389  -14.3310 O   0  0  0  0  0  0  0  0  0  0  0  0
   31.5194   -2.0709  -12.0253 O   0  0  0  0  0  0  0  0  0  0  0  0
   35.8050   -3.2013  -15.2910 O   0  0  0  0  0  0  0  0  0  0  0  0
  2  1  1  1
  2  4  1  0
  3  2  1  0
  4  5  2  0
  6  7  1  0
  6  4  1  0
  7  8  1  6
  9  8  1  0
 10  9  2  0
 11 12  1  0
 11 10  1  0
 12 13  2  0
 13  9  1  0
 14  7  1  0
 14 15  2  0
 16 14  1  0
 17 16  1  0
 17 22  1  0
 17 18  1  1
 19 20  1  0
 19 18  1  0
 20 24  1  0
 20 21  2  0
 22 23  2  0
 22 25  1  0
M  END
$$$$
