RYQ.pdb
     RDKit          3D

 33 33  0  0  1  0  0  0  0  0999 V2000
    9.1160  -17.8949   16.3794 N   0  0  0  0  0  0  0  0  0  0  0  0
    9.0412  -16.4642   16.4797 C   0  0  0  0  0  0  0  0  0  0  0  0
    8.0647  -15.8145   15.9497 N   0  0  0  0  0  0  0  0  0  0  0  0
   10.0742  -15.8053   17.1779 N   0  0  0  0  0  0  0  0  0  0  0  0
   11.0866  -16.5789   17.8557 C   0  0  0  0  0  0  0  0  0  0  0  0
   10.5294  -17.2207   19.0905 C   0  0  0  0  0  0  0  0  0  0  0  0
   11.2151  -16.6590   20.3093 C   0  0  0  0  0  0  0  0  0  0  0  0
   10.8791  -17.4827   21.5443 C   0  0  2  0  0  0  0  0  0  0  0  0
    9.9203  -18.4987   21.2402 N   0  0  0  0  0  0  0  0  0  0  0  0
   10.4115  -16.5397   22.5917 C   0  0  0  0  0  0  0  0  0  0  0  0
   11.1994  -15.6931   23.0873 O   0  0  0  0  0  0  0  0  0  0  0  0
    8.0015  -14.7777   15.9970 O   0  0  0  0  0  0  0  0  0  0  0  0
    7.2431  -13.2220   18.2690 C   0  0  0  0  0  0  0  0  0  0  0  0
    7.2623  -13.6403   19.5897 C   0  0  0  0  0  0  0  0  0  0  0  0
    7.8994  -12.8701   20.5214 C   0  0  0  0  0  0  0  0  0  0  0  0
    7.9219  -13.2808   21.8370 C   0  0  0  0  0  0  0  0  0  0  0  0
    7.3295  -14.4420   22.2739 C   0  0  0  0  0  0  0  0  0  0  0  0
    7.3429  -14.9016   23.6948 C   0  0  2  0  0  0  0  0  0  0  0  0
    8.6220  -15.5954   24.0659 N   0  0  0  0  0  0  0  0  0  0  0  0
    9.0805  -16.5296   23.0913 C   0  0  0  0  0  0  0  0  0  0  0  0
    8.4319  -16.2306   25.3869 O   0  0  0  0  0  0  0  0  0  0  0  0
    7.8000  -15.5879   26.2640 C   0  0  0  0  0  0  0  0  0  0  0  0
    6.6830  -15.2171   21.3092 C   0  0  0  0  0  0  0  0  0  0  0  0
    6.6589  -14.8092   19.9946 N   0  0  0  0  0  0  0  0  0  0  0  0
    5.6003  -19.9125   24.6200 C   0  0  0  0  0  0  0  0  0  0  0  0
    6.5157  -20.2302   25.6616 O   0  0  0  0  0  0  0  0  0  0  0  0
    6.1151  -20.8899   26.6296 C   0  0  0  0  0  0  0  0  0  0  0  0
    7.9176  -19.7863   25.5981 C   0  0  0  0  0  0  0  0  0  0  0  0
    8.4386  -19.5118   26.9718 C   0  0  2  0  0  0  0  0  0  0  0  0
    8.7176  -18.0158   27.0877 N   0  0  0  0  0  0  0  0  0  0  0  0
    8.9130  -17.5254   25.7366 C   0  0  0  0  0  0  0  0  0  0  0  0
    9.9284  -17.7550   27.8751 O   0  0  0  0  0  0  0  0  0  0  0  0
   10.0512  -17.9208   29.1062 O   0  0  0  0  0  0  0  0  0  0  0  0
  2  1  1  0
  3  2  2  0
  4  2  1  0
  5  6  1  0
  5  4  1  0
  7  6  1  0
  8  7  1  0
  8 10  1  0
  8  9  1  6
 10 19  1  0
 10 11  2  0
 12 13  1  0
 13 23  2  0
 13 14  1  0
 14 15  2  0
 15 16  1  0
 16 17  1  0
 18 17  1  6
 19 18  1  0
 20 18  1  0
 20 30  1  0
 21 20  2  0
 22 16  2  0
 23 22  1  0
 24 25  1  0
 25 26  2  0
 27 25  1  0
 27 28  1  0
 29 28  1  6
 29 30  1  0
 29 31  1  0
 31 33  1  0
 32 31  2  0
M  END
$$$$
