RYQ.pdb
     RDKit          3D

 33 33  0  0  1  0  0  0  0  0999 V2000
    8.2661  -12.5868   15.9934 N   0  0  0  0  0  0  0  0  0  0  0  0
    8.3917  -13.8957   15.4157 C   0  0  0  0  0  0  0  0  0  0  0  0
    8.7771  -14.0462   14.1970 N   0  0  0  0  0  0  0  0  0  0  0  0
    8.0777  -15.0012   16.2330 N   0  0  0  0  0  0  0  0  0  0  0  0
    7.8532  -14.8065   17.6453 C   0  0  0  0  0  0  0  0  0  0  0  0
    9.1516  -14.7910   18.3943 C   0  0  0  0  0  0  0  0  0  0  0  0
    8.8869  -14.6142   19.8673 C   0  0  0  0  0  0  0  0  0  0  0  0
    9.0192  -15.9408   20.6016 C   0  0  2  0  0  0  0  0  0  0  0  0
    7.9826  -16.8474   20.2176 N   0  0  0  0  0  0  0  0  0  0  0  0
    9.0193  -15.6435   22.0565 C   0  0  0  0  0  0  0  0  0  0  0  0
    9.8772  -14.8666   22.5500 O   0  0  0  0  0  0  0  0  0  0  0  0
    8.9804  -14.9829   13.7942 O   0  0  0  0  0  0  0  0  0  0  0  0
    6.8089  -10.0554   26.6277 C   0  0  0  0  0  0  0  0  0  0  0  0
    6.7959  -11.3785   26.2170 C   0  0  0  0  0  0  0  0  0  0  0  0
    6.8418  -11.6600   24.8806 C   0  0  0  0  0  0  0  0  0  0  0  0
    6.8292  -12.9744   24.4657 C   0  0  0  0  0  0  0  0  0  0  0  0
    6.7722  -14.0381   25.3348 C   0  0  0  0  0  0  0  0  0  0  0  0
    6.7591  -15.4678   24.9032 C   0  0  2  0  0  0  0  0  0  0  0  0
    8.0848  -15.9207   24.3624 N   0  0  0  0  0  0  0  0  0  0  0  0
    8.0774  -16.2002   22.9643 C   0  0  0  0  0  0  0  0  0  0  0  0
    8.5268  -17.0890   25.1525 O   0  0  0  0  0  0  0  0  0  0  0  0
    8.1830  -18.2321   24.7563 C   0  0  0  0  0  0  0  0  0  0  0  0
    6.7259  -13.7331   26.6964 C   0  0  0  0  0  0  0  0  0  0  0  0
    6.7383  -12.4212   27.1136 N   0  0  0  0  0  0  0  0  0  0  0  0
   12.8112  -18.9214   23.2991 C   0  0  0  0  0  0  0  0  0  0  0  0
   13.1943  -19.3052   24.6143 O   0  0  0  0  0  0  0  0  0  0  0  0
   14.3352  -19.7484   24.7998 C   0  0  0  0  0  0  0  0  0  0  0  0
   12.2564  -19.1810   25.7419 C   0  0  0  0  0  0  0  0  0  0  0  0
   11.1956  -18.1762   25.4274 C   0  0  1  0  0  0  0  0  0  0  0  0
   10.2611  -18.0745   26.6296 N   0  0  0  0  0  0  0  0  0  0  0  0
    9.3200  -17.0112   26.3336 C   0  0  0  0  0  0  0  0  0  0  0  0
   10.9970  -17.7399   27.8547 O   0  0  0  0  0  0  0  0  0  0  0  0
   11.0464  -16.6159   28.3953 O   0  0  0  0  0  0  0  0  0  0  0  0
  2  1  1  0
  3  2  2  0
  4  2  1  0
  5  6  1  0
  5  4  1  0
  7  6  1  0
  8  7  1  0
  8 10  1  0
  8  9  1  1
 10 19  1  0
 10 11  2  0
 12 13  1  0
 13 23  2  0
 13 14  1  0
 14 15  2  0
 15 16  1  0
 16 17  1  0
 18 17  1  6
 19 18  1  0
 20 18  1  0
 20 30  1  0
 21 20  2  0
 22 16  2  0
 23 22  1  0
 24 25  1  0
 25 26  2  0
 27 25  1  0
 27 28  1  0
 29 28  1  6
 29 30  1  0
 29 31  1  0
 31 33  1  0
 32 31  2  0
M  END
$$$$
