RYQ.pdb
     RDKit          3D

 33 33  0  0  1  0  0  0  0  0999 V2000
    7.8021  -13.1968   14.8096 N   0  0  0  0  0  0  0  0  0  0  0  0
    8.0037  -14.4157   14.0774 C   0  0  0  0  0  0  0  0  0  0  0  0
    7.3839  -14.6321   12.9703 N   0  0  0  0  0  0  0  0  0  0  0  0
    8.9022  -15.3590   14.6174 N   0  0  0  0  0  0  0  0  0  0  0  0
    9.5020  -15.1189   15.9080 C   0  0  0  0  0  0  0  0  0  0  0  0
    8.5020  -15.3206   17.0063 C   0  0  0  0  0  0  0  0  0  0  0  0
    9.0839  -14.8541   18.3158 C   0  0  0  0  0  0  0  0  0  0  0  0
    9.0541  -15.9725   19.3477 C   0  0  2  0  0  0  0  0  0  0  0  0
    7.8837  -16.7798   19.1982 N   0  0  0  0  0  0  0  0  0  0  0  0
    9.1551  -15.3412   20.6880 C   0  0  0  0  0  0  0  0  0  0  0  0
   10.0992  -14.5530   20.9537 O   0  0  0  0  0  0  0  0  0  0  0  0
    7.5685  -15.4750   12.3902 O   0  0  0  0  0  0  0  0  0  0  0  0
    7.2145  -11.3256   28.1909 C   0  0  0  0  0  0  0  0  0  0  0  0
    7.1454  -12.1247   27.0613 C   0  0  0  0  0  0  0  0  0  0  0  0
    6.5117  -13.3328   27.1397 C   0  0  0  0  0  0  0  0  0  0  0  0
    6.4397  -14.1324   26.0192 C   0  0  0  0  0  0  0  0  0  0  0  0
    6.9784  -13.7781   24.8050 C   0  0  0  0  0  0  0  0  0  0  0  0
    6.9087  -14.6309   23.5809 C   0  0  2  0  0  0  0  0  0  0  0  0
    8.2606  -14.8962   22.9834 N   0  0  0  0  0  0  0  0  0  0  0  0
    8.2193  -15.5778   21.7317 C   0  0  0  0  0  0  0  0  0  0  0  0
    9.0660  -15.6311   23.9813 O   0  0  0  0  0  0  0  0  0  0  0  0
    9.2427  -15.0956   25.1054 C   0  0  0  0  0  0  0  0  0  0  0  0
    7.6223  -12.5408   24.7422 C   0  0  0  0  0  0  0  0  0  0  0  0
    7.6958  -11.7403   25.8598 N   0  0  0  0  0  0  0  0  0  0  0  0
   13.7277  -19.1182   23.8210 C   0  0  0  0  0  0  0  0  0  0  0  0
   13.6205  -18.8349   25.2110 O   0  0  0  0  0  0  0  0  0  0  0  0
   14.3492  -19.4455   26.0039 C   0  0  0  0  0  0  0  0  0  0  0  0
   12.6620  -17.8343   25.7073 C   0  0  0  0  0  0  0  0  0  0  0  0
   11.8707  -17.2657   24.5739 C   0  0  1  0  0  0  0  0  0  0  0  0
   10.3934  -17.5480   24.8327 N   0  0  0  0  0  0  0  0  0  0  0  0
    9.6557  -16.9091   23.7595 C   0  0  0  0  0  0  0  0  0  0  0  0
    9.9569  -16.9884   26.1174 O   0  0  0  0  0  0  0  0  0  0  0  0
    9.7385  -15.7826   26.3546 O   0  0  0  0  0  0  0  0  0  0  0  0
  2  1  1  0
  3  2  2  0
  4  2  1  0
  5  6  1  0
  5  4  1  0
  7  6  1  0
  8  7  1  0
  8 10  1  0
  8  9  1  1
 10 19  1  0
 10 11  2  0
 12 13  1  0
 13 23  2  0
 13 14  1  0
 14 15  2  0
 15 16  1  0
 16 17  1  0
 18 17  1  6
 19 18  1  0
 20 18  1  0
 20 30  1  0
 21 20  2  0
 22 16  2  0
 23 22  1  0
 24 25  1  0
 25 26  2  0
 27 25  1  0
 27 28  1  0
 29 28  1  6
 29 30  1  0
 29 31  1  0
 31 33  1  0
 32 31  2  0
M  END
$$$$
