RYQ.pdb
     RDKit          3D

 33 33  0  0  1  0  0  0  0  0999 V2000
    7.9921  -13.0452   15.8091 N   0  0  0  0  0  0  0  0  0  0  0  0
    7.8756  -14.0314   14.7717 C   0  0  0  0  0  0  0  0  0  0  0  0
    8.0750  -13.7207   13.5387 N   0  0  0  0  0  0  0  0  0  0  0  0
    7.5360  -15.3449   15.1568 N   0  0  0  0  0  0  0  0  0  0  0  0
    7.5259  -15.7007   16.5554 C   0  0  0  0  0  0  0  0  0  0  0  0
    8.9138  -15.9917   17.0414 C   0  0  0  0  0  0  0  0  0  0  0  0
    9.1323  -15.3338   18.3796 C   0  0  0  0  0  0  0  0  0  0  0  0
    9.0385  -16.3553   19.5040 C   0  0  2  0  0  0  0  0  0  0  0  0
    7.8472  -17.1374   19.3909 N   0  0  0  0  0  0  0  0  0  0  0  0
    9.1236  -15.6113   20.7863 C   0  0  0  0  0  0  0  0  0  0  0  0
   10.1979  -15.0552   21.1326 O   0  0  0  0  0  0  0  0  0  0  0  0
    7.9706  -14.4142   12.7710 O   0  0  0  0  0  0  0  0  0  0  0  0
    7.3990  -12.2115   28.7487 C   0  0  0  0  0  0  0  0  0  0  0  0
    7.2841  -12.6868   27.4524 C   0  0  0  0  0  0  0  0  0  0  0  0
    6.6015  -13.8492   27.2289 C   0  0  0  0  0  0  0  0  0  0  0  0
    6.4837  -14.3273   25.9414 C   0  0  0  0  0  0  0  0  0  0  0  0
    7.0232  -13.6903   24.8491 C   0  0  0  0  0  0  0  0  0  0  0  0
    6.9044  -14.1928   23.4477 C   0  0  1  0  0  0  0  0  0  0  0  0
    8.1480  -14.8899   22.9761 N   0  0  0  0  0  0  0  0  0  0  0  0
    8.0288  -15.4806   21.6838 C   0  0  0  0  0  0  0  0  0  0  0  0
    8.5317  -15.8845   23.9999 O   0  0  0  0  0  0  0  0  0  0  0  0
    7.7067  -16.7923   24.2774 C   0  0  0  0  0  0  0  0  0  0  0  0
    7.7174  -12.5041   25.0949 C   0  0  0  0  0  0  0  0  0  0  0  0
    7.8366  -12.0244   26.3798 N   0  0  0  0  0  0  0  0  0  0  0  0
   13.2156  -15.9104   22.7542 C   0  0  0  0  0  0  0  0  0  0  0  0
   13.1523  -16.9604   23.7120 O   0  0  0  0  0  0  0  0  0  0  0  0
   13.7214  -18.0315   23.4640 C   0  0  0  0  0  0  0  0  0  0  0  0
   12.4247  -16.7853   24.9794 C   0  0  0  0  0  0  0  0  0  0  0  0
   11.2625  -17.7227   25.0453 C   0  0  1  0  0  0  0  0  0  0  0  0
   10.0691  -16.9657   25.6212 N   0  0  0  0  0  0  0  0  0  0  0  0
    9.7757  -15.8889   24.6946 C   0  0  0  0  0  0  0  0  0  0  0  0
   10.3789  -16.3972   26.9384 O   0  0  0  0  0  0  0  0  0  0  0  0
   10.4987  -15.1831   27.2022 O   0  0  0  0  0  0  0  0  0  0  0  0
  2  1  1  0
  3  2  2  0
  4  2  1  0
  5  6  1  0
  5  4  1  0
  7  6  1  0
  8  7  1  0
  8 10  1  0
  8  9  1  1
 10 19  1  0
 10 11  2  0
 12 13  1  0
 13 23  2  0
 13 14  1  0
 14 15  2  0
 15 16  1  0
 16 17  1  0
 18 17  1  6
 19 18  1  0
 20 18  1  0
 20 30  1  0
 21 20  2  0
 22 16  2  0
 23 22  1  0
 24 25  1  0
 25 26  2  0
 27 25  1  0
 27 28  1  0
 29 28  1  6
 29 30  1  0
 29 31  1  0
 31 33  1  0
 32 31  2  0
M  END
$$$$
