RYQ.pdb
     RDKit          3D

 33 33  0  0  1  0  0  0  0  0999 V2000
    7.2492  -12.2941   18.5740 N   0  0  0  0  0  0  0  0  0  0  0  0
    7.9150  -13.2985   17.7927 C   0  0  0  0  0  0  0  0  0  0  0  0
    7.2890  -13.9406   16.8695 N   0  0  0  0  0  0  0  0  0  0  0  0
    9.2733  -13.5504   18.0766 N   0  0  0  0  0  0  0  0  0  0  0  0
    9.6783  -13.8490   19.4293 C   0  0  0  0  0  0  0  0  0  0  0  0
    9.3877  -15.2797   19.7692 C   0  0  0  0  0  0  0  0  0  0  0  0
    9.9859  -15.6152   21.1111 C   0  0  0  0  0  0  0  0  0  0  0  0
    9.1376  -16.6508   21.8355 C   0  0  2  0  0  0  0  0  0  0  0  0
    7.7765  -16.5959   21.4017 N   0  0  0  0  0  0  0  0  0  0  0  0
    9.2917  -16.4085   23.2924 C   0  0  0  0  0  0  0  0  0  0  0  0
   10.3160  -15.8305   23.7394 O   0  0  0  0  0  0  0  0  0  0  0  0
    7.7516  -14.6755   16.2976 O   0  0  0  0  0  0  0  0  0  0  0  0
    6.7259  -10.3755   25.9969 C   0  0  0  0  0  0  0  0  0  0  0  0
    6.8357  -11.7548   26.0666 C   0  0  0  0  0  0  0  0  0  0  0  0
    7.9271  -12.3044   26.6781 C   0  0  0  0  0  0  0  0  0  0  0  0
    8.0422  -13.6761   26.7506 C   0  0  0  0  0  0  0  0  0  0  0  0
    7.1050  -14.5390   26.2336 C   0  0  0  0  0  0  0  0  0  0  0  0
    7.2127  -16.0269   26.3042 C   0  0  2  0  0  0  0  0  0  0  0  0
    8.4596  -16.5480   25.6494 N   0  0  0  0  0  0  0  0  0  0  0  0
    8.3205  -16.8019   24.2533 C   0  0  0  0  0  0  0  0  0  0  0  0
    8.8933  -17.7543   26.3852 O   0  0  0  0  0  0  0  0  0  0  0  0
    8.0778  -18.7062   26.4885 C   0  0  0  0  0  0  0  0  0  0  0  0
    5.9963  -13.9611   25.6122 C   0  0  0  0  0  0  0  0  0  0  0  0
    5.8789  -12.5914   25.5384 N   0  0  0  0  0  0  0  0  0  0  0  0
   13.1489  -21.6188   26.2329 C   0  0  0  0  0  0  0  0  0  0  0  0
   12.8562  -20.5001   25.4043 O   0  0  0  0  0  0  0  0  0  0  0  0
   13.2036  -20.5282   24.2164 C   0  0  0  0  0  0  0  0  0  0  0  0
   12.1524  -19.3244   25.9417 C   0  0  0  0  0  0  0  0  0  0  0  0
   11.9281  -19.4797   27.4112 C   0  0  2  0  0  0  0  0  0  0  0  0
   10.4718  -19.1363   27.7119 N   0  0  0  0  0  0  0  0  0  0  0  0
   10.1756  -17.9164   26.9849 C   0  0  0  0  0  0  0  0  0  0  0  0
   10.2595  -18.9065   29.1458 O   0  0  0  0  0  0  0  0  0  0  0  0
    9.9571  -17.8178   29.6762 O   0  0  0  0  0  0  0  0  0  0  0  0
  2  1  1  0
  3  2  2  0
  4  2  1  0
  5  6  1  0
  5  4  1  0
  7  6  1  0
  8  7  1  0
  8 10  1  0
  8  9  1  6
 10 19  1  0
 10 11  2  0
 12 13  1  0
 13 23  2  0
 13 14  1  0
 14 15  2  0
 15 16  1  0
 16 17  1  0
 18 17  1  6
 19 18  1  0
 20 18  1  0
 20 30  1  0
 21 20  2  0
 22 16  2  0
 23 22  1  0
 24 25  1  0
 25 26  2  0
 27 25  1  0
 27 28  1  0
 29 28  1  6
 29 30  1  0
 29 31  1  0
 31 33  1  0
 32 31  2  0
M  END
$$$$
