RYQ.pdb
     RDKit          3D

 33 33  0  0  1  0  0  0  0  0999 V2000
    7.3432  -12.7855   16.8600 N   0  0  0  0  0  0  0  0  0  0  0  0
    7.3654  -13.5599   15.6507 C   0  0  0  0  0  0  0  0  0  0  0  0
    7.3899  -12.9864   14.4987 N   0  0  0  0  0  0  0  0  0  0  0  0
    7.3594  -14.9645   15.7765 N   0  0  0  0  0  0  0  0  0  0  0  0
    7.0815  -15.5672   17.0580 C   0  0  0  0  0  0  0  0  0  0  0  0
    8.3462  -15.7721   17.8362 C   0  0  0  0  0  0  0  0  0  0  0  0
    8.0355  -15.8121   19.3103 C   0  0  0  0  0  0  0  0  0  0  0  0
    8.0849  -14.4139   19.9096 C   0  0  2  0  0  0  0  0  0  0  0  0
    8.7985  -13.5139   19.0583 N   0  0  0  0  0  0  0  0  0  0  0  0
    8.6871  -14.5327   21.2618 C   0  0  0  0  0  0  0  0  0  0  0  0
    9.8859  -14.8893   21.3984 O   0  0  0  0  0  0  0  0  0  0  0  0
    7.3984  -13.5293   13.6120 O   0  0  0  0  0  0  0  0  0  0  0  0
   10.0468  -14.5523   29.9858 C   0  0  0  0  0  0  0  0  0  0  0  0
    9.4523  -14.4286   28.7405 C   0  0  0  0  0  0  0  0  0  0  0  0
    9.5209  -13.2302   28.0876 C   0  0  0  0  0  0  0  0  0  0  0  0
    8.9314  -13.1007   26.8483 C   0  0  0  0  0  0  0  0  0  0  0  0
    8.2663  -14.1266   26.2197 C   0  0  0  0  0  0  0  0  0  0  0  0
    7.6231  -14.0047   24.8773 C   0  0  2  0  0  0  0  0  0  0  0  0
    8.5447  -14.3939   23.7573 N   0  0  0  0  0  0  0  0  0  0  0  0
    7.9707  -14.2598   22.4590 C   0  0  0  0  0  0  0  0  0  0  0  0
    9.0146  -15.7724   24.0090 O   0  0  0  0  0  0  0  0  0  0  0  0
    8.2827  -16.7225   23.6305 C   0  0  0  0  0  0  0  0  0  0  0  0
    8.2055  -15.3441   26.9005 C   0  0  0  0  0  0  0  0  0  0  0  0
    8.7933  -15.4761   28.1383 N   0  0  0  0  0  0  0  0  0  0  0  0
   11.1940  -18.7856   20.5487 C   0  0  0  0  0  0  0  0  0  0  0  0
   11.8598  -19.4691   21.6039 O   0  0  0  0  0  0  0  0  0  0  0  0
   12.6733  -20.3584   21.3211 C   0  0  0  0  0  0  0  0  0  0  0  0
   11.5922  -19.1314   23.0113 C   0  0  0  0  0  0  0  0  0  0  0  0
   10.9716  -17.7754   23.1115 C   0  0  1  0  0  0  0  0  0  0  0  0
   10.7359  -17.4649   24.5870 N   0  0  0  0  0  0  0  0  0  0  0  0
   10.2440  -16.1017   24.6496 C   0  0  0  0  0  0  0  0  0  0  0  0
   11.9784  -17.5651   25.3618 O   0  0  0  0  0  0  0  0  0  0  0  0
   12.5931  -16.6138   25.8864 O   0  0  0  0  0  0  0  0  0  0  0  0
  2  1  1  0
  3  2  2  0
  4  2  1  0
  5  6  1  0
  5  4  1  0
  7  6  1  0
  8  7  1  0
  8 10  1  0
  8  9  1  6
 10 19  1  0
 10 11  2  0
 12 13  1  0
 13 23  2  0
 13 14  1  0
 14 15  2  0
 15 16  1  0
 16 17  1  0
 18 17  1  6
 19 18  1  0
 20 18  1  0
 20 30  1  0
 21 20  2  0
 22 16  2  0
 23 22  1  0
 24 25  1  0
 25 26  2  0
 27 25  1  0
 27 28  1  0
 29 28  1  6
 29 30  1  0
 29 31  1  0
 31 33  1  0
 32 31  2  0
M  END
$$$$
