RYQ.pdb
     RDKit          3D

 33 33  0  0  1  0  0  0  0  0999 V2000
   11.3344  -22.5978   16.9632 N   0  0  0  0  0  0  0  0  0  0  0  0
   10.1334  -22.6372   16.1766 C   0  0  0  0  0  0  0  0  0  0  0  0
    9.9562  -23.5490   15.2858 N   0  0  0  0  0  0  0  0  0  0  0  0
    9.1632  -21.6427   16.4189 N   0  0  0  0  0  0  0  0  0  0  0  0
    9.4346  -20.5956   17.3742 C   0  0  0  0  0  0  0  0  0  0  0  0
   10.6550  -19.8188   16.9814 C   0  0  0  0  0  0  0  0  0  0  0  0
   11.0058  -18.8379   18.0704 C   0  0  0  0  0  0  0  0  0  0  0  0
    9.8007  -17.9818   18.4332 C   0  0  2  0  0  0  0  0  0  0  0  0
    9.5274  -17.0188   17.4125 N   0  0  0  0  0  0  0  0  0  0  0  0
   10.0789  -17.3630   19.7541 C   0  0  0  0  0  0  0  0  0  0  0  0
   11.2193  -16.9003   20.0157 O   0  0  0  0  0  0  0  0  0  0  0  0
    9.1259  -23.5551   14.6599 O   0  0  0  0  0  0  0  0  0  0  0  0
    7.2638  -11.8766   18.1533 C   0  0  0  0  0  0  0  0  0  0  0  0
    7.5165  -12.7695   19.1821 C   0  0  0  0  0  0  0  0  0  0  0  0
    6.7504  -13.8961   19.2873 C   0  0  0  0  0  0  0  0  0  0  0  0
    6.9969  -14.7883   20.3087 C   0  0  0  0  0  0  0  0  0  0  0  0
    7.9873  -14.6068   21.2448 C   0  0  0  0  0  0  0  0  0  0  0  0
    8.2692  -15.5632   22.3568 C   0  0  2  0  0  0  0  0  0  0  0  0
    9.3368  -16.5593   22.0059 N   0  0  0  0  0  0  0  0  0  0  0  0
    9.1039  -17.2545   20.7831 C   0  0  0  0  0  0  0  0  0  0  0  0
    9.4876  -17.4892   23.1448 O   0  0  0  0  0  0  0  0  0  0  0  0
    9.2170  -18.7026   22.9543 C   0  0  0  0  0  0  0  0  0  0  0  0
    8.7607  -13.4508   21.1229 C   0  0  0  0  0  0  0  0  0  0  0  0
    8.5166  -12.5580   20.1037 N   0  0  0  0  0  0  0  0  0  0  0  0
   14.6622  -17.9762   22.9752 C   0  0  0  0  0  0  0  0  0  0  0  0
   13.8232  -19.1250   22.9659 O   0  0  0  0  0  0  0  0  0  0  0  0
   14.2304  -20.1589   22.4201 C   0  0  0  0  0  0  0  0  0  0  0  0
   12.4916  -19.0942   23.5921 C   0  0  0  0  0  0  0  0  0  0  0  0
   12.2046  -17.7322   24.1366 C   0  0  2  0  0  0  0  0  0  0  0  0
   11.0070  -17.8352   25.0769 N   0  0  0  0  0  0  0  0  0  0  0  0
    9.9222  -17.1069   24.4468 C   0  0  0  0  0  0  0  0  0  0  0  0
   11.2971  -17.2329   26.3835 O   0  0  0  0  0  0  0  0  0  0  0  0
   10.7891  -16.1866   26.8366 O   0  0  0  0  0  0  0  0  0  0  0  0
  2  1  1  0
  3  2  2  0
  4  2  1  0
  5  6  1  0
  5  4  1  0
  7  6  1  0
  8  7  1  0
  8 10  1  0
  8  9  1  6
 10 19  1  0
 10 11  2  0
 12 13  1  0
 13 23  2  0
 13 14  1  0
 14 15  2  0
 15 16  1  0
 16 17  1  0
 18 17  1  6
 19 18  1  0
 20 18  1  0
 20 30  1  0
 21 20  2  0
 22 16  2  0
 23 22  1  0
 24 25  1  0
 25 26  2  0
 27 25  1  0
 27 28  1  0
 29 28  1  6
 29 30  1  0
 29 31  1  0
 31 33  1  0
 32 31  2  0
M  END
$$$$
