RYQ.pdb
     RDKit          3D

 33 33  0  0  1  0  0  0  0  0999 V2000
   11.0610  -16.3749   13.3739 N   0  0  0  0  0  0  0  0  0  0  0  0
    9.9782  -17.1045   13.9720 C   0  0  0  0  0  0  0  0  0  0  0  0
    8.8072  -17.1060   13.4378 N   0  0  0  0  0  0  0  0  0  0  0  0
   10.2488  -17.8141   15.1603 N   0  0  0  0  0  0  0  0  0  0  0  0
   10.2256  -17.1236   16.4274 C   0  0  0  0  0  0  0  0  0  0  0  0
   11.6161  -16.7952   16.8810 C   0  0  0  0  0  0  0  0  0  0  0  0
   11.5605  -16.0312   18.1789 C   0  0  0  0  0  0  0  0  0  0  0  0
   11.2662  -16.9668   19.3428 C   0  0  2  0  0  0  0  0  0  0  0  0
   10.1049  -17.7598   19.0848 N   0  0  0  0  0  0  0  0  0  0  0  0
   11.1367  -16.1294   20.5622 C   0  0  0  0  0  0  0  0  0  0  0  0
   12.0794  -15.3794   20.9255 O   0  0  0  0  0  0  0  0  0  0  0  0
    8.0258  -17.6738   13.8226 O   0  0  0  0  0  0  0  0  0  0  0  0
    6.7306  -12.3378   17.8082 C   0  0  0  0  0  0  0  0  0  0  0  0
    7.1720  -12.8883   19.0005 C   0  0  0  0  0  0  0  0  0  0  0  0
    6.7960  -14.1616   19.3239 C   0  0  0  0  0  0  0  0  0  0  0  0
    7.2319  -14.7149   20.5088 C   0  0  0  0  0  0  0  0  0  0  0  0
    8.0379  -14.0474   21.4003 C   0  0  0  0  0  0  0  0  0  0  0  0
    8.5204  -14.6315   22.6874 C   0  0  2  0  0  0  0  0  0  0  0  0
    9.8508  -15.3144   22.5495 N   0  0  0  0  0  0  0  0  0  0  0  0
    9.9727  -16.1186   21.3784 C   0  0  0  0  0  0  0  0  0  0  0  0
   10.0933  -16.0973   23.7795 O   0  0  0  0  0  0  0  0  0  0  0  0
   10.0224  -15.4977   24.8828 C   0  0  0  0  0  0  0  0  0  0  0  0
    8.4127  -12.7476   21.0547 C   0  0  0  0  0  0  0  0  0  0  0  0
    7.9788  -12.1926   19.8720 N   0  0  0  0  0  0  0  0  0  0  0  0
   10.5761  -22.3713   24.5631 C   0  0  0  0  0  0  0  0  0  0  0  0
   10.9310  -21.8256   25.8280 O   0  0  0  0  0  0  0  0  0  0  0  0
   11.2794  -22.5935   26.7344 C   0  0  0  0  0  0  0  0  0  0  0  0
   10.8877  -20.3735   26.0644 C   0  0  0  0  0  0  0  0  0  0  0  0
   10.5413  -19.6516   24.8024 C   0  0  1  0  0  0  0  0  0  0  0  0
   10.5970  -18.1516   25.0784 N   0  0  0  0  0  0  0  0  0  0  0  0
   10.3996  -17.4886   23.8034 C   0  0  0  0  0  0  0  0  0  0  0  0
   11.8976  -17.7556   25.6315 O   0  0  0  0  0  0  0  0  0  0  0  0
   12.8940  -17.3935   24.9726 O   0  0  0  0  0  0  0  0  0  0  0  0
  2  1  1  0
  3  2  2  0
  4  2  1  0
  5  6  1  0
  5  4  1  0
  7  6  1  0
  8  7  1  0
  8 10  1  0
  8  9  1  6
 10 19  1  0
 10 11  2  0
 12 13  1  0
 13 23  2  0
 13 14  1  0
 14 15  2  0
 15 16  1  0
 16 17  1  0
 18 17  1  6
 19 18  1  0
 20 18  1  0
 20 30  1  0
 21 20  2  0
 22 16  2  0
 23 22  1  0
 24 25  1  0
 25 26  2  0
 27 25  1  0
 27 28  1  0
 29 28  1  1
 29 30  1  0
 29 31  1  0
 31 33  1  0
 32 31  2  0
M  END
$$$$
