RYQ.pdb
     RDKit          3D

 33 33  0  0  1  0  0  0  0  0999 V2000
   10.9012  -20.8804   22.8857 N   0  0  0  0  0  0  0  0  0  0  0  0
    9.9731  -21.6485   22.1039 C   0  0  0  0  0  0  0  0  0  0  0  0
    9.5545  -22.7949   22.5126 N   0  0  0  0  0  0  0  0  0  0  0  0
    9.5422  -21.0988   20.8787 N   0  0  0  0  0  0  0  0  0  0  0  0
   10.4941  -20.8884   19.8145 C   0  0  0  0  0  0  0  0  0  0  0  0
   11.3460  -19.6864   20.0911 C   0  0  0  0  0  0  0  0  0  0  0  0
   11.3425  -18.7737   18.8919 C   0  0  0  0  0  0  0  0  0  0  0  0
   10.1773  -17.7969   18.9615 C   0  0  2  0  0  0  0  0  0  0  0  0
   10.1265  -16.9723   17.7947 N   0  0  0  0  0  0  0  0  0  0  0  0
   10.3279  -17.0168   20.2161 C   0  0  0  0  0  0  0  0  0  0  0  0
   11.3161  -16.2556   20.3806 O   0  0  0  0  0  0  0  0  0  0  0  0
    8.8828  -23.3658   21.9612 O   0  0  0  0  0  0  0  0  0  0  0  0
    6.8427  -12.1013   18.2516 C   0  0  0  0  0  0  0  0  0  0  0  0
    7.1781  -12.9057   19.3286 C   0  0  0  0  0  0  0  0  0  0  0  0
    6.5228  -14.0922   19.5014 C   0  0  0  0  0  0  0  0  0  0  0  0
    6.8520  -14.8969   20.5710 C   0  0  0  0  0  0  0  0  0  0  0  0
    7.8195  -14.5686   21.4909 C   0  0  0  0  0  0  0  0  0  0  0  0
    8.1900  -15.4285   22.6545 C   0  0  2  0  0  0  0  0  0  0  0  0
    9.4499  -16.2104   22.4175 N   0  0  0  0  0  0  0  0  0  0  0  0
    9.3930  -17.0755   21.2855 C   0  0  0  0  0  0  0  0  0  0  0  0
    9.7699  -16.9498   23.6566 O   0  0  0  0  0  0  0  0  0  0  0  0
    8.9068  -17.7460   24.1070 C   0  0  0  0  0  0  0  0  0  0  0  0
    8.4793  -13.3531   21.2997 C   0  0  0  0  0  0  0  0  0  0  0  0
    8.1524  -12.5475   20.2323 N   0  0  0  0  0  0  0  0  0  0  0  0
   15.3689  -19.4945   23.5429 C   0  0  0  0  0  0  0  0  0  0  0  0
   14.7394  -18.4585   24.2873 O   0  0  0  0  0  0  0  0  0  0  0  0
   15.4405  -17.7061   24.9765 C   0  0  0  0  0  0  0  0  0  0  0  0
   13.2794  -18.2765   24.2450 C   0  0  0  0  0  0  0  0  0  0  0  0
   12.7676  -17.8657   25.5878 C   0  0  2  0  0  0  0  0  0  0  0  0
   11.2520  -17.7124   25.4960 N   0  0  0  0  0  0  0  0  0  0  0  0
   10.9927  -16.8259   24.3775 C   0  0  0  0  0  0  0  0  0  0  0  0
   10.6973  -17.1204   26.7190 O   0  0  0  0  0  0  0  0  0  0  0  0
   10.1492  -16.0025   26.8081 O   0  0  0  0  0  0  0  0  0  0  0  0
  2  1  1  0
  3  2  2  0
  4  2  1  0
  5  6  1  0
  5  4  1  0
  7  6  1  0
  8  7  1  0
  8 10  1  0
  8  9  1  6
 10 19  1  0
 10 11  2  0
 12 13  1  0
 13 23  2  0
 13 14  1  0
 14 15  2  0
 15 16  1  0
 16 17  1  0
 18 17  1  6
 19 18  1  0
 20 18  1  0
 20 30  1  0
 21 20  2  0
 22 16  2  0
 23 22  1  0
 24 25  1  0
 25 26  2  0
 27 25  1  0
 27 28  1  0
 29 28  1  6
 29 30  1  0
 29 31  1  0
 31 33  1  0
 32 31  2  0
M  END
$$$$
