RYQ.pdb
     RDKit          3D

 33 33  0  0  1  0  0  0  0  0999 V2000
    6.5040  -22.9664   21.8723 N   0  0  0  0  0  0  0  0  0  0  0  0
    7.1640  -23.1547   20.6107 C   0  0  0  0  0  0  0  0  0  0  0  0
    6.7952  -24.0875   19.8043 N   0  0  0  0  0  0  0  0  0  0  0  0
    8.2254  -22.2816   20.2942 N   0  0  0  0  0  0  0  0  0  0  0  0
    8.6021  -21.2457   21.2257 C   0  0  0  0  0  0  0  0  0  0  0  0
    8.6205  -19.9057   20.5541 C   0  0  0  0  0  0  0  0  0  0  0  0
    9.0048  -18.8426   21.5506 C   0  0  0  0  0  0  0  0  0  0  0  0
    9.0641  -17.4754   20.8842 C   0  0  2  0  0  0  0  0  0  0  0  0
   10.1659  -17.3923   19.9771 N   0  0  0  0  0  0  0  0  0  0  0  0
    9.1250  -16.4585   21.9646 C   0  0  0  0  0  0  0  0  0  0  0  0
   10.2217  -16.1706   22.5101 O   0  0  0  0  0  0  0  0  0  0  0  0
    7.1968  -24.1828   18.8500 O   0  0  0  0  0  0  0  0  0  0  0  0
    6.7939  -10.6560   28.2311 C   0  0  0  0  0  0  0  0  0  0  0  0
    6.8034  -11.4463   27.0933 C   0  0  0  0  0  0  0  0  0  0  0  0
    7.7188  -11.1880   26.1122 C   0  0  0  0  0  0  0  0  0  0  0  0
    7.7333  -11.9708   24.9778 C   0  0  0  0  0  0  0  0  0  0  0  0
    6.8638  -13.0158   24.7726 C   0  0  0  0  0  0  0  0  0  0  0  0
    6.8659  -13.8748   23.5508 C   0  0  1  0  0  0  0  0  0  0  0  0
    8.0356  -14.8156   23.5077 N   0  0  0  0  0  0  0  0  0  0  0  0
    7.9817  -15.7616   22.4423 C   0  0  0  0  0  0  0  0  0  0  0  0
    8.1389  -15.4786   24.8246 O   0  0  0  0  0  0  0  0  0  0  0  0
    8.4179  -14.7659   25.8226 C   0  0  0  0  0  0  0  0  0  0  0  0
    5.9350  -13.2662   25.7845 C   0  0  0  0  0  0  0  0  0  0  0  0
    5.9184  -12.4859   26.9185 N   0  0  0  0  0  0  0  0  0  0  0  0
    6.6135  -21.3705   26.6145 C   0  0  0  0  0  0  0  0  0  0  0  0
    7.3243  -20.8328   27.7233 O   0  0  0  0  0  0  0  0  0  0  0  0
    7.4846  -21.5363   28.7293 C   0  0  0  0  0  0  0  0  0  0  0  0
    7.8637  -19.4640   27.6842 C   0  0  0  0  0  0  0  0  0  0  0  0
    7.5921  -18.8361   26.3553 C   0  0  1  0  0  0  0  0  0  0  0  0
    8.1707  -17.4240   26.3659 N   0  0  0  0  0  0  0  0  0  0  0  0
    7.9408  -16.8724   25.0442 C   0  0  0  0  0  0  0  0  0  0  0  0
    9.6128  -17.4368   26.6388 O   0  0  0  0  0  0  0  0  0  0  0  0
   10.5184  -17.5464   25.7867 O   0  0  0  0  0  0  0  0  0  0  0  0
  2  1  1  0
  3  2  2  0
  4  2  1  0
  5  6  1  0
  5  4  1  0
  7  6  1  0
  8  7  1  0
  8 10  1  0
  8  9  1  6
 10 19  1  0
 10 11  2  0
 12 13  1  0
 13 23  2  0
 13 14  1  0
 14 15  2  0
 15 16  1  0
 16 17  1  0
 18 17  1  6
 19 18  1  0
 20 18  1  0
 20 30  1  0
 21 20  2  0
 22 16  2  0
 23 22  1  0
 24 25  1  0
 25 26  2  0
 27 25  1  0
 27 28  1  0
 29 28  1  1
 29 30  1  0
 29 31  1  0
 31 33  1  0
 32 31  2  0
M  END
$$$$
