RYQ.pdb
     RDKit          3D

 33 33  0  0  1  0  0  0  0  0999 V2000
    5.7942  -21.0328   17.9223 N   0  0  0  0  0  0  0  0  0  0  0  0
    5.9977  -20.2659   16.7252 C   0  0  0  0  0  0  0  0  0  0  0  0
    5.7368  -20.7652   15.5679 N   0  0  0  0  0  0  0  0  0  0  0  0
    6.4916  -18.9529   16.8689 N   0  0  0  0  0  0  0  0  0  0  0  0
    6.8568  -18.4646   18.1770 C   0  0  0  0  0  0  0  0  0  0  0  0
    8.2181  -18.9554   18.5682 C   0  0  0  0  0  0  0  0  0  0  0  0
    8.6123  -18.3581   19.8944 C   0  0  0  0  0  0  0  0  0  0  0  0
    9.0660  -16.9154   19.7222 C   0  0  2  0  0  0  0  0  0  0  0  0
   10.2914  -16.8452   18.9893 N   0  0  0  0  0  0  0  0  0  0  0  0
    9.1667  -16.3181   21.0780 C   0  0  0  0  0  0  0  0  0  0  0  0
   10.1414  -16.5906   21.8256 O   0  0  0  0  0  0  0  0  0  0  0  0
    5.8870  -20.2297   14.6894 O   0  0  0  0  0  0  0  0  0  0  0  0
    7.7814  -11.6190   28.4134 C   0  0  0  0  0  0  0  0  0  0  0  0
    7.6449  -12.1692   27.1493 C   0  0  0  0  0  0  0  0  0  0  0  0
    6.5908  -13.0014   26.8970 C   0  0  0  0  0  0  0  0  0  0  0  0
    6.4495  -13.5519   25.6412 C   0  0  0  0  0  0  0  0  0  0  0  0
    7.3239  -13.3076   24.6089 C   0  0  0  0  0  0  0  0  0  0  0  0
    7.1857  -13.8941   23.2424 C   0  0  1  0  0  0  0  0  0  0  0  0
    8.3239  -14.8070   22.8872 N   0  0  0  0  0  0  0  0  0  0  0  0
    8.1969  -15.4240   21.6081 C   0  0  0  0  0  0  0  0  0  0  0  0
    8.4626  -15.8072   23.9666 O   0  0  0  0  0  0  0  0  0  0  0  0
    7.4941  -16.5801   24.1814 C   0  0  0  0  0  0  0  0  0  0  0  0
    8.3952  -12.4554   24.8835 C   0  0  0  0  0  0  0  0  0  0  0  0
    8.5388  -11.9042   26.1368 N   0  0  0  0  0  0  0  0  0  0  0  0
   13.7280  -18.3230   26.1953 C   0  0  0  0  0  0  0  0  0  0  0  0
   12.7080  -18.9562   26.9585 O   0  0  0  0  0  0  0  0  0  0  0  0
   13.0222  -19.8599   27.7440 C   0  0  0  0  0  0  0  0  0  0  0  0
   11.2997  -18.5501   26.8232 C   0  0  0  0  0  0  0  0  0  0  0  0
   11.1769  -17.4125   25.8616 C   0  0  1  0  0  0  0  0  0  0  0  0
    9.6970  -17.0719   25.7096 N   0  0  0  0  0  0  0  0  0  0  0  0
    9.6215  -15.9597   24.7815 C   0  0  0  0  0  0  0  0  0  0  0  0
    9.1039  -16.6718   26.9910 O   0  0  0  0  0  0  0  0  0  0  0  0
    9.0408  -15.5077   27.4371 O   0  0  0  0  0  0  0  0  0  0  0  0
  2  1  1  0
  3  2  2  0
  4  2  1  0
  5  6  1  0
  5  4  1  0
  7  6  1  0
  8  7  1  0
  8 10  1  0
  8  9  1  1
 10 19  1  0
 10 11  2  0
 12 13  1  0
 13 23  2  0
 13 14  1  0
 14 15  2  0
 15 16  1  0
 16 17  1  0
 18 17  1  6
 19 18  1  0
 20 18  1  0
 20 30  1  0
 21 20  2  0
 22 16  2  0
 23 22  1  0
 24 25  1  0
 25 26  2  0
 27 25  1  0
 27 28  1  0
 29 28  1  6
 29 30  1  0
 29 31  1  0
 31 33  1  0
 32 31  2  0
M  END
$$$$
