RYQ.pdb
     RDKit          3D

 33 33  0  0  1  0  0  0  0  0999 V2000
    8.2443  -17.3266   15.0525 N   0  0  0  0  0  0  0  0  0  0  0  0
    9.3488  -17.7580   15.8628 C   0  0  0  0  0  0  0  0  0  0  0  0
   10.4601  -18.1226   15.3255 N   0  0  0  0  0  0  0  0  0  0  0  0
    9.1669  -17.7658   17.2612 N   0  0  0  0  0  0  0  0  0  0  0  0
    8.1220  -16.9642   17.8515 C   0  0  0  0  0  0  0  0  0  0  0  0
    8.2059  -15.5450   17.3764 C   0  0  0  0  0  0  0  0  0  0  0  0
    9.0014  -14.7257   18.3597 C   0  0  0  0  0  0  0  0  0  0  0  0
    8.1376  -13.6338   18.9747 C   0  0  2  0  0  0  0  0  0  0  0  0
    8.3068  -12.3935   18.2840 N   0  0  0  0  0  0  0  0  0  0  0  0
    8.4909  -13.5480   20.4144 C   0  0  0  0  0  0  0  0  0  0  0  0
    9.5308  -12.9429   20.7824 O   0  0  0  0  0  0  0  0  0  0  0  0
   11.2511  -18.4920   15.8903 O   0  0  0  0  0  0  0  0  0  0  0  0
    8.1006  -12.9498   29.1716 C   0  0  0  0  0  0  0  0  0  0  0  0
    7.7938  -13.0596   27.8251 C   0  0  0  0  0  0  0  0  0  0  0  0
    8.7619  -12.7909   26.8988 C   0  0  0  0  0  0  0  0  0  0  0  0
    8.4628  -12.8984   25.5576 C   0  0  0  0  0  0  0  0  0  0  0  0
    7.2239  -13.2672   25.0893 C   0  0  0  0  0  0  0  0  0  0  0  0
    6.8826  -13.3899   23.6405 C   0  0  1  0  0  0  0  0  0  0  0  0
    8.0012  -13.9806   22.8311 N   0  0  0  0  0  0  0  0  0  0  0  0
    7.7012  -14.1272   21.4450 C   0  0  0  0  0  0  0  0  0  0  0  0
    8.3828  -15.2682   23.4484 O   0  0  0  0  0  0  0  0  0  0  0  0
    8.4744  -15.3162   24.7018 C   0  0  0  0  0  0  0  0  0  0  0  0
    6.2464  -13.5381   26.0487 C   0  0  0  0  0  0  0  0  0  0  0  0
    6.5425  -13.4315   27.3889 N   0  0  0  0  0  0  0  0  0  0  0  0
   12.5253  -14.8652   20.1093 C   0  0  0  0  0  0  0  0  0  0  0  0
   13.0669  -15.9386   20.8699 O   0  0  0  0  0  0  0  0  0  0  0  0
   14.2780  -16.1807   20.7848 C   0  0  0  0  0  0  0  0  0  0  0  0
   12.2093  -16.7531   21.7459 C   0  0  0  0  0  0  0  0  0  0  0  0
   10.8009  -16.2546   21.7039 C   0  0  1  0  0  0  0  0  0  0  0  0
    9.9898  -17.0235   22.7431 N   0  0  0  0  0  0  0  0  0  0  0  0
    8.6519  -16.4635   22.7211 C   0  0  0  0  0  0  0  0  0  0  0  0
   10.5557  -16.8675   24.0884 O   0  0  0  0  0  0  0  0  0  0  0  0
   10.3669  -15.9005   24.8546 O   0  0  0  0  0  0  0  0  0  0  0  0
  2  1  1  0
  3  2  2  0
  4  2  1  0
  5  6  1  0
  5  4  1  0
  7  6  1  0
  8  7  1  0
  8 10  1  0
  8  9  1  6
 10 19  1  0
 10 11  2  0
 12 13  1  0
 13 23  2  0
 13 14  1  0
 14 15  2  0
 15 16  1  0
 16 17  1  0
 18 17  1  6
 19 18  1  0
 20 18  1  0
 20 30  1  0
 21 20  2  0
 22 16  2  0
 23 22  1  0
 24 25  1  0
 25 26  2  0
 27 25  1  0
 27 28  1  0
 29 28  1  6
 29 30  1  0
 29 31  1  0
 31 33  1  0
 32 31  2  0
M  END
$$$$
