RYQ.pdb
     RDKit          3D

 33 33  0  0  1  0  0  0  0  0999 V2000
    7.6810  -13.9797   13.6309 N   0  0  0  0  0  0  0  0  0  0  0  0
    8.0987  -14.5392   14.8859 C   0  0  0  0  0  0  0  0  0  0  0  0
    9.2918  -14.9959   15.0417 N   0  0  0  0  0  0  0  0  0  0  0  0
    7.1543  -14.5676   15.9329 N   0  0  0  0  0  0  0  0  0  0  0  0
    7.5722  -14.9379   17.2638 C   0  0  0  0  0  0  0  0  0  0  0  0
    8.6499  -14.0211   17.7586 C   0  0  0  0  0  0  0  0  0  0  0  0
    9.1287  -14.4824   19.1111 C   0  0  0  0  0  0  0  0  0  0  0  0
    8.1347  -14.0934   20.1961 C   0  0  2  0  0  0  0  0  0  0  0  0
    7.6225  -12.7768   19.9770 N   0  0  0  0  0  0  0  0  0  0  0  0
    8.8267  -14.2359   21.5022 C   0  0  0  0  0  0  0  0  0  0  0  0
    9.8902  -13.6048   21.7342 O   0  0  0  0  0  0  0  0  0  0  0  0
    9.6629  -15.2631   15.9755 O   0  0  0  0  0  0  0  0  0  0  0  0
    5.9817  -10.3420   26.6578 C   0  0  0  0  0  0  0  0  0  0  0  0
    6.5031  -11.5582   26.2473 C   0  0  0  0  0  0  0  0  0  0  0  0
    5.6627  -12.6253   26.0987 C   0  0  0  0  0  0  0  0  0  0  0  0
    6.1754  -13.8380   25.6906 C   0  0  0  0  0  0  0  0  0  0  0  0
    7.5080  -14.0395   25.4193 C   0  0  0  0  0  0  0  0  0  0  0  0
    8.0805  -15.3454   24.9750 C   0  0  2  0  0  0  0  0  0  0  0  0
    9.0106  -15.2007   23.8049 N   0  0  0  0  0  0  0  0  0  0  0  0
    8.3487  -15.0710   22.5488 C   0  0  0  0  0  0  0  0  0  0  0  0
    9.9434  -16.3472   23.8170 O   0  0  0  0  0  0  0  0  0  0  0  0
    9.9600  -17.1036   22.8124 C   0  0  0  0  0  0  0  0  0  0  0  0
    8.3529  -12.9390   25.5761 C   0  0  0  0  0  0  0  0  0  0  0  0
    7.8434  -11.7267   25.9836 N   0  0  0  0  0  0  0  0  0  0  0  0
   11.3281  -21.1034   22.4158 C   0  0  0  0  0  0  0  0  0  0  0  0
   10.7464  -21.1272   23.7139 O   0  0  0  0  0  0  0  0  0  0  0  0
   10.3889  -22.2129   24.1895 C   0  0  0  0  0  0  0  0  0  0  0  0
   10.5685  -19.8868   24.4859 C   0  0  0  0  0  0  0  0  0  0  0  0
   11.1375  -18.7237   23.7393 C   0  0  2  0  0  0  0  0  0  0  0  0
   11.7565  -17.7626   24.7502 N   0  0  0  0  0  0  0  0  0  0  0  0
   10.8303  -16.6548   24.8890 C   0  0  0  0  0  0  0  0  0  0  0  0
   13.0512  -17.2528   24.2832 O   0  0  0  0  0  0  0  0  0  0  0  0
   14.1710  -17.5858   24.7227 O   0  0  0  0  0  0  0  0  0  0  0  0
  2  1  1  0
  3  2  2  0
  4  2  1  0
  5  6  1  0
  5  4  1  0
  7  6  1  0
  8  7  1  0
  8 10  1  0
  8  9  1  6
 10 19  1  0
 10 11  2  0
 12 13  1  0
 13 23  2  0
 13 14  1  0
 14 15  2  0
 15 16  1  0
 16 17  1  0
 18 17  1  1
 19 18  1  0
 20 18  1  0
 20 30  1  0
 21 20  2  0
 22 16  2  0
 23 22  1  0
 24 25  1  0
 25 26  2  0
 27 25  1  0
 27 28  1  0
 29 28  1  1
 29 30  1  0
 29 31  1  0
 31 33  1  0
 32 31  2  0
M  END
$$$$
