NHP.pdb
     RDKit          3D

 26 27  0  0  1  0  0  0  0  0999 V2000
   29.3879  -21.3227  -16.9810 N   0  0  0  0  0  0  0  0  0  0  0  0
   28.3383  -20.4744  -17.3666 C   0  0  0  0  0  0  0  0  0  0  0  0
   28.1839  -20.1721  -18.5748 O   0  0  0  0  0  0  0  0  0  0  0  0
   27.3968  -19.9187  -16.3691 C   0  0  0  0  0  0  0  0  0  0  0  0
   27.6812  -20.6473  -15.0619 C   0  0  2  0  0  0  0  0  0  0  0  0
   27.3564  -22.0430  -15.2992 N   0  0  0  0  0  0  0  0  0  0  0  0
   26.8779  -20.1484  -13.9324 C   0  0  0  0  0  0  0  0  0  0  0  0
   26.6669  -18.8947  -13.8144 O   0  0  0  0  0  0  0  0  0  0  0  0
   26.3317  -21.0200  -12.9732 N   0  0  0  0  0  0  0  0  0  0  0  0
   25.4735  -20.5373  -11.8824 C   0  0  1  0  0  0  0  0  0  0  0  0
   24.0722  -21.1365  -12.0838 C   0  0  0  0  0  0  0  0  0  0  0  0
   23.4128  -20.4866  -13.2372 C   0  0  0  0  0  0  0  0  0  0  0  0
   22.7196  -19.3027  -13.2651 C   0  0  0  0  0  0  0  0  0  0  0  0
   22.2985  -19.0909  -14.5263 N   0  0  0  0  0  0  0  0  0  0  0  0
   22.7100  -20.1135  -15.2850 C   0  0  0  0  0  0  0  0  0  0  0  0
   23.3892  -20.9669  -14.5029 N   0  0  0  0  0  0  0  0  0  0  0  0
   25.9839  -21.0978  -10.6109 C   0  0  0  0  0  0  0  0  0  0  0  0
   26.3550  -22.3267  -10.6445 O   0  0  0  0  0  0  0  0  0  0  0  0
   26.0688  -20.3452   -9.4193 N   0  0  0  0  0  0  0  0  0  0  0  0
   25.7100  -18.9623   -9.2850 C   0  0  0  0  0  0  0  0  0  0  0  0
   26.8354  -18.4763   -8.3701 C   0  0  0  0  0  0  0  0  0  0  0  0
   26.8232  -19.5579   -7.3141 C   0  0  0  0  0  0  0  0  0  0  0  0
   26.5231  -20.8058   -8.1311 C   0  0  1  0  0  0  0  0  0  0  0  0
   25.5330  -21.6420   -7.4225 C   0  0  0  0  0  0  0  0  0  0  0  0
   25.8864  -22.2784   -6.4103 O   0  0  0  0  0  0  0  0  0  0  0  0
   24.2181  -21.7257   -7.8677 O   0  0  0  0  0  0  0  0  0  0  0  0
  2  1  1  0
  3  2  2  0
  4  2  1  0
  5  4  1  0
  5  6  1  6
  7  5  1  0
  8  7  2  0
  9  7  1  0
 10  9  1  0
 11 12  1  0
 10 11  1  6
 12 13  2  0
 13 14  1  0
 15 14  1  0
 16 12  1  0
 16 15  2  0
 17 19  1  0
 17 10  1  0
 18 17  2  0
 19 20  1  0
 21 20  1  0
 22 21  1  0
 23 19  1  0
 23 22  1  0
 23 24  1  1
 24 26  1  0
 25 24  2  0
M  END
$$$$
