NHP.pdb
     RDKit          3D

 26 27  0  0  1  0  0  0  0  0999 V2000
   11.3641  -14.2657    5.4571 N   0  0  0  0  0  0  0  0  0  0  0  0
   11.1501  -15.4267    4.6980 C   0  0  0  0  0  0  0  0  0  0  0  0
    9.9861  -15.7545    4.3625 O   0  0  0  0  0  0  0  0  0  0  0  0
   12.2792  -16.2867    4.2787 C   0  0  0  0  0  0  0  0  0  0  0  0
   13.5073  -15.7674    5.0153 C   0  0  2  0  0  0  0  0  0  0  0  0
   14.2872  -15.0352    4.0326 N   0  0  0  0  0  0  0  0  0  0  0  0
   14.3369  -16.8406    5.5897 C   0  0  0  0  0  0  0  0  0  0  0  0
   13.8196  -17.6608    6.4204 O   0  0  0  0  0  0  0  0  0  0  0  0
   15.6926  -16.9897    5.2465 N   0  0  0  0  0  0  0  0  0  0  0  0
   16.5304  -18.0482    5.8270 C   0  0  1  0  0  0  0  0  0  0  0  0
   17.4585  -18.5757    4.7208 C   0  0  0  0  0  0  0  0  0  0  0  0
   16.7105  -19.4992    3.8404 C   0  0  0  0  0  0  0  0  0  0  0  0
   16.0722  -19.2184    2.6585 C   0  0  0  0  0  0  0  0  0  0  0  0
   15.5297  -20.3587    2.1916 N   0  0  0  0  0  0  0  0  0  0  0  0
   15.8121  -21.3430    3.0532 C   0  0  0  0  0  0  0  0  0  0  0  0
   16.5313  -20.8231    4.0601 N   0  0  0  0  0  0  0  0  0  0  0  0
   17.4102  -17.4336    6.8466 C   0  0  0  0  0  0  0  0  0  0  0  0
   17.6879  -16.1914    6.6776 O   0  0  0  0  0  0  0  0  0  0  0  0
   17.9245  -18.1499    7.9493 N   0  0  0  0  0  0  0  0  0  0  0  0
   17.6048  -19.5100    8.2762 C   0  0  0  0  0  0  0  0  0  0  0  0
   17.5003  -19.4071    9.7989 C   0  0  0  0  0  0  0  0  0  0  0  0
   18.7617  -18.6357   10.1136 C   0  0  0  0  0  0  0  0  0  0  0  0
   18.8507  -17.6678    8.9432 C   0  0  1  0  0  0  0  0  0  0  0  0
   20.2447  -17.5923    8.4608 C   0  0  0  0  0  0  0  0  0  0  0  0
   20.5565  -18.1783    7.4054 O   0  0  0  0  0  0  0  0  0  0  0  0
   21.2076  -16.8774    9.1651 O   0  0  0  0  0  0  0  0  0  0  0  0
  2  1  1  0
  3  2  2  0
  4  2  1  0
  5  4  1  0
  5  6  1  6
  7  5  1  0
  8  7  2  0
  9  7  1  0
 10  9  1  0
 11 12  1  0
 10 11  1  6
 12 13  2  0
 13 14  1  0
 15 14  1  0
 16 12  1  0
 16 15  2  0
 17 19  1  0
 17 10  1  0
 18 17  2  0
 19 20  1  0
 21 20  1  0
 22 21  1  0
 23 19  1  0
 23 22  1  0
 23 24  1  6
 24 26  1  0
 25 24  2  0
M  END
$$$$
