NHP.pdb
     RDKit          3D

 26 27  0  0  1  0  0  0  0  0999 V2000
   18.2489  -20.2438  -14.5909 N   0  0  0  0  0  0  0  0  0  0  0  0
   18.4582  -21.5909  -14.2569 C   0  0  0  0  0  0  0  0  0  0  0  0
   17.6593  -22.1814  -13.4902 O   0  0  0  0  0  0  0  0  0  0  0  0
   19.6151  -22.3422  -14.7931 C   0  0  0  0  0  0  0  0  0  0  0  0
   20.4875  -21.3235  -15.5155 C   0  0  2  0  0  0  0  0  0  0  0  0
   20.4199  -21.6631  -16.9262 N   0  0  0  0  0  0  0  0  0  0  0  0
   21.8938  -21.3493  -15.0780 C   0  0  0  0  0  0  0  0  0  0  0  0
   22.5729  -22.4234  -15.2026 O   0  0  0  0  0  0  0  0  0  0  0  0
   22.5153  -20.2162  -14.5234 N   0  0  0  0  0  0  0  0  0  0  0  0
   23.9269  -20.2244  -14.1151 C   0  0  1  0  0  0  0  0  0  0  0  0
   24.5246  -18.8494  -14.4547 C   0  0  0  0  0  0  0  0  0  0  0  0
   24.7362  -18.7443  -15.9147 C   0  0  0  0  0  0  0  0  0  0  0  0
   25.4742  -19.5661  -16.7290 C   0  0  0  0  0  0  0  0  0  0  0  0
   25.3829  -19.1021  -17.9896 N   0  0  0  0  0  0  0  0  0  0  0  0
   24.6082  -18.0110  -17.9817 C   0  0  0  0  0  0  0  0  0  0  0  0
   24.2123  -17.7891  -16.7187 N   0  0  0  0  0  0  0  0  0  0  0  0
   23.9803  -20.3457  -12.6407 C   0  0  0  0  0  0  0  0  0  0  0  0
   22.9587  -19.9034  -12.0006 O   0  0  0  0  0  0  0  0  0  0  0  0
   25.0777  -20.9118  -11.9561 N   0  0  0  0  0  0  0  0  0  0  0  0
   26.2620  -21.4331  -12.5763 C   0  0  0  0  0  0  0  0  0  0  0  0
   26.4976  -22.6743  -11.7139 C   0  0  0  0  0  0  0  0  0  0  0  0
   26.3416  -22.0863  -10.3300 C   0  0  0  0  0  0  0  0  0  0  0  0
   25.2225  -21.0755  -10.5312 C   0  0  1  0  0  0  0  0  0  0  0  0
   25.5489  -19.8200   -9.8249 C   0  0  0  0  0  0  0  0  0  0  0  0
   26.1093  -18.8979  -10.4496 O   0  0  0  0  0  0  0  0  0  0  0  0
   25.2383  -19.6547   -8.4794 O   0  0  0  0  0  0  0  0  0  0  0  0
  2  1  1  0
  3  2  2  0
  4  2  1  0
  5  4  1  0
  5  6  1  6
  7  5  1  0
  8  7  2  0
  9  7  1  0
 10  9  1  0
 11 12  1  0
 10 11  1  1
 12 13  2  0
 13 14  1  0
 15 14  1  0
 16 12  1  0
 16 15  2  0
 17 19  1  0
 17 10  1  0
 18 17  2  0
 19 20  1  0
 21 20  1  0
 22 21  1  0
 23 19  1  0
 23 22  1  0
 23 24  1  1
 24 26  1  0
 25 24  2  0
M  END
$$$$
