NHP.pdb
     RDKit          3D

 26 27  0  0  1  0  0  0  0  0999 V2000
   28.9574  -23.1068  -17.4296 N   0  0  0  0  0  0  0  0  0  0  0  0
   28.7283  -21.8146  -17.9273 C   0  0  0  0  0  0  0  0  0  0  0  0
   29.2119  -21.4704  -19.0331 O   0  0  0  0  0  0  0  0  0  0  0  0
   27.9202  -20.8338  -17.1690 C   0  0  0  0  0  0  0  0  0  0  0  0
   26.8270  -21.6315  -16.4697 C   0  0  2  0  0  0  0  0  0  0  0  0
   25.8838  -22.0166  -17.5051 N   0  0  0  0  0  0  0  0  0  0  0  0
   26.1195  -20.8614  -15.4322 C   0  0  0  0  0  0  0  0  0  0  0  0
   26.5254  -19.6889  -15.1311 O   0  0  0  0  0  0  0  0  0  0  0  0
   25.0007  -21.3840  -14.7590 N   0  0  0  0  0  0  0  0  0  0  0  0
   24.2702  -20.6096  -13.7463 C   0  0  1  0  0  0  0  0  0  0  0  0
   22.7749  -20.6630  -14.0990 C   0  0  0  0  0  0  0  0  0  0  0  0
   22.4977  -19.7571  -15.2348 C   0  0  0  0  0  0  0  0  0  0  0  0
   23.0403  -18.5230  -15.4912 C   0  0  0  0  0  0  0  0  0  0  0  0
   22.5082  -18.0589  -16.6375 N   0  0  0  0  0  0  0  0  0  0  0  0
   21.6462  -18.9714  -17.1014 C   0  0  0  0  0  0  0  0  0  0  0  0
   21.6364  -20.0079  -16.2490 N   0  0  0  0  0  0  0  0  0  0  0  0
   24.4128  -21.3008  -12.4450 C   0  0  0  0  0  0  0  0  0  0  0  0
   24.2382  -22.5729  -12.4595 O   0  0  0  0  0  0  0  0  0  0  0  0
   24.7237  -20.6234  -11.2458 N   0  0  0  0  0  0  0  0  0  0  0  0
   25.0538  -19.2308  -11.1421 C   0  0  0  0  0  0  0  0  0  0  0  0
   26.1754  -19.2931  -10.1038 C   0  0  0  0  0  0  0  0  0  0  0  0
   25.5435  -20.1899   -9.0638 C   0  0  0  0  0  0  0  0  0  0  0  0
   24.7710  -21.1837   -9.9184 C   0  0  1  0  0  0  0  0  0  0  0  0
   23.4363  -21.4181   -9.3308 C   0  0  0  0  0  0  0  0  0  0  0  0
   22.4455  -20.8412   -9.8207 O   0  0  0  0  0  0  0  0  0  0  0  0
   23.2727  -22.2715   -8.2450 O   0  0  0  0  0  0  0  0  0  0  0  0
  2  1  1  0
  3  2  2  0
  4  2  1  0
  5  4  1  0
  5  6  1  6
  7  5  1  0
  8  7  2  0
  9  7  1  0
 10  9  1  0
 11 12  1  0
 10 11  1  6
 12 13  2  0
 13 14  1  0
 15 14  1  0
 16 12  1  0
 16 15  2  0
 17 19  1  0
 17 10  1  0
 18 17  2  0
 19 20  1  0
 21 20  1  0
 22 21  1  0
 23 19  1  0
 23 22  1  0
 23 24  1  1
 24 26  1  0
 25 24  2  0
M  END
$$$$
