NHP.pdb
     RDKit          3D

 26 27  0  0  1  0  0  0  0  0999 V2000
   25.6274  -34.0416  -16.9987 N   0  0  0  0  0  0  0  0  0  0  0  0
   24.5992  -33.8463  -16.0634 C   0  0  0  0  0  0  0  0  0  0  0  0
   23.6337  -34.6464  -16.0120 O   0  0  0  0  0  0  0  0  0  0  0  0
   24.6254  -32.7031  -15.1239 C   0  0  0  0  0  0  0  0  0  0  0  0
   23.2972  -32.7330  -14.3786 C   0  0  2  0  0  0  0  0  0  0  0  0
   22.5254  -31.6114  -14.8850 N   0  0  0  0  0  0  0  0  0  0  0  0
   23.4469  -32.5983  -12.9194 C   0  0  0  0  0  0  0  0  0  0  0  0
   23.9789  -31.5434  -12.4353 O   0  0  0  0  0  0  0  0  0  0  0  0
   23.0170  -33.6056  -12.0371 N   0  0  0  0  0  0  0  0  0  0  0  0
   23.2009  -33.4971  -10.5833 C   0  0  1  0  0  0  0  0  0  0  0  0
   22.1995  -34.4485   -9.9084 C   0  0  0  0  0  0  0  0  0  0  0  0
   20.8569  -33.8283   -9.8902 C   0  0  0  0  0  0  0  0  0  0  0  0
   20.4862  -32.5878  -10.3449 C   0  0  0  0  0  0  0  0  0  0  0  0
   19.1641  -32.4409  -10.1375 N   0  0  0  0  0  0  0  0  0  0  0  0
   18.7013  -33.5576   -9.5634 C   0  0  0  0  0  0  0  0  0  0  0  0
   19.7301  -34.4058   -9.4104 N   0  0  0  0  0  0  0  0  0  0  0  0
   24.5485  -34.0104  -10.2488 C   0  0  0  0  0  0  0  0  0  0  0  0
   25.0771  -34.8083  -11.1049 O   0  0  0  0  0  0  0  0  0  0  0  0
   25.2329  -33.6568   -9.0655 N   0  0  0  0  0  0  0  0  0  0  0  0
   24.7183  -32.8020   -8.0343 C   0  0  0  0  0  0  0  0  0  0  0  0
   25.9763  -32.0030   -7.6894 C   0  0  0  0  0  0  0  0  0  0  0  0
   26.9903  -33.1177   -7.5682 C   0  0  0  0  0  0  0  0  0  0  0  0
   26.5544  -34.0740   -8.6683 C   0  0  1  0  0  0  0  0  0  0  0  0
   26.6084  -35.4646   -8.1733 C   0  0  0  0  0  0  0  0  0  0  0  0
   25.5466  -36.0476   -7.8782 O   0  0  0  0  0  0  0  0  0  0  0  0
   27.8229  -36.1280   -8.0353 O   0  0  0  0  0  0  0  0  0  0  0  0
  2  1  1  0
  3  2  2  0
  4  2  1  0
  5  4  1  0
  5  6  1  6
  7  5  1  0
  8  7  2  0
  9  7  1  0
 10  9  1  0
 11 12  1  0
 10 11  1  1
 12 13  2  0
 13 14  1  0
 15 14  1  0
 16 12  1  0
 16 15  2  0
 17 19  1  0
 17 10  1  0
 18 17  2  0
 19 20  1  0
 21 20  1  0
 22 21  1  0
 23 19  1  0
 23 22  1  0
 23 24  1  1
 24 26  1  0
 25 24  2  0
M  END
$$$$
