NHP.pdb
     RDKit          3D

 26 27  0  0  1  0  0  0  0  0999 V2000
   26.4588  -35.3234  -13.5330 N   0  0  0  0  0  0  0  0  0  0  0  0
   26.0594  -33.9780  -13.5511 C   0  0  0  0  0  0  0  0  0  0  0  0
   26.3202  -33.2565  -14.5443 O   0  0  0  0  0  0  0  0  0  0  0  0
   25.3291  -33.3804  -12.4110 C   0  0  0  0  0  0  0  0  0  0  0  0
   25.1209  -34.5029  -11.4023 C   0  0  2  0  0  0  0  0  0  0  0  0
   24.0934  -35.3631  -11.9628 N   0  0  0  0  0  0  0  0  0  0  0  0
   24.6822  -34.0221  -10.0809 C   0  0  0  0  0  0  0  0  0  0  0  0
   25.5230  -33.9596   -9.1220 O   0  0  0  0  0  0  0  0  0  0  0  0
   23.3538  -33.6262   -9.8431 N   0  0  0  0  0  0  0  0  0  0  0  0
   22.9277  -33.0667   -8.5528 C   0  0  1  0  0  0  0  0  0  0  0  0
   21.7581  -32.1050   -8.8184 C   0  0  0  0  0  0  0  0  0  0  0  0
   22.2178  -30.9824   -9.6646 C   0  0  0  0  0  0  0  0  0  0  0  0
   23.1561  -30.0249   -9.3721 C   0  0  0  0  0  0  0  0  0  0  0  0
   23.2658  -29.2044  -10.4340 N   0  0  0  0  0  0  0  0  0  0  0  0
   22.4183  -29.6251  -11.3804 C   0  0  0  0  0  0  0  0  0  0  0  0
   21.7770  -30.7084  -10.9152 N   0  0  0  0  0  0  0  0  0  0  0  0
   22.3784  -34.1685   -7.7307 C   0  0  0  0  0  0  0  0  0  0  0  0
   21.8702  -35.1553   -8.3764 O   0  0  0  0  0  0  0  0  0  0  0  0
   22.4018  -34.1584   -6.3190 N   0  0  0  0  0  0  0  0  0  0  0  0
   22.9166  -33.0938   -5.5061 C   0  0  0  0  0  0  0  0  0  0  0  0
   23.6191  -33.9008   -4.4129 C   0  0  0  0  0  0  0  0  0  0  0  0
   22.5432  -34.9071   -4.0739 C   0  0  0  0  0  0  0  0  0  0  0  0
   21.9250  -35.1921   -5.4345 C   0  0  1  0  0  0  0  0  0  0  0  0
   20.4532  -35.2332   -5.3171 C   0  0  0  0  0  0  0  0  0  0  0  0
   19.7812  -34.2738   -5.7444 O   0  0  0  0  0  0  0  0  0  0  0  0
   19.8119  -36.3243   -4.7405 O   0  0  0  0  0  0  0  0  0  0  0  0
  2  1  1  0
  3  2  2  0
  4  2  1  0
  5  4  1  0
  5  6  1  6
  7  5  1  0
  8  7  2  0
  9  7  1  0
 10  9  1  0
 11 12  1  0
 10 11  1  6
 12 13  2  0
 13 14  1  0
 15 14  1  0
 16 12  1  0
 16 15  2  0
 17 19  1  0
 17 10  1  0
 18 17  2  0
 19 20  1  0
 21 20  1  0
 22 21  1  0
 23 19  1  0
 23 22  1  0
 23 24  1  1
 24 26  1  0
 25 24  2  0
M  END
$$$$
