NHP.pdb
     RDKit          3D

 26 27  0  0  1  0  0  0  0  0999 V2000
   28.5712  -27.2602  -17.3212 N   0  0  0  0  0  0  0  0  0  0  0  0
   27.6271  -26.3328  -16.8535 C   0  0  0  0  0  0  0  0  0  0  0  0
   26.4022  -26.5313  -17.0413 O   0  0  0  0  0  0  0  0  0  0  0  0
   28.0467  -25.1088  -16.1352 C   0  0  0  0  0  0  0  0  0  0  0  0
   27.2287  -23.9668  -16.7247 C   0  0  2  0  0  0  0  0  0  0  0  0
   27.8888  -23.5961  -17.9644 N   0  0  0  0  0  0  0  0  0  0  0  0
   27.1568  -22.7888  -15.8434 C   0  0  0  0  0  0  0  0  0  0  0  0
   28.2337  -22.2760  -15.3878 O   0  0  0  0  0  0  0  0  0  0  0  0
   25.9267  -22.2075  -15.4869 N   0  0  0  0  0  0  0  0  0  0  0  0
   25.8418  -21.0802  -14.5481 C   0  0  1  0  0  0  0  0  0  0  0  0
   25.3487  -19.8514  -15.3292 C   0  0  0  0  0  0  0  0  0  0  0  0
   26.4208  -19.3668  -16.2254 C   0  0  0  0  0  0  0  0  0  0  0  0
   26.4606  -19.3936  -17.5968 C   0  0  0  0  0  0  0  0  0  0  0  0
   27.6213  -18.8399  -17.9953 N   0  0  0  0  0  0  0  0  0  0  0  0
   28.3071  -18.4703  -16.9073 C   0  0  0  0  0  0  0  0  0  0  0  0
   27.5790  -18.7903  -15.8261 N   0  0  0  0  0  0  0  0  0  0  0  0
   24.7898  -21.3867  -13.5527 C   0  0  0  0  0  0  0  0  0  0  0  0
   23.8002  -22.0876  -13.9750 O   0  0  0  0  0  0  0  0  0  0  0  0
   24.8496  -20.9471  -12.2123 N   0  0  0  0  0  0  0  0  0  0  0  0
   25.9654  -20.2762  -11.6090 C   0  0  0  0  0  0  0  0  0  0  0  0
   25.9735  -20.9440  -10.2328 C   0  0  0  0  0  0  0  0  0  0  0  0
   24.5096  -20.8490   -9.8680 C   0  0  0  0  0  0  0  0  0  0  0  0
   23.8257  -21.0828  -11.2067 C   0  0  1  0  0  0  0  0  0  0  0  0
   22.7091  -20.1300  -11.3717 C   0  0  0  0  0  0  0  0  0  0  0  0
   22.8505  -19.1520  -12.1319 O   0  0  0  0  0  0  0  0  0  0  0  0
   21.5082  -20.3112  -10.6942 O   0  0  0  0  0  0  0  0  0  0  0  0
  2  1  1  0
  3  2  2  0
  4  2  1  0
  5  4  1  0
  5  6  1  6
  7  5  1  0
  8  7  2  0
  9  7  1  0
 10  9  1  0
 11 12  1  0
 10 11  1  6
 12 13  2  0
 13 14  1  0
 15 14  1  0
 16 12  1  0
 16 15  2  0
 17 19  1  0
 17 10  1  0
 18 17  2  0
 19 20  1  0
 21 20  1  0
 22 21  1  0
 23 19  1  0
 23 22  1  0
 23 24  1  6
 24 26  1  0
 25 24  2  0
M  END
$$$$
