NHP.pdb
     RDKit          3D

 26 27  0  0  1  0  0  0  0  0999 V2000
   29.9817  -23.5625  -17.6087 N   0  0  0  0  0  0  0  0  0  0  0  0
   29.5276  -22.3087  -18.0465 C   0  0  0  0  0  0  0  0  0  0  0  0
   29.4257  -22.0689  -19.2742 O   0  0  0  0  0  0  0  0  0  0  0  0
   29.1620  -21.2470  -17.0825 C   0  0  0  0  0  0  0  0  0  0  0  0
   27.6717  -21.4105  -16.8127 C   0  0  2  0  0  0  0  0  0  0  0  0
   26.9914  -20.9291  -18.0024 N   0  0  0  0  0  0  0  0  0  0  0  0
   27.2054  -20.6437  -15.6446 C   0  0  0  0  0  0  0  0  0  0  0  0
   28.0274  -19.9014  -15.0092 O   0  0  0  0  0  0  0  0  0  0  0  0
   25.8706  -20.7053  -15.2060 N   0  0  0  0  0  0  0  0  0  0  0  0
   25.3805  -19.8878  -14.0877 C   0  0  1  0  0  0  0  0  0  0  0  0
   24.3380  -18.9040  -14.6434 C   0  0  0  0  0  0  0  0  0  0  0  0
   25.0189  -17.8283  -15.3962 C   0  0  0  0  0  0  0  0  0  0  0  0
   25.5841  -16.6760  -14.9106 C   0  0  0  0  0  0  0  0  0  0  0  0
   26.0994  -15.9900  -15.9481 N   0  0  0  0  0  0  0  0  0  0  0  0
   25.8684  -16.6844  -17.0685 C   0  0  0  0  0  0  0  0  0  0  0  0
   25.2094  -17.8055  -16.7366 N   0  0  0  0  0  0  0  0  0  0  0  0
   24.6539  -20.7747  -13.1512 C   0  0  0  0  0  0  0  0  0  0  0  0
   24.0056  -21.7471  -13.6830 O   0  0  0  0  0  0  0  0  0  0  0  0
   24.6599  -20.5839  -11.7522 N   0  0  0  0  0  0  0  0  0  0  0  0
   25.3861  -19.5590  -11.0585 C   0  0  0  0  0  0  0  0  0  0  0  0
   25.8781  -20.3480   -9.8439 C   0  0  0  0  0  0  0  0  0  0  0  0
   24.6019  -21.0427   -9.4269 C   0  0  0  0  0  0  0  0  0  0  0  0
   23.9545  -21.3634  -10.7658 C   0  0  1  0  0  0  0  0  0  0  0  0
   22.5086  -21.0678  -10.7064 C   0  0  0  0  0  0  0  0  0  0  0  0
   22.0805  -20.0156  -11.2201 O   0  0  0  0  0  0  0  0  0  0  0  0
   21.6239  -21.9457  -10.0893 O   0  0  0  0  0  0  0  0  0  0  0  0
  2  1  1  0
  3  2  2  0
  4  2  1  0
  5  4  1  0
  5  6  1  6
  7  5  1  0
  8  7  2  0
  9  7  1  0
 10  9  1  0
 11 12  1  0
 10 11  1  6
 12 13  2  0
 13 14  1  0
 15 14  1  0
 16 12  1  0
 16 15  2  0
 17 19  1  0
 17 10  1  0
 18 17  2  0
 19 20  1  0
 21 20  1  0
 22 21  1  0
 23 19  1  0
 23 22  1  0
 23 24  1  1
 24 26  1  0
 25 24  2  0
M  END
$$$$
