NHP.pdb
     RDKit          3D

 26 27  0  0  1  0  0  0  0  0999 V2000
   18.7096  -21.1227  -13.9621 N   0  0  0  0  0  0  0  0  0  0  0  0
   19.0450  -20.5332  -12.7333 C   0  0  0  0  0  0  0  0  0  0  0  0
   18.1785  -20.4166  -11.8330 O   0  0  0  0  0  0  0  0  0  0  0  0
   20.4143  -20.0374  -12.4700 C   0  0  0  0  0  0  0  0  0  0  0  0
   21.2305  -20.3565  -13.7161 C   0  0  2  0  0  0  0  0  0  0  0  0
   21.2145  -21.8029  -13.8491 N   0  0  0  0  0  0  0  0  0  0  0  0
   22.6262  -19.8935  -13.6304 C   0  0  0  0  0  0  0  0  0  0  0  0
   22.8711  -18.6437  -13.5396 O   0  0  0  0  0  0  0  0  0  0  0  0
   23.7054  -20.7953  -13.6451 N   0  0  0  0  0  0  0  0  0  0  0  0
   25.1007  -20.3402  -13.5733 C   0  0  1  0  0  0  0  0  0  0  0  0
   25.8710  -21.3194  -12.6727 C   0  0  0  0  0  0  0  0  0  0  0  0
   25.5230  -21.0735  -11.2564 C   0  0  0  0  0  0  0  0  0  0  0  0
   26.2430  -20.3894  -10.3095 C   0  0  0  0  0  0  0  0  0  0  0  0
   25.5458  -20.4048   -9.1578 N   0  0  0  0  0  0  0  0  0  0  0  0
   24.4102  -21.0827   -9.3621 C   0  0  0  0  0  0  0  0  0  0  0  0
   24.3926  -21.4926  -10.6400 N   0  0  0  0  0  0  0  0  0  0  0  0
   25.6965  -20.4638  -14.9229 C   0  0  0  0  0  0  0  0  0  0  0  0
   25.1640  -21.3391  -15.6969 O   0  0  0  0  0  0  0  0  0  0  0  0
   26.7850  -19.6761  -15.3567 N   0  0  0  0  0  0  0  0  0  0  0  0
   27.4767  -18.7059  -14.5571 C   0  0  0  0  0  0  0  0  0  0  0  0
   27.6894  -17.6006  -15.5930 C   0  0  0  0  0  0  0  0  0  0  0  0
   28.2162  -18.4074  -16.7578 C   0  0  0  0  0  0  0  0  0  0  0  0
   27.4025  -19.6891  -16.6593 C   0  0  1  0  0  0  0  0  0  0  0  0
   28.2787  -20.8569  -16.8833 C   0  0  0  0  0  0  0  0  0  0  0  0
   28.6283  -21.5517  -15.9089 O   0  0  0  0  0  0  0  0  0  0  0  0
   28.7141  -21.1896  -18.1615 O   0  0  0  0  0  0  0  0  0  0  0  0
  2  1  1  0
  3  2  2  0
  4  2  1  0
  5  4  1  0
  5  6  1  1
  7  5  1  0
  8  7  2  0
  9  7  1  0
 10  9  1  0
 11 12  1  0
 10 11  1  1
 12 13  2  0
 13 14  1  0
 15 14  1  0
 16 12  1  0
 16 15  2  0
 17 19  1  0
 17 10  1  0
 18 17  2  0
 19 20  1  0
 21 20  1  0
 22 21  1  0
 23 19  1  0
 23 22  1  0
 23 24  1  1
 24 26  1  0
 25 24  2  0
M  END
$$$$
