NHP.pdb
     RDKit          3D

 26 27  0  0  1  0  0  0  0  0999 V2000
   28.2106  -28.1128  -16.2342 N   0  0  0  0  0  0  0  0  0  0  0  0
   28.0892  -26.7634  -16.6007 C   0  0  0  0  0  0  0  0  0  0  0  0
   29.1119  -26.0920  -16.8808 O   0  0  0  0  0  0  0  0  0  0  0  0
   26.7663  -26.1031  -16.6647 C   0  0  0  0  0  0  0  0  0  0  0  0
   25.7451  -27.1525  -16.2446 C   0  0  2  0  0  0  0  0  0  0  0  0
   25.2453  -27.7435  -17.4738 N   0  0  0  0  0  0  0  0  0  0  0  0
   24.6158  -26.5916  -15.4830 C   0  0  0  0  0  0  0  0  0  0  0  0
   24.8383  -25.9820  -14.3834 O   0  0  0  0  0  0  0  0  0  0  0  0
   23.2894  -26.7085  -15.9357 N   0  0  0  0  0  0  0  0  0  0  0  0
   22.1513  -26.2203  -15.1447 C   0  0  1  0  0  0  0  0  0  0  0  0
   21.2779  -25.3491  -16.0620 C   0  0  0  0  0  0  0  0  0  0  0  0
   21.9572  -24.0612  -16.3215 C   0  0  0  0  0  0  0  0  0  0  0  0
   22.4424  -23.1564  -15.4110 C   0  0  0  0  0  0  0  0  0  0  0  0
   22.9905  -22.1300  -16.0884 N   0  0  0  0  0  0  0  0  0  0  0  0
   22.8576  -22.3710  -17.3980 C   0  0  0  0  0  0  0  0  0  0  0  0
   22.2277  -23.5470  -17.5445 N   0  0  0  0  0  0  0  0  0  0  0  0
   21.3193  -27.3847  -14.7656 C   0  0  0  0  0  0  0  0  0  0  0  0
   21.2908  -28.3554  -15.6057 O   0  0  0  0  0  0  0  0  0  0  0  0
   20.5925  -27.4479  -13.5568 N   0  0  0  0  0  0  0  0  0  0  0  0
   20.5624  -26.4228  -12.5531 C   0  0  0  0  0  0  0  0  0  0  0  0
   20.6083  -27.2797  -11.2868 C   0  0  0  0  0  0  0  0  0  0  0  0
   19.5515  -28.3113  -11.6095 C   0  0  0  0  0  0  0  0  0  0  0  0
   19.7564  -28.5302  -13.1011 C   0  0  1  0  0  0  0  0  0  0  0  0
   18.4476  -28.5899  -13.7829 C   0  0  0  0  0  0  0  0  0  0  0  0
   18.0354  -27.5871  -14.3986 O   0  0  0  0  0  0  0  0  0  0  0  0
   17.6749  -29.7457  -13.7479 O   0  0  0  0  0  0  0  0  0  0  0  0
  2  1  1  0
  3  2  2  0
  4  2  1  0
  5  4  1  0
  5  6  1  6
  7  5  1  0
  8  7  2  0
  9  7  1  0
 10  9  1  0
 11 12  1  0
 10 11  1  6
 12 13  2  0
 13 14  1  0
 15 14  1  0
 16 12  1  0
 16 15  2  0
 17 19  1  0
 17 10  1  0
 18 17  2  0
 19 20  1  0
 21 20  1  0
 22 21  1  0
 23 19  1  0
 23 22  1  0
 23 24  1  6
 24 26  1  0
 25 24  2  0
M  END
$$$$
