NHP.pdb
     RDKit          3D

 26 27  0  0  1  0  0  0  0  0999 V2000
   17.4817  -12.6613  -19.0115 N   0  0  0  0  0  0  0  0  0  0  0  0
   18.1030  -12.9365  -17.7834 C   0  0  0  0  0  0  0  0  0  0  0  0
   18.8166  -13.9608  -17.6538 O   0  0  0  0  0  0  0  0  0  0  0  0
   17.9340  -12.0365  -16.6208 C   0  0  0  0  0  0  0  0  0  0  0  0
   18.9335  -10.9026  -16.8103 C   0  0  2  0  0  0  0  0  0  0  0  0
   20.2490  -11.4888  -16.6210 N   0  0  0  0  0  0  0  0  0  0  0  0
   18.7513   -9.8013  -15.8492 C   0  0  0  0  0  0  0  0  0  0  0  0
   17.6143   -9.2277  -15.7563 O   0  0  0  0  0  0  0  0  0  0  0  0
   19.8013   -9.3602  -15.0241 N   0  0  0  0  0  0  0  0  0  0  0  0
   19.6203   -8.2793  -14.0453 C   0  0  1  0  0  0  0  0  0  0  0  0
   20.3704   -8.6733  -12.7626 C   0  0  0  0  0  0  0  0  0  0  0  0
   20.1284   -7.6605  -11.7122 C   0  0  0  0  0  0  0  0  0  0  0  0
   20.9381   -6.6206  -11.3300 C   0  0  0  0  0  0  0  0  0  0  0  0
   20.3194   -5.9461  -10.3426 N   0  0  0  0  0  0  0  0  0  0  0  0
   19.1454   -6.5401  -10.0982 C   0  0  0  0  0  0  0  0  0  0  0  0
   19.0254   -7.5861  -10.9306 N   0  0  0  0  0  0  0  0  0  0  0  0
   20.2963   -7.0687  -14.5642 C   0  0  0  0  0  0  0  0  0  0  0  0
   21.4474   -7.2522  -15.1028 O   0  0  0  0  0  0  0  0  0  0  0  0
   19.7284   -5.7785  -14.4845 N   0  0  0  0  0  0  0  0  0  0  0  0
   18.4496   -5.4697  -13.9116 C   0  0  0  0  0  0  0  0  0  0  0  0
   17.9478   -4.4263  -14.9113 C   0  0  0  0  0  0  0  0  0  0  0  0
   19.1667   -3.5393  -15.0243 C   0  0  0  0  0  0  0  0  0  0  0  0
   20.3069   -4.5440  -14.9530 C   0  0  1  0  0  0  0  0  0  0  0  0
   21.3768   -4.0257  -14.0764 C   0  0  0  0  0  0  0  0  0  0  0  0
   22.0073   -3.0072  -14.4221 O   0  0  0  0  0  0  0  0  0  0  0  0
   21.6859   -4.6560  -12.8758 O   0  0  0  0  0  0  0  0  0  0  0  0
  2  1  1  0
  3  2  2  0
  4  2  1  0
  5  4  1  0
  5  6  1  1
  7  5  1  0
  8  7  2  0
  9  7  1  0
 10  9  1  0
 11 12  1  0
 10 11  1  1
 12 13  2  0
 13 14  1  0
 15 14  1  0
 16 12  1  0
 16 15  2  0
 17 19  1  0
 17 10  1  0
 18 17  2  0
 19 20  1  0
 21 20  1  0
 22 21  1  0
 23 19  1  0
 23 22  1  0
 23 24  1  1
 24 26  1  0
 25 24  2  0
M  END
$$$$
