NHP.pdb
     RDKit          3D

 26 27  0  0  1  0  0  0  0  0999 V2000
   24.6437  -14.3438  -16.8750 N   0  0  0  0  0  0  0  0  0  0  0  0
   24.1977  -14.5812  -18.1845 C   0  0  0  0  0  0  0  0  0  0  0  0
   24.9905  -15.0271  -19.0491 O   0  0  0  0  0  0  0  0  0  0  0  0
   22.7959  -14.3137  -18.5765 C   0  0  0  0  0  0  0  0  0  0  0  0
   22.0719  -13.8862  -17.3062 C   0  0  2  0  0  0  0  0  0  0  0  0
   21.6408  -15.1115  -16.6561 N   0  0  0  0  0  0  0  0  0  0  0  0
   20.8971  -13.0363  -17.5654 C   0  0  0  0  0  0  0  0  0  0  0  0
   20.5421  -12.8021  -18.7694 O   0  0  0  0  0  0  0  0  0  0  0  0
   20.1487  -12.4714  -16.5171 N   0  0  0  0  0  0  0  0  0  0  0  0
   18.9388  -11.6756  -16.7657 C   0  0  1  0  0  0  0  0  0  0  0  0
   17.7567  -12.3902  -16.0909 C   0  0  0  0  0  0  0  0  0  0  0  0
   16.5002  -11.6714  -16.3945 C   0  0  0  0  0  0  0  0  0  0  0  0
   15.6988  -11.7890  -17.5022 C   0  0  0  0  0  0  0  0  0  0  0  0
   14.6538  -10.9528  -17.3567 N   0  0  0  0  0  0  0  0  0  0  0  0
   14.7842  -10.3153  -16.1873 C   0  0  0  0  0  0  0  0  0  0  0  0
   15.9088  -10.7501  -15.5978 N   0  0  0  0  0  0  0  0  0  0  0  0
   19.0889  -10.3776  -16.0698 C   0  0  0  0  0  0  0  0  0  0  0  0
   19.7150  -10.4072  -14.9491 O   0  0  0  0  0  0  0  0  0  0  0  0
   18.5838   -9.1654  -16.5885 N   0  0  0  0  0  0  0  0  0  0  0  0
   17.8417   -9.0315  -17.8094 C   0  0  0  0  0  0  0  0  0  0  0  0
   18.4422   -7.7337  -18.3525 C   0  0  0  0  0  0  0  0  0  0  0  0
   18.3873   -6.8628  -17.1181 C   0  0  0  0  0  0  0  0  0  0  0  0
   18.7113   -7.8519  -16.0084 C   0  0  1  0  0  0  0  0  0  0  0  0
   17.8118   -7.6267  -14.8587 C   0  0  0  0  0  0  0  0  0  0  0  0
   17.0204   -8.5282  -14.5190 O   0  0  0  0  0  0  0  0  0  0  0  0
   17.8389   -6.4284  -14.1534 O   0  0  0  0  0  0  0  0  0  0  0  0
  2  1  1  0
  3  2  2  0
  4  2  1  0
  5  4  1  0
  5  6  1  6
  7  5  1  0
  8  7  2  0
  9  7  1  0
 10  9  1  0
 11 12  1  0
 10 11  1  1
 12 13  2  0
 13 14  1  0
 15 14  1  0
 16 12  1  0
 16 15  2  0
 17 19  1  0
 17 10  1  0
 18 17  2  0
 19 20  1  0
 21 20  1  0
 22 21  1  0
 23 19  1  0
 23 22  1  0
 23 24  1  1
 24 26  1  0
 25 24  2  0
M  END
$$$$
