NHP.pdb
     RDKit          3D

 26 27  0  0  1  0  0  0  0  0999 V2000
   25.7492  -15.2899  -14.3646 N   0  0  0  0  0  0  0  0  0  0  0  0
   26.4574  -14.3422  -15.1198 C   0  0  0  0  0  0  0  0  0  0  0  0
   27.7100  -14.2961  -15.0585 O   0  0  0  0  0  0  0  0  0  0  0  0
   25.7532  -13.3815  -15.9981 C   0  0  0  0  0  0  0  0  0  0  0  0
   24.2683  -13.6970  -15.8713 C   0  0  2  0  0  0  0  0  0  0  0  0
   24.0590  -14.9452  -16.5841 N   0  0  0  0  0  0  0  0  0  0  0  0
   23.4020  -12.6567  -16.4520 C   0  0  0  0  0  0  0  0  0  0  0  0
   23.5301  -12.3451  -17.6836 O   0  0  0  0  0  0  0  0  0  0  0  0
   22.4298  -11.9919  -15.6833 N   0  0  0  0  0  0  0  0  0  0  0  0
   21.5030  -11.0170  -16.2748 C   0  0  1  0  0  0  0  0  0  0  0  0
   20.0775  -11.3997  -15.8451 C   0  0  0  0  0  0  0  0  0  0  0  0
   19.6881  -12.6738  -16.4874 C   0  0  0  0  0  0  0  0  0  0  0  0
   19.5020  -12.9320  -17.8222 C   0  0  0  0  0  0  0  0  0  0  0  0
   19.1615  -14.2276  -17.9571 N   0  0  0  0  0  0  0  0  0  0  0  0
   19.1287  -14.7833  -16.7402 C   0  0  0  0  0  0  0  0  0  0  0  0
   19.4486  -13.8394  -15.8413 N   0  0  0  0  0  0  0  0  0  0  0  0
   21.7762   -9.6940  -15.6691 C   0  0  0  0  0  0  0  0  0  0  0  0
   22.2424   -9.7065  -14.4728 O   0  0  0  0  0  0  0  0  0  0  0  0
   21.5473   -8.4771  -16.3474 N   0  0  0  0  0  0  0  0  0  0  0  0
   21.0208   -8.3554  -17.6768 C   0  0  0  0  0  0  0  0  0  0  0  0
   21.8890   -7.2146  -18.2105 C   0  0  0  0  0  0  0  0  0  0  0  0
   21.7917   -6.2312  -17.0666 C   0  0  0  0  0  0  0  0  0  0  0  0
   21.7924   -7.1461  -15.8510 C   0  0  1  0  0  0  0  0  0  0  0  0
   20.7815   -6.6859  -14.8774 C   0  0  0  0  0  0  0  0  0  0  0  0
   19.6771   -7.2623  -14.8278 O   0  0  0  0  0  0  0  0  0  0  0  0
   21.0466   -5.6244  -14.0188 O   0  0  0  0  0  0  0  0  0  0  0  0
  2  1  1  0
  3  2  2  0
  4  2  1  0
  5  4  1  0
  5  6  1  6
  7  5  1  0
  8  7  2  0
  9  7  1  0
 10  9  1  0
 11 12  1  0
 10 11  1  1
 12 13  2  0
 13 14  1  0
 15 14  1  0
 16 12  1  0
 16 15  2  0
 17 19  1  0
 17 10  1  0
 18 17  2  0
 19 20  1  0
 21 20  1  0
 22 21  1  0
 23 19  1  0
 23 22  1  0
 23 24  1  1
 24 26  1  0
 25 24  2  0
M  END
$$$$
