INP.pdb
     RDKit          3D

 24 24  0  0  1  0  0  0  0  0999 V2000
    7.9081  -12.1102   18.5585 C   0  0  0  0  0  0  0  0  0  0  0  0
    8.2507  -13.4782   19.0010 C   0  0  0  0  0  0  0  0  0  0  0  0
    7.7190  -13.9766   20.2825 C   0  0  2  0  0  0  0  0  0  0  0  0
    8.1000  -13.0474   21.4440 C   0  0  0  0  0  0  0  0  0  0  0  0
    7.9642  -15.3780   20.6868 C   0  0  2  0  0  0  0  0  0  0  0  0
    7.3148  -16.2169   19.6354 N   0  0  0  0  0  0  0  0  0  0  0  0
    7.4729  -15.8117   21.9999 C   0  0  0  0  0  0  0  0  0  0  0  0
    6.2990  -16.1366   22.1870 O   0  0  0  0  0  0  0  0  0  0  0  0
    6.1424  -17.9835   26.4641 N   0  0  0  0  0  0  0  0  0  0  0  0
    7.3324  -18.3097   25.7571 C   0  0  0  0  0  0  0  0  0  0  0  0
    8.0854  -19.1453   26.3046 O   0  0  0  0  0  0  0  0  0  0  0  0
    7.6049  -17.6804   24.4830 C   0  0  0  0  0  0  0  0  0  0  0  0
    7.9073  -16.2159   24.4798 C   0  0  2  0  0  0  0  0  0  0  0  0
    8.3518  -15.8683   23.0993 N   0  0  0  0  0  0  0  0  0  0  0  0
    9.0022  -15.7601   25.3288 C   0  0  0  0  0  0  0  0  0  0  0  0
   10.1829  -16.1479   24.9085 O   0  0  0  0  0  0  0  0  0  0  0  0
    9.0258  -14.9870   26.5000 N   0  0  0  0  0  0  0  0  0  0  0  0
    7.9883  -14.3530   27.2508 C   0  0  0  0  0  0  0  0  0  0  0  0
    8.6038  -13.2930   28.1346 C   0  0  0  0  0  0  0  0  0  0  0  0
   10.0639  -13.2581   27.7649 C   0  0  0  0  0  0  0  0  0  0  0  0
   10.2724  -14.6596   27.2438 C   0  0  1  0  0  0  0  0  0  0  0  0
   10.4396  -15.5503   28.4088 C   0  0  0  0  0  0  0  0  0  0  0  0
   11.3393  -15.3601   29.2415 O   0  0  0  0  0  0  0  0  0  0  0  0
    9.5778  -16.6109   28.5716 O   0  0  0  0  0  0  0  0  0  0  0  0
  1  2  1  0
  3  5  1  0
  3  2  1  0
  3  4  1  1
  5  6  1  6
  7  5  1  0
  7  8  2  0
 10 12  1  0
 10  9  1  0
 11 10  2  0
 13 12  1  6
 13 14  1  0
 14  7  1  0
 15 17  1  0
 15 13  1  0
 16 15  2  0
 17 18  1  0
 18 19  1  0
 19 20  1  0
 21 17  1  0
 21 22  1  1
 21 20  1  0
 22 24  1  0
 23 22  2  0
M  END
$$$$
