INP.pdb
     RDKit          3D

 24 24  0  0  1  0  0  0  0  0999 V2000
    8.2517  -12.2130   18.3556 C   0  0  0  0  0  0  0  0  0  0  0  0
    8.4043  -13.6072   18.8220 C   0  0  0  0  0  0  0  0  0  0  0  0
    7.8071  -14.0070   20.1092 C   0  0  2  0  0  0  0  0  0  0  0  0
    8.2629  -13.0824   21.2472 C   0  0  0  0  0  0  0  0  0  0  0  0
    7.9046  -15.4117   20.5620 C   0  0  2  0  0  0  0  0  0  0  0  0
    7.2110  -16.2187   19.5138 N   0  0  0  0  0  0  0  0  0  0  0  0
    7.3336  -15.7547   21.8696 C   0  0  0  0  0  0  0  0  0  0  0  0
    6.1182  -15.7635   22.0732 O   0  0  0  0  0  0  0  0  0  0  0  0
    6.1625  -18.4861   26.3678 N   0  0  0  0  0  0  0  0  0  0  0  0
    7.4889  -18.3009   25.8894 C   0  0  0  0  0  0  0  0  0  0  0  0
    8.4068  -18.5823   26.6915 O   0  0  0  0  0  0  0  0  0  0  0  0
    7.7045  -17.8127   24.5445 C   0  0  0  0  0  0  0  0  0  0  0  0
    7.6820  -16.3331   24.3285 C   0  0  2  0  0  0  0  0  0  0  0  0
    8.1806  -16.0897   22.9442 N   0  0  0  0  0  0  0  0  0  0  0  0
    8.5592  -15.5242   25.1673 C   0  0  0  0  0  0  0  0  0  0  0  0
    9.8304  -15.6578   24.8720 O   0  0  0  0  0  0  0  0  0  0  0  0
    8.2962  -14.6342   26.2203 N   0  0  0  0  0  0  0  0  0  0  0  0
    7.0754  -14.1634   26.7948 C   0  0  0  0  0  0  0  0  0  0  0  0
    7.3577  -12.8978   27.5708 C   0  0  0  0  0  0  0  0  0  0  0  0
    8.8085  -12.5828   27.3140 C   0  0  0  0  0  0  0  0  0  0  0  0
    9.3606  -13.9539   27.0068 C   0  0  1  0  0  0  0  0  0  0  0  0
    9.5877  -14.6435   28.2919 C   0  0  0  0  0  0  0  0  0  0  0  0
   10.3855  -14.1971   29.1305 O   0  0  0  0  0  0  0  0  0  0  0  0
    8.8983  -15.8035   28.5618 O   0  0  0  0  0  0  0  0  0  0  0  0
  1  2  1  0
  3  5  1  0
  3  2  1  0
  3  4  1  1
  5  6  1  6
  7  5  1  0
  7  8  2  0
 10 12  1  0
 10  9  1  0
 11 10  2  0
 13 12  1  1
 13 14  1  0
 14  7  1  0
 15 17  1  0
 15 13  1  0
 16 15  2  0
 17 18  1  0
 18 19  1  0
 19 20  1  0
 21 17  1  0
 21 22  1  1
 21 20  1  0
 22 24  1  0
 23 22  2  0
M  END
$$$$
