INP.pdb
     RDKit          3D

 24 24  0  0  1  0  0  0  0  0999 V2000
    7.1900  -10.8325   27.9259 C   0  0  0  0  0  0  0  0  0  0  0  0
    6.3521  -11.7509   27.1264 C   0  0  0  0  0  0  0  0  0  0  0  0
    6.9910  -12.8642   26.4014 C   0  0  2  0  0  0  0  0  0  0  0  0
    8.1591  -12.3695   25.5362 C   0  0  0  0  0  0  0  0  0  0  0  0
    6.1634  -13.7965   25.6054 C   0  0  2  0  0  0  0  0  0  0  0  0
    5.2345  -14.4400   26.5821 N   0  0  0  0  0  0  0  0  0  0  0  0
    6.8487  -14.8505   24.8483 C   0  0  0  0  0  0  0  0  0  0  0  0
    7.1385  -15.9374   25.3515 O   0  0  0  0  0  0  0  0  0  0  0  0
    7.3893  -17.0097   19.4514 N   0  0  0  0  0  0  0  0  0  0  0  0
    8.2121  -16.1285   20.2057 C   0  0  0  0  0  0  0  0  0  0  0  0
    9.4300  -16.1339   19.9196 O   0  0  0  0  0  0  0  0  0  0  0  0
    7.6208  -15.2977   21.2322 C   0  0  0  0  0  0  0  0  0  0  0  0
    7.8632  -15.6746   22.6589 C   0  0  2  0  0  0  0  0  0  0  0  0
    7.1970  -14.6387   23.4998 N   0  0  0  0  0  0  0  0  0  0  0  0
    9.2460  -15.6706   23.1230 C   0  0  0  0  0  0  0  0  0  0  0  0
    9.6927  -14.4729   23.4176 O   0  0  0  0  0  0  0  0  0  0  0  0
   10.1773  -16.7030   23.3145 N   0  0  0  0  0  0  0  0  0  0  0  0
   10.0788  -18.1214   23.1703 C   0  0  0  0  0  0  0  0  0  0  0  0
   11.2110  -18.7690   23.9334 C   0  0  0  0  0  0  0  0  0  0  0  0
   11.9160  -17.6418   24.6421 C   0  0  0  0  0  0  0  0  0  0  0  0
   11.5824  -16.4729   23.7470 C   0  0  1  0  0  0  0  0  0  0  0  0
   12.5020  -16.5156   22.5932 C   0  0  0  0  0  0  0  0  0  0  0  0
   12.1140  -16.8820   21.4733 O   0  0  0  0  0  0  0  0  0  0  0  0
   13.8144  -16.1398   22.7669 O   0  0  0  0  0  0  0  0  0  0  0  0
  1  2  1  0
  3  5  1  0
  3  2  1  0
  3  4  1  6
  5  6  1  1
  7  5  1  0
  7  8  2  0
 10 12  1  0
 10  9  1  0
 11 10  2  0
 13 12  1  6
 13 14  1  0
 14  7  1  0
 15 17  1  0
 15 13  1  0
 16 15  2  0
 17 18  1  0
 18 19  1  0
 19 20  1  0
 21 17  1  0
 21 22  1  6
 21 20  1  0
 22 24  1  0
 23 22  2  0
M  END
$$$$
