INP.pdb
     RDKit          3D

 24 24  0  0  1  0  0  0  0  0999 V2000
    5.9307  -11.6052   28.0861 C   0  0  0  0  0  0  0  0  0  0  0  0
    6.0348  -12.9535   27.4894 C   0  0  0  0  0  0  0  0  0  0  0  0
    7.0902  -13.2235   26.4962 C   0  0  2  0  0  0  0  0  0  0  0  0
    7.0128  -12.2412   25.3185 C   0  0  0  0  0  0  0  0  0  0  0  0
    7.2729  -14.5934   25.9692 C   0  0  2  0  0  0  0  0  0  0  0  0
    7.4402  -15.4649   27.1706 N   0  0  0  0  0  0  0  0  0  0  0  0
    8.3961  -14.8356   25.0563 C   0  0  0  0  0  0  0  0  0  0  0  0
    9.5503  -14.9860   25.4612 O   0  0  0  0  0  0  0  0  0  0  0  0
   12.3520  -16.2008   22.0817 N   0  0  0  0  0  0  0  0  0  0  0  0
   11.0482  -16.7644   22.1511 C   0  0  0  0  0  0  0  0  0  0  0  0
   10.8155  -17.7097   21.3654 O   0  0  0  0  0  0  0  0  0  0  0  0
   10.0873  -16.2348   23.0945 C   0  0  0  0  0  0  0  0  0  0  0  0
    9.2772  -15.0507   22.6731 C   0  0  2  0  0  0  0  0  0  0  0  0
    8.1748  -14.9042   23.6668 N   0  0  0  0  0  0  0  0  0  0  0  0
    8.5876  -15.1377   21.3907 C   0  0  0  0  0  0  0  0  0  0  0  0
    7.6232  -16.0268   21.3776 O   0  0  0  0  0  0  0  0  0  0  0  0
    8.7616  -14.4491   20.1802 N   0  0  0  0  0  0  0  0  0  0  0  0
    9.6742  -13.4234   19.7837 C   0  0  0  0  0  0  0  0  0  0  0  0
    9.1307  -12.7362   18.5524 C   0  0  0  0  0  0  0  0  0  0  0  0
    7.7720  -13.3437   18.3185 C   0  0  0  0  0  0  0  0  0  0  0  0
    7.9356  -14.6969   18.9674 C   0  0  1  0  0  0  0  0  0  0  0  0
    8.6494  -15.5679   18.0133 C   0  0  0  0  0  0  0  0  0  0  0  0
    9.8315  -15.8951   18.1995 O   0  0  0  0  0  0  0  0  0  0  0  0
    7.9870  -16.0249   16.8969 O   0  0  0  0  0  0  0  0  0  0  0  0
  1  2  1  0
  3  5  1  0
  3  2  1  0
  3  4  1  6
  5  6  1  1
  7  5  1  0
  7  8  2  0
 10 12  1  0
 10  9  1  0
 11 10  2  0
 13 12  1  1
 13 14  1  0
 14  7  1  0
 15 17  1  0
 15 13  1  0
 16 15  2  0
 17 18  1  0
 18 19  1  0
 19 20  1  0
 21 17  1  0
 21 22  1  6
 21 20  1  0
 22 24  1  0
 23 22  2  0
M  END
$$$$
