INP.pdb
     RDKit          3D

 24 24  0  0  1  0  0  0  0  0999 V2000
    8.2404  -11.9639   18.7363 C   0  0  0  0  0  0  0  0  0  0  0  0
    8.3755  -13.3675   19.1796 C   0  0  0  0  0  0  0  0  0  0  0  0
    7.9021  -13.7489   20.5225 C   0  0  2  0  0  0  0  0  0  0  0  0
    8.4607  -12.8078   21.5995 C   0  0  0  0  0  0  0  0  0  0  0  0
    8.0440  -15.1469   20.9843 C   0  0  2  0  0  0  0  0  0  0  0  0
    7.3256  -15.9773   19.9717 N   0  0  0  0  0  0  0  0  0  0  0  0
    7.5311  -15.4873   22.3165 C   0  0  0  0  0  0  0  0  0  0  0  0
    6.3380  -15.3831   22.6067 O   0  0  0  0  0  0  0  0  0  0  0  0
    6.0810  -18.8378   23.1388 N   0  0  0  0  0  0  0  0  0  0  0  0
    6.2280  -17.9903   24.2712 C   0  0  0  0  0  0  0  0  0  0  0  0
    5.1674  -17.5705   24.7850 O   0  0  0  0  0  0  0  0  0  0  0  0
    7.5518  -17.6657   24.7570 C   0  0  0  0  0  0  0  0  0  0  0  0
    7.9779  -16.2330   24.7136 C   0  0  2  0  0  0  0  0  0  0  0  0
    8.4103  -15.9518   23.3143 N   0  0  0  0  0  0  0  0  0  0  0  0
    9.1319  -15.8567   25.5224 C   0  0  0  0  0  0  0  0  0  0  0  0
   10.2649  -16.3373   25.0682 O   0  0  0  0  0  0  0  0  0  0  0  0
    9.2532  -15.0790   26.6845 N   0  0  0  0  0  0  0  0  0  0  0  0
    8.3176  -14.2654   27.3951 C   0  0  0  0  0  0  0  0  0  0  0  0
    9.0791  -13.3106   28.2851 C   0  0  0  0  0  0  0  0  0  0  0  0
   10.5338  -13.5304   27.9606 C   0  0  0  0  0  0  0  0  0  0  0  0
   10.5155  -14.9555   27.4629 C   0  0  1  0  0  0  0  0  0  0  0  0
   10.4951  -15.8418   28.6429 C   0  0  0  0  0  0  0  0  0  0  0  0
   11.4036  -15.8116   29.4872 O   0  0  0  0  0  0  0  0  0  0  0  0
    9.4455  -16.7167   28.8069 O   0  0  0  0  0  0  0  0  0  0  0  0
  1  2  1  0
  3  5  1  0
  3  2  1  0
  3  4  1  1
  5  6  1  6
  7  5  1  0
  7  8  2  0
 10 12  1  0
 10  9  1  0
 11 10  2  0
 13 12  1  6
 13 14  1  0
 14  7  1  0
 15 17  1  0
 15 13  1  0
 16 15  2  0
 17 18  1  0
 18 19  1  0
 19 20  1  0
 21 17  1  0
 21 22  1  1
 21 20  1  0
 22 24  1  0
 23 22  2  0
M  END
$$$$
