INP.pdb
     RDKit          3D

 24 24  0  0  1  0  0  0  0  0999 V2000
    8.4729  -12.2507   17.9640 C   0  0  0  0  0  0  0  0  0  0  0  0
    8.7028  -13.5708   18.5879 C   0  0  0  0  0  0  0  0  0  0  0  0
    7.9733  -13.9238   19.8194 C   0  0  2  0  0  0  0  0  0  0  0  0
    8.2220  -12.8934   20.9303 C   0  0  0  0  0  0  0  0  0  0  0  0
    8.1006  -15.2838   20.3869 C   0  0  2  0  0  0  0  0  0  0  0  0
    7.5986  -16.2082   19.3266 N   0  0  0  0  0  0  0  0  0  0  0  0
    7.3902  -15.5772   21.6371 C   0  0  0  0  0  0  0  0  0  0  0  0
    6.2100  -15.9312   21.6538 O   0  0  0  0  0  0  0  0  0  0  0  0
    7.4687  -18.8321   26.1396 N   0  0  0  0  0  0  0  0  0  0  0  0
    6.8006  -17.6985   25.6001 C   0  0  0  0  0  0  0  0  0  0  0  0
    5.8843  -17.2152   26.3015 O   0  0  0  0  0  0  0  0  0  0  0  0
    7.1993  -17.1778   24.3103 C   0  0  0  0  0  0  0  0  0  0  0  0
    7.3887  -15.6998   24.1841 C   0  0  2  0  0  0  0  0  0  0  0  0
    8.0567  -15.4591   22.8726 N   0  0  0  0  0  0  0  0  0  0  0  0
    8.2692  -15.0560   25.1525 C   0  0  0  0  0  0  0  0  0  0  0  0
    9.5387  -15.3266   24.9620 O   0  0  0  0  0  0  0  0  0  0  0  0
    8.0116  -14.2051   26.2384 N   0  0  0  0  0  0  0  0  0  0  0  0
    6.7969  -13.6764   26.7745 C   0  0  0  0  0  0  0  0  0  0  0  0
    7.1243  -12.4771   27.6335 C   0  0  0  0  0  0  0  0  0  0  0  0
    8.6057  -12.2566   27.4702 C   0  0  0  0  0  0  0  0  0  0  0  0
    9.0759  -13.6467   27.1158 C   0  0  1  0  0  0  0  0  0  0  0  0
    9.1819  -14.4171   28.3703 C   0  0  0  0  0  0  0  0  0  0  0  0
    8.4242  -15.3704   28.6070 O   0  0  0  0  0  0  0  0  0  0  0  0
   10.1422  -14.0687   29.2925 O   0  0  0  0  0  0  0  0  0  0  0  0
  1  2  1  0
  3  5  1  0
  3  2  1  0
  3  4  1  1
  5  6  1  6
  7  5  1  0
  7  8  2  0
 10 12  1  0
 10  9  1  0
 11 10  2  0
 13 12  1  1
 13 14  1  0
 14  7  1  0
 15 17  1  0
 15 13  1  0
 16 15  2  0
 17 18  1  0
 18 19  1  0
 19 20  1  0
 21 17  1  0
 21 22  1  1
 21 20  1  0
 22 24  1  0
 23 22  2  0
M  END
$$$$
