INP.pdb
     RDKit          3D

 24 24  0  0  1  0  0  0  0  0999 V2000
    7.9520  -12.9993   17.4898 C   0  0  0  0  0  0  0  0  0  0  0  0
    8.5580  -13.8906   18.5012 C   0  0  0  0  0  0  0  0  0  0  0  0
    8.0612  -13.8508   19.8886 C   0  0  2  0  0  0  0  0  0  0  0  0
    8.1993  -12.4451   20.4907 C   0  0  0  0  0  0  0  0  0  0  0  0
    8.5421  -14.8453   20.8722 C   0  0  2  0  0  0  0  0  0  0  0  0
    8.4493  -16.1669   20.1826 N   0  0  0  0  0  0  0  0  0  0  0  0
    7.8390  -14.9383   22.1570 C   0  0  0  0  0  0  0  0  0  0  0  0
    6.9882  -14.1156   22.5007 O   0  0  0  0  0  0  0  0  0  0  0  0
    6.5515  -19.1556   22.7628 N   0  0  0  0  0  0  0  0  0  0  0  0
    6.1839  -18.2112   23.7606 C   0  0  0  0  0  0  0  0  0  0  0  0
    4.9606  -17.9713   23.8662 O   0  0  0  0  0  0  0  0  0  0  0  0
    7.2076  -17.5951   24.5767 C   0  0  0  0  0  0  0  0  0  0  0  0
    7.4733  -16.1370   24.3777 C   0  0  2  0  0  0  0  0  0  0  0  0
    8.1265  -15.9937   23.0447 N   0  0  0  0  0  0  0  0  0  0  0  0
    8.4065  -15.4983   25.2989 C   0  0  0  0  0  0  0  0  0  0  0  0
    9.6625  -15.7801   25.0461 O   0  0  0  0  0  0  0  0  0  0  0  0
    8.2106  -14.6424   26.3938 N   0  0  0  0  0  0  0  0  0  0  0  0
    7.0312  -14.0746   26.9673 C   0  0  0  0  0  0  0  0  0  0  0  0
    7.4246  -12.8895   27.8184 C   0  0  0  0  0  0  0  0  0  0  0  0
    8.9071  -12.7187   27.6109 C   0  0  0  0  0  0  0  0  0  0  0  0
    9.3191  -14.1229   27.2398 C   0  0  1  0  0  0  0  0  0  0  0  0
    9.4366  -14.9001   28.4891 C   0  0  0  0  0  0  0  0  0  0  0  0
    8.6575  -15.8311   28.7444 O   0  0  0  0  0  0  0  0  0  0  0  0
   10.4321  -14.5836   29.3851 O   0  0  0  0  0  0  0  0  0  0  0  0
  1  2  1  0
  3  5  1  0
  3  2  1  0
  3  4  1  1
  5  6  1  6
  7  5  1  0
  7  8  2  0
 10 12  1  0
 10  9  1  0
 11 10  2  0
 13 12  1  1
 13 14  1  0
 14  7  1  0
 15 17  1  0
 15 13  1  0
 16 15  2  0
 17 18  1  0
 18 19  1  0
 19 20  1  0
 21 17  1  0
 21 22  1  1
 21 20  1  0
 22 24  1  0
 23 22  2  0
M  END
$$$$
