INP.pdb
     RDKit          3D

 24 24  0  0  1  0  0  0  0  0999 V2000
    5.9408  -10.2905   26.2632 C   0  0  0  0  0  0  0  0  0  0  0  0
    5.6036  -11.6043   25.6760 C   0  0  0  0  0  0  0  0  0  0  0  0
    6.5703  -12.7122   25.7830 C   0  0  2  0  0  0  0  0  0  0  0  0
    7.9554  -12.2962   25.2672 C   0  0  0  0  0  0  0  0  0  0  0  0
    6.2308  -14.0421   25.2319 C   0  0  2  0  0  0  0  0  0  0  0  0
    4.8714  -14.3599   25.7630 N   0  0  0  0  0  0  0  0  0  0  0  0
    7.1262  -15.1635   25.5390 C   0  0  0  0  0  0  0  0  0  0  0  0
    7.0914  -15.7542   26.6201 O   0  0  0  0  0  0  0  0  0  0  0  0
   11.1678  -18.5824   22.3833 N   0  0  0  0  0  0  0  0  0  0  0  0
   10.2852  -18.4233   23.4870 C   0  0  0  0  0  0  0  0  0  0  0  0
   10.3732  -19.2849   24.3898 O   0  0  0  0  0  0  0  0  0  0  0  0
    9.3602  -17.3109   23.5109 C   0  0  0  0  0  0  0  0  0  0  0  0
    9.0317  -16.7065   24.8387 C   0  0  2  0  0  0  0  0  0  0  0  0
    8.0650  -15.5998   24.5837 N   0  0  0  0  0  0  0  0  0  0  0  0
   10.1207  -16.0637   25.5656 C   0  0  0  0  0  0  0  0  0  0  0  0
   10.9866  -15.4646   24.7832 O   0  0  0  0  0  0  0  0  0  0  0  0
   10.4086  -15.9657   26.9358 N   0  0  0  0  0  0  0  0  0  0  0  0
    9.6296  -16.2446   28.1010 C   0  0  0  0  0  0  0  0  0  0  0  0
   10.2521  -15.5399   29.2840 C   0  0  0  0  0  0  0  0  0  0  0  0
   11.3839  -14.7231   28.7167 C   0  0  0  0  0  0  0  0  0  0  0  0
   11.7190  -15.5051   27.4696 C   0  0  1  0  0  0  0  0  0  0  0  0
   12.5562  -16.6523   27.8718 C   0  0  0  0  0  0  0  0  0  0  0  0
   13.6989  -16.4881   28.3259 O   0  0  0  0  0  0  0  0  0  0  0  0
   12.0553  -17.9273   27.7400 O   0  0  0  0  0  0  0  0  0  0  0  0
  1  2  1  0
  3  5  1  0
  3  2  1  0
  3  4  1  6
  5  6  1  1
  7  5  1  0
  7  8  2  0
 10 12  1  0
 10  9  1  0
 11 10  2  0
 13 12  1  6
 13 14  1  0
 14  7  1  0
 15 17  1  0
 15 13  1  0
 16 15  2  0
 17 18  1  0
 18 19  1  0
 19 20  1  0
 21 17  1  0
 21 22  1  1
 21 20  1  0
 22 24  1  0
 23 22  2  0
M  END
$$$$
