INP.pdb
     RDKit          3D

 24 24  0  0  1  0  0  0  0  0999 V2000
    8.3040  -12.2391   18.3615 C   0  0  0  0  0  0  0  0  0  0  0  0
    8.4000  -13.6357   18.8357 C   0  0  0  0  0  0  0  0  0  0  0  0
    7.7905  -14.0030   20.1267 C   0  0  2  0  0  0  0  0  0  0  0  0
    8.3188  -13.1185   21.2652 C   0  0  0  0  0  0  0  0  0  0  0  0
    7.7981  -15.4141   20.5702 C   0  0  2  0  0  0  0  0  0  0  0  0
    7.0864  -16.1737   19.4990 N   0  0  0  0  0  0  0  0  0  0  0  0
    7.1767  -15.7334   21.8608 C   0  0  0  0  0  0  0  0  0  0  0  0
    5.9619  -15.6395   22.0455 O   0  0  0  0  0  0  0  0  0  0  0  0
    6.6533  -17.3656   26.8703 N   0  0  0  0  0  0  0  0  0  0  0  0
    7.0747  -18.3059   25.8901 C   0  0  0  0  0  0  0  0  0  0  0  0
    7.0852  -19.5048   26.2472 O   0  0  0  0  0  0  0  0  0  0  0  0
    7.4578  -17.8456   24.5729 C   0  0  0  0  0  0  0  0  0  0  0  0
    7.4349  -16.3726   24.3157 C   0  0  2  0  0  0  0  0  0  0  0  0
    7.9725  -16.1646   22.9403 N   0  0  0  0  0  0  0  0  0  0  0  0
    8.2837  -15.5364   25.1570 C   0  0  0  0  0  0  0  0  0  0  0  0
    9.5653  -15.7616   24.9903 O   0  0  0  0  0  0  0  0  0  0  0  0
    7.9850  -14.5414   26.1008 N   0  0  0  0  0  0  0  0  0  0  0  0
    6.7628  -13.8892   26.4515 C   0  0  0  0  0  0  0  0  0  0  0  0
    7.0867  -12.6070   27.1828 C   0  0  0  0  0  0  0  0  0  0  0  0
    8.5873  -12.4825   27.1328 C   0  0  0  0  0  0  0  0  0  0  0  0
    9.0013  -13.9280   26.9982 C   0  0  1  0  0  0  0  0  0  0  0  0
    8.9514  -14.5352   28.3426 C   0  0  0  0  0  0  0  0  0  0  0  0
    8.1005  -15.3902   28.6322 O   0  0  0  0  0  0  0  0  0  0  0  0
    9.8693  -14.1435   29.2902 O   0  0  0  0  0  0  0  0  0  0  0  0
  1  2  1  0
  3  5  1  0
  3  2  1  0
  3  4  1  1
  5  6  1  6
  7  5  1  0
  7  8  2  0
 10 12  1  0
 10  9  1  0
 11 10  2  0
 13 12  1  1
 13 14  1  0
 14  7  1  0
 15 17  1  0
 15 13  1  0
 16 15  2  0
 17 18  1  0
 18 19  1  0
 19 20  1  0
 21 17  1  0
 21 22  1  1
 21 20  1  0
 22 24  1  0
 23 22  2  0
M  END
$$$$
