INP.pdb
     RDKit          3D

 24 24  0  0  1  0  0  0  0  0999 V2000
    8.4191  -12.1522   18.1321 C   0  0  0  0  0  0  0  0  0  0  0  0
    8.5000  -13.5238   18.6769 C   0  0  0  0  0  0  0  0  0  0  0  0
    7.8355  -13.8326   19.9561 C   0  0  2  0  0  0  0  0  0  0  0  0
    8.2830  -12.8688   21.0644 C   0  0  0  0  0  0  0  0  0  0  0  0
    7.8564  -15.2147   20.4824 C   0  0  2  0  0  0  0  0  0  0  0  0
    7.2047  -16.0527   19.4318 N   0  0  0  0  0  0  0  0  0  0  0  0
    7.1916  -15.4730   21.7650 C   0  0  0  0  0  0  0  0  0  0  0  0
    5.9647  -15.5192   21.8707 O   0  0  0  0  0  0  0  0  0  0  0  0
    7.6918  -18.9590   26.3446 N   0  0  0  0  0  0  0  0  0  0  0  0
    6.9395  -17.8950   25.7750 C   0  0  0  0  0  0  0  0  0  0  0  0
    6.0031  -17.4482   26.4740 O   0  0  0  0  0  0  0  0  0  0  0  0
    7.2820  -17.3986   24.4597 C   0  0  0  0  0  0  0  0  0  0  0  0
    7.3523  -15.9169   24.2708 C   0  0  2  0  0  0  0  0  0  0  0  0
    7.9580  -15.6795   22.9288 N   0  0  0  0  0  0  0  0  0  0  0  0
    8.2104  -15.1692   25.1830 C   0  0  0  0  0  0  0  0  0  0  0  0
    9.4846  -15.2477   24.8809 O   0  0  0  0  0  0  0  0  0  0  0  0
    7.9267  -14.3852   26.3120 N   0  0  0  0  0  0  0  0  0  0  0  0
    6.7013  -14.0696   26.9762 C   0  0  0  0  0  0  0  0  0  0  0  0
    6.9129  -12.8431   27.8332 C   0  0  0  0  0  0  0  0  0  0  0  0
    8.3155  -12.3805   27.5354 C   0  0  0  0  0  0  0  0  0  0  0  0
    8.9677  -13.6701   27.0990 C   0  0  1  0  0  0  0  0  0  0  0  0
    9.3207  -14.4276   28.3156 C   0  0  0  0  0  0  0  0  0  0  0  0
    8.7498  -15.4915   28.6006 O   0  0  0  0  0  0  0  0  0  0  0  0
   10.3037  -13.9415   29.1471 O   0  0  0  0  0  0  0  0  0  0  0  0
  1  2  1  0
  3  5  1  0
  3  2  1  0
  3  4  1  1
  5  6  1  6
  7  5  1  0
  7  8  2  0
 10 12  1  0
 10  9  1  0
 11 10  2  0
 13 12  1  1
 13 14  1  0
 14  7  1  0
 15 17  1  0
 15 13  1  0
 16 15  2  0
 17 18  1  0
 18 19  1  0
 19 20  1  0
 21 17  1  0
 21 22  1  1
 21 20  1  0
 22 24  1  0
 23 22  2  0
M  END
$$$$
