NGH.pdb
     RDKit          3D

 23 23  0  0  1  0  0  0  0  0999 V2000
   18.3258  -26.0450   -5.3006 N   0  0  0  0  0  0  0  0  0  0  0  0
   17.9786  -24.8737   -6.0180 C   0  0  0  0  0  0  0  0  0  0  0  0
   17.9235  -23.7881   -5.3944 O   0  0  0  0  0  0  0  0  0  0  0  0
   17.6975  -24.9801   -7.4609 C   0  0  0  0  0  0  0  0  0  0  0  0
   16.2230  -24.6771   -7.6548 C   0  0  2  0  0  0  0  0  0  0  0  0
   15.4210  -25.8553   -7.4387 N   0  0  0  0  0  0  0  0  0  0  0  0
   16.0390  -24.2051   -9.0441 C   0  0  0  0  0  0  0  0  0  0  0  0
   15.6340  -25.0078   -9.9529 O   0  0  0  0  0  0  0  0  0  0  0  0
   16.3165  -22.8569   -9.3574 N   0  0  0  0  0  0  0  0  0  0  0  0
   16.0030  -22.3878  -10.6722 C   0  0  0  0  0  0  0  0  0  0  0  0
   17.2558  -22.3470  -11.4736 C   0  0  0  0  0  0  0  0  0  0  0  0
   18.3151  -21.8504  -11.0088 O   0  0  0  0  0  0  0  0  0  0  0  0
   17.3130  -22.8714  -12.8129 N   0  0  0  0  0  0  0  0  0  0  0  0
   18.4972  -22.7491  -13.6217 C   0  0  1  0  0  0  0  0  0  0  0  0
   18.8642  -24.0593  -14.2808 C   0  0  0  0  0  0  0  0  0  0  0  0
   19.1881  -25.1063  -13.2885 C   0  0  0  0  0  0  0  0  0  0  0  0
   18.2671  -26.0103  -12.7846 C   0  0  0  0  0  0  0  0  0  0  0  0
   18.8855  -26.8288  -11.9023 N   0  0  0  0  0  0  0  0  0  0  0  0
   20.1609  -26.4449  -11.8566 C   0  0  0  0  0  0  0  0  0  0  0  0
   20.3496  -25.4108  -12.6868 N   0  0  0  0  0  0  0  0  0  0  0  0
   18.3656  -21.6482  -14.5803 C   0  0  0  0  0  0  0  0  0  0  0  0
   19.3744  -21.2751  -15.2276 O   0  0  0  0  0  0  0  0  0  0  0  0
   17.1696  -20.9858  -14.8153 O   0  0  0  0  0  0  0  0  0  0  0  0
  2  1  1  0
  3  2  2  0
  4  2  1  0
  4  5  1  0
  5  7  1  0
  5  6  1  6
  7  9  1  0
  7  8  2  0
  9 10  1  0
 10 11  1  0
 11 12  2  0
 13 11  1  0
 13 14  1  0
 14 15  1  6
 15 16  1  0
 16 17  2  0
 17 18  1  0
 19 18  1  0
 20 16  1  0
 20 19  2  0
 21 14  1  0
 21 23  1  0
 22 21  2  0
M  END
$$$$
