NGH.pdb
     RDKit          3D

 23 23  0  0  1  0  0  0  0  0999 V2000
   20.8743  -17.5740  -18.2632 N   0  0  0  0  0  0  0  0  0  0  0  0
   19.8600  -16.7871  -18.8625 C   0  0  0  0  0  0  0  0  0  0  0  0
   18.8013  -17.3535  -19.2214 O   0  0  0  0  0  0  0  0  0  0  0  0
   20.0912  -15.3422  -19.0388 C   0  0  0  0  0  0  0  0  0  0  0  0
   21.0512  -14.9045  -17.9478 C   0  0  2  0  0  0  0  0  0  0  0  0
   20.3746  -14.7898  -16.6800 N   0  0  0  0  0  0  0  0  0  0  0  0
   21.6002  -13.5866  -18.3330 C   0  0  0  0  0  0  0  0  0  0  0  0
   22.4092  -13.4843  -19.3176 O   0  0  0  0  0  0  0  0  0  0  0  0
   21.2219  -12.4405  -17.6006 N   0  0  0  0  0  0  0  0  0  0  0  0
   21.7677  -11.1764  -17.9895 C   0  0  0  0  0  0  0  0  0  0  0  0
   22.1421  -10.4227  -16.7626 C   0  0  0  0  0  0  0  0  0  0  0  0
   21.7252  -10.7708  -15.6269 O   0  0  0  0  0  0  0  0  0  0  0  0
   22.9948   -9.2644  -16.8186 N   0  0  0  0  0  0  0  0  0  0  0  0
   23.3655   -8.5416  -15.6304 C   0  0  1  0  0  0  0  0  0  0  0  0
   24.8432   -8.2224  -15.6061 C   0  0  0  0  0  0  0  0  0  0  0  0
   25.6734   -9.4288  -15.8088 C   0  0  0  0  0  0  0  0  0  0  0  0
   26.1459  -10.2281  -14.7806 C   0  0  0  0  0  0  0  0  0  0  0  0
   26.8684  -11.2449  -15.3050 N   0  0  0  0  0  0  0  0  0  0  0  0
   26.8474  -11.0839  -16.6278 C   0  0  0  0  0  0  0  0  0  0  0  0
   26.1313   -9.9950  -16.9372 N   0  0  0  0  0  0  0  0  0  0  0  0
   22.5248   -7.3539  -15.4559 C   0  0  0  0  0  0  0  0  0  0  0  0
   21.8757   -6.9129  -16.4357 O   0  0  0  0  0  0  0  0  0  0  0  0
   22.4050   -6.6799  -14.2493 O   0  0  0  0  0  0  0  0  0  0  0  0
  2  1  1  0
  3  2  2  0
  4  2  1  0
  4  5  1  0
  5  7  1  0
  5  6  1  1
  7  9  1  0
  7  8  2  0
  9 10  1  0
 10 11  1  0
 11 12  2  0
 13 11  1  0
 13 14  1  0
 14 15  1  6
 15 16  1  0
 16 17  2  0
 17 18  1  0
 19 18  1  0
 20 16  1  0
 20 19  2  0
 21 14  1  0
 21 23  1  0
 22 21  2  0
M  END
$$$$
