NGH.pdb
     RDKit          3D

 23 23  0  0  1  0  0  0  0  0999 V2000
   28.6359  -13.9892  -19.6890 N   0  0  0  0  0  0  0  0  0  0  0  0
   27.3304  -14.3134  -20.1336 C   0  0  0  0  0  0  0  0  0  0  0  0
   27.0604  -14.1621  -21.3480 O   0  0  0  0  0  0  0  0  0  0  0  0
   26.3485  -14.8121  -19.1541 C   0  0  0  0  0  0  0  0  0  0  0  0
   27.0880  -15.7434  -18.2110 C   0  0  2  0  0  0  0  0  0  0  0  0
   27.2584  -17.0474  -18.8013 N   0  0  0  0  0  0  0  0  0  0  0  0
   26.2846  -15.8642  -16.9754 C   0  0  0  0  0  0  0  0  0  0  0  0
   26.0027  -14.8279  -16.2819 O   0  0  0  0  0  0  0  0  0  0  0  0
   25.8320  -17.1378  -16.5683 N   0  0  0  0  0  0  0  0  0  0  0  0
   25.0160  -17.2249  -15.3963 C   0  0  0  0  0  0  0  0  0  0  0  0
   23.7809  -17.9833  -15.7323 C   0  0  0  0  0  0  0  0  0  0  0  0
   23.2074  -17.8421  -16.8440 O   0  0  0  0  0  0  0  0  0  0  0  0
   23.1872  -18.9094  -14.8039 N   0  0  0  0  0  0  0  0  0  0  0  0
   22.0289  -19.6894  -15.1522 C   0  0  1  0  0  0  0  0  0  0  0  0
   22.3197  -21.1727  -15.1155 C   0  0  0  0  0  0  0  0  0  0  0  0
   23.4624  -21.5342  -15.9811 C   0  0  0  0  0  0  0  0  0  0  0  0
   24.7178  -21.8780  -15.5066 C   0  0  0  0  0  0  0  0  0  0  0  0
   25.5288  -22.1514  -16.5546 N   0  0  0  0  0  0  0  0  0  0  0  0
   24.7976  -21.9821  -17.6558 C   0  0  0  0  0  0  0  0  0  0  0  0
   23.5554  -21.6115  -17.3187 N   0  0  0  0  0  0  0  0  0  0  0  0
   20.8776  -19.3156  -14.3258 C   0  0  0  0  0  0  0  0  0  0  0  0
   21.0682  -18.6781  -13.2614 O   0  0  0  0  0  0  0  0  0  0  0  0
   19.5690  -19.6323  -14.6603 O   0  0  0  0  0  0  0  0  0  0  0  0
  2  1  1  0
  3  2  2  0
  4  2  1  0
  4  5  1  0
  5  7  1  0
  5  6  1  6
  7  9  1  0
  7  8  2  0
  9 10  1  0
 10 11  1  0
 11 12  2  0
 13 11  1  0
 13 14  1  0
 14 15  1  1
 15 16  1  0
 16 17  2  0
 17 18  1  0
 19 18  1  0
 20 16  1  0
 20 19  2  0
 21 14  1  0
 21 23  1  0
 22 21  2  0
M  END
$$$$
