NGH.pdb
     RDKit          3D

 23 23  0  0  1  0  0  0  0  0999 V2000
   17.8019  -16.8516  -17.1218 N   0  0  0  0  0  0  0  0  0  0  0  0
   18.9808  -16.0830  -17.2841 C   0  0  0  0  0  0  0  0  0  0  0  0
   19.7839  -16.4088  -18.1893 O   0  0  0  0  0  0  0  0  0  0  0  0
   19.2130  -14.9379  -16.3857 C   0  0  0  0  0  0  0  0  0  0  0  0
   19.4555  -13.7220  -17.2611 C   0  0  2  0  0  0  0  0  0  0  0  0
   20.8345  -13.6502  -17.6748 N   0  0  0  0  0  0  0  0  0  0  0  0
   19.1171  -12.5210  -16.4677 C   0  0  0  0  0  0  0  0  0  0  0  0
   17.9760  -12.4195  -15.9003 O   0  0  0  0  0  0  0  0  0  0  0  0
   20.0683  -11.4853  -16.3434 N   0  0  0  0  0  0  0  0  0  0  0  0
   19.7409  -10.3582  -15.5252 C   0  0  0  0  0  0  0  0  0  0  0  0
   20.9202   -9.4529  -15.4692 C   0  0  0  0  0  0  0  0  0  0  0  0
   22.0600   -9.8380  -15.8396 O   0  0  0  0  0  0  0  0  0  0  0  0
   20.8117   -8.1001  -14.9896 N   0  0  0  0  0  0  0  0  0  0  0  0
   21.9052   -7.1706  -15.0980 C   0  0  1  0  0  0  0  0  0  0  0  0
   22.3005   -6.9349  -16.5382 C   0  0  0  0  0  0  0  0  0  0  0  0
   23.4166   -5.9724  -16.6553 C   0  0  0  0  0  0  0  0  0  0  0  0
   23.3255   -4.7533  -17.3070 C   0  0  0  0  0  0  0  0  0  0  0  0
   24.5183   -4.1189  -17.2305 N   0  0  0  0  0  0  0  0  0  0  0  0
   25.3335   -4.9225  -16.5480 C   0  0  0  0  0  0  0  0  0  0  0  0
   24.6782   -6.0375  -16.1994 N   0  0  0  0  0  0  0  0  0  0  0  0
   21.6098   -5.9279  -14.3793 C   0  0  0  0  0  0  0  0  0  0  0  0
   20.4197   -5.5382  -14.2920 O   0  0  0  0  0  0  0  0  0  0  0  0
   22.5879   -5.1467  -13.7809 O   0  0  0  0  0  0  0  0  0  0  0  0
  2  1  1  0
  3  2  2  0
  4  2  1  0
  4  5  1  0
  5  7  1  0
  5  6  1  1
  7  9  1  0
  7  8  2  0
  9 10  1  0
 10 11  1  0
 11 12  2  0
 13 11  1  0
 13 14  1  0
 14 15  1  6
 15 16  1  0
 16 17  2  0
 17 18  1  0
 19 18  1  0
 20 16  1  0
 20 19  2  0
 21 14  1  0
 21 23  1  0
 22 21  2  0
M  END
$$$$
