NGH.pdb
     RDKit          3D

 23 23  0  0  1  0  0  0  0  0999 V2000
   27.8880  -34.5485   -5.9117 N   0  0  0  0  0  0  0  0  0  0  0  0
   28.7232  -35.5230   -5.3115 C   0  0  0  0  0  0  0  0  0  0  0  0
   29.1406  -36.4678   -6.0212 O   0  0  0  0  0  0  0  0  0  0  0  0
   29.0642  -35.3861   -3.8842 C   0  0  0  0  0  0  0  0  0  0  0  0
   28.3026  -34.1853   -3.3535 C   0  0  2  0  0  0  0  0  0  0  0  0
   29.2032  -33.1140   -3.0082 N   0  0  0  0  0  0  0  0  0  0  0  0
   27.5661  -34.6168   -2.1461 C   0  0  0  0  0  0  0  0  0  0  0  0
   26.3014  -34.7988   -2.1890 O   0  0  0  0  0  0  0  0  0  0  0  0
   28.2747  -34.8255   -0.9431 N   0  0  0  0  0  0  0  0  0  0  0  0
   27.5308  -35.1535    0.2342 C   0  0  0  0  0  0  0  0  0  0  0  0
   27.9213  -34.2148    1.3203 C   0  0  0  0  0  0  0  0  0  0  0  0
   28.6936  -33.2449    1.1018 O   0  0  0  0  0  0  0  0  0  0  0  0
   27.4359  -34.3730    2.6662 N   0  0  0  0  0  0  0  0  0  0  0  0
   27.8564  -33.4974    3.7283 C   0  0  1  0  0  0  0  0  0  0  0  0
   26.7353  -33.2205    4.7041 C   0  0  0  0  0  0  0  0  0  0  0  0
   25.7731  -32.2305    4.1752 C   0  0  0  0  0  0  0  0  0  0  0  0
   24.6262  -32.5613    3.4719 C   0  0  0  0  0  0  0  0  0  0  0  0
   23.9701  -31.4271    3.1341 N   0  0  0  0  0  0  0  0  0  0  0  0
   24.6900  -30.4137    3.6145 C   0  0  0  0  0  0  0  0  0  0  0  0
   25.7743  -30.8891    4.2410 N   0  0  0  0  0  0  0  0  0  0  0  0
   29.0648  -34.0087    4.3814 C   0  0  0  0  0  0  0  0  0  0  0  0
   29.2295  -35.2492    4.4812 O   0  0  0  0  0  0  0  0  0  0  0  0
   30.0514  -33.1848    4.9033 O   0  0  0  0  0  0  0  0  0  0  0  0
  2  1  1  0
  3  2  2  0
  4  2  1  0
  4  5  1  0
  5  7  1  0
  5  6  1  1
  7  9  1  0
  7  8  2  0
  9 10  1  0
 10 11  1  0
 11 12  2  0
 13 11  1  0
 13 14  1  0
 14 15  1  1
 15 16  1  0
 16 17  2  0
 17 18  1  0
 19 18  1  0
 20 16  1  0
 20 19  2  0
 21 14  1  0
 21 23  1  0
 22 21  2  0
M  END
$$$$
