NGH.pdb
     RDKit          3D

 23 23  0  0  1  0  0  0  0  0999 V2000
   22.1136  -10.4568  -15.7878 N   0  0  0  0  0  0  0  0  0  0  0  0
   22.1874   -9.0510  -15.6283 C   0  0  0  0  0  0  0  0  0  0  0  0
   22.3970   -8.3470  -16.6436 O   0  0  0  0  0  0  0  0  0  0  0  0
   22.0162   -8.4777  -14.2813 C   0  0  0  0  0  0  0  0  0  0  0  0
   20.5260   -8.4379  -13.9962 C   0  0  2  0  0  0  0  0  0  0  0  0
   19.8869   -7.3784  -14.7358 N   0  0  0  0  0  0  0  0  0  0  0  0
   20.3509   -8.2010  -12.5471 C   0  0  0  0  0  0  0  0  0  0  0  0
   20.8031   -9.0390  -11.6942 O   0  0  0  0  0  0  0  0  0  0  0  0
   19.6774   -7.0383  -12.1143 N   0  0  0  0  0  0  0  0  0  0  0  0
   19.3291   -6.9315  -10.7307 C   0  0  0  0  0  0  0  0  0  0  0  0
   17.8482   -6.8430  -10.6187 C   0  0  0  0  0  0  0  0  0  0  0  0
   17.1379   -6.4808  -11.5930 O   0  0  0  0  0  0  0  0  0  0  0  0
   17.1627   -7.1659   -9.3949 N   0  0  0  0  0  0  0  0  0  0  0  0
   15.7364   -7.0213   -9.2676 C   0  0  1  0  0  0  0  0  0  0  0  0
   15.2081   -7.7287   -8.0402 C   0  0  0  0  0  0  0  0  0  0  0  0
   13.7313   -7.7009   -7.9782 C   0  0  0  0  0  0  0  0  0  0  0  0
   12.9243   -7.1197   -8.9427 C   0  0  0  0  0  0  0  0  0  0  0  0
   11.6278   -7.2679   -8.5848 N   0  0  0  0  0  0  0  0  0  0  0  0
   11.6259   -7.9253   -7.4256 C   0  0  0  0  0  0  0  0  0  0  0  0
   12.8860   -8.1885   -7.0554 N   0  0  0  0  0  0  0  0  0  0  0  0
   15.3459   -5.6097   -9.3219 C   0  0  0  0  0  0  0  0  0  0  0  0
   14.2961   -5.2870   -9.9298 O   0  0  0  0  0  0  0  0  0  0  0  0
   16.0837   -4.5952   -8.7295 O   0  0  0  0  0  0  0  0  0  0  0  0
  2  1  1  0
  3  2  2  0
  4  2  1  0
  4  5  1  0
  5  7  1  0
  5  6  1  6
  7  9  1  0
  7  8  2  0
  9 10  1  0
 10 11  1  0
 11 12  2  0
 13 11  1  0
 13 14  1  0
 14 15  1  1
 15 16  1  0
 16 17  2  0
 17 18  1  0
 19 18  1  0
 20 16  1  0
 20 19  2  0
 21 14  1  0
 21 23  1  0
 22 21  2  0
M  END
$$$$
