NGH.pdb
     RDKit          3D

 23 23  0  0  1  0  0  0  0  0999 V2000
   26.1999  -17.9921  -19.9508 N   0  0  0  0  0  0  0  0  0  0  0  0
   26.8799  -19.1625  -19.5324 C   0  0  0  0  0  0  0  0  0  0  0  0
   26.7716  -20.1962  -20.2325 O   0  0  0  0  0  0  0  0  0  0  0  0
   27.6820  -19.1161  -18.2968 C   0  0  0  0  0  0  0  0  0  0  0  0
   27.0317  -20.0616  -17.3034 C   0  0  2  0  0  0  0  0  0  0  0  0
   26.5900  -21.2699  -17.9536 N   0  0  0  0  0  0  0  0  0  0  0  0
   25.8669  -19.3657  -16.7154 C   0  0  0  0  0  0  0  0  0  0  0  0
   26.0286  -18.3038  -16.0223 O   0  0  0  0  0  0  0  0  0  0  0  0
   24.5723  -19.8873  -16.9269 N   0  0  0  0  0  0  0  0  0  0  0  0
   23.4693  -19.2491  -16.2764 C   0  0  0  0  0  0  0  0  0  0  0  0
   22.7615  -20.2572  -15.4420 C   0  0  0  0  0  0  0  0  0  0  0  0
   22.8930  -21.4913  -15.6531 O   0  0  0  0  0  0  0  0  0  0  0  0
   21.8965  -19.8683  -14.3592 N   0  0  0  0  0  0  0  0  0  0  0  0
   21.2758  -20.8430  -13.5013 C   0  0  1  0  0  0  0  0  0  0  0  0
   21.7873  -20.7476  -12.0817 C   0  0  0  0  0  0  0  0  0  0  0  0
   23.2120  -21.1294  -11.9800 C   0  0  0  0  0  0  0  0  0  0  0  0
   23.7209  -22.3485  -12.3972 C   0  0  0  0  0  0  0  0  0  0  0  0
   25.0536  -22.3761  -12.1647 N   0  0  0  0  0  0  0  0  0  0  0  0
   25.3684  -21.2032  -11.6159 C   0  0  0  0  0  0  0  0  0  0  0  0
   24.2670  -20.4495  -11.5021 N   0  0  0  0  0  0  0  0  0  0  0  0
   19.8149  -20.7606  -13.5854 C   0  0  0  0  0  0  0  0  0  0  0  0
   19.2869  -19.7455  -14.1019 O   0  0  0  0  0  0  0  0  0  0  0  0
   18.9706  -21.7576  -13.1187 O   0  0  0  0  0  0  0  0  0  0  0  0
  2  1  1  0
  3  2  2  0
  4  2  1  0
  4  5  1  0
  5  7  1  0
  5  6  1  6
  7  9  1  0
  7  8  2  0
  9 10  1  0
 10 11  1  0
 11 12  2  0
 13 11  1  0
 13 14  1  0
 14 15  1  1
 15 16  1  0
 16 17  2  0
 17 18  1  0
 19 18  1  0
 20 16  1  0
 20 19  2  0
 21 14  1  0
 21 23  1  0
 22 21  2  0
M  END
$$$$
