NGH.pdb
     RDKit          3D

 23 23  0  0  1  0  0  0  0  0999 V2000
   15.1864  -12.6758  -13.8959 N   0  0  0  0  0  0  0  0  0  0  0  0
   16.1804  -12.5790  -14.9006 C   0  0  0  0  0  0  0  0  0  0  0  0
   16.6626  -13.6385  -15.3650 O   0  0  0  0  0  0  0  0  0  0  0  0
   16.6047  -11.2428  -15.3555 C   0  0  0  0  0  0  0  0  0  0  0  0
   17.6156  -11.4474  -16.4690 C   0  0  2  0  0  0  0  0  0  0  0  0
   18.9020  -11.8209  -15.9364 N   0  0  0  0  0  0  0  0  0  0  0  0
   17.7399  -10.1707  -17.2046 C   0  0  0  0  0  0  0  0  0  0  0  0
   16.7188   -9.6433  -17.7644 O   0  0  0  0  0  0  0  0  0  0  0  0
   19.0001   -9.5393  -17.2832 N   0  0  0  0  0  0  0  0  0  0  0  0
   19.0976   -8.3071  -18.0037 C   0  0  0  0  0  0  0  0  0  0  0  0
   20.4964   -7.8096  -17.9076 C   0  0  0  0  0  0  0  0  0  0  0  0
   20.8443   -6.7247  -18.4431 O   0  0  0  0  0  0  0  0  0  0  0  0
   21.5124   -8.5444  -17.2007 N   0  0  0  0  0  0  0  0  0  0  0  0
   22.8613   -8.0542  -17.0925 C   0  0  1  0  0  0  0  0  0  0  0  0
   23.2755   -7.8651  -15.6507 C   0  0  0  0  0  0  0  0  0  0  0  0
   22.4175   -6.8844  -14.9524 C   0  0  0  0  0  0  0  0  0  0  0  0
   22.5473   -5.5108  -15.0779 C   0  0  0  0  0  0  0  0  0  0  0  0
   21.6116   -4.9046  -14.3112 N   0  0  0  0  0  0  0  0  0  0  0  0
   20.9152   -5.8760  -13.7217 C   0  0  0  0  0  0  0  0  0  0  0  0
   21.3939   -7.0677  -14.1025 N   0  0  0  0  0  0  0  0  0  0  0  0
   23.7896   -8.9041  -17.8435 C   0  0  0  0  0  0  0  0  0  0  0  0
   25.0037   -8.5896  -17.8951 O   0  0  0  0  0  0  0  0  0  0  0  0
   23.3943  -10.0546  -18.5104 O   0  0  0  0  0  0  0  0  0  0  0  0
  2  1  1  0
  3  2  2  0
  4  2  1  0
  4  5  1  0
  5  7  1  0
  5  6  1  1
  7  9  1  0
  7  8  2  0
  9 10  1  0
 10 11  1  0
 11 12  2  0
 13 11  1  0
 13 14  1  0
 14 15  1  1
 15 16  1  0
 16 17  2  0
 17 18  1  0
 19 18  1  0
 20 16  1  0
 20 19  2  0
 21 14  1  0
 21 23  1  0
 22 21  2  0
M  END
$$$$
