NGH.pdb
     RDKit          3D

 23 23  0  0  1  0  0  0  0  0999 V2000
   10.9594  -11.0488   -7.7835 N   0  0  0  0  0  0  0  0  0  0  0  0
   11.1803   -9.9856   -8.6935 C   0  0  0  0  0  0  0  0  0  0  0  0
   10.5074   -9.9572   -9.7503 O   0  0  0  0  0  0  0  0  0  0  0  0
   12.1879   -8.9625   -8.3614 C   0  0  0  0  0  0  0  0  0  0  0  0
   13.1913   -8.9341   -9.4998 C   0  0  2  0  0  0  0  0  0  0  0  0
   14.0015  -10.1264   -9.5038 N   0  0  0  0  0  0  0  0  0  0  0  0
   14.0578   -7.7515   -9.3070 C   0  0  0  0  0  0  0  0  0  0  0  0
   13.5522   -6.5782   -9.2614 O   0  0  0  0  0  0  0  0  0  0  0  0
   15.4517   -7.9315   -9.1743 N   0  0  0  0  0  0  0  0  0  0  0  0
   16.2787   -6.7688   -9.0679 C   0  0  0  0  0  0  0  0  0  0  0  0
   17.5950   -7.0626   -9.6960 C   0  0  0  0  0  0  0  0  0  0  0  0
   18.3296   -7.9933   -9.2730 O   0  0  0  0  0  0  0  0  0  0  0  0
   18.0869   -6.2978  -10.8118 N   0  0  0  0  0  0  0  0  0  0  0  0
   19.2485   -6.7092  -11.5556 C   0  0  1  0  0  0  0  0  0  0  0  0
   19.1309   -8.1385  -12.0343 C   0  0  0  0  0  0  0  0  0  0  0  0
   20.2193   -8.5010  -12.9668 C   0  0  0  0  0  0  0  0  0  0  0  0
   20.2420   -8.1516  -14.3073 C   0  0  0  0  0  0  0  0  0  0  0  0
   21.3717   -8.6359  -14.8731 N   0  0  0  0  0  0  0  0  0  0  0  0
   22.0374   -9.2719  -13.9095 C   0  0  0  0  0  0  0  0  0  0  0  0
   21.3509   -9.1948  -12.7620 N   0  0  0  0  0  0  0  0  0  0  0  0
   19.5354   -5.7680  -12.6419 C   0  0  0  0  0  0  0  0  0  0  0  0
   20.6347   -5.8428  -13.2434 O   0  0  0  0  0  0  0  0  0  0  0  0
   18.6456   -4.7842  -13.0481 O   0  0  0  0  0  0  0  0  0  0  0  0
  2  1  1  0
  3  2  2  0
  4  2  1  0
  4  5  1  0
  5  7  1  0
  5  6  1  1
  7  9  1  0
  7  8  2  0
  9 10  1  0
 10 11  1  0
 11 12  2  0
 13 11  1  0
 13 14  1  0
 14 15  1  6
 15 16  1  0
 16 17  2  0
 17 18  1  0
 19 18  1  0
 20 16  1  0
 20 19  2  0
 21 14  1  0
 21 23  1  0
 22 21  2  0
M  END
$$$$
