NGH.pdb
     RDKit          3D

 23 23  0  0  1  0  0  0  0  0999 V2000
   21.7815  -17.2608  -15.9499 N   0  0  0  0  0  0  0  0  0  0  0  0
   22.9178  -17.1289  -16.7857 C   0  0  0  0  0  0  0  0  0  0  0  0
   22.7436  -16.7790  -17.9763 O   0  0  0  0  0  0  0  0  0  0  0  0
   24.2512  -17.4079  -16.2231 C   0  0  0  0  0  0  0  0  0  0  0  0
   24.8432  -18.5567  -17.0190 C   0  0  2  0  0  0  0  0  0  0  0  0
   24.4231  -18.5008  -18.3968 N   0  0  0  0  0  0  0  0  0  0  0  0
   24.3679  -19.8180  -16.4108 C   0  0  0  0  0  0  0  0  0  0  0  0
   25.2024  -20.7088  -16.0307 O   0  0  0  0  0  0  0  0  0  0  0  0
   22.9809  -20.0292  -16.2547 N   0  0  0  0  0  0  0  0  0  0  0  0
   22.4238  -21.2573  -16.7326 C   0  0  0  0  0  0  0  0  0  0  0  0
   21.6787  -21.9061  -15.6202 C   0  0  0  0  0  0  0  0  0  0  0  0
   20.6175  -22.5499  -15.8301 O   0  0  0  0  0  0  0  0  0  0  0  0
   22.1358  -21.8265  -14.2576 N   0  0  0  0  0  0  0  0  0  0  0  0
   21.3033  -21.2926  -13.2119 C   0  0  1  0  0  0  0  0  0  0  0  0
   22.0358  -20.2622  -12.3827 C   0  0  0  0  0  0  0  0  0  0  0  0
   23.3331  -20.7704  -11.8881 C   0  0  0  0  0  0  0  0  0  0  0  0
   23.8008  -22.0548  -12.1135 C   0  0  0  0  0  0  0  0  0  0  0  0
   25.0132  -22.1946  -11.5291 N   0  0  0  0  0  0  0  0  0  0  0  0
   25.2949  -21.0263  -10.9532 C   0  0  0  0  0  0  0  0  0  0  0  0
   24.2900  -20.1663  -11.1649 N   0  0  0  0  0  0  0  0  0  0  0  0
   20.0381  -20.7899  -13.7547 C   0  0  0  0  0  0  0  0  0  0  0  0
   18.9620  -21.3338  -13.4053 O   0  0  0  0  0  0  0  0  0  0  0  0
   19.9630  -19.7301  -14.6467 O   0  0  0  0  0  0  0  0  0  0  0  0
  2  1  1  0
  3  2  2  0
  4  2  1  0
  4  5  1  0
  5  7  1  0
  5  6  1  6
  7  9  1  0
  7  8  2  0
  9 10  1  0
 10 11  1  0
 11 12  2  0
 13 11  1  0
 13 14  1  0
 14 15  1  6
 15 16  1  0
 16 17  2  0
 17 18  1  0
 19 18  1  0
 20 16  1  0
 20 19  2  0
 21 14  1  0
 21 23  1  0
 22 21  2  0
M  END
$$$$
