NGH.pdb
     RDKit          3D

 23 23  0  0  1  0  0  0  0  0999 V2000
   21.7984   -9.7095  -20.5706 N   0  0  0  0  0  0  0  0  0  0  0  0
   21.9182   -8.9475  -21.7589 C   0  0  0  0  0  0  0  0  0  0  0  0
   21.7387   -9.5246  -22.8567 O   0  0  0  0  0  0  0  0  0  0  0  0
   22.2478   -7.5147  -21.6552 C   0  0  0  0  0  0  0  0  0  0  0  0
   22.4244   -7.1999  -20.1810 C   0  0  2  0  0  0  0  0  0  0  0  0
   22.7311   -8.3925  -19.4314 N   0  0  0  0  0  0  0  0  0  0  0  0
   21.1554   -6.6224  -19.6885 C   0  0  0  0  0  0  0  0  0  0  0  0
   20.7236   -5.5136  -20.1558 O   0  0  0  0  0  0  0  0  0  0  0  0
   20.4245   -7.3088  -18.6947 N   0  0  0  0  0  0  0  0  0  0  0  0
   19.2274   -6.7053  -18.1948 C   0  0  0  0  0  0  0  0  0  0  0  0
   19.0664   -7.0825  -16.7646 C   0  0  0  0  0  0  0  0  0  0  0  0
   18.0322   -6.7718  -16.1176 O   0  0  0  0  0  0  0  0  0  0  0  0
   20.0830   -7.8168  -16.0581 N   0  0  0  0  0  0  0  0  0  0  0  0
   19.9477   -8.1412  -14.6625 C   0  0  1  0  0  0  0  0  0  0  0  0
   20.2924   -9.5873  -14.3867 C   0  0  0  0  0  0  0  0  0  0  0  0
   19.3976  -10.5168  -15.1085 C   0  0  0  0  0  0  0  0  0  0  0  0
   18.3322  -10.1139  -15.8972 C   0  0  0  0  0  0  0  0  0  0  0  0
   17.7224  -11.2069  -16.4114 N   0  0  0  0  0  0  0  0  0  0  0  0
   18.3905  -12.2656  -15.9546 C   0  0  0  0  0  0  0  0  0  0  0  0
   19.3980  -11.8584  -15.1714 N   0  0  0  0  0  0  0  0  0  0  0  0
   20.7113   -7.2067  -13.8308 C   0  0  0  0  0  0  0  0  0  0  0  0
   20.6788   -7.3300  -12.5820 O   0  0  0  0  0  0  0  0  0  0  0  0
   21.4797   -6.1777  -14.3557 O   0  0  0  0  0  0  0  0  0  0  0  0
  2  1  1  0
  3  2  2  0
  4  2  1  0
  4  5  1  0
  5  7  1  0
  5  6  1  1
  7  9  1  0
  7  8  2  0
  9 10  1  0
 10 11  1  0
 11 12  2  0
 13 11  1  0
 13 14  1  0
 14 15  1  6
 15 16  1  0
 16 17  2  0
 17 18  1  0
 19 18  1  0
 20 16  1  0
 20 19  2  0
 21 14  1  0
 21 23  1  0
 22 21  2  0
M  END
$$$$
