NGH.pdb
     RDKit          3D

 23 23  0  0  1  0  0  0  0  0999 V2000
   17.8408  -15.3333  -15.6784 N   0  0  0  0  0  0  0  0  0  0  0  0
   19.2133  -15.1371  -15.3873 C   0  0  0  0  0  0  0  0  0  0  0  0
   19.9400  -16.1469  -15.2361 O   0  0  0  0  0  0  0  0  0  0  0  0
   19.7271  -13.7604  -15.2741 C   0  0  0  0  0  0  0  0  0  0  0  0
   18.5644  -12.8233  -15.5455 C   0  0  2  0  0  0  0  0  0  0  0  0
   18.2398  -12.7963  -16.9497 N   0  0  0  0  0  0  0  0  0  0  0  0
   18.9655  -11.4691  -15.1075 C   0  0  0  0  0  0  0  0  0  0  0  0
   19.2857  -11.2504  -13.8893 O   0  0  0  0  0  0  0  0  0  0  0  0
   18.9907  -10.4182  -16.0497 N   0  0  0  0  0  0  0  0  0  0  0  0
   19.4061   -9.1219  -15.6090 C   0  0  0  0  0  0  0  0  0  0  0  0
   18.2010   -8.3478  -15.2068 C   0  0  0  0  0  0  0  0  0  0  0  0
   17.0801   -8.5563  -15.7406 O   0  0  0  0  0  0  0  0  0  0  0  0
   18.2621   -7.3280  -14.1928 N   0  0  0  0  0  0  0  0  0  0  0  0
   17.1046   -6.5531  -13.8306 C   0  0  1  0  0  0  0  0  0  0  0  0
   16.9119   -6.4994  -12.3320 C   0  0  0  0  0  0  0  0  0  0  0  0
   16.7592   -7.8476  -11.7450 C   0  0  0  0  0  0  0  0  0  0  0  0
   15.5649   -8.5491  -11.7113 C   0  0  0  0  0  0  0  0  0  0  0  0
   15.7688   -9.7437  -11.1093 N   0  0  0  0  0  0  0  0  0  0  0  0
   17.0583   -9.7864  -10.7754 C   0  0  0  0  0  0  0  0  0  0  0  0
   17.6591   -8.6508  -11.1544 N   0  0  0  0  0  0  0  0  0  0  0  0
   17.1508   -5.2234  -14.4455 C   0  0  0  0  0  0  0  0  0  0  0  0
   16.1679   -4.4535  -14.3156 O   0  0  0  0  0  0  0  0  0  0  0  0
   18.2375   -4.7619  -15.1740 O   0  0  0  0  0  0  0  0  0  0  0  0
  2  1  1  0
  3  2  2  0
  4  2  1  0
  4  5  1  0
  5  7  1  0
  5  6  1  6
  7  9  1  0
  7  8  2  0
  9 10  1  0
 10 11  1  0
 11 12  2  0
 13 11  1  0
 13 14  1  0
 14 15  1  1
 15 16  1  0
 16 17  2  0
 17 18  1  0
 19 18  1  0
 20 16  1  0
 20 19  2  0
 21 14  1  0
 21 23  1  0
 22 21  2  0
M  END
$$$$
