NGH.pdb
     RDKit          3D

 23 23  0  0  1  0  0  0  0  0999 V2000
   23.3828   -9.8312  -13.3352 N   0  0  0  0  0  0  0  0  0  0  0  0
   22.4159  -10.4098  -14.1939 C   0  0  0  0  0  0  0  0  0  0  0  0
   22.6257  -11.5641  -14.6345 O   0  0  0  0  0  0  0  0  0  0  0  0
   21.2095   -9.6338  -14.5324 C   0  0  0  0  0  0  0  0  0  0  0  0
   21.1538   -9.5271  -16.0454 C   0  0  2  0  0  0  0  0  0  0  0  0
   22.2921   -8.8037  -16.5544 N   0  0  0  0  0  0  0  0  0  0  0  0
   19.9133   -8.8049  -16.4007 C   0  0  0  0  0  0  0  0  0  0  0  0
   19.8246   -7.5423  -16.2213 O   0  0  0  0  0  0  0  0  0  0  0  0
   18.8257   -9.5253  -16.9402 N   0  0  0  0  0  0  0  0  0  0  0  0
   17.6389   -8.8044  -17.2849 C   0  0  0  0  0  0  0  0  0  0  0  0
   16.5334   -9.2571  -16.3981 C   0  0  0  0  0  0  0  0  0  0  0  0
   15.9512  -10.3573  -16.5862 O   0  0  0  0  0  0  0  0  0  0  0  0
   16.0803   -8.4596  -15.2887 N   0  0  0  0  0  0  0  0  0  0  0  0
   14.9243   -8.8296  -14.5152 C   0  0  1  0  0  0  0  0  0  0  0  0
   15.0458  -10.2307  -13.9600 C   0  0  0  0  0  0  0  0  0  0  0  0
   13.8665  -10.6104  -13.1533 C   0  0  0  0  0  0  0  0  0  0  0  0
   12.8273   -9.7483  -12.8435 C   0  0  0  0  0  0  0  0  0  0  0  0
   11.9118  -10.4071  -12.0959 N   0  0  0  0  0  0  0  0  0  0  0  0
   12.3687  -11.6497  -11.9429 C   0  0  0  0  0  0  0  0  0  0  0  0
   13.5424  -11.7787  -12.5755 N   0  0  0  0  0  0  0  0  0  0  0  0
   14.6449   -7.8305  -13.4799 C   0  0  0  0  0  0  0  0  0  0  0  0
   13.6622   -7.9970  -12.7166 O   0  0  0  0  0  0  0  0  0  0  0  0
   15.4183   -6.6939  -13.2941 O   0  0  0  0  0  0  0  0  0  0  0  0
  2  1  1  0
  3  2  2  0
  4  2  1  0
  4  5  1  0
  5  7  1  0
  5  6  1  1
  7  9  1  0
  7  8  2  0
  9 10  1  0
 10 11  1  0
 11 12  2  0
 13 11  1  0
 13 14  1  0
 14 15  1  1
 15 16  1  0
 16 17  2  0
 17 18  1  0
 19 18  1  0
 20 16  1  0
 20 19  2  0
 21 14  1  0
 21 23  1  0
 22 21  2  0
M  END
$$$$
