NGH.pdb
     RDKit          3D

 23 23  0  0  1  0  0  0  0  0999 V2000
   16.0180  -16.6301  -17.0548 N   0  0  0  0  0  0  0  0  0  0  0  0
   15.4719  -15.4909  -16.4136 C   0  0  0  0  0  0  0  0  0  0  0  0
   14.5896  -15.6649  -15.5409 O   0  0  0  0  0  0  0  0  0  0  0  0
   15.9613  -14.1549  -16.7982 C   0  0  0  0  0  0  0  0  0  0  0  0
   16.3555  -13.4361  -15.5209 C   0  0  2  0  0  0  0  0  0  0  0  0
   15.1901  -12.9999  -14.7931 N   0  0  0  0  0  0  0  0  0  0  0  0
   17.1681  -12.2598  -15.8984 C   0  0  0  0  0  0  0  0  0  0  0  0
   18.3659  -12.4080  -16.3198 O   0  0  0  0  0  0  0  0  0  0  0  0
   16.6071  -10.9691  -15.7878 N   0  0  0  0  0  0  0  0  0  0  0  0
   17.3731   -9.8543  -16.2541 C   0  0  0  0  0  0  0  0  0  0  0  0
   18.3109   -9.4380  -15.1767 C   0  0  0  0  0  0  0  0  0  0  0  0
   17.9430   -9.3798  -13.9742 O   0  0  0  0  0  0  0  0  0  0  0  0
   19.6769   -9.0832  -15.4598 N   0  0  0  0  0  0  0  0  0  0  0  0
   20.5772   -8.6575  -14.4208 C   0  0  1  0  0  0  0  0  0  0  0  0
   21.7089   -9.6402  -14.2218 C   0  0  0  0  0  0  0  0  0  0  0  0
   22.5042   -9.8253  -15.4542 C   0  0  0  0  0  0  0  0  0  0  0  0
   22.3028   -9.1097  -16.6232 C   0  0  0  0  0  0  0  0  0  0  0  0
   23.1949   -9.5202  -17.5542 N   0  0  0  0  0  0  0  0  0  0  0  0
   23.9345  -10.4687  -16.9802 C   0  0  0  0  0  0  0  0  0  0  0  0
   23.5251  -10.6569  -15.7188 N   0  0  0  0  0  0  0  0  0  0  0  0
   21.0477   -7.2907  -14.6627 C   0  0  0  0  0  0  0  0  0  0  0  0
   21.6937   -6.6968  -13.7649 O   0  0  0  0  0  0  0  0  0  0  0  0
   20.8150   -6.6067  -15.8470 O   0  0  0  0  0  0  0  0  0  0  0  0
  2  1  1  0
  3  2  2  0
  4  2  1  0
  4  5  1  0
  5  7  1  0
  5  6  1  6
  7  9  1  0
  7  8  2  0
  9 10  1  0
 10 11  1  0
 11 12  2  0
 13 11  1  0
 13 14  1  0
 14 15  1  6
 15 16  1  0
 16 17  2  0
 17 18  1  0
 19 18  1  0
 20 16  1  0
 20 19  2  0
 21 14  1  0
 21 23  1  0
 22 21  2  0
M  END
$$$$
