NIV.pdb
     RDKit          3D

 24 23  0  0  1  0  0  0  0  0999 V2000
   29.0713  -20.2481  -17.1376 N   0  0  0  0  0  0  0  0  0  0  0  0
   27.7114  -19.9475  -17.3943 C   0  0  0  0  0  0  0  0  0  0  0  0
   27.4483  -19.1700  -18.3343 O   0  0  0  0  0  0  0  0  0  0  0  0
   26.6494  -20.5338  -16.5790 C   0  0  0  0  0  0  0  0  0  0  0  0
   27.0821  -21.4518  -15.4917 C   0  0  2  0  0  0  0  0  0  0  0  0
   27.6672  -22.6328  -16.0363 N   0  0  0  0  0  0  0  0  0  0  0  0
   26.0246  -21.7552  -14.5006 C   0  0  0  0  0  0  0  0  0  0  0  0
   25.3064  -22.7716  -14.6435 O   0  0  0  0  0  0  0  0  0  0  0  0
   26.6678  -20.7231   -9.1973 C   0  0  0  0  0  0  0  0  0  0  0  0
   26.2434  -21.2623  -10.5176 C   0  0  0  0  0  0  0  0  0  0  0  0
   25.0193  -20.7111  -11.1172 C   0  0  2  0  0  0  0  0  0  0  0  0
   23.8951  -20.4932  -10.1207 C   0  0  0  0  0  0  0  0  0  0  0  0
   24.6164  -21.1652  -12.4565 C   0  0  2  0  0  0  0  0  0  0  0  0
   25.7883  -20.9287  -13.3786 N   0  0  0  0  0  0  0  0  0  0  0  0
   23.4211  -20.6548  -13.0998 C   0  0  0  0  0  0  0  0  0  0  0  0
   23.3354  -19.4392  -13.5108 O   0  0  0  0  0  0  0  0  0  0  0  0
   19.4496  -21.2266  -15.9068 C   0  0  0  0  0  0  0  0  0  0  0  0
   20.6828  -21.7077  -15.2076 C   0  0  1  0  0  0  0  0  0  0  0  0
   21.8267  -21.7048  -16.1914 C   0  0  0  0  0  0  0  0  0  0  0  0
   21.0947  -20.7986  -14.0487 C   0  0  2  0  0  0  0  0  0  0  0  0
   22.2476  -21.4056  -13.3561 N   0  0  0  0  0  0  0  0  0  0  0  0
   19.9910  -20.7006  -13.0898 C   0  0  0  0  0  0  0  0  0  0  0  0
   19.8338  -21.7088  -12.1238 O   0  0  0  0  0  0  0  0  0  0  0  0
   19.1547  -19.7816  -13.0483 O   0  0  0  0  0  0  0  0  0  0  0  0
  2  3  2  0
  2  1  1  0
  4  2  1  0
  5  6  1  6
  5  4  1  0
  7  5  1  0
  8  7  2  0
  9 10  1  0
 10 11  1  0
 11 12  1  1
 11 13  1  0
 13 14  1  6
 14  7  1  0
 15 13  1  0
 15 21  1  0
 16 15  2  0
 18 17  1  6
 19 18  1  0
 20 18  1  0
 20 21  1  1
 20 22  1  0
 22 23  1  0
 24 22  2  0
M  END
$$$$
