NIV.pdb
     RDKit          3D

 24 23  0  0  1  0  0  0  0  0999 V2000
   20.1949  -10.9429  -22.0435 N   0  0  0  0  0  0  0  0  0  0  0  0
   19.9778   -9.6181  -21.5924 C   0  0  0  0  0  0  0  0  0  0  0  0
   19.9386   -8.7062  -22.4435 O   0  0  0  0  0  0  0  0  0  0  0  0
   19.8049   -9.3317  -20.1696 C   0  0  0  0  0  0  0  0  0  0  0  0
   19.9912  -10.4763  -19.2383 C   0  0  2  0  0  0  0  0  0  0  0  0
   18.9013  -11.3900  -19.3431 N   0  0  0  0  0  0  0  0  0  0  0  0
   20.2567  -10.0778  -17.8371 C   0  0  0  0  0  0  0  0  0  0  0  0
   19.3088   -9.9821  -17.0236 O   0  0  0  0  0  0  0  0  0  0  0  0
   23.4935  -12.7906  -15.0210 C   0  0  0  0  0  0  0  0  0  0  0  0
   22.4679  -11.8253  -15.5013 C   0  0  0  0  0  0  0  0  0  0  0  0
   22.7769  -10.3920  -15.3917 C   0  0  2  0  0  0  0  0  0  0  0  0
   23.4535  -10.0104  -14.0875 C   0  0  0  0  0  0  0  0  0  0  0  0
   21.8210   -9.4148  -15.9337 C   0  0  2  0  0  0  0  0  0  0  0  0
   21.5611   -9.7958  -17.3714 N   0  0  0  0  0  0  0  0  0  0  0  0
   22.0854   -7.9899  -15.8814 C   0  0  0  0  0  0  0  0  0  0  0  0
   23.0606   -7.4543  -16.5262 O   0  0  0  0  0  0  0  0  0  0  0  0
   20.7912   -3.2983  -15.3644 C   0  0  0  0  0  0  0  0  0  0  0  0
   20.5171   -4.7645  -15.4918 C   0  0  1  0  0  0  0  0  0  0  0  0
   20.2079   -5.0732  -16.9359 C   0  0  0  0  0  0  0  0  0  0  0  0
   21.7215   -5.6240  -15.1046 C   0  0  2  0  0  0  0  0  0  0  0  0
   21.3248   -7.0446  -15.1502 N   0  0  0  0  0  0  0  0  0  0  0  0
   22.1229   -5.3103  -13.7306 C   0  0  0  0  0  0  0  0  0  0  0  0
   23.0201   -4.2525  -13.5058 O   0  0  0  0  0  0  0  0  0  0  0  0
   21.7330   -5.9096  -12.7136 O   0  0  0  0  0  0  0  0  0  0  0  0
  2  3  2  0
  2  1  1  0
  4  2  1  0
  5  6  1  1
  5  4  1  0
  7  5  1  0
  8  7  2  0
  9 10  1  0
 10 11  1  0
 11 12  1  1
 11 13  1  0
 13 14  1  6
 14  7  1  0
 15 13  1  0
 15 21  1  0
 16 15  2  0
 18 17  1  6
 19 18  1  0
 20 18  1  0
 20 21  1  1
 20 22  1  0
 22 23  1  0
 24 22  2  0
M  END
$$$$
