NIV.pdb
     RDKit          3D

 24 23  0  0  1  0  0  0  0  0999 V2000
   20.1061  -13.7633  -19.8636 N   0  0  0  0  0  0  0  0  0  0  0  0
   19.6965  -12.4182  -19.6944 C   0  0  0  0  0  0  0  0  0  0  0  0
   18.9307  -11.9251  -20.5475 O   0  0  0  0  0  0  0  0  0  0  0  0
   20.1597  -11.6338  -18.5515 C   0  0  0  0  0  0  0  0  0  0  0  0
   21.1041  -12.3124  -17.6242 C   0  0  2  0  0  0  0  0  0  0  0  0
   20.4994  -13.4703  -17.0520 N   0  0  0  0  0  0  0  0  0  0  0  0
   21.6890  -11.4196  -16.5978 C   0  0  0  0  0  0  0  0  0  0  0  0
   21.1125  -11.2716  -15.4955 O   0  0  0  0  0  0  0  0  0  0  0  0
   26.8159  -11.8044  -15.5168 C   0  0  0  0  0  0  0  0  0  0  0  0
   25.3552  -11.5210  -15.4997 C   0  0  0  0  0  0  0  0  0  0  0  0
   24.9294  -10.1267  -15.6902 C   0  0  2  0  0  0  0  0  0  0  0  0
   25.7918   -9.1180  -14.9533 C   0  0  0  0  0  0  0  0  0  0  0  0
   23.4916   -9.8242  -15.7523 C   0  0  2  0  0  0  0  0  0  0  0  0
   22.8944  -10.7143  -16.8156 N   0  0  0  0  0  0  0  0  0  0  0  0
   23.0123   -8.4727  -15.9685 C   0  0  0  0  0  0  0  0  0  0  0  0
   23.1775   -7.8628  -17.0886 O   0  0  0  0  0  0  0  0  0  0  0  0
   19.8542   -4.8395  -15.4092 C   0  0  0  0  0  0  0  0  0  0  0  0
   20.3703   -6.2365  -15.2570 C   0  0  1  0  0  0  0  0  0  0  0  0
   19.8420   -7.0722  -16.3965 C   0  0  0  0  0  0  0  0  0  0  0  0
   21.8965   -6.3106  -15.3255 C   0  0  2  0  0  0  0  0  0  0  0  0
   22.3190   -7.6895  -15.0132 N   0  0  0  0  0  0  0  0  0  0  0  0
   22.4738   -5.4206  -14.3146 C   0  0  0  0  0  0  0  0  0  0  0  0
   22.7462   -4.0850  -14.6557 O   0  0  0  0  0  0  0  0  0  0  0  0
   22.7540   -5.7450  -13.1475 O   0  0  0  0  0  0  0  0  0  0  0  0
  2  3  2  0
  2  1  1  0
  4  2  1  0
  5  6  1  1
  5  4  1  0
  7  5  1  0
  8  7  2  0
  9 10  1  0
 10 11  1  0
 11 12  1  1
 11 13  1  0
 13 14  1  6
 14  7  1  0
 15 13  1  0
 15 21  1  0
 16 15  2  0
 18 17  1  6
 19 18  1  0
 20 18  1  0
 20 21  1  1
 20 22  1  0
 22 23  1  0
 24 22  2  0
M  END
$$$$
