NIV.pdb
     RDKit          3D

 24 23  0  0  1  0  0  0  0  0999 V2000
   25.9209  -24.5772  -15.3157 N   0  0  0  0  0  0  0  0  0  0  0  0
   25.3265  -24.4148  -16.5908 C   0  0  0  0  0  0  0  0  0  0  0  0
   24.1565  -24.8187  -16.7499 O   0  0  0  0  0  0  0  0  0  0  0  0
   26.0661  -23.7910  -17.6864 C   0  0  0  0  0  0  0  0  0  0  0  0
   27.4605  -23.3696  -17.3860 C   0  0  2  0  0  0  0  0  0  0  0  0
   28.3193  -24.5049  -17.2993 N   0  0  0  0  0  0  0  0  0  0  0  0
   27.5827  -22.4823  -16.2069 C   0  0  0  0  0  0  0  0  0  0  0  0
   28.4381  -22.7278  -15.3252 O   0  0  0  0  0  0  0  0  0  0  0  0
   27.7938  -17.2629  -16.9561 C   0  0  0  0  0  0  0  0  0  0  0  0
   27.9261  -18.6179  -16.3556 C   0  0  0  0  0  0  0  0  0  0  0  0
   26.8974  -19.0404  -15.3938 C   0  0  2  0  0  0  0  0  0  0  0  0
   26.4988  -17.9559  -14.4092 C   0  0  0  0  0  0  0  0  0  0  0  0
   26.9401  -20.4111  -14.8629 C   0  0  2  0  0  0  0  0  0  0  0  0
   26.7575  -21.3480  -16.0326 N   0  0  0  0  0  0  0  0  0  0  0  0
   26.0539  -20.8364  -13.7967 C   0  0  0  0  0  0  0  0  0  0  0  0
   24.9188  -21.3916  -14.0356 O   0  0  0  0  0  0  0  0  0  0  0  0
   26.2600  -19.5176   -9.7274 C   0  0  0  0  0  0  0  0  0  0  0  0
   25.9396  -20.9522  -10.0113 C   0  0  1  0  0  0  0  0  0  0  0  0
   24.9032  -21.4197   -9.0196 C   0  0  0  0  0  0  0  0  0  0  0  0
   25.3421  -21.1571  -11.4042 C   0  0  2  0  0  0  0  0  0  0  0  0
   26.3225  -20.7086  -12.4117 N   0  0  0  0  0  0  0  0  0  0  0  0
   24.1391  -20.3323  -11.5450 C   0  0  0  0  0  0  0  0  0  0  0  0
   22.8847  -20.9007  -11.2662 O   0  0  0  0  0  0  0  0  0  0  0  0
   24.1225  -19.1404  -11.8984 O   0  0  0  0  0  0  0  0  0  0  0  0
  2  3  2  0
  2  1  1  0
  4  2  1  0
  5  6  1  1
  5  4  1  0
  7  5  1  0
  8  7  2  0
  9 10  1  0
 10 11  1  0
 11 12  1  1
 11 13  1  0
 13 14  1  6
 14  7  1  0
 15 13  1  0
 15 21  1  0
 16 15  2  0
 18 17  1  1
 19 18  1  0
 20 18  1  0
 20 21  1  6
 20 22  1  0
 22 23  1  0
 24 22  2  0
M  END
$$$$
