NIV.pdb
     RDKit          3D

 24 23  0  0  1  0  0  0  0  0999 V2000
   45.1133  -11.2674   -4.9213 N   0  0  0  0  0  0  0  0  0  0  0  0
   45.1561   -9.9790   -5.5077 C   0  0  0  0  0  0  0  0  0  0  0  0
   46.0202   -9.1761   -5.1004 O   0  0  0  0  0  0  0  0  0  0  0  0
   44.2131   -9.6048   -6.5598 C   0  0  0  0  0  0  0  0  0  0  0  0
   43.1856  -10.6192   -6.9169 C   0  0  2  0  0  0  0  0  0  0  0  0
   43.7961  -11.7634   -7.5100 N   0  0  0  0  0  0  0  0  0  0  0  0
   42.0725  -10.0887   -7.7369 C   0  0  0  0  0  0  0  0  0  0  0  0
   42.0990  -10.2133   -8.9831 O   0  0  0  0  0  0  0  0  0  0  0  0
   37.3845  -11.3147   -6.1276 C   0  0  0  0  0  0  0  0  0  0  0  0
   38.4314  -10.8891   -7.0955 C   0  0  0  0  0  0  0  0  0  0  0  0
   38.5702   -9.4495   -7.3600 C   0  0  2  0  0  0  0  0  0  0  0  0
   37.2791   -8.7808   -7.7962 C   0  0  0  0  0  0  0  0  0  0  0  0
   39.8000   -8.9592   -8.0001 C   0  0  2  0  0  0  0  0  0  0  0  0
   40.9603   -9.4351   -7.1594 N   0  0  0  0  0  0  0  0  0  0  0  0
   39.9931   -7.5507   -8.2862 C   0  0  0  0  0  0  0  0  0  0  0  0
   40.1593   -6.6827   -7.3520 O   0  0  0  0  0  0  0  0  0  0  0  0
   41.0374   -3.8020  -11.3921 C   0  0  0  0  0  0  0  0  0  0  0  0
   40.8200   -5.2595  -11.1285 C   0  0  1  0  0  0  0  0  0  0  0  0
   42.1596   -5.9535  -11.1244 C   0  0  0  0  0  0  0  0  0  0  0  0
   40.1826   -5.5218   -9.7631 C   0  0  2  0  0  0  0  0  0  0  0  0
   40.0325   -6.9785   -9.5815 N   0  0  0  0  0  0  0  0  0  0  0  0
   38.8465   -4.9211   -9.7251 C   0  0  0  0  0  0  0  0  0  0  0  0
   38.6451   -3.7502   -8.9750 O   0  0  0  0  0  0  0  0  0  0  0  0
   37.8433   -5.3626  -10.3119 O   0  0  0  0  0  0  0  0  0  0  0  0
  2  3  2  0
  2  1  1  0
  4  2  1  0
  5  6  1  6
  5  4  1  0
  7  5  1  0
  8  7  2  0
  9 10  1  0
 10 11  1  0
 11 12  1  6
 11 13  1  0
 13 14  1  1
 14  7  1  0
 15 13  1  0
 15 21  1  0
 16 15  2  0
 18 17  1  1
 19 18  1  0
 20 18  1  0
 20 21  1  6
 20 22  1  0
 22 23  1  0
 24 22  2  0
M  END
$$$$
