NIV.pdb
     RDKit          3D

 24 23  0  0  1  0  0  0  0  0999 V2000
   20.6942  -23.1441  -12.9951 N   0  0  0  0  0  0  0  0  0  0  0  0
   20.1766  -21.8260  -13.0118 C   0  0  0  0  0  0  0  0  0  0  0  0
   18.9759  -21.6697  -13.3140 O   0  0  0  0  0  0  0  0  0  0  0  0
   21.0280  -20.6842  -12.6837 C   0  0  0  0  0  0  0  0  0  0  0  0
   22.4340  -20.9946  -12.3110 C   0  0  2  0  0  0  0  0  0  0  0  0
   22.5419  -21.2208  -10.9071 N   0  0  0  0  0  0  0  0  0  0  0  0
   23.4207  -20.0032  -12.7971 C   0  0  0  0  0  0  0  0  0  0  0  0
   23.4446  -18.8514  -12.3051 O   0  0  0  0  0  0  0  0  0  0  0  0
   28.1133  -21.1397  -11.9822 C   0  0  0  0  0  0  0  0  0  0  0  0
   26.8348  -20.4881  -12.3760 C   0  0  0  0  0  0  0  0  0  0  0  0
   26.7279  -19.9711  -13.7482 C   0  0  2  0  0  0  0  0  0  0  0  0
   27.9984  -19.3121  -14.2539 C   0  0  0  0  0  0  0  0  0  0  0  0
   25.4645  -19.3544  -14.1796 C   0  0  2  0  0  0  0  0  0  0  0  0
   24.3543  -20.3097  -13.8131 N   0  0  0  0  0  0  0  0  0  0  0  0
   25.2620  -18.9260  -15.5502 C   0  0  0  0  0  0  0  0  0  0  0  0
   25.2616  -19.7581  -16.5306 O   0  0  0  0  0  0  0  0  0  0  0  0
   23.3129  -15.8974  -18.8825 C   0  0  0  0  0  0  0  0  0  0  0  0
   23.5505  -16.3966  -17.4913 C   0  0  1  0  0  0  0  0  0  0  0  0
   22.3854  -17.2649  -17.0855 C   0  0  0  0  0  0  0  0  0  0  0  0
   24.8059  -17.2635  -17.3836 C   0  0  2  0  0  0  0  0  0  0  0  0
   25.0368  -17.5898  -15.9632 N   0  0  0  0  0  0  0  0  0  0  0  0
   25.9638  -16.5073  -17.8682 C   0  0  0  0  0  0  0  0  0  0  0  0
   26.5642  -16.8808  -19.0824 O   0  0  0  0  0  0  0  0  0  0  0  0
   26.4813  -15.5364  -17.2891 O   0  0  0  0  0  0  0  0  0  0  0  0
  2  3  2  0
  2  1  1  0
  4  2  1  0
  5  6  1  1
  5  4  1  0
  7  5  1  0
  8  7  2  0
  9 10  1  0
 10 11  1  0
 11 12  1  1
 11 13  1  0
 13 14  1  6
 14  7  1  0
 15 13  1  0
 15 21  1  0
 16 15  2  0
 18 17  1  6
 19 18  1  0
 20 18  1  0
 20 21  1  1
 20 22  1  0
 22 23  1  0
 24 22  2  0
M  END
$$$$
