NIV.pdb
     RDKit          3D

 24 23  0  0  1  0  0  0  0  0999 V2000
   17.0788  -26.6875   -7.6939 N   0  0  0  0  0  0  0  0  0  0  0  0
   18.1133  -26.3256   -8.5908 C   0  0  0  0  0  0  0  0  0  0  0  0
   18.9819  -27.1796   -8.8619 O   0  0  0  0  0  0  0  0  0  0  0  0
   18.1581  -24.9888   -9.1801 C   0  0  0  0  0  0  0  0  0  0  0  0
   19.1574  -24.0479   -8.6071 C   0  0  2  0  0  0  0  0  0  0  0  0
   18.8586  -23.7708   -7.2404 N   0  0  0  0  0  0  0  0  0  0  0  0
   19.3488  -22.8128   -9.4011 C   0  0  0  0  0  0  0  0  0  0  0  0
   18.5495  -21.8567   -9.2733 O   0  0  0  0  0  0  0  0  0  0  0  0
   23.7966  -20.3436   -9.0427 C   0  0  0  0  0  0  0  0  0  0  0  0
   22.3990  -20.7651   -9.3314 C   0  0  0  0  0  0  0  0  0  0  0  0
   22.0136  -20.9275  -10.7409 C   0  0  2  0  0  0  0  0  0  0  0  0
   22.6023  -19.8734  -11.6610 C   0  0  0  0  0  0  0  0  0  0  0  0
   20.6484  -21.3725  -11.0583 C   0  0  2  0  0  0  0  0  0  0  0  0
   20.4172  -22.6661  -10.3149 N   0  0  0  0  0  0  0  0  0  0  0  0
   20.2115  -21.5515  -12.4295 C   0  0  0  0  0  0  0  0  0  0  0  0
   20.6443  -22.5162  -13.1615 O   0  0  0  0  0  0  0  0  0  0  0  0
   17.0033  -21.2021  -16.0948 C   0  0  0  0  0  0  0  0  0  0  0  0
   17.4434  -21.1145  -14.6666 C   0  0  1  0  0  0  0  0  0  0  0  0
   17.0795  -22.4026  -13.9704 C   0  0  0  0  0  0  0  0  0  0  0  0
   18.9574  -20.9491  -14.5266 C   0  0  2  0  0  0  0  0  0  0  0  0
   19.2805  -20.7242  -13.1044 N   0  0  0  0  0  0  0  0  0  0  0  0
   19.3911  -19.7702  -15.2811 C   0  0  0  0  0  0  0  0  0  0  0  0
   19.8816  -19.9374  -16.5871 O   0  0  0  0  0  0  0  0  0  0  0  0
   19.3653  -18.5998  -14.8625 O   0  0  0  0  0  0  0  0  0  0  0  0
  2  3  2  0
  2  1  1  0
  4  2  1  0
  5  6  1  1
  5  4  1  0
  7  5  1  0
  8  7  2  0
  9 10  1  0
 10 11  1  0
 11 12  1  6
 11 13  1  0
 13 14  1  1
 14  7  1  0
 15 13  1  0
 15 21  1  0
 16 15  2  0
 18 17  1  6
 19 18  1  0
 20 18  1  0
 20 21  1  1
 20 22  1  0
 22 23  1  0
 24 22  2  0
M  END
$$$$
