NIV.pdb
     RDKit          3D

 24 23  0  0  1  0  0  0  0  0999 V2000
   28.8529  -17.2355  -17.1586 N   0  0  0  0  0  0  0  0  0  0  0  0
   27.5189  -17.5366  -17.5266 C   0  0  0  0  0  0  0  0  0  0  0  0
   26.9155  -16.7293  -18.2625 O   0  0  0  0  0  0  0  0  0  0  0  0
   26.8713  -18.7593  -17.0556 C   0  0  0  0  0  0  0  0  0  0  0  0
   27.7073  -19.6748  -16.2340 C   0  0  2  0  0  0  0  0  0  0  0  0
   28.4238  -20.5830  -17.0680 N   0  0  0  0  0  0  0  0  0  0  0  0
   26.9640  -20.3687  -15.1576 C   0  0  0  0  0  0  0  0  0  0  0  0
   26.2637  -21.3719  -15.4271 O   0  0  0  0  0  0  0  0  0  0  0  0
   29.6024  -20.8549  -10.6830 C   0  0  0  0  0  0  0  0  0  0  0  0
   28.6319  -21.1296  -11.7769 C   0  0  0  0  0  0  0  0  0  0  0  0
   27.2322  -20.7344  -11.5612 C   0  0  2  0  0  0  0  0  0  0  0  0
   26.6461  -21.2470  -10.2581 C   0  0  0  0  0  0  0  0  0  0  0  0
   26.3173  -20.7003  -12.7119 C   0  0  2  0  0  0  0  0  0  0  0  0
   27.0136  -19.9368  -13.8126 N   0  0  0  0  0  0  0  0  0  0  0  0
   24.9659  -20.1888  -12.5881 C   0  0  0  0  0  0  0  0  0  0  0  0
   24.7264  -18.9821  -12.2137 O   0  0  0  0  0  0  0  0  0  0  0  0
   22.7932  -19.1773  -15.0278 C   0  0  0  0  0  0  0  0  0  0  0  0
   21.9279  -20.0850  -14.2102 C   0  0  1  0  0  0  0  0  0  0  0  0
   21.9075  -21.4461  -14.8607 C   0  0  0  0  0  0  0  0  0  0  0  0
   22.4592  -20.2824  -12.7896 C   0  0  2  0  0  0  0  0  0  0  0  0
   23.7864  -20.9230  -12.8642 N   0  0  0  0  0  0  0  0  0  0  0  0
   21.5641  -21.1801  -12.0546 C   0  0  0  0  0  0  0  0  0  0  0  0
   20.3433  -20.6811  -11.5700 O   0  0  0  0  0  0  0  0  0  0  0  0
   21.7892  -22.3785  -11.8117 O   0  0  0  0  0  0  0  0  0  0  0  0
  2  3  2  0
  2  1  1  0
  4  2  1  0
  5  6  1  6
  5  4  1  0
  7  5  1  0
  8  7  2  0
  9 10  1  0
 10 11  1  0
 11 12  1  1
 11 13  1  0
 13 14  1  6
 14  7  1  0
 15 13  1  0
 15 21  1  0
 16 15  2  0
 18 17  1  6
 19 18  1  0
 20 18  1  0
 20 21  1  6
 20 22  1  0
 22 23  1  0
 24 22  2  0
M  END
$$$$
