NIV.pdb
     RDKit          3D

 24 23  0  0  1  0  0  0  0  0999 V2000
   28.4271  -18.8691  -17.9908 N   0  0  0  0  0  0  0  0  0  0  0  0
   28.1909  -18.7085  -16.6037 C   0  0  0  0  0  0  0  0  0  0  0  0
   28.8291  -17.8241  -15.9971 O   0  0  0  0  0  0  0  0  0  0  0  0
   27.2260  -19.5565  -15.9064 C   0  0  0  0  0  0  0  0  0  0  0  0
   27.7724  -20.4428  -14.8443 C   0  0  2  0  0  0  0  0  0  0  0  0
   28.6461  -21.4194  -15.4070 N   0  0  0  0  0  0  0  0  0  0  0  0
   26.7397  -21.0491  -13.9732 C   0  0  0  0  0  0  0  0  0  0  0  0
   26.1695  -22.1082  -14.3230 O   0  0  0  0  0  0  0  0  0  0  0  0
   27.0965  -20.8955   -8.5980 C   0  0  0  0  0  0  0  0  0  0  0  0
   26.7388  -21.2804   -9.9902 C   0  0  0  0  0  0  0  0  0  0  0  0
   25.4714  -20.7705  -10.5338 C   0  0  2  0  0  0  0  0  0  0  0  0
   24.2975  -20.9102   -9.5816 C   0  0  0  0  0  0  0  0  0  0  0  0
   25.1749  -20.9763  -11.9594 C   0  0  2  0  0  0  0  0  0  0  0  0
   26.3643  -20.4702  -12.7396 N   0  0  0  0  0  0  0  0  0  0  0  0
   23.9716  -20.4405  -12.5660 C   0  0  0  0  0  0  0  0  0  0  0  0
   23.8468  -19.1908  -12.8423 O   0  0  0  0  0  0  0  0  0  0  0  0
   22.5658  -20.8376  -15.8500 C   0  0  0  0  0  0  0  0  0  0  0  0
   21.4259  -21.1260  -14.9234 C   0  0  1  0  0  0  0  0  0  0  0  0
   21.2985  -22.6212  -14.7669 C   0  0  0  0  0  0  0  0  0  0  0  0
   21.6466  -20.5526  -13.5227 C   0  0  2  0  0  0  0  0  0  0  0  0
   22.8312  -21.1997  -12.9265 N   0  0  0  0  0  0  0  0  0  0  0  0
   20.4888  -20.8641  -12.6802 C   0  0  0  0  0  0  0  0  0  0  0  0
   19.3270  -20.0830  -12.8000 O   0  0  0  0  0  0  0  0  0  0  0  0
   20.4351  -21.7823  -11.8437 O   0  0  0  0  0  0  0  0  0  0  0  0
  2  3  2  0
  2  1  1  0
  4  2  1  0
  5  6  1  6
  5  4  1  0
  7  5  1  0
  8  7  2  0
  9 10  1  0
 10 11  1  0
 11 12  1  1
 11 13  1  0
 13 14  1  6
 14  7  1  0
 15 13  1  0
 15 21  1  0
 16 15  2  0
 18 17  1  6
 19 18  1  0
 20 18  1  0
 20 21  1  1
 20 22  1  0
 22 23  1  0
 24 22  2  0
M  END
$$$$
