NIV.pdb
     RDKit          3D

 24 23  0  0  1  0  0  0  0  0999 V2000
   24.0295  -21.9867   -7.1815 N   0  0  0  0  0  0  0  0  0  0  0  0
   23.0434  -21.1499   -7.7587 C   0  0  0  0  0  0  0  0  0  0  0  0
   21.9780  -20.9781   -7.1321 O   0  0  0  0  0  0  0  0  0  0  0  0
   23.2716  -20.5076   -9.0517 C   0  0  0  0  0  0  0  0  0  0  0  0
   24.5723  -20.7971   -9.7123 C   0  0  2  0  0  0  0  0  0  0  0  0
   25.6581  -20.4244   -8.8661 N   0  0  0  0  0  0  0  0  0  0  0  0
   24.6994  -20.2258  -11.0725 C   0  0  0  0  0  0  0  0  0  0  0  0
   24.9128  -19.0001  -11.2188 O   0  0  0  0  0  0  0  0  0  0  0  0
   28.4808  -21.2590  -14.0418 C   0  0  0  0  0  0  0  0  0  0  0  0
   27.2242  -20.7450  -13.4329 C   0  0  0  0  0  0  0  0  0  0  0  0
   25.9761  -20.9293  -14.1879 C   0  0  2  0  0  0  0  0  0  0  0  0
   26.1392  -20.7645  -15.6881 C   0  0  0  0  0  0  0  0  0  0  0  0
   24.7179  -20.4271  -13.6158 C   0  0  2  0  0  0  0  0  0  0  0  0
   24.5873  -21.0226  -12.2346 N   0  0  0  0  0  0  0  0  0  0  0  0
   23.4535  -20.5964  -14.3056 C   0  0  0  0  0  0  0  0  0  0  0  0
   22.8298  -21.7209  -14.3177 O   0  0  0  0  0  0  0  0  0  0  0  0
   19.1244  -18.9588  -15.8410 C   0  0  0  0  0  0  0  0  0  0  0  0
   20.4282  -18.8845  -15.1089 C   0  0  1  0  0  0  0  0  0  0  0  0
   20.1963  -19.2769  -13.6707 C   0  0  0  0  0  0  0  0  0  0  0  0
   21.4727  -19.8519  -15.6678 C   0  0  2  0  0  0  0  0  0  0  0  0
   22.7682  -19.5800  -15.0156 N   0  0  0  0  0  0  0  0  0  0  0  0
   21.6326  -19.6196  -17.1058 C   0  0  0  0  0  0  0  0  0  0  0  0
   20.9432  -20.4433  -18.0116 O   0  0  0  0  0  0  0  0  0  0  0  0
   22.3421  -18.7354  -17.6162 O   0  0  0  0  0  0  0  0  0  0  0  0
  2  3  2  0
  2  1  1  0
  4  2  1  0
  5  6  1  1
  5  4  1  0
  7  5  1  0
  8  7  2  0
  9 10  1  0
 10 11  1  0
 11 12  1  6
 11 13  1  0
 13 14  1  1
 14  7  1  0
 15 13  1  0
 15 21  1  0
 16 15  2  0
 18 17  1  6
 19 18  1  0
 20 18  1  0
 20 21  1  1
 20 22  1  0
 22 23  1  0
 24 22  2  0
M  END
$$$$
