DVE.pdb
     RDKit          3D

 25 24  0  0  1  0  0  0  0  0999 V2000
    8.3851  -17.2937   16.4953 N   0  0  0  0  0  0  0  0  0  0  0  0
    7.6463  -17.0783   17.7013 C   0  0  1  0  0  0  0  0  0  0  0  0
    7.0082  -18.3258   18.2529 C   0  0  0  0  0  0  0  0  0  0  0  0
    6.6550  -19.2766   17.1941 C   0  0  0  0  0  0  0  0  0  0  0  0
    7.0617  -19.0521   16.0239 O   0  0  0  0  0  0  0  0  0  0  0  0
    8.5144  -16.4565   18.7296 C   0  0  0  0  0  0  0  0  0  0  0  0
    9.7261  -16.7725   18.8159 O   0  0  0  0  0  0  0  0  0  0  0  0
    5.8950  -20.4242   17.3831 O   0  0  0  0  0  0  0  0  0  0  0  0
    6.7484  -14.3285   21.9682 C   0  0  0  0  0  0  0  0  0  0  0  0
    7.9665  -13.7694   21.3131 C   0  0  2  0  0  0  0  0  0  0  0  0
    7.5662  -12.7603   20.2687 C   0  0  0  0  0  0  0  0  0  0  0  0
    8.8235  -14.8636   20.6809 C   0  0  2  0  0  0  0  0  0  0  0  0
    8.0299  -15.4912   19.6512 N   0  0  0  0  0  0  0  0  0  0  0  0
    9.1020  -15.8500   21.7446 C   0  0  0  0  0  0  0  0  0  0  0  0
    8.2273  -16.7273   21.9836 O   0  0  0  0  0  0  0  0  0  0  0  0
   10.3062  -15.8472   22.5006 N   0  0  0  0  0  0  0  0  0  0  0  0
   10.5186  -16.9597   23.4333 C   0  0  1  0  0  0  0  0  0  0  0  0
   11.6481  -17.8175   22.9605 C   0  0  0  0  0  0  0  0  0  0  0  0
   12.8898  -17.0148   22.7391 C   0  0  0  0  0  0  0  0  0  0  0  0
   14.0065  -17.8680   22.2169 C   0  0  0  0  0  0  0  0  0  0  0  0
   14.2589  -18.9607   22.7488 O   0  0  0  0  0  0  0  0  0  0  0  0
   10.8564  -16.3377   24.7287 C   0  0  0  0  0  0  0  0  0  0  0  0
   10.9813  -15.0609   24.7553 O   0  0  0  0  0  0  0  0  0  0  0  0
   14.7449  -17.4287   21.1467 O   0  0  0  0  0  0  0  0  0  0  0  0
   11.0409  -17.0385   25.9042 O   0  0  0  0  0  0  0  0  0  0  0  0
  2  1  1  6
  2  6  1  0
  2  3  1  0
  4  3  1  0
  4  5  2  0
  6  7  2  0
  8  4  1  0
 10  9  1  6
 10 12  1  0
 11 10  1  0
 12 14  1  0
 13  6  1  0
 12 13  1  6
 14 15  2  0
 16 14  1  0
 16 17  1  0
 17 22  1  0
 18 19  1  0
 17 18  1  6
 19 20  1  0
 20 24  1  0
 21 20  2  0
 22 25  1  0
 23 22  2  0
M  END
$$$$
