DVE.pdb
     RDKit          3D

 25 24  0  0  1  0  0  0  0  0999 V2000
    8.2911  -14.9391   20.5626 N   0  0  0  0  0  0  0  0  0  0  0  0
    7.6618  -15.4956   21.7206 C   0  0  1  0  0  0  0  0  0  0  0  0
    7.6659  -17.0012   21.7487 C   0  0  0  0  0  0  0  0  0  0  0  0
    7.0369  -17.5749   20.5549 C   0  0  0  0  0  0  0  0  0  0  0  0
    5.7906  -17.7532   20.5587 O   0  0  0  0  0  0  0  0  0  0  0  0
    8.2938  -14.9645   22.9520 C   0  0  0  0  0  0  0  0  0  0  0  0
    9.5408  -14.9933   23.0911 O   0  0  0  0  0  0  0  0  0  0  0  0
    7.7184  -17.9432   19.4016 O   0  0  0  0  0  0  0  0  0  0  0  0
    6.5017  -11.9692   25.1309 C   0  0  0  0  0  0  0  0  0  0  0  0
    6.9905  -13.1131   25.9543 C   0  0  2  0  0  0  0  0  0  0  0  0
    7.4894  -12.6085   27.2832 C   0  0  0  0  0  0  0  0  0  0  0  0
    8.0944  -13.8927   25.2437 C   0  0  2  0  0  0  0  0  0  0  0  0
    7.5363  -14.4074   24.0159 N   0  0  0  0  0  0  0  0  0  0  0  0
    8.4474  -15.0242   26.1252 C   0  0  0  0  0  0  0  0  0  0  0  0
    7.6292  -15.9800   26.2199 O   0  0  0  0  0  0  0  0  0  0  0  0
    9.6619  -15.0752   26.8629 N   0  0  0  0  0  0  0  0  0  0  0  0
   10.0129  -16.3519   27.4951 C   0  0  1  0  0  0  0  0  0  0  0  0
   11.1515  -16.9900   26.7660 C   0  0  0  0  0  0  0  0  0  0  0  0
   11.6051  -18.2413   27.4467 C   0  0  0  0  0  0  0  0  0  0  0  0
   12.7802  -18.8511   26.7431 C   0  0  0  0  0  0  0  0  0  0  0  0
   13.2044  -18.3527   25.6886 O   0  0  0  0  0  0  0  0  0  0  0  0
   10.4129  -16.0184   28.8764 C   0  0  0  0  0  0  0  0  0  0  0  0
   10.6443  -14.7845   29.1419 O   0  0  0  0  0  0  0  0  0  0  0  0
   13.3805  -19.9641   27.2768 O   0  0  0  0  0  0  0  0  0  0  0  0
   10.5487  -16.9436   29.8925 O   0  0  0  0  0  0  0  0  0  0  0  0
  2  1  1  6
  2  6  1  0
  2  3  1  0
  4  3  1  0
  4  5  2  0
  6  7  2  0
  8  4  1  0
 10  9  1  6
 10 12  1  0
 11 10  1  0
 12 14  1  0
 13  6  1  0
 12 13  1  6
 14 15  2  0
 16 14  1  0
 16 17  1  0
 17 22  1  0
 18 19  1  0
 17 18  1  6
 19 20  1  0
 20 24  1  0
 21 20  2  0
 22 25  1  0
 23 22  2  0
M  END
$$$$
