DVE.pdb
     RDKit          3D

 25 24  0  0  1  0  0  0  0  0999 V2000
    9.0835  -17.1443   16.3324 N   0  0  0  0  0  0  0  0  0  0  0  0
    8.2952  -17.1474   17.5262 C   0  0  1  0  0  0  0  0  0  0  0  0
    7.9101  -18.5255   17.9954 C   0  0  0  0  0  0  0  0  0  0  0  0
    7.0488  -19.2142   17.0291 C   0  0  0  0  0  0  0  0  0  0  0  0
    6.9304  -20.4649   17.1135 O   0  0  0  0  0  0  0  0  0  0  0  0
    9.0028  -16.4233   18.6092 C   0  0  0  0  0  0  0  0  0  0  0  0
   10.2467  -16.5291   18.7391 O   0  0  0  0  0  0  0  0  0  0  0  0
    6.3415  -18.5859   16.0117 O   0  0  0  0  0  0  0  0  0  0  0  0
    6.7107  -14.5847   21.6856 C   0  0  0  0  0  0  0  0  0  0  0  0
    7.9324  -13.8938   21.1801 C   0  0  2  0  0  0  0  0  0  0  0  0
    7.5513  -12.8962   20.1175 C   0  0  0  0  0  0  0  0  0  0  0  0
    8.9549  -14.8827   20.6254 C   0  0  2  0  0  0  0  0  0  0  0  0
    8.3236  -15.5896   19.5364 N   0  0  0  0  0  0  0  0  0  0  0  0
    9.2528  -15.8373   21.7126 C   0  0  0  0  0  0  0  0  0  0  0  0
    8.5251  -16.8627   21.8173 O   0  0  0  0  0  0  0  0  0  0  0  0
   10.3175  -15.6452   22.6352 N   0  0  0  0  0  0  0  0  0  0  0  0
   10.6414  -16.7605   23.5318 C   0  0  1  0  0  0  0  0  0  0  0  0
   12.0372  -17.2331   23.2799 C   0  0  0  0  0  0  0  0  0  0  0  0
   13.0312  -16.1338   23.4759 C   0  0  0  0  0  0  0  0  0  0  0  0
   14.4184  -16.5825   23.1267 C   0  0  0  0  0  0  0  0  0  0  0  0
   15.1620  -17.0521   24.0025 O   0  0  0  0  0  0  0  0  0  0  0  0
   10.5233  -16.2213   24.9009 C   0  0  0  0  0  0  0  0  0  0  0  0
   10.2779  -14.9676   25.0221 O   0  0  0  0  0  0  0  0  0  0  0  0
   14.8562  -16.4686   21.8308 O   0  0  0  0  0  0  0  0  0  0  0  0
   10.6558  -16.9767   26.0492 O   0  0  0  0  0  0  0  0  0  0  0  0
  2  1  1  6
  2  6  1  0
  2  3  1  0
  4  3  1  0
  4  5  2  0
  6  7  2  0
  8  4  1  0
 10  9  1  6
 10 12  1  0
 11 10  1  0
 12 14  1  0
 13  6  1  0
 12 13  1  6
 14 15  2  0
 16 14  1  0
 16 17  1  0
 17 22  1  0
 18 19  1  0
 17 18  1  6
 19 20  1  0
 20 24  1  0
 21 20  2  0
 22 25  1  0
 23 22  2  0
M  END
$$$$
