DVE.pdb
     RDKit          3D

 25 24  0  0  1  0  0  0  0  0999 V2000
    8.8307  -17.8042   16.5629 N   0  0  0  0  0  0  0  0  0  0  0  0
    8.0373  -17.7049   17.7491 C   0  0  1  0  0  0  0  0  0  0  0  0
    7.7604  -19.0311   18.4066 C   0  0  0  0  0  0  0  0  0  0  0  0
    6.9579  -19.9114   17.5517 C   0  0  0  0  0  0  0  0  0  0  0  0
    6.4129  -20.9206   18.0711 O   0  0  0  0  0  0  0  0  0  0  0  0
    8.6775  -16.7834   18.7180 C   0  0  0  0  0  0  0  0  0  0  0  0
    9.9279  -16.6960   18.7831 O   0  0  0  0  0  0  0  0  0  0  0  0
    6.7481  -19.7169   16.1922 O   0  0  0  0  0  0  0  0  0  0  0  0
    6.7731  -13.2711   19.9818 C   0  0  0  0  0  0  0  0  0  0  0  0
    7.3409  -14.1489   21.0458 C   0  0  2  0  0  0  0  0  0  0  0  0
    7.8134  -13.3076   22.2028 C   0  0  0  0  0  0  0  0  0  0  0  0
    8.4896  -15.0068   20.5205 C   0  0  2  0  0  0  0  0  0  0  0  0
    7.9246  -15.9686   19.6042 N   0  0  0  0  0  0  0  0  0  0  0  0
    9.0506  -15.7213   21.6853 C   0  0  0  0  0  0  0  0  0  0  0  0
    8.4396  -16.7421   22.1055 O   0  0  0  0  0  0  0  0  0  0  0  0
   10.2406  -15.3056   22.3431 N   0  0  0  0  0  0  0  0  0  0  0  0
   10.9531  -16.3078   23.1436 C   0  0  1  0  0  0  0  0  0  0  0  0
   12.4261  -16.1952   22.9146 C   0  0  0  0  0  0  0  0  0  0  0  0
   13.1881  -17.1577   23.7679 C   0  0  0  0  0  0  0  0  0  0  0  0
   14.6666  -17.0195   23.5613 C   0  0  0  0  0  0  0  0  0  0  0  0
   15.1735  -17.3057   22.4652 O   0  0  0  0  0  0  0  0  0  0  0  0
   10.6293  -16.0005   24.5508 C   0  0  0  0  0  0  0  0  0  0  0  0
   10.8884  -16.9023   25.4261 O   0  0  0  0  0  0  0  0  0  0  0  0
   15.4516  -16.5740   24.5952 O   0  0  0  0  0  0  0  0  0  0  0  0
   10.0733  -14.8116   24.9799 O   0  0  0  0  0  0  0  0  0  0  0  0
  2  1  1  6
  2  6  1  0
  2  3  1  0
  4  3  1  0
  4  5  2  0
  6  7  2  0
  8  4  1  0
 10  9  1  6
 10 12  1  0
 11 10  1  0
 12 14  1  0
 13  6  1  0
 12 13  1  6
 14 15  2  0
 16 14  1  0
 16 17  1  0
 17 22  1  0
 18 19  1  0
 17 18  1  1
 19 20  1  0
 20 24  1  0
 21 20  2  0
 22 25  1  0
 23 22  2  0
M  END
$$$$
