DVE.pdb
     RDKit          3D

 25 24  0  0  1  0  0  0  0  0999 V2000
    8.1587  -14.8731   20.6622 N   0  0  0  0  0  0  0  0  0  0  0  0
    7.3918  -15.1733   21.8320 C   0  0  1  0  0  0  0  0  0  0  0  0
    7.0781  -16.6374   21.9925 C   0  0  0  0  0  0  0  0  0  0  0  0
    6.3958  -17.1855   20.8161 C   0  0  0  0  0  0  0  0  0  0  0  0
    6.4070  -16.5176   19.7488 O   0  0  0  0  0  0  0  0  0  0  0  0
    8.0837  -14.6682   23.0418 C   0  0  0  0  0  0  0  0  0  0  0  0
    9.3343  -14.7261   23.1311 O   0  0  0  0  0  0  0  0  0  0  0  0
    5.7272  -18.4030   20.7855 O   0  0  0  0  0  0  0  0  0  0  0  0
    6.4690  -11.7464   25.4871 C   0  0  0  0  0  0  0  0  0  0  0  0
    6.9277  -12.9737   26.2002 C   0  0  2  0  0  0  0  0  0  0  0  0
    7.4768  -12.6024   27.5530 C   0  0  0  0  0  0  0  0  0  0  0  0
    7.9818  -13.7346   25.3995 C   0  0  2  0  0  0  0  0  0  0  0  0
    7.3817  -14.1044   24.1397 N   0  0  0  0  0  0  0  0  0  0  0  0
    8.2914  -14.9595   26.1649 C   0  0  0  0  0  0  0  0  0  0  0  0
    7.3542  -15.7760   26.3819 O   0  0  0  0  0  0  0  0  0  0  0  0
    9.5922  -15.2491   26.6606 N   0  0  0  0  0  0  0  0  0  0  0  0
    9.7667  -16.5029   27.4023 C   0  0  1  0  0  0  0  0  0  0  0  0
   10.6976  -17.4107   26.6644 C   0  0  0  0  0  0  0  0  0  0  0  0
   12.0236  -16.7616   26.4293 C   0  0  0  0  0  0  0  0  0  0  0  0
   12.9360  -17.6522   25.6406 C   0  0  0  0  0  0  0  0  0  0  0  0
   13.8295  -18.2956   26.2135 O   0  0  0  0  0  0  0  0  0  0  0  0
   10.3497  -16.1208   28.7037 C   0  0  0  0  0  0  0  0  0  0  0  0
   10.6554  -14.8862   28.8734 O   0  0  0  0  0  0  0  0  0  0  0  0
   12.7729  -17.7481   24.2812 O   0  0  0  0  0  0  0  0  0  0  0  0
   10.5808  -17.0015   29.7419 O   0  0  0  0  0  0  0  0  0  0  0  0
  2  1  1  6
  2  6  1  0
  2  3  1  0
  4  3  1  0
  4  5  2  0
  6  7  2  0
  8  4  1  0
 10  9  1  6
 10 12  1  0
 11 10  1  0
 12 14  1  0
 13  6  1  0
 12 13  1  6
 14 15  2  0
 16 14  1  0
 16 17  1  0
 17 22  1  0
 18 19  1  0
 17 18  1  6
 19 20  1  0
 20 24  1  0
 21 20  2  0
 22 25  1  0
 23 22  2  0
M  END
$$$$
