DVE.pdb
     RDKit          3D

 25 24  0  0  1  0  0  0  0  0999 V2000
    8.8077  -17.3786   16.8609 N   0  0  0  0  0  0  0  0  0  0  0  0
    8.6301  -17.7945   18.2182 C   0  0  1  0  0  0  0  0  0  0  0  0
    9.1488  -19.1796   18.5010 C   0  0  0  0  0  0  0  0  0  0  0  0
    8.4948  -20.1924   17.6665 C   0  0  0  0  0  0  0  0  0  0  0  0
    9.1125  -20.6347   16.6625 O   0  0  0  0  0  0  0  0  0  0  0  0
    9.2614  -16.8196   19.1395 C   0  0  0  0  0  0  0  0  0  0  0  0
   10.4325  -16.4167   18.9355 O   0  0  0  0  0  0  0  0  0  0  0  0
    7.2271  -20.7108   17.8997 O   0  0  0  0  0  0  0  0  0  0  0  0
    6.9504  -15.3602   22.3975 C   0  0  0  0  0  0  0  0  0  0  0  0
    7.9731  -14.5026   21.7313 C   0  0  2  0  0  0  0  0  0  0  0  0
    7.3326  -13.7179   20.6162 C   0  0  0  0  0  0  0  0  0  0  0  0
    9.1379  -15.3267   21.1880 C   0  0  2  0  0  0  0  0  0  0  0  0
    8.5875  -16.3019   20.2770 N   0  0  0  0  0  0  0  0  0  0  0  0
    9.7348  -16.0277   22.3431 C   0  0  0  0  0  0  0  0  0  0  0  0
    9.3008  -17.1778   22.6278 O   0  0  0  0  0  0  0  0  0  0  0  0
   10.7690  -15.4605   23.1371 N   0  0  0  0  0  0  0  0  0  0  0  0
   11.7625  -16.3786   23.7052 C   0  0  1  0  0  0  0  0  0  0  0  0
   13.1415  -15.8484   23.4763 C   0  0  0  0  0  0  0  0  0  0  0  0
   14.1786  -16.7427   24.0760 C   0  0  0  0  0  0  0  0  0  0  0  0
   15.5624  -16.2331   23.8058 C   0  0  0  0  0  0  0  0  0  0  0  0
   15.8326  -15.7085   22.7139 O   0  0  0  0  0  0  0  0  0  0  0  0
   11.4715  -16.4393   25.1512 C   0  0  0  0  0  0  0  0  0  0  0  0
   10.6947  -15.5397   25.6348 O   0  0  0  0  0  0  0  0  0  0  0  0
   16.5249  -16.3527   24.7768 O   0  0  0  0  0  0  0  0  0  0  0  0
   11.9760  -17.3981   26.0073 O   0  0  0  0  0  0  0  0  0  0  0  0
  2  1  1  6
  2  6  1  0
  2  3  1  0
  4  3  1  0
  4  5  2  0
  6  7  2  0
  8  4  1  0
 10  9  1  6
 10 12  1  0
 11 10  1  0
 12 14  1  0
 13  6  1  0
 12 13  1  6
 14 15  2  0
 16 14  1  0
 16 17  1  0
 17 22  1  0
 18 19  1  0
 17 18  1  1
 19 20  1  0
 20 24  1  0
 21 20  2  0
 22 25  1  0
 23 22  2  0
M  END
$$$$
