DVE.pdb
     RDKit          3D

 25 24  0  0  1  0  0  0  0  0999 V2000
    9.6257  -17.1062   16.0552 N   0  0  0  0  0  0  0  0  0  0  0  0
    8.9134  -17.3914   17.2626 C   0  0  1  0  0  0  0  0  0  0  0  0
    9.0504  -18.8179   17.7252 C   0  0  0  0  0  0  0  0  0  0  0  0
    8.5651  -19.7702   16.7214 C   0  0  0  0  0  0  0  0  0  0  0  0
    9.1776  -20.8614   16.5819 O   0  0  0  0  0  0  0  0  0  0  0  0
    9.3404  -16.4667   18.3398 C   0  0  0  0  0  0  0  0  0  0  0  0
   10.5593  -16.2916   18.5828 O   0  0  0  0  0  0  0  0  0  0  0  0
    7.4654  -19.5602   15.8988 O   0  0  0  0  0  0  0  0  0  0  0  0
    7.0730  -13.1659   19.5618 C   0  0  0  0  0  0  0  0  0  0  0  0
    7.5075  -14.1102   20.6317 C   0  0  2  0  0  0  0  0  0  0  0  0
    7.7486  -13.3542   21.9122 C   0  0  0  0  0  0  0  0  0  0  0  0
    8.7658  -14.8783   20.2338 C   0  0  2  0  0  0  0  0  0  0  0  0
    8.4114  -15.7462   19.1360 N   0  0  0  0  0  0  0  0  0  0  0  0
    9.1436  -15.7034   21.3992 C   0  0  0  0  0  0  0  0  0  0  0  0
    8.6314  -16.8517   21.5040 O   0  0  0  0  0  0  0  0  0  0  0  0
   10.0533  -15.2562   22.3964 N   0  0  0  0  0  0  0  0  0  0  0  0
   10.6593  -16.2750   23.2610 C   0  0  1  0  0  0  0  0  0  0  0  0
   12.1337  -16.3400   23.0222 C   0  0  0  0  0  0  0  0  0  0  0  0
   12.5451  -17.6783   22.4982 C   0  0  0  0  0  0  0  0  0  0  0  0
   14.0273  -17.7498   22.2849 C   0  0  0  0  0  0  0  0  0  0  0  0
   14.7677  -16.8651   22.7429 O   0  0  0  0  0  0  0  0  0  0  0  0
   10.3841  -15.8412   24.6450 C   0  0  0  0  0  0  0  0  0  0  0  0
   10.0422  -14.6172   24.8226 O   0  0  0  0  0  0  0  0  0  0  0  0
   14.5555  -18.8019   21.5792 O   0  0  0  0  0  0  0  0  0  0  0  0
   10.4675  -16.6650   25.7501 O   0  0  0  0  0  0  0  0  0  0  0  0
  2  1  1  6
  2  6  1  0
  2  3  1  0
  4  3  1  0
  4  5  2  0
  6  7  2  0
  8  4  1  0
 10  9  1  6
 10 12  1  0
 11 10  1  0
 12 14  1  0
 13  6  1  0
 12 13  1  6
 14 15  2  0
 16 14  1  0
 16 17  1  0
 17 22  1  0
 18 19  1  0
 17 18  1  1
 19 20  1  0
 20 24  1  0
 21 20  2  0
 22 25  1  0
 23 22  2  0
M  END
$$$$
