DVE.pdb
     RDKit          3D

 25 24  0  0  1  0  0  0  0  0999 V2000
    8.0378  -17.1700   16.9720 N   0  0  0  0  0  0  0  0  0  0  0  0
    9.4486  -17.1021   17.1989 C   0  0  1  0  0  0  0  0  0  0  0  0
   10.2321  -16.6184   16.0073 C   0  0  0  0  0  0  0  0  0  0  0  0
   10.0278  -17.4712   14.8322 C   0  0  0  0  0  0  0  0  0  0  0  0
    8.8488  -17.7136   14.4627 O   0  0  0  0  0  0  0  0  0  0  0  0
    9.7377  -16.2479   18.3755 C   0  0  0  0  0  0  0  0  0  0  0  0
   10.9017  -16.1757   18.8395 O   0  0  0  0  0  0  0  0  0  0  0  0
   11.0485  -18.0421   14.0823 O   0  0  0  0  0  0  0  0  0  0  0  0
    7.5707  -12.8222   19.3708 C   0  0  0  0  0  0  0  0  0  0  0  0
    7.6924  -13.8560   20.4393 C   0  0  2  0  0  0  0  0  0  0  0  0
    7.7425  -13.1903   21.7898 C   0  0  0  0  0  0  0  0  0  0  0  0
    8.9272  -14.7324   20.2428 C   0  0  2  0  0  0  0  0  0  0  0  0
    8.7332  -15.4829   19.0250 N   0  0  0  0  0  0  0  0  0  0  0  0
    8.9677  -15.6679   21.3853 C   0  0  0  0  0  0  0  0  0  0  0  0
    8.0219  -16.4937   21.5094 O   0  0  0  0  0  0  0  0  0  0  0  0
   10.0217  -15.6720   22.3396 N   0  0  0  0  0  0  0  0  0  0  0  0
    9.9597  -16.6762   23.4075 C   0  0  1  0  0  0  0  0  0  0  0  0
   10.8480  -17.8324   23.0773 C   0  0  0  0  0  0  0  0  0  0  0  0
   12.2757  -17.4074   22.9509 C   0  0  0  0  0  0  0  0  0  0  0  0
   13.1685  -18.5734   22.6490 C   0  0  0  0  0  0  0  0  0  0  0  0
   13.3053  -18.9692   21.4807 O   0  0  0  0  0  0  0  0  0  0  0  0
   10.4388  -15.9950   24.6264 C   0  0  0  0  0  0  0  0  0  0  0  0
   10.9963  -14.8484   24.4810 O   0  0  0  0  0  0  0  0  0  0  0  0
   13.8314  -19.1969   23.6764 O   0  0  0  0  0  0  0  0  0  0  0  0
   10.3217  -16.5092   25.9026 O   0  0  0  0  0  0  0  0  0  0  0  0
  2  1  1  6
  2  6  1  0
  2  3  1  0
  4  3  1  0
  4  5  2  0
  6  7  2  0
  8  4  1  0
 10  9  1  6
 10 12  1  0
 11 10  1  0
 12 14  1  0
 13  6  1  0
 12 13  1  6
 14 15  2  0
 16 14  1  0
 16 17  1  0
 17 22  1  0
 18 19  1  0
 17 18  1  6
 19 20  1  0
 20 24  1  0
 21 20  2  0
 22 25  1  0
 23 22  2  0
M  END
$$$$
