DVE.pdb
     RDKit          3D

 25 24  0  0  1  0  0  0  0  0999 V2000
    7.6181  -14.6450   20.6799 N   0  0  0  0  0  0  0  0  0  0  0  0
    7.1711  -15.2176   21.9124 C   0  0  1  0  0  0  0  0  0  0  0  0
    7.3001  -16.7169   21.9668 C   0  0  0  0  0  0  0  0  0  0  0  0
    6.6918  -17.3636   20.7998 C   0  0  0  0  0  0  0  0  0  0  0  0
    6.5171  -16.6804   19.7567 O   0  0  0  0  0  0  0  0  0  0  0  0
    7.8933  -14.6056   23.0532 C   0  0  0  0  0  0  0  0  0  0  0  0
    9.1328  -14.4170   22.9949 O   0  0  0  0  0  0  0  0  0  0  0  0
    6.2866  -18.6917   20.7532 O   0  0  0  0  0  0  0  0  0  0  0  0
    6.0240  -11.9805   25.6905 C   0  0  0  0  0  0  0  0  0  0  0  0
    6.7918  -13.0947   26.3184 C   0  0  2  0  0  0  0  0  0  0  0  0
    7.3962  -12.6292   27.6174 C   0  0  0  0  0  0  0  0  0  0  0  0
    7.8856  -13.6222   25.3928 C   0  0  2  0  0  0  0  0  0  0  0  0
    7.2336  -14.2094   24.2464 N   0  0  0  0  0  0  0  0  0  0  0  0
    8.5966  -14.6805   26.1386 C   0  0  0  0  0  0  0  0  0  0  0  0
    7.9738  -15.7483   26.3916 O   0  0  0  0  0  0  0  0  0  0  0  0
    9.9420  -14.5418   26.5772 N   0  0  0  0  0  0  0  0  0  0  0  0
   10.6439  -15.7611   26.9935 C   0  0  1  0  0  0  0  0  0  0  0  0
   12.0324  -15.7688   26.4393 C   0  0  0  0  0  0  0  0  0  0  0  0
   12.8060  -16.9556   26.9167 C   0  0  0  0  0  0  0  0  0  0  0  0
   14.1883  -16.9767   26.3364 C   0  0  0  0  0  0  0  0  0  0  0  0
   15.1405  -17.4064   27.0065 O   0  0  0  0  0  0  0  0  0  0  0  0
   10.6824  -15.7175   28.4686 C   0  0  0  0  0  0  0  0  0  0  0  0
   10.5306  -14.5732   29.0290 O   0  0  0  0  0  0  0  0  0  0  0  0
   14.3887  -16.5165   25.0590 O   0  0  0  0  0  0  0  0  0  0  0  0
   10.8662  -16.8229   29.2755 O   0  0  0  0  0  0  0  0  0  0  0  0
  2  1  1  6
  2  6  1  0
  2  3  1  0
  4  3  1  0
  4  5  2  0
  6  7  2  0
  8  4  1  0
 10  9  1  6
 10 12  1  0
 11 10  1  0
 12 14  1  0
 13  6  1  0
 12 13  1  6
 14 15  2  0
 16 14  1  0
 16 17  1  0
 17 22  1  0
 18 19  1  0
 17 18  1  6
 19 20  1  0
 20 24  1  0
 21 20  2  0
 22 25  1  0
 23 22  2  0
M  END
$$$$
