DVE.pdb
     RDKit          3D

 25 24  0  0  1  0  0  0  0  0999 V2000
    8.9428  -17.8711   16.9875 N   0  0  0  0  0  0  0  0  0  0  0  0
    8.5129  -18.1445   18.3243 C   0  0  1  0  0  0  0  0  0  0  0  0
    8.8733  -19.5246   18.8071 C   0  0  0  0  0  0  0  0  0  0  0  0
    8.5735  -20.5528   17.8058 C   0  0  0  0  0  0  0  0  0  0  0  0
    9.4124  -21.4730   17.6190 O   0  0  0  0  0  0  0  0  0  0  0  0
    9.0539  -17.1252   19.2549 C   0  0  0  0  0  0  0  0  0  0  0  0
   10.2364  -16.7206   19.1388 O   0  0  0  0  0  0  0  0  0  0  0  0
    7.4187  -20.5928   17.0345 O   0  0  0  0  0  0  0  0  0  0  0  0
    6.6833  -14.1990   20.9552 C   0  0  0  0  0  0  0  0  0  0  0  0
    7.5260  -14.9657   21.9182 C   0  0  2  0  0  0  0  0  0  0  0  0
    7.9550  -14.0668   23.0484 C   0  0  0  0  0  0  0  0  0  0  0  0
    8.7516  -15.5740   21.2405 C   0  0  2  0  0  0  0  0  0  0  0  0
    8.2782  -16.5655   20.3042 N   0  0  0  0  0  0  0  0  0  0  0  0
    9.5317  -16.2444   22.3006 C   0  0  0  0  0  0  0  0  0  0  0  0
    9.0933  -17.3347   22.7600 O   0  0  0  0  0  0  0  0  0  0  0  0
   10.7450  -15.7121   22.8167 N   0  0  0  0  0  0  0  0  0  0  0  0
   11.6383  -16.6358   23.5250 C   0  0  1  0  0  0  0  0  0  0  0  0
   13.0641  -16.2513   23.2918 C   0  0  0  0  0  0  0  0  0  0  0  0
   14.0012  -17.1418   24.0427 C   0  0  0  0  0  0  0  0  0  0  0  0
   15.4299  -16.7502   23.8122 C   0  0  0  0  0  0  0  0  0  0  0  0
   16.3337  -17.5942   23.9182 O   0  0  0  0  0  0  0  0  0  0  0  0
   11.3001  -16.5021   24.9558 C   0  0  0  0  0  0  0  0  0  0  0  0
   10.7026  -15.4274   25.3228 O   0  0  0  0  0  0  0  0  0  0  0  0
   15.7269  -15.4511   23.4836 O   0  0  0  0  0  0  0  0  0  0  0  0
   11.5812  -17.4553   25.9145 O   0  0  0  0  0  0  0  0  0  0  0  0
  2  1  1  6
  2  6  1  0
  2  3  1  0
  4  3  1  0
  4  5  2  0
  6  7  2  0
  8  4  1  0
 10  9  1  6
 10 12  1  0
 11 10  1  0
 12 14  1  0
 13  6  1  0
 12 13  1  6
 14 15  2  0
 16 14  1  0
 16 17  1  0
 17 22  1  0
 18 19  1  0
 17 18  1  1
 19 20  1  0
 20 24  1  0
 21 20  2  0
 22 25  1  0
 23 22  2  0
M  END
$$$$
