DVE.pdb
     RDKit          3D

 25 24  0  0  1  0  0  0  0  0999 V2000
    8.0877  -12.9829   20.0633 N   0  0  0  0  0  0  0  0  0  0  0  0
    7.1599  -13.4017   21.0685 C   0  0  1  0  0  0  0  0  0  0  0  0
    6.4568  -14.6934   20.7448 C   0  0  0  0  0  0  0  0  0  0  0  0
    7.3968  -15.7459   20.3464 C   0  0  0  0  0  0  0  0  0  0  0  0
    8.6279  -15.4819   20.3403 O   0  0  0  0  0  0  0  0  0  0  0  0
    7.8412  -13.5112   22.3807 C   0  0  0  0  0  0  0  0  0  0  0  0
    9.0512  -13.8383   22.4447 O   0  0  0  0  0  0  0  0  0  0  0  0
    7.0305  -17.0318   19.9692 O   0  0  0  0  0  0  0  0  0  0  0  0
    6.3779  -11.4269   25.6481 C   0  0  0  0  0  0  0  0  0  0  0  0
    6.7675  -12.8391   25.9296 C   0  0  2  0  0  0  0  0  0  0  0  0
    7.3333  -12.9443   27.3218 C   0  0  0  0  0  0  0  0  0  0  0  0
    7.7803  -13.3616   24.9133 C   0  0  2  0  0  0  0  0  0  0  0  0
    7.1735  -13.2568   23.6077 N   0  0  0  0  0  0  0  0  0  0  0  0
    8.0005  -14.7873   25.2306 C   0  0  0  0  0  0  0  0  0  0  0  0
    7.0310  -15.5826   25.0904 O   0  0  0  0  0  0  0  0  0  0  0  0
    9.2508  -15.2909   25.6831 N   0  0  0  0  0  0  0  0  0  0  0  0
    9.3637  -16.7413   25.8736 C   0  0  1  0  0  0  0  0  0  0  0  0
   10.3411  -17.3128   24.8973 C   0  0  0  0  0  0  0  0  0  0  0  0
   11.6920  -16.6903   25.0466 C   0  0  0  0  0  0  0  0  0  0  0  0
   12.6624  -17.2433   24.0466 C   0  0  0  0  0  0  0  0  0  0  0  0
   13.0109  -16.5603   23.0707 O   0  0  0  0  0  0  0  0  0  0  0  0
    9.8521  -16.9273   27.2543 C   0  0  0  0  0  0  0  0  0  0  0  0
   10.1865  -15.8752   27.9084 O   0  0  0  0  0  0  0  0  0  0  0  0
   13.1600  -18.5104   24.2216 O   0  0  0  0  0  0  0  0  0  0  0  0
    9.9666  -18.1523   27.8811 O   0  0  0  0  0  0  0  0  0  0  0  0
  2  1  1  6
  2  6  1  0
  2  3  1  0
  4  3  1  0
  4  5  2  0
  6  7  2  0
  8  4  1  0
 10  9  1  6
 10 12  1  0
 11 10  1  0
 12 14  1  0
 13  6  1  0
 12 13  1  6
 14 15  2  0
 16 14  1  0
 16 17  1  0
 17 22  1  0
 18 19  1  0
 17 18  1  6
 19 20  1  0
 20 24  1  0
 21 20  2  0
 22 25  1  0
 23 22  2  0
M  END
$$$$
