DVE.pdb
     RDKit          3D

 25 24  0  0  1  0  0  0  0  0999 V2000
    8.4171  -14.8685   20.8421 N   0  0  0  0  0  0  0  0  0  0  0  0
    8.2255  -15.7912   21.9185 C   0  0  1  0  0  0  0  0  0  0  0  0
    8.8285  -17.1483   21.6689 C   0  0  0  0  0  0  0  0  0  0  0  0
    8.2761  -17.7827   20.4680 C   0  0  0  0  0  0  0  0  0  0  0  0
    7.7389  -17.0519   19.5948 O   0  0  0  0  0  0  0  0  0  0  0  0
    8.7591  -15.2244   23.1802 C   0  0  0  0  0  0  0  0  0  0  0  0
    9.9896  -15.2615   23.4248 O   0  0  0  0  0  0  0  0  0  0  0  0
    8.2989  -19.1483   20.2134 O   0  0  0  0  0  0  0  0  0  0  0  0
    6.7432  -12.1635   25.1409 C   0  0  0  0  0  0  0  0  0  0  0  0
    7.2091  -13.2838   26.0088 C   0  0  2  0  0  0  0  0  0  0  0  0
    7.5918  -12.7526   27.3656 C   0  0  0  0  0  0  0  0  0  0  0  0
    8.3880  -14.0297   25.3883 C   0  0  2  0  0  0  0  0  0  0  0  0
    7.9226  -14.6225   24.1570 N   0  0  0  0  0  0  0  0  0  0  0  0
    8.7533  -15.1042   26.3337 C   0  0  0  0  0  0  0  0  0  0  0  0
    7.8974  -15.9997   26.5733 O   0  0  0  0  0  0  0  0  0  0  0  0
   10.0200  -15.1657   26.9767 N   0  0  0  0  0  0  0  0  0  0  0  0
   10.2500  -16.2768   27.9070 C   0  0  1  0  0  0  0  0  0  0  0  0
   11.5438  -16.9544   27.5877 C   0  0  0  0  0  0  0  0  0  0  0  0
   11.5242  -17.5551   26.2189 C   0  0  0  0  0  0  0  0  0  0  0  0
   12.8198  -18.2406   25.9041 C   0  0  0  0  0  0  0  0  0  0  0  0
   13.8563  -17.5760   25.7479 O   0  0  0  0  0  0  0  0  0  0  0  0
   10.3093  -15.6686   29.2508 C   0  0  0  0  0  0  0  0  0  0  0  0
   10.3705  -14.3885   29.3167 O   0  0  0  0  0  0  0  0  0  0  0  0
   12.8472  -19.6082   25.7908 O   0  0  0  0  0  0  0  0  0  0  0  0
   10.2993  -16.3855   30.4309 O   0  0  0  0  0  0  0  0  0  0  0  0
  2  1  1  6
  2  6  1  0
  2  3  1  0
  4  3  1  0
  4  5  2  0
  6  7  2  0
  8  4  1  0
 10  9  1  6
 10 12  1  0
 11 10  1  0
 12 14  1  0
 13  6  1  0
 12 13  1  6
 14 15  2  0
 16 14  1  0
 16 17  1  0
 17 22  1  0
 18 19  1  0
 17 18  1  6
 19 20  1  0
 20 24  1  0
 21 20  2  0
 22 25  1  0
 23 22  2  0
M  END
$$$$
