YSQ.pdb
     RDKit          3D

 28 28  0  0  1  0  0  0  0  0999 V2000
   29.9025  -32.2001  -16.3997 O   0  0  0  0  0  0  0  0  0  0  0  0
   29.2476  -30.9635  -16.5275 C   0  0  0  0  0  0  0  0  0  0  0  0
   28.2463  -30.6235  -15.6576 C   0  0  0  0  0  0  0  0  0  0  0  0
   27.6053  -29.3920  -15.7973 C   0  0  0  0  0  0  0  0  0  0  0  0
   27.9530  -28.4996  -16.7933 C   0  0  0  0  0  0  0  0  0  0  0  0
   27.2977  -27.1988  -16.9643 C   0  0  0  0  0  0  0  0  0  0  0  0
   25.9231  -27.3206  -17.6059 C   0  0  2  0  0  0  0  0  0  0  0  0
   26.0028  -27.7782  -18.9651 N   0  0  0  0  0  0  0  0  0  0  0  0
   25.3059  -25.9867  -17.5651 C   0  0  0  0  0  0  0  0  0  0  0  0
   25.4188  -25.2104  -18.5267 O   0  0  0  0  0  0  0  0  0  0  0  0
   28.9653  -28.8697  -17.6545 C   0  0  0  0  0  0  0  0  0  0  0  0
   29.6182  -30.0963  -17.5314 C   0  0  0  0  0  0  0  0  0  0  0  0
   22.9690  -25.4172  -14.4586 O   0  0  0  0  0  0  0  0  0  0  0  0
   23.0209  -24.2043  -15.1583 C   0  0  0  0  0  0  0  0  0  0  0  0
   23.8595  -24.3637  -16.4110 C   0  0  2  0  0  0  0  0  0  0  0  0
   24.5828  -25.5955  -16.4218 N   0  0  0  0  0  0  0  0  0  0  0  0
   24.7747  -23.1957  -16.5451 C   0  0  0  0  0  0  0  0  0  0  0  0
   25.9002  -23.1672  -15.9758 O   0  0  0  0  0  0  0  0  0  0  0  0
   27.4338  -21.2854  -21.0265 N   0  0  0  0  0  0  0  0  0  0  0  0
   26.1923  -21.9648  -20.9956 C   0  0  0  0  0  0  0  0  0  0  0  0
   25.8344  -22.6643  -21.9764 O   0  0  0  0  0  0  0  0  0  0  0  0
   25.3317  -21.8546  -19.8156 C   0  0  0  0  0  0  0  0  0  0  0  0
   25.9330  -21.0078  -18.7565 C   0  0  0  0  0  0  0  0  0  0  0  0
   25.1772  -20.8622  -17.4800 C   0  0  2  0  0  0  0  0  0  0  0  0
   24.3765  -22.0937  -17.3265 N   0  0  0  0  0  0  0  0  0  0  0  0
   24.4063  -19.6777  -17.2280 C   0  0  0  0  0  0  0  0  0  0  0  0
   25.0716  -18.4346  -17.2417 O   0  0  0  0  0  0  0  0  0  0  0  0
   23.1800  -19.6193  -16.9915 O   0  0  0  0  0  0  0  0  0  0  0  0
  2  1  1  0
  3  2  2  0
  4  3  1  0
  5 11  1  0
  5  4  2  0
  6  5  1  0
  7  6  1  0
  7  8  1  6
  9  7  1  0
  9 10  2  0
 11 12  2  0
 12  2  1  0
 14 13  1  0
 15 16  1  0
 15 14  1  1
 16  9  1  0
 17 15  1  0
 18 17  2  0
 20 19  1  0
 21 20  2  0
 22 20  1  0
 24 23  1  6
 23 22  1  0
 24 25  1  0
 25 17  1  0
 26 24  1  0
 26 27  1  0
 28 26  2  0
M  END
$$$$
