YSQ.pdb
     RDKit          3D

 28 28  0  0  1  0  0  0  0  0999 V2000
   33.0713  -31.6277  -17.2039 O   0  0  0  0  0  0  0  0  0  0  0  0
   31.7667  -31.6449  -16.6821 C   0  0  0  0  0  0  0  0  0  0  0  0
   30.8713  -30.6725  -17.0395 C   0  0  0  0  0  0  0  0  0  0  0  0
   29.5794  -30.7029  -16.5130 C   0  0  0  0  0  0  0  0  0  0  0  0
   29.1741  -31.6911  -15.6364 C   0  0  0  0  0  0  0  0  0  0  0  0
   27.8236  -31.7490  -15.0675 C   0  0  0  0  0  0  0  0  0  0  0  0
   26.9747  -32.8443  -15.6964 C   0  0  2  0  0  0  0  0  0  0  0  0
   26.6740  -32.5676  -17.0736 N   0  0  0  0  0  0  0  0  0  0  0  0
   25.7279  -32.9253  -14.9213 C   0  0  0  0  0  0  0  0  0  0  0  0
   24.7627  -32.1977  -15.2022 O   0  0  0  0  0  0  0  0  0  0  0  0
   30.0980  -32.6571  -15.2948 C   0  0  0  0  0  0  0  0  0  0  0  0
   31.3942  -32.6440  -15.8103 C   0  0  0  0  0  0  0  0  0  0  0  0
   24.2596  -36.2531  -13.3656 O   0  0  0  0  0  0  0  0  0  0  0  0
   23.5537  -35.0446  -13.4334 C   0  0  0  0  0  0  0  0  0  0  0  0
   24.4597  -33.8924  -13.0465 C   0  0  2  0  0  0  0  0  0  0  0  0
   25.6374  -33.8389  -13.8534 N   0  0  0  0  0  0  0  0  0  0  0  0
   24.7978  -33.9939  -11.5991 C   0  0  0  0  0  0  0  0  0  0  0  0
   25.8219  -34.6130  -11.1998 O   0  0  0  0  0  0  0  0  0  0  0  0
   25.7614  -34.2621   -5.9672 N   0  0  0  0  0  0  0  0  0  0  0  0
   26.0608  -33.2524   -6.9131 C   0  0  0  0  0  0  0  0  0  0  0  0
   27.1847  -33.2312   -7.4749 O   0  0  0  0  0  0  0  0  0  0  0  0
   25.0549  -32.2388   -7.2385 C   0  0  0  0  0  0  0  0  0  0  0  0
   24.6561  -32.2785   -8.6666 C   0  0  0  0  0  0  0  0  0  0  0  0
   24.0989  -33.5582   -9.1901 C   0  0  2  0  0  0  0  0  0  0  0  0
   23.9548  -33.3843  -10.6496 N   0  0  0  0  0  0  0  0  0  0  0  0
   22.9273  -34.1339   -8.5929 C   0  0  0  0  0  0  0  0  0  0  0  0
   21.6734  -33.5724   -8.9106 O   0  0  0  0  0  0  0  0  0  0  0  0
   22.8889  -35.1017   -7.8023 O   0  0  0  0  0  0  0  0  0  0  0  0
  2  1  1  0
  3  2  2  0
  4  3  1  0
  5 11  1  0
  5  4  2  0
  6  5  1  0
  7  6  1  0
  7  8  1  6
  9  7  1  0
  9 10  2  0
 11 12  2  0
 12  2  1  0
 14 13  1  0
 15 16  1  0
 15 14  1  6
 16  9  1  0
 17 15  1  0
 18 17  2  0
 20 19  1  0
 21 20  2  0
 22 20  1  0
 24 23  1  1
 23 22  1  0
 24 25  1  0
 25 17  1  0
 26 24  1  0
 26 27  1  0
 28 26  2  0
M  END
$$$$
