YSQ.pdb
     RDKit          3D

 28 28  0  0  1  0  0  0  0  0999 V2000
   31.7185  -21.1218  -10.9490 O   0  0  0  0  0  0  0  0  0  0  0  0
   30.3704  -20.8926  -11.2725 C   0  0  0  0  0  0  0  0  0  0  0  0
   30.0455  -20.1722  -12.3907 C   0  0  0  0  0  0  0  0  0  0  0  0
   28.7023  -19.9528  -12.6988 C   0  0  0  0  0  0  0  0  0  0  0  0
   27.6840  -20.4439  -11.9044 C   0  0  0  0  0  0  0  0  0  0  0  0
   26.2642  -20.2297  -12.2031 C   0  0  0  0  0  0  0  0  0  0  0  0
   25.5858  -21.4853  -12.7314 C   0  0  2  0  0  0  0  0  0  0  0  0
   26.1618  -21.9266  -13.9711 N   0  0  0  0  0  0  0  0  0  0  0  0
   24.1658  -21.1598  -12.9303 C   0  0  0  0  0  0  0  0  0  0  0  0
   23.7182  -20.9626  -14.0708 O   0  0  0  0  0  0  0  0  0  0  0  0
   28.0422  -21.1659  -10.7847 C   0  0  0  0  0  0  0  0  0  0  0  0
   29.3790  -21.3960  -10.4596 C   0  0  0  0  0  0  0  0  0  0  0  0
   21.6168  -19.9047   -9.8521 O   0  0  0  0  0  0  0  0  0  0  0  0
   21.1597  -20.9497  -10.6659 C   0  0  0  0  0  0  0  0  0  0  0  0
   21.9029  -20.9411  -11.9871 C   0  0  2  0  0  0  0  0  0  0  0  0
   23.3145  -21.0732  -11.8119 N   0  0  0  0  0  0  0  0  0  0  0  0
   21.5630  -19.6997  -12.7374 C   0  0  0  0  0  0  0  0  0  0  0  0
   22.1615  -18.6103  -12.5216 O   0  0  0  0  0  0  0  0  0  0  0  0
   21.8525  -18.8213  -18.2109 N   0  0  0  0  0  0  0  0  0  0  0  0
   21.3600  -17.5378  -17.8736 C   0  0  0  0  0  0  0  0  0  0  0  0
   21.2154  -16.6656  -18.7667 O   0  0  0  0  0  0  0  0  0  0  0  0
   21.0139  -17.2334  -16.4833 C   0  0  0  0  0  0  0  0  0  0  0  0
   21.1334  -18.4192  -15.6002 C   0  0  0  0  0  0  0  0  0  0  0  0
   20.1274  -18.5700  -14.5106 C   0  0  2  0  0  0  0  0  0  0  0  0
   20.5481  -19.7397  -13.7133 N   0  0  0  0  0  0  0  0  0  0  0  0
   18.7260  -18.5990  -14.8203 C   0  0  0  0  0  0  0  0  0  0  0  0
   18.0892  -17.3821  -15.1399 O   0  0  0  0  0  0  0  0  0  0  0  0
   17.9846  -19.6056  -14.8401 O   0  0  0  0  0  0  0  0  0  0  0  0
  2  1  1  0
  3  2  2  0
  4  3  1  0
  5 11  1  0
  5  4  2  0
  6  5  1  0
  7  6  1  0
  7  8  1  6
  9  7  1  0
  9 10  2  0
 11 12  2  0
 12  2  1  0
 14 13  1  0
 15 16  1  0
 15 14  1  1
 16  9  1  0
 17 15  1  0
 18 17  2  0
 20 19  1  0
 21 20  2  0
 22 20  1  0
 24 23  1  6
 23 22  1  0
 24 25  1  0
 25 17  1  0
 26 24  1  0
 26 27  1  0
 28 26  2  0
M  END
$$$$
