YSQ.pdb
     RDKit          3D

 28 28  0  0  1  0  0  0  0  0999 V2000
   28.4482  -19.5252   -5.7243 O   0  0  0  0  0  0  0  0  0  0  0  0
   27.8980  -19.9601   -6.9419 C   0  0  0  0  0  0  0  0  0  0  0  0
   26.5391  -20.0174   -7.1000 C   0  0  0  0  0  0  0  0  0  0  0  0
   26.0076  -20.4515   -8.3150 C   0  0  0  0  0  0  0  0  0  0  0  0
   26.8167  -20.8276   -9.3701 C   0  0  0  0  0  0  0  0  0  0  0  0
   26.2870  -21.2874  -10.6580 C   0  0  0  0  0  0  0  0  0  0  0  0
   25.7793  -20.1407  -11.5201 C   0  0  2  0  0  0  0  0  0  0  0  0
   24.6209  -19.5112  -10.9499 N   0  0  0  0  0  0  0  0  0  0  0  0
   25.4428  -20.7037  -12.8360 C   0  0  0  0  0  0  0  0  0  0  0  0
   24.2624  -20.9407  -13.1369 O   0  0  0  0  0  0  0  0  0  0  0  0
   28.1817  -20.7593   -9.1812 C   0  0  0  0  0  0  0  0  0  0  0  0
   28.7323  -20.3281   -7.9743 C   0  0  0  0  0  0  0  0  0  0  0  0
   28.3552  -22.1331  -15.3057 O   0  0  0  0  0  0  0  0  0  0  0  0
   27.4306  -21.3223  -15.9775 C   0  0  0  0  0  0  0  0  0  0  0  0
   26.1771  -21.1619  -15.1402 C   0  0  2  0  0  0  0  0  0  0  0  0
   26.4746  -20.9729  -13.7558 N   0  0  0  0  0  0  0  0  0  0  0  0
   25.2893  -22.3401  -15.3486 C   0  0  0  0  0  0  0  0  0  0  0  0
   25.4754  -23.4266  -14.7349 O   0  0  0  0  0  0  0  0  0  0  0  0
   22.2571  -22.2234  -12.7835 N   0  0  0  0  0  0  0  0  0  0  0  0
   21.3502  -22.3508  -13.8629 C   0  0  0  0  0  0  0  0  0  0  0  0
   20.4176  -21.5198  -14.0013 O   0  0  0  0  0  0  0  0  0  0  0  0
   21.5071  -23.4487  -14.8195 C   0  0  0  0  0  0  0  0  0  0  0  0
   21.9560  -22.9756  -16.1518 C   0  0  0  0  0  0  0  0  0  0  0  0
   23.3233  -23.3687  -16.5968 C   0  0  2  0  0  0  0  0  0  0  0  0
   24.2140  -22.2420  -16.2529 N   0  0  0  0  0  0  0  0  0  0  0  0
   23.5391  -23.8435  -17.9342 C   0  0  0  0  0  0  0  0  0  0  0  0
   24.1450  -22.9707  -18.8613 O   0  0  0  0  0  0  0  0  0  0  0  0
   23.2440  -24.9720  -18.3844 O   0  0  0  0  0  0  0  0  0  0  0  0
  2  1  1  0
  3  2  2  0
  4  3  1  0
  5 11  1  0
  5  4  2  0
  6  5  1  0
  7  6  1  0
  7  8  1  1
  9  7  1  0
  9 10  2  0
 11 12  2  0
 12  2  1  0
 14 13  1  0
 15 16  1  0
 15 14  1  6
 16  9  1  0
 17 15  1  0
 18 17  2  0
 20 19  1  0
 21 20  2  0
 22 20  1  0
 24 23  1  6
 23 22  1  0
 24 25  1  0
 25 17  1  0
 26 24  1  0
 26 27  1  0
 28 26  2  0
M  END
$$$$
