YSQ.pdb
     RDKit          3D

 28 28  0  0  1  0  0  0  0  0999 V2000
   22.8087    3.1793  -15.3606 O   0  0  0  0  0  0  0  0  0  0  0  0
   22.3891    1.8499  -15.5368 C   0  0  0  0  0  0  0  0  0  0  0  0
   22.9587    0.8465  -14.7994 C   0  0  0  0  0  0  0  0  0  0  0  0
   22.5315   -0.4687  -14.9856 C   0  0  0  0  0  0  0  0  0  0  0  0
   21.5446   -0.7910  -15.8974 C   0  0  0  0  0  0  0  0  0  0  0  0
   21.0753   -2.1634  -16.1144 C   0  0  0  0  0  0  0  0  0  0  0  0
   22.1333   -3.0432  -16.7644 C   0  0  2  0  0  0  0  0  0  0  0  0
   22.4948   -2.5722  -18.0724 N   0  0  0  0  0  0  0  0  0  0  0  0
   21.5705   -4.3982  -16.8613 C   0  0  0  0  0  0  0  0  0  0  0  0
   21.1363   -4.8244  -17.9428 O   0  0  0  0  0  0  0  0  0  0  0  0
   20.9894    0.2409  -16.6256 C   0  0  0  0  0  0  0  0  0  0  0  0
   21.4028    1.5621  -16.4541 C   0  0  0  0  0  0  0  0  0  0  0  0
   21.4644   -6.8291  -13.4579 O   0  0  0  0  0  0  0  0  0  0  0  0
   21.6090   -7.4391  -14.7110 C   0  0  0  0  0  0  0  0  0  0  0  0
   21.0292   -6.5478  -15.7915 C   0  0  2  0  0  0  0  0  0  0  0  0
   21.5280   -5.2115  -15.7124 N   0  0  0  0  0  0  0  0  0  0  0  0
   19.5418   -6.5776  -15.7116 C   0  0  0  0  0  0  0  0  0  0  0  0
   18.8922   -5.6752  -15.1156 O   0  0  0  0  0  0  0  0  0  0  0  0
   16.5348  -10.6397  -19.3076 N   0  0  0  0  0  0  0  0  0  0  0  0
   15.4107  -10.0034  -18.7285 C   0  0  0  0  0  0  0  0  0  0  0  0
   14.2514  -10.3162  -19.0993 O   0  0  0  0  0  0  0  0  0  0  0  0
   15.6039   -8.9858  -17.6929 C   0  0  0  0  0  0  0  0  0  0  0  0
   17.0378   -8.7487  -17.3962 C   0  0  0  0  0  0  0  0  0  0  0  0
   17.3665   -7.7323  -16.3566 C   0  0  2  0  0  0  0  0  0  0  0  0
   18.8398   -7.6388  -16.3157 N   0  0  0  0  0  0  0  0  0  0  0  0
   16.7914   -7.8287  -15.0448 C   0  0  0  0  0  0  0  0  0  0  0  0
   15.5750   -7.1588  -14.8000 O   0  0  0  0  0  0  0  0  0  0  0  0
   17.2569   -8.4548  -14.0678 O   0  0  0  0  0  0  0  0  0  0  0  0
  2  1  1  0
  3  2  2  0
  4  3  1  0
  5 11  1  0
  5  4  2  0
  6  5  1  0
  7  6  1  0
  7  8  1  6
  9  7  1  0
  9 10  2  0
 11 12  2  0
 12  2  1  0
 14 13  1  0
 15 16  1  0
 15 14  1  1
 16  9  1  0
 17 15  1  0
 18 17  2  0
 20 19  1  0
 21 20  2  0
 22 20  1  0
 24 23  1  6
 23 22  1  0
 24 25  1  0
 25 17  1  0
 26 24  1  0
 26 27  1  0
 28 26  2  0
M  END
$$$$
