YSQ.pdb
     RDKit          3D

 28 28  0  0  1  0  0  0  0  0999 V2000
   15.6125  -17.5806  -21.7956 O   0  0  0  0  0  0  0  0  0  0  0  0
   16.4862  -16.6824  -21.1598 C   0  0  0  0  0  0  0  0  0  0  0  0
   17.3870  -15.9619  -21.8977 C   0  0  0  0  0  0  0  0  0  0  0  0
   18.2481  -15.0738  -21.2520 C   0  0  0  0  0  0  0  0  0  0  0  0
   18.2189  -14.8987  -19.8817 C   0  0  0  0  0  0  0  0  0  0  0  0
   19.1110  -13.9729  -19.1759 C   0  0  0  0  0  0  0  0  0  0  0  0
   20.5597  -14.4386  -19.1891 C   0  0  2  0  0  0  0  0  0  0  0  0
   20.7232  -15.7059  -18.5328 N   0  0  0  0  0  0  0  0  0  0  0  0
   21.3511  -13.4125  -18.4942 C   0  0  0  0  0  0  0  0  0  0  0  0
   21.5785  -13.5083  -17.2780 O   0  0  0  0  0  0  0  0  0  0  0  0
   17.3009  -15.6382  -19.1649 C   0  0  0  0  0  0  0  0  0  0  0  0
   16.4316  -16.5311  -19.7918 C   0  0  0  0  0  0  0  0  0  0  0  0
   23.2623  -10.2827  -20.6322 O   0  0  0  0  0  0  0  0  0  0  0  0
   23.7611  -10.8061  -19.4320 C   0  0  0  0  0  0  0  0  0  0  0  0
   22.6187  -11.3039  -18.5689 C   0  0  2  0  0  0  0  0  0  0  0  0
   21.8511  -12.3159  -19.2227 N   0  0  0  0  0  0  0  0  0  0  0  0
   21.7653  -10.1513  -18.1654 C   0  0  0  0  0  0  0  0  0  0  0  0
   20.7127   -9.8541  -18.7941 O   0  0  0  0  0  0  0  0  0  0  0  0
   20.8372   -8.9990  -12.4264 N   0  0  0  0  0  0  0  0  0  0  0  0
   20.2044   -7.8347  -12.9242 C   0  0  0  0  0  0  0  0  0  0  0  0
   19.5322   -7.1061  -12.1518 O   0  0  0  0  0  0  0  0  0  0  0  0
   20.3418   -7.4800  -14.3386 C   0  0  0  0  0  0  0  0  0  0  0  0
   21.0900   -8.5050  -15.1066 C   0  0  0  0  0  0  0  0  0  0  0  0
   21.3527   -8.2292  -16.5477 C   0  0  2  0  0  0  0  0  0  0  0  0
   22.1403   -9.3712  -17.0542 N   0  0  0  0  0  0  0  0  0  0  0  0
   21.9032   -6.9669  -16.9530 C   0  0  0  0  0  0  0  0  0  0  0  0
   21.0337   -5.8610  -17.0491 O   0  0  0  0  0  0  0  0  0  0  0  0
   23.0969   -6.7281  -17.2384 O   0  0  0  0  0  0  0  0  0  0  0  0
  2  1  1  0
  3  2  2  0
  4  3  1  0
  5 11  1  0
  5  4  2  0
  6  5  1  0
  7  6  1  0
  7  8  1  1
  9  7  1  0
  9 10  2  0
 11 12  2  0
 12  2  1  0
 14 13  1  0
 15 16  1  0
 15 14  1  6
 16  9  1  0
 17 15  1  0
 18 17  2  0
 20 19  1  0
 21 20  2  0
 22 20  1  0
 24 23  1  1
 23 22  1  0
 24 25  1  0
 25 17  1  0
 26 24  1  0
 26 27  1  0
 28 26  2  0
M  END
$$$$
