YSQ.pdb
     RDKit          3D

 28 28  0  0  1  0  0  0  0  0999 V2000
   27.1574  -14.5985  -17.7060 O   0  0  0  0  0  0  0  0  0  0  0  0
   26.2091  -13.5735  -17.5492 C   0  0  0  0  0  0  0  0  0  0  0  0
   25.5066  -13.1163  -18.6320 C   0  0  0  0  0  0  0  0  0  0  0  0
   24.5682  -12.0980  -18.4605 C   0  0  0  0  0  0  0  0  0  0  0  0
   24.3250  -11.5336  -17.2229 C   0  0  0  0  0  0  0  0  0  0  0  0
   23.3453  -10.4628  -17.0123 C   0  0  0  0  0  0  0  0  0  0  0  0
   22.0268  -10.9826  -16.4577 C   0  0  2  0  0  0  0  0  0  0  0  0
   21.4428  -11.9825  -17.3076 N   0  0  0  0  0  0  0  0  0  0  0  0
   21.1190   -9.8312  -16.3473 C   0  0  0  0  0  0  0  0  0  0  0  0
   20.3705   -9.5263  -17.2889 O   0  0  0  0  0  0  0  0  0  0  0  0
   25.0479  -12.0147  -16.1508 C   0  0  0  0  0  0  0  0  0  0  0  0
   25.9903  -13.0320  -16.3017 C   0  0  0  0  0  0  0  0  0  0  0  0
   20.6237   -7.9710  -12.6430 O   0  0  0  0  0  0  0  0  0  0  0  0
   19.5867   -7.9860  -13.5851 C   0  0  0  0  0  0  0  0  0  0  0  0
   20.1607   -8.0169  -14.9878 C   0  0  2  0  0  0  0  0  0  0  0  0
   21.1057   -9.0744  -15.1598 N   0  0  0  0  0  0  0  0  0  0  0  0
   20.7650   -6.6923  -15.3039 C   0  0  0  0  0  0  0  0  0  0  0  0
   22.0036   -6.4840  -15.1856 O   0  0  0  0  0  0  0  0  0  0  0  0
   21.2324   -1.6952  -20.2756 N   0  0  0  0  0  0  0  0  0  0  0  0
   20.8274   -2.8504  -19.5647 C   0  0  0  0  0  0  0  0  0  0  0  0
   20.4141   -3.8596  -20.1891 O   0  0  0  0  0  0  0  0  0  0  0  0
   20.8985   -2.8667  -18.1018 C   0  0  0  0  0  0  0  0  0  0  0  0
   20.4187   -4.1479  -17.5285 C   0  0  0  0  0  0  0  0  0  0  0  0
   20.4204   -4.2809  -16.0438 C   0  0  2  0  0  0  0  0  0  0  0  0
   19.9353   -5.6437  -15.7465 N   0  0  0  0  0  0  0  0  0  0  0  0
   19.7815   -3.2867  -15.2288 C   0  0  0  0  0  0  0  0  0  0  0  0
   20.4571   -2.0679  -15.0127 O   0  0  0  0  0  0  0  0  0  0  0  0
   18.6652   -3.3788  -14.6733 O   0  0  0  0  0  0  0  0  0  0  0  0
  2  1  1  0
  3  2  2  0
  4  3  1  0
  5 11  1  0
  5  4  2  0
  6  5  1  0
  7  6  1  0
  7  8  1  6
  9  7  1  0
  9 10  2  0
 11 12  2  0
 12  2  1  0
 14 13  1  0
 15 16  1  0
 15 14  1  1
 16  9  1  0
 17 15  1  0
 18 17  2  0
 20 19  1  0
 21 20  2  0
 22 20  1  0
 24 23  1  6
 23 22  1  0
 24 25  1  0
 25 17  1  0
 26 24  1  0
 26 27  1  0
 28 26  2  0
M  END
$$$$
