YSQ.pdb
     RDKit          3D

 28 28  0  0  1  0  0  0  0  0999 V2000
   28.8428  -19.7995   -3.9784 O   0  0  0  0  0  0  0  0  0  0  0  0
   28.1567  -19.8121   -5.2046 C   0  0  0  0  0  0  0  0  0  0  0  0
   27.2728  -20.8191   -5.4867 C   0  0  0  0  0  0  0  0  0  0  0  0
   26.5990  -20.8179   -6.7086 C   0  0  0  0  0  0  0  0  0  0  0  0
   26.7982  -19.8247   -7.6484 C   0  0  0  0  0  0  0  0  0  0  0  0
   26.1046  -19.7970   -8.9402 C   0  0  0  0  0  0  0  0  0  0  0  0
   26.6411  -20.8397   -9.9102 C   0  0  2  0  0  0  0  0  0  0  0  0
   28.0588  -20.7140  -10.1047 N   0  0  0  0  0  0  0  0  0  0  0  0
   25.9437  -20.6413  -11.1893 C   0  0  0  0  0  0  0  0  0  0  0  0
   26.1950  -19.6539  -11.8976 O   0  0  0  0  0  0  0  0  0  0  0  0
   27.6946  -18.8235   -7.3360 C   0  0  0  0  0  0  0  0  0  0  0  0
   28.3780  -18.8069   -6.1200 C   0  0  0  0  0  0  0  0  0  0  0  0
   25.6531  -23.3655  -13.7241 O   0  0  0  0  0  0  0  0  0  0  0  0
   25.3320  -22.0266  -13.9840 C   0  0  0  0  0  0  0  0  0  0  0  0
   24.4041  -21.4976  -12.9083 C   0  0  2  0  0  0  0  0  0  0  0  0
   24.9846  -21.5846  -11.6059 N   0  0  0  0  0  0  0  0  0  0  0  0
   23.1059  -22.2255  -12.9736 C   0  0  0  0  0  0  0  0  0  0  0  0
   22.7921  -23.0985  -12.1186 O   0  0  0  0  0  0  0  0  0  0  0  0
   17.9468  -21.7692  -11.1872 N   0  0  0  0  0  0  0  0  0  0  0  0
   18.2614  -20.5850  -11.8962 C   0  0  0  0  0  0  0  0  0  0  0  0
   17.5493  -19.5594  -11.7537 O   0  0  0  0  0  0  0  0  0  0  0  0
   19.4218  -20.5584  -12.7895 C   0  0  0  0  0  0  0  0  0  0  0  0
   20.2088  -21.8143  -12.7289 C   0  0  0  0  0  0  0  0  0  0  0  0
   20.7807  -22.3302  -14.0051 C   0  0  2  0  0  0  0  0  0  0  0  0
   22.2034  -21.9341  -14.0149 N   0  0  0  0  0  0  0  0  0  0  0  0
   20.1299  -22.0504  -15.2537 C   0  0  0  0  0  0  0  0  0  0  0  0
   20.7592  -21.1600  -16.1479 O   0  0  0  0  0  0  0  0  0  0  0  0
   19.0402  -22.5174  -15.6507 O   0  0  0  0  0  0  0  0  0  0  0  0
  2  1  1  0
  3  2  2  0
  4  3  1  0
  5 11  1  0
  5  4  2  0
  6  5  1  0
  7  6  1  0
  7  8  1  6
  9  7  1  0
  9 10  2  0
 11 12  2  0
 12  2  1  0
 14 13  1  0
 15 16  1  0
 15 14  1  6
 16  9  1  0
 17 15  1  0
 18 17  2  0
 20 19  1  0
 21 20  2  0
 22 20  1  0
 24 23  1  1
 23 22  1  0
 24 25  1  0
 25 17  1  0
 26 24  1  0
 26 27  1  0
 28 26  2  0
M  END
$$$$
