YSQ.pdb
     RDKit          3D

 28 28  0  0  1  0  0  0  0  0999 V2000
   21.0608  -30.4497  -11.9255 O   0  0  0  0  0  0  0  0  0  0  0  0
   20.6748  -29.1235  -12.1841 C   0  0  0  0  0  0  0  0  0  0  0  0
   19.3740  -28.7383  -11.9988 C   0  0  0  0  0  0  0  0  0  0  0  0
   19.0059  -27.4180  -12.2598 C   0  0  0  0  0  0  0  0  0  0  0  0
   19.9205  -26.4816  -12.7025 C   0  0  0  0  0  0  0  0  0  0  0  0
   19.5631  -25.0875  -12.9847 C   0  0  0  0  0  0  0  0  0  0  0  0
   19.9489  -24.1480  -11.8513 C   0  0  2  0  0  0  0  0  0  0  0  0
   19.1797  -24.3942  -10.6634 N   0  0  0  0  0  0  0  0  0  0  0  0
   19.7090  -22.7767  -12.3244 C   0  0  0  0  0  0  0  0  0  0  0  0
   18.5698  -22.2863  -12.2840 O   0  0  0  0  0  0  0  0  0  0  0  0
   21.2235  -26.8990  -12.8799 C   0  0  0  0  0  0  0  0  0  0  0  0
   21.6112  -28.2144  -12.6244 C   0  0  0  0  0  0  0  0  0  0  0  0
   22.7153  -20.8673  -14.3980 O   0  0  0  0  0  0  0  0  0  0  0  0
   21.8639  -20.0065  -13.6927 C   0  0  0  0  0  0  0  0  0  0  0  0
   20.5656  -20.7163  -13.3634 C   0  0  2  0  0  0  0  0  0  0  0  0
   20.7866  -22.0212  -12.8256 N   0  0  0  0  0  0  0  0  0  0  0  0
   19.7084  -20.7690  -14.5808 C   0  0  0  0  0  0  0  0  0  0  0  0
   19.5169  -21.8456  -15.2101 O   0  0  0  0  0  0  0  0  0  0  0  0
   15.7639  -22.7903  -15.3856 N   0  0  0  0  0  0  0  0  0  0  0  0
   15.3669  -21.5545  -14.8206 C   0  0  0  0  0  0  0  0  0  0  0  0
   14.3834  -21.5078  -14.0397 O   0  0  0  0  0  0  0  0  0  0  0  0
   16.1098  -20.3344  -15.1442 C   0  0  0  0  0  0  0  0  0  0  0  0
   17.2143  -20.5844  -16.1021 C   0  0  0  0  0  0  0  0  0  0  0  0
   18.2486  -19.5215  -16.2524 C   0  0  2  0  0  0  0  0  0  0  0  0
   19.0946  -19.5889  -15.0437 N   0  0  0  0  0  0  0  0  0  0  0  0
   17.8612  -18.1763  -16.5704 C   0  0  0  0  0  0  0  0  0  0  0  0
   17.0840  -17.9629  -17.7274 O   0  0  0  0  0  0  0  0  0  0  0  0
   18.1408  -17.1441  -15.9226 O   0  0  0  0  0  0  0  0  0  0  0  0
  2  1  1  0
  3  2  2  0
  4  3  1  0
  5 11  1  0
  5  4  2  0
  6  5  1  0
  7  6  1  0
  7  8  1  1
  9  7  1  0
  9 10  2  0
 11 12  2  0
 12  2  1  0
 14 13  1  0
 15 16  1  0
 15 14  1  6
 16  9  1  0
 17 15  1  0
 18 17  2  0
 20 19  1  0
 21 20  2  0
 22 20  1  0
 24 23  1  1
 23 22  1  0
 24 25  1  0
 25 17  1  0
 26 24  1  0
 26 27  1  0
 28 26  2  0
M  END
$$$$
