YSQ.pdb
     RDKit          3D

 28 28  0  0  1  0  0  0  0  0999 V2000
   25.7799  -18.1276  -20.5661 O   0  0  0  0  0  0  0  0  0  0  0  0
   25.4883  -16.9645  -19.8335 C   0  0  0  0  0  0  0  0  0  0  0  0
   24.8546  -17.0561  -18.6232 C   0  0  0  0  0  0  0  0  0  0  0  0
   24.5717  -15.8922  -17.9074 C   0  0  0  0  0  0  0  0  0  0  0  0
   24.9141  -14.6421  -18.3864 C   0  0  0  0  0  0  0  0  0  0  0  0
   24.6300  -13.4021  -17.6567 C   0  0  0  0  0  0  0  0  0  0  0  0
   25.8699  -12.8227  -16.9911 C   0  0  2  0  0  0  0  0  0  0  0  0
   26.4743  -13.7525  -16.0781 N   0  0  0  0  0  0  0  0  0  0  0  0
   25.4482  -11.6154  -16.2655 C   0  0  0  0  0  0  0  0  0  0  0  0
   25.1979  -11.6651  -15.0511 O   0  0  0  0  0  0  0  0  0  0  0  0
   25.5515  -14.5815  -19.6084 C   0  0  0  0  0  0  0  0  0  0  0  0
   25.8430  -15.7334  -20.3392 C   0  0  0  0  0  0  0  0  0  0  0  0
   26.6186   -7.9603  -17.5022 O   0  0  0  0  0  0  0  0  0  0  0  0
   26.1461   -8.2205  -16.2090 C   0  0  0  0  0  0  0  0  0  0  0  0
   24.9882   -9.1973  -16.2668 C   0  0  2  0  0  0  0  0  0  0  0  0
   25.3302  -10.3974  -16.9624 N   0  0  0  0  0  0  0  0  0  0  0  0
   23.8084   -8.5294  -16.8845 C   0  0  0  0  0  0  0  0  0  0  0  0
   23.5401   -8.6593  -18.1103 O   0  0  0  0  0  0  0  0  0  0  0  0
   19.5162   -9.9208  -18.7245 N   0  0  0  0  0  0  0  0  0  0  0  0
   19.1739   -9.7532  -17.3613 C   0  0  0  0  0  0  0  0  0  0  0  0
   18.2210  -10.4073  -16.8678 O   0  0  0  0  0  0  0  0  0  0  0  0
   19.9375   -8.8212  -16.5285 C   0  0  0  0  0  0  0  0  0  0  0  0
   20.9614   -8.0805  -17.3051 C   0  0  0  0  0  0  0  0  0  0  0  0
   21.7594   -7.0488  -16.5834 C   0  0  2  0  0  0  0  0  0  0  0  0
   22.9690   -7.7321  -16.0823 N   0  0  0  0  0  0  0  0  0  0  0  0
   21.1419   -6.2304  -15.5786 C   0  0  0  0  0  0  0  0  0  0  0  0
   21.6680   -6.2705  -14.2709 O   0  0  0  0  0  0  0  0  0  0  0  0
   20.1651   -5.4653  -15.7329 O   0  0  0  0  0  0  0  0  0  0  0  0
  2  1  1  0
  3  2  2  0
  4  3  1  0
  5 11  1  0
  5  4  2  0
  6  5  1  0
  7  6  1  0
  7  8  1  1
  9  7  1  0
  9 10  2  0
 11 12  2  0
 12  2  1  0
 14 13  1  0
 15 16  1  0
 15 14  1  6
 16  9  1  0
 17 15  1  0
 18 17  2  0
 20 19  1  0
 21 20  2  0
 22 20  1  0
 24 23  1  1
 23 22  1  0
 24 25  1  0
 25 17  1  0
 26 24  1  0
 26 27  1  0
 28 26  2  0
M  END
$$$$
