YSQ.pdb
     RDKit          3D

 28 28  0  0  1  0  0  0  0  0999 V2000
   28.5676  -19.9921   -5.8926 O   0  0  0  0  0  0  0  0  0  0  0  0
   27.9626  -20.0252   -7.1604 C   0  0  0  0  0  0  0  0  0  0  0  0
   26.6006  -19.9415   -7.2737 C   0  0  0  0  0  0  0  0  0  0  0  0
   26.0144  -19.9758   -8.5395 C   0  0  0  0  0  0  0  0  0  0  0  0
   26.7719  -20.0924   -9.6892 C   0  0  0  0  0  0  0  0  0  0  0  0
   26.1840  -20.1308  -11.0323 C   0  0  0  0  0  0  0  0  0  0  0  0
   25.7228  -21.5269  -11.4249 C   0  0  2  0  0  0  0  0  0  0  0  0
   26.8090  -22.3384  -11.8995 N   0  0  0  0  0  0  0  0  0  0  0  0
   24.7185  -21.3689  -12.4871 C   0  0  0  0  0  0  0  0  0  0  0  0
   25.0670  -21.1244  -13.6527 O   0  0  0  0  0  0  0  0  0  0  0  0
   28.1413  -20.1748   -9.5435 C   0  0  0  0  0  0  0  0  0  0  0  0
   28.7463  -20.1423   -8.2870 C   0  0  0  0  0  0  0  0  0  0  0  0
   20.5897  -21.0916  -11.6015 O   0  0  0  0  0  0  0  0  0  0  0  0
   20.9951  -21.8306  -12.7208 C   0  0  0  0  0  0  0  0  0  0  0  0
   22.3587  -21.3599  -13.1868 C   0  0  2  0  0  0  0  0  0  0  0  0
   23.3525  -21.4977  -12.1699 N   0  0  0  0  0  0  0  0  0  0  0  0
   22.2597  -19.9512  -13.6615 C   0  0  0  0  0  0  0  0  0  0  0  0
   22.2976  -18.9777  -12.8599 O   0  0  0  0  0  0  0  0  0  0  0  0
   25.5251  -17.6747  -17.9039 N   0  0  0  0  0  0  0  0  0  0  0  0
   24.5483  -18.5127  -18.4934 C   0  0  0  0  0  0  0  0  0  0  0  0
   24.7491  -19.0079  -19.6308 O   0  0  0  0  0  0  0  0  0  0  0  0
   23.3084  -18.8050  -17.7707 C   0  0  0  0  0  0  0  0  0  0  0  0
   23.2655  -18.1538  -16.4386 C   0  0  0  0  0  0  0  0  0  0  0  0
   22.0336  -18.3410  -15.6205 C   0  0  2  0  0  0  0  0  0  0  0  0
   22.1203  -19.6960  -15.0397 N   0  0  0  0  0  0  0  0  0  0  0  0
   20.7422  -18.0745  -16.1879 C   0  0  0  0  0  0  0  0  0  0  0  0
   19.8669  -19.1612  -16.3912 O   0  0  0  0  0  0  0  0  0  0  0  0
   20.2915  -16.9602  -16.5321 O   0  0  0  0  0  0  0  0  0  0  0  0
  2  1  1  0
  3  2  2  0
  4  3  1  0
  5 11  1  0
  5  4  2  0
  6  5  1  0
  7  6  1  0
  7  8  1  6
  9  7  1  0
  9 10  2  0
 11 12  2  0
 12  2  1  0
 14 13  1  0
 15 16  1  0
 15 14  1  1
 16  9  1  0
 17 15  1  0
 18 17  2  0
 20 19  1  0
 21 20  2  0
 22 20  1  0
 24 23  1  6
 23 22  1  0
 24 25  1  0
 25 17  1  0
 26 24  1  0
 26 27  1  0
 28 26  2  0
M  END
$$$$
