YSQ.pdb
     RDKit          3D

 28 28  0  0  1  0  0  0  0  0999 V2000
   12.5230  -16.2082    4.3182 O   0  0  0  0  0  0  0  0  0  0  0  0
   13.8047  -15.7497    4.6669 C   0  0  0  0  0  0  0  0  0  0  0  0
   13.9481  -14.7452    5.5863 C   0  0  0  0  0  0  0  0  0  0  0  0
   15.2273  -14.3005    5.9223 C   0  0  0  0  0  0  0  0  0  0  0  0
   16.3608  -14.8470    5.3514 C   0  0  0  0  0  0  0  0  0  0  0  0
   17.7174  -14.4005    5.6850 C   0  0  0  0  0  0  0  0  0  0  0  0
   17.9598  -12.9464    5.3070 C   0  0  2  0  0  0  0  0  0  0  0  0
   17.8619  -12.7358    3.8895 N   0  0  0  0  0  0  0  0  0  0  0  0
   19.3112  -12.5978    5.7699 C   0  0  0  0  0  0  0  0  0  0  0  0
   20.3013  -12.8367    5.0611 O   0  0  0  0  0  0  0  0  0  0  0  0
   16.1849  -15.8573    4.4286 C   0  0  0  0  0  0  0  0  0  0  0  0
   14.9145  -16.3157    4.0794 C   0  0  0  0  0  0  0  0  0  0  0  0
   21.4241   -9.8789    7.6446 O   0  0  0  0  0  0  0  0  0  0  0  0
   21.0651  -10.9021    8.5319 C   0  0  0  0  0  0  0  0  0  0  0  0
   20.6905  -12.1512    7.7589 C   0  0  2  0  0  0  0  0  0  0  0  0
   19.4735  -11.9881    7.0289 N   0  0  0  0  0  0  0  0  0  0  0  0
   20.6108  -13.3069    8.6957 C   0  0  0  0  0  0  0  0  0  0  0  0
   19.5570  -13.9899    8.8170 O   0  0  0  0  0  0  0  0  0  0  0  0
   21.3441  -17.7958    7.0382 N   0  0  0  0  0  0  0  0  0  0  0  0
   21.6481  -18.3215    8.3168 C   0  0  0  0  0  0  0  0  0  0  0  0
   21.7629  -19.5630    8.4746 O   0  0  0  0  0  0  0  0  0  0  0  0
   21.8347  -17.4140    9.4512 C   0  0  0  0  0  0  0  0  0  0  0  0
   21.6832  -15.9900    9.0645 C   0  0  0  0  0  0  0  0  0  0  0  0
   21.9234  -14.9619   10.1168 C   0  0  2  0  0  0  0  0  0  0  0  0
   21.7387  -13.6486    9.4669 N   0  0  0  0  0  0  0  0  0  0  0  0
   23.1153  -15.0103   10.9154 C   0  0  0  0  0  0  0  0  0  0  0  0
   23.1220  -15.8446   12.0522 O   0  0  0  0  0  0  0  0  0  0  0  0
   24.1770  -14.3813   10.7141 O   0  0  0  0  0  0  0  0  0  0  0  0
  2  1  1  0
  3  2  2  0
  4  3  1  0
  5 11  1  0
  5  4  2  0
  6  5  1  0
  7  6  1  0
  7  8  1  6
  9  7  1  0
  9 10  2  0
 11 12  2  0
 12  2  1  0
 14 13  1  0
 15 16  1  0
 15 14  1  1
 16  9  1  0
 17 15  1  0
 18 17  2  0
 20 19  1  0
 21 20  2  0
 22 20  1  0
 24 23  1  6
 23 22  1  0
 24 25  1  0
 25 17  1  0
 26 24  1  0
 26 27  1  0
 28 26  2  0
M  END
$$$$
