YSQ.pdb
     RDKit          3D

 28 28  0  0  1  0  0  0  0  0999 V2000
   24.0036  -18.6571  -15.9493 O   0  0  0  0  0  0  0  0  0  0  0  0
   23.9459  -17.2611  -16.0982 C   0  0  0  0  0  0  0  0  0  0  0  0
   24.3394  -16.4442  -15.0722 C   0  0  0  0  0  0  0  0  0  0  0  0
   24.2764  -15.0597  -15.2351 C   0  0  0  0  0  0  0  0  0  0  0  0
   23.8261  -14.4849  -16.4081 C   0  0  0  0  0  0  0  0  0  0  0  0
   23.7491  -13.0341  -16.6081 C   0  0  0  0  0  0  0  0  0  0  0  0
   24.7473  -12.5366  -17.6436 C   0  0  2  0  0  0  0  0  0  0  0  0
   26.1047  -12.6945  -17.2010 N   0  0  0  0  0  0  0  0  0  0  0  0
   24.4609  -11.1127  -17.8726 C   0  0  0  0  0  0  0  0  0  0  0  0
   25.0383  -10.2388  -17.2073 O   0  0  0  0  0  0  0  0  0  0  0  0
   23.4366  -15.3333  -17.4240 C   0  0  0  0  0  0  0  0  0  0  0  0
   23.4920  -16.7197  -17.2806 C   0  0  0  0  0  0  0  0  0  0  0  0
   22.8115   -7.7426  -20.8137 O   0  0  0  0  0  0  0  0  0  0  0  0
   22.9137   -9.1195  -20.5750 C   0  0  0  0  0  0  0  0  0  0  0  0
   23.2486   -9.3697  -19.1178 C   0  0  2  0  0  0  0  0  0  0  0  0
   23.5225  -10.7473  -18.8570 N   0  0  0  0  0  0  0  0  0  0  0  0
   22.1384   -8.8655  -18.2618 C   0  0  0  0  0  0  0  0  0  0  0  0
   21.1943   -9.6159  -17.8912 O   0  0  0  0  0  0  0  0  0  0  0  0
   21.5719   -9.2099  -13.3868 N   0  0  0  0  0  0  0  0  0  0  0  0
   20.6566   -8.1318  -13.3250 C   0  0  0  0  0  0  0  0  0  0  0  0
   20.0421   -7.8899  -12.2559 O   0  0  0  0  0  0  0  0  0  0  0  0
   20.4343   -7.2973  -14.5080 C   0  0  0  0  0  0  0  0  0  0  0  0
   21.2042   -7.7705  -15.6843 C   0  0  0  0  0  0  0  0  0  0  0  0
   21.1514   -6.9396  -16.9208 C   0  0  2  0  0  0  0  0  0  0  0  0
   22.1395   -7.5174  -17.8541 N   0  0  0  0  0  0  0  0  0  0  0  0
   21.2551   -5.5104  -16.8357 C   0  0  0  0  0  0  0  0  0  0  0  0
   22.5305   -4.9255  -16.9762 O   0  0  0  0  0  0  0  0  0  0  0  0
   20.3201   -4.7022  -16.6463 O   0  0  0  0  0  0  0  0  0  0  0  0
  2  1  1  0
  3  2  2  0
  4  3  1  0
  5 11  1  0
  5  4  2  0
  6  5  1  0
  7  6  1  0
  7  8  1  1
  9  7  1  0
  9 10  2  0
 11 12  2  0
 12  2  1  0
 14 13  1  0
 15 16  1  0
 15 14  1  6
 16  9  1  0
 17 15  1  0
 18 17  2  0
 20 19  1  0
 21 20  2  0
 22 20  1  0
 24 23  1  1
 23 22  1  0
 24 25  1  0
 25 17  1  0
 26 24  1  0
 26 27  1  0
 28 26  2  0
M  END
$$$$
