YSQ.pdb
     RDKit          3D

 28 28  0  0  1  0  0  0  0  0999 V2000
   30.9563   -9.8077  -18.4292 O   0  0  0  0  0  0  0  0  0  0  0  0
   29.6417   -9.4964  -18.0426 C   0  0  0  0  0  0  0  0  0  0  0  0
   28.8843   -8.6481  -18.8052 C   0  0  0  0  0  0  0  0  0  0  0  0
   27.5805   -8.3484  -18.4083 C   0  0  0  0  0  0  0  0  0  0  0  0
   27.0275   -8.8854  -17.2615 C   0  0  0  0  0  0  0  0  0  0  0  0
   25.6608   -8.5890  -16.8197 C   0  0  0  0  0  0  0  0  0  0  0  0
   24.7136   -9.7604  -17.0356 C   0  0  2  0  0  0  0  0  0  0  0  0
   24.7286  -10.2203  -18.3964 N   0  0  0  0  0  0  0  0  0  0  0  0
   23.3637   -9.2972  -16.6817 C   0  0  0  0  0  0  0  0  0  0  0  0
   22.6056   -8.8410  -17.5518 O   0  0  0  0  0  0  0  0  0  0  0  0
   27.8146   -9.7366  -16.5137 C   0  0  0  0  0  0  0  0  0  0  0  0
   29.1201  -10.0486  -16.8936 C   0  0  0  0  0  0  0  0  0  0  0  0
   20.9334  -10.6265  -13.4059 O   0  0  0  0  0  0  0  0  0  0  0  0
   21.2978   -9.2793  -13.5318 C   0  0  0  0  0  0  0  0  0  0  0  0
   21.6182   -8.9619  -14.9790 C   0  0  2  0  0  0  0  0  0  0  0  0
   22.9364   -9.3759  -15.3422 N   0  0  0  0  0  0  0  0  0  0  0  0
   21.4209   -7.5051  -15.2209 C   0  0  0  0  0  0  0  0  0  0  0  0
   22.3644   -6.7649  -15.6128 O   0  0  0  0  0  0  0  0  0  0  0  0
   21.1796   -5.4035  -19.4647 N   0  0  0  0  0  0  0  0  0  0  0  0
   20.4135   -4.2974  -19.0247 C   0  0  0  0  0  0  0  0  0  0  0  0
   20.1872   -3.3393  -19.8058 O   0  0  0  0  0  0  0  0  0  0  0  0
   19.8813   -4.2776  -17.6603 C   0  0  0  0  0  0  0  0  0  0  0  0
   20.2355   -5.5006  -16.8993 C   0  0  0  0  0  0  0  0  0  0  0  0
   19.7567   -5.5975  -15.4909 C   0  0  2  0  0  0  0  0  0  0  0  0
   20.1500   -6.9365  -15.0079 N   0  0  0  0  0  0  0  0  0  0  0  0
   18.3941   -5.2817  -15.1678 C   0  0  0  0  0  0  0  0  0  0  0  0
   18.0983   -3.9725  -14.7357 O   0  0  0  0  0  0  0  0  0  0  0  0
   17.4127   -6.0541  -15.2269 O   0  0  0  0  0  0  0  0  0  0  0  0
  2  1  1  0
  3  2  2  0
  4  3  1  0
  5 11  1  0
  5  4  2  0
  6  5  1  0
  7  6  1  0
  7  8  1  6
  9  7  1  0
  9 10  2  0
 11 12  2  0
 12  2  1  0
 14 13  1  0
 15 16  1  0
 15 14  1  1
 16  9  1  0
 17 15  1  0
 18 17  2  0
 20 19  1  0
 21 20  2  0
 22 20  1  0
 24 23  1  6
 23 22  1  0
 24 25  1  0
 25 17  1  0
 26 24  1  0
 26 27  1  0
 28 26  2  0
M  END
$$$$
