YSQ.pdb
     RDKit          3D

 28 28  0  0  1  0  0  0  0  0999 V2000
   23.5037  -18.1049  -19.3650 O   0  0  0  0  0  0  0  0  0  0  0  0
   23.1277  -16.7624  -19.1895 C   0  0  0  0  0  0  0  0  0  0  0  0
   23.4075  -15.8383  -20.1604 C   0  0  0  0  0  0  0  0  0  0  0  0
   23.0278  -14.5089  -19.9716 C   0  0  0  0  0  0  0  0  0  0  0  0
   22.3738  -14.0945  -18.8271 C   0  0  0  0  0  0  0  0  0  0  0  0
   21.9624  -12.7050  -18.6013 C   0  0  0  0  0  0  0  0  0  0  0  0
   20.4757  -12.4921  -18.8465 C   0  0  2  0  0  0  0  0  0  0  0  0
   20.0968  -12.8394  -20.1879 N   0  0  0  0  0  0  0  0  0  0  0  0
   20.1956  -11.0694  -18.6027 C   0  0  0  0  0  0  0  0  0  0  0  0
   20.4462  -10.2198  -19.4718 O   0  0  0  0  0  0  0  0  0  0  0  0
   22.1055  -15.0480  -17.8668 C   0  0  0  0  0  0  0  0  0  0  0  0
   22.4769  -16.3818  -18.0367 C   0  0  0  0  0  0  0  0  0  0  0  0
   17.6630   -9.8787  -15.5088 O   0  0  0  0  0  0  0  0  0  0  0  0
   17.9020   -9.1123  -16.6572 C   0  0  0  0  0  0  0  0  0  0  0  0
   19.3328   -9.3042  -17.1201 C   0  0  2  0  0  0  0  0  0  0  0  0
   19.6383  -10.6771  -17.3704 N   0  0  0  0  0  0  0  0  0  0  0  0
   20.2609   -8.7164  -16.1139 C   0  0  0  0  0  0  0  0  0  0  0  0
   20.9102   -9.4395  -15.3094 O   0  0  0  0  0  0  0  0  0  0  0  0
   22.6267   -3.1589  -17.1180 N   0  0  0  0  0  0  0  0  0  0  0  0
   23.0326   -3.2849  -15.7677 C   0  0  0  0  0  0  0  0  0  0  0  0
   23.7106   -2.3749  -15.2279 O   0  0  0  0  0  0  0  0  0  0  0  0
   22.6539   -4.4748  -15.0021 C   0  0  0  0  0  0  0  0  0  0  0  0
   21.7704   -5.3834  -15.7729 C   0  0  0  0  0  0  0  0  0  0  0  0
   21.3092   -6.6303  -15.0987 C   0  0  2  0  0  0  0  0  0  0  0  0
   20.4202   -7.3181  -16.0566 N   0  0  0  0  0  0  0  0  0  0  0  0
   20.7460   -6.5723  -13.7795 C   0  0  0  0  0  0  0  0  0  0  0  0
   21.6180   -6.6865  -12.6773 O   0  0  0  0  0  0  0  0  0  0  0  0
   19.5390   -6.4282  -13.4869 O   0  0  0  0  0  0  0  0  0  0  0  0
  2  1  1  0
  3  2  2  0
  4  3  1  0
  5 11  1  0
  5  4  2  0
  6  5  1  0
  7  6  1  0
  7  8  1  6
  9  7  1  0
  9 10  2  0
 11 12  2  0
 12  2  1  0
 14 13  1  0
 15 16  1  0
 15 14  1  1
 16  9  1  0
 17 15  1  0
 18 17  2  0
 20 19  1  0
 21 20  2  0
 22 20  1  0
 24 23  1  6
 23 22  1  0
 24 25  1  0
 25 17  1  0
 26 24  1  0
 26 27  1  0
 28 26  2  0
M  END
$$$$
