YSQ.pdb
     RDKit          3D

 28 28  0  0  1  0  0  0  0  0999 V2000
   13.9176  -27.3454   -2.9430 O   0  0  0  0  0  0  0  0  0  0  0  0
   14.5941  -26.7345   -4.0124 C   0  0  0  0  0  0  0  0  0  0  0  0
   14.6787  -27.3682   -5.2232 C   0  0  0  0  0  0  0  0  0  0  0  0
   15.3538  -26.7489   -6.2757 C   0  0  0  0  0  0  0  0  0  0  0  0
   15.9432  -25.5075   -6.1317 C   0  0  0  0  0  0  0  0  0  0  0  0
   16.6587  -24.8323   -7.2194 C   0  0  0  0  0  0  0  0  0  0  0  0
   18.0560  -25.3959   -7.4334 C   0  0  2  0  0  0  0  0  0  0  0  0
   18.9444  -25.0538   -6.3576 N   0  0  0  0  0  0  0  0  0  0  0  0
   18.5618  -24.8336   -8.6944 C   0  0  0  0  0  0  0  0  0  0  0  0
   19.1068  -23.7189   -8.7136 O   0  0  0  0  0  0  0  0  0  0  0  0
   15.8415  -24.8936   -4.9004 C   0  0  0  0  0  0  0  0  0  0  0  0
   15.1709  -25.4962   -3.8360 C   0  0  0  0  0  0  0  0  0  0  0  0
   18.0225  -26.9884  -12.1959 O   0  0  0  0  0  0  0  0  0  0  0  0
   19.1650  -26.1797  -12.1324 C   0  0  0  0  0  0  0  0  0  0  0  0
   18.9645  -25.0783  -11.1102 C   0  0  2  0  0  0  0  0  0  0  0  0
   18.4222  -25.5730   -9.8847 N   0  0  0  0  0  0  0  0  0  0  0  0
   18.1024  -24.0128  -11.6942 C   0  0  0  0  0  0  0  0  0  0  0  0
   16.8553  -23.9916  -11.5045 O   0  0  0  0  0  0  0  0  0  0  0  0
   20.8379  -19.1750  -14.4727 N   0  0  0  0  0  0  0  0  0  0  0  0
   20.6169  -19.2252  -13.0753 C   0  0  0  0  0  0  0  0  0  0  0  0
   21.2832  -18.4871  -12.3070 O   0  0  0  0  0  0  0  0  0  0  0  0
   19.6058  -20.1343  -12.5308 C   0  0  0  0  0  0  0  0  0  0  0  0
   18.9200  -20.9141  -13.5900 C   0  0  0  0  0  0  0  0  0  0  0  0
   17.9256  -21.9367  -13.1570 C   0  0  2  0  0  0  0  0  0  0  0  0
   18.6911  -23.0019  -12.4785 N   0  0  0  0  0  0  0  0  0  0  0  0
   16.9758  -22.4635  -14.0956 C   0  0  0  0  0  0  0  0  0  0  0  0
   15.7421  -21.7962  -14.2405 O   0  0  0  0  0  0  0  0  0  0  0  0
   17.1197  -23.4730  -14.8191 O   0  0  0  0  0  0  0  0  0  0  0  0
  2  1  1  0
  3  2  2  0
  4  3  1  0
  5 11  1  0
  5  4  2  0
  6  5  1  0
  7  6  1  0
  7  8  1  1
  9  7  1  0
  9 10  2  0
 11 12  2  0
 12  2  1  0
 14 13  1  0
 15 16  1  0
 15 14  1  6
 16  9  1  0
 17 15  1  0
 18 17  2  0
 20 19  1  0
 21 20  2  0
 22 20  1  0
 24 23  1  6
 23 22  1  0
 24 25  1  0
 25 17  1  0
 26 24  1  0
 26 27  1  0
 28 26  2  0
M  END
$$$$
