DVM.pdb
     RDKit          3D

 24 23  0  0  1  0  0  0  0  0999 V2000
   26.4920  -20.6714  -17.7743 N   0  0  0  0  0  0  0  0  0  0  0  0
   26.1017  -19.6380  -16.7742 C   0  0  1  0  0  0  0  0  0  0  0  0
   25.1171  -18.7429  -17.4371 C   0  0  0  0  0  0  0  0  0  0  0  0
   25.6883  -17.8013  -18.4105 C   0  0  0  0  0  0  0  0  0  0  0  0
   24.9015  -17.0132  -19.0049 O   0  0  0  0  0  0  0  0  0  0  0  0
   25.5998  -20.3284  -15.5703 C   0  0  0  0  0  0  0  0  0  0  0  0
   24.8886  -21.3808  -15.6686 O   0  0  0  0  0  0  0  0  0  0  0  0
   27.0571  -17.8180  -18.6373 O   0  0  0  0  0  0  0  0  0  0  0  0
   27.5401  -21.3181  -12.2013 C   0  0  0  0  0  0  0  0  0  0  0  0
   26.1241  -20.8943  -11.9365 C   0  0  2  0  0  0  0  0  0  0  0  0
   25.4314  -21.7768  -10.9240 C   0  0  0  0  0  0  0  0  0  0  0  0
   25.2745  -20.6091  -13.0951 C   0  0  2  0  0  0  0  0  0  0  0  0
   25.8206  -19.9351  -14.2316 N   0  0  0  0  0  0  0  0  0  0  0  0
   23.8307  -20.3584  -12.8262 C   0  0  0  0  0  0  0  0  0  0  0  0
   23.4254  -19.1596  -12.6018 O   0  0  0  0  0  0  0  0  0  0  0  0
   20.0567  -17.3006  -15.8651 C   0  0  0  0  0  0  0  0  0  0  0  0
   19.2716  -18.9123  -15.7637 S   0  0  0  0  0  0  0  0  0  0  0  0
   19.6576  -19.8028  -14.2673 C   0  0  0  0  0  0  0  0  0  0  0  0
   21.0833  -20.2249  -14.1089 C   0  0  0  0  0  0  0  0  0  0  0  0
   21.3873  -20.9774  -12.8529 C   0  0  2  0  0  0  0  0  0  0  0  0
   22.8172  -21.3327  -12.7819 N   0  0  0  0  0  0  0  0  0  0  0  0
   20.5634  -22.1670  -12.6122 C   0  0  0  0  0  0  0  0  0  0  0  0
   20.9690  -23.2636  -13.0816 O   0  0  0  0  0  0  0  0  0  0  0  0
   19.3872  -22.2020  -11.9198 O   0  0  0  0  0  0  0  0  0  0  0  0
  2  1  1  6
  2  3  1  0
  3  4  1  0
  4  8  1  0
  4  5  2  0
  6  2  1  0
  7  6  2  0
 10  9  1  6
 10 12  1  0
 11 10  1  0
 12 13  1  1
 12 14  1  0
 13  6  1  0
 14 21  1  0
 15 14  2  0
 17 16  1  0
 18 17  1  0
 19 18  1  0
 20 19  1  6
 20 22  1  0
 21 20  1  0
 22 24  1  0
 23 22  2  0
M  END
$$$$
