DVM.pdb
     RDKit          3D

 24 23  0  0  1  0  0  0  0  0999 V2000
   18.4362  -22.7246  -14.2870 N   0  0  0  0  0  0  0  0  0  0  0  0
   19.1549  -21.6119  -13.6046 C   0  0  1  0  0  0  0  0  0  0  0  0
   18.5511  -21.4696  -12.2536 C   0  0  0  0  0  0  0  0  0  0  0  0
   17.2430  -20.8002  -12.2236 C   0  0  0  0  0  0  0  0  0  0  0  0
   16.6822  -20.6449  -11.1033 O   0  0  0  0  0  0  0  0  0  0  0  0
   20.5973  -21.9237  -13.6096 C   0  0  0  0  0  0  0  0  0  0  0  0
   21.0158  -23.0880  -13.3062 O   0  0  0  0  0  0  0  0  0  0  0  0
   16.6803  -20.3718  -13.4174 O   0  0  0  0  0  0  0  0  0  0  0  0
   24.8687  -20.7290  -15.5442 C   0  0  0  0  0  0  0  0  0  0  0  0
   23.7211  -21.6294  -15.1874 C   0  0  2  0  0  0  0  0  0  0  0  0
   22.7582  -21.8287  -16.3349 C   0  0  0  0  0  0  0  0  0  0  0  0
   23.0289  -21.3752  -13.9218 C   0  0  2  0  0  0  0  0  0  0  0  0
   21.6423  -21.0268  -13.9244 N   0  0  0  0  0  0  0  0  0  0  0  0
   23.8401  -20.7940  -12.8154 C   0  0  0  0  0  0  0  0  0  0  0  0
   23.6076  -19.5932  -12.4206 O   0  0  0  0  0  0  0  0  0  0  0  0
   27.5342  -19.2061   -6.3139 C   0  0  0  0  0  0  0  0  0  0  0  0
   26.4116  -20.2201   -7.2813 S   0  0  0  0  0  0  0  0  0  0  0  0
   26.6633  -20.0853   -9.0418 C   0  0  0  0  0  0  0  0  0  0  0  0
   25.6908  -20.8309   -9.8987 C   0  0  0  0  0  0  0  0  0  0  0  0
   25.9041  -20.6901  -11.3721 C   0  0  2  0  0  0  0  0  0  0  0  0
   24.8836  -21.4401  -12.1285 N   0  0  0  0  0  0  0  0  0  0  0  0
   27.2439  -21.0420  -11.8546 C   0  0  0  0  0  0  0  0  0  0  0  0
   27.3428  -22.0182  -12.6450 O   0  0  0  0  0  0  0  0  0  0  0  0
   28.4073  -20.4065  -11.5277 O   0  0  0  0  0  0  0  0  0  0  0  0
  2  1  1  1
  2  3  1  0
  3  4  1  0
  4  8  1  0
  4  5  2  0
  6  2  1  0
  7  6  2  0
 10  9  1  6
 10 12  1  0
 11 10  1  0
 12 13  1  6
 12 14  1  0
 13  6  1  0
 14 21  1  0
 15 14  2  0
 17 16  1  0
 18 17  1  0
 19 18  1  0
 20 19  1  1
 20 22  1  0
 21 20  1  0
 22 24  1  0
 23 22  2  0
M  END
$$$$
