DVM.pdb
     RDKit          3D

 24 23  0  0  1  0  0  0  0  0999 V2000
   15.4112  -12.0757  -17.0760 N   0  0  0  0  0  0  0  0  0  0  0  0
   16.4324  -11.8427  -16.0161 C   0  0  1  0  0  0  0  0  0  0  0  0
   17.3370  -13.0224  -16.0187 C   0  0  0  0  0  0  0  0  0  0  0  0
   16.8138  -14.2099  -15.3285 C   0  0  0  0  0  0  0  0  0  0  0  0
   15.7551  -14.0842  -14.6525 O   0  0  0  0  0  0  0  0  0  0  0  0
   17.0947  -10.5527  -16.2901 C   0  0  0  0  0  0  0  0  0  0  0  0
   17.3643  -10.1963  -17.4831 O   0  0  0  0  0  0  0  0  0  0  0  0
   17.4998  -15.4105  -15.4442 O   0  0  0  0  0  0  0  0  0  0  0  0
   16.9170   -6.4387  -14.6629 C   0  0  0  0  0  0  0  0  0  0  0  0
   17.4635   -7.1557  -15.8638 C   0  0  2  0  0  0  0  0  0  0  0  0
   16.4453   -7.2971  -16.9714 C   0  0  0  0  0  0  0  0  0  0  0  0
   18.2049   -8.3975  -15.6318 C   0  0  2  0  0  0  0  0  0  0  0  0
   17.4997   -9.6030  -15.3260 N   0  0  0  0  0  0  0  0  0  0  0  0
   19.5605   -8.2696  -15.0268 C   0  0  0  0  0  0  0  0  0  0  0  0
   20.0471   -9.2458  -14.3470 O   0  0  0  0  0  0  0  0  0  0  0  0
   26.4113  -10.1656  -14.3946 C   0  0  0  0  0  0  0  0  0  0  0  0
   24.8314   -9.9161  -15.2107 S   0  0  0  0  0  0  0  0  0  0  0  0
   23.9141   -8.5218  -14.5819 C   0  0  0  0  0  0  0  0  0  0  0  0
   22.5406   -8.3378  -15.1436 C   0  0  0  0  0  0  0  0  0  0  0  0
   21.7863   -7.1639  -14.6060 C   0  0  2  0  0  0  0  0  0  0  0  0
   20.4020   -7.1461  -15.1153 N   0  0  0  0  0  0  0  0  0  0  0  0
   22.4148   -5.8557  -14.8189 C   0  0  0  0  0  0  0  0  0  0  0  0
   22.0196   -5.1700  -15.7993 O   0  0  0  0  0  0  0  0  0  0  0  0
   23.3967   -5.3020  -14.0485 O   0  0  0  0  0  0  0  0  0  0  0  0
  2  1  1  6
  2  3  1  0
  3  4  1  0
  4  8  1  0
  4  5  2  0
  6  2  1  0
  7  6  2  0
 10  9  1  1
 10 12  1  0
 11 10  1  0
 12 13  1  1
 12 14  1  0
 13  6  1  0
 14 21  1  0
 15 14  2  0
 17 16  1  0
 18 17  1  0
 19 18  1  0
 20 19  1  6
 20 22  1  0
 21 20  1  0
 22 24  1  0
 23 22  2  0
M  END
$$$$
