DVM.pdb
     RDKit          3D

 24 23  0  0  1  0  0  0  0  0999 V2000
   14.9257  -11.1387  -13.0397 N   0  0  0  0  0  0  0  0  0  0  0  0
   14.3279   -9.8796  -13.5669 C   0  0  1  0  0  0  0  0  0  0  0  0
   12.8737   -9.9291  -13.2621 C   0  0  0  0  0  0  0  0  0  0  0  0
   12.1297  -10.9955  -13.9475 C   0  0  0  0  0  0  0  0  0  0  0  0
   11.5405  -11.8574  -13.2380 O   0  0  0  0  0  0  0  0  0  0  0  0
   15.0490   -8.7406  -12.9665 C   0  0  0  0  0  0  0  0  0  0  0  0
   15.4584   -8.7879  -11.7611 O   0  0  0  0  0  0  0  0  0  0  0  0
   12.1071  -11.0136  -15.3347 O   0  0  0  0  0  0  0  0  0  0  0  0
   18.3671   -6.9077  -14.0943 C   0  0  0  0  0  0  0  0  0  0  0  0
   17.2952   -5.9343  -13.6963 C   0  0  2  0  0  0  0  0  0  0  0  0
   17.8488   -4.7052  -13.0133 C   0  0  0  0  0  0  0  0  0  0  0  0
   16.1180   -6.4676  -13.0071 C   0  0  2  0  0  0  0  0  0  0  0  0
   15.3561   -7.5189  -13.6057 N   0  0  0  0  0  0  0  0  0  0  0  0
   15.3512   -5.5190  -12.1516 C   0  0  0  0  0  0  0  0  0  0  0  0
   14.3975   -4.8282  -12.6666 O   0  0  0  0  0  0  0  0  0  0  0  0
   11.8725   -3.6509   -5.3486 C   0  0  0  0  0  0  0  0  0  0  0  0
   12.8374   -4.7817   -6.3558 S   0  0  0  0  0  0  0  0  0  0  0  0
   13.4512   -4.0512   -7.8626 C   0  0  0  0  0  0  0  0  0  0  0  0
   14.2256   -4.9621   -8.7608 C   0  0  0  0  0  0  0  0  0  0  0  0
   14.7425   -4.3303  -10.0137 C   0  0  2  0  0  0  0  0  0  0  0  0
   15.5691   -5.2796  -10.7829 N   0  0  0  0  0  0  0  0  0  0  0  0
   15.4668   -3.0674   -9.8340 C   0  0  0  0  0  0  0  0  0  0  0  0
   16.7237   -3.1192   -9.7643 O   0  0  0  0  0  0  0  0  0  0  0  0
   14.9049   -1.8270   -9.7351 O   0  0  0  0  0  0  0  0  0  0  0  0
  2  1  1  1
  2  3  1  0
  3  4  1  0
  4  8  1  0
  4  5  2  0
  6  2  1  0
  7  6  2  0
 10  9  1  1
 10 12  1  0
 11 10  1  0
 12 13  1  6
 12 14  1  0
 13  6  1  0
 14 21  1  0
 15 14  2  0
 17 16  1  0
 18 17  1  0
 19 18  1  0
 20 19  1  1
 20 22  1  0
 21 20  1  0
 22 24  1  0
 23 22  2  0
M  END
$$$$
