DVM.pdb
     RDKit          3D

 24 23  0  0  1  0  0  0  0  0999 V2000
   16.2090  -12.0641  -17.3824 N   0  0  0  0  0  0  0  0  0  0  0  0
   16.8286  -11.5548  -16.1265 C   0  0  1  0  0  0  0  0  0  0  0  0
   17.7440  -12.6170  -15.6328 C   0  0  0  0  0  0  0  0  0  0  0  0
   17.0784  -13.8040  -15.0776 C   0  0  0  0  0  0  0  0  0  0  0  0
   17.5099  -14.9400  -15.4195 O   0  0  0  0  0  0  0  0  0  0  0  0
   17.4796  -10.2643  -16.4245 C   0  0  0  0  0  0  0  0  0  0  0  0
   18.0517  -10.0637  -17.5449 O   0  0  0  0  0  0  0  0  0  0  0  0
   16.0100  -13.6303  -14.2095 O   0  0  0  0  0  0  0  0  0  0  0  0
   16.7663   -6.0123  -15.1441 C   0  0  0  0  0  0  0  0  0  0  0  0
   17.4942   -6.7397  -16.2378 C   0  0  2  0  0  0  0  0  0  0  0  0
   16.6361   -6.9606  -17.4619 C   0  0  0  0  0  0  0  0  0  0  0  0
   18.2494   -7.9388  -15.8675 C   0  0  2  0  0  0  0  0  0  0  0  0
   17.5571   -9.1510  -15.5585 N   0  0  0  0  0  0  0  0  0  0  0  0
   19.5377   -7.7283  -15.1493 C   0  0  0  0  0  0  0  0  0  0  0  0
   19.5973   -7.9266  -13.8809 O   0  0  0  0  0  0  0  0  0  0  0  0
   25.2241  -10.9811  -15.2676 C   0  0  0  0  0  0  0  0  0  0  0  0
   25.6010   -9.2417  -15.5055 S   0  0  0  0  0  0  0  0  0  0  0  0
   24.3610   -8.1443  -14.8427 C   0  0  0  0  0  0  0  0  0  0  0  0
   23.0333   -8.1692  -15.5302 C   0  0  0  0  0  0  0  0  0  0  0  0
   22.0046   -7.2465  -14.9589 C   0  0  2  0  0  0  0  0  0  0  0  0
   20.7489   -7.3113  -15.7302 N   0  0  0  0  0  0  0  0  0  0  0  0
   22.4241   -5.8496  -14.8019 C   0  0  0  0  0  0  0  0  0  0  0  0
   23.0780   -5.5483  -13.7679 O   0  0  0  0  0  0  0  0  0  0  0  0
   22.1730   -4.8329  -15.6779 O   0  0  0  0  0  0  0  0  0  0  0  0
  2  1  1  6
  2  3  1  0
  3  4  1  0
  4  8  1  0
  4  5  2  0
  6  2  1  0
  7  6  2  0
 10  9  1  1
 10 12  1  0
 11 10  1  0
 12 13  1  1
 12 14  1  0
 13  6  1  0
 14 21  1  0
 15 14  2  0
 17 16  1  0
 18 17  1  0
 19 18  1  0
 20 19  1  6
 20 22  1  0
 21 20  1  0
 22 24  1  0
 23 22  2  0
M  END
$$$$
