DVM.pdb
     RDKit          3D

 24 23  0  0  1  0  0  0  0  0999 V2000
   23.0541  -22.0260  -13.0270 N   0  0  0  0  0  0  0  0  0  0  0  0
   23.4125  -20.7801  -12.2923 C   0  0  1  0  0  0  0  0  0  0  0  0
   22.1843  -20.3216  -11.5911 C   0  0  0  0  0  0  0  0  0  0  0  0
   21.0914  -19.8841  -12.4712 C   0  0  0  0  0  0  0  0  0  0  0  0
   21.3950  -19.2901  -13.5429 O   0  0  0  0  0  0  0  0  0  0  0  0
   24.5560  -21.0790  -11.4087 C   0  0  0  0  0  0  0  0  0  0  0  0
   24.5253  -22.0735  -10.6131 O   0  0  0  0  0  0  0  0  0  0  0  0
   19.7811  -20.1368  -12.0910 O   0  0  0  0  0  0  0  0  0  0  0  0
   28.3020  -21.6388  -12.2768 C   0  0  0  0  0  0  0  0  0  0  0  0
   28.1843  -20.8783  -10.9874 C   0  0  2  0  0  0  0  0  0  0  0  0
   29.1531  -21.3636   -9.9340 C   0  0  0  0  0  0  0  0  0  0  0  0
   26.8396  -20.6658  -10.4468 C   0  0  2  0  0  0  0  0  0  0  0  0
   25.7596  -20.3440  -11.3266 N   0  0  0  0  0  0  0  0  0  0  0  0
   26.7483  -20.0941   -9.0740 C   0  0  0  0  0  0  0  0  0  0  0  0
   25.8007  -19.2737   -8.7896 O   0  0  0  0  0  0  0  0  0  0  0  0
   23.7726  -21.6376   -4.3381 C   0  0  0  0  0  0  0  0  0  0  0  0
   25.2148  -21.0699   -3.4316 S   0  0  0  0  0  0  0  0  0  0  0  0
   26.3608  -20.1323   -4.4259 C   0  0  0  0  0  0  0  0  0  0  0  0
   26.4680  -20.5430   -5.8597 C   0  0  0  0  0  0  0  0  0  0  0  0
   27.4438  -19.7559   -6.6748 C   0  0  2  0  0  0  0  0  0  0  0  0
   27.6273  -20.3591   -8.0084 N   0  0  0  0  0  0  0  0  0  0  0  0
   28.7490  -19.5213   -6.0478 C   0  0  0  0  0  0  0  0  0  0  0  0
   29.7173  -20.2311   -6.4302 O   0  0  0  0  0  0  0  0  0  0  0  0
   29.0201  -18.5971   -5.0800 O   0  0  0  0  0  0  0  0  0  0  0  0
  2  1  1  1
  2  3  1  0
  3  4  1  0
  4  8  1  0
  4  5  2  0
  6  2  1  0
  7  6  2  0
 10  9  1  6
 10 12  1  0
 11 10  1  0
 12 13  1  6
 12 14  1  0
 13  6  1  0
 14 21  1  0
 15 14  2  0
 17 16  1  0
 18 17  1  0
 19 18  1  0
 20 19  1  1
 20 22  1  0
 21 20  1  0
 22 24  1  0
 23 22  2  0
M  END
$$$$
