DVM.pdb
     RDKit          3D

 24 23  0  0  1  0  0  0  0  0999 V2000
   20.6318  -19.6048  -11.2191 N   0  0  0  0  0  0  0  0  0  0  0  0
   21.2279  -20.8806  -11.7065 C   0  0  1  0  0  0  0  0  0  0  0  0
   20.3687  -21.3633  -12.8195 C   0  0  0  0  0  0  0  0  0  0  0  0
   19.0139  -21.7759  -12.4266 C   0  0  0  0  0  0  0  0  0  0  0  0
   18.6968  -21.6857  -11.2080 O   0  0  0  0  0  0  0  0  0  0  0  0
   22.6331  -20.6212  -12.0753 C   0  0  0  0  0  0  0  0  0  0  0  0
   22.9736  -19.5221  -12.6219 O   0  0  0  0  0  0  0  0  0  0  0  0
   18.1459  -22.2464  -13.4015 O   0  0  0  0  0  0  0  0  0  0  0  0
   25.8062  -20.8285   -9.8046 C   0  0  0  0  0  0  0  0  0  0  0  0
   26.1181  -21.3264  -11.1866 C   0  0  2  0  0  0  0  0  0  0  0  0
   27.4687  -20.8633  -11.6818 C   0  0  0  0  0  0  0  0  0  0  0  0
   25.0770  -21.1876  -12.2075 C   0  0  2  0  0  0  0  0  0  0  0  0
   23.7195  -21.5048  -11.8899 N   0  0  0  0  0  0  0  0  0  0  0  0
   25.4836  -21.4260  -13.6208 C   0  0  0  0  0  0  0  0  0  0  0  0
   25.5080  -22.6259  -14.0807 O   0  0  0  0  0  0  0  0  0  0  0  0
   21.2742  -20.9499  -17.2529 C   0  0  0  0  0  0  0  0  0  0  0  0
   22.5161  -20.7999  -18.5411 S   0  0  0  0  0  0  0  0  0  0  0  0
   24.1903  -20.9169  -17.9374 C   0  0  0  0  0  0  0  0  0  0  0  0
   24.3732  -20.6816  -16.4721 C   0  0  0  0  0  0  0  0  0  0  0  0
   25.7932  -20.6645  -16.0037 C   0  0  2  0  0  0  0  0  0  0  0  0
   25.8675  -20.4402  -14.5476 N   0  0  0  0  0  0  0  0  0  0  0  0
   26.6787  -19.7253  -16.7006 C   0  0  0  0  0  0  0  0  0  0  0  0
   27.4185  -20.1852  -17.6109 O   0  0  0  0  0  0  0  0  0  0  0  0
   26.7793  -18.3856  -16.4569 O   0  0  0  0  0  0  0  0  0  0  0  0
  2  1  1  6
  2  3  1  0
  3  4  1  0
  4  8  1  0
  4  5  2  0
  6  2  1  0
  7  6  2  0
 10  9  1  1
 10 12  1  0
 11 10  1  0
 12 13  1  1
 12 14  1  0
 13  6  1  0
 14 21  1  0
 15 14  2  0
 17 16  1  0
 18 17  1  0
 19 18  1  0
 20 19  1  6
 20 22  1  0
 21 20  1  0
 22 24  1  0
 23 22  2  0
M  END
$$$$
