DVM.pdb
     RDKit          3D

 24 23  0  0  1  0  0  0  0  0999 V2000
   17.9000  -13.9370  -19.2041 N   0  0  0  0  0  0  0  0  0  0  0  0
   18.7451  -13.4803  -18.0649 C   0  0  1  0  0  0  0  0  0  0  0  0
   19.7656  -14.5359  -17.8316 C   0  0  0  0  0  0  0  0  0  0  0  0
   19.2624  -15.7567  -17.1860 C   0  0  0  0  0  0  0  0  0  0  0  0
   18.0750  -15.7543  -16.7575 O   0  0  0  0  0  0  0  0  0  0  0  0
   19.2927  -12.1518  -18.4011 C   0  0  0  0  0  0  0  0  0  0  0  0
   19.7713  -11.9153  -19.5578 O   0  0  0  0  0  0  0  0  0  0  0  0
   20.1059  -16.8525  -17.0719 O   0  0  0  0  0  0  0  0  0  0  0  0
   18.2107   -7.9378  -17.1439 C   0  0  0  0  0  0  0  0  0  0  0  0
   18.8390   -8.6995  -18.2753 C   0  0  2  0  0  0  0  0  0  0  0  0
   17.8258   -9.1774  -19.2895 C   0  0  0  0  0  0  0  0  0  0  0  0
   19.8128   -9.7389  -17.9337 C   0  0  2  0  0  0  0  0  0  0  0  0
   19.3619  -11.0364  -17.5371 N   0  0  0  0  0  0  0  0  0  0  0  0
   21.0960   -9.2863  -17.3268 C   0  0  0  0  0  0  0  0  0  0  0  0
   21.3189   -9.5006  -16.0793 O   0  0  0  0  0  0  0  0  0  0  0  0
   28.8805   -8.1100  -17.9077 C   0  0  0  0  0  0  0  0  0  0  0  0
   27.2983   -8.2887  -18.7378 S   0  0  0  0  0  0  0  0  0  0  0  0
   25.8959   -8.0993  -17.6522 C   0  0  0  0  0  0  0  0  0  0  0  0
   24.5613   -8.4102  -18.2505 C   0  0  0  0  0  0  0  0  0  0  0  0
   23.3984   -8.2601  -17.3225 C   0  0  2  0  0  0  0  0  0  0  0  0
   22.1347   -8.6143  -17.9960 N   0  0  0  0  0  0  0  0  0  0  0  0
   23.2702   -6.9504  -16.6744 C   0  0  0  0  0  0  0  0  0  0  0  0
   23.7395   -6.8250  -15.5119 O   0  0  0  0  0  0  0  0  0  0  0  0
   22.6863   -5.8410  -17.2153 O   0  0  0  0  0  0  0  0  0  0  0  0
  2  1  1  6
  2  3  1  0
  3  4  1  0
  4  8  1  0
  4  5  2  0
  6  2  1  0
  7  6  2  0
 10  9  1  1
 10 12  1  0
 11 10  1  0
 12 13  1  1
 12 14  1  0
 13  6  1  0
 14 21  1  0
 15 14  2  0
 17 16  1  0
 18 17  1  0
 19 18  1  0
 20 19  1  6
 20 22  1  0
 21 20  1  0
 22 24  1  0
 23 22  2  0
M  END
$$$$
