DVM.pdb
     RDKit          3D

 24 23  0  0  1  0  0  0  0  0999 V2000
   17.4997  -14.0567  -17.2309 N   0  0  0  0  0  0  0  0  0  0  0  0
   17.5858  -13.2950  -15.9531 C   0  0  1  0  0  0  0  0  0  0  0  0
   18.4727  -14.0695  -15.0455 C   0  0  0  0  0  0  0  0  0  0  0  0
   17.9465  -15.3764  -14.6265 C   0  0  0  0  0  0  0  0  0  0  0  0
   16.7707  -15.4231  -14.1695 O   0  0  0  0  0  0  0  0  0  0  0  0
   18.0538  -11.9298  -16.2611 C   0  0  0  0  0  0  0  0  0  0  0  0
   18.8874  -11.7208  -17.2014 O   0  0  0  0  0  0  0  0  0  0  0  0
   18.7569  -16.4963  -14.7464 O   0  0  0  0  0  0  0  0  0  0  0  0
   16.4022   -8.9683  -17.8944 C   0  0  0  0  0  0  0  0  0  0  0  0
   17.0311   -8.5428  -16.5989 C   0  0  2  0  0  0  0  0  0  0  0  0
   17.4819   -7.1005  -16.6161 C   0  0  0  0  0  0  0  0  0  0  0  0
   18.0371   -9.4302  -16.0108 C   0  0  2  0  0  0  0  0  0  0  0  0
   17.6696  -10.7467  -15.5916 N   0  0  0  0  0  0  0  0  0  0  0  0
   19.1316   -8.7851  -15.2324 C   0  0  0  0  0  0  0  0  0  0  0  0
   18.8945   -8.3452  -14.0483 O   0  0  0  0  0  0  0  0  0  0  0  0
   25.0626  -10.8141  -16.3447 C   0  0  0  0  0  0  0  0  0  0  0  0
   24.7219  -10.4184  -14.6267 S   0  0  0  0  0  0  0  0  0  0  0  0
   23.1019   -9.7212  -14.3614 C   0  0  0  0  0  0  0  0  0  0  0  0
   22.8215   -8.4345  -15.0699 C   0  0  0  0  0  0  0  0  0  0  0  0
   21.4516   -7.8754  -14.8533 C   0  0  2  0  0  0  0  0  0  0  0  0
   20.4533   -8.5893  -15.6717 N   0  0  0  0  0  0  0  0  0  0  0  0
   21.3195   -6.4281  -15.0524 C   0  0  0  0  0  0  0  0  0  0  0  0
   21.5075   -5.6813  -14.0552 O   0  0  0  0  0  0  0  0  0  0  0  0
   21.0105   -5.8044  -16.2270 O   0  0  0  0  0  0  0  0  0  0  0  0
  2  1  1  6
  2  3  1  0
  3  4  1  0
  4  8  1  0
  4  5  2  0
  6  2  1  0
  7  6  2  0
 10  9  1  6
 10 12  1  0
 11 10  1  0
 12 13  1  1
 12 14  1  0
 13  6  1  0
 14 21  1  0
 15 14  2  0
 17 16  1  0
 18 17  1  0
 19 18  1  0
 20 19  1  6
 20 22  1  0
 21 20  1  0
 22 24  1  0
 23 22  2  0
M  END
$$$$
