DVM.pdb
     RDKit          3D

 24 23  0  0  1  0  0  0  0  0999 V2000
   22.8299  -21.8201  -12.6296 N   0  0  0  0  0  0  0  0  0  0  0  0
   23.1660  -20.6003  -11.8424 C   0  0  1  0  0  0  0  0  0  0  0  0
   21.9462  -20.2273  -11.0788 C   0  0  0  0  0  0  0  0  0  0  0  0
   20.8223  -19.7480  -11.8959 C   0  0  0  0  0  0  0  0  0  0  0  0
   21.0605  -18.8791  -12.7801 O   0  0  0  0  0  0  0  0  0  0  0  0
   24.3496  -20.8988  -11.0132 C   0  0  0  0  0  0  0  0  0  0  0  0
   24.3822  -21.9310  -10.2672 O   0  0  0  0  0  0  0  0  0  0  0  0
   19.5552  -20.2631  -11.6629 O   0  0  0  0  0  0  0  0  0  0  0  0
   27.8207  -21.7639  -12.0144 C   0  0  0  0  0  0  0  0  0  0  0  0
   27.9202  -20.8629  -10.8172 C   0  0  2  0  0  0  0  0  0  0  0  0
   28.9743  -21.3152   -9.8334 C   0  0  0  0  0  0  0  0  0  0  0  0
   26.6724  -20.4782  -10.1536 C   0  0  2  0  0  0  0  0  0  0  0  0
   25.5284  -20.1243  -10.9348 N   0  0  0  0  0  0  0  0  0  0  0  0
   26.7938  -19.7925   -8.8364 C   0  0  0  0  0  0  0  0  0  0  0  0
   26.4042  -18.5735   -8.7169 O   0  0  0  0  0  0  0  0  0  0  0  0
   25.3660  -21.2787   -2.7811 C   0  0  0  0  0  0  0  0  0  0  0  0
   26.7064  -20.1247   -2.4716 S   0  0  0  0  0  0  0  0  0  0  0  0
   27.4248  -19.4481   -3.9573 C   0  0  0  0  0  0  0  0  0  0  0  0
   27.0996  -20.1696   -5.2261 C   0  0  0  0  0  0  0  0  0  0  0  0
   27.6282  -19.5336   -6.4720 C   0  0  2  0  0  0  0  0  0  0  0  0
   27.3171  -20.3539   -7.6578 N   0  0  0  0  0  0  0  0  0  0  0  0
   29.0563  -19.1991   -6.4554 C   0  0  0  0  0  0  0  0  0  0  0  0
   29.8538  -20.0141   -6.9913 O   0  0  0  0  0  0  0  0  0  0  0  0
   29.6116  -18.0770   -5.9107 O   0  0  0  0  0  0  0  0  0  0  0  0
  2  1  1  1
  2  3  1  0
  3  4  1  0
  4  8  1  0
  4  5  2  0
  6  2  1  0
  7  6  2  0
 10  9  1  6
 10 12  1  0
 11 10  1  0
 12 13  1  6
 12 14  1  0
 13  6  1  0
 14 21  1  0
 15 14  2  0
 17 16  1  0
 18 17  1  0
 19 18  1  0
 20 19  1  1
 20 22  1  0
 21 20  1  0
 22 24  1  0
 23 22  2  0
M  END
$$$$
