DVM.pdb
     RDKit          3D

 24 23  0  0  1  0  0  0  0  0999 V2000
   23.4941  -20.2323  -14.9529 N   0  0  0  0  0  0  0  0  0  0  0  0
   23.5824  -20.0321  -13.4789 C   0  0  1  0  0  0  0  0  0  0  0  0
   22.2647  -20.4184  -12.9091 C   0  0  0  0  0  0  0  0  0  0  0  0
   21.1374  -19.5667  -13.3140 C   0  0  0  0  0  0  0  0  0  0  0  0
   21.3581  -18.6513  -14.1548 O   0  0  0  0  0  0  0  0  0  0  0  0
   24.7287  -20.8133  -12.9756 C   0  0  0  0  0  0  0  0  0  0  0  0
   24.7853  -22.0747  -13.1448 O   0  0  0  0  0  0  0  0  0  0  0  0
   19.8871  -19.7989  -12.7588 O   0  0  0  0  0  0  0  0  0  0  0  0
   29.2105  -20.2127  -12.4450 C   0  0  0  0  0  0  0  0  0  0  0  0
   28.1388  -21.2535  -12.5968 C   0  0  2  0  0  0  0  0  0  0  0  0
   27.8281  -21.5634  -14.0429 C   0  0  0  0  0  0  0  0  0  0  0  0
   26.9255  -21.0990  -11.7909 C   0  0  2  0  0  0  0  0  0  0  0  0
   25.8436  -20.3002  -12.2762 N   0  0  0  0  0  0  0  0  0  0  0  0
   27.0913  -21.1335  -10.3107 C   0  0  0  0  0  0  0  0  0  0  0  0
   28.2655  -21.0204   -9.8005 O   0  0  0  0  0  0  0  0  0  0  0  0
   28.4140  -21.0220   -4.6476 C   0  0  0  0  0  0  0  0  0  0  0  0
   28.5697  -19.5483   -5.6616 S   0  0  0  0  0  0  0  0  0  0  0  0
   27.0443  -19.0528   -6.4419 C   0  0  0  0  0  0  0  0  0  0  0  0
   26.8381  -19.5415   -7.8400 C   0  0  0  0  0  0  0  0  0  0  0  0
   26.2275  -20.9018   -7.9540 C   0  0  2  0  0  0  0  0  0  0  0  0
   26.0600  -21.2898   -9.3672 N   0  0  0  0  0  0  0  0  0  0  0  0
   24.9663  -21.0927   -7.2296 C   0  0  0  0  0  0  0  0  0  0  0  0
   23.8959  -21.0186   -7.8900 O   0  0  0  0  0  0  0  0  0  0  0  0
   24.8382  -21.3470   -5.8943 O   0  0  0  0  0  0  0  0  0  0  0  0
  2  1  1  6
  2  3  1  0
  3  4  1  0
  4  8  1  0
  4  5  2  0
  6  2  1  0
  7  6  2  0
 10  9  1  6
 10 12  1  0
 11 10  1  0
 12 13  1  1
 12 14  1  0
 13  6  1  0
 14 21  1  0
 15 14  2  0
 17 16  1  0
 18 17  1  0
 19 18  1  0
 20 19  1  6
 20 22  1  0
 21 20  1  0
 22 24  1  0
 23 22  2  0
M  END
$$$$
