DVM.pdb
     RDKit          3D

 24 23  0  0  1  0  0  0  0  0999 V2000
   19.8348  -12.7291  -17.6069 N   0  0  0  0  0  0  0  0  0  0  0  0
   19.6993  -11.2493  -17.7184 C   0  0  1  0  0  0  0  0  0  0  0  0
   18.2443  -10.9502  -17.7771 C   0  0  0  0  0  0  0  0  0  0  0  0
   17.5689  -11.3825  -19.0089 C   0  0  0  0  0  0  0  0  0  0  0  0
   18.1879  -11.2524  -20.1013 O   0  0  0  0  0  0  0  0  0  0  0  0
   20.4135  -10.6345  -16.5828 C   0  0  0  0  0  0  0  0  0  0  0  0
   20.3628  -11.1530  -15.4203 O   0  0  0  0  0  0  0  0  0  0  0  0
   16.2881  -11.9093  -18.9229 O   0  0  0  0  0  0  0  0  0  0  0  0
   24.1476   -8.0531  -16.2717 C   0  0  0  0  0  0  0  0  0  0  0  0
   23.3459   -9.0016  -15.4276 C   0  0  2  0  0  0  0  0  0  0  0  0
   23.8331  -10.4282  -15.5313 C   0  0  0  0  0  0  0  0  0  0  0  0
   21.8861   -8.9083  -15.5045 C   0  0  2  0  0  0  0  0  0  0  0  0
   21.1942   -9.4581  -16.6284 N   0  0  0  0  0  0  0  0  0  0  0  0
   21.2535   -7.7150  -14.8756 C   0  0  0  0  0  0  0  0  0  0  0  0
   20.7645   -6.7888  -15.6206 O   0  0  0  0  0  0  0  0  0  0  0  0
   17.2409   -4.2705   -8.9771 C   0  0  0  0  0  0  0  0  0  0  0  0
   18.1134   -5.7016   -9.6212 S   0  0  0  0  0  0  0  0  0  0  0  0
   19.0151   -5.3725  -11.1244 C   0  0  0  0  0  0  0  0  0  0  0  0
   19.6368   -6.5609  -11.7856 C   0  0  0  0  0  0  0  0  0  0  0  0
   20.5009   -6.2515  -12.9662 C   0  0  2  0  0  0  0  0  0  0  0  0
   21.1323   -7.4753  -13.4950 N   0  0  0  0  0  0  0  0  0  0  0  0
   21.5175   -5.2158  -12.7529 C   0  0  0  0  0  0  0  0  0  0  0  0
   21.1854   -4.0186  -12.9627 O   0  0  0  0  0  0  0  0  0  0  0  0
   22.8030   -5.4252  -12.3431 O   0  0  0  0  0  0  0  0  0  0  0  0
  2  1  1  1
  2  3  1  0
  3  4  1  0
  4  8  1  0
  4  5  2  0
  6  2  1  0
  7  6  2  0
 10  9  1  6
 10 12  1  0
 11 10  1  0
 12 13  1  6
 12 14  1  0
 13  6  1  0
 14 21  1  0
 15 14  2  0
 17 16  1  0
 18 17  1  0
 19 18  1  0
 20 19  1  1
 20 22  1  0
 21 20  1  0
 22 24  1  0
 23 22  2  0
M  END
$$$$
