SVN.pdb
     RDKit          3D

 22 21  0  0  1  0  0  0  0  0999 V2000
   17.6777  -12.6161  -14.0946 O   0  0  0  0  0  0  0  0  0  0  0  0
   16.4197  -12.3565  -14.6212 C   0  0  0  0  0  0  0  0  0  0  0  0
   16.5897  -12.2044  -16.1168 C   0  0  2  0  0  0  0  0  0  0  0  0
   17.1731  -13.3936  -16.6606 N   0  0  0  0  0  0  0  0  0  0  0  0
   17.4846  -11.0487  -16.4236 C   0  0  0  0  0  0  0  0  0  0  0  0
   18.6553  -11.1554  -16.8141 O   0  0  0  0  0  0  0  0  0  0  0  0
   15.4208   -7.3897  -16.8671 C   0  0  0  0  0  0  0  0  0  0  0  0
   16.6614   -7.8280  -17.6494 C   0  0  2  0  0  0  0  0  0  0  0  0
   16.2225   -8.5622  -18.8707 C   0  0  0  0  0  0  0  0  0  0  0  0
   17.6370   -8.5503  -16.7801 C   0  0  2  0  0  0  0  0  0  0  0  0
   16.9446   -9.7336  -16.2520 N   0  0  0  0  0  0  0  0  0  0  0  0
   18.1940   -7.7329  -15.6778 C   0  0  0  0  0  0  0  0  0  0  0  0
   17.6242   -7.7269  -14.5596 O   0  0  0  0  0  0  0  0  0  0  0  0
   21.5653   -4.4468  -12.9050 N   0  0  0  0  0  0  0  0  0  0  0  0
   22.1454   -5.2012  -13.9601 C   0  0  0  0  0  0  0  0  0  0  0  0
   23.4212   -5.0773  -14.0472 O   0  0  0  0  0  0  0  0  0  0  0  0
   21.4467   -6.0632  -14.9034 C   0  0  0  0  0  0  0  0  0  0  0  0
   19.9617   -6.1830  -14.7155 C   0  0  2  0  0  0  0  0  0  0  0  0
   19.3591   -6.9379  -15.8118 N   0  0  0  0  0  0  0  0  0  0  0  0
   19.3271   -4.8417  -14.7546 C   0  0  0  0  0  0  0  0  0  0  0  0
   19.2252   -4.0104  -13.6421 O   0  0  0  0  0  0  0  0  0  0  0  0
   18.8521   -4.4322  -15.8601 O   0  0  0  0  0  0  0  0  0  0  0  0
  1  2  1  0
  3  5  1  0
  3  2  1  0
  3  4  1  1
  5  6  2  0
  5 11  1  0
  8  7  1  1
  8  9  1  0
  8 10  1  0
 10 12  1  0
 10 11  1  1
 12 13  2  0
 12 19  1  0
 15 17  1  0
 15 14  1  0
 16 15  2  0
 18 17  1  6
 19 18  1  0
 20 18  1  0
 20 21  1  0
 22 20  2  0
M  END
$$$$
