SVN.pdb
     RDKit          3D

 22 21  0  0  1  0  0  0  0  0999 V2000
   15.6107  -11.9986  -15.0256 O   0  0  0  0  0  0  0  0  0  0  0  0
   16.8107  -11.3062  -15.1137 C   0  0  0  0  0  0  0  0  0  0  0  0
   17.6396  -11.9924  -16.1771 C   0  0  2  0  0  0  0  0  0  0  0  0
   17.9177  -13.3394  -15.7792 N   0  0  0  0  0  0  0  0  0  0  0  0
   18.9344  -11.2736  -16.3714 C   0  0  0  0  0  0  0  0  0  0  0  0
   19.9670  -11.5071  -15.7282 O   0  0  0  0  0  0  0  0  0  0  0  0
   21.5654   -8.4518  -19.4294 C   0  0  0  0  0  0  0  0  0  0  0  0
   20.3681   -9.3354  -19.0703 C   0  0  2  0  0  0  0  0  0  0  0  0
   19.1764   -8.8581  -19.8286 C   0  0  0  0  0  0  0  0  0  0  0  0
   20.1876   -9.4487  -17.5925 C   0  0  2  0  0  0  0  0  0  0  0  0
   18.9753  -10.2481  -17.3699 N   0  0  0  0  0  0  0  0  0  0  0  0
   20.0962   -8.1494  -16.8875 C   0  0  0  0  0  0  0  0  0  0  0  0
   19.0668   -7.4432  -17.0175 O   0  0  0  0  0  0  0  0  0  0  0  0
   21.3034   -3.9437  -13.6358 N   0  0  0  0  0  0  0  0  0  0  0  0
   21.9675   -5.1643  -13.3395 C   0  0  0  0  0  0  0  0  0  0  0  0
   22.6869   -5.1199  -12.2760 O   0  0  0  0  0  0  0  0  0  0  0  0
   21.9009   -6.4022  -14.1040 C   0  0  0  0  0  0  0  0  0  0  0  0
   21.0392   -6.3750  -15.3336 C   0  0  2  0  0  0  0  0  0  0  0  0
   21.1247   -7.6426  -16.0553 N   0  0  0  0  0  0  0  0  0  0  0  0
   21.5245   -5.3400  -16.2805 C   0  0  0  0  0  0  0  0  0  0  0  0
   21.0150   -4.0449  -16.3258 O   0  0  0  0  0  0  0  0  0  0  0  0
   22.4519   -5.6529  -17.0913 O   0  0  0  0  0  0  0  0  0  0  0  0
  1  2  1  0
  3  5  1  0
  3  2  1  0
  3  4  1  1
  5  6  2  0
  5 11  1  0
  8  7  1  1
  8  9  1  0
  8 10  1  0
 10 12  1  0
 10 11  1  6
 12 13  2  0
 12 19  1  0
 15 17  1  0
 15 14  1  0
 16 15  2  0
 18 17  1  1
 19 18  1  0
 20 18  1  0
 20 21  1  0
 22 20  2  0
M  END
$$$$
