SVN.pdb
     RDKit          3D

 22 21  0  0  1  0  0  0  0  0999 V2000
   10.0240  -12.5093  -12.7549 O   0  0  0  0  0  0  0  0  0  0  0  0
   11.0676  -11.9742  -12.0120 C   0  0  0  0  0  0  0  0  0  0  0  0
   12.3218  -12.7205  -12.4109 C   0  0  2  0  0  0  0  0  0  0  0  0
   12.2215  -14.0887  -12.0009 N   0  0  0  0  0  0  0  0  0  0  0  0
   13.5190  -12.1116  -11.7578 C   0  0  0  0  0  0  0  0  0  0  0  0
   13.8414  -12.2978  -10.5763 O   0  0  0  0  0  0  0  0  0  0  0  0
   16.2412  -10.1526  -14.3919 C   0  0  0  0  0  0  0  0  0  0  0  0
   16.6292  -10.8763  -13.1001 C   0  0  2  0  0  0  0  0  0  0  0  0
   16.9779  -12.2883  -13.4287 C   0  0  0  0  0  0  0  0  0  0  0  0
   15.5976  -10.6992  -12.0354 C   0  0  2  0  0  0  0  0  0  0  0  0
   14.3433  -11.2572  -12.5586 N   0  0  0  0  0  0  0  0  0  0  0  0
   15.4062   -9.2972  -11.5983 C   0  0  0  0  0  0  0  0  0  0  0  0
   14.6104   -8.5548  -12.2233 O   0  0  0  0  0  0  0  0  0  0  0  0
   15.8062   -4.6995   -8.6897 N   0  0  0  0  0  0  0  0  0  0  0  0
   16.0205   -5.9137   -7.9836 C   0  0  0  0  0  0  0  0  0  0  0  0
   16.1941   -5.7569   -6.7203 O   0  0  0  0  0  0  0  0  0  0  0  0
   16.0556   -7.2564   -8.5468 C   0  0  0  0  0  0  0  0  0  0  0  0
   15.8916   -7.3537  -10.0363 C   0  0  2  0  0  0  0  0  0  0  0  0
   16.0830   -8.7290  -10.4908 N   0  0  0  0  0  0  0  0  0  0  0  0
   16.9367   -6.5543  -10.7234 C   0  0  0  0  0  0  0  0  0  0  0  0
   16.7863   -5.2059  -11.0370 O   0  0  0  0  0  0  0  0  0  0  0  0
   18.0237   -7.1309  -11.0420 O   0  0  0  0  0  0  0  0  0  0  0  0
  1  2  1  0
  3  5  1  0
  3  2  1  0
  3  4  1  1
  5  6  2  0
  5 11  1  0
  8  7  1  6
  8  9  1  0
  8 10  1  0
 10 12  1  0
 10 11  1  6
 12 13  2  0
 12 19  1  0
 15 17  1  0
 15 14  1  0
 16 15  2  0
 18 17  1  1
 19 18  1  0
 20 18  1  0
 20 21  1  0
 22 20  2  0
M  END
$$$$
