SVN.pdb
     RDKit          3D

 22 21  0  0  1  0  0  0  0  0999 V2000
   16.5181  -10.7738  -18.3571 O   0  0  0  0  0  0  0  0  0  0  0  0
   17.1738  -10.1592  -17.2989 C   0  0  0  0  0  0  0  0  0  0  0  0
   18.1392  -11.1745  -16.7279 C   0  0  2  0  0  0  0  0  0  0  0  0
   17.4107  -12.2693  -16.1614 N   0  0  0  0  0  0  0  0  0  0  0  0
   18.9761  -10.5522  -15.6588 C   0  0  0  0  0  0  0  0  0  0  0  0
   18.6021  -10.3776  -14.4909 O   0  0  0  0  0  0  0  0  0  0  0  0
   23.0909  -10.2302  -16.4752 C   0  0  0  0  0  0  0  0  0  0  0  0
   22.4801  -10.2153  -15.0717 C   0  0  2  0  0  0  0  0  0  0  0  0
   22.4400  -11.6123  -14.5522 C   0  0  0  0  0  0  0  0  0  0  0  0
   21.1810   -9.4800  -15.0415 C   0  0  2  0  0  0  0  0  0  0  0  0
   20.2976  -10.1326  -16.0171 N   0  0  0  0  0  0  0  0  0  0  0  0
   21.2936   -8.0303  -15.3230 C   0  0  0  0  0  0  0  0  0  0  0  0
   21.5408   -7.6416  -16.4905 O   0  0  0  0  0  0  0  0  0  0  0  0
   21.0049   -2.6315  -14.7223 N   0  0  0  0  0  0  0  0  0  0  0  0
   19.8797   -3.4839  -14.5607 C   0  0  0  0  0  0  0  0  0  0  0  0
   18.7581   -2.8596  -14.5063 O   0  0  0  0  0  0  0  0  0  0  0  0
   19.8927   -4.9367  -14.4590 C   0  0  0  0  0  0  0  0  0  0  0  0
   21.2344   -5.5975  -14.5946 C   0  0  2  0  0  0  0  0  0  0  0  0
   21.1357   -7.0312  -14.3309 N   0  0  0  0  0  0  0  0  0  0  0  0
   22.1762   -5.0658  -13.5780 C   0  0  0  0  0  0  0  0  0  0  0  0
   23.0402   -4.0005  -13.8180 O   0  0  0  0  0  0  0  0  0  0  0  0
   22.1949   -5.6118  -12.4304 O   0  0  0  0  0  0  0  0  0  0  0  0
  1  2  1  0
  3  5  1  0
  3  2  1  0
  3  4  1  1
  5  6  2  0
  5 11  1  0
  8  7  1  6
  8  9  1  0
  8 10  1  0
 10 12  1  0
 10 11  1  6
 12 13  2  0
 12 19  1  0
 15 17  1  0
 15 14  1  0
 16 15  2  0
 18 17  1  1
 19 18  1  0
 20 18  1  0
 20 21  1  0
 22 20  2  0
M  END
$$$$
