SVN.pdb
     RDKit          3D

 22 21  0  0  1  0  0  0  0  0999 V2000
   17.4110  -10.9807  -18.6494 O   0  0  0  0  0  0  0  0  0  0  0  0
   17.5222  -10.7915  -17.2786 C   0  0  0  0  0  0  0  0  0  0  0  0
   18.6762  -11.6483  -16.8065 C   0  0  2  0  0  0  0  0  0  0  0  0
   18.1755  -12.8627  -16.2366 N   0  0  0  0  0  0  0  0  0  0  0  0
   19.4708  -10.9248  -15.7694 C   0  0  0  0  0  0  0  0  0  0  0  0
   19.1836  -10.8930  -14.5648 O   0  0  0  0  0  0  0  0  0  0  0  0
   23.4888  -10.0324  -16.5767 C   0  0  0  0  0  0  0  0  0  0  0  0
   22.7961  -10.0480  -15.2118 C   0  0  2  0  0  0  0  0  0  0  0  0
   22.8391  -11.4360  -14.6690 C   0  0  0  0  0  0  0  0  0  0  0  0
   21.4420   -9.4219  -15.2714 C   0  0  2  0  0  0  0  0  0  0  0  0
   20.6409  -10.2241  -16.2057 N   0  0  0  0  0  0  0  0  0  0  0  0
   21.4458   -7.9965  -15.6734 C   0  0  0  0  0  0  0  0  0  0  0  0
   21.4625   -7.6947  -16.8915 O   0  0  0  0  0  0  0  0  0  0  0  0
   21.0637   -2.6090  -15.6250 N   0  0  0  0  0  0  0  0  0  0  0  0
   19.9859   -3.5085  -15.4057 C   0  0  0  0  0  0  0  0  0  0  0  0
   18.8300   -2.9480  -15.4192 O   0  0  0  0  0  0  0  0  0  0  0  0
   20.0793   -4.9444  -15.1803 C   0  0  0  0  0  0  0  0  0  0  0  0
   21.4667   -5.5165  -15.1244 C   0  0  2  0  0  0  0  0  0  0  0  0
   21.4315   -6.9269  -14.7445 N   0  0  0  0  0  0  0  0  0  0  0  0
   22.2628   -4.8366  -14.0722 C   0  0  0  0  0  0  0  0  0  0  0  0
   23.0575   -3.7193  -14.3157 O   0  0  0  0  0  0  0  0  0  0  0  0
   22.2169   -5.2989  -12.8891 O   0  0  0  0  0  0  0  0  0  0  0  0
  1  2  1  0
  3  5  1  0
  3  2  1  0
  3  4  1  1
  5  6  2  0
  5 11  1  0
  8  7  1  6
  8  9  1  0
  8 10  1  0
 10 12  1  0
 10 11  1  6
 12 13  2  0
 12 19  1  0
 15 17  1  0
 15 14  1  0
 16 15  2  0
 18 17  1  1
 19 18  1  0
 20 18  1  0
 20 21  1  0
 22 20  2  0
M  END
$$$$
