SVN.pdb
     RDKit          3D

 22 21  0  0  1  0  0  0  0  0999 V2000
   20.1809  -21.4275  -11.4410 O   0  0  0  0  0  0  0  0  0  0  0  0
   19.2507  -22.0814  -10.6444 C   0  0  0  0  0  0  0  0  0  0  0  0
   19.1207  -23.4895  -11.1824 C   0  0  2  0  0  0  0  0  0  0  0  0
   18.5582  -23.4544  -12.4986 N   0  0  0  0  0  0  0  0  0  0  0  0
   18.2288  -24.3021  -10.3021 C   0  0  0  0  0  0  0  0  0  0  0  0
   17.0026  -24.1487  -10.2167 O   0  0  0  0  0  0  0  0  0  0  0  0
   18.3232  -28.0510  -10.3422 C   0  0  0  0  0  0  0  0  0  0  0  0
   18.5388  -27.6040   -8.8942 C   0  0  2  0  0  0  0  0  0  0  0  0
   17.9869  -28.6478   -7.9837 C   0  0  0  0  0  0  0  0  0  0  0  0
   18.0365  -26.2171   -8.6626 C   0  0  2  0  0  0  0  0  0  0  0  0
   18.8408  -25.3244   -9.5078 N   0  0  0  0  0  0  0  0  0  0  0  0
   18.0799  -25.7805   -7.2481 C   0  0  0  0  0  0  0  0  0  0  0  0
   19.1874  -25.6472   -6.6729 O   0  0  0  0  0  0  0  0  0  0  0  0
   14.4149  -25.2764   -3.5632 N   0  0  0  0  0  0  0  0  0  0  0  0
   14.8380  -24.0509   -4.1446 C   0  0  0  0  0  0  0  0  0  0  0  0
   14.0461  -23.0656   -3.9145 O   0  0  0  0  0  0  0  0  0  0  0  0
   16.0384  -23.8302   -4.9392 C   0  0  0  0  0  0  0  0  0  0  0  0
   16.9473  -25.0137   -5.1076 C   0  0  2  0  0  0  0  0  0  0  0  0
   16.9195  -25.4974   -6.4860 N   0  0  0  0  0  0  0  0  0  0  0  0
   16.4765  -26.1481   -4.2741 C   0  0  0  0  0  0  0  0  0  0  0  0
   16.0525  -27.3637   -4.8049 O   0  0  0  0  0  0  0  0  0  0  0  0
   16.4590  -26.0014   -3.0117 O   0  0  0  0  0  0  0  0  0  0  0  0
  1  2  1  0
  3  5  1  0
  3  2  1  0
  3  4  1  6
  5  6  2  0
  5 11  1  0
  8  7  1  6
  8  9  1  0
  8 10  1  0
 10 12  1  0
 10 11  1  6
 12 13  2  0
 12 19  1  0
 15 17  1  0
 15 14  1  0
 16 15  2  0
 18 17  1  6
 19 18  1  0
 20 18  1  0
 20 21  1  0
 22 20  2  0
M  END
$$$$
