SVN.pdb
     RDKit          3D

 22 21  0  0  1  0  0  0  0  0999 V2000
   26.9072  -22.9268  -18.1373 O   0  0  0  0  0  0  0  0  0  0  0  0
   25.8390  -23.4110  -17.3945 C   0  0  0  0  0  0  0  0  0  0  0  0
   26.3990  -23.8812  -16.0700 C   0  0  2  0  0  0  0  0  0  0  0  0
   26.7975  -25.2526  -16.1729 N   0  0  0  0  0  0  0  0  0  0  0  0
   25.3668  -23.7618  -14.9972 C   0  0  0  0  0  0  0  0  0  0  0  0
   24.6057  -24.6771  -14.6543 O   0  0  0  0  0  0  0  0  0  0  0  0
   26.1273  -21.9260  -11.6259 C   0  0  0  0  0  0  0  0  0  0  0  0
   24.8769  -21.3382  -12.2848 C   0  0  2  0  0  0  0  0  0  0  0  0
   23.9632  -20.8389  -11.2176 C   0  0  0  0  0  0  0  0  0  0  0  0
   24.2671  -22.2890  -13.2612 C   0  0  2  0  0  0  0  0  0  0  0  0
   25.2569  -22.5018  -14.3258 N   0  0  0  0  0  0  0  0  0  0  0  0
   22.9757  -21.8370  -13.8281 C   0  0  0  0  0  0  0  0  0  0  0  0
   22.9433  -20.8260  -14.5710 O   0  0  0  0  0  0  0  0  0  0  0  0
   18.1542  -24.8824  -15.2635 N   0  0  0  0  0  0  0  0  0  0  0  0
   18.8047  -23.6274  -15.1195 C   0  0  0  0  0  0  0  0  0  0  0  0
   18.8406  -22.9333  -16.2000 O   0  0  0  0  0  0  0  0  0  0  0  0
   19.4029  -23.0884  -13.9058 C   0  0  0  0  0  0  0  0  0  0  0  0
   20.4579  -22.0373  -14.0985 C   0  0  2  0  0  0  0  0  0  0  0  0
   21.7448  -22.4919  -13.5767 N   0  0  0  0  0  0  0  0  0  0  0  0
   20.1183  -20.8177  -13.3236 C   0  0  0  0  0  0  0  0  0  0  0  0
   19.5070  -19.6996  -13.8851 O   0  0  0  0  0  0  0  0  0  0  0  0
   20.4009  -20.7932  -12.0846 O   0  0  0  0  0  0  0  0  0  0  0  0
  1  2  1  0
  3  5  1  0
  3  2  1  0
  3  4  1  6
  5  6  2  0
  5 11  1  0
  8  7  1  1
  8  9  1  0
  8 10  1  0
 10 12  1  0
 10 11  1  6
 12 13  2  0
 12 19  1  0
 15 17  1  0
 15 14  1  0
 16 15  2  0
 18 17  1  1
 19 18  1  0
 20 18  1  0
 20 21  1  0
 22 20  2  0
M  END
$$$$
