SVN.pdb
     RDKit          3D

 22 21  0  0  1  0  0  0  0  0999 V2000
   29.1255  -21.8549  -19.4348 O   0  0  0  0  0  0  0  0  0  0  0  0
   28.1522  -21.4662  -18.5243 C   0  0  0  0  0  0  0  0  0  0  0  0
   28.8397  -21.2995  -17.1870 C   0  0  2  0  0  0  0  0  0  0  0  0
   29.2036  -22.5830  -16.6670 N   0  0  0  0  0  0  0  0  0  0  0  0
   27.9269  -20.6297  -16.2130 C   0  0  0  0  0  0  0  0  0  0  0  0
   27.4299  -21.1861  -15.2241 O   0  0  0  0  0  0  0  0  0  0  0  0
   26.2129  -16.2623  -14.6342 C   0  0  0  0  0  0  0  0  0  0  0  0
   27.0946  -17.1052  -15.5590 C   0  0  2  0  0  0  0  0  0  0  0  0
   27.1775  -16.4313  -16.8865 C   0  0  0  0  0  0  0  0  0  0  0  0
   26.6594  -18.5331  -15.5882 C   0  0  2  0  0  0  0  0  0  0  0  0
   27.6108  -19.2526  -16.4458 N   0  0  0  0  0  0  0  0  0  0  0  0
   25.2701  -18.7382  -16.0586 C   0  0  0  0  0  0  0  0  0  0  0  0
   25.0206  -18.7134  -17.2883 O   0  0  0  0  0  0  0  0  0  0  0  0
   19.9119  -19.7524  -16.0531 N   0  0  0  0  0  0  0  0  0  0  0  0
   20.5780  -20.0343  -14.8301 C   0  0  0  0  0  0  0  0  0  0  0  0
   19.8270  -20.5824  -13.9435 O   0  0  0  0  0  0  0  0  0  0  0  0
   21.9748  -19.7679  -14.5153 C   0  0  0  0  0  0  0  0  0  0  0  0
   22.8120  -19.2179  -15.6341 C   0  0  2  0  0  0  0  0  0  0  0  0
   24.1790  -18.9660  -15.1839 N   0  0  0  0  0  0  0  0  0  0  0  0
   22.2848  -17.9018  -16.0738 C   0  0  0  0  0  0  0  0  0  0  0  0
   21.4944  -17.7341  -17.2079 O   0  0  0  0  0  0  0  0  0  0  0  0
   22.5705  -16.8762  -15.3796 O   0  0  0  0  0  0  0  0  0  0  0  0
  1  2  1  0
  3  5  1  0
  3  2  1  0
  3  4  1  1
  5  6  2  0
  5 11  1  0
  8  7  1  1
  8  9  1  0
  8 10  1  0
 10 12  1  0
 10 11  1  6
 12 13  2  0
 12 19  1  0
 15 17  1  0
 15 14  1  0
 16 15  2  0
 18 17  1  1
 19 18  1  0
 20 18  1  0
 20 21  1  0
 22 20  2  0
M  END
$$$$
