SVN.pdb
     RDKit          3D

 22 21  0  0  1  0  0  0  0  0999 V2000
   20.2100  -14.6130  -17.1213 O   0  0  0  0  0  0  0  0  0  0  0  0
   20.3285  -13.3896  -17.7667 C   0  0  0  0  0  0  0  0  0  0  0  0
   20.0410  -12.3179  -16.7382 C   0  0  2  0  0  0  0  0  0  0  0  0
   18.6599  -12.3651  -16.3635 N   0  0  0  0  0  0  0  0  0  0  0  0
   20.3390  -10.9660  -17.2987 C   0  0  0  0  0  0  0  0  0  0  0  0
   21.4462  -10.6168  -17.7309 O   0  0  0  0  0  0  0  0  0  0  0  0
   17.4914   -7.2010  -18.2091 C   0  0  0  0  0  0  0  0  0  0  0  0
   18.4419   -8.2790  -18.7360 C   0  0  2  0  0  0  0  0  0  0  0  0
   17.6330   -9.4270  -19.2370 C   0  0  0  0  0  0  0  0  0  0  0  0
   19.4969   -8.6227  -17.7369 C   0  0  2  0  0  0  0  0  0  0  0  0
   19.2673  -10.0169  -17.3351 N   0  0  0  0  0  0  0  0  0  0  0  0
   19.5288   -7.7337  -16.5528 C   0  0  0  0  0  0  0  0  0  0  0  0
   18.7149   -7.9182  -15.6154 O   0  0  0  0  0  0  0  0  0  0  0  0
   21.2181   -3.9826  -12.9772 N   0  0  0  0  0  0  0  0  0  0  0  0
   22.2059   -4.5879  -13.7999 C   0  0  0  0  0  0  0  0  0  0  0  0
   23.4090   -4.2494  -13.5022 O   0  0  0  0  0  0  0  0  0  0  0  0
   21.9776   -5.5171  -14.8978 C   0  0  0  0  0  0  0  0  0  0  0  0
   20.5429   -5.8276  -15.2145 C   0  0  2  0  0  0  0  0  0  0  0  0
   20.4441   -6.6617  -16.4101 N   0  0  0  0  0  0  0  0  0  0  0  0
   19.8034   -4.5804  -15.5323 C   0  0  0  0  0  0  0  0  0  0  0  0
   19.7992   -3.9938  -16.7952 O   0  0  0  0  0  0  0  0  0  0  0  0
   19.1411   -4.0197  -14.6037 O   0  0  0  0  0  0  0  0  0  0  0  0
  1  2  1  0
  3  5  1  0
  3  2  1  0
  3  4  1  6
  5  6  2  0
  5 11  1  0
  8  7  1  1
  8  9  1  0
  8 10  1  0
 10 12  1  0
 10 11  1  1
 12 13  2  0
 12 19  1  0
 15 17  1  0
 15 14  1  0
 16 15  2  0
 18 17  1  6
 19 18  1  0
 20 18  1  0
 20 21  1  0
 22 20  2  0
M  END
$$$$
