SVN.pdb
     RDKit          3D

 22 21  0  0  1  0  0  0  0  0999 V2000
   16.4583  -12.5334  -11.6470 O   0  0  0  0  0  0  0  0  0  0  0  0
   16.4543  -11.1597  -11.8470 C   0  0  0  0  0  0  0  0  0  0  0  0
   15.3287  -10.5945  -11.0089 C   0  0  2  0  0  0  0  0  0  0  0  0
   14.0745  -11.1012  -11.4786 N   0  0  0  0  0  0  0  0  0  0  0  0
   15.3082   -9.1041  -11.1029 C   0  0  0  0  0  0  0  0  0  0  0  0
   14.8722   -8.4707  -12.0741 O   0  0  0  0  0  0  0  0  0  0  0  0
   15.8806   -7.0344   -7.4732 C   0  0  0  0  0  0  0  0  0  0  0  0
   15.1383   -6.4925   -8.6974 C   0  0  2  0  0  0  0  0  0  0  0  0
   13.6964   -6.8536   -8.5815 C   0  0  0  0  0  0  0  0  0  0  0  0
   15.8029   -6.8978   -9.9715 C   0  0  2  0  0  0  0  0  0  0  0  0
   15.8292   -8.3666   -9.9915 N   0  0  0  0  0  0  0  0  0  0  0  0
   17.1654   -6.3461  -10.1516 C   0  0  0  0  0  0  0  0  0  0  0  0
   18.0475   -6.5755   -9.2887 O   0  0  0  0  0  0  0  0  0  0  0  0
   22.1201   -5.4753  -11.7517 N   0  0  0  0  0  0  0  0  0  0  0  0
   21.0837   -6.2306  -12.3634 C   0  0  0  0  0  0  0  0  0  0  0  0
   21.4192   -6.7610  -13.4845 O   0  0  0  0  0  0  0  0  0  0  0  0
   19.7385   -6.4445  -11.8479 C   0  0  0  0  0  0  0  0  0  0  0  0
   18.9254   -5.2091  -11.5876 C   0  0  2  0  0  0  0  0  0  0  0  0
   17.5432   -5.5559  -11.2652 N   0  0  0  0  0  0  0  0  0  0  0  0
   18.8547   -4.3711  -12.8108 C   0  0  0  0  0  0  0  0  0  0  0  0
   19.8331   -3.4444  -13.1613 O   0  0  0  0  0  0  0  0  0  0  0  0
   17.8491   -4.5065  -13.5762 O   0  0  0  0  0  0  0  0  0  0  0  0
  1  2  1  0
  3  5  1  0
  3  2  1  0
  3  4  1  6
  5  6  2  0
  5 11  1  0
  8  7  1  1
  8  9  1  0
  8 10  1  0
 10 12  1  0
 10 11  1  1
 12 13  2  0
 12 19  1  0
 15 17  1  0
 15 14  1  0
 16 15  2  0
 18 17  1  6
 19 18  1  0
 20 18  1  0
 20 21  1  0
 22 20  2  0
M  END
$$$$
