SVN.pdb
     RDKit          3D

 22 21  0  0  1  0  0  0  0  0999 V2000
   18.0344  -25.0310   -9.6927 O   0  0  0  0  0  0  0  0  0  0  0  0
   19.2129  -25.2206   -8.9839 C   0  0  0  0  0  0  0  0  0  0  0  0
   19.3365  -24.0650   -8.0152 C   0  0  2  0  0  0  0  0  0  0  0  0
   18.2604  -24.1078   -7.0716 N   0  0  0  0  0  0  0  0  0  0  0  0
   19.2797  -22.7645   -8.7473 C   0  0  0  0  0  0  0  0  0  0  0  0
   18.3322  -21.9689   -8.6868 O   0  0  0  0  0  0  0  0  0  0  0  0
   22.9633  -21.3800  -10.3671 C   0  0  0  0  0  0  0  0  0  0  0  0
   21.7909  -20.5186   -9.8913 C   0  0  2  0  0  0  0  0  0  0  0  0
   21.9788  -20.2113   -8.4445 C   0  0  0  0  0  0  0  0  0  0  0  0
   20.4757  -21.1247  -10.2549 C   0  0  2  0  0  0  0  0  0  0  0  0
   20.3998  -22.4229   -9.5716 N   0  0  0  0  0  0  0  0  0  0  0  0
   20.2593  -21.2848  -11.7113 C   0  0  0  0  0  0  0  0  0  0  0  0
   20.6619  -22.3239  -12.2886 O   0  0  0  0  0  0  0  0  0  0  0  0
   18.7913  -18.1607  -16.7689 N   0  0  0  0  0  0  0  0  0  0  0  0
   18.4367  -19.2568  -15.9372 C   0  0  0  0  0  0  0  0  0  0  0  0
   17.9545  -20.2607  -16.5776 O   0  0  0  0  0  0  0  0  0  0  0  0
   18.5707  -19.3327  -14.4889 C   0  0  0  0  0  0  0  0  0  0  0  0
   19.4744  -20.4109  -13.9636 C   0  0  2  0  0  0  0  0  0  0  0  0
   19.6099  -20.3130  -12.5121 N   0  0  0  0  0  0  0  0  0  0  0  0
   20.8456  -20.2446  -14.5073 C   0  0  0  0  0  0  0  0  0  0  0  0
   21.3191  -20.9415  -15.6160 O   0  0  0  0  0  0  0  0  0  0  0  0
   21.6269  -19.4248  -13.9303 O   0  0  0  0  0  0  0  0  0  0  0  0
  1  2  1  0
  3  5  1  0
  3  2  1  0
  3  4  1  1
  5  6  2  0
  5 11  1  0
  8  7  1  1
  8  9  1  0
  8 10  1  0
 10 12  1  0
 10 11  1  1
 12 13  2  0
 12 19  1  0
 15 17  1  0
 15 14  1  0
 16 15  2  0
 18 17  1  6
 19 18  1  0
 20 18  1  0
 20 21  1  0
 22 20  2  0
M  END
$$$$
