SVN.pdb
     RDKit          3D

 22 21  0  0  1  0  0  0  0  0999 V2000
   18.1984  -14.9629  -14.1815 O   0  0  0  0  0  0  0  0  0  0  0  0
   18.8375  -13.8070  -14.6090 C   0  0  0  0  0  0  0  0  0  0  0  0
   18.4987  -13.6306  -16.0729 C   0  0  2  0  0  0  0  0  0  0  0  0
   19.0534  -14.7110  -16.8313 N   0  0  0  0  0  0  0  0  0  0  0  0
   19.0628  -12.3464  -16.5861 C   0  0  0  0  0  0  0  0  0  0  0  0
   20.1516  -12.2440  -17.1678 O   0  0  0  0  0  0  0  0  0  0  0  0
   16.3339   -9.1401  -17.0507 C   0  0  0  0  0  0  0  0  0  0  0  0
   17.6404   -9.3681  -17.8151 C   0  0  2  0  0  0  0  0  0  0  0  0
   17.3555  -10.2163  -19.0078 C   0  0  0  0  0  0  0  0  0  0  0  0
   18.7270   -9.8627  -16.9184 C   0  0  2  0  0  0  0  0  0  0  0  0
   18.2861  -11.1598  -16.3879 N   0  0  0  0  0  0  0  0  0  0  0  0
   19.0778   -8.9370  -15.8168 C   0  0  0  0  0  0  0  0  0  0  0  0
   18.4571   -9.0036  -14.7280 O   0  0  0  0  0  0  0  0  0  0  0  0
   22.8373   -5.7571  -12.8158 N   0  0  0  0  0  0  0  0  0  0  0  0
   22.3174   -5.5030  -14.1135 C   0  0  0  0  0  0  0  0  0  0  0  0
   22.2740   -4.2564  -14.4212 O   0  0  0  0  0  0  0  0  0  0  0  0
   21.8544   -6.4918  -15.0773 C   0  0  0  0  0  0  0  0  0  0  0  0
   20.4961   -7.0791  -14.8222 C   0  0  2  0  0  0  0  0  0  0  0  0
   20.0959   -7.9571  -15.9194 N   0  0  0  0  0  0  0  0  0  0  0  0
   19.4716   -6.0062  -14.7719 C   0  0  0  0  0  0  0  0  0  0  0  0
   19.0065   -5.4470  -13.5845 O   0  0  0  0  0  0  0  0  0  0  0  0
   18.9945   -5.5771  -15.8691 O   0  0  0  0  0  0  0  0  0  0  0  0
  1  2  1  0
  3  5  1  0
  3  2  1  0
  3  4  1  6
  5  6  2  0
  5 11  1  0
  8  7  1  1
  8  9  1  0
  8 10  1  0
 10 12  1  0
 10 11  1  1
 12 13  2  0
 12 19  1  0
 15 17  1  0
 15 14  1  0
 16 15  2  0
 18 17  1  6
 19 18  1  0
 20 18  1  0
 20 21  1  0
 22 20  2  0
M  END
$$$$
