SVN.pdb
     RDKit          3D

 22 21  0  0  1  0  0  0  0  0999 V2000
   26.4127  -17.6033  -16.2122 O   0  0  0  0  0  0  0  0  0  0  0  0
   27.3237  -17.5509  -15.1659 C   0  0  0  0  0  0  0  0  0  0  0  0
   28.0003  -18.9025  -15.1012 C   0  0  2  0  0  0  0  0  0  0  0  0
   28.4103  -19.3015  -16.4138 N   0  0  0  0  0  0  0  0  0  0  0  0
   27.0600  -19.9293  -14.5607 C   0  0  0  0  0  0  0  0  0  0  0  0
   26.5590  -20.8413  -15.2329 O   0  0  0  0  0  0  0  0  0  0  0  0
   25.0463  -21.6997  -10.3559 C   0  0  0  0  0  0  0  0  0  0  0  0
   25.9420  -20.6999  -11.0915 C   0  0  2  0  0  0  0  0  0  0  0  0
   25.7641  -19.3540  -10.4749 C   0  0  0  0  0  0  0  0  0  0  0  0
   25.7426  -20.7619  -12.5698 C   0  0  2  0  0  0  0  0  0  0  0  0
   26.7209  -19.8461  -13.1719 N   0  0  0  0  0  0  0  0  0  0  0  0
   24.3697  -20.4297  -13.0150 C   0  0  0  0  0  0  0  0  0  0  0  0
   24.0458  -19.2295  -13.1869 O   0  0  0  0  0  0  0  0  0  0  0  0
   19.3228  -20.9161  -14.9735 N   0  0  0  0  0  0  0  0  0  0  0  0
   20.2025  -22.0053  -15.2155 C   0  0  0  0  0  0  0  0  0  0  0  0
   19.7078  -22.9137  -15.9775 O   0  0  0  0  0  0  0  0  0  0  0  0
   21.5541  -22.1673  -14.6978 C   0  0  0  0  0  0  0  0  0  0  0  0
   22.0346  -21.1002  -13.7567 C   0  0  2  0  0  0  0  0  0  0  0  0
   23.3754  -21.4078  -13.2644 N   0  0  0  0  0  0  0  0  0  0  0  0
   21.1674  -21.0456  -12.5532 C   0  0  0  0  0  0  0  0  0  0  0  0
   20.1111  -20.1495  -12.4110 O   0  0  0  0  0  0  0  0  0  0  0  0
   21.4022  -21.8579  -11.6042 O   0  0  0  0  0  0  0  0  0  0  0  0
  1  2  1  0
  3  5  1  0
  3  2  1  0
  3  4  1  6
  5  6  2  0
  5 11  1  0
  8  7  1  1
  8  9  1  0
  8 10  1  0
 10 12  1  0
 10 11  1  6
 12 13  2  0
 12 19  1  0
 15 17  1  0
 15 14  1  0
 16 15  2  0
 18 17  1  6
 19 18  1  0
 20 18  1  0
 20 21  1  0
 22 20  2  0
M  END
$$$$
