SVN.pdb
     RDKit          3D

 22 21  0  0  1  0  0  0  0  0999 V2000
   15.9040  -12.4998  -17.2465 O   0  0  0  0  0  0  0  0  0  0  0  0
   16.6672  -11.6818  -16.4243 C   0  0  0  0  0  0  0  0  0  0  0  0
   17.9779  -12.3978  -16.1829 C   0  0  2  0  0  0  0  0  0  0  0  0
   17.7393  -13.6163  -15.4699 N   0  0  0  0  0  0  0  0  0  0  0  0
   18.8965  -11.5419  -15.3740 C   0  0  0  0  0  0  0  0  0  0  0  0
   18.7249  -11.2678  -14.1782 O   0  0  0  0  0  0  0  0  0  0  0  0
   23.4596   -9.9204  -14.8611 C   0  0  0  0  0  0  0  0  0  0  0  0
   22.3692  -10.7083  -15.5915 C   0  0  2  0  0  0  0  0  0  0  0  0
   22.7410  -10.8182  -17.0312 C   0  0  0  0  0  0  0  0  0  0  0  0
   21.0097  -10.1549  -15.3183 C   0  0  2  0  0  0  0  0  0  0  0  0
   20.0498  -11.0070  -16.0331 N   0  0  0  0  0  0  0  0  0  0  0  0
   20.8398   -8.7352  -15.7041 C   0  0  0  0  0  0  0  0  0  0  0  0
   20.7995   -8.4221  -16.9188 O   0  0  0  0  0  0  0  0  0  0  0  0
   20.3795   -3.3047  -15.2457 N   0  0  0  0  0  0  0  0  0  0  0  0
   19.7272   -4.0818  -14.2510 C   0  0  0  0  0  0  0  0  0  0  0  0
   18.9974   -3.3929  -13.4488 O   0  0  0  0  0  0  0  0  0  0  0  0
   19.8119   -5.5252  -14.0762 C   0  0  0  0  0  0  0  0  0  0  0  0
   20.5784   -6.2752  -15.1275 C   0  0  2  0  0  0  0  0  0  0  0  0
   20.7173   -7.6832  -14.7630 N   0  0  0  0  0  0  0  0  0  0  0  0
   21.9623   -5.7484  -15.2308 C   0  0  0  0  0  0  0  0  0  0  0  0
   22.3892   -4.9155  -16.2619 O   0  0  0  0  0  0  0  0  0  0  0  0
   22.7998   -6.0754  -14.3325 O   0  0  0  0  0  0  0  0  0  0  0  0
  1  2  1  0
  3  5  1  0
  3  2  1  0
  3  4  1  1
  5  6  2  0
  5 11  1  0
  8  7  1  1
  8  9  1  0
  8 10  1  0
 10 12  1  0
 10 11  1  6
 12 13  2  0
 12 19  1  0
 15 17  1  0
 15 14  1  0
 16 15  2  0
 18 17  1  1
 19 18  1  0
 20 18  1  0
 20 21  1  0
 22 20  2  0
M  END
$$$$
