SVN.pdb
     RDKit          3D

 22 21  0  0  1  0  0  0  0  0999 V2000
   18.9527  -14.0081  -15.3109 O   0  0  0  0  0  0  0  0  0  0  0  0
   19.2926  -12.7017  -15.6349 C   0  0  0  0  0  0  0  0  0  0  0  0
   18.3733  -12.2714  -16.7567 C   0  0  2  0  0  0  0  0  0  0  0  0
   18.7380  -12.9452  -17.9663 N   0  0  0  0  0  0  0  0  0  0  0  0
   18.4783  -10.7982  -16.9790 C   0  0  0  0  0  0  0  0  0  0  0  0
   19.3195  -10.2600  -17.7120 O   0  0  0  0  0  0  0  0  0  0  0  0
   15.3596   -8.7190  -17.9028 C   0  0  0  0  0  0  0  0  0  0  0  0
   16.0184   -8.1626  -16.6381 C   0  0  2  0  0  0  0  0  0  0  0  0
   15.7081   -6.7077  -16.5371 C   0  0  0  0  0  0  0  0  0  0  0  0
   17.4668   -8.5181  -16.5666 C   0  0  2  0  0  0  0  0  0  0  0  0
   17.5401   -9.9601  -16.2952 N   0  0  0  0  0  0  0  0  0  0  0  0
   18.2335   -7.7543  -15.5556 C   0  0  0  0  0  0  0  0  0  0  0  0
   18.0096   -7.9408  -14.3349 O   0  0  0  0  0  0  0  0  0  0  0  0
   21.9679   -4.5706  -13.2214 N   0  0  0  0  0  0  0  0  0  0  0  0
   22.3433   -5.3223  -14.3672 C   0  0  0  0  0  0  0  0  0  0  0  0
   23.5922   -5.2393  -14.6571 O   0  0  0  0  0  0  0  0  0  0  0  0
   21.4715   -6.1412  -15.1981 C   0  0  0  0  0  0  0  0  0  0  0  0
   20.0015   -6.0502  -14.9051 C   0  0  2  0  0  0  0  0  0  0  0  0
   19.2284   -6.8027  -15.8905 N   0  0  0  0  0  0  0  0  0  0  0  0
   19.5388   -4.6445  -15.0197 C   0  0  0  0  0  0  0  0  0  0  0  0
   19.4789   -3.7679  -13.9393 O   0  0  0  0  0  0  0  0  0  0  0  0
   19.1784   -4.2203  -16.1623 O   0  0  0  0  0  0  0  0  0  0  0  0
  1  2  1  0
  3  5  1  0
  3  2  1  0
  3  4  1  6
  5  6  2  0
  5 11  1  0
  8  7  1  6
  8  9  1  0
  8 10  1  0
 10 12  1  0
 10 11  1  1
 12 13  2  0
 12 19  1  0
 15 17  1  0
 15 14  1  0
 16 15  2  0
 18 17  1  6
 19 18  1  0
 20 18  1  0
 20 21  1  0
 22 20  2  0
M  END
$$$$
