DFE.pdb
     RDKit          3D

 29 29  0  0  1  0  0  0  0  0999 V2000
    8.4217  -17.0600   19.8265 N   0  0  0  0  0  0  0  0  0  0  0  0
    9.6392  -17.2896   20.5481 C   0  0  1  0  0  0  0  0  0  0  0  0
   10.8312  -17.2000   19.6618 C   0  0  0  0  0  0  0  0  0  0  0  0
   10.6480  -17.8322   18.3516 C   0  0  0  0  0  0  0  0  0  0  0  0
    9.5754  -17.8079   17.7377 O   0  0  0  0  0  0  0  0  0  0  0  0
    9.7120  -16.3603   21.7051 C   0  0  0  0  0  0  0  0  0  0  0  0
   10.8353  -15.9870   22.1467 O   0  0  0  0  0  0  0  0  0  0  0  0
   11.7510  -18.4974   17.7706 O   0  0  0  0  0  0  0  0  0  0  0  0
    8.5123  -15.9052   22.3004 N   0  0  0  0  0  0  0  0  0  0  0  0
    8.4590  -15.1291   23.4911 C   0  0  1  0  0  0  0  0  0  0  0  0
    7.2159  -14.2639   23.6391 C   0  0  0  0  0  0  0  0  0  0  0  0
    7.2385  -13.4980   24.9022 C   0  0  0  0  0  0  0  0  0  0  0  0
    7.9830  -12.3399   24.9354 C   0  0  0  0  0  0  0  0  0  0  0  0
    8.0441  -11.6020   26.0950 C   0  0  0  0  0  0  0  0  0  0  0  0
    7.3652  -12.0136   27.2250 C   0  0  0  0  0  0  0  0  0  0  0  0
    6.6313  -13.1632   27.1786 C   0  0  0  0  0  0  0  0  0  0  0  0
    6.5634  -13.9204   26.0034 C   0  0  0  0  0  0  0  0  0  0  0  0
    8.7498  -15.8689   24.7378 C   0  0  0  0  0  0  0  0  0  0  0  0
    8.0191  -16.8643   25.0185 O   0  0  0  0  0  0  0  0  0  0  0  0
    9.7877  -15.5302   25.6245 N   0  0  0  0  0  0  0  0  0  0  0  0
   10.2728  -16.5408   26.5684 C   0  0  1  0  0  0  0  0  0  0  0  0
   11.7349  -16.8017   26.3204 C   0  0  0  0  0  0  0  0  0  0  0  0
   11.9159  -18.0758   25.5473 C   0  0  0  0  0  0  0  0  0  0  0  0
   13.3594  -18.2980   25.2126 C   0  0  0  0  0  0  0  0  0  0  0  0
   13.6546  -19.2053   24.4287 O   0  0  0  0  0  0  0  0  0  0  0  0
   10.0799  -16.0203   27.9325 C   0  0  0  0  0  0  0  0  0  0  0  0
   10.0152  -14.7594   28.1370 O   0  0  0  0  0  0  0  0  0  0  0  0
   14.2971  -17.4896   25.7862 O   0  0  0  0  0  0  0  0  0  0  0  0
    9.9570  -16.8198   29.0332 O   0  0  0  0  0  0  0  0  0  0  0  0
  2  1  1  6
  2  3  1  0
  4  3  1  0
  4  8  1  0
  5  4  2  0
  6  2  1  0
  6  7  2  0
  9  6  1  0
 10  9  1  0
 11 12  1  0
 10 11  1  1
 12 17  2  0
 13 12  1  0
 13 14  2  0
 14 15  1  0
 15 16  2  0
 17 16  1  0
 18 10  1  0
 19 18  2  0
 20 18  1  0
 21 20  1  0
 21 22  1  6
 22 23  1  0
 23 24  1  0
 24 28  1  0
 25 24  2  0
 26 21  1  0
 27 26  2  0
 29 26  1  0
M  END
$$$$
