DFE.pdb
     RDKit          3D

 29 29  0  0  1  0  0  0  0  0999 V2000
    8.0519  -17.2676   19.7420 N   0  0  0  0  0  0  0  0  0  0  0  0
    9.4278  -17.0421   20.0760 C   0  0  1  0  0  0  0  0  0  0  0  0
   10.2007  -16.5272   18.9133 C   0  0  0  0  0  0  0  0  0  0  0  0
   10.1446  -17.3923   17.7308 C   0  0  0  0  0  0  0  0  0  0  0  0
    9.1616  -17.4457   16.9832 O   0  0  0  0  0  0  0  0  0  0  0  0
    9.5101  -16.1500   21.2613 C   0  0  0  0  0  0  0  0  0  0  0  0
   10.6280  -15.6935   21.6330 O   0  0  0  0  0  0  0  0  0  0  0  0
   11.2678  -18.1983   17.4385 O   0  0  0  0  0  0  0  0  0  0  0  0
    8.3255  -15.8240   21.9624 N   0  0  0  0  0  0  0  0  0  0  0  0
    8.2979  -15.0914   23.1812 C   0  0  1  0  0  0  0  0  0  0  0  0
    6.9873  -14.3739   23.4699 C   0  0  0  0  0  0  0  0  0  0  0  0
    7.0367  -13.6587   24.7617 C   0  0  0  0  0  0  0  0  0  0  0  0
    6.3750  -14.2210   25.8306 C   0  0  0  0  0  0  0  0  0  0  0  0
    6.3826  -13.5824   27.0492 C   0  0  0  0  0  0  0  0  0  0  0  0
    7.0481  -12.3829   27.2086 C   0  0  0  0  0  0  0  0  0  0  0  0
    7.6997  -11.8365   26.1412 C   0  0  0  0  0  0  0  0  0  0  0  0
    7.6972  -12.4788   24.8977 C   0  0  0  0  0  0  0  0  0  0  0  0
    8.7797  -15.8283   24.3691 C   0  0  0  0  0  0  0  0  0  0  0  0
    8.1417  -16.8639   24.7211 O   0  0  0  0  0  0  0  0  0  0  0  0
    9.9015  -15.4446   25.1257 N   0  0  0  0  0  0  0  0  0  0  0  0
   10.7567  -16.4846   25.7041 C   0  0  1  0  0  0  0  0  0  0  0  0
   12.1817  -16.2643   25.2704 C   0  0  0  0  0  0  0  0  0  0  0  0
   13.0779  -17.3127   25.8636 C   0  0  0  0  0  0  0  0  0  0  0  0
   14.4986  -17.1076   25.4338 C   0  0  0  0  0  0  0  0  0  0  0  0
   15.2834  -16.5639   26.2168 O   0  0  0  0  0  0  0  0  0  0  0  0
   10.6583  -16.3923   27.1707 C   0  0  0  0  0  0  0  0  0  0  0  0
   10.1363  -15.3602   27.7169 O   0  0  0  0  0  0  0  0  0  0  0  0
   14.8749  -17.5291   24.1918 O   0  0  0  0  0  0  0  0  0  0  0  0
   11.0979  -17.3693   28.0179 O   0  0  0  0  0  0  0  0  0  0  0  0
  2  1  1  6
  2  3  1  0
  4  3  1  0
  4  8  1  0
  5  4  2  0
  6  2  1  0
  6  7  2  0
  9  6  1  0
 10  9  1  0
 11 12  1  0
 10 11  1  1
 12 17  2  0
 13 12  1  0
 13 14  2  0
 14 15  1  0
 15 16  2  0
 17 16  1  0
 18 10  1  0
 19 18  2  0
 20 18  1  0
 21 20  1  0
 21 22  1  1
 22 23  1  0
 23 24  1  0
 24 28  1  0
 25 24  2  0
 26 21  1  0
 27 26  2  0
 29 26  1  0
M  END
$$$$
