DFE.pdb
     RDKit          3D

 29 29  0  0  1  0  0  0  0  0999 V2000
    8.6006  -16.8619   19.6600 N   0  0  0  0  0  0  0  0  0  0  0  0
    9.7910  -17.1501   20.4055 C   0  0  1  0  0  0  0  0  0  0  0  0
   11.0131  -17.0159   19.5673 C   0  0  0  0  0  0  0  0  0  0  0  0
   10.9138  -17.6729   18.2601 C   0  0  0  0  0  0  0  0  0  0  0  0
   10.2888  -18.7244   18.0822 O   0  0  0  0  0  0  0  0  0  0  0  0
    9.8320  -16.2982   21.6221 C   0  0  0  0  0  0  0  0  0  0  0  0
   10.9248  -16.1145   22.2289 O   0  0  0  0  0  0  0  0  0  0  0  0
   11.5641  -17.0718   17.1590 O   0  0  0  0  0  0  0  0  0  0  0  0
    8.6364  -15.7024   22.0871 N   0  0  0  0  0  0  0  0  0  0  0  0
    8.5239  -14.9994   23.3184 C   0  0  1  0  0  0  0  0  0  0  0  0
    7.3264  -14.0656   23.4182 C   0  0  0  0  0  0  0  0  0  0  0  0
    7.2651  -13.4056   24.7385 C   0  0  0  0  0  0  0  0  0  0  0  0
    8.1710  -12.4004   24.9944 C   0  0  0  0  0  0  0  0  0  0  0  0
    8.1595  -11.7674   26.2159 C   0  0  0  0  0  0  0  0  0  0  0  0
    7.2473  -12.1321   27.1865 C   0  0  0  0  0  0  0  0  0  0  0  0
    6.3552  -13.1300   26.9200 C   0  0  0  0  0  0  0  0  0  0  0  0
    6.3596  -13.7796   25.6803 C   0  0  0  0  0  0  0  0  0  0  0  0
    8.6581  -15.8322   24.5328 C   0  0  0  0  0  0  0  0  0  0  0  0
    7.7119  -16.6258   24.8127 O   0  0  0  0  0  0  0  0  0  0  0  0
    9.7726  -15.7919   25.3897 N   0  0  0  0  0  0  0  0  0  0  0  0
   10.0628  -16.9557   26.2318 C   0  0  1  0  0  0  0  0  0  0  0  0
   11.4427  -17.4716   25.9206 C   0  0  0  0  0  0  0  0  0  0  0  0
   11.7694  -18.6510   26.7902 C   0  0  0  0  0  0  0  0  0  0  0  0
   13.1458  -19.1663   26.4979 C   0  0  0  0  0  0  0  0  0  0  0  0
   13.8208  -18.5999   25.6330 O   0  0  0  0  0  0  0  0  0  0  0  0
    9.9919  -16.5288   27.6395 C   0  0  0  0  0  0  0  0  0  0  0  0
   10.0924  -15.2901   27.9422 O   0  0  0  0  0  0  0  0  0  0  0  0
   13.6046  -20.2438   27.1983 O   0  0  0  0  0  0  0  0  0  0  0  0
    9.8161  -17.3947   28.6811 O   0  0  0  0  0  0  0  0  0  0  0  0
  2  1  1  6
  2  3  1  0
  4  3  1  0
  4  8  1  0
  5  4  2  0
  6  2  1  0
  6  7  2  0
  9  6  1  0
 10  9  1  0
 11 12  1  0
 10 11  1  1
 12 17  2  0
 13 12  1  0
 13 14  2  0
 14 15  1  0
 15 16  2  0
 17 16  1  0
 18 10  1  0
 19 18  2  0
 20 18  1  0
 21 20  1  0
 21 22  1  6
 22 23  1  0
 23 24  1  0
 24 28  1  0
 25 24  2  0
 26 21  1  0
 27 26  2  0
 29 26  1  0
M  END
$$$$
