DFE.pdb
     RDKit          3D

 29 29  0  0  1  0  0  0  0  0999 V2000
    8.9206  -16.8046   20.9382 N   0  0  0  0  0  0  0  0  0  0  0  0
   10.2480  -16.5600   21.4218 C   0  0  1  0  0  0  0  0  0  0  0  0
   10.9467  -15.5229   20.6152 C   0  0  0  0  0  0  0  0  0  0  0  0
   11.1347  -15.8895   19.2080 C   0  0  0  0  0  0  0  0  0  0  0  0
   11.8041  -15.2116   18.4205 O   0  0  0  0  0  0  0  0  0  0  0  0
   10.1942  -16.2236   22.8680 C   0  0  0  0  0  0  0  0  0  0  0  0
   11.2397  -15.8473   23.4691 O   0  0  0  0  0  0  0  0  0  0  0  0
   10.5203  -17.0719   18.7377 O   0  0  0  0  0  0  0  0  0  0  0  0
    8.9629  -16.3326   23.5557 N   0  0  0  0  0  0  0  0  0  0  0  0
    8.8117  -16.1259   24.9548 C   0  0  1  0  0  0  0  0  0  0  0  0
    7.4099  -15.7335   25.3985 C   0  0  0  0  0  0  0  0  0  0  0  0
    7.3422  -14.3062   25.7738 C   0  0  0  0  0  0  0  0  0  0  0  0
    6.6617  -13.4545   24.9323 C   0  0  0  0  0  0  0  0  0  0  0  0
    6.5852  -12.1146   25.2351 C   0  0  0  0  0  0  0  0  0  0  0  0
    7.1850  -11.6177   26.3755 C   0  0  0  0  0  0  0  0  0  0  0  0
    7.8564  -12.4725   27.2007 C   0  0  0  0  0  0  0  0  0  0  0  0
    7.9397  -13.8370   26.9007 C   0  0  0  0  0  0  0  0  0  0  0  0
    9.3668  -17.1949   25.8123 C   0  0  0  0  0  0  0  0  0  0  0  0
    8.7132  -18.2753   25.9076 O   0  0  0  0  0  0  0  0  0  0  0  0
   10.5742  -17.0789   26.5241 N   0  0  0  0  0  0  0  0  0  0  0  0
   10.9941  -18.1812   27.3937 C   0  0  1  0  0  0  0  0  0  0  0  0
   12.4678  -18.4321   27.2136 C   0  0  0  0  0  0  0  0  0  0  0  0
   12.7807  -18.7017   25.7702 C   0  0  0  0  0  0  0  0  0  0  0  0
   14.2289  -19.0420   25.5912 C   0  0  0  0  0  0  0  0  0  0  0  0
   14.9601  -19.0691   26.5858 O   0  0  0  0  0  0  0  0  0  0  0  0
   10.7174  -17.7932   28.7872 C   0  0  0  0  0  0  0  0  0  0  0  0
   10.2773  -16.6223   29.0540 O   0  0  0  0  0  0  0  0  0  0  0  0
   14.6887  -19.3099   24.3347 O   0  0  0  0  0  0  0  0  0  0  0  0
   10.9012  -18.6286   29.8521 O   0  0  0  0  0  0  0  0  0  0  0  0
  2  1  1  6
  2  3  1  0
  4  3  1  0
  4  8  1  0
  5  4  2  0
  6  2  1  0
  6  7  2  0
  9  6  1  0
 10  9  1  0
 11 12  1  0
 10 11  1  6
 12 17  2  0
 13 12  1  0
 13 14  2  0
 14 15  1  0
 15 16  2  0
 17 16  1  0
 18 10  1  0
 19 18  2  0
 20 18  1  0
 21 20  1  0
 21 22  1  1
 22 23  1  0
 23 24  1  0
 24 28  1  0
 25 24  2  0
 26 21  1  0
 27 26  2  0
 29 26  1  0
M  END
$$$$
