DFE.pdb
     RDKit          3D

 29 29  0  0  1  0  0  0  0  0999 V2000
    9.3513  -16.8441   20.0978 N   0  0  0  0  0  0  0  0  0  0  0  0
   10.2715  -17.2699   21.1115 C   0  0  1  0  0  0  0  0  0  0  0  0
   11.6625  -17.3615   20.5909 C   0  0  0  0  0  0  0  0  0  0  0  0
   11.7502  -17.8394   19.2074 C   0  0  0  0  0  0  0  0  0  0  0  0
   12.0707  -18.9969   18.9153 O   0  0  0  0  0  0  0  0  0  0  0  0
   10.1574  -16.3747   22.2918 C   0  0  0  0  0  0  0  0  0  0  0  0
   11.1646  -16.1626   23.0244 O   0  0  0  0  0  0  0  0  0  0  0  0
   11.4537  -16.9310   18.1665 O   0  0  0  0  0  0  0  0  0  0  0  0
    8.9117  -15.7700   22.5805 N   0  0  0  0  0  0  0  0  0  0  0  0
    8.6352  -15.0474   23.7740 C   0  0  1  0  0  0  0  0  0  0  0  0
    7.4127  -14.1434   23.7092 C   0  0  0  0  0  0  0  0  0  0  0  0
    7.2237  -13.3998   24.9718 C   0  0  0  0  0  0  0  0  0  0  0  0
    8.0357  -12.3116   25.2015 C   0  0  0  0  0  0  0  0  0  0  0  0
    7.9042  -11.5979   26.3705 C   0  0  0  0  0  0  0  0  0  0  0  0
    6.9650  -11.9643   27.3143 C   0  0  0  0  0  0  0  0  0  0  0  0
    6.1668  -13.0449   27.0741 C   0  0  0  0  0  0  0  0  0  0  0  0
    6.2935  -13.7770   25.8880 C   0  0  0  0  0  0  0  0  0  0  0  0
    8.6417  -15.8537   25.0134 C   0  0  0  0  0  0  0  0  0  0  0  0
    7.7126  -16.6990   25.1734 O   0  0  0  0  0  0  0  0  0  0  0  0
    9.6176  -15.7343   26.0190 N   0  0  0  0  0  0  0  0  0  0  0  0
    9.8277  -16.8543   26.9405 C   0  0  1  0  0  0  0  0  0  0  0  0
   10.8308  -17.8105   26.3514 C   0  0  0  0  0  0  0  0  0  0  0  0
   11.1354  -18.9141   27.3226 C   0  0  0  0  0  0  0  0  0  0  0  0
   12.0331  -19.9406   26.7015 C   0  0  0  0  0  0  0  0  0  0  0  0
   12.7568  -19.6047   25.7592 O   0  0  0  0  0  0  0  0  0  0  0  0
   10.3383  -16.3103   28.2103 C   0  0  0  0  0  0  0  0  0  0  0  0
   10.6168  -17.0953   29.1810 O   0  0  0  0  0  0  0  0  0  0  0  0
   12.0188  -21.2110   27.1994 O   0  0  0  0  0  0  0  0  0  0  0  0
   10.5461  -14.9783   28.4295 O   0  0  0  0  0  0  0  0  0  0  0  0
  2  1  1  6
  2  3  1  0
  4  3  1  0
  4  8  1  0
  5  4  2  0
  6  2  1  0
  6  7  2  0
  9  6  1  0
 10  9  1  0
 11 12  1  0
 10 11  1  6
 12 17  2  0
 13 12  1  0
 13 14  2  0
 14 15  1  0
 15 16  2  0
 17 16  1  0
 18 10  1  0
 19 18  2  0
 20 18  1  0
 21 20  1  0
 21 22  1  6
 22 23  1  0
 23 24  1  0
 24 28  1  0
 25 24  2  0
 26 21  1  0
 27 26  2  0
 29 26  1  0
M  END
$$$$
