DFE.pdb
     RDKit          3D

 29 29  0  0  1  0  0  0  0  0999 V2000
   11.0018  -16.4532   19.8867 N   0  0  0  0  0  0  0  0  0  0  0  0
    9.7591  -16.6500   20.5742 C   0  0  1  0  0  0  0  0  0  0  0  0
    9.4466  -18.0947   20.7467 C   0  0  0  0  0  0  0  0  0  0  0  0
   10.5300  -18.9918   20.3326 C   0  0  0  0  0  0  0  0  0  0  0  0
   10.9127  -19.9453   21.0199 O   0  0  0  0  0  0  0  0  0  0  0  0
    9.7826  -15.9093   21.8619 C   0  0  0  0  0  0  0  0  0  0  0  0
   10.8827  -15.6785   22.4387 O   0  0  0  0  0  0  0  0  0  0  0  0
   11.1604  -18.7498   19.0914 O   0  0  0  0  0  0  0  0  0  0  0  0
    8.5624  -15.4717   22.4279 N   0  0  0  0  0  0  0  0  0  0  0  0
    8.4615  -14.7876   23.6708 C   0  0  1  0  0  0  0  0  0  0  0  0
    7.1877  -13.9758   23.8559 C   0  0  0  0  0  0  0  0  0  0  0  0
    7.1915  -13.2515   25.1436 C   0  0  0  0  0  0  0  0  0  0  0  0
    8.0560  -12.1880   25.2772 C   0  0  0  0  0  0  0  0  0  0  0  0
    8.1033  -11.4932   26.4639 C   0  0  0  0  0  0  0  0  0  0  0  0
    7.2912  -11.8541   27.5210 C   0  0  0  0  0  0  0  0  0  0  0  0
    6.4392  -12.9102   27.3752 C   0  0  0  0  0  0  0  0  0  0  0  0
    6.3843  -13.6229   26.1719 C   0  0  0  0  0  0  0  0  0  0  0  0
    8.7540  -15.6078   24.8658 C   0  0  0  0  0  0  0  0  0  0  0  0
    7.9728  -16.5691   25.1285 O   0  0  0  0  0  0  0  0  0  0  0  0
    9.8460  -15.3805   25.7224 N   0  0  0  0  0  0  0  0  0  0  0  0
   10.2001  -16.4054   26.7081 C   0  0  1  0  0  0  0  0  0  0  0  0
   11.5496  -16.9829   26.3724 C   0  0  0  0  0  0  0  0  0  0  0  0
   12.5620  -15.8867   26.2067 C   0  0  0  0  0  0  0  0  0  0  0  0
   13.4921  -16.1847   25.0704 C   0  0  0  0  0  0  0  0  0  0  0  0
   14.3788  -15.3693   24.7991 O   0  0  0  0  0  0  0  0  0  0  0  0
   10.2431  -15.7668   28.0345 C   0  0  0  0  0  0  0  0  0  0  0  0
   10.1125  -14.4990   28.1428 O   0  0  0  0  0  0  0  0  0  0  0  0
   13.3261  -17.3471   24.3752 O   0  0  0  0  0  0  0  0  0  0  0  0
   10.4150  -16.4599   29.1988 O   0  0  0  0  0  0  0  0  0  0  0  0
  2  1  1  1
  2  3  1  0
  4  3  1  0
  4  8  1  0
  5  4  2  0
  6  2  1  0
  6  7  2  0
  9  6  1  0
 10  9  1  0
 11 12  1  0
 10 11  1  1
 12 17  2  0
 13 12  1  0
 13 14  2  0
 14 15  1  0
 15 16  2  0
 17 16  1  0
 18 10  1  0
 19 18  2  0
 20 18  1  0
 21 20  1  0
 21 22  1  6
 22 23  1  0
 23 24  1  0
 24 28  1  0
 25 24  2  0
 26 21  1  0
 27 26  2  0
 29 26  1  0
M  END
$$$$
