DFE.pdb
     RDKit          3D

 29 29  0  0  1  0  0  0  0  0999 V2000
    9.9517  -16.0507   18.8229 N   0  0  0  0  0  0  0  0  0  0  0  0
    9.1233  -16.6898   19.8032 C   0  0  1  0  0  0  0  0  0  0  0  0
    9.3921  -18.1511   19.8848 C   0  0  0  0  0  0  0  0  0  0  0  0
    9.3077  -18.8451   18.5959 C   0  0  0  0  0  0  0  0  0  0  0  0
    8.4928  -18.5372   17.7190 O   0  0  0  0  0  0  0  0  0  0  0  0
    9.2825  -16.0022   21.1106 C   0  0  0  0  0  0  0  0  0  0  0  0
   10.4189  -15.9427   21.6596 O   0  0  0  0  0  0  0  0  0  0  0  0
   10.2009  -19.9125   18.3519 O   0  0  0  0  0  0  0  0  0  0  0  0
    8.1494  -15.4212   21.7265 N   0  0  0  0  0  0  0  0  0  0  0  0
    8.1567  -14.8495   23.0288 C   0  0  1  0  0  0  0  0  0  0  0  0
    6.9699  -13.9500   23.3423 C   0  0  0  0  0  0  0  0  0  0  0  0
    7.0282  -13.4431   24.7288 C   0  0  0  0  0  0  0  0  0  0  0  0
    7.7976  -12.3268   24.9705 C   0  0  0  0  0  0  0  0  0  0  0  0
    7.8921  -11.8282   26.2494 C   0  0  0  0  0  0  0  0  0  0  0  0
    7.2221  -12.4382   27.2915 C   0  0  0  0  0  0  0  0  0  0  0  0
    6.4632  -13.5439   27.0383 C   0  0  0  0  0  0  0  0  0  0  0  0
    6.3613  -14.0583   25.7406 C   0  0  0  0  0  0  0  0  0  0  0  0
    8.4164  -15.7997   24.1315 C   0  0  0  0  0  0  0  0  0  0  0  0
    7.6284  -16.7820   24.2631 O   0  0  0  0  0  0  0  0  0  0  0  0
    9.4847  -15.6735   25.0375 N   0  0  0  0  0  0  0  0  0  0  0  0
    9.8801  -16.8376   25.8351 C   0  0  1  0  0  0  0  0  0  0  0  0
   11.2855  -17.2412   25.4755 C   0  0  0  0  0  0  0  0  0  0  0  0
   11.7494  -18.3650   26.3564 C   0  0  0  0  0  0  0  0  0  0  0  0
   13.1323  -18.8030   25.9812 C   0  0  0  0  0  0  0  0  0  0  0  0
   13.4938  -18.6870   24.8062 O   0  0  0  0  0  0  0  0  0  0  0  0
    9.8145  -16.4596   27.2570 C   0  0  0  0  0  0  0  0  0  0  0  0
    9.7978  -15.2261   27.5948 O   0  0  0  0  0  0  0  0  0  0  0  0
   13.9436  -19.3148   26.9517 O   0  0  0  0  0  0  0  0  0  0  0  0
    9.7644  -17.3677   28.2760 O   0  0  0  0  0  0  0  0  0  0  0  0
  2  1  1  6
  2  3  1  0
  4  3  1  0
  4  8  1  0
  5  4  2  0
  6  2  1  0
  6  7  2  0
  9  6  1  0
 10  9  1  0
 11 12  1  0
 10 11  1  1
 12 17  2  0
 13 12  1  0
 13 14  2  0
 14 15  1  0
 15 16  2  0
 17 16  1  0
 18 10  1  0
 19 18  2  0
 20 18  1  0
 21 20  1  0
 21 22  1  6
 22 23  1  0
 23 24  1  0
 24 28  1  0
 25 24  2  0
 26 21  1  0
 27 26  2  0
 29 26  1  0
M  END
$$$$
