DFE.pdb
     RDKit          3D

 29 29  0  0  1  0  0  0  0  0999 V2000
    9.5058  -16.0109   19.0372 N   0  0  0  0  0  0  0  0  0  0  0  0
    8.8346  -16.7044   20.0975 C   0  0  1  0  0  0  0  0  0  0  0  0
    9.1938  -18.1482   20.1268 C   0  0  0  0  0  0  0  0  0  0  0  0
    8.8652  -18.8687   18.8927 C   0  0  0  0  0  0  0  0  0  0  0  0
    9.7118  -19.4625   18.2155 O   0  0  0  0  0  0  0  0  0  0  0  0
    9.1056  -16.0184   21.3873 C   0  0  0  0  0  0  0  0  0  0  0  0
   10.2674  -16.0398   21.8832 O   0  0  0  0  0  0  0  0  0  0  0  0
    7.5188  -18.8806   18.4642 O   0  0  0  0  0  0  0  0  0  0  0  0
    8.0490  -15.3478   22.0467 N   0  0  0  0  0  0  0  0  0  0  0  0
    8.1806  -14.6996   23.3059 C   0  0  1  0  0  0  0  0  0  0  0  0
    7.0848  -13.6942   23.6286 C   0  0  0  0  0  0  0  0  0  0  0  0
    7.2443  -13.1399   24.9888 C   0  0  0  0  0  0  0  0  0  0  0  0
    6.3243  -13.5121   25.9436 C   0  0  0  0  0  0  0  0  0  0  0  0
    6.4259  -13.0093   27.2203 C   0  0  0  0  0  0  0  0  0  0  0  0
    7.4424  -12.1350   27.5511 C   0  0  0  0  0  0  0  0  0  0  0  0
    8.3473  -11.7742   26.5953 C   0  0  0  0  0  0  0  0  0  0  0  0
    8.2518  -12.2805   25.2940 C   0  0  0  0  0  0  0  0  0  0  0  0
    8.4399  -15.5975   24.4516 C   0  0  0  0  0  0  0  0  0  0  0  0
    7.6102  -16.5282   24.6727 O   0  0  0  0  0  0  0  0  0  0  0  0
    9.5512  -15.4758   25.3050 N   0  0  0  0  0  0  0  0  0  0  0  0
    9.9864  -16.6446   26.0745 C   0  0  1  0  0  0  0  0  0  0  0  0
   11.3162  -17.1234   25.5554 C   0  0  0  0  0  0  0  0  0  0  0  0
   11.7832  -18.3187   26.3347 C   0  0  0  0  0  0  0  0  0  0  0  0
   13.1014  -18.8112   25.8199 C   0  0  0  0  0  0  0  0  0  0  0  0
   14.0704  -18.8244   26.5850 O   0  0  0  0  0  0  0  0  0  0  0  0
   10.1141  -16.2400   27.4848 C   0  0  0  0  0  0  0  0  0  0  0  0
   10.1506  -15.0004   27.7979 O   0  0  0  0  0  0  0  0  0  0  0  0
   13.1842  -19.2280   24.5232 O   0  0  0  0  0  0  0  0  0  0  0  0
   10.1952  -17.1288   28.5188 O   0  0  0  0  0  0  0  0  0  0  0  0
  2  1  1  6
  2  3  1  0
  4  3  1  0
  4  8  1  0
  5  4  2  0
  6  2  1  0
  6  7  2  0
  9  6  1  0
 10  9  1  0
 11 12  1  0
 10 11  1  1
 12 17  2  0
 13 12  1  0
 13 14  2  0
 14 15  1  0
 15 16  2  0
 17 16  1  0
 18 10  1  0
 19 18  2  0
 20 18  1  0
 21 20  1  0
 21 22  1  6
 22 23  1  0
 23 24  1  0
 24 28  1  0
 25 24  2  0
 26 21  1  0
 27 26  2  0
 29 26  1  0
M  END
$$$$
