DFE.pdb
     RDKit          3D

 29 29  0  0  1  0  0  0  0  0999 V2000
   11.9795  -19.5478   22.2513 N   0  0  0  0  0  0  0  0  0  0  0  0
   10.6422  -19.0435   22.3653 C   0  0  1  0  0  0  0  0  0  0  0  0
    9.6296  -20.1185   22.1832 C   0  0  0  0  0  0  0  0  0  0  0  0
    9.3767  -20.4672   20.7816 C   0  0  0  0  0  0  0  0  0  0  0  0
   10.1264  -21.1988   20.1253 O   0  0  0  0  0  0  0  0  0  0  0  0
   10.4921  -18.3254   23.6574 C   0  0  0  0  0  0  0  0  0  0  0  0
   11.2428  -17.3457   23.9274 O   0  0  0  0  0  0  0  0  0  0  0  0
    8.2227  -19.9399   20.1596 O   0  0  0  0  0  0  0  0  0  0  0  0
    9.5039  -18.7546   24.5739 N   0  0  0  0  0  0  0  0  0  0  0  0
    9.1916  -18.0753   25.7838 C   0  0  1  0  0  0  0  0  0  0  0  0
    7.8583  -17.3417   25.7831 C   0  0  0  0  0  0  0  0  0  0  0  0
    6.8446  -18.0651   24.9882 C   0  0  0  0  0  0  0  0  0  0  0  0
    6.2225  -19.1449   25.5743 C   0  0  0  0  0  0  0  0  0  0  0  0
    5.2820  -19.8567   24.8659 C   0  0  0  0  0  0  0  0  0  0  0  0
    4.9574  -19.4969   23.5728 C   0  0  0  0  0  0  0  0  0  0  0  0
    5.5816  -18.4249   23.0037 C   0  0  0  0  0  0  0  0  0  0  0  0
    6.5397  -17.6950   23.7166 C   0  0  0  0  0  0  0  0  0  0  0  0
    9.3645  -18.8737   27.0163 C   0  0  0  0  0  0  0  0  0  0  0  0
    9.2697  -18.2737   28.1273 O   0  0  0  0  0  0  0  0  0  0  0  0
    9.6271  -20.2554   27.0228 N   0  0  0  0  0  0  0  0  0  0  0  0
   10.6883  -20.7720   27.8914 C   0  0  1  0  0  0  0  0  0  0  0  0
   11.8749  -19.8462   27.8429 C   0  0  0  0  0  0  0  0  0  0  0  0
   12.9853  -20.3722   28.7056 C   0  0  0  0  0  0  0  0  0  0  0  0
   14.3055  -20.2600   28.0058 C   0  0  0  0  0  0  0  0  0  0  0  0
   14.8809  -21.2941   27.6535 O   0  0  0  0  0  0  0  0  0  0  0  0
   10.1606  -20.8403   29.2647 C   0  0  0  0  0  0  0  0  0  0  0  0
    9.0764  -20.2333   29.5683 O   0  0  0  0  0  0  0  0  0  0  0  0
   14.8253  -19.0183   27.7824 O   0  0  0  0  0  0  0  0  0  0  0  0
   10.7684  -21.5351   30.2713 O   0  0  0  0  0  0  0  0  0  0  0  0
  2  1  1  1
  2  3  1  0
  4  3  1  0
  4  8  1  0
  5  4  2  0
  6  2  1  0
  6  7  2  0
  9  6  1  0
 10  9  1  0
 11 12  1  0
 10 11  1  6
 12 17  2  0
 13 12  1  0
 13 14  2  0
 14 15  1  0
 15 16  2  0
 17 16  1  0
 18 10  1  0
 19 18  2  0
 20 18  1  0
 21 20  1  0
 21 22  1  1
 22 23  1  0
 23 24  1  0
 24 28  1  0
 25 24  2  0
 26 21  1  0
 27 26  2  0
 29 26  1  0
M  END
$$$$
