DFE.pdb
     RDKit          3D

 29 29  0  0  1  0  0  0  0  0999 V2000
    8.2469  -17.2061   20.0402 N   0  0  0  0  0  0  0  0  0  0  0  0
    9.6144  -17.0443   20.4394 C   0  0  1  0  0  0  0  0  0  0  0  0
   10.4673  -16.5800   19.3118 C   0  0  0  0  0  0  0  0  0  0  0  0
   10.2833  -17.3424   18.0729 C   0  0  0  0  0  0  0  0  0  0  0  0
   10.3444  -18.5761   18.0277 O   0  0  0  0  0  0  0  0  0  0  0  0
    9.6826  -16.1446   21.6199 C   0  0  0  0  0  0  0  0  0  0  0  0
   10.8024  -15.7411   22.0437 O   0  0  0  0  0  0  0  0  0  0  0  0
   10.0250  -16.6286   16.8811 O   0  0  0  0  0  0  0  0  0  0  0  0
    8.4827  -15.7519   22.2576 N   0  0  0  0  0  0  0  0  0  0  0  0
    8.4314  -15.0249   23.4790 C   0  0  1  0  0  0  0  0  0  0  0  0
    7.1597  -14.2169   23.6930 C   0  0  0  0  0  0  0  0  0  0  0  0
    7.1911  -13.4915   24.9796 C   0  0  0  0  0  0  0  0  0  0  0  0
    6.4281  -13.9877   26.0131 C   0  0  0  0  0  0  0  0  0  0  0  0
    6.4161  -13.3363   27.2249 C   0  0  0  0  0  0  0  0  0  0  0  0
    7.1627  -12.1898   27.4126 C   0  0  0  0  0  0  0  0  0  0  0  0
    7.9143  -11.7086   26.3801 C   0  0  0  0  0  0  0  0  0  0  0  0
    7.9325  -12.3644   25.1438 C   0  0  0  0  0  0  0  0  0  0  0  0
    8.7849  -15.7999   24.6877 C   0  0  0  0  0  0  0  0  0  0  0  0
    8.0986  -16.8312   24.9501 O   0  0  0  0  0  0  0  0  0  0  0  0
    9.8356  -15.4569   25.5572 N   0  0  0  0  0  0  0  0  0  0  0  0
   10.6049  -16.5273   26.1976 C   0  0  1  0  0  0  0  0  0  0  0  0
   11.9652  -16.6220   25.5588 C   0  0  0  0  0  0  0  0  0  0  0  0
   12.7821  -17.6927   26.2223 C   0  0  0  0  0  0  0  0  0  0  0  0
   14.1411  -17.7922   25.5991 C   0  0  0  0  0  0  0  0  0  0  0  0
   14.7224  -16.7529   25.2726 O   0  0  0  0  0  0  0  0  0  0  0  0
   10.7430  -16.1975   27.6263 C   0  0  0  0  0  0  0  0  0  0  0  0
   11.1461  -17.0841   28.4554 O   0  0  0  0  0  0  0  0  0  0  0  0
   14.6885  -19.0284   25.4144 O   0  0  0  0  0  0  0  0  0  0  0  0
   10.4642  -14.9651   28.1450 O   0  0  0  0  0  0  0  0  0  0  0  0
  2  1  1  6
  2  3  1  0
  4  3  1  0
  4  8  1  0
  5  4  2  0
  6  2  1  0
  6  7  2  0
  9  6  1  0
 10  9  1  0
 11 12  1  0
 10 11  1  1
 12 17  2  0
 13 12  1  0
 13 14  2  0
 14 15  1  0
 15 16  2  0
 17 16  1  0
 18 10  1  0
 19 18  2  0
 20 18  1  0
 21 20  1  0
 21 22  1  6
 22 23  1  0
 23 24  1  0
 24 28  1  0
 25 24  2  0
 26 21  1  0
 27 26  2  0
 29 26  1  0
M  END
$$$$
