DFE.pdb
     RDKit          3D

 29 29  0  0  1  0  0  0  0  0999 V2000
   10.6038  -16.5980   19.5336 N   0  0  0  0  0  0  0  0  0  0  0  0
    9.6423  -17.0621   20.4905 C   0  0  1  0  0  0  0  0  0  0  0  0
    9.7915  -18.5177   20.7612 C   0  0  0  0  0  0  0  0  0  0  0  0
    9.5070  -19.3710   19.6032 C   0  0  0  0  0  0  0  0  0  0  0  0
   10.3553  -19.6477   18.7477 O   0  0  0  0  0  0  0  0  0  0  0  0
    9.7311  -16.2363   21.7224 C   0  0  0  0  0  0  0  0  0  0  0  0
   10.8559  -16.0059   22.2497 O   0  0  0  0  0  0  0  0  0  0  0  0
    8.2029  -19.8972   19.4652 O   0  0  0  0  0  0  0  0  0  0  0  0
    8.5446  -15.7179   22.2919 N   0  0  0  0  0  0  0  0  0  0  0  0
    8.4964  -15.0107   23.5250 C   0  0  1  0  0  0  0  0  0  0  0  0
    7.2501  -14.1620   23.7306 C   0  0  0  0  0  0  0  0  0  0  0  0
    7.3054  -13.4225   25.0085 C   0  0  0  0  0  0  0  0  0  0  0  0
    6.3679  -13.7323   25.9685 C   0  0  0  0  0  0  0  0  0  0  0  0
    6.3731  -13.0590   27.1683 C   0  0  0  0  0  0  0  0  0  0  0  0
    7.3105  -12.0758   27.4170 C   0  0  0  0  0  0  0  0  0  0  0  0
    8.2338  -11.7785   26.4570 C   0  0  0  0  0  0  0  0  0  0  0  0
    8.2361  -12.4580   25.2334 C   0  0  0  0  0  0  0  0  0  0  0  0
    8.8002  -15.8183   24.7256 C   0  0  0  0  0  0  0  0  0  0  0  0
    7.9927  -16.7431   25.0357 O   0  0  0  0  0  0  0  0  0  0  0  0
    9.9305  -15.6174   25.5380 N   0  0  0  0  0  0  0  0  0  0  0  0
   10.1888  -16.5507   26.6380 C   0  0  1  0  0  0  0  0  0  0  0  0
   11.5863  -17.0980   26.5170 C   0  0  0  0  0  0  0  0  0  0  0  0
   11.7029  -17.9733   25.3028 C   0  0  0  0  0  0  0  0  0  0  0  0
   13.1151  -18.0099   24.8032 C   0  0  0  0  0  0  0  0  0  0  0  0
   13.3131  -18.1194   23.5894 O   0  0  0  0  0  0  0  0  0  0  0  0
   10.0463  -15.8131   27.9047 C   0  0  0  0  0  0  0  0  0  0  0  0
   10.2207  -16.4121   29.0213 O   0  0  0  0  0  0  0  0  0  0  0  0
   14.1327  -17.9208   25.7078 O   0  0  0  0  0  0  0  0  0  0  0  0
    9.7336  -14.4852   27.9717 O   0  0  0  0  0  0  0  0  0  0  0  0
  2  1  1  6
  2  3  1  0
  4  3  1  0
  4  8  1  0
  5  4  2  0
  6  2  1  0
  6  7  2  0
  9  6  1  0
 10  9  1  0
 11 12  1  0
 10 11  1  1
 12 17  2  0
 13 12  1  0
 13 14  2  0
 14 15  1  0
 15 16  2  0
 17 16  1  0
 18 10  1  0
 19 18  2  0
 20 18  1  0
 21 20  1  0
 21 22  1  6
 22 23  1  0
 23 24  1  0
 24 28  1  0
 25 24  2  0
 26 21  1  0
 27 26  2  0
 29 26  1  0
M  END
$$$$
