DFE.pdb
     RDKit          3D

 29 29  0  0  1  0  0  0  0  0999 V2000
    9.8836  -16.1159   19.4553 N   0  0  0  0  0  0  0  0  0  0  0  0
    9.5425  -17.0270   20.5085 C   0  0  1  0  0  0  0  0  0  0  0  0
   10.3564  -18.2713   20.4470 C   0  0  0  0  0  0  0  0  0  0  0  0
   10.3413  -18.9286   19.1363 C   0  0  0  0  0  0  0  0  0  0  0  0
    9.3841  -18.8534   18.3578 O   0  0  0  0  0  0  0  0  0  0  0  0
    9.6510  -16.3335   21.8180 C   0  0  0  0  0  0  0  0  0  0  0  0
   10.7597  -16.2931   22.4223 O   0  0  0  0  0  0  0  0  0  0  0  0
   11.4748  -19.6799   18.7524 O   0  0  0  0  0  0  0  0  0  0  0  0
    8.5009  -15.7254   22.3734 N   0  0  0  0  0  0  0  0  0  0  0  0
    8.4788  -15.0670   23.6339 C   0  0  1  0  0  0  0  0  0  0  0  0
    7.2737  -14.1676   23.8679 C   0  0  0  0  0  0  0  0  0  0  0  0
    7.3360  -13.5154   25.1921 C   0  0  0  0  0  0  0  0  0  0  0  0
    6.1955  -12.8988   25.6563 C   0  0  0  0  0  0  0  0  0  0  0  0
    6.2117  -12.2667   26.8783 C   0  0  0  0  0  0  0  0  0  0  0  0
    7.3621  -12.2458   27.6421 C   0  0  0  0  0  0  0  0  0  0  0  0
    8.4855  -12.8605   27.1702 C   0  0  0  0  0  0  0  0  0  0  0  0
    8.4783  -13.5059   25.9283 C   0  0  0  0  0  0  0  0  0  0  0  0
    8.7349  -15.9363   24.8022 C   0  0  0  0  0  0  0  0  0  0  0  0
    7.8320  -16.7588   25.1362 O   0  0  0  0  0  0  0  0  0  0  0  0
    9.9198  -15.9004   25.5591 N   0  0  0  0  0  0  0  0  0  0  0  0
   10.3284  -17.1001   26.2950 C   0  0  1  0  0  0  0  0  0  0  0  0
   11.7459  -17.4556   25.9323 C   0  0  0  0  0  0  0  0  0  0  0  0
   12.2053  -18.6474   26.7214 C   0  0  0  0  0  0  0  0  0  0  0  0
   13.6647  -18.9050   26.5006 C   0  0  0  0  0  0  0  0  0  0  0  0
   14.1693  -18.5774   25.4223 O   0  0  0  0  0  0  0  0  0  0  0  0
   10.2376  -16.8045   27.7349 C   0  0  0  0  0  0  0  0  0  0  0  0
   10.2182  -15.5925   28.1431 O   0  0  0  0  0  0  0  0  0  0  0  0
   14.3849  -19.4928   27.4995 O   0  0  0  0  0  0  0  0  0  0  0  0
   10.1661  -17.7697   28.6987 O   0  0  0  0  0  0  0  0  0  0  0  0
  2  1  1  6
  2  3  1  0
  4  3  1  0
  4  8  1  0
  5  4  2  0
  6  2  1  0
  6  7  2  0
  9  6  1  0
 10  9  1  0
 11 12  1  0
 10 11  1  1
 12 17  2  0
 13 12  1  0
 13 14  2  0
 14 15  1  0
 15 16  2  0
 17 16  1  0
 18 10  1  0
 19 18  2  0
 20 18  1  0
 21 20  1  0
 21 22  1  6
 22 23  1  0
 23 24  1  0
 24 28  1  0
 25 24  2  0
 26 21  1  0
 27 26  2  0
 29 26  1  0
M  END
$$$$
