DFE.pdb
     RDKit          3D

 29 29  0  0  1  0  0  0  0  0999 V2000
    9.0559  -17.4508   20.3697 N   0  0  0  0  0  0  0  0  0  0  0  0
   10.3679  -17.1033   20.8319 C   0  0  1  0  0  0  0  0  0  0  0  0
   11.2294  -16.6065   19.7249 C   0  0  0  0  0  0  0  0  0  0  0  0
   11.3692  -17.5489   18.6103 C   0  0  0  0  0  0  0  0  0  0  0  0
   10.6079  -17.5557   17.6365 O   0  0  0  0  0  0  0  0  0  0  0  0
   10.2576  -16.1349   21.9533 C   0  0  0  0  0  0  0  0  0  0  0  0
   11.2922  -15.5631   22.3991 O   0  0  0  0  0  0  0  0  0  0  0  0
   12.4234  -18.4886   18.6580 O   0  0  0  0  0  0  0  0  0  0  0  0
    8.9853  -15.8672   22.5104 N   0  0  0  0  0  0  0  0  0  0  0  0
    8.7770  -15.0855   23.6802 C   0  0  1  0  0  0  0  0  0  0  0  0
    7.4243  -14.3926   23.7577 C   0  0  0  0  0  0  0  0  0  0  0  0
    7.3242  -13.5366   24.9577 C   0  0  0  0  0  0  0  0  0  0  0  0
    6.5261  -13.9740   25.9912 C   0  0  0  0  0  0  0  0  0  0  0  0
    6.3923  -13.2023   27.1224 C   0  0  0  0  0  0  0  0  0  0  0  0
    7.0517  -11.9936   27.2291 C   0  0  0  0  0  0  0  0  0  0  0  0
    7.8393  -11.5718   26.1975 C   0  0  0  0  0  0  0  0  0  0  0  0
    7.9812  -12.3501   25.0428 C   0  0  0  0  0  0  0  0  0  0  0  0
    9.1092  -15.7588   24.9541 C   0  0  0  0  0  0  0  0  0  0  0  0
    8.4049  -16.7533   25.2981 O   0  0  0  0  0  0  0  0  0  0  0  0
   10.1585  -15.3579   25.8003 N   0  0  0  0  0  0  0  0  0  0  0  0
   10.5880  -16.2584   26.8738 C   0  0  1  0  0  0  0  0  0  0  0  0
   12.0814  -16.4405   26.8117 C   0  0  0  0  0  0  0  0  0  0  0  0
   12.4775  -17.0809   25.5128 C   0  0  0  0  0  0  0  0  0  0  0  0
   13.8113  -16.5767   25.0525 C   0  0  0  0  0  0  0  0  0  0  0  0
   14.2152  -16.9025   23.9321 O   0  0  0  0  0  0  0  0  0  0  0  0
   10.2097  -15.6480   28.1595 C   0  0  0  0  0  0  0  0  0  0  0  0
    9.7204  -14.4666   28.1918 O   0  0  0  0  0  0  0  0  0  0  0  0
   14.5328  -15.7749   25.8883 O   0  0  0  0  0  0  0  0  0  0  0  0
   10.3463  -16.2803   29.3625 O   0  0  0  0  0  0  0  0  0  0  0  0
  2  1  1  6
  2  3  1  0
  4  3  1  0
  4  8  1  0
  5  4  2  0
  6  2  1  0
  6  7  2  0
  9  6  1  0
 10  9  1  0
 11 12  1  0
 10 11  1  1
 12 17  2  0
 13 12  1  0
 13 14  2  0
 14 15  1  0
 15 16  2  0
 17 16  1  0
 18 10  1  0
 19 18  2  0
 20 18  1  0
 21 20  1  0
 21 22  1  1
 22 23  1  0
 23 24  1  0
 24 28  1  0
 25 24  2  0
 26 21  1  0
 27 26  2  0
 29 26  1  0
M  END
$$$$
