DFE.pdb
     RDKit          3D

 29 29  0  0  1  0  0  0  0  0999 V2000
    8.9109  -16.9686   19.7578 N   0  0  0  0  0  0  0  0  0  0  0  0
   10.1434  -17.1011   20.4784 C   0  0  1  0  0  0  0  0  0  0  0  0
   11.3211  -16.8173   19.6142 C   0  0  0  0  0  0  0  0  0  0  0  0
   11.3519  -17.5990   18.3740 C   0  0  0  0  0  0  0  0  0  0  0  0
   10.7818  -18.6890   18.2523 O   0  0  0  0  0  0  0  0  0  0  0  0
   10.1018  -16.2455   21.6924 C   0  0  0  0  0  0  0  0  0  0  0  0
   11.1739  -15.9357   22.2848 O   0  0  0  0  0  0  0  0  0  0  0  0
   12.0669  -17.0770   17.2727 O   0  0  0  0  0  0  0  0  0  0  0  0
    8.8518  -15.7885   22.1713 N   0  0  0  0  0  0  0  0  0  0  0  0
    8.6763  -15.0896   23.3975 C   0  0  1  0  0  0  0  0  0  0  0  0
    7.4353  -14.2114   23.4647 C   0  0  0  0  0  0  0  0  0  0  0  0
    7.3430  -13.5055   24.7592 C   0  0  0  0  0  0  0  0  0  0  0  0
    6.3986  -13.9430   25.6611 C   0  0  0  0  0  0  0  0  0  0  0  0
    6.2679  -13.3061   26.8736 C   0  0  0  0  0  0  0  0  0  0  0  0
    7.0757  -12.2325   27.1929 C   0  0  0  0  0  0  0  0  0  0  0  0
    8.0073  -11.8090   26.2900 C   0  0  0  0  0  0  0  0  0  0  0  0
    8.1474  -12.4506   25.0540 C   0  0  0  0  0  0  0  0  0  0  0  0
    8.8177  -15.9136   24.6171 C   0  0  0  0  0  0  0  0  0  0  0  0
    7.9995  -16.8651   24.7856 O   0  0  0  0  0  0  0  0  0  0  0  0
    9.8056  -15.7001   25.5951 N   0  0  0  0  0  0  0  0  0  0  0  0
   10.1571  -16.7979   26.5002 C   0  0  1  0  0  0  0  0  0  0  0  0
   11.5645  -17.2527   26.2183 C   0  0  0  0  0  0  0  0  0  0  0  0
   11.9645  -18.3406   27.1725 C   0  0  0  0  0  0  0  0  0  0  0  0
   13.3760  -18.7777   26.9242 C   0  0  0  0  0  0  0  0  0  0  0  0
   14.0065  -19.3022   27.8473 O   0  0  0  0  0  0  0  0  0  0  0  0
   10.0580  -16.2987   27.8822 C   0  0  0  0  0  0  0  0  0  0  0  0
    9.9004  -15.0491   28.1053 O   0  0  0  0  0  0  0  0  0  0  0  0
   13.9150  -18.5806   25.6862 O   0  0  0  0  0  0  0  0  0  0  0  0
   10.1210  -17.1073   28.9812 O   0  0  0  0  0  0  0  0  0  0  0  0
  2  1  1  6
  2  3  1  0
  4  3  1  0
  4  8  1  0
  5  4  2  0
  6  2  1  0
  6  7  2  0
  9  6  1  0
 10  9  1  0
 11 12  1  0
 10 11  1  6
 12 17  2  0
 13 12  1  0
 13 14  2  0
 14 15  1  0
 15 16  2  0
 17 16  1  0
 18 10  1  0
 19 18  2  0
 20 18  1  0
 21 20  1  0
 21 22  1  6
 22 23  1  0
 23 24  1  0
 24 28  1  0
 25 24  2  0
 26 21  1  0
 27 26  2  0
 29 26  1  0
M  END
$$$$
