DFE.pdb
     RDKit          3D

 29 29  0  0  1  0  0  0  0  0999 V2000
    9.1222  -17.1538   20.1630 N   0  0  0  0  0  0  0  0  0  0  0  0
   10.1698  -17.4244   21.1038 C   0  0  1  0  0  0  0  0  0  0  0  0
   11.5017  -17.4884   20.4433 C   0  0  0  0  0  0  0  0  0  0  0  0
   11.4387  -17.7230   18.9973 C   0  0  0  0  0  0  0  0  0  0  0  0
   10.7596  -18.6236   18.4915 O   0  0  0  0  0  0  0  0  0  0  0  0
   10.1201  -16.4247   22.2017 C   0  0  0  0  0  0  0  0  0  0  0  0
   11.1899  -16.0248   22.7418 O   0  0  0  0  0  0  0  0  0  0  0  0
   12.1903  -16.8783   18.1498 O   0  0  0  0  0  0  0  0  0  0  0  0
    8.8649  -15.9331   22.6302 N   0  0  0  0  0  0  0  0  0  0  0  0
    8.6777  -15.1318   23.7903 C   0  0  1  0  0  0  0  0  0  0  0  0
    7.3889  -14.3229   23.8114 C   0  0  0  0  0  0  0  0  0  0  0  0
    7.2891  -13.4982   25.0332 C   0  0  0  0  0  0  0  0  0  0  0  0
    6.4266  -13.9190   26.0209 C   0  0  0  0  0  0  0  0  0  0  0  0
    6.2912  -13.1745   27.1700 C   0  0  0  0  0  0  0  0  0  0  0  0
    7.0130  -12.0095   27.3402 C   0  0  0  0  0  0  0  0  0  0  0  0
    7.8641  -11.6038   26.3535 C   0  0  0  0  0  0  0  0  0  0  0  0
    8.0081  -12.3546   25.1811 C   0  0  0  0  0  0  0  0  0  0  0  0
    8.8965  -15.8268   25.0769 C   0  0  0  0  0  0  0  0  0  0  0  0
    8.1138  -16.7761   25.3765 O   0  0  0  0  0  0  0  0  0  0  0  0
    9.9205  -15.4939   25.9816 N   0  0  0  0  0  0  0  0  0  0  0  0
   10.4234  -16.5239   26.8948 C   0  0  1  0  0  0  0  0  0  0  0  0
   11.8561  -16.8409   26.5573 C   0  0  0  0  0  0  0  0  0  0  0  0
   12.3891  -17.9003   27.4780 C   0  0  0  0  0  0  0  0  0  0  0  0
   13.8028  -18.2520   27.1273 C   0  0  0  0  0  0  0  0  0  0  0  0
   14.2802  -17.8153   26.0757 O   0  0  0  0  0  0  0  0  0  0  0  0
   10.3354  -15.9982   28.2677 C   0  0  0  0  0  0  0  0  0  0  0  0
   10.2465  -14.7384   28.4699 O   0  0  0  0  0  0  0  0  0  0  0  0
   14.5128  -19.0430   27.9830 O   0  0  0  0  0  0  0  0  0  0  0  0
   10.3382  -16.7917   29.3795 O   0  0  0  0  0  0  0  0  0  0  0  0
  2  1  1  6
  2  3  1  0
  4  3  1  0
  4  8  1  0
  5  4  2  0
  6  2  1  0
  6  7  2  0
  9  6  1  0
 10  9  1  0
 11 12  1  0
 10 11  1  1
 12 17  2  0
 13 12  1  0
 13 14  2  0
 14 15  1  0
 15 16  2  0
 17 16  1  0
 18 10  1  0
 19 18  2  0
 20 18  1  0
 21 20  1  0
 21 22  1  6
 22 23  1  0
 23 24  1  0
 24 28  1  0
 25 24  2  0
 26 21  1  0
 27 26  2  0
 29 26  1  0
M  END
$$$$
