WCV.pdb
     RDKit          3D

 28 29  0  0  1  0  0  0  0  0999 V2000
   28.0669  -21.3212  -13.2147 N   0  0  0  0  0  0  0  0  0  0  0  0
   26.8482  -20.6226  -13.4851 C   0  0  1  0  0  0  0  0  0  0  0  0
   26.5277  -20.3498  -14.9010 C   0  0  0  0  0  0  0  0  0  0  0  0
   27.5151  -19.6268  -15.6891 C   0  0  0  0  0  0  0  0  0  0  0  0
   28.5299  -20.0831  -16.4988 C   0  0  0  0  0  0  0  0  0  0  0  0
   29.1604  -18.9941  -17.0234 N   0  0  0  0  0  0  0  0  0  0  0  0
   28.5879  -17.8720  -16.5790 C   0  0  0  0  0  0  0  0  0  0  0  0
   28.8068  -16.5055  -16.7792 C   0  0  0  0  0  0  0  0  0  0  0  0
   28.0218  -15.5552  -16.1609 C   0  0  0  0  0  0  0  0  0  0  0  0
   26.9794  -15.9292  -15.3147 C   0  0  0  0  0  0  0  0  0  0  0  0
   26.7706  -17.2697  -15.1260 C   0  0  0  0  0  0  0  0  0  0  0  0
   27.5480  -18.2293  -15.7362 C   0  0  0  0  0  0  0  0  0  0  0  0
   25.7126  -21.1550  -12.6710 C   0  0  0  0  0  0  0  0  0  0  0  0
   25.3641  -22.3357  -12.8499 O   0  0  0  0  0  0  0  0  0  0  0  0
   25.0291  -20.3656  -11.7169 N   0  0  0  0  0  0  0  0  0  0  0  0
   23.9007  -20.8307  -10.9316 C   0  0  1  0  0  0  0  0  0  0  0  0
   23.9867  -20.4315   -9.5150 C   0  0  0  0  0  0  0  0  0  0  0  0
   25.4489  -21.2278   -8.8000 S   0  0  0  0  0  0  0  0  0  0  0  0
   22.6134  -20.5223  -11.6106 C   0  0  0  0  0  0  0  0  0  0  0  0
   22.2705  -19.3376  -11.7634 O   0  0  0  0  0  0  0  0  0  0  0  0
   21.7495  -21.4913  -15.0541 C   0  0  0  0  0  0  0  0  0  0  0  0
   20.6351  -21.9677  -14.1943 C   0  0  1  0  0  0  0  0  0  0  0  0
   20.7134  -23.4706  -14.0351 C   0  0  0  0  0  0  0  0  0  0  0  0
   20.5630  -21.3051  -12.8329 C   0  0  2  0  0  0  0  0  0  0  0  0
   21.7978  -21.5850  -12.0741 N   0  0  0  0  0  0  0  0  0  0  0  0
   19.3704  -21.7214  -12.0708 C   0  0  0  0  0  0  0  0  0  0  0  0
   18.0787  -21.3034  -12.3923 O   0  0  0  0  0  0  0  0  0  0  0  0
   19.4492  -22.4836  -11.0776 O   0  0  0  0  0  0  0  0  0  0  0  0
  2  1  1  6
  2  3  1  0
  3  4  1  0
  4  5  2  0
  6  5  1  0
  7  6  1  0
  8  7  2  0
  9  8  1  0
 10  9  2  0
 10 11  1  0
 11 12  2  0
 12  7  1  0
 12  4  1  0
 13  2  1  0
 13 14  2  0
 15 13  1  0
 16 15  1  0
 17 18  1  0
 16 17  1  1
 19 16  1  0
 20 19  2  0
 22 21  1  1
 22 24  1  0
 23 22  1  0
 24 25  1  1
 24 26  1  0
 25 19  1  0
 26 28  2  0
 26 27  1  0
M  END
$$$$
