WCV.pdb
     RDKit          3D

 28 29  0  0  1  0  0  0  0  0999 V2000
   24.3870  -22.5879  -13.5234 N   0  0  0  0  0  0  0  0  0  0  0  0
   24.5996  -21.4845  -12.6381 C   0  0  1  0  0  0  0  0  0  0  0  0
   23.4004  -20.8311  -12.0753 C   0  0  0  0  0  0  0  0  0  0  0  0
   22.3789  -20.3775  -13.0080 C   0  0  0  0  0  0  0  0  0  0  0  0
   21.0602  -20.7453  -13.1475 C   0  0  0  0  0  0  0  0  0  0  0  0
   20.5319  -20.0080  -14.1652 N   0  0  0  0  0  0  0  0  0  0  0  0
   21.4600  -19.1927  -14.6734 C   0  0  0  0  0  0  0  0  0  0  0  0
   21.4840  -18.2399  -15.6966 C   0  0  0  0  0  0  0  0  0  0  0  0
   22.6317  -17.5357  -15.9942 C   0  0  0  0  0  0  0  0  0  0  0  0
   23.8086  -17.7516  -15.2795 C   0  0  0  0  0  0  0  0  0  0  0  0
   23.7756  -18.6850  -14.2776 C   0  0  0  0  0  0  0  0  0  0  0  0
   22.6365  -19.3963  -13.9709 C   0  0  0  0  0  0  0  0  0  0  0  0
   25.6869  -21.7680  -11.6515 C   0  0  0  0  0  0  0  0  0  0  0  0
   25.7774  -22.9203  -11.1916 O   0  0  0  0  0  0  0  0  0  0  0  0
   26.6030  -20.7769  -11.2282 N   0  0  0  0  0  0  0  0  0  0  0  0
   27.6747  -21.0097  -10.2777 C   0  0  1  0  0  0  0  0  0  0  0  0
   28.9983  -20.6290  -10.8039 C   0  0  0  0  0  0  0  0  0  0  0  0
   28.8712  -18.9474  -11.4667 S   0  0  0  0  0  0  0  0  0  0  0  0
   27.3311  -20.4591   -8.9390 C   0  0  0  0  0  0  0  0  0  0  0  0
   26.4402  -19.5981   -8.8416 O   0  0  0  0  0  0  0  0  0  0  0  0
   29.9755  -20.8982   -5.5043 C   0  0  0  0  0  0  0  0  0  0  0  0
   28.5114  -21.1316   -5.4039 C   0  0  1  0  0  0  0  0  0  0  0  0
   28.0245  -20.7625   -4.0193 C   0  0  0  0  0  0  0  0  0  0  0  0
   27.6860  -20.4128   -6.4525 C   0  0  2  0  0  0  0  0  0  0  0  0
   28.0247  -20.9262   -7.7943 N   0  0  0  0  0  0  0  0  0  0  0  0
   27.8554  -18.9485   -6.3903 C   0  0  0  0  0  0  0  0  0  0  0  0
   27.0881  -18.1291   -5.5619 O   0  0  0  0  0  0  0  0  0  0  0  0
   28.7082  -18.3481   -7.0872 O   0  0  0  0  0  0  0  0  0  0  0  0
  2  1  1  1
  2  3  1  0
  3  4  1  0
  4  5  2  0
  6  5  1  0
  7  6  1  0
  8  7  2  0
  9  8  1  0
 10  9  2  0
 10 11  1  0
 11 12  2  0
 12  7  1  0
 12  4  1  0
 13  2  1  0
 13 14  2  0
 15 13  1  0
 16 15  1  0
 17 18  1  0
 16 17  1  6
 19 16  1  0
 20 19  2  0
 22 21  1  1
 22 24  1  0
 23 22  1  0
 24 25  1  6
 24 26  1  0
 25 19  1  0
 26 28  2  0
 26 27  1  0
M  END
$$$$
