WCV.pdb
     RDKit          3D

 28 29  0  0  1  0  0  0  0  0999 V2000
   12.8546  -18.7305    0.8159 N   0  0  0  0  0  0  0  0  0  0  0  0
   13.0059  -18.3898    2.1971 C   0  0  1  0  0  0  0  0  0  0  0  0
   11.8715  -17.7059    2.8507 C   0  0  0  0  0  0  0  0  0  0  0  0
   11.3916  -16.4702    2.2496 C   0  0  0  0  0  0  0  0  0  0  0  0
   11.6909  -15.1567    2.5309 C   0  0  0  0  0  0  0  0  0  0  0  0
   10.9824  -14.3777    1.6650 N   0  0  0  0  0  0  0  0  0  0  0  0
   10.2493  -15.1426    0.8514 C   0  0  0  0  0  0  0  0  0  0  0  0
    9.3607  -14.8970   -0.1999 C   0  0  0  0  0  0  0  0  0  0  0  0
    8.7391  -15.9299   -0.8698 C   0  0  0  0  0  0  0  0  0  0  0  0
    8.9802  -17.2570   -0.5191 C   0  0  0  0  0  0  0  0  0  0  0  0
    9.8537  -17.4885    0.5103 C   0  0  0  0  0  0  0  0  0  0  0  0
   10.4801  -16.4663    1.1886 C   0  0  0  0  0  0  0  0  0  0  0  0
   13.6044  -19.5130    2.9819 C   0  0  0  0  0  0  0  0  0  0  0  0
   12.9214  -20.5381    3.1553 O   0  0  0  0  0  0  0  0  0  0  0  0
   14.9070  -19.4451    3.5291 N   0  0  0  0  0  0  0  0  0  0  0  0
   15.5415  -20.5260    4.2605 C   0  0  1  0  0  0  0  0  0  0  0  0
   16.6240  -21.1743    3.4978 C   0  0  0  0  0  0  0  0  0  0  0  0
   16.4302  -20.7146    1.7559 S   0  0  0  0  0  0  0  0  0  0  0  0
   15.8921  -20.1027    5.6430 C   0  0  0  0  0  0  0  0  0  0  0  0
   16.4548  -19.0095    5.8242 O   0  0  0  0  0  0  0  0  0  0  0  0
   13.8255  -19.2528    8.5459 C   0  0  0  0  0  0  0  0  0  0  0  0
   14.6817  -20.4004    8.9436 C   0  0  1  0  0  0  0  0  0  0  0  0
   13.8727  -21.6791    8.9207 C   0  0  0  0  0  0  0  0  0  0  0  0
   15.9378  -20.5665    8.1115 C   0  0  2  0  0  0  0  0  0  0  0  0
   15.5775  -20.9525    6.7331 N   0  0  0  0  0  0  0  0  0  0  0  0
   16.8757  -21.5396    8.7031 C   0  0  0  0  0  0  0  0  0  0  0  0
   17.1716  -22.7674    8.1101 O   0  0  0  0  0  0  0  0  0  0  0  0
   17.4679  -21.3176    9.7863 O   0  0  0  0  0  0  0  0  0  0  0  0
  2  1  1  6
  2  3  1  0
  3  4  1  0
  4  5  2  0
  6  5  1  0
  7  6  1  0
  8  7  2  0
  9  8  1  0
 10  9  2  0
 10 11  1  0
 11 12  2  0
 12  7  1  0
 12  4  1  0
 13  2  1  0
 13 14  2  0
 15 13  1  0
 16 15  1  0
 17 18  1  0
 16 17  1  6
 19 16  1  0
 20 19  2  0
 22 21  1  6
 22 24  1  0
 23 22  1  0
 24 25  1  6
 24 26  1  0
 25 19  1  0
 26 28  2  0
 26 27  1  0
M  END
$$$$
