WCV.pdb
     RDKit          3D

 28 29  0  0  1  0  0  0  0  0999 V2000
   26.5606  -22.0177  -14.3633 N   0  0  0  0  0  0  0  0  0  0  0  0
   26.1757  -21.3418  -13.1627 C   0  0  1  0  0  0  0  0  0  0  0  0
   26.7653  -20.0092  -12.9208 C   0  0  0  0  0  0  0  0  0  0  0  0
   28.2153  -19.9198  -12.8284 C   0  0  0  0  0  0  0  0  0  0  0  0
   29.1319  -19.2911  -13.6399 C   0  0  0  0  0  0  0  0  0  0  0  0
   30.3678  -19.4965  -13.1023 N   0  0  0  0  0  0  0  0  0  0  0  0
   30.2700  -20.2276  -11.9886 C   0  0  0  0  0  0  0  0  0  0  0  0
   31.1803  -20.7259  -11.0514 C   0  0  0  0  0  0  0  0  0  0  0  0
   30.7607  -21.4726   -9.9706 C   0  0  0  0  0  0  0  0  0  0  0  0
   29.4094  -21.7533   -9.7770 C   0  0  0  0  0  0  0  0  0  0  0  0
   28.5244  -21.2596  -10.6985 C   0  0  0  0  0  0  0  0  0  0  0  0
   28.9302  -20.5137  -11.7832 C   0  0  0  0  0  0  0  0  0  0  0  0
   24.7026  -21.4342  -12.9234 C   0  0  0  0  0  0  0  0  0  0  0  0
   23.9640  -21.6811  -13.8935 O   0  0  0  0  0  0  0  0  0  0  0  0
   24.1300  -21.2491  -11.6433 N   0  0  0  0  0  0  0  0  0  0  0  0
   22.7039  -21.2776  -11.3762 C   0  0  1  0  0  0  0  0  0  0  0  0
   22.3896  -21.1883   -9.9385 C   0  0  0  0  0  0  0  0  0  0  0  0
   21.7076  -19.5403   -9.6190 S   0  0  0  0  0  0  0  0  0  0  0  0
   21.9760  -20.3229  -12.2550 C   0  0  0  0  0  0  0  0  0  0  0  0
   22.3623  -19.1441  -12.3305 O   0  0  0  0  0  0  0  0  0  0  0  0
   19.1097  -19.5600  -16.1396 C   0  0  0  0  0  0  0  0  0  0  0  0
   20.0245  -20.3260  -15.2539 C   0  0  1  0  0  0  0  0  0  0  0  0
   21.4176  -20.3450  -15.8448 C   0  0  0  0  0  0  0  0  0  0  0  0
   20.0754  -19.8308  -13.8222 C   0  0  2  0  0  0  0  0  0  0  0  0
   20.8533  -20.7731  -12.9941 N   0  0  0  0  0  0  0  0  0  0  0  0
   18.7297  -19.6186  -13.2558 C   0  0  0  0  0  0  0  0  0  0  0  0
   18.0191  -20.6176  -12.5899 O   0  0  0  0  0  0  0  0  0  0  0  0
   18.1391  -18.5153  -13.3417 O   0  0  0  0  0  0  0  0  0  0  0  0
  2  1  1  6
  2  3  1  0
  3  4  1  0
  4  5  2  0
  6  5  1  0
  7  6  1  0
  8  7  2  0
  9  8  1  0
 10  9  2  0
 10 11  1  0
 11 12  2  0
 12  7  1  0
 12  4  1  0
 13  2  1  0
 13 14  2  0
 15 13  1  0
 16 15  1  0
 17 18  1  0
 16 17  1  1
 19 16  1  0
 20 19  2  0
 22 21  1  6
 22 24  1  0
 23 22  1  0
 24 25  1  1
 24 26  1  0
 25 19  1  0
 26 28  2  0
 26 27  1  0
M  END
$$$$
