WCV.pdb
     RDKit          3D

 28 29  0  0  1  0  0  0  0  0999 V2000
   25.3363  -18.7223  -13.4973 N   0  0  0  0  0  0  0  0  0  0  0  0
   24.9523  -20.0999  -13.4638 C   0  0  1  0  0  0  0  0  0  0  0  0
   25.7454  -21.0000  -12.6021 C   0  0  0  0  0  0  0  0  0  0  0  0
   27.1910  -20.8291  -12.5977 C   0  0  0  0  0  0  0  0  0  0  0  0
   28.0596  -20.4830  -13.6075 C   0  0  0  0  0  0  0  0  0  0  0  0
   29.3147  -20.4441  -13.0767 N   0  0  0  0  0  0  0  0  0  0  0  0
   29.2749  -20.7514  -11.7773 C   0  0  0  0  0  0  0  0  0  0  0  0
   30.2272  -20.8625  -10.7594 C   0  0  0  0  0  0  0  0  0  0  0  0
   29.8662  -21.2080   -9.4740 C   0  0  0  0  0  0  0  0  0  0  0  0
   28.5341  -21.4564   -9.1478 C   0  0  0  0  0  0  0  0  0  0  0  0
   27.6078  -21.3432  -10.1504 C   0  0  0  0  0  0  0  0  0  0  0  0
   27.9549  -21.0003  -11.4386 C   0  0  0  0  0  0  0  0  0  0  0  0
   23.4699  -20.2587  -13.3490 C   0  0  0  0  0  0  0  0  0  0  0  0
   22.9233  -19.9199  -12.2841 O   0  0  0  0  0  0  0  0  0  0  0  0
   22.6800  -20.7786  -14.4008 N   0  0  0  0  0  0  0  0  0  0  0  0
   21.2458  -20.9848  -14.3184 C   0  0  1  0  0  0  0  0  0  0  0  0
   20.4813  -20.0114  -15.1195 C   0  0  0  0  0  0  0  0  0  0  0  0
   18.7308  -20.1858  -14.6854 S   0  0  0  0  0  0  0  0  0  0  0  0
   20.8976  -22.4144  -14.5379 C   0  0  0  0  0  0  0  0  0  0  0  0
   21.3918  -23.0237  -15.5018 O   0  0  0  0  0  0  0  0  0  0  0  0
   18.8958  -26.5653  -12.6826 C   0  0  0  0  0  0  0  0  0  0  0  0
   19.3551  -25.1573  -12.5612 C   0  0  1  0  0  0  0  0  0  0  0  0
   20.6101  -25.0956  -11.7177 C   0  0  0  0  0  0  0  0  0  0  0  0
   19.5845  -24.4538  -13.8841 C   0  0  2  0  0  0  0  0  0  0  0  0
   20.0080  -23.0605  -13.6431 N   0  0  0  0  0  0  0  0  0  0  0  0
   18.3949  -24.4997  -14.7555 C   0  0  0  0  0  0  0  0  0  0  0  0
   18.2152  -25.4656  -15.7461 O   0  0  0  0  0  0  0  0  0  0  0  0
   17.4657  -23.6630  -14.6560 O   0  0  0  0  0  0  0  0  0  0  0  0
  2  1  1  1
  2  3  1  0
  3  4  1  0
  4  5  2  0
  6  5  1  0
  7  6  1  0
  8  7  2  0
  9  8  1  0
 10  9  2  0
 10 11  1  0
 11 12  2  0
 12  7  1  0
 12  4  1  0
 13  2  1  0
 13 14  2  0
 15 13  1  0
 16 15  1  0
 17 18  1  0
 16 17  1  6
 19 16  1  0
 20 19  2  0
 22 21  1  6
 22 24  1  0
 23 22  1  0
 24 25  1  1
 24 26  1  0
 25 19  1  0
 26 28  2  0
 26 27  1  0
M  END
$$$$
