WCV.pdb
     RDKit          3D

 28 29  0  0  1  0  0  0  0  0999 V2000
   16.0565  -16.6697    6.8974 N   0  0  0  0  0  0  0  0  0  0  0  0
   17.4375  -16.8665    7.2145 C   0  0  1  0  0  0  0  0  0  0  0  0
   18.2912  -15.6630    7.2838 C   0  0  0  0  0  0  0  0  0  0  0  0
   18.1926  -14.7024    6.1947 C   0  0  0  0  0  0  0  0  0  0  0  0
   17.2972  -14.6103    5.1537 C   0  0  0  0  0  0  0  0  0  0  0  0
   17.6337  -13.5145    4.4158 N   0  0  0  0  0  0  0  0  0  0  0  0
   18.7022  -12.9129    4.9457 C   0  0  0  0  0  0  0  0  0  0  0  0
   19.4601  -11.7828    4.6234 C   0  0  0  0  0  0  0  0  0  0  0  0
   20.5423  -11.4027    5.3890 C   0  0  0  0  0  0  0  0  0  0  0  0
   20.9147  -12.1357    6.5144 C   0  0  0  0  0  0  0  0  0  0  0  0
   20.1656  -13.2399    6.8239 C   0  0  0  0  0  0  0  0  0  0  0  0
   19.0833  -13.6314    6.0671 C   0  0  0  0  0  0  0  0  0  0  0  0
   17.6143  -17.8329    8.3417 C   0  0  0  0  0  0  0  0  0  0  0  0
   16.9738  -17.6368    9.3899 O   0  0  0  0  0  0  0  0  0  0  0  0
   18.4796  -18.9485    8.2544 N   0  0  0  0  0  0  0  0  0  0  0  0
   18.6482  -19.9339    9.3063 C   0  0  1  0  0  0  0  0  0  0  0  0
   17.7151  -21.0686    9.1816 C   0  0  0  0  0  0  0  0  0  0  0  0
   17.7016  -21.5901    7.4463 S   0  0  0  0  0  0  0  0  0  0  0  0
   20.0815  -20.2944    9.4766 C   0  0  0  0  0  0  0  0  0  0  0  0
   20.7954  -20.4562    8.4723 O   0  0  0  0  0  0  0  0  0  0  0  0
   21.9975  -19.6779   13.2254 C   0  0  0  0  0  0  0  0  0  0  0  0
   22.6938  -19.8517   11.9242 C   0  0  1  0  0  0  0  0  0  0  0  0
   24.1311  -20.2624   12.1598 C   0  0  0  0  0  0  0  0  0  0  0  0
   22.0241  -20.8278   10.9774 C   0  0  2  0  0  0  0  0  0  0  0  0
   20.6115  -20.4466   10.7825 N   0  0  0  0  0  0  0  0  0  0  0  0
   22.1339  -22.2233   11.4432 C   0  0  0  0  0  0  0  0  0  0  0  0
   23.1010  -23.1095   10.9678 O   0  0  0  0  0  0  0  0  0  0  0  0
   21.3548  -22.7000   12.3030 O   0  0  0  0  0  0  0  0  0  0  0  0
  2  1  1  1
  2  3  1  0
  3  4  1  0
  4  5  2  0
  6  5  1  0
  7  6  1  0
  8  7  2  0
  9  8  1  0
 10  9  2  0
 10 11  1  0
 11 12  2  0
 12  7  1  0
 12  4  1  0
 13  2  1  0
 13 14  2  0
 15 13  1  0
 16 15  1  0
 17 18  1  0
 16 17  1  6
 19 16  1  0
 20 19  2  0
 22 21  1  1
 22 24  1  0
 23 22  1  0
 24 25  1  1
 24 26  1  0
 25 19  1  0
 26 28  2  0
 26 27  1  0
M  END
$$$$
