WCV.pdb
     RDKit          3D

 28 29  0  0  1  0  0  0  0  0999 V2000
   15.7587  -13.5404  -14.4826 N   0  0  0  0  0  0  0  0  0  0  0  0
   15.3652  -12.1713  -14.6134 C   0  0  1  0  0  0  0  0  0  0  0  0
   14.5652  -11.5921  -13.5151 C   0  0  0  0  0  0  0  0  0  0  0  0
   13.3735  -12.3146  -13.0948 C   0  0  0  0  0  0  0  0  0  0  0  0
   12.6404  -13.2896  -13.7318 C   0  0  0  0  0  0  0  0  0  0  0  0
   11.6226  -13.6501  -12.8996 N   0  0  0  0  0  0  0  0  0  0  0  0
   11.6817  -12.9444  -11.7670 C   0  0  0  0  0  0  0  0  0  0  0  0
   10.9232  -12.8956  -10.5933 C   0  0  0  0  0  0  0  0  0  0  0  0
   11.2455  -12.0334   -9.5664 C   0  0  0  0  0  0  0  0  0  0  0  0
   12.3438  -11.1813   -9.6663 C   0  0  0  0  0  0  0  0  0  0  0  0
   13.0825  -11.2373  -10.8183 C   0  0  0  0  0  0  0  0  0  0  0  0
   12.7709  -12.0927  -11.8522 C   0  0  0  0  0  0  0  0  0  0  0  0
   16.4927  -11.3148  -15.0942 C   0  0  0  0  0  0  0  0  0  0  0  0
   17.6459  -11.5994  -14.7245 O   0  0  0  0  0  0  0  0  0  0  0  0
   16.2899  -10.2026  -15.9442 N   0  0  0  0  0  0  0  0  0  0  0  0
   17.3576   -9.3680  -16.4636 C   0  0  1  0  0  0  0  0  0  0  0  0
   16.9318   -8.5411  -17.6076 C   0  0  0  0  0  0  0  0  0  0  0  0
   18.3830   -7.6423  -18.2155 S   0  0  0  0  0  0  0  0  0  0  0  0
   18.0500   -8.6408  -15.3658 C   0  0  0  0  0  0  0  0  0  0  0  0
   17.3820   -8.1521  -14.4388 O   0  0  0  0  0  0  0  0  0  0  0  0
   22.4135   -8.6864  -15.0189 C   0  0  0  0  0  0  0  0  0  0  0  0
   21.4238   -8.4830  -13.9293 C   0  0  1  0  0  0  0  0  0  0  0  0
   22.0772   -7.7681  -12.7665 C   0  0  0  0  0  0  0  0  0  0  0  0
   20.1668   -7.7476  -14.3499 C   0  0  2  0  0  0  0  0  0  0  0  0
   19.4619   -8.5177  -15.3934 N   0  0  0  0  0  0  0  0  0  0  0  0
   20.4496   -6.3743  -14.8090 C   0  0  0  0  0  0  0  0  0  0  0  0
   20.2495   -5.9566  -16.1251 O   0  0  0  0  0  0  0  0  0  0  0  0
   20.8921   -5.4926  -14.0344 O   0  0  0  0  0  0  0  0  0  0  0  0
  2  1  1  1
  2  3  1  0
  3  4  1  0
  4  5  2  0
  6  5  1  0
  7  6  1  0
  8  7  2  0
  9  8  1  0
 10  9  2  0
 10 11  1  0
 11 12  2  0
 12  7  1  0
 12  4  1  0
 13  2  1  0
 13 14  2  0
 15 13  1  0
 16 15  1  0
 17 18  1  0
 16 17  1  6
 19 16  1  0
 20 19  2  0
 22 21  1  6
 22 24  1  0
 23 22  1  0
 24 25  1  6
 24 26  1  0
 25 19  1  0
 26 28  2  0
 26 27  1  0
M  END
$$$$
