WCV.pdb
     RDKit          3D

 28 29  0  0  1  0  0  0  0  0999 V2000
   20.6804  -24.0537  -17.3937 N   0  0  0  0  0  0  0  0  0  0  0  0
   21.4814  -24.5401  -16.3128 C   0  0  1  0  0  0  0  0  0  0  0  0
   22.9454  -24.3877  -16.4372 C   0  0  0  0  0  0  0  0  0  0  0  0
   23.5681  -24.8388  -17.6732 C   0  0  0  0  0  0  0  0  0  0  0  0
   24.1045  -24.1282  -18.7225 C   0  0  0  0  0  0  0  0  0  0  0  0
   24.5770  -25.0279  -19.6312 N   0  0  0  0  0  0  0  0  0  0  0  0
   24.3609  -26.2739  -19.2009 C   0  0  0  0  0  0  0  0  0  0  0  0
   24.6277  -27.5518  -19.7020 C   0  0  0  0  0  0  0  0  0  0  0  0
   24.2721  -28.6854  -19.0019 C   0  0  0  0  0  0  0  0  0  0  0  0
   23.6345  -28.5920  -17.7661 C   0  0  0  0  0  0  0  0  0  0  0  0
   23.3790  -27.3365  -17.2818 C   0  0  0  0  0  0  0  0  0  0  0  0
   23.7275  -26.1961  -17.9713 C   0  0  0  0  0  0  0  0  0  0  0  0
   20.9156  -24.1494  -14.9850 C   0  0  0  0  0  0  0  0  0  0  0  0
   21.1815  -23.0173  -14.5430 O   0  0  0  0  0  0  0  0  0  0  0  0
   20.0991  -25.0184  -14.2242 N   0  0  0  0  0  0  0  0  0  0  0  0
   19.4624  -24.6516  -12.9727 C   0  0  1  0  0  0  0  0  0  0  0  0
   18.7184  -23.3817  -13.0605 C   0  0  0  0  0  0  0  0  0  0  0  0
   17.9343  -23.0838  -11.4544 S   0  0  0  0  0  0  0  0  0  0  0  0
   18.7108  -25.7999  -12.3984 C   0  0  0  0  0  0  0  0  0  0  0  0
   17.7100  -26.2351  -12.9930 O   0  0  0  0  0  0  0  0  0  0  0  0
   20.6637  -28.8955  -11.2022 C   0  0  0  0  0  0  0  0  0  0  0  0
   19.6217  -28.5706  -10.1938 C   0  0  1  0  0  0  0  0  0  0  0  0
   20.2687  -28.0054   -8.9480 C   0  0  0  0  0  0  0  0  0  0  0  0
   18.5392  -27.6313  -10.6875 C   0  0  2  0  0  0  0  0  0  0  0  0
   19.1487  -26.3812  -11.1820 N   0  0  0  0  0  0  0  0  0  0  0  0
   17.5274  -27.3502   -9.6513 C   0  0  0  0  0  0  0  0  0  0  0  0
   17.3725  -26.0958   -9.0606 O   0  0  0  0  0  0  0  0  0  0  0  0
   16.7391  -28.2329   -9.2356 O   0  0  0  0  0  0  0  0  0  0  0  0
  2  1  1  6
  2  3  1  0
  3  4  1  0
  4  5  2  0
  6  5  1  0
  7  6  1  0
  8  7  2  0
  9  8  1  0
 10  9  2  0
 10 11  1  0
 11 12  2  0
 12  7  1  0
 12  4  1  0
 13  2  1  0
 13 14  2  0
 15 13  1  0
 16 15  1  0
 17 18  1  0
 16 17  1  6
 19 16  1  0
 20 19  2  0
 22 21  1  6
 22 24  1  0
 23 22  1  0
 24 25  1  1
 24 26  1  0
 25 19  1  0
 26 28  2  0
 26 27  1  0
M  END
$$$$
