WCV.pdb
     RDKit          3D

 28 29  0  0  1  0  0  0  0  0999 V2000
   26.1034  -20.7298  -10.8983 N   0  0  0  0  0  0  0  0  0  0  0  0
   25.3609  -20.5518  -12.1080 C   0  0  1  0  0  0  0  0  0  0  0  0
   25.9177  -21.1561  -13.3355 C   0  0  0  0  0  0  0  0  0  0  0  0
   27.1030  -20.5396  -13.9132 C   0  0  0  0  0  0  0  0  0  0  0  0
   28.4106  -20.9668  -13.9544 C   0  0  0  0  0  0  0  0  0  0  0  0
   29.1307  -20.0263  -14.6292 N   0  0  0  0  0  0  0  0  0  0  0  0
   28.3345  -19.0251  -15.0141 C   0  0  0  0  0  0  0  0  0  0  0  0
   28.5194  -17.8311  -15.7180 C   0  0  0  0  0  0  0  0  0  0  0  0
   27.4673  -16.9753  -15.9677 C   0  0  0  0  0  0  0  0  0  0  0  0
   26.1803  -17.2766  -15.5258 C   0  0  0  0  0  0  0  0  0  0  0  0
   26.0077  -18.4490  -14.8391 C   0  0  0  0  0  0  0  0  0  0  0  0
   27.0500  -19.3120  -14.5816 C   0  0  0  0  0  0  0  0  0  0  0  0
   23.8981  -20.7800  -11.8984 C   0  0  0  0  0  0  0  0  0  0  0  0
   23.5327  -21.8848  -11.4588 O   0  0  0  0  0  0  0  0  0  0  0  0
   22.9286  -19.7904  -12.1838 N   0  0  0  0  0  0  0  0  0  0  0  0
   21.4989  -19.9784  -12.0198 C   0  0  1  0  0  0  0  0  0  0  0  0
   20.9443  -19.1965  -10.8996 C   0  0  0  0  0  0  0  0  0  0  0  0
   19.2210  -19.7050  -10.6653 S   0  0  0  0  0  0  0  0  0  0  0  0
   20.7882  -19.8355  -13.3190 C   0  0  0  0  0  0  0  0  0  0  0  0
   20.8656  -18.7643  -13.9443 O   0  0  0  0  0  0  0  0  0  0  0  0
   21.0955  -21.7860  -16.4726 C   0  0  0  0  0  0  0  0  0  0  0  0
   19.6686  -21.8470  -16.0625 C   0  0  1  0  0  0  0  0  0  0  0  0
   19.3488  -23.2200  -15.5123 C   0  0  0  0  0  0  0  0  0  0  0  0
   19.2532  -20.7805  -15.0686 C   0  0  2  0  0  0  0  0  0  0  0  0
   20.0344  -20.9243  -13.8246 N   0  0  0  0  0  0  0  0  0  0  0  0
   17.8051  -20.8112  -14.7880 C   0  0  0  0  0  0  0  0  0  0  0  0
   16.8367  -20.5667  -15.7622 O   0  0  0  0  0  0  0  0  0  0  0  0
   17.3551  -21.0609  -13.6441 O   0  0  0  0  0  0  0  0  0  0  0  0
  2  1  1  1
  2  3  1  0
  3  4  1  0
  4  5  2  0
  6  5  1  0
  7  6  1  0
  8  7  2  0
  9  8  1  0
 10  9  2  0
 10 11  1  0
 11 12  2  0
 12  7  1  0
 12  4  1  0
 13  2  1  0
 13 14  2  0
 15 13  1  0
 16 15  1  0
 17 18  1  0
 16 17  1  1
 19 16  1  0
 20 19  2  0
 22 21  1  1
 22 24  1  0
 23 22  1  0
 24 25  1  1
 24 26  1  0
 25 19  1  0
 26 28  2  0
 26 27  1  0
M  END
$$$$
