NQT.pdb
     RDKit          3D

 25 24  0  0  1  0  0  0  0  0999 V2000
   16.8979  -12.9935  -14.5403 N   0  0  0  0  0  0  0  0  0  0  0  0
   18.0890  -12.3375  -14.8758 C   0  0  0  0  0  0  0  0  0  0  0  0
   19.1163  -12.9344  -15.2913 O   0  0  0  0  0  0  0  0  0  0  0  0
   18.1738  -10.8510  -14.7437 C   0  0  0  0  0  0  0  0  0  0  0  0
   16.8730  -10.3654  -14.1285 C   0  0  2  0  0  0  0  0  0  0  0  0
   15.7495  -10.6167  -14.9729 N   0  0  0  0  0  0  0  0  0  0  0  0
   16.9691   -8.9737  -13.6604 C   0  0  0  0  0  0  0  0  0  0  0  0
   16.6812   -8.0690  -14.5050 O   0  0  0  0  0  0  0  0  0  0  0  0
   15.8063   -6.3519   -7.9290 N   0  0  0  0  0  0  0  0  0  0  0  0
   14.9409   -6.5908   -9.0309 C   0  0  0  0  0  0  0  0  0  0  0  0
   13.7042   -6.5352   -8.8250 O   0  0  0  0  0  0  0  0  0  0  0  0
   15.4137   -6.8963  -10.3859 C   0  0  0  0  0  0  0  0  0  0  0  0
   16.8831   -7.0384  -10.5355 C   0  0  0  0  0  0  0  0  0  0  0  0
   17.3637   -7.2520  -11.9528 C   0  0  2  0  0  0  0  0  0  0  0  0
   17.3612   -8.6304  -12.3371 N   0  0  0  0  0  0  0  0  0  0  0  0
   18.7745   -6.7415  -11.9693 C   0  0  0  0  0  0  0  0  0  0  0  0
   19.5685   -7.2343  -11.1239 O   0  0  0  0  0  0  0  0  0  0  0  0
   21.5995   -7.5822  -13.5867 C   0  0  0  0  0  0  0  0  0  0  0  0
   21.3891   -6.1298  -13.9479 C   0  0  1  0  0  0  0  0  0  0  0  0
   20.6764   -6.0168  -15.1488 O   0  0  0  0  0  0  0  0  0  0  0  0
   20.6038   -5.3859  -12.8919 C   0  0  2  0  0  0  0  0  0  0  0  0
   19.2119   -5.7611  -12.8750 N   0  0  0  0  0  0  0  0  0  0  0  0
   20.7691   -3.9177  -13.0784 C   0  0  0  0  0  0  0  0  0  0  0  0
   21.9781   -3.2792  -12.9232 O   0  0  0  0  0  0  0  0  0  0  0  0
   19.7545   -3.2488  -13.3900 O   0  0  0  0  0  0  0  0  0  0  0  0
  2  1  1  0
  2  3  2  0
  4  2  1  0
  5  4  1  0
  5  7  1  0
  5  6  1  6
  7  8  2  0
 10  9  1  0
 10 12  1  0
 11 10  2  0
 13 12  1  0
 14 13  1  1
 15 14  1  0
 15  7  1  0
 16 14  1  0
 16 17  2  0
 19 18  1  1
 19 21  1  0
 20 19  1  0
 21 22  1  6
 21 23  1  0
 22 16  1  0
 23 24  1  0
 25 23  2  0
M  END
$$$$
