NQT.pdb
     RDKit          3D

 25 24  0  0  1  0  0  0  0  0999 V2000
   15.8319  -15.4775  -15.7793 N   0  0  0  0  0  0  0  0  0  0  0  0
   16.1359  -14.2683  -16.4172 C   0  0  0  0  0  0  0  0  0  0  0  0
   16.0057  -14.0855  -17.6556 O   0  0  0  0  0  0  0  0  0  0  0  0
   16.6432  -13.1169  -15.6102 C   0  0  0  0  0  0  0  0  0  0  0  0
   17.8619  -12.5542  -16.3205 C   0  0  2  0  0  0  0  0  0  0  0  0
   18.9087  -13.5175  -16.4419 N   0  0  0  0  0  0  0  0  0  0  0  0
   18.2944  -11.2716  -15.7433 C   0  0  0  0  0  0  0  0  0  0  0  0
   18.0291  -11.0829  -14.5151 O   0  0  0  0  0  0  0  0  0  0  0  0
   23.3669   -7.5880  -17.1025 N   0  0  0  0  0  0  0  0  0  0  0  0
   22.5858   -6.9139  -16.1248 C   0  0  0  0  0  0  0  0  0  0  0  0
   23.0669   -5.8773  -15.6062 O   0  0  0  0  0  0  0  0  0  0  0  0
   21.2571   -7.3626  -15.6937 C   0  0  0  0  0  0  0  0  0  0  0  0
   20.7814   -8.6316  -16.2979 C   0  0  0  0  0  0  0  0  0  0  0  0
   19.4166   -9.0879  -15.8351 C   0  0  2  0  0  0  0  0  0  0  0  0
   18.9754  -10.2769  -16.4980 N   0  0  0  0  0  0  0  0  0  0  0  0
   18.4884   -7.9610  -16.1811 C   0  0  0  0  0  0  0  0  0  0  0  0
   18.3204   -7.7171  -17.4060 O   0  0  0  0  0  0  0  0  0  0  0  0
   14.8261   -7.4106  -15.7432 C   0  0  0  0  0  0  0  0  0  0  0  0
   15.5608   -6.2637  -15.0883 C   0  0  1  0  0  0  0  0  0  0  0  0
   15.6527   -6.4607  -13.7042 O   0  0  0  0  0  0  0  0  0  0  0  0
   16.9711   -6.1147  -15.6118 C   0  0  2  0  0  0  0  0  0  0  0  0
   17.8273   -7.2001  -15.2029 N   0  0  0  0  0  0  0  0  0  0  0  0
   17.5282   -4.7970  -15.1981 C   0  0  0  0  0  0  0  0  0  0  0  0
   16.9705   -3.5993  -15.5825 O   0  0  0  0  0  0  0  0  0  0  0  0
   18.5489   -4.7955  -14.4684 O   0  0  0  0  0  0  0  0  0  0  0  0
  2  1  1  0
  2  3  2  0
  4  2  1  0
  5  4  1  0
  5  7  1  0
  5  6  1  1
  7  8  2  0
 10  9  1  0
 10 12  1  0
 11 10  2  0
 13 12  1  0
 14 13  1  6
 15 14  1  0
 15  7  1  0
 16 14  1  0
 16 17  2  0
 19 18  1  6
 19 21  1  0
 20 19  1  0
 21 22  1  1
 21 23  1  0
 22 16  1  0
 23 24  1  0
 25 23  2  0
M  END
$$$$
