NQT.pdb
     RDKit          3D

 25 24  0  0  1  0  0  0  0  0999 V2000
   13.6040   -6.2453   -8.5369 N   0  0  0  0  0  0  0  0  0  0  0  0
   13.9475   -7.5778   -8.2758 C   0  0  0  0  0  0  0  0  0  0  0  0
   13.2994   -8.3205   -7.4931 O   0  0  0  0  0  0  0  0  0  0  0  0
   15.1412   -8.1761   -8.9476 C   0  0  0  0  0  0  0  0  0  0  0  0
   15.7337   -7.1212   -9.8655 C   0  0  2  0  0  0  0  0  0  0  0  0
   14.7732   -6.6074  -10.7883 N   0  0  0  0  0  0  0  0  0  0  0  0
   16.9834   -7.5761  -10.4953 C   0  0  0  0  0  0  0  0  0  0  0  0
   17.9309   -7.8964   -9.7116 O   0  0  0  0  0  0  0  0  0  0  0  0
   18.0802  -11.6232  -14.9498 N   0  0  0  0  0  0  0  0  0  0  0  0
   17.6691  -11.6168  -13.5892 C   0  0  0  0  0  0  0  0  0  0  0  0
   17.1907  -12.6772  -13.1185 O   0  0  0  0  0  0  0  0  0  0  0  0
   17.7742  -10.4448  -12.7127 C   0  0  0  0  0  0  0  0  0  0  0  0
   18.3777   -9.2365  -13.3272 C   0  0  0  0  0  0  0  0  0  0  0  0
   18.4317   -8.0216  -12.4293 C   0  0  2  0  0  0  0  0  0  0  0  0
   17.1495   -7.6623  -11.9052 N   0  0  0  0  0  0  0  0  0  0  0  0
   18.9325   -6.9099  -13.3036 C   0  0  0  0  0  0  0  0  0  0  0  0
   18.1391   -6.4728  -14.1797 O   0  0  0  0  0  0  0  0  0  0  0  0
   19.1085   -3.5646  -13.1315 C   0  0  0  0  0  0  0  0  0  0  0  0
   20.5382   -3.9469  -13.4379 C   0  0  1  0  0  0  0  0  0  0  0  0
   21.3061   -3.9705  -12.2663 O   0  0  0  0  0  0  0  0  0  0  0  0
   20.6414   -5.3181  -14.0659 C   0  0  2  0  0  0  0  0  0  0  0  0
   20.2208   -6.3666  -13.1702 N   0  0  0  0  0  0  0  0  0  0  0  0
   22.0283   -5.5467  -14.5578 C   0  0  0  0  0  0  0  0  0  0  0  0
   22.5968   -4.7928  -15.5587 O   0  0  0  0  0  0  0  0  0  0  0  0
   22.6935   -6.4687  -14.0273 O   0  0  0  0  0  0  0  0  0  0  0  0
  2  1  1  0
  2  3  2  0
  4  2  1  0
  5  4  1  0
  5  7  1  0
  5  6  1  6
  7  8  2  0
 10  9  1  0
 10 12  1  0
 11 10  2  0
 13 12  1  0
 14 13  1  6
 15 14  1  0
 15  7  1  0
 16 14  1  0
 16 17  2  0
 19 18  1  1
 19 21  1  0
 20 19  1  0
 21 22  1  1
 21 23  1  0
 22 16  1  0
 23 24  1  0
 25 23  2  0
M  END
$$$$
