NQT.pdb
     RDKit          3D

 25 24  0  0  1  0  0  0  0  0999 V2000
   12.2707   -8.3895   -9.2319 N   0  0  0  0  0  0  0  0  0  0  0  0
   13.3517   -7.8150   -8.5514 C   0  0  0  0  0  0  0  0  0  0  0  0
   13.2193   -6.9911   -7.6092 O   0  0  0  0  0  0  0  0  0  0  0  0
   14.7471   -8.1809   -8.9430 C   0  0  0  0  0  0  0  0  0  0  0  0
   14.6619   -9.1616  -10.0994 C   0  0  2  0  0  0  0  0  0  0  0  0
   14.1650  -10.4362   -9.6909 N   0  0  0  0  0  0  0  0  0  0  0  0
   15.9188   -9.2269  -10.8619 C   0  0  0  0  0  0  0  0  0  0  0  0
   16.7931  -10.0503  -10.4469 O   0  0  0  0  0  0  0  0  0  0  0  0
   16.1180   -9.5076  -16.8919 N   0  0  0  0  0  0  0  0  0  0  0  0
   15.9940  -10.4741  -15.8571 C   0  0  0  0  0  0  0  0  0  0  0  0
   15.4620  -11.5735  -16.1455 O   0  0  0  0  0  0  0  0  0  0  0  0
   16.4520  -10.2558  -14.4804 C   0  0  0  0  0  0  0  0  0  0  0  0
   17.0911   -8.9427  -14.2178 C   0  0  0  0  0  0  0  0  0  0  0  0
   17.3643   -8.6445  -12.7612 C   0  0  2  0  0  0  0  0  0  0  0  0
   16.1686   -8.4216  -12.0073 N   0  0  0  0  0  0  0  0  0  0  0  0
   18.1824   -7.3868  -12.7653 C   0  0  0  0  0  0  0  0  0  0  0  0
   17.5527   -6.2980  -12.8448 O   0  0  0  0  0  0  0  0  0  0  0  0
   20.2333   -6.0553  -10.0611 C   0  0  0  0  0  0  0  0  0  0  0  0
   21.1060   -6.0642  -11.2950 C   0  0  1  0  0  0  0  0  0  0  0  0
   21.9707   -7.1664  -11.2816 O   0  0  0  0  0  0  0  0  0  0  0  0
   20.2953   -6.1492  -12.5681 C   0  0  2  0  0  0  0  0  0  0  0  0
   19.5846   -7.3980  -12.6855 N   0  0  0  0  0  0  0  0  0  0  0  0
   21.1756   -5.9115  -13.7457 C   0  0  0  0  0  0  0  0  0  0  0  0
   21.8728   -4.7396  -13.9292 O   0  0  0  0  0  0  0  0  0  0  0  0
   21.2752   -6.8277  -14.5969 O   0  0  0  0  0  0  0  0  0  0  0  0
  2  1  1  0
  2  3  2  0
  4  2  1  0
  5  4  1  0
  5  7  1  0
  5  6  1  1
  7  8  2  0
 10  9  1  0
 10 12  1  0
 11 10  2  0
 13 12  1  0
 14 13  1  6
 15 14  1  0
 15  7  1  0
 16 14  1  0
 16 17  2  0
 19 18  1  1
 19 21  1  0
 20 19  1  0
 21 22  1  6
 21 23  1  0
 22 16  1  0
 23 24  1  0
 25 23  2  0
M  END
$$$$
