NQT.pdb
     RDKit          3D

 25 24  0  0  1  0  0  0  0  0999 V2000
   18.3363  -12.1506  -18.5837 N   0  0  0  0  0  0  0  0  0  0  0  0
   17.8043  -11.9763  -17.2998 C   0  0  0  0  0  0  0  0  0  0  0  0
   16.6568  -12.3704  -16.9653 O   0  0  0  0  0  0  0  0  0  0  0  0
   18.6193  -11.2900  -16.2516 C   0  0  0  0  0  0  0  0  0  0  0  0
   20.0520  -11.7754  -16.3867 C   0  0  2  0  0  0  0  0  0  0  0  0
   20.1669  -13.1833  -16.1789 N   0  0  0  0  0  0  0  0  0  0  0  0
   20.9851  -10.9742  -15.5788 C   0  0  0  0  0  0  0  0  0  0  0  0
   20.8558  -11.0522  -14.3171 O   0  0  0  0  0  0  0  0  0  0  0  0
   27.1496  -10.0356  -16.0840 N   0  0  0  0  0  0  0  0  0  0  0  0
   26.3195  -11.0734  -15.5800 C   0  0  0  0  0  0  0  0  0  0  0  0
   26.8607  -12.1708  -15.3011 O   0  0  0  0  0  0  0  0  0  0  0  0
   24.8744  -10.9303  -15.3699 C   0  0  0  0  0  0  0  0  0  0  0  0
   24.3178   -9.5814  -15.6391 C   0  0  0  0  0  0  0  0  0  0  0  0
   22.8576   -9.4105  -15.2875 C   0  0  2  0  0  0  0  0  0  0  0  0
   21.9889  -10.1470  -16.1540 N   0  0  0  0  0  0  0  0  0  0  0  0
   22.5841   -7.9443  -15.4507 C   0  0  0  0  0  0  0  0  0  0  0  0
   22.7216   -7.4646  -16.6079 O   0  0  0  0  0  0  0  0  0  0  0  0
   19.6444   -6.1970  -15.7268 C   0  0  0  0  0  0  0  0  0  0  0  0
   20.3648   -5.5007  -14.5953 C   0  0  1  0  0  0  0  0  0  0  0  0
   19.8994   -5.9590  -13.3559 O   0  0  0  0  0  0  0  0  0  0  0  0
   21.8560   -5.7463  -14.6298 C   0  0  2  0  0  0  0  0  0  0  0  0
   22.1924   -7.1255  -14.3788 N   0  0  0  0  0  0  0  0  0  0  0  0
   22.5415   -4.8361  -13.6708 C   0  0  0  0  0  0  0  0  0  0  0  0
   22.5017   -3.4656  -13.7874 O   0  0  0  0  0  0  0  0  0  0  0  0
   23.1774   -5.3558  -12.7224 O   0  0  0  0  0  0  0  0  0  0  0  0
  2  1  1  0
  2  3  2  0
  4  2  1  0
  5  4  1  0
  5  7  1  0
  5  6  1  1
  7  8  2  0
 10  9  1  0
 10 12  1  0
 11 10  2  0
 13 12  1  0
 14 13  1  6
 15 14  1  0
 15  7  1  0
 16 14  1  0
 16 17  2  0
 19 18  1  6
 19 21  1  0
 20 19  1  0
 21 22  1  1
 21 23  1  0
 22 16  1  0
 23 24  1  0
 25 23  2  0
M  END
$$$$
