NQT.pdb
     RDKit          3D

 25 24  0  0  1  0  0  0  0  0999 V2000
   13.5426  -12.8891  -14.9364 N   0  0  0  0  0  0  0  0  0  0  0  0
   13.0494  -11.7820  -14.2345 C   0  0  0  0  0  0  0  0  0  0  0  0
   12.0846  -11.0802  -14.6355 O   0  0  0  0  0  0  0  0  0  0  0  0
   13.6820  -11.3901  -12.9382 C   0  0  0  0  0  0  0  0  0  0  0  0
   15.1826  -11.5756  -13.0799 C   0  0  2  0  0  0  0  0  0  0  0  0
   15.5653  -12.9495  -13.0151 N   0  0  0  0  0  0  0  0  0  0  0  0
   15.9359  -10.7019  -12.1663 C   0  0  0  0  0  0  0  0  0  0  0  0
   16.2647  -11.2010  -11.0450 O   0  0  0  0  0  0  0  0  0  0  0  0
   20.9721   -7.3386  -13.4408 N   0  0  0  0  0  0  0  0  0  0  0  0
   20.5795   -6.9222  -12.1398 C   0  0  0  0  0  0  0  0  0  0  0  0
   21.3767   -6.2013  -11.4919 O   0  0  0  0  0  0  0  0  0  0  0  0
   19.3011   -7.2876  -11.5194 C   0  0  0  0  0  0  0  0  0  0  0  0
   18.4184   -8.1583  -12.3347 C   0  0  0  0  0  0  0  0  0  0  0  0
   17.1765   -8.6509  -11.6275 C   0  0  2  0  0  0  0  0  0  0  0  0
   16.2905   -9.3645  -12.4956 N   0  0  0  0  0  0  0  0  0  0  0  0
   16.4878   -7.4119  -11.1358 C   0  0  0  0  0  0  0  0  0  0  0  0
   15.9774   -6.6596  -12.0085 O   0  0  0  0  0  0  0  0  0  0  0  0
   13.6949   -6.8481   -8.3605 C   0  0  0  0  0  0  0  0  0  0  0  0
   14.9326   -6.0133   -8.1251 C   0  0  1  0  0  0  0  0  0  0  0  0
   15.7538   -6.6076   -7.1580 O   0  0  0  0  0  0  0  0  0  0  0  0
   15.7628   -5.8557   -9.3786 C   0  0  2  0  0  0  0  0  0  0  0  0
   16.4039   -7.0855   -9.7723 N   0  0  0  0  0  0  0  0  0  0  0  0
   16.7545   -4.7600   -9.1946 C   0  0  0  0  0  0  0  0  0  0  0  0
   16.3869   -3.4557   -8.9562 O   0  0  0  0  0  0  0  0  0  0  0  0
   17.9722   -5.0545   -9.2625 O   0  0  0  0  0  0  0  0  0  0  0  0
  2  1  1  0
  2  3  2  0
  4  2  1  0
  5  4  1  0
  5  7  1  0
  5  6  1  1
  7  8  2  0
 10  9  1  0
 10 12  1  0
 11 10  2  0
 13 12  1  0
 14 13  1  6
 15 14  1  0
 15  7  1  0
 16 14  1  0
 16 17  2  0
 19 18  1  6
 19 21  1  0
 20 19  1  0
 21 22  1  1
 21 23  1  0
 22 16  1  0
 23 24  1  0
 25 23  2  0
M  END
$$$$
