NQT.pdb
     RDKit          3D

 25 24  0  0  1  0  0  0  0  0999 V2000
   14.7260  -11.5137  -15.6268 N   0  0  0  0  0  0  0  0  0  0  0  0
   15.8302  -10.8818  -16.2126 C   0  0  0  0  0  0  0  0  0  0  0  0
   15.8934  -10.5883  -17.4348 O   0  0  0  0  0  0  0  0  0  0  0  0
   17.0095  -10.5252  -15.3663 C   0  0  0  0  0  0  0  0  0  0  0  0
   18.2570  -10.6902  -16.2166 C   0  0  2  0  0  0  0  0  0  0  0  0
   18.4403  -12.0380  -16.6505 N   0  0  0  0  0  0  0  0  0  0  0  0
   19.4440  -10.1024  -15.5756 C   0  0  0  0  0  0  0  0  0  0  0  0
   19.3004   -9.6917  -14.3817 O   0  0  0  0  0  0  0  0  0  0  0  0
   25.6861  -11.2725  -16.8328 N   0  0  0  0  0  0  0  0  0  0  0  0
   25.5931  -10.4565  -15.6728 C   0  0  0  0  0  0  0  0  0  0  0  0
   26.6508  -10.2156  -15.0418 O   0  0  0  0  0  0  0  0  0  0  0  0
   24.3354   -9.8851  -15.1783 C   0  0  0  0  0  0  0  0  0  0  0  0
   23.1221  -10.2341  -15.9580 C   0  0  0  0  0  0  0  0  0  0  0  0
   21.8441   -9.5867  -15.4758 C   0  0  2  0  0  0  0  0  0  0  0  0
   20.6990   -9.9874  -16.2348 N   0  0  0  0  0  0  0  0  0  0  0  0
   22.0594   -8.1127  -15.6553 C   0  0  0  0  0  0  0  0  0  0  0  0
   22.5602   -7.7394  -16.7498 O   0  0  0  0  0  0  0  0  0  0  0  0
   20.0723   -5.5330  -16.6025 C   0  0  0  0  0  0  0  0  0  0  0  0
   20.6362   -5.0634  -15.2813 C   0  0  1  0  0  0  0  0  0  0  0  0
   19.7298   -5.3078  -14.2414 O   0  0  0  0  0  0  0  0  0  0  0  0
   21.9239   -5.7709  -14.9254 C   0  0  2  0  0  0  0  0  0  0  0  0
   21.7263   -7.1749  -14.6642 N   0  0  0  0  0  0  0  0  0  0  0  0
   22.5741   -5.0893  -13.7719 C   0  0  0  0  0  0  0  0  0  0  0  0
   22.7100   -5.6818  -12.5375 O   0  0  0  0  0  0  0  0  0  0  0  0
   23.0111   -3.9267  -13.9489 O   0  0  0  0  0  0  0  0  0  0  0  0
  2  1  1  0
  2  3  2  0
  4  2  1  0
  5  4  1  0
  5  7  1  0
  5  6  1  1
  7  8  2  0
 10  9  1  0
 10 12  1  0
 11 10  2  0
 13 12  1  0
 14 13  1  6
 15 14  1  0
 15  7  1  0
 16 14  1  0
 16 17  2  0
 19 18  1  6
 19 21  1  0
 20 19  1  0
 21 22  1  1
 21 23  1  0
 22 16  1  0
 23 24  1  0
 25 23  2  0
M  END
$$$$
