NQT.pdb
     RDKit          3D

 25 24  0  0  1  0  0  0  0  0999 V2000
   13.1933   -6.3146   -8.7534 N   0  0  0  0  0  0  0  0  0  0  0  0
   14.4764   -6.0855   -8.2407 C   0  0  0  0  0  0  0  0  0  0  0  0
   14.7149   -5.2815   -7.3022 O   0  0  0  0  0  0  0  0  0  0  0  0
   15.6427   -6.8202   -8.8188 C   0  0  0  0  0  0  0  0  0  0  0  0
   15.1072   -7.8134   -9.8354 C   0  0  2  0  0  0  0  0  0  0  0  0
   14.6275   -9.0094   -9.2207 N   0  0  0  0  0  0  0  0  0  0  0  0
   16.0582   -8.0462  -10.9339 C   0  0  0  0  0  0  0  0  0  0  0  0
   16.9633   -8.9139  -10.7276 O   0  0  0  0  0  0  0  0  0  0  0  0
   16.8049   -5.8609  -16.8146 N   0  0  0  0  0  0  0  0  0  0  0  0
   17.3945   -7.1537  -16.7778 C   0  0  0  0  0  0  0  0  0  0  0  0
   18.1251   -7.4901  -17.7412 O   0  0  0  0  0  0  0  0  0  0  0  0
   17.1957   -8.1080  -15.6812 C   0  0  0  0  0  0  0  0  0  0  0  0
   16.3073   -7.6491  -14.5848 C   0  0  0  0  0  0  0  0  0  0  0  0
   16.9235   -7.6858  -13.2049 C   0  0  2  0  0  0  0  0  0  0  0  0
   15.9911   -7.3503  -12.1725 N   0  0  0  0  0  0  0  0  0  0  0  0
   18.0131   -6.6548  -13.2347 C   0  0  0  0  0  0  0  0  0  0  0  0
   17.6726   -5.4598  -13.0246 O   0  0  0  0  0  0  0  0  0  0  0  0
   22.1127   -7.4595  -12.5056 C   0  0  0  0  0  0  0  0  0  0  0  0
   21.3733   -6.1495  -12.3591 C   0  0  1  0  0  0  0  0  0  0  0  0
   22.2641   -5.0696  -12.4142 O   0  0  0  0  0  0  0  0  0  0  0  0
   20.3538   -5.9426  -13.4560 C   0  0  2  0  0  0  0  0  0  0  0  0
   19.3561   -6.9828  -13.4832 N   0  0  0  0  0  0  0  0  0  0  0  0
   21.0429   -5.8153  -14.7702 C   0  0  0  0  0  0  0  0  0  0  0  0
   21.7968   -4.7161  -15.1118 O   0  0  0  0  0  0  0  0  0  0  0  0
   20.9213   -6.7580  -15.5890 O   0  0  0  0  0  0  0  0  0  0  0  0
  2  1  1  0
  2  3  2  0
  4  2  1  0
  5  4  1  0
  5  7  1  0
  5  6  1  1
  7  8  2  0
 10  9  1  0
 10 12  1  0
 11 10  2  0
 13 12  1  0
 14 13  1  6
 15 14  1  0
 15  7  1  0
 16 14  1  0
 16 17  2  0
 19 18  1  6
 19 21  1  0
 20 19  1  0
 21 22  1  6
 21 23  1  0
 22 16  1  0
 23 24  1  0
 25 23  2  0
M  END
$$$$
