NQT.pdb
     RDKit          3D

 25 24  0  0  1  0  0  0  0  0999 V2000
   28.6723  -22.4125  -15.8293 N   0  0  0  0  0  0  0  0  0  0  0  0
   27.3873  -22.0940  -16.2862 C   0  0  0  0  0  0  0  0  0  0  0  0
   27.0185  -22.2450  -17.4800 O   0  0  0  0  0  0  0  0  0  0  0  0
   26.3800  -21.5443  -15.3283 C   0  0  0  0  0  0  0  0  0  0  0  0
   25.7545  -20.3167  -15.9671 C   0  0  2  0  0  0  0  0  0  0  0  0
   26.7213  -19.3067  -16.2562 N   0  0  0  0  0  0  0  0  0  0  0  0
   24.5917  -19.8307  -15.2076 C   0  0  0  0  0  0  0  0  0  0  0  0
   24.7971  -19.5154  -13.9939 O   0  0  0  0  0  0  0  0  0  0  0  0
   20.9647  -15.2168  -16.1645 N   0  0  0  0  0  0  0  0  0  0  0  0
   21.7619  -16.0408  -17.0045 C   0  0  0  0  0  0  0  0  0  0  0  0
   22.1560  -15.5570  -18.0933 O   0  0  0  0  0  0  0  0  0  0  0  0
   22.1456  -17.4164  -16.6680 C   0  0  0  0  0  0  0  0  0  0  0  0
   21.7040  -17.8978  -15.3357 C   0  0  0  0  0  0  0  0  0  0  0  0
   22.2143  -19.2672  -14.9493 C   0  0  2  0  0  0  0  0  0  0  0  0
   23.2940  -19.7104  -15.7772 N   0  0  0  0  0  0  0  0  0  0  0  0
   21.0446  -20.1882  -15.1351 C   0  0  0  0  0  0  0  0  0  0  0  0
   20.8332  -20.6119  -16.3030 O   0  0  0  0  0  0  0  0  0  0  0  0
   20.5028  -23.5577  -13.8188 C   0  0  0  0  0  0  0  0  0  0  0  0
   19.2657  -22.7597  -13.4769 C   0  0  1  0  0  0  0  0  0  0  0  0
   19.2927  -22.3551  -12.1359 O   0  0  0  0  0  0  0  0  0  0  0  0
   19.1416  -21.5092  -14.3172 C   0  0  2  0  0  0  0  0  0  0  0  0
   20.2108  -20.5735  -14.0726 N   0  0  0  0  0  0  0  0  0  0  0  0
   17.8089  -20.8818  -14.0976 C   0  0  0  0  0  0  0  0  0  0  0  0
   16.6264  -21.5446  -14.3333 O   0  0  0  0  0  0  0  0  0  0  0  0
   17.7799  -19.6991  -13.6800 O   0  0  0  0  0  0  0  0  0  0  0  0
  2  1  1  0
  2  3  2  0
  4  2  1  0
  5  4  1  0
  5  7  1  0
  5  6  1  1
  7  8  2  0
 10  9  1  0
 10 12  1  0
 11 10  2  0
 13 12  1  0
 14 13  1  6
 15 14  1  0
 15  7  1  0
 16 14  1  0
 16 17  2  0
 19 18  1  6
 19 21  1  0
 20 19  1  0
 21 22  1  1
 21 23  1  0
 22 16  1  0
 23 24  1  0
 25 23  2  0
M  END
$$$$
