NQT.pdb
     RDKit          3D

 25 24  0  0  1  0  0  0  0  0999 V2000
   19.3327  -11.4998  -15.3338 N   0  0  0  0  0  0  0  0  0  0  0  0
   18.4730  -11.6881  -14.2443 C   0  0  0  0  0  0  0  0  0  0  0  0
   18.2607  -12.8096  -13.7140 O   0  0  0  0  0  0  0  0  0  0  0  0
   17.7566  -10.5136  -13.6598 C   0  0  0  0  0  0  0  0  0  0  0  0
   16.2985  -10.9004  -13.4845 C   0  0  2  0  0  0  0  0  0  0  0  0
   15.6801  -11.2503  -14.7228 N   0  0  0  0  0  0  0  0  0  0  0  0
   15.5516   -9.9000  -12.7055 C   0  0  0  0  0  0  0  0  0  0  0  0
   15.1565   -8.8692  -13.3347 O   0  0  0  0  0  0  0  0  0  0  0  0
   11.1639  -10.7824   -8.2623 N   0  0  0  0  0  0  0  0  0  0  0  0
   11.3902   -9.3810   -8.3345 C   0  0  0  0  0  0  0  0  0  0  0  0
   10.6017   -8.6292   -7.7117 O   0  0  0  0  0  0  0  0  0  0  0  0
   12.4887   -8.7720   -9.0929 C   0  0  0  0  0  0  0  0  0  0  0  0
   13.4208   -9.7231   -9.7474 C   0  0  0  0  0  0  0  0  0  0  0  0
   14.4351   -9.0901  -10.6724 C   0  0  2  0  0  0  0  0  0  0  0  0
   15.2724  -10.0534  -11.3194 N   0  0  0  0  0  0  0  0  0  0  0  0
   15.2808   -8.2199   -9.7901 C   0  0  0  0  0  0  0  0  0  0  0  0
   16.2857   -8.7588   -9.2534 O   0  0  0  0  0  0  0  0  0  0  0  0
   17.8292   -7.3271  -10.0200 C   0  0  0  0  0  0  0  0  0  0  0  0
   17.2589   -5.9562   -9.7379 C   0  0  1  0  0  0  0  0  0  0  0  0
   16.9654   -5.2868  -10.9331 O   0  0  0  0  0  0  0  0  0  0  0  0
   15.9775   -6.0234   -8.9385 C   0  0  2  0  0  0  0  0  0  0  0  0
   14.9858   -6.8664   -9.5585 N   0  0  0  0  0  0  0  0  0  0  0  0
   15.4539   -4.6490   -8.7048 C   0  0  0  0  0  0  0  0  0  0  0  0
   16.0368   -3.7709   -7.8202 O   0  0  0  0  0  0  0  0  0  0  0  0
   14.4384   -4.2916   -9.3491 O   0  0  0  0  0  0  0  0  0  0  0  0
  2  1  1  0
  2  3  2  0
  4  2  1  0
  5  4  1  0
  5  7  1  0
  5  6  1  6
  7  8  2  0
 10  9  1  0
 10 12  1  0
 11 10  2  0
 13 12  1  0
 14 13  1  1
 15 14  1  0
 15  7  1  0
 16 14  1  0
 16 17  2  0
 19 18  1  6
 19 21  1  0
 20 19  1  0
 21 22  1  6
 21 23  1  0
 22 16  1  0
 23 24  1  0
 25 23  2  0
M  END
$$$$
