NQT.pdb
     RDKit          3D

 25 24  0  0  1  0  0  0  0  0999 V2000
   26.4867  -20.0502   -6.5228 N   0  0  0  0  0  0  0  0  0  0  0  0
   26.6393  -18.9627   -7.3921 C   0  0  0  0  0  0  0  0  0  0  0  0
   26.9930  -17.8160   -7.0128 O   0  0  0  0  0  0  0  0  0  0  0  0
   26.3753  -19.1440   -8.8522 C   0  0  0  0  0  0  0  0  0  0  0  0
   25.9577  -20.5875   -9.0720 C   0  0  2  0  0  0  0  0  0  0  0  0
   26.9516  -21.5108   -8.6268 N   0  0  0  0  0  0  0  0  0  0  0  0
   25.4953  -20.8252  -10.4486 C   0  0  0  0  0  0  0  0  0  0  0  0
   26.3470  -21.3077  -11.2588 O   0  0  0  0  0  0  0  0  0  0  0  0
   19.4542  -20.4973  -13.0312 N   0  0  0  0  0  0  0  0  0  0  0  0
   20.3598  -21.0089  -13.9999 C   0  0  0  0  0  0  0  0  0  0  0  0
   19.8953  -21.3344  -15.1194 O   0  0  0  0  0  0  0  0  0  0  0  0
   21.7981  -21.1750  -13.7618 C   0  0  0  0  0  0  0  0  0  0  0  0
   22.2767  -20.7682  -12.4174 C   0  0  0  0  0  0  0  0  0  0  0  0
   23.7555  -20.9700  -12.1772 C   0  0  2  0  0  0  0  0  0  0  0  0
   24.1697  -20.5389  -10.8771 N   0  0  0  0  0  0  0  0  0  0  0  0
   24.4394  -20.1279  -13.2136 C   0  0  0  0  0  0  0  0  0  0  0  0
   24.4140  -18.8799  -13.0408 O   0  0  0  0  0  0  0  0  0  0  0  0
   27.6304  -21.4343  -15.6062 C   0  0  0  0  0  0  0  0  0  0  0  0
   27.2455  -20.0094  -15.2812 C   0  0  1  0  0  0  0  0  0  0  0  0
   27.7717  -19.1254  -16.2322 O   0  0  0  0  0  0  0  0  0  0  0  0
   25.7469  -19.8106  -15.2691 C   0  0  2  0  0  0  0  0  0  0  0  0
   25.0838  -20.6824  -14.3317 N   0  0  0  0  0  0  0  0  0  0  0  0
   25.2029  -19.9771  -16.6454 C   0  0  0  0  0  0  0  0  0  0  0  0
   25.6757  -19.2652  -17.7237 O   0  0  0  0  0  0  0  0  0  0  0  0
   24.2751  -20.8050  -16.8123 O   0  0  0  0  0  0  0  0  0  0  0  0
  2  1  1  0
  2  3  2  0
  4  2  1  0
  5  4  1  0
  5  7  1  0
  5  6  1  6
  7  8  2  0
 10  9  1  0
 10 12  1  0
 11 10  2  0
 13 12  1  0
 14 13  1  1
 15 14  1  0
 15  7  1  0
 16 14  1  0
 16 17  2  0
 19 18  1  6
 19 21  1  0
 20 19  1  0
 21 22  1  1
 21 23  1  0
 22 16  1  0
 23 24  1  0
 25 23  2  0
M  END
$$$$
