NQT.pdb
     RDKit          3D

 25 24  0  0  1  0  0  0  0  0999 V2000
   14.1718  -11.7014  -17.1174 N   0  0  0  0  0  0  0  0  0  0  0  0
   15.4152  -11.0579  -17.1543 C   0  0  0  0  0  0  0  0  0  0  0  0
   16.2935  -11.2953  -18.0240 O   0  0  0  0  0  0  0  0  0  0  0  0
   15.7441  -10.0306  -16.1195 C   0  0  0  0  0  0  0  0  0  0  0  0
   17.1696  -10.2776  -15.6577 C   0  0  2  0  0  0  0  0  0  0  0  0
   17.2812  -11.4534  -14.8557 N   0  0  0  0  0  0  0  0  0  0  0  0
   17.7680   -9.0795  -15.0480 C   0  0  0  0  0  0  0  0  0  0  0  0
   17.2608   -8.6864  -13.9512 O   0  0  0  0  0  0  0  0  0  0  0  0
   23.7573   -6.7792  -15.0539 N   0  0  0  0  0  0  0  0  0  0  0  0
   22.9095   -5.7506  -14.5604 C   0  0  0  0  0  0  0  0  0  0  0  0
   23.4503   -4.6975  -14.1441 O   0  0  0  0  0  0  0  0  0  0  0  0
   21.4467   -5.8545  -14.5126 C   0  0  0  0  0  0  0  0  0  0  0  0
   20.8751   -7.1122  -15.0542 C   0  0  0  0  0  0  0  0  0  0  0  0
   19.3694   -7.2178  -14.9714 C   0  0  2  0  0  0  0  0  0  0  0  0
   18.8579   -8.3784  -15.6340 N   0  0  0  0  0  0  0  0  0  0  0  0
   18.8518   -5.9910  -15.6627 C   0  0  0  0  0  0  0  0  0  0  0  0
   19.1087   -5.8784  -16.8913 O   0  0  0  0  0  0  0  0  0  0  0  0
   15.3564   -4.0581  -14.6921 C   0  0  0  0  0  0  0  0  0  0  0  0
   16.1428   -3.9164  -15.9750 C   0  0  1  0  0  0  0  0  0  0  0  0
   15.7891   -2.7377  -16.6447 O   0  0  0  0  0  0  0  0  0  0  0  0
   17.6332   -3.8589  -15.7287 C   0  0  2  0  0  0  0  0  0  0  0  0
   18.1138   -5.0015  -14.9926 N   0  0  0  0  0  0  0  0  0  0  0  0
   17.9844   -2.5838  -15.0439 C   0  0  0  0  0  0  0  0  0  0  0  0
   17.8642   -1.3551  -15.6515 O   0  0  0  0  0  0  0  0  0  0  0  0
   18.4059   -2.6494  -13.8640 O   0  0  0  0  0  0  0  0  0  0  0  0
  2  1  1  0
  2  3  2  0
  4  2  1  0
  5  4  1  0
  5  7  1  0
  5  6  1  1
  7  8  2  0
 10  9  1  0
 10 12  1  0
 11 10  2  0
 13 12  1  0
 14 13  1  6
 15 14  1  0
 15  7  1  0
 16 14  1  0
 16 17  2  0
 19 18  1  1
 19 21  1  0
 20 19  1  0
 21 22  1  1
 21 23  1  0
 22 16  1  0
 23 24  1  0
 25 23  2  0
M  END
$$$$
