NQT.pdb
     RDKit          3D

 25 24  0  0  1  0  0  0  0  0999 V2000
   29.0286  -18.1829  -16.4271 N   0  0  0  0  0  0  0  0  0  0  0  0
   27.7382  -17.9776  -16.9315 C   0  0  0  0  0  0  0  0  0  0  0  0
   27.3936  -16.9385  -17.5526 O   0  0  0  0  0  0  0  0  0  0  0  0
   26.6952  -19.0304  -16.7372 C   0  0  0  0  0  0  0  0  0  0  0  0
   27.3318  -20.1783  -15.9734 C   0  0  2  0  0  0  0  0  0  0  0  0
   27.8962  -21.1590  -16.8440 N   0  0  0  0  0  0  0  0  0  0  0  0
   26.4262  -20.7337  -14.9552 C   0  0  0  0  0  0  0  0  0  0  0  0
   25.7156  -21.7264  -15.3075 O   0  0  0  0  0  0  0  0  0  0  0  0
   26.3348  -20.0158   -8.4493 N   0  0  0  0  0  0  0  0  0  0  0  0
   25.3459  -20.9559   -8.8474 C   0  0  0  0  0  0  0  0  0  0  0  0
   24.7654  -21.6097   -7.9470 O   0  0  0  0  0  0  0  0  0  0  0  0
   24.9707  -21.2001  -10.2447 C   0  0  0  0  0  0  0  0  0  0  0  0
   25.8214  -20.5354  -11.2627 C   0  0  0  0  0  0  0  0  0  0  0  0
   25.4634  -20.8478  -12.6977 C   0  0  2  0  0  0  0  0  0  0  0  0
   26.3310  -20.2064  -13.6377 N   0  0  0  0  0  0  0  0  0  0  0  0
   24.0704  -20.3204  -12.8779 C   0  0  0  0  0  0  0  0  0  0  0  0
   23.9286  -19.0683  -12.8587 O   0  0  0  0  0  0  0  0  0  0  0  0
   21.4480  -21.8690  -15.4919 C   0  0  0  0  0  0  0  0  0  0  0  0
   21.3922  -20.5104  -14.8320 C   0  0  1  0  0  0  0  0  0  0  0  0
   20.1224  -19.9383  -14.9838 O   0  0  0  0  0  0  0  0  0  0  0  0
   21.6736  -20.5834  -13.3485 C   0  0  2  0  0  0  0  0  0  0  0  0
   22.9618  -21.1632  -13.0607 N   0  0  0  0  0  0  0  0  0  0  0  0
   20.5786  -21.3226  -12.6611 C   0  0  0  0  0  0  0  0  0  0  0  0
   19.2660  -20.9116  -12.6979 O   0  0  0  0  0  0  0  0  0  0  0  0
   20.8817  -22.3614  -12.0264 O   0  0  0  0  0  0  0  0  0  0  0  0
  2  1  1  0
  2  3  2  0
  4  2  1  0
  5  4  1  0
  5  7  1  0
  5  6  1  6
  7  8  2  0
 10  9  1  0
 10 12  1  0
 11 10  2  0
 13 12  1  0
 14 13  1  1
 15 14  1  0
 15  7  1  0
 16 14  1  0
 16 17  2  0
 19 18  1  1
 19 21  1  0
 20 19  1  0
 21 22  1  6
 21 23  1  0
 22 16  1  0
 23 24  1  0
 25 23  2  0
M  END
$$$$
