GWL.pdb
     RDKit          3D

 27 28  0  0  1  0  0  0  0  0999 V2000
   28.8863  -21.3256  -14.4097 N   0  0  0  0  0  0  0  0  0  0  0  0
   28.2658  -20.3286  -13.5774 C   0  0  0  0  0  0  0  0  0  0  0  0
   27.2677  -20.9969  -12.6803 C   0  0  0  0  0  0  0  0  0  0  0  0
   26.7554  -22.0985  -13.0116 O   0  0  0  0  0  0  0  0  0  0  0  0
   26.9424  -20.3332  -11.4682 N   0  0  0  0  0  0  0  0  0  0  0  0
   25.8766  -20.8517  -10.6365 C   0  0  1  0  0  0  0  0  0  0  0  0
   26.0694  -20.3773   -9.2083 C   0  0  0  0  0  0  0  0  0  0  0  0
   27.4225  -20.6011   -8.6964 C   0  0  0  0  0  0  0  0  0  0  0  0
   28.4230  -21.3351   -9.2866 C   0  0  0  0  0  0  0  0  0  0  0  0
   29.5113  -21.2911   -8.4883 N   0  0  0  0  0  0  0  0  0  0  0  0
   29.2299  -20.5394   -7.3900 C   0  0  0  0  0  0  0  0  0  0  0  0
   30.0072  -20.2037   -6.3014 C   0  0  0  0  0  0  0  0  0  0  0  0
   29.4902  -19.4177   -5.3026 C   0  0  0  0  0  0  0  0  0  0  0  0
   28.1946  -18.9752   -5.4073 C   0  0  0  0  0  0  0  0  0  0  0  0
   27.4316  -19.3130   -6.4900 C   0  0  0  0  0  0  0  0  0  0  0  0
   27.9227  -20.1033   -7.5130 C   0  0  0  0  0  0  0  0  0  0  0  0
   24.5956  -20.2397  -11.0957 C   0  0  0  0  0  0  0  0  0  0  0  0
   24.6102  -19.1258  -11.6559 O   0  0  0  0  0  0  0  0  0  0  0  0
   21.6129  -20.2955  -14.8877 C   0  0  0  0  0  0  0  0  0  0  0  0
   22.1614  -21.6471  -14.4357 C   0  0  2  0  0  0  0  0  0  0  0  0
   21.1568  -22.6969  -14.6587 C   0  0  0  0  0  0  0  0  0  0  0  0
   22.9000  -21.5858  -13.1705 C   0  0  0  0  0  0  0  0  0  0  0  0
   22.3253  -20.8774  -12.0031 C   0  0  2  0  0  0  0  0  0  0  0  0
   23.3454  -20.8553  -10.9315 N   0  0  0  0  0  0  0  0  0  0  0  0
   21.1140  -21.4587  -11.4006 C   0  0  0  0  0  0  0  0  0  0  0  0
   20.0379  -20.7589  -11.4290 O   0  0  0  0  0  0  0  0  0  0  0  0
   21.0372  -22.7121  -10.8021 O   0  0  0  0  0  0  0  0  0  0  0  0
  1  2  1  0
  2  3  1  0
  3  4  2  0
  5  6  1  0
  5  3  1  0
  6 17  1  0
  7  8  1  0
  6  7  1  1
  8 16  1  0
  9 10  1  0
  9  8  2  0
 10 11  1  0
 11 16  2  0
 11 12  1  0
 12 13  2  0
 13 14  1  0
 15 14  2  0
 16 15  1  0
 17 24  1  0
 17 18  2  0
 20 19  1  1
 20 21  1  0
 22 20  1  0
 23 22  1  6
 23 25  1  0
 24 23  1  0
 25 26  2  0
 25 27  1  0
M  END
$$$$
