GWL.pdb
     RDKit          3D

 27 28  0  0  1  0  0  0  0  0999 V2000
   27.7862  -18.0768  -16.1336 N   0  0  0  0  0  0  0  0  0  0  0  0
   27.4019  -19.3749  -15.6447 C   0  0  0  0  0  0  0  0  0  0  0  0
   26.5112  -19.2006  -14.4514 C   0  0  0  0  0  0  0  0  0  0  0  0
   26.1485  -18.0489  -14.0939 O   0  0  0  0  0  0  0  0  0  0  0  0
   26.1113  -20.3780  -13.7662 N   0  0  0  0  0  0  0  0  0  0  0  0
   25.1461  -20.2830  -12.6912 C   0  0  1  0  0  0  0  0  0  0  0  0
   23.9891  -21.2264  -12.9617 C   0  0  0  0  0  0  0  0  0  0  0  0
   22.7017  -20.5448  -13.1070 C   0  0  0  0  0  0  0  0  0  0  0  0
   22.1026  -20.1418  -14.2761 C   0  0  0  0  0  0  0  0  0  0  0  0
   20.9272  -19.5509  -13.9708 N   0  0  0  0  0  0  0  0  0  0  0  0
   20.7568  -19.5656  -12.6213 C   0  0  0  0  0  0  0  0  0  0  0  0
   19.7286  -19.0896  -11.8351 C   0  0  0  0  0  0  0  0  0  0  0  0
   19.7856  -19.2253  -10.4709 C   0  0  0  0  0  0  0  0  0  0  0  0
   20.8773  -19.8392   -9.9083 C   0  0  0  0  0  0  0  0  0  0  0  0
   21.8917  -20.3080  -10.6955 C   0  0  0  0  0  0  0  0  0  0  0  0
   21.8646  -20.1868  -12.0728 C   0  0  0  0  0  0  0  0  0  0  0  0
   25.7945  -20.7863  -11.4451 C   0  0  0  0  0  0  0  0  0  0  0  0
   26.4840  -21.8245  -11.4846 O   0  0  0  0  0  0  0  0  0  0  0  0
   28.1620  -18.4703   -6.3579 C   0  0  0  0  0  0  0  0  0  0  0  0
   27.7807  -19.7595   -7.0819 C   0  0  2  0  0  0  0  0  0  0  0  0
   28.9159  -20.6936   -7.0760 C   0  0  0  0  0  0  0  0  0  0  0  0
   27.0124  -19.5357   -8.3106 C   0  0  0  0  0  0  0  0  0  0  0  0
   26.3230  -20.6650   -8.9772 C   0  0  2  0  0  0  0  0  0  0  0  0
   25.6725  -20.1479  -10.2014 N   0  0  0  0  0  0  0  0  0  0  0  0
   25.2663  -21.3468   -8.2113 C   0  0  0  0  0  0  0  0  0  0  0  0
   25.6272  -22.2221   -7.3440 O   0  0  0  0  0  0  0  0  0  0  0  0
   23.9009  -21.1179   -8.3478 O   0  0  0  0  0  0  0  0  0  0  0  0
  1  2  1  0
  2  3  1  0
  3  4  2  0
  5  6  1  0
  5  3  1  0
  6 17  1  0
  7  8  1  0
  6  7  1  6
  8 16  1  0
  9 10  1  0
  9  8  2  0
 10 11  1  0
 11 16  2  0
 11 12  1  0
 12 13  2  0
 13 14  1  0
 15 14  2  0
 16 15  1  0
 17 24  1  0
 17 18  2  0
 20 19  1  6
 20 21  1  0
 22 20  1  0
 23 22  1  1
 23 25  1  0
 24 23  1  0
 25 26  2  0
 25 27  1  0
M  END
$$$$
