GWL.pdb
     RDKit          3D

 27 28  0  0  1  0  0  0  0  0999 V2000
   28.6186  -19.8555  -15.9300 N   0  0  0  0  0  0  0  0  0  0  0  0
   28.6627  -20.6560  -14.7346 C   0  0  0  0  0  0  0  0  0  0  0  0
   27.6745  -20.1107  -13.7477 C   0  0  0  0  0  0  0  0  0  0  0  0
   27.3163  -18.9051  -13.8097 O   0  0  0  0  0  0  0  0  0  0  0  0
   27.1796  -21.0086  -12.7657 N   0  0  0  0  0  0  0  0  0  0  0  0
   26.1239  -20.5768  -11.8738 C   0  0  1  0  0  0  0  0  0  0  0  0
   24.8268  -21.2689  -12.2483 C   0  0  0  0  0  0  0  0  0  0  0  0
   24.1592  -20.6712  -13.4060 C   0  0  0  0  0  0  0  0  0  0  0  0
   24.6111  -20.6453  -14.7034 C   0  0  0  0  0  0  0  0  0  0  0  0
   23.6990  -19.9968  -15.4593 N   0  0  0  0  0  0  0  0  0  0  0  0
   22.6634  -19.6027  -14.6702 C   0  0  0  0  0  0  0  0  0  0  0  0
   21.5060  -18.9170  -14.9738 C   0  0  0  0  0  0  0  0  0  0  0  0
   20.5957  -18.6324  -13.9874 C   0  0  0  0  0  0  0  0  0  0  0  0
   20.8572  -19.0404  -12.7026 C   0  0  0  0  0  0  0  0  0  0  0  0
   22.0070  -19.7195  -12.4111 C   0  0  0  0  0  0  0  0  0  0  0  0
   22.9444  -20.0217  -13.3819 C   0  0  0  0  0  0  0  0  0  0  0  0
   26.4563  -21.0576  -10.5009 C   0  0  0  0  0  0  0  0  0  0  0  0
   26.8067  -22.2421  -10.3302 O   0  0  0  0  0  0  0  0  0  0  0  0
   29.3554  -20.4571   -7.0858 C   0  0  0  0  0  0  0  0  0  0  0  0
   28.3670  -19.2952   -7.1551 C   0  0  2  0  0  0  0  0  0  0  0  0
   28.8446  -18.1791   -6.3261 C   0  0  0  0  0  0  0  0  0  0  0  0
   26.9636  -19.7158   -7.0933 C   0  0  0  0  0  0  0  0  0  0  0  0
   26.4637  -20.7849   -7.9890 C   0  0  2  0  0  0  0  0  0  0  0  0
   26.3967  -20.2391   -9.3627 N   0  0  0  0  0  0  0  0  0  0  0  0
   25.1250  -21.3253   -7.6996 C   0  0  0  0  0  0  0  0  0  0  0  0
   24.1289  -20.8283   -8.3394 O   0  0  0  0  0  0  0  0  0  0  0  0
   24.8481  -22.3383   -6.7871 O   0  0  0  0  0  0  0  0  0  0  0  0
  1  2  1  0
  2  3  1  0
  3  4  2  0
  5  6  1  0
  5  3  1  0
  6 17  1  0
  7  8  1  0
  6  7  1  6
  8 16  1  0
  9 10  1  0
  9  8  2  0
 10 11  1  0
 11 16  2  0
 11 12  1  0
 12 13  2  0
 13 14  1  0
 15 14  2  0
 16 15  1  0
 17 24  1  0
 17 18  2  0
 20 19  1  1
 20 21  1  0
 22 20  1  0
 23 22  1  1
 23 25  1  0
 24 23  1  0
 25 26  2  0
 25 27  1  0
M  END
$$$$
