GWL.pdb
     RDKit          3D

 27 28  0  0  1  0  0  0  0  0999 V2000
   28.2388  -18.8915  -15.0501 N   0  0  0  0  0  0  0  0  0  0  0  0
   27.9823  -20.0692  -14.2633 C   0  0  0  0  0  0  0  0  0  0  0  0
   27.1683  -19.6850  -13.0644 C   0  0  0  0  0  0  0  0  0  0  0  0
   26.8687  -18.4788  -12.8617 O   0  0  0  0  0  0  0  0  0  0  0  0
   26.7661  -20.7320  -12.1941 N   0  0  0  0  0  0  0  0  0  0  0  0
   25.8509  -20.4443  -11.1096 C   0  0  1  0  0  0  0  0  0  0  0  0
   24.6163  -21.3163  -11.2412 C   0  0  0  0  0  0  0  0  0  0  0  0
   23.5484  -20.7011  -12.0314 C   0  0  0  0  0  0  0  0  0  0  0  0
   23.4933  -20.5769  -13.3987 C   0  0  0  0  0  0  0  0  0  0  0  0
   22.3429  -19.9482  -13.7233 N   0  0  0  0  0  0  0  0  0  0  0  0
   21.6527  -19.6638  -12.5861 C   0  0  0  0  0  0  0  0  0  0  0  0
   20.4382  -19.0380  -12.3988 C   0  0  0  0  0  0  0  0  0  0  0  0
   19.9410  -18.8653  -11.1316 C   0  0  0  0  0  0  0  0  0  0  0  0
   20.6701  -19.3241  -10.0624 C   0  0  0  0  0  0  0  0  0  0  0  0
   21.8730  -19.9432  -10.2577 C   0  0  0  0  0  0  0  0  0  0  0  0
   22.4017  -20.1326  -11.5214 C   0  0  0  0  0  0  0  0  0  0  0  0
   26.5042  -20.8593   -9.8340 C   0  0  0  0  0  0  0  0  0  0  0  0
   27.1102  -21.9476   -9.7770 O   0  0  0  0  0  0  0  0  0  0  0  0
   28.5214  -18.2007   -4.6597 C   0  0  0  0  0  0  0  0  0  0  0  0
   28.2438  -19.5264   -5.3648 C   0  0  2  0  0  0  0  0  0  0  0  0
   29.3860  -20.4358   -5.1930 C   0  0  0  0  0  0  0  0  0  0  0  0
   27.6135  -19.3695   -6.6795 C   0  0  0  0  0  0  0  0  0  0  0  0
   27.0625  -20.5473   -7.3896 C   0  0  2  0  0  0  0  0  0  0  0  0
   26.4774  -20.0816   -8.6663 N   0  0  0  0  0  0  0  0  0  0  0  0
   25.9990  -21.3013   -6.7050 C   0  0  0  0  0  0  0  0  0  0  0  0
   24.7815  -20.9956   -6.9749 O   0  0  0  0  0  0  0  0  0  0  0  0
   26.2048  -22.3259   -5.7868 O   0  0  0  0  0  0  0  0  0  0  0  0
  1  2  1  0
  2  3  1  0
  3  4  2  0
  5  6  1  0
  5  3  1  0
  6 17  1  0
  7  8  1  0
  6  7  1  6
  8 16  1  0
  9 10  1  0
  9  8  2  0
 10 11  1  0
 11 16  2  0
 11 12  1  0
 12 13  2  0
 13 14  1  0
 15 14  2  0
 16 15  1  0
 17 24  1  0
 17 18  2  0
 20 19  1  6
 20 21  1  0
 22 20  1  0
 23 22  1  1
 23 25  1  0
 24 23  1  0
 25 26  2  0
 25 27  1  0
M  END
$$$$
