GWL.pdb
     RDKit          3D

 27 28  0  0  1  0  0  0  0  0999 V2000
   30.1755  -19.2042  -12.5002 N   0  0  0  0  0  0  0  0  0  0  0  0
   28.9217  -18.7131  -11.9915 C   0  0  0  0  0  0  0  0  0  0  0  0
   28.1544  -19.8582  -11.4019 C   0  0  0  0  0  0  0  0  0  0  0  0
   28.4953  -21.0446  -11.6507 O   0  0  0  0  0  0  0  0  0  0  0  0
   27.0507  -19.5357  -10.5692 N   0  0  0  0  0  0  0  0  0  0  0  0
   26.2740  -20.6018   -9.9720 C   0  0  1  0  0  0  0  0  0  0  0  0
   25.7231  -20.1423   -8.6352 C   0  0  0  0  0  0  0  0  0  0  0  0
   26.7437  -19.5936   -7.7405 C   0  0  0  0  0  0  0  0  0  0  0  0
   27.3977  -18.3915   -7.8649 C   0  0  0  0  0  0  0  0  0  0  0  0
   28.2609  -18.2675   -6.8336 N   0  0  0  0  0  0  0  0  0  0  0  0
   28.1751  -19.3717   -6.0437 C   0  0  0  0  0  0  0  0  0  0  0  0
   28.8453  -19.7093   -4.8867 C   0  0  0  0  0  0  0  0  0  0  0  0
   28.5796  -20.9006   -4.2599 C   0  0  0  0  0  0  0  0  0  0  0  0
   27.6410  -21.7432   -4.8026 C   0  0  0  0  0  0  0  0  0  0  0  0
   26.9816  -21.4002   -5.9497 C   0  0  0  0  0  0  0  0  0  0  0  0
   27.2263  -20.2074   -6.6054 C   0  0  0  0  0  0  0  0  0  0  0  0
   25.0832  -20.8439  -10.8378 C   0  0  0  0  0  0  0  0  0  0  0  0
   24.3787  -19.8812  -11.2009 O   0  0  0  0  0  0  0  0  0  0  0  0
   23.8748  -25.5412  -14.6612 C   0  0  0  0  0  0  0  0  0  0  0  0
   23.5598  -24.0921  -14.2969 C   0  0  2  0  0  0  0  0  0  0  0  0
   23.6916  -23.2355  -15.4842 C   0  0  0  0  0  0  0  0  0  0  0  0
   24.1332  -23.6730  -13.0140 C   0  0  0  0  0  0  0  0  0  0  0  0
   23.8507  -22.3224  -12.4747 C   0  0  2  0  0  0  0  0  0  0  0  0
   24.6977  -22.1191  -11.2786 N   0  0  0  0  0  0  0  0  0  0  0  0
   22.4684  -22.0514  -12.0458 C   0  0  0  0  0  0  0  0  0  0  0  0
   22.1579  -22.3159  -10.8284 O   0  0  0  0  0  0  0  0  0  0  0  0
   21.4654  -21.5262  -12.8541 O   0  0  0  0  0  0  0  0  0  0  0  0
  1  2  1  0
  2  3  1  0
  3  4  2  0
  5  6  1  0
  5  3  1  0
  6 17  1  0
  7  8  1  0
  6  7  1  1
  8 16  1  0
  9 10  1  0
  9  8  2  0
 10 11  1  0
 11 16  2  0
 11 12  1  0
 12 13  2  0
 13 14  1  0
 15 14  2  0
 16 15  1  0
 17 24  1  0
 17 18  2  0
 20 19  1  6
 20 21  1  0
 22 20  1  0
 23 22  1  1
 23 25  1  0
 24 23  1  0
 25 26  2  0
 25 27  1  0
M  END
$$$$
