GWL.pdb
     RDKit          3D

 27 28  0  0  1  0  0  0  0  0999 V2000
   28.6183  -21.0497  -15.2414 N   0  0  0  0  0  0  0  0  0  0  0  0
   27.9630  -20.1672  -14.3120 C   0  0  0  0  0  0  0  0  0  0  0  0
   27.0211  -20.9675  -13.4634 C   0  0  0  0  0  0  0  0  0  0  0  0
   26.7486  -22.1583  -13.7691 O   0  0  0  0  0  0  0  0  0  0  0  0
   26.4689  -20.3218  -12.3260 N   0  0  0  0  0  0  0  0  0  0  0  0
   25.4882  -21.0170  -11.5189 C   0  0  1  0  0  0  0  0  0  0  0  0
   25.6070  -20.5672  -10.0748 C   0  0  0  0  0  0  0  0  0  0  0  0
   26.9521  -20.7313   -9.5209 C   0  0  0  0  0  0  0  0  0  0  0  0
   28.0205  -21.3652  -10.1082 C   0  0  0  0  0  0  0  0  0  0  0  0
   29.0732  -21.2956   -9.2650 N   0  0  0  0  0  0  0  0  0  0  0  0
   28.7018  -20.6260   -8.1407 C   0  0  0  0  0  0  0  0  0  0  0  0
   29.4140  -20.3020   -7.0051 C   0  0  0  0  0  0  0  0  0  0  0  0
   28.8091  -19.6077   -5.9878 C   0  0  0  0  0  0  0  0  0  0  0  0
   27.4916  -19.2447   -6.1214 C   0  0  0  0  0  0  0  0  0  0  0  0
   26.7936  -19.5701   -7.2506 C   0  0  0  0  0  0  0  0  0  0  0  0
   27.3739  -20.2690   -8.2934 C   0  0  0  0  0  0  0  0  0  0  0  0
   24.1328  -20.5829  -11.9668 C   0  0  0  0  0  0  0  0  0  0  0  0
   23.9108  -19.3743  -12.1783 O   0  0  0  0  0  0  0  0  0  0  0  0
   20.3711  -20.3240  -15.4921 C   0  0  0  0  0  0  0  0  0  0  0  0
   21.7099  -21.0574  -15.5344 C   0  0  2  0  0  0  0  0  0  0  0  0
   21.8878  -21.7032  -16.8430 C   0  0  0  0  0  0  0  0  0  0  0  0
   22.0166  -21.7876  -14.3004 C   0  0  0  0  0  0  0  0  0  0  0  0
   21.8833  -21.1204  -12.9843 C   0  0  2  0  0  0  0  0  0  0  0  0
   23.0667  -21.4727  -12.1689 N   0  0  0  0  0  0  0  0  0  0  0  0
   20.7081  -21.4769  -12.1720 C   0  0  0  0  0  0  0  0  0  0  0  0
   20.7771  -22.5404  -11.4560 O   0  0  0  0  0  0  0  0  0  0  0  0
   19.5228  -20.7510  -12.1129 O   0  0  0  0  0  0  0  0  0  0  0  0
  1  2  1  0
  2  3  1  0
  3  4  2  0
  5  6  1  0
  5  3  1  0
  6 17  1  0
  7  8  1  0
  6  7  1  1
  8 16  1  0
  9 10  1  0
  9  8  2  0
 10 11  1  0
 11 16  2  0
 11 12  1  0
 12 13  2  0
 13 14  1  0
 15 14  2  0
 16 15  1  0
 17 24  1  0
 17 18  2  0
 20 19  1  1
 20 21  1  0
 22 20  1  0
 23 22  1  6
 23 25  1  0
 24 23  1  0
 25 26  2  0
 25 27  1  0
M  END
$$$$
