GWL.pdb
     RDKit          3D

 27 28  0  0  1  0  0  0  0  0999 V2000
   29.4745  -22.2894  -17.3728 N   0  0  0  0  0  0  0  0  0  0  0  0
   28.3158  -22.8110  -16.6967 C   0  0  0  0  0  0  0  0  0  0  0  0
   27.6393  -21.6943  -15.9598 C   0  0  0  0  0  0  0  0  0  0  0  0
   28.1468  -20.5419  -15.9505 O   0  0  0  0  0  0  0  0  0  0  0  0
   26.4258  -22.0035  -15.2909 N   0  0  0  0  0  0  0  0  0  0  0  0
   25.6944  -20.9495  -14.6196 C   0  0  1  0  0  0  0  0  0  0  0  0
   24.3279  -20.7916  -15.2596 C   0  0  0  0  0  0  0  0  0  0  0  0
   24.3536  -20.0329  -16.5113 C   0  0  0  0  0  0  0  0  0  0  0  0
   24.8294  -20.4557  -17.7291 C   0  0  0  0  0  0  0  0  0  0  0  0
   24.6706  -19.4531  -18.6199 N   0  0  0  0  0  0  0  0  0  0  0  0
   24.0989  -18.3877  -17.9965 C   0  0  0  0  0  0  0  0  0  0  0  0
   23.7410  -17.1453  -18.4763 C   0  0  0  0  0  0  0  0  0  0  0  0
   23.1683  -16.2224  -17.6378 C   0  0  0  0  0  0  0  0  0  0  0  0
   22.9600  -16.5573  -16.3226 C   0  0  0  0  0  0  0  0  0  0  0  0
   23.3179  -17.7911  -15.8559 C   0  0  0  0  0  0  0  0  0  0  0  0
   23.8971  -18.7432  -16.6748 C   0  0  0  0  0  0  0  0  0  0  0  0
   25.4352  -21.3903  -13.2179 C   0  0  0  0  0  0  0  0  0  0  0  0
   25.2548  -22.6000  -12.9750 O   0  0  0  0  0  0  0  0  0  0  0  0
   24.8102  -20.6107   -7.8037 C   0  0  0  0  0  0  0  0  0  0  0  0
   26.2002  -20.5945   -8.4358 C   0  0  2  0  0  0  0  0  0  0  0  0
   27.1410  -19.8783   -7.5622 C   0  0  0  0  0  0  0  0  0  0  0  0
   26.1843  -20.3335   -9.8786 C   0  0  0  0  0  0  0  0  0  0  0  0
   25.1611  -20.9684  -10.7417 C   0  0  2  0  0  0  0  0  0  0  0  0
   25.3800  -20.5057  -12.1300 N   0  0  0  0  0  0  0  0  0  0  0  0
   23.7519  -20.6746  -10.4318 C   0  0  0  0  0  0  0  0  0  0  0  0
   23.2465  -19.5969  -10.9132 O   0  0  0  0  0  0  0  0  0  0  0  0
   22.9163  -21.4741   -9.6586 O   0  0  0  0  0  0  0  0  0  0  0  0
  1  2  1  0
  2  3  1  0
  3  4  2  0
  5  6  1  0
  5  3  1  0
  6 17  1  0
  7  8  1  0
  6  7  1  6
  8 16  1  0
  9 10  1  0
  9  8  2  0
 10 11  1  0
 11 16  2  0
 11 12  1  0
 12 13  2  0
 13 14  1  0
 15 14  2  0
 16 15  1  0
 17 24  1  0
 17 18  2  0
 20 19  1  1
 20 21  1  0
 22 20  1  0
 23 22  1  1
 23 25  1  0
 24 23  1  0
 25 26  2  0
 25 27  1  0
M  END
$$$$
