GWL.pdb
     RDKit          3D

 27 28  0  0  1  0  0  0  0  0999 V2000
   31.1889  -21.1252  -10.8915 N   0  0  0  0  0  0  0  0  0  0  0  0
   30.1260  -20.1699  -10.7200 C   0  0  0  0  0  0  0  0  0  0  0  0
   28.8859  -20.8945  -10.2903 C   0  0  0  0  0  0  0  0  0  0  0  0
   28.8922  -22.1485  -10.1751 O   0  0  0  0  0  0  0  0  0  0  0  0
   27.7349  -20.1059  -10.0282 N   0  0  0  0  0  0  0  0  0  0  0  0
   26.5192  -20.7491   -9.5755 C   0  0  1  0  0  0  0  0  0  0  0  0
   25.9667  -20.0044   -8.3746 C   0  0  0  0  0  0  0  0  0  0  0  0
   26.9999  -19.5561   -7.4395 C   0  0  0  0  0  0  0  0  0  0  0  0
   27.7302  -18.3939   -7.5035 C   0  0  0  0  0  0  0  0  0  0  0  0
   28.5770  -18.3644   -6.4518 N   0  0  0  0  0  0  0  0  0  0  0  0
   28.4054  -19.4905   -5.7081 C   0  0  0  0  0  0  0  0  0  0  0  0
   29.0282  -19.9140   -4.5529 C   0  0  0  0  0  0  0  0  0  0  0  0
   28.6752  -21.1094   -3.9791 C   0  0  0  0  0  0  0  0  0  0  0  0
   27.6978  -21.8695   -4.5726 C   0  0  0  0  0  0  0  0  0  0  0  0
   27.0860  -21.4416   -5.7176 C   0  0  0  0  0  0  0  0  0  0  0  0
   27.4188  -20.2424   -6.3206 C   0  0  0  0  0  0  0  0  0  0  0  0
   25.4935  -20.6014  -10.6490 C   0  0  0  0  0  0  0  0  0  0  0  0
   25.4149  -19.5312  -11.2841 O   0  0  0  0  0  0  0  0  0  0  0  0
   21.5663  -22.6490  -14.0002 C   0  0  0  0  0  0  0  0  0  0  0  0
   23.0283  -23.0729  -14.1216 C   0  0  2  0  0  0  0  0  0  0  0  0
   23.1219  -24.3563  -14.8324 C   0  0  0  0  0  0  0  0  0  0  0  0
   23.8075  -22.8440  -12.9007 C   0  0  0  0  0  0  0  0  0  0  0  0
   23.7341  -21.5404  -12.2005 C   0  0  2  0  0  0  0  0  0  0  0  0
   24.5897  -21.6173  -10.9958 N   0  0  0  0  0  0  0  0  0  0  0  0
   22.4067  -21.1097  -11.7307 C   0  0  0  0  0  0  0  0  0  0  0  0
   21.7616  -20.2670  -12.4534 O   0  0  0  0  0  0  0  0  0  0  0  0
   21.7881  -21.5450  -10.5632 O   0  0  0  0  0  0  0  0  0  0  0  0
  1  2  1  0
  2  3  1  0
  3  4  2  0
  5  6  1  0
  5  3  1  0
  6 17  1  0
  7  8  1  0
  6  7  1  1
  8 16  1  0
  9 10  1  0
  9  8  2  0
 10 11  1  0
 11 16  2  0
 11 12  1  0
 12 13  2  0
 13 14  1  0
 15 14  2  0
 16 15  1  0
 17 24  1  0
 17 18  2  0
 20 19  1  1
 20 21  1  0
 22 20  1  0
 23 22  1  1
 23 25  1  0
 24 23  1  0
 25 26  2  0
 25 27  1  0
M  END
$$$$
