GWL.pdb
     RDKit          3D

 27 28  0  0  1  0  0  0  0  0999 V2000
   28.6170  -17.8871  -14.3124 N   0  0  0  0  0  0  0  0  0  0  0  0
   27.5401  -17.9233  -13.3580 C   0  0  0  0  0  0  0  0  0  0  0  0
   26.9691  -19.3091  -13.3218 C   0  0  0  0  0  0  0  0  0  0  0  0
   27.3627  -20.1785  -14.1434 O   0  0  0  0  0  0  0  0  0  0  0  0
   25.9853  -19.5769  -12.3340 N   0  0  0  0  0  0  0  0  0  0  0  0
   25.3972  -20.8976  -12.2545 C   0  0  1  0  0  0  0  0  0  0  0  0
   25.1982  -21.2790  -10.7996 C   0  0  0  0  0  0  0  0  0  0  0  0
   26.3171  -20.8954   -9.9371 C   0  0  0  0  0  0  0  0  0  0  0  0
   26.2787  -20.0523   -8.8527 C   0  0  0  0  0  0  0  0  0  0  0  0
   27.5240  -19.9640   -8.3374 N   0  0  0  0  0  0  0  0  0  0  0  0
   28.3677  -20.7376   -9.0724 C   0  0  0  0  0  0  0  0  0  0  0  0
   29.7202  -20.9739   -8.9435 C   0  0  0  0  0  0  0  0  0  0  0  0
   30.3600  -21.8098   -9.8237 C   0  0  0  0  0  0  0  0  0  0  0  0
   29.6332  -22.4016  -10.8272 C   0  0  0  0  0  0  0  0  0  0  0  0
   28.2930  -22.1616  -10.9472 C   0  0  0  0  0  0  0  0  0  0  0  0
   27.6189  -21.3246  -10.0768 C   0  0  0  0  0  0  0  0  0  0  0  0
   24.0284  -20.8279  -12.8445 C   0  0  0  0  0  0  0  0  0  0  0  0
   23.2965  -19.8508  -12.5907 O   0  0  0  0  0  0  0  0  0  0  0  0
   21.0214  -21.0047  -17.3257 C   0  0  0  0  0  0  0  0  0  0  0  0
   21.2143  -22.3622  -16.6536 C   0  0  2  0  0  0  0  0  0  0  0  0
   19.9090  -22.9346  -16.2935 C   0  0  0  0  0  0  0  0  0  0  0  0
   22.3241  -22.3887  -15.6956 C   0  0  0  0  0  0  0  0  0  0  0  0
   22.2282  -21.6415  -14.4198 C   0  0  2  0  0  0  0  0  0  0  0  0
   23.5015  -21.8186  -13.6871 N   0  0  0  0  0  0  0  0  0  0  0  0
   21.1624  -22.0468  -13.4883 C   0  0  0  0  0  0  0  0  0  0  0  0
   20.0715  -21.3697  -13.4977 O   0  0  0  0  0  0  0  0  0  0  0  0
   21.2381  -23.1108  -12.5954 O   0  0  0  0  0  0  0  0  0  0  0  0
  1  2  1  0
  2  3  1  0
  3  4  2  0
  5  6  1  0
  5  3  1  0
  6 17  1  0
  7  8  1  0
  6  7  1  1
  8 16  1  0
  9 10  1  0
  9  8  2  0
 10 11  1  0
 11 16  2  0
 11 12  1  0
 12 13  2  0
 13 14  1  0
 15 14  2  0
 16 15  1  0
 17 24  1  0
 17 18  2  0
 20 19  1  1
 20 21  1  0
 22 20  1  0
 23 22  1  6
 23 25  1  0
 24 23  1  0
 25 26  2  0
 25 27  1  0
M  END
$$$$
