GWL.pdb
     RDKit          3D

 27 28  0  0  1  0  0  0  0  0999 V2000
   30.0319  -22.0595  -18.0232 N   0  0  0  0  0  0  0  0  0  0  0  0
   28.6428  -22.2453  -17.6950 C   0  0  0  0  0  0  0  0  0  0  0  0
   28.2505  -21.2398  -16.6544 C   0  0  0  0  0  0  0  0  0  0  0  0
   29.1136  -20.4642  -16.1652 O   0  0  0  0  0  0  0  0  0  0  0  0
   26.8860  -21.2138  -16.2632 N   0  0  0  0  0  0  0  0  0  0  0  0
   26.4181  -20.1647  -15.3817 C   0  0  1  0  0  0  0  0  0  0  0  0
   25.2700  -19.4223  -16.0395 C   0  0  0  0  0  0  0  0  0  0  0  0
   25.6996  -18.2758  -16.8420 C   0  0  0  0  0  0  0  0  0  0  0  0
   25.6441  -18.1517  -18.2094 C   0  0  0  0  0  0  0  0  0  0  0  0
   26.1404  -16.9422  -18.5479 N   0  0  0  0  0  0  0  0  0  0  0  0
   26.5161  -16.2816  -17.4196 C   0  0  0  0  0  0  0  0  0  0  0  0
   27.0701  -15.0305  -17.2472 C   0  0  0  0  0  0  0  0  0  0  0  0
   27.3661  -14.5765  -15.9866 C   0  0  0  0  0  0  0  0  0  0  0  0
   27.1020  -15.3854  -14.9090 C   0  0  0  0  0  0  0  0  0  0  0  0
   26.5528  -16.6240  -15.0895 C   0  0  0  0  0  0  0  0  0  0  0  0
   26.2431  -17.1108  -16.3464 C   0  0  0  0  0  0  0  0  0  0  0  0
   25.8390  -20.8089  -14.1668 C   0  0  0  0  0  0  0  0  0  0  0  0
   25.1745  -21.8577  -14.2822 O   0  0  0  0  0  0  0  0  0  0  0  0
   26.5323  -20.2849   -8.0246 C   0  0  0  0  0  0  0  0  0  0  0  0
   25.7009  -20.8994   -9.1484 C   0  0  2  0  0  0  0  0  0  0  0  0
   25.4062  -22.3070   -8.8435 C   0  0  0  0  0  0  0  0  0  0  0  0
   26.1502  -20.5105  -10.4889 C   0  0  0  0  0  0  0  0  0  0  0  0
   25.3802  -20.9249  -11.6848 C   0  0  2  0  0  0  0  0  0  0  0  0
   25.9998  -20.2943  -12.8713 N   0  0  0  0  0  0  0  0  0  0  0  0
   23.9560  -20.5529  -11.7227 C   0  0  0  0  0  0  0  0  0  0  0  0
   23.1133  -21.3596  -11.1864 O   0  0  0  0  0  0  0  0  0  0  0  0
   23.4445  -19.3913  -12.2921 O   0  0  0  0  0  0  0  0  0  0  0  0
  1  2  1  0
  2  3  1  0
  3  4  2  0
  5  6  1  0
  5  3  1  0
  6 17  1  0
  7  8  1  0
  6  7  1  6
  8 16  1  0
  9 10  1  0
  9  8  2  0
 10 11  1  0
 11 16  2  0
 11 12  1  0
 12 13  2  0
 13 14  1  0
 15 14  2  0
 16 15  1  0
 17 24  1  0
 17 18  2  0
 20 19  1  1
 20 21  1  0
 22 20  1  0
 23 22  1  1
 23 25  1  0
 24 23  1  0
 25 26  2  0
 25 27  1  0
M  END
$$$$
