GWL.pdb
     RDKit          3D

 27 28  0  0  1  0  0  0  0  0999 V2000
   21.4887  -20.0284  -12.7701 N   0  0  0  0  0  0  0  0  0  0  0  0
   22.3487  -20.9493  -12.0743 C   0  0  0  0  0  0  0  0  0  0  0  0
   23.7742  -20.5326  -12.2792 C   0  0  0  0  0  0  0  0  0  0  0  0
   24.0556  -19.6160  -13.0956 O   0  0  0  0  0  0  0  0  0  0  0  0
   24.7618  -21.2133  -11.5198 N   0  0  0  0  0  0  0  0  0  0  0  0
   26.1628  -20.9804  -11.8021 C   0  0  1  0  0  0  0  0  0  0  0  0
   27.0040  -21.4667  -10.6369 C   0  0  0  0  0  0  0  0  0  0  0  0
   26.7583  -20.7341   -9.3935 C   0  0  0  0  0  0  0  0  0  0  0  0
   25.5902  -20.1226   -9.0068 C   0  0  0  0  0  0  0  0  0  0  0  0
   25.7853  -19.5586   -7.7953 N   0  0  0  0  0  0  0  0  0  0  0  0
   27.0626  -19.7962   -7.3922 C   0  0  0  0  0  0  0  0  0  0  0  0
   27.7300  -19.4308   -6.2420 C   0  0  0  0  0  0  0  0  0  0  0  0
   29.0399  -19.7965   -6.0605 C   0  0  0  0  0  0  0  0  0  0  0  0
   29.6684  -20.5275   -7.0384 C   0  0  0  0  0  0  0  0  0  0  0  0
   28.9989  -20.8852   -8.1751 C   0  0  0  0  0  0  0  0  0  0  0  0
   27.6789  -20.5323   -8.3884 C   0  0  0  0  0  0  0  0  0  0  0  0
   26.5468  -21.8365  -12.9622 C   0  0  0  0  0  0  0  0  0  0  0  0
   26.4900  -23.0778  -12.8583 O   0  0  0  0  0  0  0  0  0  0  0  0
   25.8794  -24.7125  -15.7861 C   0  0  0  0  0  0  0  0  0  0  0  0
   24.8094  -23.6324  -15.9280 C   0  0  2  0  0  0  0  0  0  0  0  0
   24.0340  -23.8518  -17.1576 C   0  0  0  0  0  0  0  0  0  0  0  0
   25.2841  -22.2889  -15.5818 C   0  0  0  0  0  0  0  0  0  0  0  0
   26.7359  -22.0135  -15.4757 C   0  0  2  0  0  0  0  0  0  0  0  0
   26.9788  -21.3179  -14.1925 N   0  0  0  0  0  0  0  0  0  0  0  0
   27.3312  -21.1625  -16.5195 C   0  0  0  0  0  0  0  0  0  0  0  0
   27.0258  -19.9154  -16.5196 O   0  0  0  0  0  0  0  0  0  0  0  0
   28.2050  -21.5993  -17.5099 O   0  0  0  0  0  0  0  0  0  0  0  0
  1  2  1  0
  2  3  1  0
  3  4  2  0
  5  6  1  0
  5  3  1  0
  6 17  1  0
  7  8  1  0
  6  7  1  1
  8 16  1  0
  9 10  1  0
  9  8  2  0
 10 11  1  0
 11 16  2  0
 11 12  1  0
 12 13  2  0
 13 14  1  0
 15 14  2  0
 16 15  1  0
 17 24  1  0
 17 18  2  0
 20 19  1  6
 20 21  1  0
 22 20  1  0
 23 22  1  6
 23 25  1  0
 24 23  1  0
 25 26  2  0
 25 27  1  0
M  END
$$$$
