GWL.pdb
     RDKit          3D

 27 28  0  0  1  0  0  0  0  0999 V2000
   19.8332  -10.4470  -21.4951 N   0  0  0  0  0  0  0  0  0  0  0  0
   19.0430   -9.2818  -21.1954 C   0  0  0  0  0  0  0  0  0  0  0  0
   18.9470   -9.1293  -19.7070 C   0  0  0  0  0  0  0  0  0  0  0  0
   17.8432   -9.2914  -19.1231 O   0  0  0  0  0  0  0  0  0  0  0  0
   20.1410   -8.8000  -19.0131 N   0  0  0  0  0  0  0  0  0  0  0  0
   20.0958   -8.5820  -17.5824 C   0  0  1  0  0  0  0  0  0  0  0  0
   21.4702   -8.8243  -16.9873 C   0  0  0  0  0  0  0  0  0  0  0  0
   21.5141   -8.6608  -15.5332 C   0  0  0  0  0  0  0  0  0  0  0  0
   21.2846   -9.6253  -14.5818 C   0  0  0  0  0  0  0  0  0  0  0  0
   21.4217   -9.0617  -13.3622 N   0  0  0  0  0  0  0  0  0  0  0  0
   21.7365   -7.7466  -13.5104 C   0  0  0  0  0  0  0  0  0  0  0  0
   21.9746   -6.7632  -12.5732 C   0  0  0  0  0  0  0  0  0  0  0  0
   22.2804   -5.4878  -12.9763 C   0  0  0  0  0  0  0  0  0  0  0  0
   22.3443   -5.2118  -14.3198 C   0  0  0  0  0  0  0  0  0  0  0  0
   22.1069   -6.1928  -15.2415 C   0  0  0  0  0  0  0  0  0  0  0  0
   21.7963   -7.4877  -14.8681 C   0  0  0  0  0  0  0  0  0  0  0  0
   19.8024   -7.1383  -17.3461 C   0  0  0  0  0  0  0  0  0  0  0  0
   20.3514   -6.2730  -18.0566 O   0  0  0  0  0  0  0  0  0  0  0  0
   15.4090   -3.5928  -17.7150 C   0  0  0  0  0  0  0  0  0  0  0  0
   16.7980   -3.6402  -17.0825 C   0  0  2  0  0  0  0  0  0  0  0  0
   17.6115   -2.5178  -17.5719 C   0  0  0  0  0  0  0  0  0  0  0  0
   17.3646   -4.9910  -17.0145 C   0  0  0  0  0  0  0  0  0  0  0  0
   18.5711   -5.2551  -16.1963 C   0  0  2  0  0  0  0  0  0  0  0  0
   18.9260   -6.6835  -16.3491 N   0  0  0  0  0  0  0  0  0  0  0  0
   18.4600   -5.0156  -14.7477 C   0  0  0  0  0  0  0  0  0  0  0  0
   17.9683   -5.9545  -14.0230 O   0  0  0  0  0  0  0  0  0  0  0  0
   18.8488   -3.8507  -14.0944 O   0  0  0  0  0  0  0  0  0  0  0  0
  1  2  1  0
  2  3  1  0
  3  4  2  0
  5  6  1  0
  5  3  1  0
  6 17  1  0
  7  8  1  0
  6  7  1  1
  8 16  1  0
  9 10  1  0
  9  8  2  0
 10 11  1  0
 11 16  2  0
 11 12  1  0
 12 13  2  0
 13 14  1  0
 15 14  2  0
 16 15  1  0
 17 24  1  0
 17 18  2  0
 20 19  1  6
 20 21  1  0
 22 20  1  0
 23 22  1  6
 23 25  1  0
 24 23  1  0
 25 26  2  0
 25 27  1  0
M  END
$$$$
