MEI.pdb
     RDKit          3D

 26 25  0  0  1  0  0  0  0  0999 V2000
   22.2053  -35.5503  -11.2823 C   0  0  0  0  0  0  0  0  0  0  0  0
   22.2757  -33.7656  -11.6259 S   0  0  0  0  0  0  0  0  0  0  0  0
   23.6884  -33.1000  -10.7259 C   0  0  0  0  0  0  0  0  0  0  0  0
   24.1280  -34.0181   -9.6003 C   0  0  0  0  0  0  0  0  0  0  0  0
   24.1441  -33.1828   -8.3430 C   0  0  2  0  0  0  0  0  0  0  0  0
   24.9588  -32.0154   -8.5872 N   0  0  0  0  0  0  0  0  0  0  0  0
   24.6392  -33.8900   -7.1693 C   0  0  0  0  0  0  0  0  0  0  0  0
   25.8315  -34.1930   -7.0439 O   0  0  0  0  0  0  0  0  0  0  0  0
   23.7369  -34.2433   -6.1411 N   0  0  0  0  0  0  0  0  0  0  0  0
   24.1208  -34.9472   -4.9171 C   0  0  1  0  0  0  0  0  0  0  0  0
   24.5357  -33.9980   -3.8551 C   0  0  0  0  0  0  0  0  0  0  0  0
   26.0281  -33.8892   -3.7797 C   0  0  0  0  0  0  0  0  0  0  0  0
   26.4002  -32.9052   -2.7190 C   0  0  0  0  0  0  0  0  0  0  0  0
   26.3643  -33.2558   -1.5281 O   0  0  0  0  0  0  0  0  0  0  0  0
   22.9783  -35.8160   -4.5857 C   0  0  0  0  0  0  0  0  0  0  0  0
   22.0756  -36.0519   -5.4170 O   0  0  0  0  0  0  0  0  0  0  0  0
   26.7734  -31.6354   -3.0814 O   0  0  0  0  0  0  0  0  0  0  0  0
   20.4616  -40.4464   -4.9162 C   0  0  0  0  0  0  0  0  0  0  0  0
   20.5376  -39.4437   -3.7567 C   0  0  0  0  0  0  0  0  0  0  0  0
   21.6204  -38.4542   -3.9774 C   0  0  2  0  0  0  0  0  0  0  0  0
   22.9656  -39.1898   -3.8950 C   0  0  0  0  0  0  0  0  0  0  0  0
   21.6786  -37.3155   -2.9956 C   0  0  2  0  0  0  0  0  0  0  0  0
   22.8266  -36.4409   -3.3028 N   0  0  0  0  0  0  0  0  0  0  0  0
   21.7078  -37.7401   -1.5951 C   0  0  0  0  0  0  0  0  0  0  0  0
   22.7510  -37.7112   -0.9200 O   0  0  0  0  0  0  0  0  0  0  0  0
   20.5468  -38.1881   -0.9962 O   0  0  0  0  0  0  0  0  0  0  0  0
  2  1  1  0
  3  4  1  0
  3  2  1  0
  4  5  1  0
  5  6  1  6
  7  5  1  0
  7  8  2  0
  9  7  1  0
 10  9  1  0
 11 12  1  0
 10 11  1  1
 12 13  1  0
 13 14  2  0
 15 10  1  0
 16 15  2  0
 17 13  1  0
 19 18  1  0
 20 19  1  0
 20 21  1  1
 22 20  1  0
 22 23  1  6
 23 15  1  0
 24 22  1  0
 25 24  2  0
 26 24  1  0
M  END
$$$$
