MEI.pdb
     RDKit          3D

 26 25  0  0  1  0  0  0  0  0999 V2000
   27.7273  -19.2764   -7.9996 C   0  0  0  0  0  0  0  0  0  0  0  0
   28.7215  -20.6239   -8.7098 S   0  0  0  0  0  0  0  0  0  0  0  0
   28.9195  -20.2773  -10.4675 C   0  0  0  0  0  0  0  0  0  0  0  0
   27.5860  -20.0459  -11.1541 C   0  0  0  0  0  0  0  0  0  0  0  0
   26.8961  -21.3869  -11.2209 C   0  0  2  0  0  0  0  0  0  0  0  0
   27.6943  -22.2646  -12.0447 N   0  0  0  0  0  0  0  0  0  0  0  0
   25.5365  -21.3274  -11.7412 C   0  0  0  0  0  0  0  0  0  0  0  0
   25.2183  -21.8778  -12.8018 O   0  0  0  0  0  0  0  0  0  0  0  0
   24.5481  -20.6221  -11.0188 N   0  0  0  0  0  0  0  0  0  0  0  0
   23.1326  -20.5823  -11.3876 C   0  0  1  0  0  0  0  0  0  0  0  0
   22.2964  -20.0819  -10.2689 C   0  0  0  0  0  0  0  0  0  0  0  0
   20.8477  -20.0484  -10.6494 C   0  0  0  0  0  0  0  0  0  0  0  0
   20.2083  -21.3474  -10.2809 C   0  0  0  0  0  0  0  0  0  0  0  0
   20.3866  -21.8084   -9.1415 O   0  0  0  0  0  0  0  0  0  0  0  0
   23.0702  -19.7965  -12.6320 C   0  0  0  0  0  0  0  0  0  0  0  0
   23.8195  -18.8146  -12.8217 O   0  0  0  0  0  0  0  0  0  0  0  0
   19.4384  -22.0042  -11.2075 O   0  0  0  0  0  0  0  0  0  0  0  0
   24.8442  -19.2076  -17.7242 C   0  0  0  0  0  0  0  0  0  0  0  0
   23.4932  -18.9222  -17.0543 C   0  0  0  0  0  0  0  0  0  0  0  0
   23.4086  -19.5748  -15.7249 C   0  0  2  0  0  0  0  0  0  0  0  0
   23.5247  -21.0922  -15.9279 C   0  0  0  0  0  0  0  0  0  0  0  0
   22.1413  -19.3280  -14.9523 C   0  0  2  0  0  0  0  0  0  0  0  0
   22.1562  -20.1010  -13.6956 N   0  0  0  0  0  0  0  0  0  0  0  0
   20.9202  -19.5956  -15.7138 C   0  0  0  0  0  0  0  0  0  0  0  0
   20.6369  -18.9647  -16.7465 O   0  0  0  0  0  0  0  0  0  0  0  0
   20.0500  -20.5765  -15.2804 O   0  0  0  0  0  0  0  0  0  0  0  0
  2  1  1  0
  3  4  1  0
  3  2  1  0
  4  5  1  0
  5  6  1  6
  7  5  1  0
  7  8  2  0
  9  7  1  0
 10  9  1  0
 11 12  1  0
 10 11  1  1
 12 13  1  0
 13 14  2  0
 15 10  1  0
 16 15  2  0
 17 13  1  0
 19 18  1  0
 20 19  1  0
 20 21  1  6
 22 20  1  0
 22 23  1  1
 23 15  1  0
 24 22  1  0
 25 24  2  0
 26 24  1  0
M  END
$$$$
