MEI.pdb
     RDKit          3D

 26 25  0  0  1  0  0  0  0  0999 V2000
   16.9310  -15.0789  -14.8595 C   0  0  0  0  0  0  0  0  0  0  0  0
   15.6691  -15.1488  -16.1676 S   0  0  0  0  0  0  0  0  0  0  0  0
   16.3613  -14.3470  -17.6260 C   0  0  0  0  0  0  0  0  0  0  0  0
   17.6287  -13.5774  -17.3028 C   0  0  0  0  0  0  0  0  0  0  0  0
   18.1156  -12.9820  -18.6017 C   0  0  2  0  0  0  0  0  0  0  0  0
   18.8762  -13.9899  -19.3030 N   0  0  0  0  0  0  0  0  0  0  0  0
   18.9261  -11.7827  -18.4357 C   0  0  0  0  0  0  0  0  0  0  0  0
   20.1617  -11.8269  -18.4156 O   0  0  0  0  0  0  0  0  0  0  0  0
   18.2889  -10.5298  -18.2926 N   0  0  0  0  0  0  0  0  0  0  0  0
   18.9928   -9.2766  -18.0190 C   0  0  1  0  0  0  0  0  0  0  0  0
   18.1580   -8.1005  -18.3669 C   0  0  0  0  0  0  0  0  0  0  0  0
   18.8680   -6.8201  -18.0488 C   0  0  0  0  0  0  0  0  0  0  0  0
   18.0813   -6.0560  -17.0343 C   0  0  0  0  0  0  0  0  0  0  0  0
   16.8455   -5.9988  -17.1440 O   0  0  0  0  0  0  0  0  0  0  0  0
   19.4201   -9.3621  -16.6119 C   0  0  0  0  0  0  0  0  0  0  0  0
   18.6011   -9.5807  -15.6937 O   0  0  0  0  0  0  0  0  0  0  0  0
   18.7390   -5.4335  -16.0034 O   0  0  0  0  0  0  0  0  0  0  0  0
   24.5793  -10.6383  -14.3765 C   0  0  0  0  0  0  0  0  0  0  0  0
   23.3706  -10.3485  -15.2768 C   0  0  0  0  0  0  0  0  0  0  0  0
   22.1132  -10.3242  -14.4903 C   0  0  2  0  0  0  0  0  0  0  0  0
   21.3441  -11.6218  -14.7763 C   0  0  0  0  0  0  0  0  0  0  0  0
   21.1780   -9.1824  -14.7834 C   0  0  2  0  0  0  0  0  0  0  0  0
   20.7871   -9.2011  -16.2060 N   0  0  0  0  0  0  0  0  0  0  0  0
   21.7063   -7.8706  -14.4058 C   0  0  0  0  0  0  0  0  0  0  0  0
   21.9122   -7.5604  -13.2199 O   0  0  0  0  0  0  0  0  0  0  0  0
   21.9876   -6.9423  -15.3888 O   0  0  0  0  0  0  0  0  0  0  0  0
  2  1  1  0
  3  4  1  0
  3  2  1  0
  4  5  1  0
  5  6  1  1
  7  5  1  0
  7  8  2  0
  9  7  1  0
 10  9  1  0
 11 12  1  0
 10 11  1  1
 12 13  1  0
 13 14  2  0
 15 10  1  0
 16 15  2  0
 17 13  1  0
 19 18  1  0
 20 19  1  0
 20 21  1  6
 22 20  1  0
 22 23  1  6
 23 15  1  0
 24 22  1  0
 25 24  2  0
 26 24  1  0
M  END
$$$$
