MEI.pdb
     RDKit          3D

 26 25  0  0  1  0  0  0  0  0999 V2000
   18.1300  -25.6227   -4.3062 C   0  0  0  0  0  0  0  0  0  0  0  0
   17.3855  -26.1732   -2.7406 S   0  0  0  0  0  0  0  0  0  0  0  0
   15.7273  -25.4715   -2.6578 C   0  0  0  0  0  0  0  0  0  0  0  0
   15.6563  -24.2939   -1.7031 C   0  0  0  0  0  0  0  0  0  0  0  0
   14.2469  -23.7590   -1.7810 C   0  0  2  0  0  0  0  0  0  0  0  0
   14.0673  -23.1477   -3.0772 N   0  0  0  0  0  0  0  0  0  0  0  0
   13.9202  -22.7981   -0.7357 C   0  0  0  0  0  0  0  0  0  0  0  0
   13.7336  -21.6011   -0.9839 O   0  0  0  0  0  0  0  0  0  0  0  0
   13.8122  -23.2391    0.6022 N   0  0  0  0  0  0  0  0  0  0  0  0
   13.4045  -22.3854    1.7184 C   0  0  1  0  0  0  0  0  0  0  0  0
   12.4581  -23.0883    2.6191 C   0  0  0  0  0  0  0  0  0  0  0  0
   12.0231  -22.2011    3.7454 C   0  0  0  0  0  0  0  0  0  0  0  0
   12.4454  -22.8062    5.0444 C   0  0  0  0  0  0  0  0  0  0  0  0
   12.0815  -23.9609    5.3213 O   0  0  0  0  0  0  0  0  0  0  0  0
   14.6571  -21.9253    2.3423 C   0  0  0  0  0  0  0  0  0  0  0  0
   15.6337  -22.6915    2.4865 O   0  0  0  0  0  0  0  0  0  0  0  0
   13.2256  -22.0749    5.9042 O   0  0  0  0  0  0  0  0  0  0  0  0
   18.2584  -18.9181    0.5346 C   0  0  0  0  0  0  0  0  0  0  0  0
   17.6107  -19.9394    1.4795 C   0  0  0  0  0  0  0  0  0  0  0  0
   16.8748  -19.2613    2.5744 C   0  0  2  0  0  0  0  0  0  0  0  0
   17.8947  -18.5166    3.4476 C   0  0  0  0  0  0  0  0  0  0  0  0
   16.0833  -20.1584    3.4869 C   0  0  2  0  0  0  0  0  0  0  0  0
   14.8373  -20.5846    2.8212 N   0  0  0  0  0  0  0  0  0  0  0  0
   15.7989  -19.5705    4.7969 C   0  0  0  0  0  0  0  0  0  0  0  0
   14.6943  -19.0690    5.0675 O   0  0  0  0  0  0  0  0  0  0  0  0
   16.7804  -19.5678    5.7684 O   0  0  0  0  0  0  0  0  0  0  0  0
  2  1  1  0
  3  4  1  0
  3  2  1  0
  4  5  1  0
  5  6  1  6
  7  5  1  0
  7  8  2  0
  9  7  1  0
 10  9  1  0
 11 12  1  0
 10 11  1  1
 12 13  1  0
 13 14  2  0
 15 10  1  0
 16 15  2  0
 17 13  1  0
 19 18  1  0
 20 19  1  0
 20 21  1  1
 22 20  1  0
 22 23  1  6
 23 15  1  0
 24 22  1  0
 25 24  2  0
 26 24  1  0
M  END
$$$$
