MEI.pdb
     RDKit          3D

 26 25  0  0  1  0  0  0  0  0999 V2000
   28.5839  -15.4232  -17.4062 C   0  0  0  0  0  0  0  0  0  0  0  0
   29.1926  -16.8370  -18.3753 S   0  0  0  0  0  0  0  0  0  0  0  0
   28.9236  -18.3211  -17.3884 C   0  0  0  0  0  0  0  0  0  0  0  0
   28.0315  -18.0521  -16.1905 C   0  0  0  0  0  0  0  0  0  0  0  0
   28.0958  -19.2831  -15.3191 C   0  0  2  0  0  0  0  0  0  0  0  0
   27.8624  -20.4390  -16.1530 N   0  0  0  0  0  0  0  0  0  0  0  0
   27.1467  -19.2756  -14.2137 C   0  0  0  0  0  0  0  0  0  0  0  0
   27.0951  -18.3430  -13.4033 O   0  0  0  0  0  0  0  0  0  0  0  0
   26.2569  -20.3618  -14.0566 N   0  0  0  0  0  0  0  0  0  0  0  0
   25.1663  -20.3961  -13.0818 C   0  0  1  0  0  0  0  0  0  0  0  0
   24.0683  -21.2876  -13.5300 C   0  0  0  0  0  0  0  0  0  0  0  0
   22.9107  -21.2397  -12.5801 C   0  0  0  0  0  0  0  0  0  0  0  0
   21.8675  -20.3145  -13.1165 C   0  0  0  0  0  0  0  0  0  0  0  0
   21.5756  -20.3651  -14.3226 O   0  0  0  0  0  0  0  0  0  0  0  0
   25.7944  -20.7532  -11.7981 C   0  0  0  0  0  0  0  0  0  0  0  0
   26.6713  -21.6406  -11.7255 O   0  0  0  0  0  0  0  0  0  0  0  0
   21.2539  -19.4286  -12.2671 O   0  0  0  0  0  0  0  0  0  0  0  0
   28.6000  -18.6913   -7.8835 C   0  0  0  0  0  0  0  0  0  0  0  0
   27.8944  -19.7176   -8.7803 C   0  0  0  0  0  0  0  0  0  0  0  0
   26.4853  -19.9134   -8.3604 C   0  0  2  0  0  0  0  0  0  0  0  0
   26.4858  -20.5700   -6.9726 C   0  0  0  0  0  0  0  0  0  0  0  0
   25.6473  -20.7811   -9.2597 C   0  0  2  0  0  0  0  0  0  0  0  0
   25.4457  -20.1153  -10.5608 N   0  0  0  0  0  0  0  0  0  0  0  0
   24.3660  -21.1793   -8.6745 C   0  0  0  0  0  0  0  0  0  0  0  0
   23.2888  -20.6868   -9.0513 O   0  0  0  0  0  0  0  0  0  0  0  0
   24.3421  -22.1299   -7.6730 O   0  0  0  0  0  0  0  0  0  0  0  0
  2  1  1  0
  3  4  1  0
  3  2  1  0
  4  5  1  0
  5  6  1  6
  7  5  1  0
  7  8  2  0
  9  7  1  0
 10  9  1  0
 11 12  1  0
 10 11  1  6
 12 13  1  0
 13 14  2  0
 15 10  1  0
 16 15  2  0
 17 13  1  0
 19 18  1  0
 20 19  1  0
 20 21  1  1
 22 20  1  0
 22 23  1  6
 23 15  1  0
 24 22  1  0
 25 24  2  0
 26 24  1  0
M  END
$$$$
