MEI.pdb
     RDKit          3D

 26 25  0  0  1  0  0  0  0  0999 V2000
   27.4522  -21.4405   -9.3379 C   0  0  0  0  0  0  0  0  0  0  0  0
   29.0062  -21.2715  -10.2680 S   0  0  0  0  0  0  0  0  0  0  0  0
   28.5885  -21.2917  -12.0212 C   0  0  0  0  0  0  0  0  0  0  0  0
   27.2310  -20.6681  -12.2885 C   0  0  0  0  0  0  0  0  0  0  0  0
   27.0029  -20.7520  -13.7784 C   0  0  2  0  0  0  0  0  0  0  0  0
   28.1223  -20.1257  -14.4423 N   0  0  0  0  0  0  0  0  0  0  0  0
   25.7605  -20.1339  -14.2224 C   0  0  0  0  0  0  0  0  0  0  0  0
   25.5939  -18.9089  -14.1944 O   0  0  0  0  0  0  0  0  0  0  0  0
   24.7114  -20.9513  -14.6994 N   0  0  0  0  0  0  0  0  0  0  0  0
   23.4140  -20.4445  -15.1477 C   0  0  1  0  0  0  0  0  0  0  0  0
   23.1760  -20.7584  -16.5781 C   0  0  0  0  0  0  0  0  0  0  0  0
   21.9032  -20.1350  -17.0641 C   0  0  0  0  0  0  0  0  0  0  0  0
   21.3290  -20.9715  -18.1607 C   0  0  0  0  0  0  0  0  0  0  0  0
   22.0966  -21.5935  -18.9132 O   0  0  0  0  0  0  0  0  0  0  0  0
   22.4270  -20.9924  -14.2014 C   0  0  0  0  0  0  0  0  0  0  0  0
   22.5606  -22.1321  -13.7065 O   0  0  0  0  0  0  0  0  0  0  0  0
   19.9669  -21.0352  -18.3143 O   0  0  0  0  0  0  0  0  0  0  0  0
   21.1830  -19.2743   -9.4340 C   0  0  0  0  0  0  0  0  0  0  0  0
   21.3952  -20.0951  -10.7134 C   0  0  0  0  0  0  0  0  0  0  0  0
   20.2088  -20.0167  -11.6003 C   0  0  2  0  0  0  0  0  0  0  0  0
   18.9855  -20.4985  -10.8076 C   0  0  0  0  0  0  0  0  0  0  0  0
   20.2737  -20.8412  -12.8573 C   0  0  2  0  0  0  0  0  0  0  0  0
   21.2607  -20.2645  -13.7902 N   0  0  0  0  0  0  0  0  0  0  0  0
   18.9790  -21.0226  -13.5156 C   0  0  0  0  0  0  0  0  0  0  0  0
   18.5052  -20.1674  -14.2830 O   0  0  0  0  0  0  0  0  0  0  0  0
   18.2541  -22.1750  -13.2840 O   0  0  0  0  0  0  0  0  0  0  0  0
  2  1  1  0
  3  4  1  0
  3  2  1  0
  4  5  1  0
  5  6  1  6
  7  5  1  0
  7  8  2  0
  9  7  1  0
 10  9  1  0
 11 12  1  0
 10 11  1  6
 12 13  1  0
 13 14  2  0
 15 10  1  0
 16 15  2  0
 17 13  1  0
 19 18  1  0
 20 19  1  0
 20 21  1  1
 22 20  1  0
 22 23  1  6
 23 15  1  0
 24 22  1  0
 25 24  2  0
 26 24  1  0
M  END
$$$$
