MEI.pdb
     RDKit          3D

 26 25  0  0  1  0  0  0  0  0999 V2000
   28.6618  -15.2952  -18.9780 C   0  0  0  0  0  0  0  0  0  0  0  0
   30.1892  -16.2534  -18.7386 S   0  0  0  0  0  0  0  0  0  0  0  0
   29.7379  -17.7843  -17.9011 C   0  0  0  0  0  0  0  0  0  0  0  0
   28.9031  -17.5275  -16.6600 C   0  0  0  0  0  0  0  0  0  0  0  0
   28.5779  -18.8788  -16.0709 C   0  0  2  0  0  0  0  0  0  0  0  0
   28.2777  -19.7837  -17.1559 N   0  0  0  0  0  0  0  0  0  0  0  0
   27.4693  -18.8609  -15.1257 C   0  0  0  0  0  0  0  0  0  0  0  0
   27.1960  -17.8563  -14.4584 O   0  0  0  0  0  0  0  0  0  0  0  0
   26.6798  -20.0209  -14.9613 N   0  0  0  0  0  0  0  0  0  0  0  0
   25.4962  -20.0945  -14.1041 C   0  0  1  0  0  0  0  0  0  0  0  0
   24.3757  -20.7861  -14.7878 C   0  0  0  0  0  0  0  0  0  0  0  0
   23.1833  -20.9038  -13.8883 C   0  0  0  0  0  0  0  0  0  0  0  0
   22.1014  -21.6532  -14.5952 C   0  0  0  0  0  0  0  0  0  0  0  0
   22.4085  -22.5811  -15.3614 O   0  0  0  0  0  0  0  0  0  0  0  0
   25.9554  -20.7115  -12.8479 C   0  0  0  0  0  0  0  0  0  0  0  0
   27.0353  -21.3373  -12.7851 O   0  0  0  0  0  0  0  0  0  0  0  0
   20.7919  -21.3014  -14.3844 O   0  0  0  0  0  0  0  0  0  0  0  0
   29.0543  -20.5587   -8.5593 C   0  0  0  0  0  0  0  0  0  0  0  0
   27.6620  -21.1672   -8.7753 C   0  0  0  0  0  0  0  0  0  0  0  0
   27.0576  -20.6806  -10.0395 C   0  0  2  0  0  0  0  0  0  0  0  0
   26.9126  -19.1550   -9.9451 C   0  0  0  0  0  0  0  0  0  0  0  0
   25.6985  -21.2339  -10.3725 C   0  0  2  0  0  0  0  0  0  0  0  0
   25.2033  -20.6375  -11.6279 N   0  0  0  0  0  0  0  0  0  0  0  0
   24.7154  -21.0791   -9.2992 C   0  0  0  0  0  0  0  0  0  0  0  0
   24.8632  -21.6170   -8.1886 O   0  0  0  0  0  0  0  0  0  0  0  0
   23.5860  -20.3147   -9.5168 O   0  0  0  0  0  0  0  0  0  0  0  0
  2  1  1  0
  3  4  1  0
  3  2  1  0
  4  5  1  0
  5  6  1  6
  7  5  1  0
  7  8  2  0
  9  7  1  0
 10  9  1  0
 11 12  1  0
 10 11  1  6
 12 13  1  0
 13 14  2  0
 15 10  1  0
 16 15  2  0
 17 13  1  0
 19 18  1  0
 20 19  1  0
 20 21  1  1
 22 20  1  0
 22 23  1  6
 23 15  1  0
 24 22  1  0
 25 24  2  0
 26 24  1  0
M  END
$$$$
