MEI.pdb
     RDKit          3D

 26 25  0  0  1  0  0  0  0  0999 V2000
   27.8628  -18.8339   -7.1953 C   0  0  0  0  0  0  0  0  0  0  0  0
   26.1707  -19.4820   -7.0370 S   0  0  0  0  0  0  0  0  0  0  0  0
   25.9577  -20.7450   -8.3052 C   0  0  0  0  0  0  0  0  0  0  0  0
   26.2020  -20.1966   -9.6990 C   0  0  0  0  0  0  0  0  0  0  0  0
   26.0407  -21.3551  -10.6534 C   0  0  2  0  0  0  0  0  0  0  0  0
   27.2958  -22.0671  -10.7149 N   0  0  0  0  0  0  0  0  0  0  0  0
   25.6324  -20.9631  -11.9959 C   0  0  0  0  0  0  0  0  0  0  0  0
   26.4557  -20.6474  -12.8630 O   0  0  0  0  0  0  0  0  0  0  0  0
   24.2583  -20.9401  -12.3236 N   0  0  0  0  0  0  0  0  0  0  0  0
   23.7407  -20.8195  -13.6869 C   0  0  1  0  0  0  0  0  0  0  0  0
   22.4104  -21.4628  -13.8190 C   0  0  0  0  0  0  0  0  0  0  0  0
   21.8852  -21.3372  -15.2166 C   0  0  0  0  0  0  0  0  0  0  0  0
   22.4635  -22.4241  -16.0628 C   0  0  0  0  0  0  0  0  0  0  0  0
   22.7003  -23.5300  -15.5496 O   0  0  0  0  0  0  0  0  0  0  0  0
   23.7882  -19.3813  -14.0020 C   0  0  0  0  0  0  0  0  0  0  0  0
   23.2870  -18.5292  -13.2376 O   0  0  0  0  0  0  0  0  0  0  0  0
   22.7213  -22.1789  -17.3881 O   0  0  0  0  0  0  0  0  0  0  0  0
   27.3355  -14.9418  -15.6589 C   0  0  0  0  0  0  0  0  0  0  0  0
   25.8870  -15.4244  -15.8146 C   0  0  0  0  0  0  0  0  0  0  0  0
   25.7483  -16.8402  -15.3945 C   0  0  2  0  0  0  0  0  0  0  0  0
   26.6903  -17.6907  -16.2586 C   0  0  0  0  0  0  0  0  0  0  0  0
   24.3715  -17.4322  -15.5274 C   0  0  2  0  0  0  0  0  0  0  0  0
   24.4040  -18.8688  -15.1926 N   0  0  0  0  0  0  0  0  0  0  0  0
   23.7568  -17.2170  -16.8384 C   0  0  0  0  0  0  0  0  0  0  0  0
   23.5725  -16.0777  -17.2998 O   0  0  0  0  0  0  0  0  0  0  0  0
   23.3663  -18.3055  -17.5932 O   0  0  0  0  0  0  0  0  0  0  0  0
  2  1  1  0
  3  4  1  0
  3  2  1  0
  4  5  1  0
  5  6  1  6
  7  5  1  0
  7  8  2  0
  9  7  1  0
 10  9  1  0
 11 12  1  0
 10 11  1  1
 12 13  1  0
 13 14  2  0
 15 10  1  0
 16 15  2  0
 17 13  1  0
 19 18  1  0
 20 19  1  0
 20 21  1  6
 22 20  1  0
 22 23  1  6
 23 15  1  0
 24 22  1  0
 25 24  2  0
 26 24  1  0
M  END
$$$$
