MEI.pdb
     RDKit          3D

 26 25  0  0  1  0  0  0  0  0999 V2000
   10.5726  -10.5168  -14.2794 C   0  0  0  0  0  0  0  0  0  0  0  0
   11.0453  -12.1642  -14.8887 S   0  0  0  0  0  0  0  0  0  0  0  0
   12.8236  -12.1393  -15.1816 C   0  0  0  0  0  0  0  0  0  0  0  0
   13.5982  -11.7431  -13.9382 C   0  0  0  0  0  0  0  0  0  0  0  0
   15.0513  -11.6676  -14.3403 C   0  0  2  0  0  0  0  0  0  0  0  0
   15.5324  -13.0135  -14.5483 N   0  0  0  0  0  0  0  0  0  0  0  0
   15.8991  -10.9878  -13.3698 C   0  0  0  0  0  0  0  0  0  0  0  0
   16.1519  -11.4811  -12.2644 O   0  0  0  0  0  0  0  0  0  0  0  0
   16.4514   -9.7284  -13.6938 N   0  0  0  0  0  0  0  0  0  0  0  0
   17.2747   -8.9333  -12.7822 C   0  0  1  0  0  0  0  0  0  0  0  0
   18.4188   -8.3096  -13.4917 C   0  0  0  0  0  0  0  0  0  0  0  0
   19.2330   -7.4608  -12.5637 C   0  0  0  0  0  0  0  0  0  0  0  0
   20.4420   -6.9587  -13.2836 C   0  0  0  0  0  0  0  0  0  0  0  0
   20.4043   -5.8413  -13.8243 O   0  0  0  0  0  0  0  0  0  0  0  0
   16.3458   -7.9985  -12.1240 C   0  0  0  0  0  0  0  0  0  0  0  0
   15.5475   -7.2993  -12.7837 O   0  0  0  0  0  0  0  0  0  0  0  0
   21.5679   -7.7414  -13.3332 O   0  0  0  0  0  0  0  0  0  0  0  0
   12.1340   -7.4237   -8.0988 C   0  0  0  0  0  0  0  0  0  0  0  0
   13.3465   -6.6388   -8.6179 C   0  0  0  0  0  0  0  0  0  0  0  0
   14.2631   -7.5183   -9.3837 C   0  0  2  0  0  0  0  0  0  0  0  0
   14.8626   -8.5462   -8.4135 C   0  0  0  0  0  0  0  0  0  0  0  0
   15.4145   -6.8307  -10.0661 C   0  0  2  0  0  0  0  0  0  0  0  0
   16.2965   -7.8295  -10.6997 N   0  0  0  0  0  0  0  0  0  0  0  0
   16.1792   -5.9424   -9.1894 C   0  0  0  0  0  0  0  0  0  0  0  0
   17.3480   -6.1970   -8.8520 O   0  0  0  0  0  0  0  0  0  0  0  0
   15.5939   -4.7841   -8.7173 O   0  0  0  0  0  0  0  0  0  0  0  0
  2  1  1  0
  3  4  1  0
  3  2  1  0
  4  5  1  0
  5  6  1  1
  7  5  1  0
  7  8  2  0
  9  7  1  0
 10  9  1  0
 11 12  1  0
 10 11  1  6
 12 13  1  0
 13 14  2  0
 15 10  1  0
 16 15  2  0
 17 13  1  0
 19 18  1  0
 20 19  1  0
 20 21  1  1
 22 20  1  0
 22 23  1  1
 23 15  1  0
 24 22  1  0
 25 24  2  0
 26 24  1  0
M  END
$$$$
