MEI.pdb
     RDKit          3D

 26 25  0  0  1  0  0  0  0  0999 V2000
   27.6405  -18.2462   -6.7710 C   0  0  0  0  0  0  0  0  0  0  0  0
   27.2150  -19.9408   -6.2654 S   0  0  0  0  0  0  0  0  0  0  0  0
   27.1550  -20.9484   -7.7587 C   0  0  0  0  0  0  0  0  0  0  0  0
   26.4896  -20.2175   -8.9103 C   0  0  0  0  0  0  0  0  0  0  0  0
   26.6122  -21.1134  -10.1190 C   0  0  2  0  0  0  0  0  0  0  0  0
   28.0162  -21.3359  -10.3752 N   0  0  0  0  0  0  0  0  0  0  0  0
   25.9729  -20.5829  -11.3159 C   0  0  0  0  0  0  0  0  0  0  0  0
   26.3559  -19.5363  -11.8517 O   0  0  0  0  0  0  0  0  0  0  0  0
   24.8833  -21.2786  -11.8861 N   0  0  0  0  0  0  0  0  0  0  0  0
   24.2499  -20.9157  -13.1542 C   0  0  1  0  0  0  0  0  0  0  0  0
   24.6363  -21.8513  -14.2388 C   0  0  0  0  0  0  0  0  0  0  0  0
   24.0246  -21.4470  -15.5454 C   0  0  0  0  0  0  0  0  0  0  0  0
   24.4071  -22.4353  -16.5984 C   0  0  0  0  0  0  0  0  0  0  0  0
   23.5788  -23.2881  -16.9580 O   0  0  0  0  0  0  0  0  0  0  0  0
   22.8076  -20.8332  -12.8663 C   0  0  0  0  0  0  0  0  0  0  0  0
   22.3677  -20.9399  -11.7015 O   0  0  0  0  0  0  0  0  0  0  0  0
   25.6640  -22.3813  -17.1461 O   0  0  0  0  0  0  0  0  0  0  0  0
   19.4516  -16.7231  -12.0558 C   0  0  0  0  0  0  0  0  0  0  0  0
   19.2555  -18.1604  -12.5570 C   0  0  0  0  0  0  0  0  0  0  0  0
   20.5499  -18.7705  -12.9473 C   0  0  2  0  0  0  0  0  0  0  0  0
   21.2296  -17.8425  -13.9642 C   0  0  0  0  0  0  0  0  0  0  0  0
   20.4688  -20.1340  -13.5786 C   0  0  2  0  0  0  0  0  0  0  0  0
   21.8235  -20.6284  -13.8906 N   0  0  0  0  0  0  0  0  0  0  0  0
   19.6088  -20.1901  -14.7617 C   0  0  0  0  0  0  0  0  0  0  0  0
   20.0749  -20.2175  -15.9136 O   0  0  0  0  0  0  0  0  0  0  0  0
   18.2369  -20.2135  -14.6045 O   0  0  0  0  0  0  0  0  0  0  0  0
  2  1  1  0
  3  4  1  0
  3  2  1  0
  4  5  1  0
  5  6  1  6
  7  5  1  0
  7  8  2  0
  9  7  1  0
 10  9  1  0
 11 12  1  0
 10 11  1  6
 12 13  1  0
 13 14  2  0
 15 10  1  0
 16 15  2  0
 17 13  1  0
 19 18  1  0
 20 19  1  0
 20 21  1  6
 22 20  1  0
 22 23  1  6
 23 15  1  0
 24 22  1  0
 25 24  2  0
 26 24  1  0
M  END
$$$$
