MEI.pdb
     RDKit          3D

 26 25  0  0  1  0  0  0  0  0999 V2000
   29.7895  -17.5264  -18.8199 C   0  0  0  0  0  0  0  0  0  0  0  0
   28.3466  -18.6334  -18.7853 S   0  0  0  0  0  0  0  0  0  0  0  0
   27.6051  -18.4993  -17.1480 C   0  0  0  0  0  0  0  0  0  0  0  0
   28.6518  -18.3208  -16.0637 C   0  0  0  0  0  0  0  0  0  0  0  0
   28.4838  -19.4760  -15.1066 C   0  0  2  0  0  0  0  0  0  0  0  0
   28.1280  -20.6481  -15.8721 N   0  0  0  0  0  0  0  0  0  0  0  0
   27.4862  -19.2452  -14.0702 C   0  0  0  0  0  0  0  0  0  0  0  0
   27.5050  -18.2338  -13.3590 O   0  0  0  0  0  0  0  0  0  0  0  0
   26.4653  -20.2003  -13.8657 N   0  0  0  0  0  0  0  0  0  0  0  0
   25.3517  -20.0256  -12.9327 C   0  0  1  0  0  0  0  0  0  0  0  0
   24.0717  -20.4835  -13.5268 C   0  0  0  0  0  0  0  0  0  0  0  0
   22.9507  -20.3862  -12.5375 C   0  0  0  0  0  0  0  0  0  0  0  0
   21.7033  -20.9388  -13.1462 C   0  0  0  0  0  0  0  0  0  0  0  0
   20.8334  -20.1554  -13.5609 O   0  0  0  0  0  0  0  0  0  0  0  0
   25.7618  -20.7108  -11.6948 C   0  0  0  0  0  0  0  0  0  0  0  0
   26.2572  -21.8578  -11.7176 O   0  0  0  0  0  0  0  0  0  0  0  0
   21.5439  -22.2988  -13.2345 O   0  0  0  0  0  0  0  0  0  0  0  0
   28.3053  -19.8215   -6.2783 C   0  0  0  0  0  0  0  0  0  0  0  0
   27.2879  -20.6927   -7.0274 C   0  0  0  0  0  0  0  0  0  0  0  0
   26.9070  -20.0751   -8.3211 C   0  0  2  0  0  0  0  0  0  0  0  0
   26.2544  -18.7163   -8.0295 C   0  0  0  0  0  0  0  0  0  0  0  0
   25.9371  -20.8597   -9.1624 C   0  0  2  0  0  0  0  0  0  0  0  0
   25.6209  -20.1156  -10.3966 N   0  0  0  0  0  0  0  0  0  0  0  0
   24.7130  -21.2415   -8.4566 C   0  0  0  0  0  0  0  0  0  0  0  0
   23.6027  -20.7759   -8.7653 O   0  0  0  0  0  0  0  0  0  0  0  0
   24.7826  -22.1454   -7.4148 O   0  0  0  0  0  0  0  0  0  0  0  0
  2  1  1  0
  3  4  1  0
  3  2  1  0
  4  5  1  0
  5  6  1  6
  7  5  1  0
  7  8  2  0
  9  7  1  0
 10  9  1  0
 11 12  1  0
 10 11  1  6
 12 13  1  0
 13 14  2  0
 15 10  1  0
 16 15  2  0
 17 13  1  0
 19 18  1  0
 20 19  1  0
 20 21  1  1
 22 20  1  0
 22 23  1  6
 23 15  1  0
 24 22  1  0
 25 24  2  0
 26 24  1  0
M  END
$$$$
