MEI.pdb
     RDKit          3D

 26 25  0  0  1  0  0  0  0  0999 V2000
   20.0870  -18.8817  -14.5978 C   0  0  0  0  0  0  0  0  0  0  0  0
   20.5392  -17.2909  -15.3552 S   0  0  0  0  0  0  0  0  0  0  0  0
   22.0981  -17.5341  -16.2266 C   0  0  0  0  0  0  0  0  0  0  0  0
   22.8134  -18.7922  -15.7699 C   0  0  0  0  0  0  0  0  0  0  0  0
   23.9875  -18.3424  -14.9343 C   0  0  2  0  0  0  0  0  0  0  0  0
   24.8046  -17.4649  -15.7396 N   0  0  0  0  0  0  0  0  0  0  0  0
   24.8012  -19.4361  -14.4201 C   0  0  0  0  0  0  0  0  0  0  0  0
   24.2971  -20.4866  -14.0060 O   0  0  0  0  0  0  0  0  0  0  0  0
   26.2071  -19.2994  -14.3903 N   0  0  0  0  0  0  0  0  0  0  0  0
   27.1210  -20.3196  -13.8752 C   0  0  1  0  0  0  0  0  0  0  0  0
   28.4552  -20.2239  -14.5170 C   0  0  0  0  0  0  0  0  0  0  0  0
   28.8911  -21.5509  -15.0591 C   0  0  0  0  0  0  0  0  0  0  0  0
   28.0593  -21.8967  -16.2509 C   0  0  0  0  0  0  0  0  0  0  0  0
   27.5263  -20.9839  -16.9030 O   0  0  0  0  0  0  0  0  0  0  0  0
   27.1046  -20.1621  -12.4107 C   0  0  0  0  0  0  0  0  0  0  0  0
   28.0517  -19.6195  -11.8024 O   0  0  0  0  0  0  0  0  0  0  0  0
   27.9008  -23.2142  -16.6004 O   0  0  0  0  0  0  0  0  0  0  0  0
   27.7124  -19.4033   -7.1504 C   0  0  0  0  0  0  0  0  0  0  0  0
   27.2147  -20.5899   -7.9869 C   0  0  0  0  0  0  0  0  0  0  0  0
   26.9967  -20.1926   -9.3993 C   0  0  2  0  0  0  0  0  0  0  0  0
   26.2052  -18.8770   -9.4101 C   0  0  0  0  0  0  0  0  0  0  0  0
   26.2337  -21.1743  -10.2467 C   0  0  2  0  0  0  0  0  0  0  0  0
   26.0148  -20.6159  -11.5947 N   0  0  0  0  0  0  0  0  0  0  0  0
   24.9697  -21.6138   -9.6536 C   0  0  0  0  0  0  0  0  0  0  0  0
   23.8697  -21.2782  -10.1248 O   0  0  0  0  0  0  0  0  0  0  0  0
   24.9888  -22.4256   -8.5366 O   0  0  0  0  0  0  0  0  0  0  0  0
  2  1  1  0
  3  4  1  0
  3  2  1  0
  4  5  1  0
  5  6  1  6
  7  5  1  0
  7  8  2  0
  9  7  1  0
 10  9  1  0
 11 12  1  0
 10 11  1  6
 12 13  1  0
 13 14  2  0
 15 10  1  0
 16 15  2  0
 17 13  1  0
 19 18  1  0
 20 19  1  0
 20 21  1  1
 22 20  1  0
 22 23  1  6
 23 15  1  0
 24 22  1  0
 25 24  2  0
 26 24  1  0
M  END
$$$$
