MEI.pdb
     RDKit          3D

 26 25  0  0  1  0  0  0  0  0999 V2000
   22.9493  -21.4780   -6.4595 C   0  0  0  0  0  0  0  0  0  0  0  0
   24.3570  -21.1955   -7.5760 S   0  0  0  0  0  0  0  0  0  0  0  0
   23.6846  -20.8474   -9.2117 C   0  0  0  0  0  0  0  0  0  0  0  0
   24.7784  -20.6569  -10.2463 C   0  0  0  0  0  0  0  0  0  0  0  0
   24.0896  -20.3136  -11.5450 C   0  0  2  0  0  0  0  0  0  0  0  0
   23.1874  -21.3919  -11.8760 N   0  0  0  0  0  0  0  0  0  0  0  0
   25.0033  -20.0797  -12.6554 C   0  0  0  0  0  0  0  0  0  0  0  0
   25.9940  -19.3482  -12.5432 O   0  0  0  0  0  0  0  0  0  0  0  0
   24.7564  -20.7027  -13.8993 N   0  0  0  0  0  0  0  0  0  0  0  0
   25.5489  -20.4689  -15.1069 C   0  0  1  0  0  0  0  0  0  0  0  0
   25.5079  -21.6408  -16.0158 C   0  0  0  0  0  0  0  0  0  0  0  0
   26.3217  -21.3969  -17.2499 C   0  0  0  0  0  0  0  0  0  0  0  0
   27.7579  -21.6912  -16.9625 C   0  0  0  0  0  0  0  0  0  0  0  0
   28.0416  -22.5614  -16.1231 O   0  0  0  0  0  0  0  0  0  0  0  0
   25.0452  -19.2052  -15.6719 C   0  0  0  0  0  0  0  0  0  0  0  0
   23.9128  -18.7652  -15.3790 O   0  0  0  0  0  0  0  0  0  0  0  0
   28.7333  -20.9947  -17.6307 O   0  0  0  0  0  0  0  0  0  0  0  0
   26.7602  -13.8367  -15.0100 C   0  0  0  0  0  0  0  0  0  0  0  0
   26.0417  -14.6410  -16.1019 C   0  0  0  0  0  0  0  0  0  0  0  0
   26.2184  -16.0990  -15.8940 C   0  0  2  0  0  0  0  0  0  0  0  0
   27.7115  -16.4260  -16.0389 C   0  0  0  0  0  0  0  0  0  0  0  0
   25.4755  -16.9929  -16.8495 C   0  0  2  0  0  0  0  0  0  0  0  0
   25.8104  -18.4053  -16.5852 N   0  0  0  0  0  0  0  0  0  0  0  0
   25.6888  -16.6622  -18.2594 C   0  0  0  0  0  0  0  0  0  0  0  0
   25.2906  -15.5929  -18.7522 O   0  0  0  0  0  0  0  0  0  0  0  0
   26.3511  -17.5582  -19.0752 O   0  0  0  0  0  0  0  0  0  0  0  0
  2  1  1  0
  3  4  1  0
  3  2  1  0
  4  5  1  0
  5  6  1  6
  7  5  1  0
  7  8  2  0
  9  7  1  0
 10  9  1  0
 11 12  1  0
 10 11  1  6
 12 13  1  0
 13 14  2  0
 15 10  1  0
 16 15  2  0
 17 13  1  0
 19 18  1  0
 20 19  1  0
 20 21  1  6
 22 20  1  0
 22 23  1  6
 23 15  1  0
 24 22  1  0
 25 24  2  0
 26 24  1  0
M  END
$$$$
