PAC.pdb
     RDKit          3D

 19 19  0  0  1  0  0  0  0  0999 V2000
   27.8028  -17.0562  -17.5138 N   0  0  0  0  0  0  0  0  0  0  0  0
   28.7422  -17.4897  -18.5458 C   0  0  0  0  0  0  0  0  0  0  0  0
   29.3219  -18.7933  -18.0798 C   0  0  0  0  0  0  0  0  0  0  0  0
   28.4097  -19.2211  -16.9572 C   0  0  0  0  0  0  0  0  0  0  0  0
   27.1974  -18.3047  -17.1101 C   0  0  1  0  0  0  0  0  0  0  0  0
   26.5448  -18.1203  -15.7980 C   0  0  0  0  0  0  0  0  0  0  0  0
   27.0166  -17.2596  -15.0098 O   0  0  0  0  0  0  0  0  0  0  0  0
   23.3414  -18.5811  -14.1781 C   0  0  0  0  0  0  0  0  0  0  0  0
   24.8581  -18.6551  -14.0725 C   0  0  2  0  0  0  0  0  0  0  0  0
   25.4052  -18.8792  -15.3954 N   0  0  0  0  0  0  0  0  0  0  0  0
   25.2469  -19.7599  -13.1493 C   0  0  0  0  0  0  0  0  0  0  0  0
   25.4976  -20.8951  -13.6280 O   0  0  0  0  0  0  0  0  0  0  0  0
   25.3476  -19.5894  -11.7505 N   0  0  0  0  0  0  0  0  0  0  0  0
   25.7043  -20.7024  -10.9022 C   0  0  1  0  0  0  0  0  0  0  0  0
   26.0763  -20.2191   -9.5153 C   0  0  0  0  0  0  0  0  0  0  0  0
   26.9089  -18.6228   -9.5578 S   0  0  0  0  0  0  0  0  0  0  0  0
   24.5316  -21.5847  -10.7586 C   0  0  0  0  0  0  0  0  0  0  0  0
   24.6582  -22.7829  -10.0773 O   0  0  0  0  0  0  0  0  0  0  0  0
   23.3965  -21.3128  -11.2259 O   0  0  0  0  0  0  0  0  0  0  0  0
  1  2  1  0
  3  2  1  0
  4  3  1  0
  4  5  1  0
  5  1  1  0
  5  6  1  1
  7  6  2  0
  9  8  1  6
  9 10  1  0
  9 11  1  0
 10  6  1  0
 11 13  1  0
 12 11  2  0
 13 14  1  0
 14 15  1  1
 14 17  1  0
 15 16  1  0
 17 19  2  0
 17 18  1  0
M  END
$$$$
