PAC.pdb
     RDKit          3D

 19 19  0  0  1  0  0  0  0  0999 V2000
   17.5091  -13.8669  -15.9770 N   0  0  0  0  0  0  0  0  0  0  0  0
   16.4634  -14.7116  -15.4036 C   0  0  0  0  0  0  0  0  0  0  0  0
   15.6339  -13.8281  -14.5183 C   0  0  0  0  0  0  0  0  0  0  0  0
   16.0381  -12.4292  -14.9120 C   0  0  0  0  0  0  0  0  0  0  0  0
   16.8018  -12.6303  -16.2193 C   0  0  1  0  0  0  0  0  0  0  0  0
   17.7841  -11.5411  -16.3939 C   0  0  0  0  0  0  0  0  0  0  0  0
   18.8860  -11.6256  -15.7910 O   0  0  0  0  0  0  0  0  0  0  0  0
   18.3286   -8.7377  -18.7713 C   0  0  0  0  0  0  0  0  0  0  0  0
   18.6144   -9.4781  -17.4723 C   0  0  2  0  0  0  0  0  0  0  0  0
   17.5291  -10.4036  -17.2171 N   0  0  0  0  0  0  0  0  0  0  0  0
   18.7462   -8.5017  -16.3528 C   0  0  0  0  0  0  0  0  0  0  0  0
   17.7422   -8.2547  -15.6376 O   0  0  0  0  0  0  0  0  0  0  0  0
   19.9562   -7.8357  -16.0560 N   0  0  0  0  0  0  0  0  0  0  0  0
   20.0476   -6.9620  -14.9097 C   0  0  1  0  0  0  0  0  0  0  0  0
   21.4775   -6.8762  -14.4162 C   0  0  0  0  0  0  0  0  0  0  0  0
   22.0465   -8.4375  -13.7221 S   0  0  0  0  0  0  0  0  0  0  0  0
   19.6420   -5.6034  -15.3149 C   0  0  0  0  0  0  0  0  0  0  0  0
   19.3613   -4.6570  -14.3446 O   0  0  0  0  0  0  0  0  0  0  0  0
   19.5318   -5.2399  -16.5134 O   0  0  0  0  0  0  0  0  0  0  0  0
  1  2  1  0
  3  2  1  0
  4  3  1  0
  4  5  1  0
  5  1  1  0
  5  6  1  1
  7  6  2  0
  9  8  1  6
  9 10  1  0
  9 11  1  0
 10  6  1  0
 11 13  1  0
 12 11  2  0
 13 14  1  0
 14 15  1  6
 14 17  1  0
 15 16  1  0
 17 19  2  0
 17 18  1  0
M  END
$$$$
