PAC.pdb
     RDKit          3D

 19 19  0  0  1  0  0  0  0  0999 V2000
   22.0189  -13.5687  -15.0924 N   0  0  0  0  0  0  0  0  0  0  0  0
   22.6494  -14.8867  -15.0580 C   0  0  0  0  0  0  0  0  0  0  0  0
   23.7227  -14.8777  -16.1069 C   0  0  0  0  0  0  0  0  0  0  0  0
   23.8895  -13.4183  -16.4500 C   0  0  0  0  0  0  0  0  0  0  0  0
   23.1481  -12.6977  -15.3257 C   0  0  1  0  0  0  0  0  0  0  0  0
   22.6561  -11.3925  -15.8112 C   0  0  0  0  0  0  0  0  0  0  0  0
   23.4988  -10.4966  -16.0796 O   0  0  0  0  0  0  0  0  0  0  0  0
   19.4494   -9.9487  -17.0662 C   0  0  0  0  0  0  0  0  0  0  0  0
   20.8860   -9.8453  -16.5737 C   0  0  2  0  0  0  0  0  0  0  0  0
   21.2674  -11.1133  -15.9854 N   0  0  0  0  0  0  0  0  0  0  0  0
   20.9987   -8.7464  -15.5718 C   0  0  0  0  0  0  0  0  0  0  0  0
   20.8428   -9.0137  -14.3533 O   0  0  0  0  0  0  0  0  0  0  0  0
   21.2746   -7.4082  -15.9307 N   0  0  0  0  0  0  0  0  0  0  0  0
   21.4911   -6.4079  -14.9118 C   0  0  1  0  0  0  0  0  0  0  0  0
   22.6571   -5.5134  -15.2807 C   0  0  0  0  0  0  0  0  0  0  0  0
   22.9050   -4.1973  -14.0767 S   0  0  0  0  0  0  0  0  0  0  0  0
   20.2933   -5.5523  -14.8246 C   0  0  0  0  0  0  0  0  0  0  0  0
   19.8508   -5.1216  -13.5858 O   0  0  0  0  0  0  0  0  0  0  0  0
   19.6317   -5.1793  -15.8266 O   0  0  0  0  0  0  0  0  0  0  0  0
  1  2  1  0
  3  2  1  0
  4  3  1  0
  4  5  1  0
  5  1  1  0
  5  6  1  6
  7  6  2  0
  9  8  1  1
  9 10  1  0
  9 11  1  0
 10  6  1  0
 11 13  1  0
 12 11  2  0
 13 14  1  0
 14 15  1  6
 14 17  1  0
 15 16  1  0
 17 19  2  0
 17 18  1  0
M  END
$$$$
