PAC.pdb
     RDKit          3D

 19 19  0  0  1  0  0  0  0  0999 V2000
   23.8684  -14.2144  -16.8835 N   0  0  0  0  0  0  0  0  0  0  0  0
   24.2732  -15.3595  -16.0706 C   0  0  0  0  0  0  0  0  0  0  0  0
   23.7344  -15.1194  -14.6906 C   0  0  0  0  0  0  0  0  0  0  0  0
   22.7340  -14.0056  -14.8749 C   0  0  0  0  0  0  0  0  0  0  0  0
   22.5377  -13.9456  -16.3884 C   0  0  1  0  0  0  0  0  0  0  0  0
   22.1444  -12.5783  -16.7850 C   0  0  0  0  0  0  0  0  0  0  0  0
   23.0293  -11.6831  -16.8075 O   0  0  0  0  0  0  0  0  0  0  0  0
   19.2946  -10.8459  -18.4097 C   0  0  0  0  0  0  0  0  0  0  0  0
   20.5109  -10.8647  -17.4946 C   0  0  2  0  0  0  0  0  0  0  0  0
   20.8048  -12.2388  -17.1413 N   0  0  0  0  0  0  0  0  0  0  0  0
   20.2360  -10.0555  -16.2724 C   0  0  0  0  0  0  0  0  0  0  0  0
   19.5107  -10.5428  -15.3686 O   0  0  0  0  0  0  0  0  0  0  0  0
   20.7567   -8.7563  -16.0811 N   0  0  0  0  0  0  0  0  0  0  0  0
   20.4275   -8.0044  -14.8928 C   0  0  1  0  0  0  0  0  0  0  0  0
   21.6856   -7.5925  -14.1557 C   0  0  0  0  0  0  0  0  0  0  0  0
   22.5021   -8.9965  -13.3778 S   0  0  0  0  0  0  0  0  0  0  0  0
   19.7290   -6.7685  -15.2914 C   0  0  0  0  0  0  0  0  0  0  0  0
   19.0996   -5.9991  -14.3282 O   0  0  0  0  0  0  0  0  0  0  0  0
   19.6664   -6.3579  -16.4781 O   0  0  0  0  0  0  0  0  0  0  0  0
  1  2  1  0
  3  2  1  0
  4  3  1  0
  4  5  1  0
  5  1  1  0
  5  6  1  1
  7  6  2  0
  9  8  1  6
  9 10  1  0
  9 11  1  0
 10  6  1  0
 11 13  1  0
 12 11  2  0
 13 14  1  0
 14 15  1  6
 14 17  1  0
 15 16  1  0
 17 19  2  0
 17 18  1  0
M  END
$$$$
