PAC.pdb
     RDKit          3D

 19 19  0  0  1  0  0  0  0  0999 V2000
   26.7181  -13.2052  -17.2601 N   0  0  0  0  0  0  0  0  0  0  0  0
   27.6272  -12.3834  -16.4639 C   0  0  0  0  0  0  0  0  0  0  0  0
   27.5971  -12.9363  -15.0690 C   0  0  0  0  0  0  0  0  0  0  0  0
   26.9348  -14.2830  -15.2214 C   0  0  0  0  0  0  0  0  0  0  0  0
   26.9596  -14.5272  -16.7289 C   0  0  1  0  0  0  0  0  0  0  0  0
   25.8378  -15.4099  -17.1082 C   0  0  0  0  0  0  0  0  0  0  0  0
   24.6987  -14.8973  -17.2653 O   0  0  0  0  0  0  0  0  0  0  0  0
   25.3039  -18.8809  -18.3393 C   0  0  0  0  0  0  0  0  0  0  0  0
   24.8363  -17.6006  -17.6615 C   0  0  2  0  0  0  0  0  0  0  0  0
   25.9991  -16.8146  -17.3015 N   0  0  0  0  0  0  0  0  0  0  0  0
   24.0327  -17.9346  -16.4504 C   0  0  0  0  0  0  0  0  0  0  0  0
   24.6299  -18.2531  -15.3910 O   0  0  0  0  0  0  0  0  0  0  0  0
   22.6203  -17.9098  -16.4378 N   0  0  0  0  0  0  0  0  0  0  0  0
   21.8957  -18.1606  -15.2139 C   0  0  1  0  0  0  0  0  0  0  0  0
   21.0399  -16.9658  -14.8455 C   0  0  0  0  0  0  0  0  0  0  0  0
   22.0364  -15.5224  -14.4370 S   0  0  0  0  0  0  0  0  0  0  0  0
   20.9864  -19.3018  -15.4261 C   0  0  0  0  0  0  0  0  0  0  0  0
   20.2286  -19.7764  -14.3694 O   0  0  0  0  0  0  0  0  0  0  0  0
   20.8512  -19.8861  -16.5311 O   0  0  0  0  0  0  0  0  0  0  0  0
  1  2  1  0
  3  2  1  0
  4  3  1  0
  4  5  1  0
  5  1  1  0
  5  6  1  1
  7  6  2  0
  9  8  1  1
  9 10  1  0
  9 11  1  0
 10  6  1  0
 11 13  1  0
 12 11  2  0
 13 14  1  0
 14 15  1  6
 14 17  1  0
 15 16  1  0
 17 19  2  0
 17 18  1  0
M  END
$$$$
