PAC.pdb
     RDKit          3D

 19 19  0  0  1  0  0  0  0  0999 V2000
   27.2245  -22.2676  -17.6745 N   0  0  0  0  0  0  0  0  0  0  0  0
   28.4591  -22.9418  -18.0710 C   0  0  0  0  0  0  0  0  0  0  0  0
   29.4383  -22.7395  -16.9517 C   0  0  0  0  0  0  0  0  0  0  0  0
   28.5889  -22.2559  -15.8028 C   0  0  0  0  0  0  0  0  0  0  0  0
   27.1625  -22.5548  -16.2596 C   0  0  1  0  0  0  0  0  0  0  0  0
   26.2264  -21.6095  -15.6179 C   0  0  0  0  0  0  0  0  0  0  0  0
   26.0845  -21.6622  -14.3682 O   0  0  0  0  0  0  0  0  0  0  0  0
   24.5272  -18.4283  -16.4367 C   0  0  0  0  0  0  0  0  0  0  0  0
   24.6348  -19.7188  -15.6365 C   0  0  2  0  0  0  0  0  0  0  0  0
   25.4820  -20.6447  -16.3607 N   0  0  0  0  0  0  0  0  0  0  0  0
   23.2770  -20.3003  -15.4307 C   0  0  0  0  0  0  0  0  0  0  0  0
   22.7833  -21.0295  -16.3280 O   0  0  0  0  0  0  0  0  0  0  0  0
   22.5132  -20.0682  -14.2651 N   0  0  0  0  0  0  0  0  0  0  0  0
   21.2529  -20.7459  -14.0701 C   0  0  1  0  0  0  0  0  0  0  0  0
   21.1417  -21.2693  -12.6526 C   0  0  0  0  0  0  0  0  0  0  0  0
   22.2410  -22.6655  -12.3607 S   0  0  0  0  0  0  0  0  0  0  0  0
   20.1581  -19.7779  -14.2666 C   0  0  0  0  0  0  0  0  0  0  0  0
   18.8525  -20.2307  -14.3455 O   0  0  0  0  0  0  0  0  0  0  0  0
   20.3376  -18.5377  -14.3695 O   0  0  0  0  0  0  0  0  0  0  0  0
  1  2  1  0
  3  2  1  0
  4  3  1  0
  4  5  1  0
  5  1  1  0
  5  6  1  1
  7  6  2  0
  9  8  1  6
  9 10  1  0
  9 11  1  0
 10  6  1  0
 11 13  1  0
 12 11  2  0
 13 14  1  0
 14 15  1  1
 14 17  1  0
 15 16  1  0
 17 19  2  0
 17 18  1  0
M  END
$$$$
