PAC.pdb
     RDKit          3D

 19 19  0  0  1  0  0  0  0  0999 V2000
   25.3838   -9.7831  -15.6418 N   0  0  0  0  0  0  0  0  0  0  0  0
   26.7090  -10.3730  -15.4632 C   0  0  0  0  0  0  0  0  0  0  0  0
   26.7668  -11.5790  -16.3545 C   0  0  0  0  0  0  0  0  0  0  0  0
   25.5840  -11.4126  -17.2757 C   0  0  0  0  0  0  0  0  0  0  0  0
   25.1604   -9.9614  -17.0583 C   0  0  1  0  0  0  0  0  0  0  0  0
   23.7176   -9.8171  -17.3392 C   0  0  0  0  0  0  0  0  0  0  0  0
   23.3238   -9.9366  -18.5289 O   0  0  0  0  0  0  0  0  0  0  0  0
   20.5617  -10.4298  -15.8476 C   0  0  0  0  0  0  0  0  0  0  0  0
   21.3635   -9.4438  -16.6855 C   0  0  2  0  0  0  0  0  0  0  0  0
   22.7604   -9.5485  -16.3152 N   0  0  0  0  0  0  0  0  0  0  0  0
   20.8612   -8.0588  -16.4540 C   0  0  0  0  0  0  0  0  0  0  0  0
   19.6588   -7.7953  -16.7100 O   0  0  0  0  0  0  0  0  0  0  0  0
   21.6797   -7.0205  -15.9565 N   0  0  0  0  0  0  0  0  0  0  0  0
   21.1598   -5.6797  -15.8237 C   0  0  1  0  0  0  0  0  0  0  0  0
   21.2348   -5.2181  -14.3825 C   0  0  0  0  0  0  0  0  0  0  0  0
   22.8454   -5.5529  -13.6497 S   0  0  0  0  0  0  0  0  0  0  0  0
   21.9975   -4.7646  -16.6206 C   0  0  0  0  0  0  0  0  0  0  0  0
   21.6595   -3.4247  -16.7006 O   0  0  0  0  0  0  0  0  0  0  0  0
   23.0239   -5.1310  -17.2476 O   0  0  0  0  0  0  0  0  0  0  0  0
  1  2  1  0
  3  2  1  0
  4  3  1  0
  4  5  1  0
  5  1  1  0
  5  6  1  1
  7  6  2  0
  9  8  1  1
  9 10  1  0
  9 11  1  0
 10  6  1  0
 11 13  1  0
 12 11  2  0
 13 14  1  0
 14 15  1  1
 14 17  1  0
 15 16  1  0
 17 19  2  0
 17 18  1  0
M  END
$$$$
