PAC.pdb
     RDKit          3D

 19 19  0  0  1  0  0  0  0  0999 V2000
   20.2826  -12.2511  -17.8626 N   0  0  0  0  0  0  0  0  0  0  0  0
   19.6248  -13.2301  -18.7255 C   0  0  0  0  0  0  0  0  0  0  0  0
   18.8227  -14.1254  -17.8269 C   0  0  0  0  0  0  0  0  0  0  0  0
   18.7801  -13.3853  -16.5132 C   0  0  0  0  0  0  0  0  0  0  0  0
   19.2622  -11.9820  -16.8755 C   0  0  1  0  0  0  0  0  0  0  0  0
   19.8890  -11.3517  -15.6959 C   0  0  0  0  0  0  0  0  0  0  0  0
   19.1565  -11.0507  -14.7173 O   0  0  0  0  0  0  0  0  0  0  0  0
   23.2775  -10.7315  -14.3043 C   0  0  0  0  0  0  0  0  0  0  0  0
   21.8003  -10.3961  -14.4540 C   0  0  2  0  0  0  0  0  0  0  0  0
   21.2871  -11.0737  -15.6275 N   0  0  0  0  0  0  0  0  0  0  0  0
   21.6278   -8.9203  -14.5822 C   0  0  0  0  0  0  0  0  0  0  0  0
   21.9967   -8.1787  -13.6364 O   0  0  0  0  0  0  0  0  0  0  0  0
   21.0647   -8.3116  -15.7259 N   0  0  0  0  0  0  0  0  0  0  0  0
   20.9649   -6.8736  -15.8143 C   0  0  1  0  0  0  0  0  0  0  0  0
   21.0416   -6.4206  -17.2581 C   0  0  0  0  0  0  0  0  0  0  0  0
   22.5244   -7.0302  -18.0785 S   0  0  0  0  0  0  0  0  0  0  0  0
   19.6499   -6.4561  -15.2938 C   0  0  0  0  0  0  0  0  0  0  0  0
   19.3918   -5.1116  -15.0904 O   0  0  0  0  0  0  0  0  0  0  0  0
   18.7253   -7.2616  -15.0159 O   0  0  0  0  0  0  0  0  0  0  0  0
  1  2  1  0
  3  2  1  0
  4  3  1  0
  4  5  1  0
  5  1  1  0
  5  6  1  1
  7  6  2  0
  9  8  1  6
  9 10  1  0
  9 11  1  0
 10  6  1  0
 11 13  1  0
 12 11  2  0
 13 14  1  0
 14 15  1  6
 14 17  1  0
 15 16  1  0
 17 19  2  0
 17 18  1  0
M  END
$$$$
