PAC.pdb
     RDKit          3D

 19 19  0  0  1  0  0  0  0  0999 V2000
   27.5669  -19.1890  -18.2739 N   0  0  0  0  0  0  0  0  0  0  0  0
   28.6968  -18.9089  -19.1575 C   0  0  0  0  0  0  0  0  0  0  0  0
   29.2339  -17.5661  -18.7566 C   0  0  0  0  0  0  0  0  0  0  0  0
   28.5979  -17.3011  -17.4148 C   0  0  0  0  0  0  0  0  0  0  0  0
   28.0304  -18.6605  -17.0113 C   0  0  1  0  0  0  0  0  0  0  0  0
   26.8715  -18.4696  -16.1157 C   0  0  0  0  0  0  0  0  0  0  0  0
   27.0544  -17.8865  -15.0151 O   0  0  0  0  0  0  0  0  0  0  0  0
   23.1849  -18.5071  -16.3181 C   0  0  0  0  0  0  0  0  0  0  0  0
   24.4778  -18.6507  -15.5275 C   0  0  2  0  0  0  0  0  0  0  0  0
   25.5600  -18.9204  -16.4526 N   0  0  0  0  0  0  0  0  0  0  0  0
   24.3445  -19.7584  -14.5379 C   0  0  0  0  0  0  0  0  0  0  0  0
   23.8422  -20.8498  -14.9081 O   0  0  0  0  0  0  0  0  0  0  0  0
   24.7594  -19.6378  -13.1929 N   0  0  0  0  0  0  0  0  0  0  0  0
   24.5353  -20.7165  -12.2593 C   0  0  1  0  0  0  0  0  0  0  0  0
   25.3131  -20.4856  -10.9796 C   0  0  0  0  0  0  0  0  0  0  0  0
   26.1285  -21.9852  -10.4058 S   0  0  0  0  0  0  0  0  0  0  0  0
   23.1047  -20.7462  -11.9028 C   0  0  0  0  0  0  0  0  0  0  0  0
   22.4624  -21.9638  -11.7585 O   0  0  0  0  0  0  0  0  0  0  0  0
   22.4137  -19.7125  -11.7168 O   0  0  0  0  0  0  0  0  0  0  0  0
  1  2  1  0
  3  2  1  0
  4  3  1  0
  4  5  1  0
  5  1  1  0
  5  6  1  1
  7  6  2  0
  9  8  1  6
  9 10  1  0
  9 11  1  0
 10  6  1  0
 11 13  1  0
 12 11  2  0
 13 14  1  0
 14 15  1  1
 14 17  1  0
 15 16  1  0
 17 19  2  0
 17 18  1  0
M  END
$$$$
