PAC.pdb
     RDKit          3D

 19 19  0  0  1  0  0  0  0  0999 V2000
   17.5396  -12.4471  -15.2675 N   0  0  0  0  0  0  0  0  0  0  0  0
   17.2959  -13.8879  -15.2923 C   0  0  0  0  0  0  0  0  0  0  0  0
   18.0953  -14.4398  -16.4364 C   0  0  0  0  0  0  0  0  0  0  0  0
   19.0459  -13.3242  -16.7929 C   0  0  0  0  0  0  0  0  0  0  0  0
   18.9428  -12.3705  -15.6043 C   0  0  1  0  0  0  0  0  0  0  0  0
   19.2577  -10.9953  -16.0415 C   0  0  0  0  0  0  0  0  0  0  0  0
   20.4511  -10.7166  -16.3298 O   0  0  0  0  0  0  0  0  0  0  0  0
   17.4417   -7.9696  -17.2074 C   0  0  0  0  0  0  0  0  0  0  0  0
   18.6612   -8.6683  -16.6227 C   0  0  2  0  0  0  0  0  0  0  0  0
   18.2626   -9.9779  -16.1477 N   0  0  0  0  0  0  0  0  0  0  0  0
   19.2235   -7.8538  -15.5071 C   0  0  0  0  0  0  0  0  0  0  0  0
   18.7953   -8.0400  -14.3399 O   0  0  0  0  0  0  0  0  0  0  0  0
   20.2231   -6.8747  -15.7021 N   0  0  0  0  0  0  0  0  0  0  0  0
   20.7758   -6.1598  -14.5755 C   0  0  1  0  0  0  0  0  0  0  0  0
   22.2187   -5.7804  -14.8395 C   0  0  0  0  0  0  0  0  0  0  0  0
   22.8979   -4.7541  -13.5248 S   0  0  0  0  0  0  0  0  0  0  0  0
   20.0203   -4.9069  -14.3915 C   0  0  0  0  0  0  0  0  0  0  0  0
   19.7208   -4.1225  -15.4918 O   0  0  0  0  0  0  0  0  0  0  0  0
   19.6207   -4.4947  -13.2729 O   0  0  0  0  0  0  0  0  0  0  0  0
  1  2  1  0
  3  2  1  0
  4  3  1  0
  4  5  1  0
  5  1  1  0
  5  6  1  6
  7  6  2  0
  9  8  1  1
  9 10  1  0
  9 11  1  0
 10  6  1  0
 11 13  1  0
 12 11  2  0
 13 14  1  0
 14 15  1  6
 14 17  1  0
 15 16  1  0
 17 19  2  0
 17 18  1  0
M  END
$$$$
