PAC.pdb
     RDKit          3D

 19 19  0  0  1  0  0  0  0  0999 V2000
   23.1568  -14.6970  -16.7231 N   0  0  0  0  0  0  0  0  0  0  0  0
   23.1352  -16.1420  -16.9399 C   0  0  0  0  0  0  0  0  0  0  0  0
   22.8194  -16.7713  -15.6145 C   0  0  0  0  0  0  0  0  0  0  0  0
   22.3205  -15.6238  -14.7721 C   0  0  0  0  0  0  0  0  0  0  0  0
   22.0686  -14.5134  -15.7901 C   0  0  1  0  0  0  0  0  0  0  0  0
   22.2132  -13.1970  -15.1361 C   0  0  0  0  0  0  0  0  0  0  0  0
   21.3830  -12.8758  -14.2459 O   0  0  0  0  0  0  0  0  0  0  0  0
   24.7276  -10.5096  -14.7570 C   0  0  0  0  0  0  0  0  0  0  0  0
   23.2855  -10.9936  -14.8146 C   0  0  2  0  0  0  0  0  0  0  0  0
   23.2546  -12.2824  -15.4761 N   0  0  0  0  0  0  0  0  0  0  0  0
   22.4497  -10.0039  -15.5534 C   0  0  0  0  0  0  0  0  0  0  0  0
   22.3998  -10.0636  -16.8082 O   0  0  0  0  0  0  0  0  0  0  0  0
   21.7052   -8.9941  -14.9040 N   0  0  0  0  0  0  0  0  0  0  0  0
   20.8814   -8.0871  -15.6686 C   0  0  1  0  0  0  0  0  0  0  0  0
   19.6258   -7.7291  -14.8999 C   0  0  0  0  0  0  0  0  0  0  0  0
   18.6641   -9.1873  -14.4618 S   0  0  0  0  0  0  0  0  0  0  0  0
   21.6311   -6.8366  -15.8894 C   0  0  0  0  0  0  0  0  0  0  0  0
   21.0848   -5.8448  -16.6856 O   0  0  0  0  0  0  0  0  0  0  0  0
   22.7616   -6.6070  -15.3895 O   0  0  0  0  0  0  0  0  0  0  0  0
  1  2  1  0
  3  2  1  0
  4  3  1  0
  4  5  1  0
  5  1  1  0
  5  6  1  1
  7  6  2  0
  9  8  1  6
  9 10  1  0
  9 11  1  0
 10  6  1  0
 11 13  1  0
 12 11  2  0
 13 14  1  0
 14 15  1  1
 14 17  1  0
 15 16  1  0
 17 19  2  0
 17 18  1  0
M  END
$$$$
