PAC.pdb
     RDKit          3D

 19 19  0  0  1  0  0  0  0  0999 V2000
   22.7653  -14.0111  -18.2920 N   0  0  0  0  0  0  0  0  0  0  0  0
   23.6164  -14.9345  -19.0395 C   0  0  0  0  0  0  0  0  0  0  0  0
   23.0321  -15.0380  -20.4180 C   0  0  0  0  0  0  0  0  0  0  0  0
   22.0688  -13.8800  -20.4971 C   0  0  0  0  0  0  0  0  0  0  0  0
   22.4417  -13.0192  -19.2918 C   0  0  1  0  0  0  0  0  0  0  0  0
   21.2614  -12.2526  -18.8439 C   0  0  0  0  0  0  0  0  0  0  0  0
   20.8473  -11.3113  -19.5701 O   0  0  0  0  0  0  0  0  0  0  0  0
   18.4207  -12.5344  -16.5406 C   0  0  0  0  0  0  0  0  0  0  0  0
   19.4781  -11.6836  -17.2301 C   0  0  2  0  0  0  0  0  0  0  0  0
   20.5784  -12.5401  -17.6242 N   0  0  0  0  0  0  0  0  0  0  0  0
   19.9502  -10.6152  -16.3028 C   0  0  0  0  0  0  0  0  0  0  0  0
   19.1070   -9.9972  -15.6045 O   0  0  0  0  0  0  0  0  0  0  0  0
   21.3117  -10.2620  -16.1713 N   0  0  0  0  0  0  0  0  0  0  0  0
   21.7158   -9.2482  -15.2255 C   0  0  1  0  0  0  0  0  0  0  0  0
   23.1273   -9.5049  -14.7380 C   0  0  0  0  0  0  0  0  0  0  0  0
   23.2401  -11.0145  -13.7625 S   0  0  0  0  0  0  0  0  0  0  0  0
   21.7184   -7.9394  -15.9048 C   0  0  0  0  0  0  0  0  0  0  0  0
   21.9372   -6.7884  -15.1679 O   0  0  0  0  0  0  0  0  0  0  0  0
   21.5302   -7.7975  -17.1398 O   0  0  0  0  0  0  0  0  0  0  0  0
  1  2  1  0
  3  2  1  0
  4  3  1  0
  4  5  1  0
  5  1  1  0
  5  6  1  1
  7  6  2  0
  9  8  1  1
  9 10  1  0
  9 11  1  0
 10  6  1  0
 11 13  1  0
 12 11  2  0
 13 14  1  0
 14 15  1  6
 14 17  1  0
 15 16  1  0
 17 19  2  0
 17 18  1  0
M  END
$$$$
