PAC.pdb
     RDKit          3D

 19 19  0  0  1  0  0  0  0  0999 V2000
   18.2202  -12.8169  -15.3233 N   0  0  0  0  0  0  0  0  0  0  0  0
   17.9636  -14.2546  -15.3782 C   0  0  0  0  0  0  0  0  0  0  0  0
   18.2684  -14.6928  -16.7809 C   0  0  0  0  0  0  0  0  0  0  0  0
   19.0329  -13.5337  -17.3704 C   0  0  0  0  0  0  0  0  0  0  0  0
   19.3963  -12.6863  -16.1528 C   0  0  1  0  0  0  0  0  0  0  0  0
   19.5449  -11.2734  -16.5568 C   0  0  0  0  0  0  0  0  0  0  0  0
   20.5755  -10.9387  -17.1977 O   0  0  0  0  0  0  0  0  0  0  0  0
   17.4613   -8.2790  -17.0222 C   0  0  0  0  0  0  0  0  0  0  0  0
   18.8008   -8.9202  -16.6878 C   0  0  2  0  0  0  0  0  0  0  0  0
   18.5672  -10.2808  -16.2477 N   0  0  0  0  0  0  0  0  0  0  0  0
   19.4852   -8.1335  -15.6216 C   0  0  0  0  0  0  0  0  0  0  0  0
   19.3557   -8.4893  -14.4228 O   0  0  0  0  0  0  0  0  0  0  0  0
   20.2788   -6.9979  -15.8978 N   0  0  0  0  0  0  0  0  0  0  0  0
   20.9443   -6.2933  -14.8271 C   0  0  1  0  0  0  0  0  0  0  0  0
   22.1484   -5.5382  -15.3521 C   0  0  0  0  0  0  0  0  0  0  0  0
   22.8784   -4.4747  -14.0954 S   0  0  0  0  0  0  0  0  0  0  0  0
   20.0141   -5.2971  -14.2643 C   0  0  0  0  0  0  0  0  0  0  0  0
   19.9320   -5.1389  -12.8917 O   0  0  0  0  0  0  0  0  0  0  0  0
   19.2726   -4.5643  -14.9671 O   0  0  0  0  0  0  0  0  0  0  0  0
  1  2  1  0
  3  2  1  0
  4  3  1  0
  4  5  1  0
  5  1  1  0
  5  6  1  6
  7  6  2  0
  9  8  1  1
  9 10  1  0
  9 11  1  0
 10  6  1  0
 11 13  1  0
 12 11  2  0
 13 14  1  0
 14 15  1  6
 14 17  1  0
 15 16  1  0
 17 19  2  0
 17 18  1  0
M  END
$$$$
