FLH.pdb
     RDKit          3D

 30 31  0  0  1  0  0  0  0  0999 V2000
    8.9030  -14.9656   25.0211 N   0  0  0  0  0  0  0  0  0  0  0  0
    7.8405  -15.8468   24.5884 C   0  0  1  0  0  0  0  0  0  0  0  0
    6.4910  -15.2572   24.9419 C   0  0  0  0  0  0  0  0  0  0  0  0
    6.5741  -14.1392   25.8884 C   0  0  0  0  0  0  0  0  0  0  0  0
    7.5773  -14.1166   26.8345 C   0  0  0  0  0  0  0  0  0  0  0  0
    7.6538  -13.0801   27.7117 C   0  0  0  0  0  0  0  0  0  0  0  0
    6.7342  -12.0358   27.6732 C   0  0  0  0  0  0  0  0  0  0  0  0
    5.7291  -12.0503   26.7316 C   0  0  0  0  0  0  0  0  0  0  0  0
    5.6713  -13.1074   25.8557 C   0  0  0  0  0  0  0  0  0  0  0  0
    7.8501  -16.0514   23.1205 C   0  0  0  0  0  0  0  0  0  0  0  0
    7.0004  -16.8214   22.6051 O   0  0  0  0  0  0  0  0  0  0  0  0
    6.6804  -13.6838   20.5871 C   0  0  0  0  0  0  0  0  0  0  0  0
    8.1532  -13.2953   20.7929 C   0  0  2  0  0  0  0  0  0  0  0  0
    8.3375  -11.9582   20.1475 C   0  0  0  0  0  0  0  0  0  0  0  0
    8.9608  -14.3830   20.1673 C   0  0  0  0  0  0  0  0  0  0  0  0
    8.9275  -15.7009   20.8653 C   0  0  2  0  0  0  0  0  0  0  0  0
    8.7834  -15.4077   22.2894 N   0  0  0  0  0  0  0  0  0  0  0  0
   10.1681  -16.4803   20.6250 C   0  0  0  0  0  0  0  0  0  0  0  0
   10.4705  -16.8975   19.4566 O   0  0  0  0  0  0  0  0  0  0  0  0
   11.0134  -16.7505   21.7353 N   0  0  0  0  0  0  0  0  0  0  0  0
   12.1563  -17.6370   21.5220 C   0  0  1  0  0  0  0  0  0  0  0  0
   13.4355  -16.8345   21.5650 C   0  0  0  0  0  0  0  0  0  0  0  0
   13.5521  -16.0444   20.3171 C   0  0  0  0  0  0  0  0  0  0  0  0
   13.5850  -16.6605   19.0601 C   0  0  0  0  0  0  0  0  0  0  0  0
   13.6940  -15.6987   18.1457 N   0  0  0  0  0  0  0  0  0  0  0  0
   13.7280  -14.5353   18.7910 C   0  0  0  0  0  0  0  0  0  0  0  0
   13.6432  -14.7310   20.1012 N   0  0  0  0  0  0  0  0  0  0  0  0
   12.1390  -18.6046   22.6458 C   0  0  0  0  0  0  0  0  0  0  0  0
   11.2168  -18.6450   23.5142 O   0  0  0  0  0  0  0  0  0  0  0  0
   13.1493  -19.5603   22.8400 O   0  0  0  0  0  0  0  0  0  0  0  0
  2 10  1  0
  2  3  1  0
  2  1  1  6
  3  4  1  0
  4  5  2  0
  4  9  1  0
  5  6  1  0
  6  7  2  0
  8  7  1  0
  9  8  2  0
 10 17  1  0
 11 10  2  0
 13 12  1  6
 14 13  1  0
 15 13  1  0
 16 15  1  6
 17 16  1  0
 18 20  1  0
 18 16  1  0
 19 18  2  0
 21 20  1  0
 21 28  1  0
 22 23  1  0
 21 22  1  1
 23 24  2  0
 24 25  1  0
 26 25  1  0
 27 23  1  0
 27 26  2  0
 28 30  1  0
 29 28  2  0
M  END
$$$$
