FLH.pdb
     RDKit          3D

 30 31  0  0  1  0  0  0  0  0999 V2000
   10.7571  -15.8568   21.2351 N   0  0  0  0  0  0  0  0  0  0  0  0
    9.6524  -15.1877   21.8867 C   0  0  1  0  0  0  0  0  0  0  0  0
    8.3393  -15.6063   21.2588 C   0  0  0  0  0  0  0  0  0  0  0  0
    7.7427  -14.5685   20.4104 C   0  0  0  0  0  0  0  0  0  0  0  0
    8.4144  -13.3814   20.2068 C   0  0  0  0  0  0  0  0  0  0  0  0
    7.8608  -12.4197   19.4204 C   0  0  0  0  0  0  0  0  0  0  0  0
    6.6227  -12.6111   18.8137 C   0  0  0  0  0  0  0  0  0  0  0  0
    5.9450  -13.7937   19.0118 C   0  0  0  0  0  0  0  0  0  0  0  0
    6.5234  -14.7510   19.8100 C   0  0  0  0  0  0  0  0  0  0  0  0
    9.5682  -15.5261   23.3273 C   0  0  0  0  0  0  0  0  0  0  0  0
   10.3668  -16.3720   23.8041 O   0  0  0  0  0  0  0  0  0  0  0  0
    6.0372  -12.5999   26.7951 C   0  0  0  0  0  0  0  0  0  0  0  0
    7.4305  -13.2482   26.8248 C   0  0  2  0  0  0  0  0  0  0  0  0
    8.3670  -12.2807   26.1728 C   0  0  0  0  0  0  0  0  0  0  0  0
    7.3007  -14.5448   26.0975 C   0  0  0  0  0  0  0  0  0  0  0  0
    8.5761  -15.1513   25.6174 C   0  0  2  0  0  0  0  0  0  0  0  0
    8.6198  -14.9269   24.1744 N   0  0  0  0  0  0  0  0  0  0  0  0
    8.6375  -16.6049   25.9127 C   0  0  0  0  0  0  0  0  0  0  0  0
    7.6443  -17.3707   25.6718 O   0  0  0  0  0  0  0  0  0  0  0  0
    9.8365  -17.1233   26.4729 N   0  0  0  0  0  0  0  0  0  0  0  0
    9.8151  -18.4948   26.9792 C   0  0  1  0  0  0  0  0  0  0  0  0
   11.0289  -19.2401   26.4758 C   0  0  0  0  0  0  0  0  0  0  0  0
   10.9790  -19.3009   24.9963 C   0  0  0  0  0  0  0  0  0  0  0  0
    9.8318  -19.7317   24.3189 C   0  0  0  0  0  0  0  0  0  0  0  0
   10.0930  -19.6766   23.0143 N   0  0  0  0  0  0  0  0  0  0  0  0
   11.3403  -19.2340   22.8745 C   0  0  0  0  0  0  0  0  0  0  0  0
   11.8849  -19.0040   24.0629 N   0  0  0  0  0  0  0  0  0  0  0  0
    9.8763  -18.3864   28.4569 C   0  0  0  0  0  0  0  0  0  0  0  0
   10.0026  -17.2835   29.0685 O   0  0  0  0  0  0  0  0  0  0  0  0
    9.7989  -19.5039   29.3037 O   0  0  0  0  0  0  0  0  0  0  0  0
  2 10  1  0
  2  3  1  0
  2  1  1  6
  3  4  1  0
  4  5  2  0
  4  9  1  0
  5  6  1  0
  6  7  2  0
  8  7  1  0
  9  8  2  0
 10 17  1  0
 11 10  2  0
 13 12  1  6
 14 13  1  0
 15 13  1  0
 16 15  1  6
 17 16  1  0
 18 20  1  0
 18 16  1  0
 19 18  2  0
 21 20  1  0
 21 28  1  0
 22 23  1  0
 21 22  1  6
 23 24  2  0
 24 25  1  0
 26 25  1  0
 27 23  1  0
 27 26  2  0
 28 30  1  0
 29 28  2  0
M  END
$$$$
