FLH.pdb
     RDKit          3D

 30 31  0  0  1  0  0  0  0  0999 V2000
    7.8759  -17.1301   22.0826 N   0  0  0  0  0  0  0  0  0  0  0  0
    9.2304  -16.6338   22.1900 C   0  0  1  0  0  0  0  0  0  0  0  0
    9.5781  -15.7878   20.9829 C   0  0  0  0  0  0  0  0  0  0  0  0
    8.7450  -14.5869   20.8541 C   0  0  0  0  0  0  0  0  0  0  0  0
    9.3264  -13.3390   20.9341 C   0  0  0  0  0  0  0  0  0  0  0  0
    8.5537  -12.2261   20.8148 C   0  0  0  0  0  0  0  0  0  0  0  0
    7.1799  -12.3227   20.6124 C   0  0  0  0  0  0  0  0  0  0  0  0
    6.5909  -13.5651   20.5314 C   0  0  0  0  0  0  0  0  0  0  0  0
    7.3912  -14.6753   20.6547 C   0  0  0  0  0  0  0  0  0  0  0  0
    9.4160  -15.7765   23.3847 C   0  0  0  0  0  0  0  0  0  0  0  0
   10.4962  -15.1486   23.5247 O   0  0  0  0  0  0  0  0  0  0  0  0
    8.0077  -12.2272   25.8299 C   0  0  0  0  0  0  0  0  0  0  0  0
    6.9452  -13.2865   25.4964 C   0  0  2  0  0  0  0  0  0  0  0  0
    5.6380  -12.7524   25.9909 C   0  0  0  0  0  0  0  0  0  0  0  0
    7.3807  -14.5404   26.1782 C   0  0  0  0  0  0  0  0  0  0  0  0
    8.6700  -15.1231   25.7055 C   0  0  2  0  0  0  0  0  0  0  0  0
    8.4170  -15.6467   24.3652 N   0  0  0  0  0  0  0  0  0  0  0  0
    9.1414  -16.2099   26.6003 C   0  0  0  0  0  0  0  0  0  0  0  0
    9.3010  -16.0130   27.8519 O   0  0  0  0  0  0  0  0  0  0  0  0
    9.4113  -17.4807   26.0237 N   0  0  0  0  0  0  0  0  0  0  0  0
   10.0183  -18.5013   26.8768 C   0  0  1  0  0  0  0  0  0  0  0  0
    9.6869  -19.8738   26.3396 C   0  0  0  0  0  0  0  0  0  0  0  0
    8.2550  -20.1583   26.5920 C   0  0  0  0  0  0  0  0  0  0  0  0
    7.5675  -19.5675   27.6591 C   0  0  0  0  0  0  0  0  0  0  0  0
    6.3136  -20.0143   27.6239 N   0  0  0  0  0  0  0  0  0  0  0  0
    6.2138  -20.8444   26.5884 C   0  0  0  0  0  0  0  0  0  0  0  0
    7.3783  -20.9393   25.9584 N   0  0  0  0  0  0  0  0  0  0  0  0
   11.4827  -18.2789   26.8020 C   0  0  0  0  0  0  0  0  0  0  0  0
   12.0159  -17.4052   26.0547 O   0  0  0  0  0  0  0  0  0  0  0  0
   12.4029  -19.0230   27.5579 O   0  0  0  0  0  0  0  0  0  0  0  0
  2 10  1  0
  2  3  1  0
  2  1  1  6
  3  4  1  0
  4  5  2  0
  4  9  1  0
  5  6  1  0
  6  7  2  0
  8  7  1  0
  9  8  2  0
 10 17  1  0
 11 10  2  0
 13 12  1  1
 14 13  1  0
 15 13  1  0
 16 15  1  1
 17 16  1  0
 18 20  1  0
 18 16  1  0
 19 18  2  0
 21 20  1  0
 21 28  1  0
 22 23  1  0
 21 22  1  6
 23 24  2  0
 24 25  1  0
 26 25  1  0
 27 23  1  0
 27 26  2  0
 28 30  1  0
 29 28  2  0
M  END
$$$$
