FLH.pdb
     RDKit          3D

 30 31  0  0  1  0  0  0  0  0999 V2000
    9.1971  -15.2821   25.1234 N   0  0  0  0  0  0  0  0  0  0  0  0
    7.9922  -15.9908   24.7512 C   0  0  1  0  0  0  0  0  0  0  0  0
    6.7683  -15.2220   25.2038 C   0  0  0  0  0  0  0  0  0  0  0  0
    7.0906  -14.0169   25.9762 C   0  0  0  0  0  0  0  0  0  0  0  0
    8.2812  -13.9459   26.6685 C   0  0  0  0  0  0  0  0  0  0  0  0
    8.5794  -12.8287   27.3845 C   0  0  0  0  0  0  0  0  0  0  0  0
    7.7015  -11.7494   27.4324 C   0  0  0  0  0  0  0  0  0  0  0  0
    6.5102  -11.8119   26.7440 C   0  0  0  0  0  0  0  0  0  0  0  0
    6.2300  -12.9505   26.0275 C   0  0  0  0  0  0  0  0  0  0  0  0
    7.8765  -16.1593   23.2832 C   0  0  0  0  0  0  0  0  0  0  0  0
    6.9767  -16.9069   22.8227 O   0  0  0  0  0  0  0  0  0  0  0  0
    6.3258  -14.2125   20.2679 C   0  0  0  0  0  0  0  0  0  0  0  0
    7.6443  -13.5571   20.7084 C   0  0  2  0  0  0  0  0  0  0  0  0
    7.6900  -12.2093   20.0604 C   0  0  0  0  0  0  0  0  0  0  0  0
    8.7332  -14.4761   20.2651 C   0  0  0  0  0  0  0  0  0  0  0  0
    8.7946  -15.7942   20.9608 C   0  0  2  0  0  0  0  0  0  0  0  0
    8.7455  -15.5057   22.3922 N   0  0  0  0  0  0  0  0  0  0  0  0
   10.0392  -16.5323   20.6287 C   0  0  0  0  0  0  0  0  0  0  0  0
   10.2641  -16.9486   19.4425 O   0  0  0  0  0  0  0  0  0  0  0  0
   10.9775  -16.7638   21.6709 N   0  0  0  0  0  0  0  0  0  0  0  0
   12.1877  -17.5162   21.3439 C   0  0  1  0  0  0  0  0  0  0  0  0
   13.4000  -16.6358   21.5376 C   0  0  0  0  0  0  0  0  0  0  0  0
   13.4969  -15.6905   20.4009 C   0  0  0  0  0  0  0  0  0  0  0  0
   12.9283  -15.9820   19.1550 C   0  0  0  0  0  0  0  0  0  0  0  0
   13.1804  -14.9522   18.3492 N   0  0  0  0  0  0  0  0  0  0  0  0
   13.8723  -14.0566   19.0494 C   0  0  0  0  0  0  0  0  0  0  0  0
   14.0693  -14.4907   20.2882 N   0  0  0  0  0  0  0  0  0  0  0  0
   12.2375  -18.6476   22.3014 C   0  0  0  0  0  0  0  0  0  0  0  0
   11.3165  -18.8922   23.1370 O   0  0  0  0  0  0  0  0  0  0  0  0
   13.3157  -19.5452   22.3602 O   0  0  0  0  0  0  0  0  0  0  0  0
  2 10  1  0
  2  3  1  0
  2  1  1  6
  3  4  1  0
  4  5  2  0
  4  9  1  0
  5  6  1  0
  6  7  2  0
  8  7  1  0
  9  8  2  0
 10 17  1  0
 11 10  2  0
 13 12  1  6
 14 13  1  0
 15 13  1  0
 16 15  1  6
 17 16  1  0
 18 20  1  0
 18 16  1  0
 19 18  2  0
 21 20  1  0
 21 28  1  0
 22 23  1  0
 21 22  1  1
 23 24  2  0
 24 25  1  0
 26 25  1  0
 27 23  1  0
 27 26  2  0
 28 30  1  0
 29 28  2  0
M  END
$$$$
