FLH.pdb
     RDKit          3D

 30 31  0  0  1  0  0  0  0  0999 V2000
    9.5656  -15.8406   20.9271 N   0  0  0  0  0  0  0  0  0  0  0  0
    8.7065  -16.0548   22.0711 C   0  0  1  0  0  0  0  0  0  0  0  0
    8.4690  -17.5358   22.2808 C   0  0  0  0  0  0  0  0  0  0  0  0
    7.8608  -18.1979   21.1213 C   0  0  0  0  0  0  0  0  0  0  0  0
    6.4881  -18.2292   20.9933 C   0  0  0  0  0  0  0  0  0  0  0  0
    5.9248  -18.8431   19.9184 C   0  0  0  0  0  0  0  0  0  0  0  0
    6.7112  -19.4438   18.9393 C   0  0  0  0  0  0  0  0  0  0  0  0
    8.0831  -19.4172   19.0592 C   0  0  0  0  0  0  0  0  0  0  0  0
    8.6300  -18.7914   20.1535 C   0  0  0  0  0  0  0  0  0  0  0  0
    9.3055  -15.5331   23.3224 C   0  0  0  0  0  0  0  0  0  0  0  0
   10.5559  -15.5425   23.4518 O   0  0  0  0  0  0  0  0  0  0  0  0
    6.8727  -12.4805   24.4078 C   0  0  0  0  0  0  0  0  0  0  0  0
    6.8017  -13.4791   25.5741 C   0  0  2  0  0  0  0  0  0  0  0  0
    5.7584  -12.9650   26.5151 C   0  0  0  0  0  0  0  0  0  0  0  0
    8.1723  -13.5285   26.1623 C   0  0  0  0  0  0  0  0  0  0  0  0
    9.0549  -14.6223   25.6628 C   0  0  2  0  0  0  0  0  0  0  0  0
    8.5131  -15.0283   24.3681 N   0  0  0  0  0  0  0  0  0  0  0  0
    9.0772  -15.7778   26.5947 C   0  0  0  0  0  0  0  0  0  0  0  0
    8.4426  -15.7458   27.7024 O   0  0  0  0  0  0  0  0  0  0  0  0
    9.8272  -16.9253   26.2190 N   0  0  0  0  0  0  0  0  0  0  0  0
   10.0892  -17.9342   27.2442 C   0  0  1  0  0  0  0  0  0  0  0  0
    9.9290  -19.3140   26.6505 C   0  0  0  0  0  0  0  0  0  0  0  0
    8.5935  -19.4150   26.0170 C   0  0  0  0  0  0  0  0  0  0  0  0
    7.4820  -18.7424   26.5393 C   0  0  0  0  0  0  0  0  0  0  0  0
    6.4398  -19.0269   25.7607 N   0  0  0  0  0  0  0  0  0  0  0  0
    6.8702  -19.8371   24.7966 C   0  0  0  0  0  0  0  0  0  0  0  0
    8.1675  -20.0783   24.9407 N   0  0  0  0  0  0  0  0  0  0  0  0
   11.4974  -17.7346   27.6642 C   0  0  0  0  0  0  0  0  0  0  0  0
   12.3019  -16.9663   27.0569 O   0  0  0  0  0  0  0  0  0  0  0  0
   12.0573  -18.3849   28.7757 O   0  0  0  0  0  0  0  0  0  0  0  0
  2 10  1  0
  2  3  1  0
  2  1  1  6
  3  4  1  0
  4  5  2  0
  4  9  1  0
  5  6  1  0
  6  7  2  0
  8  7  1  0
  9  8  2  0
 10 17  1  0
 11 10  2  0
 13 12  1  6
 14 13  1  0
 15 13  1  0
 16 15  1  1
 17 16  1  0
 18 20  1  0
 18 16  1  0
 19 18  2  0
 21 20  1  0
 21 28  1  0
 22 23  1  0
 21 22  1  6
 23 24  2  0
 24 25  1  0
 26 25  1  0
 27 23  1  0
 27 26  2  0
 28 30  1  0
 29 28  2  0
M  END
$$$$
