FLH.pdb
     RDKit          3D

 30 31  0  0  1  0  0  0  0  0999 V2000
    5.6777  -17.4684   25.2878 N   0  0  0  0  0  0  0  0  0  0  0  0
    6.5583  -16.3817   24.9186 C   0  0  1  0  0  0  0  0  0  0  0  0
    7.5302  -16.0871   26.0421 C   0  0  0  0  0  0  0  0  0  0  0  0
    7.7321  -14.6528   26.2761 C   0  0  0  0  0  0  0  0  0  0  0  0
    6.6481  -13.8444   26.5466 C   0  0  0  0  0  0  0  0  0  0  0  0
    6.8357  -12.5149   26.7632 C   0  0  0  0  0  0  0  0  0  0  0  0
    8.1076  -11.9510   26.7171 C   0  0  0  0  0  0  0  0  0  0  0  0
    9.1958  -12.7511   26.4476 C   0  0  0  0  0  0  0  0  0  0  0  0
    8.9824  -14.0913   26.2319 C   0  0  0  0  0  0  0  0  0  0  0  0
    7.3695  -16.7050   23.7210 C   0  0  0  0  0  0  0  0  0  0  0  0
    7.8378  -17.8649   23.5947 O   0  0  0  0  0  0  0  0  0  0  0  0
    6.8070  -12.7843   20.0320 C   0  0  0  0  0  0  0  0  0  0  0  0
    7.2680  -13.7276   21.1546 C   0  0  2  0  0  0  0  0  0  0  0  0
    8.3717  -13.0237   21.8791 C   0  0  0  0  0  0  0  0  0  0  0  0
    7.6958  -14.9911   20.4857 C   0  0  0  0  0  0  0  0  0  0  0  0
    8.1293  -16.0925   21.3934 C   0  0  2  0  0  0  0  0  0  0  0  0
    7.6292  -15.7498   22.7228 N   0  0  0  0  0  0  0  0  0  0  0  0
    9.6072  -16.2308   21.4212 C   0  0  0  0  0  0  0  0  0  0  0  0
   10.2544  -16.6158   20.3898 O   0  0  0  0  0  0  0  0  0  0  0  0
   10.2849  -15.9217   22.6317 N   0  0  0  0  0  0  0  0  0  0  0  0
   11.7394  -16.0692   22.6555 C   0  0  1  0  0  0  0  0  0  0  0  0
   12.3887  -14.7085   22.5616 C   0  0  0  0  0  0  0  0  0  0  0  0
   12.7418  -14.4384   21.1483 C   0  0  0  0  0  0  0  0  0  0  0  0
   12.5658  -15.4057   20.1513 C   0  0  0  0  0  0  0  0  0  0  0  0
   12.9693  -14.8719   19.0000 N   0  0  0  0  0  0  0  0  0  0  0  0
   13.3790  -13.6318   19.2561 C   0  0  0  0  0  0  0  0  0  0  0  0
   13.2466  -13.3590   20.5484 N   0  0  0  0  0  0  0  0  0  0  0  0
   12.0667  -16.6866   23.9636 C   0  0  0  0  0  0  0  0  0  0  0  0
   11.1909  -16.9877   24.8288 O   0  0  0  0  0  0  0  0  0  0  0  0
   13.3817  -16.9894   24.3520 O   0  0  0  0  0  0  0  0  0  0  0  0
  2 10  1  0
  2  3  1  0
  2  1  1  1
  3  4  1  0
  4  5  2  0
  4  9  1  0
  5  6  1  0
  6  7  2  0
  8  7  1  0
  9  8  2  0
 10 17  1  0
 11 10  2  0
 13 12  1  6
 14 13  1  0
 15 13  1  0
 16 15  1  6
 17 16  1  0
 18 20  1  0
 18 16  1  0
 19 18  2  0
 21 20  1  0
 21 28  1  0
 22 23  1  0
 21 22  1  1
 23 24  2  0
 24 25  1  0
 26 25  1  0
 27 23  1  0
 27 26  2  0
 28 30  1  0
 29 28  2  0
M  END
$$$$
