FLH.pdb
     RDKit          3D

 30 31  0  0  1  0  0  0  0  0999 V2000
   10.2138  -17.1036   20.9573 N   0  0  0  0  0  0  0  0  0  0  0  0
    9.4160  -16.0175   21.4832 C   0  0  1  0  0  0  0  0  0  0  0  0
    8.0486  -16.0058   20.8322 C   0  0  0  0  0  0  0  0  0  0  0  0
    7.7182  -14.7262   20.1948 C   0  0  0  0  0  0  0  0  0  0  0  0
    6.8237  -13.8701   20.8021 C   0  0  0  0  0  0  0  0  0  0  0  0
    6.5176  -12.6841   20.2108 C   0  0  0  0  0  0  0  0  0  0  0  0
    7.0928  -12.3155   18.9979 C   0  0  0  0  0  0  0  0  0  0  0  0
    7.9871  -13.1646   18.3845 C   0  0  0  0  0  0  0  0  0  0  0  0
    8.2813  -14.3573   19.0001 C   0  0  0  0  0  0  0  0  0  0  0  0
    9.1968  -16.1442   22.9435 C   0  0  0  0  0  0  0  0  0  0  0  0
    9.8479  -17.0061   23.5869 O   0  0  0  0  0  0  0  0  0  0  0  0
    5.7824  -12.9978   26.9273 C   0  0  0  0  0  0  0  0  0  0  0  0
    7.1727  -13.6357   26.7772 C   0  0  2  0  0  0  0  0  0  0  0  0
    8.1668  -12.6000   27.1985 C   0  0  0  0  0  0  0  0  0  0  0  0
    7.2922  -14.0386   25.3453 C   0  0  0  0  0  0  0  0  0  0  0  0
    8.4831  -14.8681   25.0007 C   0  0  2  0  0  0  0  0  0  0  0  0
    8.2808  -15.3268   23.6283 N   0  0  0  0  0  0  0  0  0  0  0  0
    8.6253  -16.0298   25.9142 C   0  0  0  0  0  0  0  0  0  0  0  0
    9.0033  -15.8765   27.1243 O   0  0  0  0  0  0  0  0  0  0  0  0
    8.3281  -17.3224   25.4032 N   0  0  0  0  0  0  0  0  0  0  0  0
    8.5575  -18.4708   26.2785 C   0  0  1  0  0  0  0  0  0  0  0  0
    9.9766  -18.4389   26.7954 C   0  0  0  0  0  0  0  0  0  0  0  0
   10.8274  -19.2813   25.9227 C   0  0  0  0  0  0  0  0  0  0  0  0
   10.2997  -19.9547   24.8143 C   0  0  0  0  0  0  0  0  0  0  0  0
   11.2986  -20.6200   24.2373 N   0  0  0  0  0  0  0  0  0  0  0  0
   12.4002  -20.3795   24.9443 C   0  0  0  0  0  0  0  0  0  0  0  0
   12.1285  -19.5734   25.9633 N   0  0  0  0  0  0  0  0  0  0  0  0
    7.6128  -18.3170   27.4113 C   0  0  0  0  0  0  0  0  0  0  0  0
    7.8225  -17.5410   28.3911 O   0  0  0  0  0  0  0  0  0  0  0  0
    6.4016  -19.0232   27.4907 O   0  0  0  0  0  0  0  0  0  0  0  0
  2 10  1  0
  2  3  1  0
  2  1  1  6
  3  4  1  0
  4  5  2  0
  4  9  1  0
  5  6  1  0
  6  7  2  0
  8  7  1  0
  9  8  2  0
 10 17  1  0
 11 10  2  0
 13 12  1  6
 14 13  1  0
 15 13  1  0
 16 15  1  1
 17 16  1  0
 18 20  1  0
 18 16  1  0
 19 18  2  0
 21 20  1  0
 21 28  1  0
 22 23  1  0
 21 22  1  1
 23 24  2  0
 24 25  1  0
 26 25  1  0
 27 23  1  0
 27 26  2  0
 28 30  1  0
 29 28  2  0
M  END
$$$$
