FLH.pdb
     RDKit          3D

 30 31  0  0  1  0  0  0  0  0999 V2000
    9.2688  -17.4874   21.1124 N   0  0  0  0  0  0  0  0  0  0  0  0
    8.6860  -16.3630   21.8113 C   0  0  1  0  0  0  0  0  0  0  0  0
    7.5046  -15.8169   21.0368 C   0  0  0  0  0  0  0  0  0  0  0  0
    7.8067  -14.5781   20.3109 C   0  0  0  0  0  0  0  0  0  0  0  0
    7.1269  -13.4194   20.6223 C   0  0  0  0  0  0  0  0  0  0  0  0
    7.4072  -12.2714   19.9490 C   0  0  0  0  0  0  0  0  0  0  0  0
    8.3723  -12.2430   18.9463 C   0  0  0  0  0  0  0  0  0  0  0  0
    9.0560  -13.3957   18.6288 C   0  0  0  0  0  0  0  0  0  0  0  0
    8.7562  -14.5436   19.3221 C   0  0  0  0  0  0  0  0  0  0  0  0
    8.1834  -16.7415   23.1533 C   0  0  0  0  0  0  0  0  0  0  0  0
    8.4988  -17.8609   23.6308 O   0  0  0  0  0  0  0  0  0  0  0  0
    5.8848  -12.0882   26.3439 C   0  0  0  0  0  0  0  0  0  0  0  0
    7.0893  -13.0428   26.3256 C   0  0  2  0  0  0  0  0  0  0  0  0
    8.3147  -12.1854   26.2875 C   0  0  0  0  0  0  0  0  0  0  0  0
    6.9183  -13.9038   25.1188 C   0  0  0  0  0  0  0  0  0  0  0  0
    7.8608  -15.0541   25.0022 C   0  0  2  0  0  0  0  0  0  0  0  0
    7.3638  -15.8827   23.9062 N   0  0  0  0  0  0  0  0  0  0  0  0
    7.9190  -15.8448   26.2574 C   0  0  0  0  0  0  0  0  0  0  0  0
    8.1583  -15.2855   27.3802 O   0  0  0  0  0  0  0  0  0  0  0  0
    7.7003  -17.2468   26.1752 N   0  0  0  0  0  0  0  0  0  0  0  0
    8.8568  -18.1275   26.3319 C   0  0  1  0  0  0  0  0  0  0  0  0
    9.8587  -17.8486   25.2361 C   0  0  0  0  0  0  0  0  0  0  0  0
   11.0165  -18.7589   25.3974 C   0  0  0  0  0  0  0  0  0  0  0  0
   11.0983  -19.6581   26.4675 C   0  0  0  0  0  0  0  0  0  0  0  0
   12.2411  -20.3295   26.3398 N   0  0  0  0  0  0  0  0  0  0  0  0
   12.8500  -19.8781   25.2458 C   0  0  0  0  0  0  0  0  0  0  0  0
   12.1210  -18.9306   24.6689 N   0  0  0  0  0  0  0  0  0  0  0  0
    9.4527  -17.7903   27.6474 C   0  0  0  0  0  0  0  0  0  0  0  0
    9.2436  -18.4659   28.6991 O   0  0  0  0  0  0  0  0  0  0  0  0
   10.3023  -16.6882   27.8355 O   0  0  0  0  0  0  0  0  0  0  0  0
  2 10  1  0
  2  3  1  0
  2  1  1  6
  3  4  1  0
  4  5  2  0
  4  9  1  0
  5  6  1  0
  6  7  2  0
  8  7  1  0
  9  8  2  0
 10 17  1  0
 11 10  2  0
 13 12  1  6
 14 13  1  0
 15 13  1  0
 16 15  1  1
 17 16  1  0
 18 20  1  0
 18 16  1  0
 19 18  2  0
 21 20  1  0
 21 28  1  0
 22 23  1  0
 21 22  1  6
 23 24  2  0
 24 25  1  0
 26 25  1  0
 27 23  1  0
 27 26  2  0
 28 30  1  0
 29 28  2  0
M  END
$$$$
