FLH.pdb
     RDKit          3D

 30 31  0  0  1  0  0  0  0  0999 V2000
    6.6427  -17.1159   25.3495 N   0  0  0  0  0  0  0  0  0  0  0  0
    7.1464  -15.9261   24.6990 C   0  0  1  0  0  0  0  0  0  0  0  0
    8.1206  -15.2030   25.6055 C   0  0  0  0  0  0  0  0  0  0  0  0
    7.5772  -13.9645   26.1743 C   0  0  0  0  0  0  0  0  0  0  0  0
    8.3776  -13.1647   26.9626 C   0  0  0  0  0  0  0  0  0  0  0  0
    7.8733  -12.0168   27.4898 C   0  0  0  0  0  0  0  0  0  0  0  0
    6.5577  -11.6314   27.2479 C   0  0  0  0  0  0  0  0  0  0  0  0
    5.7513  -12.4244   26.4618 C   0  0  0  0  0  0  0  0  0  0  0  0
    6.2821  -13.5794   25.9398 C   0  0  0  0  0  0  0  0  0  0  0  0
    7.8756  -16.2421   23.4478 C   0  0  0  0  0  0  0  0  0  0  0  0
    8.0908  -17.4451   23.1530 O   0  0  0  0  0  0  0  0  0  0  0  0
    6.5245  -14.2095   19.8917 C   0  0  0  0  0  0  0  0  0  0  0  0
    7.6029  -13.4043   20.6339 C   0  0  2  0  0  0  0  0  0  0  0  0
    7.6724  -12.0662   19.9683 C   0  0  0  0  0  0  0  0  0  0  0  0
    8.8620  -14.1978   20.5249 C   0  0  0  0  0  0  0  0  0  0  0  0
    8.8745  -15.5002   21.2520 C   0  0  2  0  0  0  0  0  0  0  0  0
    8.3326  -15.2330   22.5823 N   0  0  0  0  0  0  0  0  0  0  0  0
   10.2472  -16.0554   21.3592 C   0  0  0  0  0  0  0  0  0  0  0  0
   10.8628  -16.4989   20.3320 O   0  0  0  0  0  0  0  0  0  0  0  0
   10.8601  -16.0800   22.6414 N   0  0  0  0  0  0  0  0  0  0  0  0
   12.2584  -16.4999   22.7206 C   0  0  1  0  0  0  0  0  0  0  0  0
   13.1530  -15.2828   22.7395 C   0  0  0  0  0  0  0  0  0  0  0  0
   13.5780  -14.9742   21.3541 C   0  0  0  0  0  0  0  0  0  0  0  0
   13.1433  -15.7412   20.2663 C   0  0  0  0  0  0  0  0  0  0  0  0
   13.6891  -15.2231   19.1677 N   0  0  0  0  0  0  0  0  0  0  0  0
   14.4301  -14.1828   19.5417 C   0  0  0  0  0  0  0  0  0  0  0  0
   14.3710  -14.0229   20.8581 N   0  0  0  0  0  0  0  0  0  0  0  0
   12.3929  -17.2352   24.0015 C   0  0  0  0  0  0  0  0  0  0  0  0
   11.4297  -17.4121   24.8060 O   0  0  0  0  0  0  0  0  0  0  0  0
   13.6059  -17.7984   24.4294 O   0  0  0  0  0  0  0  0  0  0  0  0
  2 10  1  0
  2  3  1  0
  2  1  1  1
  3  4  1  0
  4  5  2  0
  4  9  1  0
  5  6  1  0
  6  7  2  0
  8  7  1  0
  9  8  2  0
 10 17  1  0
 11 10  2  0
 13 12  1  6
 14 13  1  0
 15 13  1  0
 16 15  1  6
 17 16  1  0
 18 20  1  0
 18 16  1  0
 19 18  2  0
 21 20  1  0
 21 28  1  0
 22 23  1  0
 21 22  1  1
 23 24  2  0
 24 25  1  0
 26 25  1  0
 27 23  1  0
 27 26  2  0
 28 30  1  0
 29 28  2  0
M  END
$$$$
