FLH.pdb
     RDKit          3D

 30 31  0  0  1  0  0  0  0  0999 V2000
   10.3507  -15.0660   21.2685 N   0  0  0  0  0  0  0  0  0  0  0  0
    9.2026  -14.6039   22.0173 C   0  0  1  0  0  0  0  0  0  0  0  0
    7.9228  -15.1033   21.3798 C   0  0  0  0  0  0  0  0  0  0  0  0
    7.5746  -14.3965   20.1420 C   0  0  0  0  0  0  0  0  0  0  0  0
    8.0364  -13.1140   19.9333 C   0  0  0  0  0  0  0  0  0  0  0  0
    7.7133  -12.4593   18.7858 C   0  0  0  0  0  0  0  0  0  0  0  0
    6.9212  -13.0617   17.8126 C   0  0  0  0  0  0  0  0  0  0  0  0
    6.4556  -14.3425   18.0128 C   0  0  0  0  0  0  0  0  0  0  0  0
    6.7947  -14.9845   19.1795 C   0  0  0  0  0  0  0  0  0  0  0  0
    9.2113  -15.1018   23.4133 C   0  0  0  0  0  0  0  0  0  0  0  0
   10.1266  -15.8826   23.7781 O   0  0  0  0  0  0  0  0  0  0  0  0
    8.2764  -12.2604   27.0789 C   0  0  0  0  0  0  0  0  0  0  0  0
    7.1259  -12.8247   26.2302 C   0  0  2  0  0  0  0  0  0  0  0  0
    5.8696  -12.1871   26.7340 C   0  0  0  0  0  0  0  0  0  0  0  0
    7.1645  -14.3055   26.4105 C   0  0  0  0  0  0  0  0  0  0  0  0
    8.3140  -15.0084   25.7704 C   0  0  2  0  0  0  0  0  0  0  0  0
    8.2238  -14.7246   24.3400 N   0  0  0  0  0  0  0  0  0  0  0  0
    8.2619  -16.4731   26.0071 C   0  0  0  0  0  0  0  0  0  0  0  0
    7.1503  -17.1017   26.0173 O   0  0  0  0  0  0  0  0  0  0  0  0
    9.4877  -17.1595   26.2227 N   0  0  0  0  0  0  0  0  0  0  0  0
    9.4212  -18.5649   26.6204 C   0  0  1  0  0  0  0  0  0  0  0  0
   10.4513  -19.3586   25.8517 C   0  0  0  0  0  0  0  0  0  0  0  0
   10.1717  -19.2366   24.4019 C   0  0  0  0  0  0  0  0  0  0  0  0
    8.9279  -19.5878   23.8634 C   0  0  0  0  0  0  0  0  0  0  0  0
    8.9841  -19.3703   22.5509 N   0  0  0  0  0  0  0  0  0  0  0  0
   10.2001  -18.9057   22.2742 C   0  0  0  0  0  0  0  0  0  0  0  0
   10.9255  -18.8207   23.3827 N   0  0  0  0  0  0  0  0  0  0  0  0
    9.7475  -18.5967   28.0667 C   0  0  0  0  0  0  0  0  0  0  0  0
    9.7475  -19.6603   28.7562 O   0  0  0  0  0  0  0  0  0  0  0  0
   10.0851  -17.4441   28.7942 O   0  0  0  0  0  0  0  0  0  0  0  0
  2 10  1  0
  2  3  1  0
  2  1  1  6
  3  4  1  0
  4  5  2  0
  4  9  1  0
  5  6  1  0
  6  7  2  0
  8  7  1  0
  9  8  2  0
 10 17  1  0
 11 10  2  0
 13 12  1  1
 14 13  1  0
 15 13  1  0
 16 15  1  1
 17 16  1  0
 18 20  1  0
 18 16  1  0
 19 18  2  0
 21 20  1  0
 21 28  1  0
 22 23  1  0
 21 22  1  6
 23 24  2  0
 24 25  1  0
 26 25  1  0
 27 23  1  0
 27 26  2  0
 28 30  1  0
 29 28  2  0
M  END
$$$$
