FLH.pdb
     RDKit          3D

 30 31  0  0  1  0  0  0  0  0999 V2000
    5.4960  -18.2663   24.9254 N   0  0  0  0  0  0  0  0  0  0  0  0
    6.1335  -16.9690   24.9829 C   0  0  1  0  0  0  0  0  0  0  0  0
    6.9633  -16.8459   26.2439 C   0  0  0  0  0  0  0  0  0  0  0  0
    7.2634  -15.4571   26.6100 C   0  0  0  0  0  0  0  0  0  0  0  0
    6.3645  -14.4583   26.3000 C   0  0  0  0  0  0  0  0  0  0  0  0
    6.6432  -13.1711   26.6395 C   0  0  0  0  0  0  0  0  0  0  0  0
    7.8245  -12.8403   27.2974 C   0  0  0  0  0  0  0  0  0  0  0  0
    8.7278  -13.8316   27.6108 C   0  0  0  0  0  0  0  0  0  0  0  0
    8.4253  -15.1248   27.2582 C   0  0  0  0  0  0  0  0  0  0  0  0
    7.0512  -16.7487   23.8401 C   0  0  0  0  0  0  0  0  0  0  0  0
    7.5387  -17.7441   23.2469 O   0  0  0  0  0  0  0  0  0  0  0  0
    8.2702  -11.6874   20.6181 C   0  0  0  0  0  0  0  0  0  0  0  0
    8.4473  -13.2139   20.5913 C   0  0  2  0  0  0  0  0  0  0  0  0
    7.6902  -13.7120   19.4008 C   0  0  0  0  0  0  0  0  0  0  0  0
    7.9202  -13.7159   21.8940 C   0  0  0  0  0  0  0  0  0  0  0  0
    8.0305  -15.1868   22.1164 C   0  0  2  0  0  0  0  0  0  0  0  0
    7.3910  -15.4568   23.4020 N   0  0  0  0  0  0  0  0  0  0  0  0
    9.4463  -15.6327   22.1440 C   0  0  0  0  0  0  0  0  0  0  0  0
   10.2076  -15.4785   21.1304 O   0  0  0  0  0  0  0  0  0  0  0  0
    9.9334  -16.2383   23.3341 N   0  0  0  0  0  0  0  0  0  0  0  0
   11.3100  -16.7309   23.3341 C   0  0  1  0  0  0  0  0  0  0  0  0
   11.7040  -17.1345   24.7356 C   0  0  0  0  0  0  0  0  0  0  0  0
   11.8201  -15.9183   25.5737 C   0  0  0  0  0  0  0  0  0  0  0  0
   11.7364  -14.6354   25.0190 C   0  0  0  0  0  0  0  0  0  0  0  0
   11.8764  -13.7598   26.0125 N   0  0  0  0  0  0  0  0  0  0  0  0
   12.0401  -14.4532   27.1366 C   0  0  0  0  0  0  0  0  0  0  0  0
   12.0080  -15.7561   26.8846 N   0  0  0  0  0  0  0  0  0  0  0  0
   11.3178  -17.9238   22.4531 C   0  0  0  0  0  0  0  0  0  0  0  0
   10.3014  -18.3166   21.8057 O   0  0  0  0  0  0  0  0  0  0  0  0
   12.4589  -18.7198   22.2635 O   0  0  0  0  0  0  0  0  0  0  0  0
  2 10  1  0
  2  3  1  0
  2  1  1  6
  3  4  1  0
  4  5  2  0
  4  9  1  0
  5  6  1  0
  6  7  2  0
  8  7  1  0
  9  8  2  0
 10 17  1  0
 11 10  2  0
 13 12  1  1
 14 13  1  0
 15 13  1  0
 16 15  1  1
 17 16  1  0
 18 20  1  0
 18 16  1  0
 19 18  2  0
 21 20  1  0
 21 28  1  0
 22 23  1  0
 21 22  1  1
 23 24  2  0
 24 25  1  0
 26 25  1  0
 27 23  1  0
 27 26  2  0
 28 30  1  0
 29 28  2  0
M  END
$$$$
