FLH.pdb
     RDKit          3D

 30 31  0  0  1  0  0  0  0  0999 V2000
    5.9662  -17.2939   25.5120 N   0  0  0  0  0  0  0  0  0  0  0  0
    6.7071  -16.1556   25.0138 C   0  0  1  0  0  0  0  0  0  0  0  0
    7.7412  -15.7156   26.0290 C   0  0  0  0  0  0  0  0  0  0  0  0
    7.4927  -14.3742   26.5691 C   0  0  0  0  0  0  0  0  0  0  0  0
    8.5053  -13.6995   27.2181 C   0  0  0  0  0  0  0  0  0  0  0  0
    8.2745  -12.4562   27.7187 C   0  0  0  0  0  0  0  0  0  0  0  0
    7.0293  -11.8479   27.5880 C   0  0  0  0  0  0  0  0  0  0  0  0
    6.0122  -12.5146   26.9412 C   0  0  0  0  0  0  0  0  0  0  0  0
    6.2683  -13.7696   26.4436 C   0  0  0  0  0  0  0  0  0  0  0  0
    7.4379  -16.4711   23.7635 C   0  0  0  0  0  0  0  0  0  0  0  0
    7.4579  -17.6582   23.3500 O   0  0  0  0  0  0  0  0  0  0  0  0
    6.4250  -13.9585   20.3363 C   0  0  0  0  0  0  0  0  0  0  0  0
    7.5358  -13.4212   21.2527 C   0  0  2  0  0  0  0  0  0  0  0  0
    7.7855  -12.0055   20.8383 C   0  0  0  0  0  0  0  0  0  0  0  0
    8.7086  -14.3227   21.0559 C   0  0  0  0  0  0  0  0  0  0  0  0
    8.5947  -15.6798   21.6646 C   0  0  2  0  0  0  0  0  0  0  0  0
    8.1091  -15.4788   23.0279 N   0  0  0  0  0  0  0  0  0  0  0  0
    9.9017  -16.3836   21.6841 C   0  0  0  0  0  0  0  0  0  0  0  0
   10.6998  -16.3231   20.6890 O   0  0  0  0  0  0  0  0  0  0  0  0
   10.2420  -17.1296   22.8451 N   0  0  0  0  0  0  0  0  0  0  0  0
   11.6531  -17.1986   23.2218 C   0  0  1  0  0  0  0  0  0  0  0  0
   12.2270  -15.8031   23.2957 C   0  0  0  0  0  0  0  0  0  0  0  0
   13.6504  -15.8871   23.6980 C   0  0  0  0  0  0  0  0  0  0  0  0
   14.2560  -17.1134   23.9978 C   0  0  0  0  0  0  0  0  0  0  0  0
   15.5236  -16.8652   24.3218 N   0  0  0  0  0  0  0  0  0  0  0  0
   15.7094  -15.5505   24.2314 C   0  0  0  0  0  0  0  0  0  0  0  0
   14.5867  -14.9499   23.8560 N   0  0  0  0  0  0  0  0  0  0  0  0
   11.6875  -17.8217   24.5671 C   0  0  0  0  0  0  0  0  0  0  0  0
   11.6929  -19.0755   24.7526 O   0  0  0  0  0  0  0  0  0  0  0  0
   11.7172  -17.0685   25.7518 O   0  0  0  0  0  0  0  0  0  0  0  0
  2 10  1  0
  2  3  1  0
  2  1  1  1
  3  4  1  0
  4  5  2  0
  4  9  1  0
  5  6  1  0
  6  7  2  0
  8  7  1  0
  9  8  2  0
 10 17  1  0
 11 10  2  0
 13 12  1  6
 14 13  1  0
 15 13  1  0
 16 15  1  1
 17 16  1  0
 18 20  1  0
 18 16  1  0
 19 18  2  0
 21 20  1  0
 21 28  1  0
 22 23  1  0
 21 22  1  1
 23 24  2  0
 24 25  1  0
 26 25  1  0
 27 23  1  0
 27 26  2  0
 28 30  1  0
 29 28  2  0
M  END
$$$$
