FLH.pdb
     RDKit          3D

 30 31  0  0  1  0  0  0  0  0999 V2000
    5.5917  -17.7429   24.9526 N   0  0  0  0  0  0  0  0  0  0  0  0
    6.2616  -16.4615   24.9091 C   0  0  1  0  0  0  0  0  0  0  0  0
    6.7405  -16.0708   26.2917 C   0  0  0  0  0  0  0  0  0  0  0  0
    6.9151  -14.6237   26.4600 C   0  0  0  0  0  0  0  0  0  0  0  0
    8.1638  -14.1141   26.7478 C   0  0  0  0  0  0  0  0  0  0  0  0
    8.3251  -12.7727   26.9038 C   0  0  0  0  0  0  0  0  0  0  0  0
    7.2485  -11.8993   26.7780 C   0  0  0  0  0  0  0  0  0  0  0  0
    5.9979  -12.3997   26.4907 C   0  0  0  0  0  0  0  0  0  0  0  0
    5.8586  -13.7582   26.3373 C   0  0  0  0  0  0  0  0  0  0  0  0
    7.4554  -16.4871   24.0310 C   0  0  0  0  0  0  0  0  0  0  0  0
    8.1402  -17.5391   23.9608 O   0  0  0  0  0  0  0  0  0  0  0  0
    7.5722  -14.8261   19.8259 C   0  0  0  0  0  0  0  0  0  0  0  0
    7.6889  -13.7691   20.9356 C   0  0  2  0  0  0  0  0  0  0  0  0
    7.6690  -12.4346   20.2595 C   0  0  0  0  0  0  0  0  0  0  0  0
    8.9632  -14.0614   21.6550 C   0  0  0  0  0  0  0  0  0  0  0  0
    9.0093  -15.3553   22.3958 C   0  0  2  0  0  0  0  0  0  0  0  0
    7.8424  -15.3670   23.2748 N   0  0  0  0  0  0  0  0  0  0  0  0
   10.2543  -15.4862   23.1940 C   0  0  0  0  0  0  0  0  0  0  0  0
   10.2382  -15.3767   24.4662 O   0  0  0  0  0  0  0  0  0  0  0  0
   11.4694  -15.7378   22.5009 N   0  0  0  0  0  0  0  0  0  0  0  0
   12.4286  -16.6533   23.1170 C   0  0  1  0  0  0  0  0  0  0  0  0
   11.7808  -18.0021   23.3247 C   0  0  0  0  0  0  0  0  0  0  0  0
   11.4449  -18.1607   24.7590 C   0  0  0  0  0  0  0  0  0  0  0  0
   11.6935  -17.1420   25.6868 C   0  0  0  0  0  0  0  0  0  0  0  0
   11.2887  -17.5780   26.8781 N   0  0  0  0  0  0  0  0  0  0  0  0
   10.8093  -18.8084   26.7118 C   0  0  0  0  0  0  0  0  0  0  0  0
   10.8982  -19.1707   25.4379 N   0  0  0  0  0  0  0  0  0  0  0  0
   13.5479  -16.7831   22.1527 C   0  0  0  0  0  0  0  0  0  0  0  0
   14.7659  -16.6598   22.4806 O   0  0  0  0  0  0  0  0  0  0  0  0
   13.3476  -17.0547   20.7897 O   0  0  0  0  0  0  0  0  0  0  0  0
  2 10  1  0
  2  3  1  0
  2  1  1  1
  3  4  1  0
  4  5  2  0
  4  9  1  0
  5  6  1  0
  6  7  2  0
  8  7  1  0
  9  8  2  0
 10 17  1  0
 11 10  2  0
 13 12  1  6
 14 13  1  0
 15 13  1  0
 16 15  1  1
 17 16  1  0
 18 20  1  0
 18 16  1  0
 19 18  2  0
 21 20  1  0
 21 28  1  0
 22 23  1  0
 21 22  1  6
 23 24  2  0
 24 25  1  0
 26 25  1  0
 27 23  1  0
 27 26  2  0
 28 30  1  0
 29 28  2  0
M  END
$$$$
