YLW.pdb
     RDKit          3D

 35 37  0  0  1  0  0  0  0  0999 V2000
   11.0299  -22.8111   16.2297 O   0  0  0  0  0  0  0  0  0  0  0  0
   11.0446  -21.5354   16.7924 C   0  0  0  0  0  0  0  0  0  0  0  0
   10.6941  -21.4044   18.1380 C   0  0  0  0  0  0  0  0  0  0  0  0
   10.7153  -20.1437   18.6670 C   0  0  0  0  0  0  0  0  0  0  0  0
   11.0581  -19.0216   17.9519 C   0  0  0  0  0  0  0  0  0  0  0  0
   11.0530  -17.6755   18.5900 C   0  0  0  0  0  0  0  0  0  0  0  0
   10.7394  -17.8335   20.0397 C   0  0  2  0  0  0  0  0  0  0  0  0
    9.4367  -18.4643   20.2407 N   0  0  0  0  0  0  0  0  0  0  0  0
   10.7417  -16.5542   20.7665 C   0  0  0  0  0  0  0  0  0  0  0  0
   11.7899  -15.8565   20.8863 O   0  0  0  0  0  0  0  0  0  0  0  0
   11.4051  -19.1524   16.6207 C   0  0  0  0  0  0  0  0  0  0  0  0
   11.3945  -20.4271   16.0485 C   0  0  0  0  0  0  0  0  0  0  0  0
    8.8301  -12.8654   19.6603 C   0  0  0  0  0  0  0  0  0  0  0  0
    7.8307  -13.8733   20.2650 C   0  0  2  0  0  0  0  0  0  0  0  0
    6.4507  -13.2685   20.0890 C   0  0  0  0  0  0  0  0  0  0  0  0
    8.2406  -14.0158   21.7019 C   0  0  0  0  0  0  0  0  0  0  0  0
    9.4628  -14.8090   21.9610 C   0  0  2  0  0  0  0  0  0  0  0  0
    9.5071  -16.0993   21.3450 N   0  0  0  0  0  0  0  0  0  0  0  0
    9.7670  -14.9264   23.4239 C   0  0  0  0  0  0  0  0  0  0  0  0
    9.9508  -13.8843   24.0862 O   0  0  0  0  0  0  0  0  0  0  0  0
    9.8500  -16.1867   24.0561 N   0  0  0  0  0  0  0  0  0  0  0  0
   10.1549  -16.3471   25.4661 C   0  0  1  0  0  0  0  0  0  0  0  0
    8.9487  -16.7427   26.2645 C   0  0  0  0  0  0  0  0  0  0  0  0
    7.7871  -15.8633   26.0169 C   0  0  0  0  0  0  0  0  0  0  0  0
    6.5582  -16.1505   25.4699 C   0  0  0  0  0  0  0  0  0  0  0  0
    5.7978  -15.0242   25.4368 N   0  0  0  0  0  0  0  0  0  0  0  0
    6.4960  -14.0109   25.9462 C   0  0  0  0  0  0  0  0  0  0  0  0
    6.2122  -12.6873   26.1428 C   0  0  0  0  0  0  0  0  0  0  0  0
    7.1785  -11.8586   26.7092 C   0  0  0  0  0  0  0  0  0  0  0  0
    8.4117  -12.3616   27.0720 C   0  0  0  0  0  0  0  0  0  0  0  0
    8.6989  -13.6917   26.8763 C   0  0  0  0  0  0  0  0  0  0  0  0
    7.7277  -14.5061   26.3105 C   0  0  0  0  0  0  0  0  0  0  0  0
   11.2104  -17.3621   25.6749 C   0  0  0  0  0  0  0  0  0  0  0  0
   11.6974  -18.0462   24.5858 O   0  0  0  0  0  0  0  0  0  0  0  0
   11.6347  -17.5766   26.8202 O   0  0  0  0  0  0  0  0  0  0  0  0
  2  1  1  0
  3  2  2  0
  4  3  1  0
  5  4  2  0
  5 11  1  0
  6  5  1  0
  7  6  1  0
  7  8  1  6
  9 18  1  0
  9  7  1  0
 10  9  2  0
 11 12  2  0
 12  2  1  0
 14 13  1  6
 14 16  1  0
 15 14  1  0
 17 16  1  1
 17 18  1  0
 17 19  1  0
 19 21  1  0
 19 20  2  0
 21 22  1  0
 22 23  1  1
 22 33  1  0
 24 23  1  0
 25 24  2  0
 26 25  1  0
 27 26  1  0
 27 32  2  0
 28 27  1  0
 29 28  2  0
 29 30  1  0
 30 31  2  0
 31 32  1  0
 32 24  1  0
 33 34  1  0
 35 33  2  0
M  END
$$$$
