YLW.pdb
     RDKit          3D

 35 37  0  0  1  0  0  0  0  0999 V2000
   11.6942  -23.0321   15.7367 O   0  0  0  0  0  0  0  0  0  0  0  0
   11.6207  -21.7614   16.3062 C   0  0  0  0  0  0  0  0  0  0  0  0
   12.2809  -21.5427   17.5174 C   0  0  0  0  0  0  0  0  0  0  0  0
   12.1939  -20.2891   18.0564 C   0  0  0  0  0  0  0  0  0  0  0  0
   11.5014  -19.2546   17.4749 C   0  0  0  0  0  0  0  0  0  0  0  0
   11.4416  -17.9138   18.1213 C   0  0  0  0  0  0  0  0  0  0  0  0
   10.9641  -18.0793   19.5247 C   0  0  2  0  0  0  0  0  0  0  0  0
    9.6212  -18.6535   19.5698 N   0  0  0  0  0  0  0  0  0  0  0  0
   10.9420  -16.8125   20.2728 C   0  0  0  0  0  0  0  0  0  0  0  0
   11.9783  -16.1007   20.4111 O   0  0  0  0  0  0  0  0  0  0  0  0
   10.8489  -19.4719   16.2762 C   0  0  0  0  0  0  0  0  0  0  0  0
   10.9180  -20.7418   15.6973 C   0  0  0  0  0  0  0  0  0  0  0  0
    8.6213  -13.0164   19.6398 C   0  0  0  0  0  0  0  0  0  0  0  0
    7.7400  -14.1451   20.2140 C   0  0  2  0  0  0  0  0  0  0  0  0
    6.3299  -13.5917   20.2925 C   0  0  0  0  0  0  0  0  0  0  0  0
    8.3331  -14.4591   21.5566 C   0  0  0  0  0  0  0  0  0  0  0  0
    9.6469  -15.1405   21.5515 C   0  0  2  0  0  0  0  0  0  0  0  0
    9.6968  -16.3865   20.8507 N   0  0  0  0  0  0  0  0  0  0  0  0
   10.2103  -15.3030   22.9308 C   0  0  0  0  0  0  0  0  0  0  0  0
   10.7674  -14.3259   23.4726 O   0  0  0  0  0  0  0  0  0  0  0  0
   10.1227  -16.5340   23.6178 N   0  0  0  0  0  0  0  0  0  0  0  0
    9.8880  -16.6286   25.0470 C   0  0  1  0  0  0  0  0  0  0  0  0
    8.5333  -16.1144   25.4334 C   0  0  0  0  0  0  0  0  0  0  0  0
    8.6016  -14.9844   26.3833 C   0  0  0  0  0  0  0  0  0  0  0  0
    9.4775  -14.7465   27.4168 C   0  0  0  0  0  0  0  0  0  0  0  0
    9.1588  -13.5736   28.0256 N   0  0  0  0  0  0  0  0  0  0  0  0
    8.0999  -13.0404   27.4189 C   0  0  0  0  0  0  0  0  0  0  0  0
    7.3842  -11.8934   27.6270 C   0  0  0  0  0  0  0  0  0  0  0  0
    6.2963  -11.6087   26.8043 C   0  0  0  0  0  0  0  0  0  0  0  0
    5.9393  -12.4701   25.7865 C   0  0  0  0  0  0  0  0  0  0  0  0
    6.6578  -13.6230   25.5747 C   0  0  0  0  0  0  0  0  0  0  0  0
    7.7387  -13.8950   26.4019 C   0  0  0  0  0  0  0  0  0  0  0  0
   10.0136  -18.0244   25.5202 C   0  0  0  0  0  0  0  0  0  0  0  0
   10.2961  -18.2520   26.8468 O   0  0  0  0  0  0  0  0  0  0  0  0
    9.8629  -18.9581   24.7182 O   0  0  0  0  0  0  0  0  0  0  0  0
  2  1  1  0
  3  2  2  0
  4  3  1  0
  5  4  2  0
  5 11  1  0
  6  5  1  0
  7  6  1  0
  7  8  1  6
  9 18  1  0
  9  7  1  0
 10  9  2  0
 11 12  2  0
 12  2  1  0
 14 13  1  1
 14 16  1  0
 15 14  1  0
 17 16  1  1
 17 18  1  0
 17 19  1  0
 19 21  1  0
 19 20  2  0
 21 22  1  0
 22 23  1  6
 22 33  1  0
 24 23  1  0
 25 24  2  0
 26 25  1  0
 27 26  1  0
 27 32  2  0
 28 27  1  0
 29 28  2  0
 29 30  1  0
 30 31  2  0
 31 32  1  0
 32 24  1  0
 33 34  1  0
 35 33  2  0
M  END
$$$$
