YLW.pdb
     RDKit          3D

 35 37  0  0  1  0  0  0  0  0999 V2000
    6.9879  -25.4151   22.9316 O   0  0  0  0  0  0  0  0  0  0  0  0
    7.5078  -24.1400   22.7126 C   0  0  0  0  0  0  0  0  0  0  0  0
    6.7197  -23.0389   23.0550 C   0  0  0  0  0  0  0  0  0  0  0  0
    7.2507  -21.7991   22.8303 C   0  0  0  0  0  0  0  0  0  0  0  0
    8.4982  -21.5888   22.2942 C   0  0  0  0  0  0  0  0  0  0  0  0
    9.0126  -20.2090   22.0691 C   0  0  0  0  0  0  0  0  0  0  0  0
    8.3949  -19.6643   20.8255 C   0  0  2  0  0  0  0  0  0  0  0  0
    8.8224  -20.4098   19.6437 N   0  0  0  0  0  0  0  0  0  0  0  0
    8.7116  -18.2442   20.6060 C   0  0  0  0  0  0  0  0  0  0  0  0
    9.4459  -17.8643   19.6488 O   0  0  0  0  0  0  0  0  0  0  0  0
    9.2774  -22.6789   21.9562 C   0  0  0  0  0  0  0  0  0  0  0  0
    8.7652  -23.9607   22.1732 C   0  0  0  0  0  0  0  0  0  0  0  0
    6.5761  -12.6799   21.4912 C   0  0  0  0  0  0  0  0  0  0  0  0
    7.8676  -13.4790   21.2198 C   0  0  2  0  0  0  0  0  0  0  0  0
    8.3412  -13.0737   19.8368 C   0  0  0  0  0  0  0  0  0  0  0  0
    7.4615  -14.9210   21.3122 C   0  0  0  0  0  0  0  0  0  0  0  0
    8.5602  -15.9087   21.3999 C   0  0  2  0  0  0  0  0  0  0  0  0
    8.1572  -17.2766   21.5127 N   0  0  0  0  0  0  0  0  0  0  0  0
    9.5451  -15.5718   22.4784 C   0  0  0  0  0  0  0  0  0  0  0  0
   10.2826  -14.5755   22.3303 O   0  0  0  0  0  0  0  0  0  0  0  0
    9.6506  -16.3591   23.6462 N   0  0  0  0  0  0  0  0  0  0  0  0
   10.6058  -16.0836   24.7038 C   0  0  1  0  0  0  0  0  0  0  0  0
   10.0970  -15.0586   25.6730 C   0  0  0  0  0  0  0  0  0  0  0  0
    8.6215  -15.0296   25.7505 C   0  0  0  0  0  0  0  0  0  0  0  0
    7.7048  -16.0417   25.5854 C   0  0  0  0  0  0  0  0  0  0  0  0
    6.4476  -15.5509   25.7478 N   0  0  0  0  0  0  0  0  0  0  0  0
    6.5184  -14.2479   26.0137 C   0  0  0  0  0  0  0  0  0  0  0  0
    5.5706  -13.2916   26.2553 C   0  0  0  0  0  0  0  0  0  0  0  0
    5.9713  -11.9803   26.5027 C   0  0  0  0  0  0  0  0  0  0  0  0
    7.3097  -11.6424   26.5071 C   0  0  0  0  0  0  0  0  0  0  0  0
    8.2641  -12.6021   26.2656 C   0  0  0  0  0  0  0  0  0  0  0  0
    7.8514  -13.9043   26.0197 C   0  0  0  0  0  0  0  0  0  0  0  0
   10.9452  -17.3123   25.4540 C   0  0  0  0  0  0  0  0  0  0  0  0
   12.0021  -17.2817   26.3335 O   0  0  0  0  0  0  0  0  0  0  0  0
   10.2755  -18.3410   25.2780 O   0  0  0  0  0  0  0  0  0  0  0  0
  2  1  1  0
  3  2  2  0
  4  3  1  0
  5  4  2  0
  5 11  1  0
  6  5  1  0
  7  6  1  0
  7  8  1  6
  9 18  1  0
  9  7  1  0
 10  9  2  0
 11 12  2  0
 12  2  1  0
 14 13  1  6
 14 16  1  0
 15 14  1  0
 17 16  1  1
 17 18  1  0
 17 19  1  0
 19 21  1  0
 19 20  2  0
 21 22  1  0
 22 23  1  1
 22 33  1  0
 24 23  1  0
 25 24  2  0
 26 25  1  0
 27 26  1  0
 27 32  2  0
 28 27  1  0
 29 28  2  0
 29 30  1  0
 30 31  2  0
 31 32  1  0
 32 24  1  0
 33 34  1  0
 35 33  2  0
M  END
$$$$
