YLW.pdb
     RDKit          3D

 35 37  0  0  1  0  0  0  0  0999 V2000
   10.3413  -23.3886   14.8865 O   0  0  0  0  0  0  0  0  0  0  0  0
   10.5412  -22.3850   15.8337 C   0  0  0  0  0  0  0  0  0  0  0  0
   11.3112  -22.6851   16.9596 C   0  0  0  0  0  0  0  0  0  0  0  0
   11.4926  -21.6852   17.8744 C   0  0  0  0  0  0  0  0  0  0  0  0
   10.9637  -20.4240   17.7416 C   0  0  0  0  0  0  0  0  0  0  0  0
   11.1951  -19.3828   18.7816 C   0  0  0  0  0  0  0  0  0  0  0  0
   10.8974  -18.0444   18.1943 C   0  0  2  0  0  0  0  0  0  0  0  0
   11.8267  -17.7133   17.1164 N   0  0  0  0  0  0  0  0  0  0  0  0
   10.9500  -16.9609   19.1884 C   0  0  0  0  0  0  0  0  0  0  0  0
   12.0456  -16.5410   19.6608 O   0  0  0  0  0  0  0  0  0  0  0  0
   10.2024  -20.1279   16.6269 C   0  0  0  0  0  0  0  0  0  0  0  0
    9.9977  -21.1270   15.6717 C   0  0  0  0  0  0  0  0  0  0  0  0
    8.5816  -12.9492   19.2310 C   0  0  0  0  0  0  0  0  0  0  0  0
    7.8222  -14.2193   19.6674 C   0  0  2  0  0  0  0  0  0  0  0  0
    6.3781  -13.8055   19.8785 C   0  0  0  0  0  0  0  0  0  0  0  0
    8.5039  -14.6688   20.9269 C   0  0  0  0  0  0  0  0  0  0  0  0
    9.7117  -15.5070   20.7571 C   0  0  2  0  0  0  0  0  0  0  0  0
    9.7111  -16.3724   19.6182 N   0  0  0  0  0  0  0  0  0  0  0  0
   10.0446  -16.2848   21.9943 C   0  0  0  0  0  0  0  0  0  0  0  0
    9.9088  -17.5257   21.9800 O   0  0  0  0  0  0  0  0  0  0  0  0
   10.5027  -15.6397   23.1642 N   0  0  0  0  0  0  0  0  0  0  0  0
    9.6334  -15.3089   24.2786 C   0  0  1  0  0  0  0  0  0  0  0  0
    8.3475  -14.6833   23.8269 C   0  0  0  0  0  0  0  0  0  0  0  0
    7.4031  -14.4534   24.9401 C   0  0  0  0  0  0  0  0  0  0  0  0
    6.4379  -15.2786   25.4688 C   0  0  0  0  0  0  0  0  0  0  0  0
    5.8044  -14.6449   26.4910 N   0  0  0  0  0  0  0  0  0  0  0  0
    6.3286  -13.4302   26.6436 C   0  0  0  0  0  0  0  0  0  0  0  0
    6.0648  -12.4011   27.5053 C   0  0  0  0  0  0  0  0  0  0  0  0
    6.8027  -11.2232   27.4084 C   0  0  0  0  0  0  0  0  0  0  0  0
    7.7926  -11.0894   26.4557 C   0  0  0  0  0  0  0  0  0  0  0  0
    8.0602  -12.1227   25.5892 C   0  0  0  0  0  0  0  0  0  0  0  0
    7.3173  -13.2902   25.6960 C   0  0  0  0  0  0  0  0  0  0  0  0
    9.3154  -16.5071   25.0853 C   0  0  0  0  0  0  0  0  0  0  0  0
    9.4179  -17.7473   24.4998 O   0  0  0  0  0  0  0  0  0  0  0  0
    8.9646  -16.3733   26.2672 O   0  0  0  0  0  0  0  0  0  0  0  0
  2  1  1  0
  3  2  2  0
  4  3  1  0
  5  4  2  0
  5 11  1  0
  6  5  1  0
  7  6  1  0
  7  8  1  6
  9 18  1  0
  9  7  1  0
 10  9  2  0
 11 12  2  0
 12  2  1  0
 14 13  1  1
 14 16  1  0
 15 14  1  0
 17 16  1  1
 17 18  1  0
 17 19  1  0
 19 21  1  0
 19 20  2  0
 21 22  1  0
 22 23  1  6
 22 33  1  0
 24 23  1  0
 25 24  2  0
 26 25  1  0
 27 26  1  0
 27 32  2  0
 28 27  1  0
 29 28  2  0
 29 30  1  0
 30 31  2  0
 31 32  1  0
 32 24  1  0
 33 34  1  0
 35 33  2  0
M  END
$$$$
