YLW.pdb
     RDKit          3D

 35 37  0  0  1  0  0  0  0  0999 V2000
   10.0681  -25.3894   19.9265 O   0  0  0  0  0  0  0  0  0  0  0  0
   10.2030  -24.0609   20.3279 C   0  0  0  0  0  0  0  0  0  0  0  0
    9.0897  -23.2241   20.2224 C   0  0  0  0  0  0  0  0  0  0  0  0
    9.2466  -21.9257   20.6215 C   0  0  0  0  0  0  0  0  0  0  0  0
   10.4243  -21.4149   21.1116 C   0  0  0  0  0  0  0  0  0  0  0  0
   10.5277  -19.9866   21.5219 C   0  0  0  0  0  0  0  0  0  0  0  0
   10.1909  -19.1261   20.3511 C   0  0  2  0  0  0  0  0  0  0  0  0
   11.0321  -19.4373   19.1975 N   0  0  0  0  0  0  0  0  0  0  0  0
   10.3294  -17.6900   20.6401 C   0  0  0  0  0  0  0  0  0  0  0  0
   11.3804  -17.0490   20.3498 O   0  0  0  0  0  0  0  0  0  0  0  0
   11.5251  -22.2438   21.2160 C   0  0  0  0  0  0  0  0  0  0  0  0
   11.3990  -23.5771   20.8173 C   0  0  0  0  0  0  0  0  0  0  0  0
    6.7343  -12.8298   21.3720 C   0  0  0  0  0  0  0  0  0  0  0  0
    8.1633  -13.3611   21.6086 C   0  0  2  0  0  0  0  0  0  0  0  0
    9.0730  -12.5743   20.6843 C   0  0  0  0  0  0  0  0  0  0  0  0
    8.0963  -14.8234   21.2766 C   0  0  0  0  0  0  0  0  0  0  0  0
    9.3267  -15.6092   21.5193 C   0  0  2  0  0  0  0  0  0  0  0  0
    9.2263  -17.0134   21.2654 N   0  0  0  0  0  0  0  0  0  0  0  0
    9.8940  -15.3727   22.8863 C   0  0  0  0  0  0  0  0  0  0  0  0
   10.5292  -14.3196   23.1007 O   0  0  0  0  0  0  0  0  0  0  0  0
    9.7237  -16.3162   23.9235 N   0  0  0  0  0  0  0  0  0  0  0  0
   10.4861  -16.2825   25.1581 C   0  0  1  0  0  0  0  0  0  0  0  0
    9.6267  -15.9658   26.3456 C   0  0  0  0  0  0  0  0  0  0  0  0
    8.2195  -15.7043   25.9778 C   0  0  0  0  0  0  0  0  0  0  0  0
    7.2836  -16.5342   25.4057 C   0  0  0  0  0  0  0  0  0  0  0  0
    6.1123  -15.8626   25.2478 N   0  0  0  0  0  0  0  0  0  0  0  0
    6.2580  -14.6185   25.7002 C   0  0  0  0  0  0  0  0  0  0  0  0
    5.4108  -13.5471   25.7746 C   0  0  0  0  0  0  0  0  0  0  0  0
    5.8733  -12.3468   26.3102 C   0  0  0  0  0  0  0  0  0  0  0  0
    7.1718  -12.2331   26.7645 C   0  0  0  0  0  0  0  0  0  0  0  0
    8.0248  -13.3089   26.6917 C   0  0  0  0  0  0  0  0  0  0  0  0
    7.5516  -14.4984   26.1553 C   0  0  0  0  0  0  0  0  0  0  0  0
   11.1690  -17.5716   25.4026 C   0  0  0  0  0  0  0  0  0  0  0  0
   12.0037  -17.6842   26.4898 O   0  0  0  0  0  0  0  0  0  0  0  0
   10.9781  -18.5214   24.6284 O   0  0  0  0  0  0  0  0  0  0  0  0
  2  1  1  0
  3  2  2  0
  4  3  1  0
  5  4  2  0
  5 11  1  0
  6  5  1  0
  7  6  1  0
  7  8  1  6
  9 18  1  0
  9  7  1  0
 10  9  2  0
 11 12  2  0
 12  2  1  0
 14 13  1  6
 14 16  1  0
 15 14  1  0
 17 16  1  1
 17 18  1  0
 17 19  1  0
 19 21  1  0
 19 20  2  0
 21 22  1  0
 22 23  1  1
 22 33  1  0
 24 23  1  0
 25 24  2  0
 26 25  1  0
 27 26  1  0
 27 32  2  0
 28 27  1  0
 29 28  2  0
 29 30  1  0
 30 31  2  0
 31 32  1  0
 32 24  1  0
 33 34  1  0
 35 33  2  0
M  END
$$$$
