YLW.pdb
     RDKit          3D

 35 37  0  0  1  0  0  0  0  0999 V2000
   12.6517  -21.5291   14.0589 O   0  0  0  0  0  0  0  0  0  0  0  0
   12.5190  -20.8209   15.2527 C   0  0  0  0  0  0  0  0  0  0  0  0
   11.2728  -20.8192   15.8831 C   0  0  0  0  0  0  0  0  0  0  0  0
   11.1672  -20.1174   17.0519 C   0  0  0  0  0  0  0  0  0  0  0  0
   12.2082  -19.4271   17.6244 C   0  0  0  0  0  0  0  0  0  0  0  0
   12.0213  -18.6764   18.8974 C   0  0  0  0  0  0  0  0  0  0  0  0
   11.4909  -17.3189   18.5798 C   0  0  2  0  0  0  0  0  0  0  0  0
   12.4593  -16.5287   17.8229 N   0  0  0  0  0  0  0  0  0  0  0  0
   11.1218  -16.5551   19.7820 C   0  0  0  0  0  0  0  0  0  0  0  0
   11.9819  -15.9262   20.4635 O   0  0  0  0  0  0  0  0  0  0  0  0
   13.4410  -19.4297   17.0000 C   0  0  0  0  0  0  0  0  0  0  0  0
   13.5838  -20.1377   15.8039 C   0  0  0  0  0  0  0  0  0  0  0  0
    8.2492  -13.0812   20.1302 C   0  0  0  0  0  0  0  0  0  0  0  0
    7.5408  -14.4458   20.0030 C   0  0  2  0  0  0  0  0  0  0  0  0
    6.0536  -14.1537   19.9381 C   0  0  0  0  0  0  0  0  0  0  0  0
    7.9451  -15.2117   21.2290 C   0  0  0  0  0  0  0  0  0  0  0  0
    9.3417  -15.6998   21.2679 C   0  0  2  0  0  0  0  0  0  0  0  0
    9.7390  -16.5309   20.1735 N   0  0  0  0  0  0  0  0  0  0  0  0
    9.6770  -16.3659   22.5681 C   0  0  0  0  0  0  0  0  0  0  0  0
    9.8816  -17.5974   22.5784 O   0  0  0  0  0  0  0  0  0  0  0  0
    9.7613  -15.6276   23.7692 N   0  0  0  0  0  0  0  0  0  0  0  0
    9.9914  -16.2436   25.0632 C   0  0  1  0  0  0  0  0  0  0  0  0
    9.6910  -15.3085   26.1965 C   0  0  0  0  0  0  0  0  0  0  0  0
    8.3267  -14.7452   26.1250 C   0  0  0  0  0  0  0  0  0  0  0  0
    7.1156  -15.3740   25.9522 C   0  0  0  0  0  0  0  0  0  0  0  0
    6.1174  -14.4513   25.9494 N   0  0  0  0  0  0  0  0  0  0  0  0
    6.6431  -13.2388   26.1150 C   0  0  0  0  0  0  0  0  0  0  0  0
    6.0976  -11.9863   26.1837 C   0  0  0  0  0  0  0  0  0  0  0  0
    6.9338  -10.8863   26.3630 C   0  0  0  0  0  0  0  0  0  0  0  0
    8.2999  -11.0513   26.4724 C   0  0  0  0  0  0  0  0  0  0  0  0
    8.8503  -12.3093   26.4047 C   0  0  0  0  0  0  0  0  0  0  0  0
    8.0062  -13.3964   26.2251 C   0  0  0  0  0  0  0  0  0  0  0  0
    9.1717  -17.4634   25.2303 C   0  0  0  0  0  0  0  0  0  0  0  0
    8.1326  -17.6889   24.3581 O   0  0  0  0  0  0  0  0  0  0  0  0
    9.4342  -18.2558   26.1474 O   0  0  0  0  0  0  0  0  0  0  0  0
  2  1  1  0
  3  2  2  0
  4  3  1  0
  5  4  2  0
  5 11  1  0
  6  5  1  0
  7  6  1  0
  7  8  1  1
  9 18  1  0
  9  7  1  0
 10  9  2  0
 11 12  2  0
 12  2  1  0
 14 13  1  1
 14 16  1  0
 15 14  1  0
 17 16  1  1
 17 18  1  0
 17 19  1  0
 19 21  1  0
 19 20  2  0
 21 22  1  0
 22 23  1  1
 22 33  1  0
 24 23  1  0
 25 24  2  0
 26 25  1  0
 27 26  1  0
 27 32  2  0
 28 27  1  0
 29 28  2  0
 29 30  1  0
 30 31  2  0
 31 32  1  0
 32 24  1  0
 33 34  1  0
 35 33  2  0
M  END
$$$$
