YLW.pdb
     RDKit          3D

 35 37  0  0  1  0  0  0  0  0999 V2000
    3.9469  -23.7393   24.5714 O   0  0  0  0  0  0  0  0  0  0  0  0
    4.9075  -22.7984   24.2024 C   0  0  0  0  0  0  0  0  0  0  0  0
    6.2269  -23.2293   24.0474 C   0  0  0  0  0  0  0  0  0  0  0  0
    7.1509  -22.2885   23.6858 C   0  0  0  0  0  0  0  0  0  0  0  0
    6.8492  -20.9651   23.4719 C   0  0  0  0  0  0  0  0  0  0  0  0
    7.9079  -19.9907   23.0863 C   0  0  0  0  0  0  0  0  0  0  0  0
    7.6841  -19.5749   21.6715 C   0  0  2  0  0  0  0  0  0  0  0  0
    7.9238  -20.6784   20.7441 N   0  0  0  0  0  0  0  0  0  0  0  0
    8.5382  -18.4473   21.2665 C   0  0  0  0  0  0  0  0  0  0  0  0
    9.5844  -18.6167   20.5761 O   0  0  0  0  0  0  0  0  0  0  0  0
    5.5433  -20.5399   23.6250 C   0  0  0  0  0  0  0  0  0  0  0  0
    4.5735  -21.4759   23.9935 C   0  0  0  0  0  0  0  0  0  0  0  0
    6.1922  -15.2903   21.3027 C   0  0  0  0  0  0  0  0  0  0  0  0
    7.3001  -14.2454   21.5496 C   0  0  2  0  0  0  0  0  0  0  0  0
    6.8225  -12.9539   20.9131 C   0  0  0  0  0  0  0  0  0  0  0  0
    8.5262  -14.8142   20.8967 C   0  0  0  0  0  0  0  0  0  0  0  0
    9.0796  -16.0472   21.4997 C   0  0  2  0  0  0  0  0  0  0  0  0
    8.1531  -17.1233   21.6722 N   0  0  0  0  0  0  0  0  0  0  0  0
    9.8016  -15.7788   22.7855 C   0  0  0  0  0  0  0  0  0  0  0  0
   10.6966  -14.9086   22.8031 O   0  0  0  0  0  0  0  0  0  0  0  0
    9.4882  -16.4909   23.9642 N   0  0  0  0  0  0  0  0  0  0  0  0
   10.2094  -16.3150   25.2115 C   0  0  1  0  0  0  0  0  0  0  0  0
    9.2882  -16.2435   26.3927 C   0  0  0  0  0  0  0  0  0  0  0  0
    8.1229  -15.3663   26.1551 C   0  0  0  0  0  0  0  0  0  0  0  0
    6.8455  -15.6785   25.7518 C   0  0  0  0  0  0  0  0  0  0  0  0
    6.1029  -14.5433   25.6651 N   0  0  0  0  0  0  0  0  0  0  0  0
    6.8596  -13.4998   25.9999 C   0  0  0  0  0  0  0  0  0  0  0  0
    6.6153  -12.1562   26.0779 C   0  0  0  0  0  0  0  0  0  0  0  0
    7.6414  -11.2969   26.4654 C   0  0  0  0  0  0  0  0  0  0  0  0
    8.8942  -11.7896   26.7705 C   0  0  0  0  0  0  0  0  0  0  0  0
    9.1419  -13.1398   26.6939 C   0  0  0  0  0  0  0  0  0  0  0  0
    8.1112  -13.9846   26.3058 C   0  0  0  0  0  0  0  0  0  0  0  0
   11.1739  -17.4141   25.4335 C   0  0  0  0  0  0  0  0  0  0  0  0
   11.1865  -18.4728   24.5557 O   0  0  0  0  0  0  0  0  0  0  0  0
   11.9490  -17.3619   26.4001 O   0  0  0  0  0  0  0  0  0  0  0  0
  2  1  1  0
  3  2  2  0
  4  3  1  0
  5  4  2  0
  5 11  1  0
  6  5  1  0
  7  6  1  0
  7  8  1  6
  9 18  1  0
  9  7  1  0
 10  9  2  0
 11 12  2  0
 12  2  1  0
 14 13  1  6
 14 16  1  0
 15 14  1  0
 17 16  1  1
 17 18  1  0
 17 19  1  0
 19 21  1  0
 19 20  2  0
 21 22  1  0
 22 23  1  1
 22 33  1  0
 24 23  1  0
 25 24  2  0
 26 25  1  0
 27 26  1  0
 27 32  2  0
 28 27  1  0
 29 28  2  0
 29 30  1  0
 30 31  2  0
 31 32  1  0
 32 24  1  0
 33 34  1  0
 35 33  2  0
M  END
$$$$
