YLW.pdb
     RDKit          3D

 35 37  0  0  1  0  0  0  0  0999 V2000
   12.8008  -23.6666   17.0847 O   0  0  0  0  0  0  0  0  0  0  0  0
   12.6202  -22.3648   17.5505 C   0  0  0  0  0  0  0  0  0  0  0  0
   13.6600  -21.4500   17.3704 C   0  0  0  0  0  0  0  0  0  0  0  0
   13.4598  -20.1800   17.8359 C   0  0  0  0  0  0  0  0  0  0  0  0
   12.3069  -19.7690   18.4605 C   0  0  0  0  0  0  0  0  0  0  0  0
   12.1581  -18.3701   18.9504 C   0  0  0  0  0  0  0  0  0  0  0  0
   11.4811  -18.3973   20.2792 C   0  0  2  0  0  0  0  0  0  0  0  0
   10.1990  -19.0954   20.2134 N   0  0  0  0  0  0  0  0  0  0  0  0
   11.2383  -17.0519   20.8232 C   0  0  0  0  0  0  0  0  0  0  0  0
   12.1736  -16.2138   20.9733 O   0  0  0  0  0  0  0  0  0  0  0  0
   11.2784  -20.6748   18.6378 C   0  0  0  0  0  0  0  0  0  0  0  0
   11.4499  -21.9814   18.1732 C   0  0  0  0  0  0  0  0  0  0  0  0
    6.5655  -13.1361   21.2148 C   0  0  0  0  0  0  0  0  0  0  0  0
    7.9938  -13.4267   21.7204 C   0  0  2  0  0  0  0  0  0  0  0  0
    8.8978  -12.3968   21.0698 C   0  0  0  0  0  0  0  0  0  0  0  0
    8.2835  -14.8339   21.2855 C   0  0  0  0  0  0  0  0  0  0  0  0
    9.6213  -15.3654   21.6290 C   0  0  2  0  0  0  0  0  0  0  0  0
    9.8928  -16.6973   21.1834 N   0  0  0  0  0  0  0  0  0  0  0  0
    9.9267  -15.2397   23.0910 C   0  0  0  0  0  0  0  0  0  0  0  0
   10.3110  -14.1372   23.5331 O   0  0  0  0  0  0  0  0  0  0  0  0
    9.7895  -16.3403   23.9655 N   0  0  0  0  0  0  0  0  0  0  0  0
   10.3728  -16.3739   25.2942 C   0  0  1  0  0  0  0  0  0  0  0  0
    9.8071  -15.3106   26.1877 C   0  0  0  0  0  0  0  0  0  0  0  0
    8.3294  -15.2918   26.1873 C   0  0  0  0  0  0  0  0  0  0  0  0
    7.4300  -16.2875   25.8844 C   0  0  0  0  0  0  0  0  0  0  0  0
    6.1624  -15.8158   26.0210 N   0  0  0  0  0  0  0  0  0  0  0  0
    6.2097  -14.5411   26.4038 C   0  0  0  0  0  0  0  0  0  0  0  0
    5.2437  -13.6120   26.6768 C   0  0  0  0  0  0  0  0  0  0  0  0
    5.6212  -12.3267   27.0599 C   0  0  0  0  0  0  0  0  0  0  0  0
    6.9551  -11.9875   27.1664 C   0  0  0  0  0  0  0  0  0  0  0  0
    7.9278  -12.9200   26.8936 C   0  0  0  0  0  0  0  0  0  0  0  0
    7.5380  -14.1964   26.5123 C   0  0  0  0  0  0  0  0  0  0  0  0
   10.1648  -17.6889   25.9385 C   0  0  0  0  0  0  0  0  0  0  0  0
   10.8071  -17.9550   27.1252 O   0  0  0  0  0  0  0  0  0  0  0  0
    9.4201  -18.5224   25.4013 O   0  0  0  0  0  0  0  0  0  0  0  0
  2  1  1  0
  3  2  2  0
  4  3  1  0
  5  4  2  0
  5 11  1  0
  6  5  1  0
  7  6  1  0
  7  8  1  6
  9 18  1  0
  9  7  1  0
 10  9  2  0
 11 12  2  0
 12  2  1  0
 14 13  1  6
 14 16  1  0
 15 14  1  0
 17 16  1  1
 17 18  1  0
 17 19  1  0
 19 21  1  0
 19 20  2  0
 21 22  1  0
 22 23  1  1
 22 33  1  0
 24 23  1  0
 25 24  2  0
 26 25  1  0
 27 26  1  0
 27 32  2  0
 28 27  1  0
 29 28  2  0
 29 30  1  0
 30 31  2  0
 31 32  1  0
 32 24  1  0
 33 34  1  0
 35 33  2  0
M  END
$$$$
