YLW.pdb
     RDKit          3D

 35 37  0  0  1  0  0  0  0  0999 V2000
   10.1991  -24.2131   17.1044 O   0  0  0  0  0  0  0  0  0  0  0  0
   10.2388  -23.0857   17.9239 C   0  0  0  0  0  0  0  0  0  0  0  0
   11.4714  -22.4608   18.1261 C   0  0  0  0  0  0  0  0  0  0  0  0
   11.4852  -21.3577   18.9340 C   0  0  0  0  0  0  0  0  0  0  0  0
   10.3663  -20.8449   19.5447 C   0  0  0  0  0  0  0  0  0  0  0  0
   10.4543  -19.6424   20.4196 C   0  0  0  0  0  0  0  0  0  0  0  0
   10.2706  -18.4239   19.5791 C   0  0  2  0  0  0  0  0  0  0  0  0
   11.3403  -18.2866   18.5931 N   0  0  0  0  0  0  0  0  0  0  0  0
   10.2224  -17.1857   20.3725 C   0  0  0  0  0  0  0  0  0  0  0  0
   11.2693  -16.5388   20.6645 O   0  0  0  0  0  0  0  0  0  0  0  0
    9.1471  -21.4637   19.3437 C   0  0  0  0  0  0  0  0  0  0  0  0
    9.0973  -22.5934   18.5229 C   0  0  0  0  0  0  0  0  0  0  0  0
    9.0730  -12.3208   20.3892 C   0  0  0  0  0  0  0  0  0  0  0  0
    8.6328  -13.5883   19.6276 C   0  0  2  0  0  0  0  0  0  0  0  0
    7.6921  -13.1259   18.5310 C   0  0  0  0  0  0  0  0  0  0  0  0
    7.9674  -14.4524   20.6589 C   0  0  0  0  0  0  0  0  0  0  0  0
    8.8412  -15.4025   21.3828 C   0  0  2  0  0  0  0  0  0  0  0  0
    8.9395  -16.7115   20.8145 N   0  0  0  0  0  0  0  0  0  0  0  0
    8.4971  -15.4981   22.8385 C   0  0  0  0  0  0  0  0  0  0  0  0
    7.6726  -14.6918   23.3164 O   0  0  0  0  0  0  0  0  0  0  0  0
    9.0885  -16.4760   23.6684 N   0  0  0  0  0  0  0  0  0  0  0  0
   10.0010  -16.1510   24.7494 C   0  0  1  0  0  0  0  0  0  0  0  0
    9.7057  -14.8117   25.3559 C   0  0  0  0  0  0  0  0  0  0  0  0
    8.2793  -14.6453   25.7045 C   0  0  0  0  0  0  0  0  0  0  0  0
    7.2416  -15.5465   25.6480 C   0  0  0  0  0  0  0  0  0  0  0  0
    6.0947  -14.9504   26.0686 N   0  0  0  0  0  0  0  0  0  0  0  0
    6.3547  -13.6863   26.3973 C   0  0  0  0  0  0  0  0  0  0  0  0
    5.5759  -12.6649   26.8676 C   0  0  0  0  0  0  0  0  0  0  0  0
    6.1563  -11.4232   27.1182 C   0  0  0  0  0  0  0  0  0  0  0  0
    7.5035  -11.2189   26.8977 C   0  0  0  0  0  0  0  0  0  0  0  0
    8.2886  -12.2443   26.4261 C   0  0  0  0  0  0  0  0  0  0  0  0
    7.6977  -13.4759   26.1799 C   0  0  0  0  0  0  0  0  0  0  0  0
    9.9523  -17.1722   25.8183 C   0  0  0  0  0  0  0  0  0  0  0  0
   10.8940  -17.1296   26.8196 O   0  0  0  0  0  0  0  0  0  0  0  0
    9.0693  -18.0426   25.7930 O   0  0  0  0  0  0  0  0  0  0  0  0
  2  1  1  0
  3  2  2  0
  4  3  1  0
  5  4  2  0
  5 11  1  0
  6  5  1  0
  7  6  1  0
  7  8  1  6
  9 18  1  0
  9  7  1  0
 10  9  2  0
 11 12  2  0
 12  2  1  0
 14 13  1  1
 14 16  1  0
 15 14  1  0
 17 16  1  6
 17 18  1  0
 17 19  1  0
 19 21  1  0
 19 20  2  0
 21 22  1  0
 22 23  1  1
 22 33  1  0
 24 23  1  0
 25 24  2  0
 26 25  1  0
 27 26  1  0
 27 32  2  0
 28 27  1  0
 29 28  2  0
 29 30  1  0
 30 31  2  0
 31 32  1  0
 32 24  1  0
 33 34  1  0
 35 33  2  0
M  END
$$$$
