YLW.pdb
     RDKit          3D

 35 37  0  0  1  0  0  0  0  0999 V2000
    7.4918  -25.5602   22.7396 O   0  0  0  0  0  0  0  0  0  0  0  0
    7.9481  -24.2434   22.6951 C   0  0  0  0  0  0  0  0  0  0  0  0
    7.0133  -23.2288   22.4771 C   0  0  0  0  0  0  0  0  0  0  0  0
    7.4847  -21.9459   22.4370 C   0  0  0  0  0  0  0  0  0  0  0  0
    8.8083  -21.6137   22.5974 C   0  0  0  0  0  0  0  0  0  0  0  0
    9.2548  -20.1939   22.5348 C   0  0  0  0  0  0  0  0  0  0  0  0
    9.1097  -19.7075   21.1322 C   0  0  2  0  0  0  0  0  0  0  0  0
   10.0164  -20.4080   20.2254 N   0  0  0  0  0  0  0  0  0  0  0  0
    9.3611  -18.2637   21.0004 C   0  0  0  0  0  0  0  0  0  0  0  0
   10.4527  -17.8151   20.5457 O   0  0  0  0  0  0  0  0  0  0  0  0
    9.7323  -22.6183   22.8135 C   0  0  0  0  0  0  0  0  0  0  0  0
    9.2842  -23.9409   22.8609 C   0  0  0  0  0  0  0  0  0  0  0  0
    6.3610  -12.9206   20.9193 C   0  0  0  0  0  0  0  0  0  0  0  0
    7.7374  -13.5900   21.1139 C   0  0  2  0  0  0  0  0  0  0  0  0
    8.6058  -13.1310   19.9580 C   0  0  0  0  0  0  0  0  0  0  0  0
    7.4596  -15.0651   21.1020 C   0  0  0  0  0  0  0  0  0  0  0  0
    8.6002  -15.9510   21.4251 C   0  0  2  0  0  0  0  0  0  0  0  0
    8.3225  -17.3540   21.4000 N   0  0  0  0  0  0  0  0  0  0  0  0
    9.2616  -15.5805   22.7181 C   0  0  0  0  0  0  0  0  0  0  0  0
    9.8019  -14.4595   22.8184 O   0  0  0  0  0  0  0  0  0  0  0  0
    9.2837  -16.4735   23.8121 N   0  0  0  0  0  0  0  0  0  0  0  0
    9.9335  -16.1658   25.0730 C   0  0  1  0  0  0  0  0  0  0  0  0
    8.9643  -16.1368   26.2169 C   0  0  0  0  0  0  0  0  0  0  0  0
    7.8136  -15.2437   25.9672 C   0  0  0  0  0  0  0  0  0  0  0  0
    6.5595  -15.5286   25.4795 C   0  0  0  0  0  0  0  0  0  0  0  0
    5.8230  -14.3878   25.4173 N   0  0  0  0  0  0  0  0  0  0  0  0
    6.5612  -13.3673   25.8500 C   0  0  0  0  0  0  0  0  0  0  0  0
    6.3135  -12.0293   25.9902 C   0  0  0  0  0  0  0  0  0  0  0  0
    7.3177  -11.1966   26.4795 C   0  0  0  0  0  0  0  0  0  0  0  0
    8.5523  -11.7099   26.8228 C   0  0  0  0  0  0  0  0  0  0  0  0
    8.8032  -13.0544   26.6838 C   0  0  0  0  0  0  0  0  0  0  0  0
    7.7944  -13.8727   26.1945 C   0  0  0  0  0  0  0  0  0  0  0  0
   10.9966  -17.1467   25.3823 C   0  0  0  0  0  0  0  0  0  0  0  0
   11.7934  -16.9360   26.4832 O   0  0  0  0  0  0  0  0  0  0  0  0
   11.1494  -18.1348   24.6488 O   0  0  0  0  0  0  0  0  0  0  0  0
  2  1  1  0
  3  2  2  0
  4  3  1  0
  5  4  2  0
  5 11  1  0
  6  5  1  0
  7  6  1  0
  7  8  1  6
  9 18  1  0
  9  7  1  0
 10  9  2  0
 11 12  2  0
 12  2  1  0
 14 13  1  6
 14 16  1  0
 15 14  1  0
 17 16  1  1
 17 18  1  0
 17 19  1  0
 19 21  1  0
 19 20  2  0
 21 22  1  0
 22 23  1  1
 22 33  1  0
 24 23  1  0
 25 24  2  0
 26 25  1  0
 27 26  1  0
 27 32  2  0
 28 27  1  0
 29 28  2  0
 29 30  1  0
 30 31  2  0
 31 32  1  0
 32 24  1  0
 33 34  1  0
 35 33  2  0
M  END
$$$$
