YLW.pdb
     RDKit          3D

 35 37  0  0  1  0  0  0  0  0999 V2000
    8.0393  -24.9474   19.9562 O   0  0  0  0  0  0  0  0  0  0  0  0
    8.5069  -23.6975   20.3605 C   0  0  0  0  0  0  0  0  0  0  0  0
    9.8866  -23.5168   20.4799 C   0  0  0  0  0  0  0  0  0  0  0  0
   10.3209  -22.2830   20.8784 C   0  0  0  0  0  0  0  0  0  0  0  0
    9.4811  -21.2330   21.1616 C   0  0  0  0  0  0  0  0  0  0  0  0
   10.0222  -19.9156   21.5984 C   0  0  0  0  0  0  0  0  0  0  0  0
    9.5820  -18.8714   20.6285 C   0  0  2  0  0  0  0  0  0  0  0  0
   10.1529  -19.0968   19.3024 N   0  0  0  0  0  0  0  0  0  0  0  0
    9.9435  -17.5098   21.0533 C   0  0  0  0  0  0  0  0  0  0  0  0
   11.1158  -17.0561   20.9136 O   0  0  0  0  0  0  0  0  0  0  0  0
    8.1161  -21.4127   21.0427 C   0  0  0  0  0  0  0  0  0  0  0  0
    7.6383  -22.6615   20.6369 C   0  0  0  0  0  0  0  0  0  0  0  0
    8.5732  -13.5418   19.5208 C   0  0  0  0  0  0  0  0  0  0  0  0
    7.5492  -14.3127   20.3796 C   0  0  2  0  0  0  0  0  0  0  0  0
    6.2510  -13.5316   20.3049 C   0  0  0  0  0  0  0  0  0  0  0  0
    8.1441  -14.3502   21.7572 C   0  0  0  0  0  0  0  0  0  0  0  0
    9.2296  -15.3317   21.9776 C   0  0  2  0  0  0  0  0  0  0  0  0
    8.9201  -16.6859   21.6364 N   0  0  0  0  0  0  0  0  0  0  0  0
    9.7846  -15.2654   23.3683 C   0  0  0  0  0  0  0  0  0  0  0  0
   10.4357  -14.2563   23.7092 O   0  0  0  0  0  0  0  0  0  0  0  0
    9.5852  -16.3189   24.2877 N   0  0  0  0  0  0  0  0  0  0  0  0
   10.1382  -16.3145   25.6297 C   0  0  1  0  0  0  0  0  0  0  0  0
    9.0770  -16.4574   26.6796 C   0  0  0  0  0  0  0  0  0  0  0  0
    7.9100  -15.5847   26.4337 C   0  0  0  0  0  0  0  0  0  0  0  0
    6.6629  -15.8898   25.9402 C   0  0  0  0  0  0  0  0  0  0  0  0
    5.9047  -14.7630   25.8848 N   0  0  0  0  0  0  0  0  0  0  0  0
    6.6218  -13.7319   26.3278 C   0  0  0  0  0  0  0  0  0  0  0  0
    6.3480  -12.4002   26.4779 C   0  0  0  0  0  0  0  0  0  0  0  0
    7.3346  -11.5521   26.9767 C   0  0  0  0  0  0  0  0  0  0  0  0
    8.5779  -12.0442   27.3194 C   0  0  0  0  0  0  0  0  0  0  0  0
    8.8551  -13.3825   27.1705 C   0  0  0  0  0  0  0  0  0  0  0  0
    7.8637  -14.2161   26.6718 C   0  0  0  0  0  0  0  0  0  0  0  0
   11.1246  -17.4022   25.8073 C   0  0  0  0  0  0  0  0  0  0  0  0
   11.7936  -17.5020   27.0047 O   0  0  0  0  0  0  0  0  0  0  0  0
   11.3295  -18.1996   24.8799 O   0  0  0  0  0  0  0  0  0  0  0  0
  2  1  1  0
  3  2  2  0
  4  3  1  0
  5  4  2  0
  5 11  1  0
  6  5  1  0
  7  6  1  0
  7  8  1  6
  9 18  1  0
  9  7  1  0
 10  9  2  0
 11 12  2  0
 12  2  1  0
 14 13  1  6
 14 16  1  0
 15 14  1  0
 17 16  1  1
 17 18  1  0
 17 19  1  0
 19 21  1  0
 19 20  2  0
 21 22  1  0
 22 23  1  1
 22 33  1  0
 24 23  1  0
 25 24  2  0
 26 25  1  0
 27 26  1  0
 27 32  2  0
 28 27  1  0
 29 28  2  0
 29 30  1  0
 30 31  2  0
 31 32  1  0
 32 24  1  0
 33 34  1  0
 35 33  2  0
M  END
$$$$
