YLW.pdb
     RDKit          3D

 35 37  0  0  1  0  0  0  0  0999 V2000
    6.7710  -24.4751   19.7039 O   0  0  0  0  0  0  0  0  0  0  0  0
    7.3548  -23.2831   20.1312 C   0  0  0  0  0  0  0  0  0  0  0  0
    8.7274  -23.2768   20.3895 C   0  0  0  0  0  0  0  0  0  0  0  0
    9.2768  -22.0966   20.8079 C   0  0  0  0  0  0  0  0  0  0  0  0
    8.5571  -20.9394   20.9832 C   0  0  0  0  0  0  0  0  0  0  0  0
    9.2190  -19.6889   21.4493 C   0  0  0  0  0  0  0  0  0  0  0  0
    9.2451  -18.7119   20.3224 C   0  0  2  0  0  0  0  0  0  0  0  0
   10.0534  -19.2010   19.2077 N   0  0  0  0  0  0  0  0  0  0  0  0
    9.7692  -17.3959   20.7205 C   0  0  0  0  0  0  0  0  0  0  0  0
   10.9474  -17.0332   20.4377 O   0  0  0  0  0  0  0  0  0  0  0  0
    7.1991  -20.9466   20.7270 C   0  0  0  0  0  0  0  0  0  0  0  0
    6.6056  -22.1363   20.2971 C   0  0  0  0  0  0  0  0  0  0  0  0
    8.7142  -13.5595   19.2226 C   0  0  0  0  0  0  0  0  0  0  0  0
    7.6849  -14.0975   20.2382 C   0  0  2  0  0  0  0  0  0  0  0  0
    6.5027  -13.1479   20.1960 C   0  0  0  0  0  0  0  0  0  0  0  0
    8.4015  -14.0993   21.5571 C   0  0  0  0  0  0  0  0  0  0  0  0
    9.3666  -15.1991   21.7789 C   0  0  2  0  0  0  0  0  0  0  0  0
    8.9006  -16.5099   21.4461 N   0  0  0  0  0  0  0  0  0  0  0  0
    9.9313  -15.1908   23.1673 C   0  0  0  0  0  0  0  0  0  0  0  0
   10.5668  -14.1878   23.5527 O   0  0  0  0  0  0  0  0  0  0  0  0
    9.7582  -16.2916   24.0352 N   0  0  0  0  0  0  0  0  0  0  0  0
   10.1809  -16.2797   25.4237 C   0  0  1  0  0  0  0  0  0  0  0  0
    9.0801  -16.6944   26.3539 C   0  0  0  0  0  0  0  0  0  0  0  0
    7.8215  -15.9587   26.1124 C   0  0  0  0  0  0  0  0  0  0  0  0
    6.6299  -16.3913   25.5786 C   0  0  0  0  0  0  0  0  0  0  0  0
    5.7427  -15.3619   25.5464 N   0  0  0  0  0  0  0  0  0  0  0  0
    6.3219  -14.2705   26.0435 C   0  0  0  0  0  0  0  0  0  0  0  0
    5.8869  -12.9879   26.2354 C   0  0  0  0  0  0  0  0  0  0  0  0
    6.7545  -12.0480   26.7879 C   0  0  0  0  0  0  0  0  0  0  0  0
    8.0412  -12.4009   27.1419 C   0  0  0  0  0  0  0  0  0  0  0  0
    8.4804  -13.6896   26.9510 C   0  0  0  0  0  0  0  0  0  0  0  0
    7.6062  -14.6157   26.3989 C   0  0  0  0  0  0  0  0  0  0  0  0
   11.3402  -17.1726   25.6396 C   0  0  0  0  0  0  0  0  0  0  0  0
   11.8066  -17.9208   24.5841 O   0  0  0  0  0  0  0  0  0  0  0  0
   11.8675  -17.2302   26.7605 O   0  0  0  0  0  0  0  0  0  0  0  0
  2  1  1  0
  3  2  2  0
  4  3  1  0
  5  4  2  0
  5 11  1  0
  6  5  1  0
  7  6  1  0
  7  8  1  6
  9 18  1  0
  9  7  1  0
 10  9  2  0
 11 12  2  0
 12  2  1  0
 14 13  1  6
 14 16  1  0
 15 14  1  0
 17 16  1  1
 17 18  1  0
 17 19  1  0
 19 21  1  0
 19 20  2  0
 21 22  1  0
 22 23  1  1
 22 33  1  0
 24 23  1  0
 25 24  2  0
 26 25  1  0
 27 26  1  0
 27 32  2  0
 28 27  1  0
 29 28  2  0
 29 30  1  0
 30 31  2  0
 31 32  1  0
 32 24  1  0
 33 34  1  0
 35 33  2  0
M  END
$$$$
