YLW.pdb
     RDKit          3D

 35 37  0  0  1  0  0  0  0  0999 V2000
   10.1118  -23.5979   16.7247 O   0  0  0  0  0  0  0  0  0  0  0  0
   10.0377  -22.2877   17.1961 C   0  0  0  0  0  0  0  0  0  0  0  0
    9.6307  -21.2896   16.3079 C   0  0  0  0  0  0  0  0  0  0  0  0
    9.5664  -20.0128   16.7930 C   0  0  0  0  0  0  0  0  0  0  0  0
    9.8773  -19.6714   18.0871 C   0  0  0  0  0  0  0  0  0  0  0  0
    9.7924  -18.2574   18.5478 C   0  0  0  0  0  0  0  0  0  0  0  0
    9.8416  -18.2352   20.0385 C   0  0  2  0  0  0  0  0  0  0  0  0
    8.6260  -18.7968   20.6233 N   0  0  0  0  0  0  0  0  0  0  0  0
   10.0240  -16.8806   20.5831 C   0  0  0  0  0  0  0  0  0  0  0  0
   11.0139  -16.1607   20.2644 O   0  0  0  0  0  0  0  0  0  0  0  0
   10.2795  -20.6598   18.9653 C   0  0  0  0  0  0  0  0  0  0  0  0
   10.3555  -21.9759   18.5022 C   0  0  0  0  0  0  0  0  0  0  0  0
    8.5911  -13.0379   19.7658 C   0  0  0  0  0  0  0  0  0  0  0  0
    7.5666  -13.9762   20.4368 C   0  0  2  0  0  0  0  0  0  0  0  0
    6.2216  -13.2810   20.3436 C   0  0  0  0  0  0  0  0  0  0  0  0
    8.0548  -14.1437   21.8463 C   0  0  0  0  0  0  0  0  0  0  0  0
    9.1975  -15.0639   22.0408 C   0  0  2  0  0  0  0  0  0  0  0  0
    9.0358  -16.3773   21.4975 N   0  0  0  0  0  0  0  0  0  0  0  0
    9.6231  -15.1494   23.4754 C   0  0  0  0  0  0  0  0  0  0  0  0
   10.0626  -14.1236   24.0350 O   0  0  0  0  0  0  0  0  0  0  0  0
    9.5369  -16.3621   24.1942 N   0  0  0  0  0  0  0  0  0  0  0  0
   10.0149  -16.5112   25.5566 C   0  0  1  0  0  0  0  0  0  0  0  0
    8.8927  -16.7059   26.5320 C   0  0  0  0  0  0  0  0  0  0  0  0
    7.7192  -15.8608   26.2277 C   0  0  0  0  0  0  0  0  0  0  0  0
    6.5504  -16.1694   25.5714 C   0  0  0  0  0  0  0  0  0  0  0  0
    5.7494  -15.0722   25.5234 N   0  0  0  0  0  0  0  0  0  0  0  0
    6.3626  -14.0570   26.1293 C   0  0  0  0  0  0  0  0  0  0  0  0
    6.0099  -12.7552   26.3569 C   0  0  0  0  0  0  0  0  0  0  0  0
    6.8933  -11.9167   27.0336 C   0  0  0  0  0  0  0  0  0  0  0  0
    8.1134  -12.3885   27.4741 C   0  0  0  0  0  0  0  0  0  0  0  0
    8.4697  -13.6968   27.2474 C   0  0  0  0  0  0  0  0  0  0  0  0
    7.5808  -14.5212   26.5714 C   0  0  0  0  0  0  0  0  0  0  0  0
   10.9458  -17.6543   25.6767 C   0  0  0  0  0  0  0  0  0  0  0  0
   11.5799  -17.8700   26.8778 O   0  0  0  0  0  0  0  0  0  0  0  0
   11.1367  -18.3931   24.6991 O   0  0  0  0  0  0  0  0  0  0  0  0
  2  1  1  0
  3  2  2  0
  4  3  1  0
  5  4  2  0
  5 11  1  0
  6  5  1  0
  7  6  1  0
  7  8  1  1
  9 18  1  0
  9  7  1  0
 10  9  2  0
 11 12  2  0
 12  2  1  0
 14 13  1  6
 14 16  1  0
 15 14  1  0
 17 16  1  1
 17 18  1  0
 17 19  1  0
 19 21  1  0
 19 20  2  0
 21 22  1  0
 22 23  1  1
 22 33  1  0
 24 23  1  0
 25 24  2  0
 26 25  1  0
 27 26  1  0
 27 32  2  0
 28 27  1  0
 29 28  2  0
 29 30  1  0
 30 31  2  0
 31 32  1  0
 32 24  1  0
 33 34  1  0
 35 33  2  0
M  END
$$$$
