LSA.pdb
     RDKit          3D

 20 19  0  0  1  0  0  0  0  0999 V2000
   29.3325   -9.5155  -21.8899 C   0  0  0  0  0  0  0  0  0  0  0  0
   30.1845  -10.4902  -21.0349 C   0  0  1  0  0  0  0  0  0  0  0  0
   31.4813  -10.6818  -21.7971 C   0  0  0  0  0  0  0  0  0  0  0  0
   30.3129   -9.8385  -19.7163 C   0  0  0  0  0  0  0  0  0  0  0  0
   31.1246  -10.5221  -18.6890 C   0  0  2  0  0  0  0  0  0  0  0  0
   30.3788  -11.7165  -18.1995 N   0  0  0  0  0  0  0  0  0  0  0  0
   31.4443   -9.7241  -17.5010 C   0  0  0  0  0  0  0  0  0  0  0  0
   30.6150   -9.3465  -16.6364 O   0  0  0  0  0  0  0  0  0  0  0  0
   35.2936   -9.6558  -16.1264 O   0  0  0  0  0  0  0  0  0  0  0  0
   34.2436   -9.2759  -15.3301 C   0  0  0  0  0  0  0  0  0  0  0  0
   33.1413   -8.5800  -16.0980 C   0  0  2  0  0  0  0  0  0  0  0  0
   32.7949   -9.3231  -17.2705 N   0  0  0  0  0  0  0  0  0  0  0  0
   33.5404   -7.1957  -16.4840 C   0  0  0  0  0  0  0  0  0  0  0  0
   34.1670   -6.9965  -17.5541 O   0  0  0  0  0  0  0  0  0  0  0  0
   33.0439   -3.8352  -14.9494 C   0  0  0  0  0  0  0  0  0  0  0  0
   33.6702   -4.7946  -15.9479 C   0  0  2  0  0  0  0  0  0  0  0  0
   33.2010   -6.1256  -15.6276 N   0  0  0  0  0  0  0  0  0  0  0  0
   35.1471   -4.7994  -15.7411 C   0  0  0  0  0  0  0  0  0  0  0  0
   35.7329   -5.6155  -14.9898 O   0  0  0  0  0  0  0  0  0  0  0  0
   35.9578   -3.8677  -16.3957 O   0  0  0  0  0  0  0  0  0  0  0  0
  2  1  1  6
  3  2  1  0
  4  2  1  0
  4  5  1  0
  5  7  1  0
  5  6  1  1
  7  8  2  0
  9 10  1  0
 11 10  1  6
 11 13  1  0
 12 11  1  0
 12  7  1  0
 13 14  2  0
 13 17  1  0
 16 15  1  1
 16 18  1  0
 17 16  1  0
 18 19  2  0
 18 20  1  0
M  END
$$$$
