LSA.pdb
     RDKit          3D

 20 19  0  0  1  0  0  0  0  0999 V2000
   25.7962  -14.3855  -15.4299 C   0  0  0  0  0  0  0  0  0  0  0  0
   24.3154  -14.5061  -15.8772 C   0  0  1  0  0  0  0  0  0  0  0  0
   23.6210  -15.3074  -14.7932 C   0  0  0  0  0  0  0  0  0  0  0  0
   23.8450  -13.1160  -16.0397 C   0  0  0  0  0  0  0  0  0  0  0  0
   22.4290  -12.9089  -16.4049 C   0  0  2  0  0  0  0  0  0  0  0  0
   22.1276  -13.6935  -17.6362 N   0  0  0  0  0  0  0  0  0  0  0  0
   22.0474  -11.5239  -16.6986 C   0  0  0  0  0  0  0  0  0  0  0  0
   22.4546  -10.8518  -17.6785 O   0  0  0  0  0  0  0  0  0  0  0  0
   18.9962   -9.7313  -14.4355 O   0  0  0  0  0  0  0  0  0  0  0  0
   19.2428   -9.3479  -15.7290 C   0  0  0  0  0  0  0  0  0  0  0  0
   20.6903   -9.5253  -16.1320 C   0  0  2  0  0  0  0  0  0  0  0  0
   21.1421  -10.8478  -15.8260 N   0  0  0  0  0  0  0  0  0  0  0  0
   21.5679   -8.5283  -15.4533 C   0  0  0  0  0  0  0  0  0  0  0  0
   22.1529   -8.8299  -14.3837 O   0  0  0  0  0  0  0  0  0  0  0  0
   22.7182   -5.0924  -16.3207 C   0  0  0  0  0  0  0  0  0  0  0  0
   22.5920   -6.2885  -15.3916 C   0  0  2  0  0  0  0  0  0  0  0  0
   21.7240   -7.2513  -16.0350 N   0  0  0  0  0  0  0  0  0  0  0  0
   21.8986   -5.8519  -14.1455 C   0  0  0  0  0  0  0  0  0  0  0  0
   20.6745   -6.0339  -13.9408 O   0  0  0  0  0  0  0  0  0  0  0  0
   22.6073   -5.2048  -13.1293 O   0  0  0  0  0  0  0  0  0  0  0  0
  2  1  1  1
  3  2  1  0
  4  2  1  0
  4  5  1  0
  5  7  1  0
  5  6  1  6
  7  8  2  0
  9 10  1  0
 11 10  1  1
 11 13  1  0
 12 11  1  0
 12  7  1  0
 13 14  2  0
 13 17  1  0
 16 15  1  6
 16 18  1  0
 17 16  1  0
 18 19  2  0
 18 20  1  0
M  END
$$$$
