LSA.pdb
     RDKit          3D

 20 19  0  0  1  0  0  0  0  0999 V2000
   26.8727  -14.3114  -17.9162 C   0  0  0  0  0  0  0  0  0  0  0  0
   26.8877  -15.2094  -16.6510 C   0  0  1  0  0  0  0  0  0  0  0  0
   26.3946  -14.3321  -15.5167 C   0  0  0  0  0  0  0  0  0  0  0  0
   26.0267  -16.3619  -16.9832 C   0  0  0  0  0  0  0  0  0  0  0  0
   25.8026  -17.3764  -15.9335 C   0  0  2  0  0  0  0  0  0  0  0  0
   27.1183  -17.9421  -15.5194 N   0  0  0  0  0  0  0  0  0  0  0  0
   24.9709  -18.5188  -16.3249 C   0  0  0  0  0  0  0  0  0  0  0  0
   24.0760  -18.4961  -17.2061 O   0  0  0  0  0  0  0  0  0  0  0  0
   25.8429  -22.2277  -14.6589 O   0  0  0  0  0  0  0  0  0  0  0  0
   25.2073  -22.1905  -15.8737 C   0  0  0  0  0  0  0  0  0  0  0  0
   24.4078  -20.9234  -16.0836 C   0  0  2  0  0  0  0  0  0  0  0  0
   25.1612  -19.7770  -15.6775 N   0  0  0  0  0  0  0  0  0  0  0  0
   23.1191  -20.9652  -15.3337 C   0  0  0  0  0  0  0  0  0  0  0  0
   23.0709  -20.5698  -14.1426 O   0  0  0  0  0  0  0  0  0  0  0  0
   19.6188  -21.0798  -16.2637 C   0  0  0  0  0  0  0  0  0  0  0  0
   20.7071  -21.4635  -15.2748 C   0  0  2  0  0  0  0  0  0  0  0  0
   21.9670  -21.4544  -15.9870 N   0  0  0  0  0  0  0  0  0  0  0  0
   20.4747  -22.8688  -14.8330 C   0  0  0  0  0  0  0  0  0  0  0  0
   21.1308  -23.8440  -15.2711 O   0  0  0  0  0  0  0  0  0  0  0  0
   19.4883  -23.1606  -13.8868 O   0  0  0  0  0  0  0  0  0  0  0  0
  2  1  1  6
  3  2  1  0
  4  2  1  0
  4  5  1  0
  5  7  1  0
  5  6  1  6
  7  8  2  0
  9 10  1  0
 11 10  1  1
 11 13  1  0
 12 11  1  0
 12  7  1  0
 13 14  2  0
 13 17  1  0
 16 15  1  6
 16 18  1  0
 17 16  1  0
 18 19  2  0
 18 20  1  0
M  END
$$$$
