LSA.pdb
     RDKit          3D

 20 19  0  0  1  0  0  0  0  0999 V2000
   34.8217   -5.3892  -15.2159 C   0  0  0  0  0  0  0  0  0  0  0  0
   34.7605   -6.8027  -15.8526 C   0  0  1  0  0  0  0  0  0  0  0  0
   34.7007   -7.7760  -14.6913 C   0  0  0  0  0  0  0  0  0  0  0  0
   33.5709   -6.7831  -16.7269 C   0  0  0  0  0  0  0  0  0  0  0  0
   33.2192   -8.0304  -17.4355 C   0  0  2  0  0  0  0  0  0  0  0  0
   34.4701   -8.6786  -17.9228 N   0  0  0  0  0  0  0  0  0  0  0  0
   32.3573   -7.8689  -18.6107 C   0  0  0  0  0  0  0  0  0  0  0  0
   32.7599   -7.7551  -19.7951 O   0  0  0  0  0  0  0  0  0  0  0  0
   28.2535   -7.6719  -17.9977 O   0  0  0  0  0  0  0  0  0  0  0  0
   28.6677   -8.1043  -19.2316 C   0  0  0  0  0  0  0  0  0  0  0  0
   30.0769   -7.6681  -19.5680 C   0  0  2  0  0  0  0  0  0  0  0  0
   30.9404   -7.8333  -18.4394 N   0  0  0  0  0  0  0  0  0  0  0  0
   30.1111   -6.2468  -20.0191 C   0  0  0  0  0  0  0  0  0  0  0  0
   30.3910   -5.3341  -19.2031 O   0  0  0  0  0  0  0  0  0  0  0  0
   29.6263   -4.5654  -23.3100 C   0  0  0  0  0  0  0  0  0  0  0  0
   29.8088   -4.5729  -21.8013 C   0  0  2  0  0  0  0  0  0  0  0  0
   29.8247   -5.9544  -21.3704 N   0  0  0  0  0  0  0  0  0  0  0  0
   28.6118   -3.9421  -21.1741 C   0  0  0  0  0  0  0  0  0  0  0  0
   27.7238   -4.5967  -20.5772 O   0  0  0  0  0  0  0  0  0  0  0  0
   28.4292   -2.5575  -21.2293 O   0  0  0  0  0  0  0  0  0  0  0  0
  2  1  1  1
  3  2  1  0
  4  2  1  0
  4  5  1  0
  5  7  1  0
  5  6  1  6
  7  8  2  0
  9 10  1  0
 11 10  1  1
 11 13  1  0
 12 11  1  0
 12  7  1  0
 13 14  2  0
 13 17  1  0
 16 15  1  6
 16 18  1  0
 17 16  1  0
 18 19  2  0
 18 20  1  0
M  END
$$$$
