LSA.pdb
     RDKit          3D

 20 19  0  0  1  0  0  0  0  0999 V2000
   12.5504  -11.8962   -9.2118 C   0  0  0  0  0  0  0  0  0  0  0  0
   13.4213  -11.4564  -10.4182 C   0  0  1  0  0  0  0  0  0  0  0  0
   12.5808  -10.4592  -11.1919 C   0  0  0  0  0  0  0  0  0  0  0  0
   14.6614  -10.9173   -9.8251 C   0  0  0  0  0  0  0  0  0  0  0  0
   15.6426  -10.2930  -10.7356 C   0  0  2  0  0  0  0  0  0  0  0  0
   16.7695  -11.2436  -10.9570 N   0  0  0  0  0  0  0  0  0  0  0  0
   16.2472   -9.0463  -10.2555 C   0  0  0  0  0  0  0  0  0  0  0  0
   17.1072   -8.9615   -9.3439 O   0  0  0  0  0  0  0  0  0  0  0  0
   17.6454   -4.6344  -10.9648 O   0  0  0  0  0  0  0  0  0  0  0  0
   17.1998   -5.8640  -11.3778 C   0  0  0  0  0  0  0  0  0  0  0  0
   16.3601   -6.5688  -10.3351 C   0  0  2  0  0  0  0  0  0  0  0  0
   15.8550   -7.8065  -10.8448 N   0  0  0  0  0  0  0  0  0  0  0  0
   15.2241   -5.7133   -9.8853 C   0  0  0  0  0  0  0  0  0  0  0  0
   14.2104   -5.5787  -10.6145 O   0  0  0  0  0  0  0  0  0  0  0  0
   14.4951   -3.7590   -6.8026 C   0  0  0  0  0  0  0  0  0  0  0  0
   14.3025   -4.0953   -8.2722 C   0  0  2  0  0  0  0  0  0  0  0  0
   15.3139   -5.0651   -8.6342 N   0  0  0  0  0  0  0  0  0  0  0  0
   14.5738   -2.8713   -9.0799 C   0  0  0  0  0  0  0  0  0  0  0  0
   15.7136   -2.5696   -9.5081 O   0  0  0  0  0  0  0  0  0  0  0  0
   13.5383   -1.9887   -9.3994 O   0  0  0  0  0  0  0  0  0  0  0  0
  2  1  1  1
  3  2  1  0
  4  2  1  0
  4  5  1  0
  5  7  1  0
  5  6  1  1
  7  8  2  0
  9 10  1  0
 11 10  1  6
 11 13  1  0
 12 11  1  0
 12  7  1  0
 13 14  2  0
 13 17  1  0
 16 15  1  1
 16 18  1  0
 17 16  1  0
 18 19  2  0
 18 20  1  0
M  END
$$$$
