LSA.pdb
     RDKit          3D

 20 19  0  0  1  0  0  0  0  0999 V2000
   24.7755  -33.5250  -12.4393 C   0  0  0  0  0  0  0  0  0  0  0  0
   24.7294  -34.3587  -11.1316 C   0  0  1  0  0  0  0  0  0  0  0  0
   25.0250  -35.7880  -11.5429 C   0  0  0  0  0  0  0  0  0  0  0  0
   25.7266  -33.7353  -10.2389 C   0  0  0  0  0  0  0  0  0  0  0  0
   25.9556  -34.3624   -8.9215 C   0  0  2  0  0  0  0  0  0  0  0  0
   24.7479  -34.1570   -8.0719 N   0  0  0  0  0  0  0  0  0  0  0  0
   27.0889  -33.8323   -8.1568 C   0  0  0  0  0  0  0  0  0  0  0  0
   28.2659  -33.7277   -8.5830 O   0  0  0  0  0  0  0  0  0  0  0  0
   26.3392  -32.7557   -4.2748 O   0  0  0  0  0  0  0  0  0  0  0  0
   27.4887  -32.2114   -4.7880 C   0  0  0  0  0  0  0  0  0  0  0  0
   27.9817  -32.9302   -6.0246 C   0  0  2  0  0  0  0  0  0  0  0  0
   26.8813  -33.3879   -6.8160 N   0  0  0  0  0  0  0  0  0  0  0  0
   28.8550  -34.0856   -5.6679 C   0  0  0  0  0  0  0  0  0  0  0  0
   28.3556  -35.2274   -5.5120 O   0  0  0  0  0  0  0  0  0  0  0  0
   32.5289  -34.5153   -5.2305 C   0  0  0  0  0  0  0  0  0  0  0  0
   31.0851  -34.9762   -5.1176 C   0  0  2  0  0  0  0  0  0  0  0  0
   30.2413  -33.8682   -5.5111 N   0  0  0  0  0  0  0  0  0  0  0  0
   30.7853  -35.2552   -3.6836 C   0  0  0  0  0  0  0  0  0  0  0  0
   30.2003  -34.4383   -2.9327 O   0  0  0  0  0  0  0  0  0  0  0  0
   31.1557  -36.4726   -3.1057 O   0  0  0  0  0  0  0  0  0  0  0  0
  2  1  1  6
  3  2  1  0
  4  2  1  0
  4  5  1  0
  5  7  1  0
  5  6  1  1
  7  8  2  0
  9 10  1  0
 11 10  1  1
 11 13  1  0
 12 11  1  0
 12  7  1  0
 13 14  2  0
 13 17  1  0
 16 15  1  1
 16 18  1  0
 17 16  1  0
 18 19  2  0
 18 20  1  0
M  END
$$$$
