LSA.pdb
     RDKit          3D

 20 19  0  0  1  0  0  0  0  0999 V2000
   18.6504  -13.7430  -14.8962 C   0  0  0  0  0  0  0  0  0  0  0  0
   18.9571  -12.6134  -15.9147 C   0  0  1  0  0  0  0  0  0  0  0  0
   17.7755  -12.5827  -16.8646 C   0  0  0  0  0  0  0  0  0  0  0  0
   19.1486  -11.3975  -15.0992 C   0  0  0  0  0  0  0  0  0  0  0  0
   19.3697  -10.1220  -15.8103 C   0  0  2  0  0  0  0  0  0  0  0  0
   20.7609  -10.1020  -16.3457 N   0  0  0  0  0  0  0  0  0  0  0  0
   19.2271   -8.9108  -14.9962 C   0  0  0  0  0  0  0  0  0  0  0  0
   18.3092   -8.6996  -14.1651 O   0  0  0  0  0  0  0  0  0  0  0  0
   22.3390   -6.0780  -14.9260 O   0  0  0  0  0  0  0  0  0  0  0  0
   21.4610   -6.2217  -13.8822 C   0  0  0  0  0  0  0  0  0  0  0  0
   20.0895   -6.6836  -14.3232 C   0  0  2  0  0  0  0  0  0  0  0  0
   20.1873   -7.8626  -15.1277 N   0  0  0  0  0  0  0  0  0  0  0  0
   19.3773   -5.6171  -15.0848 C   0  0  0  0  0  0  0  0  0  0  0  0
   19.4754   -5.5649  -16.3358 O   0  0  0  0  0  0  0  0  0  0  0  0
   16.8855   -3.0235  -14.1305 C   0  0  0  0  0  0  0  0  0  0  0  0
   17.8173   -3.7106  -15.1151 C   0  0  2  0  0  0  0  0  0  0  0  0
   18.5987   -4.6776  -14.3744 N   0  0  0  0  0  0  0  0  0  0  0  0
   18.7771   -2.7003  -15.6462 C   0  0  0  0  0  0  0  0  0  0  0  0
   19.9305   -2.5374  -15.1806 O   0  0  0  0  0  0  0  0  0  0  0  0
   18.4173   -1.8729  -16.7136 O   0  0  0  0  0  0  0  0  0  0  0  0
  2  1  1  1
  3  2  1  0
  4  2  1  0
  4  5  1  0
  5  7  1  0
  5  6  1  1
  7  8  2  0
  9 10  1  0
 11 10  1  6
 11 13  1  0
 12 11  1  0
 12  7  1  0
 13 14  2  0
 13 17  1  0
 16 15  1  1
 16 18  1  0
 17 16  1  0
 18 19  2  0
 18 20  1  0
M  END
$$$$
