LSA.pdb
     RDKit          3D

 20 19  0  0  1  0  0  0  0  0999 V2000
   24.4577  -13.2077  -17.7016 C   0  0  0  0  0  0  0  0  0  0  0  0
   23.6190  -13.0081  -16.4116 C   0  0  1  0  0  0  0  0  0  0  0  0
   24.6081  -12.6061  -15.3348 C   0  0  0  0  0  0  0  0  0  0  0  0
   22.6093  -11.9886  -16.7595 C   0  0  0  0  0  0  0  0  0  0  0  0
   21.7170  -11.5113  -15.6836 C   0  0  2  0  0  0  0  0  0  0  0  0
   20.5476  -12.4304  -15.5821 N   0  0  0  0  0  0  0  0  0  0  0  0
   21.1649  -10.1657  -15.8699 C   0  0  0  0  0  0  0  0  0  0  0  0
   20.9214   -9.6290  -16.9792 O   0  0  0  0  0  0  0  0  0  0  0  0
   19.1417   -8.4156  -12.7439 O   0  0  0  0  0  0  0  0  0  0  0  0
   18.9495   -8.0480  -14.0511 C   0  0  0  0  0  0  0  0  0  0  0  0
   20.2193   -8.0999  -14.8722 C   0  0  2  0  0  0  0  0  0  0  0  0
   20.8654   -9.3678  -14.7246 N   0  0  0  0  0  0  0  0  0  0  0  0
   21.1613   -7.0110  -14.4829 C   0  0  0  0  0  0  0  0  0  0  0  0
   22.0044   -7.2040  -13.5722 O   0  0  0  0  0  0  0  0  0  0  0  0
   21.8463   -3.6045  -15.8282 C   0  0  0  0  0  0  0  0  0  0  0  0
   22.0527   -4.7427  -14.8424 C   0  0  2  0  0  0  0  0  0  0  0  0
   21.0840   -5.7716  -15.1546 N   0  0  0  0  0  0  0  0  0  0  0  0
   21.7288   -4.2503  -13.4725 C   0  0  0  0  0  0  0  0  0  0  0  0
   22.4514   -3.4390  -12.8455 O   0  0  0  0  0  0  0  0  0  0  0  0
   20.5743   -4.6870  -12.8167 O   0  0  0  0  0  0  0  0  0  0  0  0
  2  1  1  6
  3  2  1  0
  4  2  1  0
  4  5  1  0
  5  7  1  0
  5  6  1  6
  7  8  2  0
  9 10  1  0
 11 10  1  1
 11 13  1  0
 12 11  1  0
 12  7  1  0
 13 14  2  0
 13 17  1  0
 16 15  1  6
 16 18  1  0
 17 16  1  0
 18 19  2  0
 18 20  1  0
M  END
$$$$
