LSA.pdb
     RDKit          3D

 20 19  0  0  1  0  0  0  0  0999 V2000
   26.1835  -20.7655   -7.7241 C   0  0  0  0  0  0  0  0  0  0  0  0
   25.4954  -21.1871   -9.0492 C   0  0  1  0  0  0  0  0  0  0  0  0
   24.0193  -20.8975   -8.8578 C   0  0  0  0  0  0  0  0  0  0  0  0
   26.1662  -20.3990  -10.1023 C   0  0  0  0  0  0  0  0  0  0  0  0
   25.6845  -20.5569  -11.4896 C   0  0  2  0  0  0  0  0  0  0  0  0
   25.5344  -22.0100  -11.7867 N   0  0  0  0  0  0  0  0  0  0  0  0
   26.5641  -20.0151  -12.5303 C   0  0  0  0  0  0  0  0  0  0  0  0
   27.1300  -18.8944  -12.4903 O   0  0  0  0  0  0  0  0  0  0  0  0
   27.5847  -22.4089  -15.8762 O   0  0  0  0  0  0  0  0  0  0  0  0
   28.4429  -21.4660  -15.3709 C   0  0  0  0  0  0  0  0  0  0  0  0
   27.7267  -20.3133  -14.7020 C   0  0  2  0  0  0  0  0  0  0  0  0
   26.8250  -20.7916  -13.6995 N   0  0  0  0  0  0  0  0  0  0  0  0
   26.9779  -19.4906  -15.6956 C   0  0  0  0  0  0  0  0  0  0  0  0
   25.7358  -19.6293  -15.8191 O   0  0  0  0  0  0  0  0  0  0  0  0
   27.8494  -16.4996  -17.6902 C   0  0  0  0  0  0  0  0  0  0  0  0
   26.9555  -17.6873  -17.3740 C   0  0  2  0  0  0  0  0  0  0  0  0
   27.6903  -18.5622  -16.4856 N   0  0  0  0  0  0  0  0  0  0  0  0
   26.7196  -18.4534  -18.6316 C   0  0  0  0  0  0  0  0  0  0  0  0
   27.3961  -19.4568  -18.9618 O   0  0  0  0  0  0  0  0  0  0  0  0
   25.7064  -18.0711  -19.5152 O   0  0  0  0  0  0  0  0  0  0  0  0
  2  1  1  1
  3  2  1  0
  4  2  1  0
  4  5  1  0
  5  7  1  0
  5  6  1  6
  7  8  2  0
  9 10  1  0
 11 10  1  6
 11 13  1  0
 12 11  1  0
 12  7  1  0
 13 14  2  0
 13 17  1  0
 16 15  1  6
 16 18  1  0
 17 16  1  0
 18 19  2  0
 18 20  1  0
M  END
$$$$
