LSA.pdb
     RDKit          3D

 20 19  0  0  1  0  0  0  0  0999 V2000
   12.3419   -7.4029   -7.0918 C   0  0  0  0  0  0  0  0  0  0  0  0
   13.1819   -7.6756   -8.3674 C   0  0  1  0  0  0  0  0  0  0  0  0
   12.4153   -7.0383   -9.5101 C   0  0  0  0  0  0  0  0  0  0  0  0
   14.5095   -7.0923   -8.0896 C   0  0  0  0  0  0  0  0  0  0  0  0
   15.4940   -7.0713   -9.1904 C   0  0  2  0  0  0  0  0  0  0  0  0
   16.2081   -8.3795   -9.2252 N   0  0  0  0  0  0  0  0  0  0  0  0
   16.5324   -6.0408   -9.0910 C   0  0  0  0  0  0  0  0  0  0  0  0
   17.5286   -6.0865   -8.3272 O   0  0  0  0  0  0  0  0  0  0  0  0
   17.2311   -3.6134  -12.2516 O   0  0  0  0  0  0  0  0  0  0  0  0
   18.1313   -3.7412  -11.2249 C   0  0  0  0  0  0  0  0  0  0  0  0
   17.4685   -3.8795   -9.8719 C   0  0  2  0  0  0  0  0  0  0  0  0
   16.4423   -4.8756   -9.9109 N   0  0  0  0  0  0  0  0  0  0  0  0
   16.8886   -2.5827   -9.4174 C   0  0  0  0  0  0  0  0  0  0  0  0
   15.7219   -2.2624   -9.7544 O   0  0  0  0  0  0  0  0  0  0  0  0
   18.0880    0.1521   -7.1913 C   0  0  0  0  0  0  0  0  0  0  0  0
   17.1374   -0.4470   -8.2146 C   0  0  2  0  0  0  0  0  0  0  0  0
   17.6734   -1.7325   -8.6081 N   0  0  0  0  0  0  0  0  0  0  0  0
   17.1468    0.4125   -9.4333 C   0  0  0  0  0  0  0  0  0  0  0  0
   17.8063    0.1359  -10.4638 O   0  0  0  0  0  0  0  0  0  0  0  0
   16.3996    1.5930   -9.4741 O   0  0  0  0  0  0  0  0  0  0  0  0
  2  1  1  1
  3  2  1  0
  4  2  1  0
  4  5  1  0
  5  7  1  0
  5  6  1  1
  7  8  2  0
  9 10  1  0
 11 10  1  6
 11 13  1  0
 12 11  1  0
 12  7  1  0
 13 14  2  0
 13 17  1  0
 16 15  1  1
 16 18  1  0
 17 16  1  0
 18 19  2  0
 18 20  1  0
M  END
$$$$
