LSA.pdb
     RDKit          3D

 20 19  0  0  1  0  0  0  0  0999 V2000
   15.4082  -15.4803  -15.3500 C   0  0  0  0  0  0  0  0  0  0  0  0
   15.8092  -14.3458  -16.3295 C   0  0  1  0  0  0  0  0  0  0  0  0
   14.5979  -14.1156  -17.2122 C   0  0  0  0  0  0  0  0  0  0  0  0
   16.1940  -13.2090  -15.4696 C   0  0  0  0  0  0  0  0  0  0  0  0
   16.5370  -11.9336  -16.1307 C   0  0  2  0  0  0  0  0  0  0  0  0
   17.7957  -12.1156  -16.9086 N   0  0  0  0  0  0  0  0  0  0  0  0
   16.7714  -10.7984  -15.2326 C   0  0  0  0  0  0  0  0  0  0  0  0
   16.0633  -10.5021  -14.2383 O   0  0  0  0  0  0  0  0  0  0  0  0
   19.9321   -7.6059  -13.5574 O   0  0  0  0  0  0  0  0  0  0  0  0
   19.6292   -8.6663  -14.3727 C   0  0  0  0  0  0  0  0  0  0  0  0
   18.1427   -8.8285  -14.6032 C   0  0  2  0  0  0  0  0  0  0  0  0
   17.8834   -9.9355  -15.4716 N   0  0  0  0  0  0  0  0  0  0  0  0
   17.5456   -7.5899  -15.1812 C   0  0  0  0  0  0  0  0  0  0  0  0
   17.6366   -7.3631  -16.4131 O   0  0  0  0  0  0  0  0  0  0  0  0
   15.2089   -5.0357  -13.8745 C   0  0  0  0  0  0  0  0  0  0  0  0
   16.2282   -5.5288  -14.8882 C   0  0  2  0  0  0  0  0  0  0  0  0
   16.8828   -6.6880  -14.3205 N   0  0  0  0  0  0  0  0  0  0  0  0
   17.2779   -4.4826  -15.0550 C   0  0  0  0  0  0  0  0  0  0  0  0
   18.4435   -4.6017  -14.6072 O   0  0  0  0  0  0  0  0  0  0  0  0
   16.9940   -3.2957  -15.7362 O   0  0  0  0  0  0  0  0  0  0  0  0
  2  1  1  1
  3  2  1  0
  4  2  1  0
  4  5  1  0
  5  7  1  0
  5  6  1  1
  7  8  2  0
  9 10  1  0
 11 10  1  6
 11 13  1  0
 12 11  1  0
 12  7  1  0
 13 14  2  0
 13 17  1  0
 16 15  1  1
 16 18  1  0
 17 16  1  0
 18 19  2  0
 18 20  1  0
M  END
$$$$
