PAA.pdb
     RDKit          3D

 18 18  0  0  1  0  0  0  0  0999 V2000
   25.2453  -22.0424  -12.2305 N   0  0  0  0  0  0  0  0  0  0  0  0
   26.5187  -21.3384  -12.2174 C   0  0  0  0  0  0  0  0  0  0  0  0
   26.3789  -20.3155  -11.1259 C   0  0  0  0  0  0  0  0  0  0  0  0
   24.9568  -20.4182  -10.6052 C   0  0  0  0  0  0  0  0  0  0  0  0
   24.2556  -21.0897  -11.7700 C   0  0  1  0  0  0  0  0  0  0  0  0
   23.9409  -20.1061  -12.8356 C   0  0  0  0  0  0  0  0  0  0  0  0
   23.3311  -19.0571  -12.5177 O   0  0  0  0  0  0  0  0  0  0  0  0
   25.0699  -19.4862  -16.3127 C   0  0  0  0  0  0  0  0  0  0  0  0
   23.9883  -19.3441  -15.2368 C   0  0  2  0  0  0  0  0  0  0  0  0
   24.2877  -20.2801  -14.1910 N   0  0  0  0  0  0  0  0  0  0  0  0
   22.6839  -19.5955  -15.8832 C   0  0  0  0  0  0  0  0  0  0  0  0
   22.1684  -18.8573  -16.7538 O   0  0  0  0  0  0  0  0  0  0  0  0
   20.4079  -22.5980  -15.9541 C   0  0  0  0  0  0  0  0  0  0  0  0
   20.7043  -21.1007  -16.1035 C   0  0  2  0  0  0  0  0  0  0  0  0
   21.9686  -20.7597  -15.4839 N   0  0  0  0  0  0  0  0  0  0  0  0
   19.5700  -20.3992  -15.4242 C   0  0  0  0  0  0  0  0  0  0  0  0
   19.7834  -19.7949  -14.1941 O   0  0  0  0  0  0  0  0  0  0  0  0
   18.4301  -20.3359  -15.9252 O   0  0  0  0  0  0  0  0  0  0  0  0
  1  2  1  0
  1  5  1  0
  2  3  1  0
  3  4  1  0
  5  4  1  0
  5  6  1  6
  6  7  2  0
  9  8  1  6
  9 10  1  0
 10  6  1  0
 11 15  1  0
 11  9  1  0
 12 11  2  0
 14 13  1  1
 14 15  1  0
 14 16  1  0
 16 18  2  0
 16 17  1  0
M  END
$$$$
