PAA.pdb
     RDKit          3D

 18 18  0  0  1  0  0  0  0  0999 V2000
   22.2911  -12.4142  -16.8077 N   0  0  0  0  0  0  0  0  0  0  0  0
   23.0173  -12.6044  -18.0543 C   0  0  0  0  0  0  0  0  0  0  0  0
   24.4672  -12.5472  -17.6647 C   0  0  0  0  0  0  0  0  0  0  0  0
   24.5128  -12.2259  -16.1819 C   0  0  0  0  0  0  0  0  0  0  0  0
   23.1469  -11.6042  -15.9646 C   0  0  1  0  0  0  0  0  0  0  0  0
   23.1332  -10.1892  -16.4114 C   0  0  0  0  0  0  0  0  0  0  0  0
   23.9471   -9.3908  -15.8885 O   0  0  0  0  0  0  0  0  0  0  0  0
   21.6524   -8.2424  -19.2093 C   0  0  0  0  0  0  0  0  0  0  0  0
   22.1516   -8.3021  -17.7620 C   0  0  2  0  0  0  0  0  0  0  0  0
   22.2561   -9.6851  -17.3933 N   0  0  0  0  0  0  0  0  0  0  0  0
   21.1891   -7.5517  -16.9295 C   0  0  0  0  0  0  0  0  0  0  0  0
   21.1694   -6.3046  -16.8156 O   0  0  0  0  0  0  0  0  0  0  0  0
   17.9247   -8.4830  -15.3498 C   0  0  0  0  0  0  0  0  0  0  0  0
   19.2045   -7.6405  -15.4175 C   0  0  2  0  0  0  0  0  0  0  0  0
   20.2195   -8.3050  -16.2094 N   0  0  0  0  0  0  0  0  0  0  0  0
   19.6533   -7.4810  -13.9986 C   0  0  0  0  0  0  0  0  0  0  0  0
   18.8603   -6.7692  -13.1108 O   0  0  0  0  0  0  0  0  0  0  0  0
   20.7219   -7.9673  -13.5793 O   0  0  0  0  0  0  0  0  0  0  0  0
  1  2  1  0
  1  5  1  0
  2  3  1  0
  3  4  1  0
  5  4  1  0
  5  6  1  6
  6  7  2  0
  9  8  1  6
  9 10  1  0
 10  6  1  0
 11 15  1  0
 11  9  1  0
 12 11  2  0
 14 13  1  1
 14 15  1  0
 14 16  1  0
 16 18  2  0
 16 17  1  0
M  END
$$$$
