PAA.pdb
     RDKit          3D

 18 18  0  0  1  0  0  0  0  0999 V2000
   29.8680  -21.3958  -11.6667 N   0  0  0  0  0  0  0  0  0  0  0  0
   30.4681  -20.4582  -10.7295 C   0  0  0  0  0  0  0  0  0  0  0  0
   30.9612  -21.3130   -9.5965 C   0  0  0  0  0  0  0  0  0  0  0  0
   30.5291  -22.7365   -9.8979 C   0  0  0  0  0  0  0  0  0  0  0  0
   29.3884  -22.5072  -10.8704 C   0  0  1  0  0  0  0  0  0  0  0  0
   28.1457  -22.1362  -10.1493 C   0  0  0  0  0  0  0  0  0  0  0  0
   27.5924  -23.0022   -9.4301 O   0  0  0  0  0  0  0  0  0  0  0  0
   26.3908  -19.3335   -8.7847 C   0  0  0  0  0  0  0  0  0  0  0  0
   26.2432  -20.5425   -9.7142 C   0  0  2  0  0  0  0  0  0  0  0  0
   27.5459  -20.8625  -10.2240 N   0  0  0  0  0  0  0  0  0  0  0  0
   25.2815  -20.1731  -10.7731 C   0  0  0  0  0  0  0  0  0  0  0  0
   24.1087  -19.7864  -10.5643 O   0  0  0  0  0  0  0  0  0  0  0  0
   25.6254  -19.7098  -14.5136 C   0  0  0  0  0  0  0  0  0  0  0  0
   24.8365  -19.9385  -13.2185 C   0  0  2  0  0  0  0  0  0  0  0  0
   25.7256  -20.2654  -12.1224 N   0  0  0  0  0  0  0  0  0  0  0  0
   23.9088  -21.0760  -13.5114 C   0  0  0  0  0  0  0  0  0  0  0  0
   22.8949  -20.9039  -14.4421 O   0  0  0  0  0  0  0  0  0  0  0  0
   24.0126  -22.1825  -12.9464 O   0  0  0  0  0  0  0  0  0  0  0  0
  1  2  1  0
  1  5  1  0
  2  3  1  0
  3  4  1  0
  5  4  1  0
  5  6  1  1
  6  7  2  0
  9  8  1  1
  9 10  1  0
 10  6  1  0
 11 15  1  0
 11  9  1  0
 12 11  2  0
 14 13  1  6
 14 15  1  0
 14 16  1  0
 16 18  2  0
 16 17  1  0
M  END
$$$$
