PAA.pdb
     RDKit          3D

 18 18  0  0  1  0  0  0  0  0999 V2000
   18.1895  -12.0815  -16.9341 N   0  0  0  0  0  0  0  0  0  0  0  0
   16.9823  -11.4899  -16.3770 C   0  0  0  0  0  0  0  0  0  0  0  0
   16.8147  -10.1937  -17.1181 C   0  0  0  0  0  0  0  0  0  0  0  0
   18.0185  -10.0494  -18.0314 C   0  0  0  0  0  0  0  0  0  0  0  0
   19.0182  -10.9732  -17.3630 C   0  0  1  0  0  0  0  0  0  0  0  0
   19.6512  -10.3110  -16.1957 C   0  0  0  0  0  0  0  0  0  0  0  0
   19.0445  -10.3296  -15.0980 O   0  0  0  0  0  0  0  0  0  0  0  0
   23.0578   -9.4918  -15.2160 C   0  0  0  0  0  0  0  0  0  0  0  0
   21.5788   -9.1063  -15.1084 C   0  0  2  0  0  0  0  0  0  0  0  0
   20.9001   -9.6587  -16.2458 N   0  0  0  0  0  0  0  0  0  0  0  0
   21.5078   -7.6318  -15.0513 C   0  0  0  0  0  0  0  0  0  0  0  0
   22.0194   -6.9304  -14.1486 O   0  0  0  0  0  0  0  0  0  0  0  0
   20.4394   -4.9856  -17.5013 C   0  0  0  0  0  0  0  0  0  0  0  0
   20.6398   -5.5299  -16.0815 C   0  0  2  0  0  0  0  0  0  0  0  0
   20.8076   -6.9687  -16.0983 N   0  0  0  0  0  0  0  0  0  0  0  0
   19.4053   -5.1447  -15.3281 C   0  0  0  0  0  0  0  0  0  0  0  0
   19.2293   -3.8245  -14.9410 O   0  0  0  0  0  0  0  0  0  0  0  0
   18.5205   -5.9716  -15.0319 O   0  0  0  0  0  0  0  0  0  0  0  0
  1  2  1  0
  1  5  1  0
  2  3  1  0
  3  4  1  0
  5  4  1  0
  5  6  1  1
  6  7  2  0
  9  8  1  6
  9 10  1  0
 10  6  1  0
 11 15  1  0
 11  9  1  0
 12 11  2  0
 14 13  1  6
 14 15  1  0
 14 16  1  0
 16 18  2  0
 16 17  1  0
M  END
$$$$
