PAA.pdb
     RDKit          3D

 18 18  0  0  1  0  0  0  0  0999 V2000
   42.8714   -9.7783   -6.3203 N   0  0  0  0  0  0  0  0  0  0  0  0
   42.7494  -11.1563   -5.8691 C   0  0  0  0  0  0  0  0  0  0  0  0
   43.2127  -11.9829   -7.0351 C   0  0  0  0  0  0  0  0  0  0  0  0
   43.5028  -11.0188   -8.1711 C   0  0  0  0  0  0  0  0  0  0  0  0
   42.6877   -9.8090   -7.7572 C   0  0  1  0  0  0  0  0  0  0  0  0
   41.2554   -9.9952   -8.0975 C   0  0  0  0  0  0  0  0  0  0  0  0
   40.9400  -10.1140   -9.3057 O   0  0  0  0  0  0  0  0  0  0  0  0
   38.1322  -10.7715   -6.2168 C   0  0  0  0  0  0  0  0  0  0  0  0
   38.8278  -10.1863   -7.4502 C   0  0  2  0  0  0  0  0  0  0  0  0
   40.2219  -10.0471   -7.1399 N   0  0  0  0  0  0  0  0  0  0  0  0
   38.1720   -8.8994   -7.7604 C   0  0  0  0  0  0  0  0  0  0  0  0
   36.9819   -8.7798   -8.1320 O   0  0  0  0  0  0  0  0  0  0  0  0
   39.2182   -5.3147   -7.1837 C   0  0  0  0  0  0  0  0  0  0  0  0
   38.3599   -6.4108   -7.8271 C   0  0  2  0  0  0  0  0  0  0  0  0
   38.9530   -7.7170   -7.6255 N   0  0  0  0  0  0  0  0  0  0  0  0
   38.3018   -6.0694   -9.2832 C   0  0  0  0  0  0  0  0  0  0  0  0
   37.4757   -5.0391   -9.7074 O   0  0  0  0  0  0  0  0  0  0  0  0
   38.9729   -6.6804  -10.1379 O   0  0  0  0  0  0  0  0  0  0  0  0
  1  2  1  0
  1  5  1  0
  2  3  1  0
  3  4  1  0
  5  4  1  0
  5  6  1  1
  6  7  2  0
  9  8  1  1
  9 10  1  0
 10  6  1  0
 11 15  1  0
 11  9  1  0
 12 11  2  0
 14 13  1  1
 14 15  1  0
 14 16  1  0
 16 18  2  0
 16 17  1  0
M  END
$$$$
