PAA.pdb
     RDKit          3D

 18 18  0  0  1  0  0  0  0  0999 V2000
   18.1401  -11.5684  -17.0505 N   0  0  0  0  0  0  0  0  0  0  0  0
   17.1318  -10.8720  -16.2658 C   0  0  0  0  0  0  0  0  0  0  0  0
   16.7776   -9.6631  -17.0847 C   0  0  0  0  0  0  0  0  0  0  0  0
   17.6907   -9.6693  -18.2973 C   0  0  0  0  0  0  0  0  0  0  0  0
   18.8284  -10.5483  -17.8152 C   0  0  1  0  0  0  0  0  0  0  0  0
   19.7572   -9.7820  -16.9478 C   0  0  0  0  0  0  0  0  0  0  0  0
   19.4913   -9.6883  -15.7256 O   0  0  0  0  0  0  0  0  0  0  0  0
   23.0631   -8.0642  -17.4516 C   0  0  0  0  0  0  0  0  0  0  0  0
   21.8431   -8.4138  -16.5933 C   0  0  2  0  0  0  0  0  0  0  0  0
   20.9266   -9.1494  -17.4168 N   0  0  0  0  0  0  0  0  0  0  0  0
   21.2782   -7.1456  -16.0880 C   0  0  0  0  0  0  0  0  0  0  0  0
   20.4093   -6.4678  -16.6833 O   0  0  0  0  0  0  0  0  0  0  0  0
   21.0909   -5.5403  -12.7583 C   0  0  0  0  0  0  0  0  0  0  0  0
   21.2622   -5.4261  -14.2781 C   0  0  2  0  0  0  0  0  0  0  0  0
   21.7596   -6.6667  -14.8370 N   0  0  0  0  0  0  0  0  0  0  0  0
   22.2427   -4.3148  -14.4872 C   0  0  0  0  0  0  0  0  0  0  0  0
   21.8174   -3.0005  -14.3627 O   0  0  0  0  0  0  0  0  0  0  0  0
   23.4381   -4.5260  -14.7717 O   0  0  0  0  0  0  0  0  0  0  0  0
  1  2  1  0
  1  5  1  0
  2  3  1  0
  3  4  1  0
  5  4  1  0
  5  6  1  1
  6  7  2  0
  9  8  1  6
  9 10  1  0
 10  6  1  0
 11 15  1  0
 11  9  1  0
 12 11  2  0
 14 13  1  1
 14 15  1  0
 14 16  1  0
 16 18  2  0
 16 17  1  0
M  END
$$$$
