PAA.pdb
     RDKit          3D

 18 18  0  0  1  0  0  0  0  0999 V2000
   21.4147  -11.9413  -18.8687 N   0  0  0  0  0  0  0  0  0  0  0  0
   20.0149  -11.7655  -19.2252 C   0  0  0  0  0  0  0  0  0  0  0  0
   19.9299  -10.3646  -19.7615 C   0  0  0  0  0  0  0  0  0  0  0  0
   21.3070   -9.7467  -19.6004 C   0  0  0  0  0  0  0  0  0  0  0  0
   21.9081  -10.6244  -18.5198 C   0  0  1  0  0  0  0  0  0  0  0  0
   21.4188  -10.2211  -17.1782 C   0  0  0  0  0  0  0  0  0  0  0  0
   20.2326  -10.4891  -16.8707 O   0  0  0  0  0  0  0  0  0  0  0  0
   22.8744   -9.7846  -13.9322 C   0  0  0  0  0  0  0  0  0  0  0  0
   21.7952   -9.2546  -14.8819 C   0  0  2  0  0  0  0  0  0  0  0  0
   22.2104   -9.5512  -16.2232 N   0  0  0  0  0  0  0  0  0  0  0  0
   21.6520   -7.8065  -14.6266 C   0  0  0  0  0  0  0  0  0  0  0  0
   21.2476   -7.3115  -13.5496 O   0  0  0  0  0  0  0  0  0  0  0  0
   20.3677   -5.0861  -15.8167 C   0  0  0  0  0  0  0  0  0  0  0  0
   21.8210   -5.4876  -15.5361 C   0  0  2  0  0  0  0  0  0  0  0  0
   21.9998   -6.9178  -15.6828 N   0  0  0  0  0  0  0  0  0  0  0  0
   22.0896   -5.0573  -14.1280 C   0  0  0  0  0  0  0  0  0  0  0  0
   23.3858   -4.7402  -13.7496 O   0  0  0  0  0  0  0  0  0  0  0  0
   21.1857   -4.9718  -13.2737 O   0  0  0  0  0  0  0  0  0  0  0  0
  1  2  1  0
  1  5  1  0
  2  3  1  0
  3  4  1  0
  5  4  1  0
  5  6  1  1
  6  7  2  0
  9  8  1  1
  9 10  1  0
 10  6  1  0
 11 15  1  0
 11  9  1  0
 12 11  2  0
 14 13  1  1
 14 15  1  0
 14 16  1  0
 16 18  2  0
 16 17  1  0
M  END
$$$$
