PAA.pdb
     RDKit          3D

 18 18  0  0  1  0  0  0  0  0999 V2000
   17.5358  -10.9370  -16.6883 N   0  0  0  0  0  0  0  0  0  0  0  0
   18.5819  -11.8525  -17.1183 C   0  0  0  0  0  0  0  0  0  0  0  0
   18.8874  -12.6817  -15.9031 C   0  0  0  0  0  0  0  0  0  0  0  0
   18.0432  -12.1293  -14.7690 C   0  0  0  0  0  0  0  0  0  0  0  0
   17.7424  -10.7298  -15.2693 C   0  0  1  0  0  0  0  0  0  0  0  0
   18.8955   -9.8257  -15.0351 C   0  0  0  0  0  0  0  0  0  0  0  0
   19.2397   -9.5923  -13.8517 O   0  0  0  0  0  0  0  0  0  0  0  0
   21.8092   -8.7237  -16.9430 C   0  0  0  0  0  0  0  0  0  0  0  0
   20.7792   -8.3722  -15.8646 C   0  0  2  0  0  0  0  0  0  0  0  0
   19.6317   -9.2098  -16.0677 N   0  0  0  0  0  0  0  0  0  0  0  0
   20.4755   -6.9322  -15.9939 C   0  0  0  0  0  0  0  0  0  0  0  0
   21.2852   -6.0101  -15.7436 O   0  0  0  0  0  0  0  0  0  0  0  0
   17.4639   -5.0427  -17.3162 C   0  0  0  0  0  0  0  0  0  0  0  0
   18.7778   -5.1844  -16.5380 C   0  0  2  0  0  0  0  0  0  0  0  0
   19.1697   -6.5752  -16.4340 N   0  0  0  0  0  0  0  0  0  0  0  0
   18.5057   -4.6035  -15.1856 C   0  0  0  0  0  0  0  0  0  0  0  0
   18.4825   -3.2254  -15.0299 O   0  0  0  0  0  0  0  0  0  0  0  0
   18.2972   -5.3162  -14.1842 O   0  0  0  0  0  0  0  0  0  0  0  0
  1  2  1  0
  1  5  1  0
  2  3  1  0
  3  4  1  0
  5  4  1  0
  5  6  1  6
  6  7  2  0
  9  8  1  6
  9 10  1  0
 10  6  1  0
 11 15  1  0
 11  9  1  0
 12 11  2  0
 14 13  1  6
 14 15  1  0
 14 16  1  0
 16 18  2  0
 16 17  1  0
M  END
$$$$
