PAA.pdb
     RDKit          3D

 18 18  0  0  1  0  0  0  0  0999 V2000
   22.6736  -11.4147  -15.9843 N   0  0  0  0  0  0  0  0  0  0  0  0
   24.0227  -11.4316  -15.4394 C   0  0  0  0  0  0  0  0  0  0  0  0
   23.9090  -10.7311  -14.1151 C   0  0  0  0  0  0  0  0  0  0  0  0
   22.4754  -10.2472  -13.9941 C   0  0  0  0  0  0  0  0  0  0  0  0
   22.0385  -10.2288  -15.4461 C   0  0  1  0  0  0  0  0  0  0  0  0
   22.5369   -9.0113  -16.1325 C   0  0  0  0  0  0  0  0  0  0  0  0
   23.7139   -8.6399  -15.9084 O   0  0  0  0  0  0  0  0  0  0  0  0
   21.4730   -6.9905  -19.0491 C   0  0  0  0  0  0  0  0  0  0  0  0
   22.2363   -7.0808  -17.7237 C   0  0  2  0  0  0  0  0  0  0  0  0
   21.7637   -8.2425  -17.0262 N   0  0  0  0  0  0  0  0  0  0  0  0
   21.9944   -5.8239  -16.9860 C   0  0  0  0  0  0  0  0  0  0  0  0
   22.4101   -4.6983  -17.3448 O   0  0  0  0  0  0  0  0  0  0  0  0
   19.5761   -4.7912  -14.3555 C   0  0  0  0  0  0  0  0  0  0  0  0
   20.9678   -4.7198  -14.9961 C   0  0  2  0  0  0  0  0  0  0  0  0
   21.2353   -5.9053  -15.7846 N   0  0  0  0  0  0  0  0  0  0  0  0
   21.9283   -4.6102  -13.8535 C   0  0  0  0  0  0  0  0  0  0  0  0
   22.0702   -3.3956  -13.1988 O   0  0  0  0  0  0  0  0  0  0  0  0
   22.6124   -5.5767  -13.4633 O   0  0  0  0  0  0  0  0  0  0  0  0
  1  2  1  0
  1  5  1  0
  2  3  1  0
  3  4  1  0
  5  4  1  0
  5  6  1  6
  6  7  2  0
  9  8  1  6
  9 10  1  0
 10  6  1  0
 11 15  1  0
 11  9  1  0
 12 11  2  0
 14 13  1  1
 14 15  1  0
 14 16  1  0
 16 18  2  0
 16 17  1  0
M  END
$$$$
