PAA.pdb
     RDKit          3D

 18 18  0  0  1  0  0  0  0  0999 V2000
   15.8591  -19.8146    3.3711 N   0  0  0  0  0  0  0  0  0  0  0  0
   17.2210  -19.9268    2.8711 C   0  0  0  0  0  0  0  0  0  0  0  0
   18.0651  -20.1151    4.0997 C   0  0  0  0  0  0  0  0  0  0  0  0
   17.1347  -20.0084    5.2942 C   0  0  0  0  0  0  0  0  0  0  0  0
   15.9652  -19.2474    4.7002 C   0  0  1  0  0  0  0  0  0  0  0  0
   16.2620  -17.7954    4.6270 C   0  0  0  0  0  0  0  0  0  0  0  0
   16.7782  -17.3443    3.5766 O   0  0  0  0  0  0  0  0  0  0  0  0
   15.3362  -14.8215    6.6922 C   0  0  0  0  0  0  0  0  0  0  0  0
   16.1743  -15.4658    5.5830 C   0  0  2  0  0  0  0  0  0  0  0  0
   15.9975  -16.8871    5.6723 N   0  0  0  0  0  0  0  0  0  0  0  0
   17.5755  -15.0426    5.7833 C   0  0  0  0  0  0  0  0  0  0  0  0
   18.4369  -15.7078    6.4030 O   0  0  0  0  0  0  0  0  0  0  0  0
   19.5629  -12.0459    4.5630 C   0  0  0  0  0  0  0  0  0  0  0  0
   19.2997  -13.2677    5.4520 C   0  0  2  0  0  0  0  0  0  0  0  0
   17.9669  -13.7905    5.2307 N   0  0  0  0  0  0  0  0  0  0  0  0
   19.4554  -12.7795    6.8583 C   0  0  0  0  0  0  0  0  0  0  0  0
   18.3251  -12.5722    7.6350 O   0  0  0  0  0  0  0  0  0  0  0  0
   20.5717  -12.5496    7.3638 O   0  0  0  0  0  0  0  0  0  0  0  0
  1  2  1  0
  1  5  1  0
  2  3  1  0
  3  4  1  0
  5  4  1  0
  5  6  1  6
  6  7  2  0
  9  8  1  1
  9 10  1  0
 10  6  1  0
 11 15  1  0
 11  9  1  0
 12 11  2  0
 14 13  1  6
 14 15  1  0
 14 16  1  0
 16 18  2  0
 16 17  1  0
M  END
$$$$
