PAA.pdb
     RDKit          3D

 18 18  0  0  1  0  0  0  0  0999 V2000
   42.8066  -11.3322   -6.2708 N   0  0  0  0  0  0  0  0  0  0  0  0
   43.7962  -11.2402   -7.3336 C   0  0  0  0  0  0  0  0  0  0  0  0
   44.3300   -9.8389   -7.2387 C   0  0  0  0  0  0  0  0  0  0  0  0
   43.5354   -9.1373   -6.1522 C   0  0  0  0  0  0  0  0  0  0  0  0
   42.2847   -9.9926   -6.0915 C   0  0  1  0  0  0  0  0  0  0  0  0
   41.3517   -9.6433   -7.1913 C   0  0  0  0  0  0  0  0  0  0  0  0
   41.7935   -9.6257   -8.3652 O   0  0  0  0  0  0  0  0  0  0  0  0
   37.6979   -8.7859   -7.4304 C   0  0  0  0  0  0  0  0  0  0  0  0
   39.1116   -8.8394   -8.0187 C   0  0  2  0  0  0  0  0  0  0  0  0
   39.9915   -9.3283   -6.9958 N   0  0  0  0  0  0  0  0  0  0  0  0
   39.4541   -7.4766   -8.4748 C   0  0  0  0  0  0  0  0  0  0  0  0
   39.9893   -6.6008   -7.7571 O   0  0  0  0  0  0  0  0  0  0  0  0
   39.7604   -5.9174  -11.8660 C   0  0  0  0  0  0  0  0  0  0  0  0
   39.4892   -5.8386  -10.3585 C   0  0  2  0  0  0  0  0  0  0  0  0
   39.1520   -7.1427   -9.8251 N   0  0  0  0  0  0  0  0  0  0  0  0
   38.3435   -4.8873  -10.2080 C   0  0  0  0  0  0  0  0  0  0  0  0
   38.5875   -3.5219  -10.2216 O   0  0  0  0  0  0  0  0  0  0  0  0
   37.1676   -5.2774  -10.0695 O   0  0  0  0  0  0  0  0  0  0  0  0
  1  2  1  0
  1  5  1  0
  2  3  1  0
  3  4  1  0
  5  4  1  0
  5  6  1  6
  6  7  2  0
  9  8  1  1
  9 10  1  0
 10  6  1  0
 11 15  1  0
 11  9  1  0
 12 11  2  0
 14 13  1  6
 14 15  1  0
 14 16  1  0
 16 18  2  0
 16 17  1  0
M  END
$$$$
