PAA.pdb
     RDKit          3D

 18 18  0  0  1  0  0  0  0  0999 V2000
   20.5089  -10.6815  -17.5743 N   0  0  0  0  0  0  0  0  0  0  0  0
   19.6576  -10.6788  -18.7544 C   0  0  0  0  0  0  0  0  0  0  0  0
   20.6087  -10.5636  -19.9117 C   0  0  0  0  0  0  0  0  0  0  0  0
   22.0000  -10.4086  -19.3250 C   0  0  0  0  0  0  0  0  0  0  0  0
   21.6855   -9.9130  -17.9268 C   0  0  1  0  0  0  0  0  0  0  0  0
   21.3783   -8.4613  -17.9372 C   0  0  0  0  0  0  0  0  0  0  0  0
   22.2853   -7.6622  -18.2721 O   0  0  0  0  0  0  0  0  0  0  0  0
   18.2955   -6.4207  -17.9808 C   0  0  0  0  0  0  0  0  0  0  0  0
   19.7876   -6.5285  -17.6496 C   0  0  2  0  0  0  0  0  0  0  0  0
   20.1220   -7.9229  -17.5917 N   0  0  0  0  0  0  0  0  0  0  0  0
   20.0096   -5.8259  -16.3692 C   0  0  0  0  0  0  0  0  0  0  0  0
   19.7292   -4.6231  -16.1608 O   0  0  0  0  0  0  0  0  0  0  0  0
   21.1534   -7.0085  -12.9524 C   0  0  0  0  0  0  0  0  0  0  0  0
   20.8505   -5.9517  -14.0218 C   0  0  2  0  0  0  0  0  0  0  0  0
   20.5824   -6.5742  -15.3023 N   0  0  0  0  0  0  0  0  0  0  0  0
   22.0735   -5.0918  -14.0914 C   0  0  0  0  0  0  0  0  0  0  0  0
   22.3540   -4.2231  -13.0471 O   0  0  0  0  0  0  0  0  0  0  0  0
   22.8574   -5.1258  -15.0602 O   0  0  0  0  0  0  0  0  0  0  0  0
  1  2  1  0
  1  5  1  0
  2  3  1  0
  3  4  1  0
  5  4  1  0
  5  6  1  6
  6  7  2  0
  9  8  1  1
  9 10  1  0
 10  6  1  0
 11 15  1  0
 11  9  1  0
 12 11  2  0
 14 13  1  1
 14 15  1  0
 14 16  1  0
 16 18  2  0
 16 17  1  0
M  END
$$$$
