PAA.pdb
     RDKit          3D

 18 18  0  0  1  0  0  0  0  0999 V2000
   24.5413  -12.8186  -19.2493 N   0  0  0  0  0  0  0  0  0  0  0  0
   23.3214  -12.4799  -19.9666 C   0  0  0  0  0  0  0  0  0  0  0  0
   23.6093  -11.1499  -20.6037 C   0  0  0  0  0  0  0  0  0  0  0  0
   24.9900  -10.7269  -20.1361 C   0  0  0  0  0  0  0  0  0  0  0  0
   25.1515  -11.5580  -18.8780 C   0  0  1  0  0  0  0  0  0  0  0  0
   24.4261  -10.9407  -17.7402 C   0  0  0  0  0  0  0  0  0  0  0  0
   23.1765  -11.0433  -17.7035 O   0  0  0  0  0  0  0  0  0  0  0  0
   25.4119   -9.6043  -14.4090 C   0  0  0  0  0  0  0  0  0  0  0  0
   24.3864   -9.7088  -15.5426 C   0  0  2  0  0  0  0  0  0  0  0  0
   25.0596  -10.2422  -16.6922 N   0  0  0  0  0  0  0  0  0  0  0  0
   23.8363   -8.3565  -15.7691 C   0  0  0  0  0  0  0  0  0  0  0  0
   24.3610   -7.4903  -16.5060 O   0  0  0  0  0  0  0  0  0  0  0  0
   20.4895   -6.8089  -15.1646 C   0  0  0  0  0  0  0  0  0  0  0  0
   22.0162   -6.7193  -15.2793 C   0  0  2  0  0  0  0  0  0  0  0  0
   22.6254   -8.0215  -15.1001 N   0  0  0  0  0  0  0  0  0  0  0  0
   22.4434   -5.7763  -14.1984 C   0  0  0  0  0  0  0  0  0  0  0  0
   22.2708   -4.4120  -14.3793 O   0  0  0  0  0  0  0  0  0  0  0  0
   22.9530   -6.1725  -13.1318 O   0  0  0  0  0  0  0  0  0  0  0  0
  1  2  1  0
  1  5  1  0
  2  3  1  0
  3  4  1  0
  5  4  1  0
  5  6  1  1
  6  7  2  0
  9  8  1  1
  9 10  1  0
 10  6  1  0
 11 15  1  0
 11  9  1  0
 12 11  2  0
 14 13  1  1
 14 15  1  0
 14 16  1  0
 16 18  2  0
 16 17  1  0
M  END
$$$$
