PAA.pdb
     RDKit          3D

 18 18  0  0  1  0  0  0  0  0999 V2000
   25.8409  -12.1879  -17.3197 N   0  0  0  0  0  0  0  0  0  0  0  0
   27.0527  -11.3834  -17.2781 C   0  0  0  0  0  0  0  0  0  0  0  0
   27.2570  -11.0748  -15.8219 C   0  0  0  0  0  0  0  0  0  0  0  0
   26.0685  -11.6556  -15.0774 C   0  0  0  0  0  0  0  0  0  0  0  0
   25.0411  -11.7672  -16.1871 C   0  0  1  0  0  0  0  0  0  0  0  0
   24.4068  -10.4526  -16.4543 C   0  0  0  0  0  0  0  0  0  0  0  0
   24.9797   -9.6633  -17.2430 O   0  0  0  0  0  0  0  0  0  0  0  0
   20.9713   -9.1696  -16.1185 C   0  0  0  0  0  0  0  0  0  0  0  0
   22.4653   -8.8589  -16.2564 C   0  0  2  0  0  0  0  0  0  0  0  0
   23.1927  -10.0346  -15.8721 N   0  0  0  0  0  0  0  0  0  0  0  0
   22.7564   -7.6914  -15.3991 C   0  0  0  0  0  0  0  0  0  0  0  0
   23.0123   -7.7553  -14.1748 O   0  0  0  0  0  0  0  0  0  0  0  0
   23.1845   -3.9957  -16.1686 C   0  0  0  0  0  0  0  0  0  0  0  0
   23.0584   -5.2177  -15.2504 C   0  0  2  0  0  0  0  0  0  0  0  0
   22.7435   -6.4078  -16.0142 N   0  0  0  0  0  0  0  0  0  0  0  0
   21.9539   -4.8877  -14.2957 C   0  0  0  0  0  0  0  0  0  0  0  0
   22.2527   -4.2303  -13.1115 O   0  0  0  0  0  0  0  0  0  0  0  0
   20.7647   -5.1833  -14.5252 O   0  0  0  0  0  0  0  0  0  0  0  0
  1  2  1  0
  1  5  1  0
  2  3  1  0
  3  4  1  0
  5  4  1  0
  5  6  1  6
  6  7  2  0
  9  8  1  1
  9 10  1  0
 10  6  1  0
 11 15  1  0
 11  9  1  0
 12 11  2  0
 14 13  1  6
 14 15  1  0
 14 16  1  0
 16 18  2  0
 16 17  1  0
M  END
$$$$
