PAA.pdb
     RDKit          3D

 18 18  0  0  1  0  0  0  0  0999 V2000
   24.3304    1.9041  -11.7371 N   0  0  0  0  0  0  0  0  0  0  0  0
   22.9731    1.8282  -11.2180 C   0  0  0  0  0  0  0  0  0  0  0  0
   22.7349    3.1646  -10.5739 C   0  0  0  0  0  0  0  0  0  0  0  0
   24.0359    3.9401  -10.6738 C   0  0  0  0  0  0  0  0  0  0  0  0
   25.0409    2.8216  -10.8696 C   0  0  1  0  0  0  0  0  0  0  0  0
   25.3673    2.1718   -9.5761 C   0  0  0  0  0  0  0  0  0  0  0  0
   24.7037    1.1652   -9.2302 O   0  0  0  0  0  0  0  0  0  0  0  0
   28.1738    2.4406   -7.1244 C   0  0  0  0  0  0  0  0  0  0  0  0
   26.7644    1.9634   -7.4896 C   0  0  2  0  0  0  0  0  0  0  0  0
   26.3835    2.6197   -8.7076 N   0  0  0  0  0  0  0  0  0  0  0  0
   25.8775    2.2895   -6.3540 C   0  0  0  0  0  0  0  0  0  0  0  0
   25.1791    3.3260   -6.2729 O   0  0  0  0  0  0  0  0  0  0  0  0
   24.7324    0.3069   -3.3423 C   0  0  0  0  0  0  0  0  0  0  0  0
   24.9643    1.5989   -4.1354 C   0  0  2  0  0  0  0  0  0  0  0  0
   25.8176    1.3564   -5.2808 N   0  0  0  0  0  0  0  0  0  0  0  0
   25.6146    2.5456   -3.1756 C   0  0  0  0  0  0  0  0  0  0  0  0
   24.8489    3.1412   -2.1843 O   0  0  0  0  0  0  0  0  0  0  0  0
   26.8289    2.8224   -3.2327 O   0  0  0  0  0  0  0  0  0  0  0  0
  1  2  1  0
  1  5  1  0
  2  3  1  0
  3  4  1  0
  5  4  1  0
  5  6  1  1
  6  7  2  0
  9  8  1  1
  9 10  1  0
 10  6  1  0
 11 15  1  0
 11  9  1  0
 12 11  2  0
 14 13  1  1
 14 15  1  0
 14 16  1  0
 16 18  2  0
 16 17  1  0
M  END
$$$$
