PAA.pdb
     RDKit          3D

 18 18  0  0  1  0  0  0  0  0999 V2000
   18.3583  -10.7133  -16.2556 N   0  0  0  0  0  0  0  0  0  0  0  0
   19.6781  -11.0719  -15.7585 C   0  0  0  0  0  0  0  0  0  0  0  0
   19.8674  -10.2258  -14.5314 C   0  0  0  0  0  0  0  0  0  0  0  0
   18.6504   -9.3249  -14.4253 C   0  0  0  0  0  0  0  0  0  0  0  0
   18.1375   -9.3393  -15.8523 C   0  0  1  0  0  0  0  0  0  0  0  0
   18.9212   -8.4116  -16.7049 C   0  0  0  0  0  0  0  0  0  0  0  0
   19.9514   -8.8487  -17.2715 O   0  0  0  0  0  0  0  0  0  0  0  0
   18.2768   -5.1600  -18.3460 C   0  0  0  0  0  0  0  0  0  0  0  0
   19.2880   -6.1635  -17.7821 C   0  0  2  0  0  0  0  0  0  0  0  0
   18.5763   -7.0613  -16.9180 N   0  0  0  0  0  0  0  0  0  0  0  0
   20.3345   -5.3919  -17.0805 C   0  0  0  0  0  0  0  0  0  0  0  0
   21.2193   -4.7132  -17.6507 O   0  0  0  0  0  0  0  0  0  0  0  0
   20.8847   -3.4256  -14.3443 C   0  0  0  0  0  0  0  0  0  0  0  0
   21.3747   -4.7693  -14.8981 C   0  0  2  0  0  0  0  0  0  0  0  0
   20.3308   -5.4269  -15.6575 N   0  0  0  0  0  0  0  0  0  0  0  0
   21.7551   -5.5806  -13.6992 C   0  0  0  0  0  0  0  0  0  0  0  0
   22.8576   -5.2048  -12.9461 O   0  0  0  0  0  0  0  0  0  0  0  0
   21.1140   -6.5904  -13.3476 O   0  0  0  0  0  0  0  0  0  0  0  0
  1  2  1  0
  1  5  1  0
  2  3  1  0
  3  4  1  0
  5  4  1  0
  5  6  1  6
  6  7  2  0
  9  8  1  1
  9 10  1  0
 10  6  1  0
 11 15  1  0
 11  9  1  0
 12 11  2  0
 14 13  1  1
 14 15  1  0
 14 16  1  0
 16 18  2  0
 16 17  1  0
M  END
$$$$
