RFW.pdb
     RDKit          3D

 37 39  0  0  1  0  0  0  0  0999 V2000
   30.7952  -24.5223  -15.6490 N   0  0  0  0  0  0  0  0  0  0  0  0
   31.3922  -25.0761  -16.8175 C   0  0  0  0  0  0  0  0  0  0  0  0
   32.6193  -25.5272  -16.7543 N   0  0  0  0  0  0  0  0  0  0  0  0
   30.7226  -25.1676  -18.0613 N   0  0  0  0  0  0  0  0  0  0  0  0
   29.3401  -24.7379  -18.1363 C   0  0  0  0  0  0  0  0  0  0  0  0
   29.1722  -23.2848  -17.7107 C   0  0  0  0  0  0  0  0  0  0  0  0
   27.9665  -23.2474  -16.8147 C   0  0  0  0  0  0  0  0  0  0  0  0
   27.6073  -21.9027  -16.2917 C   0  0  2  0  0  0  0  0  0  0  0  0
   28.6548  -20.9353  -16.2747 N   0  0  0  0  0  0  0  0  0  0  0  0
   26.9197  -22.0124  -14.9618 C   0  0  0  0  0  0  0  0  0  0  0  0
   25.8871  -22.7078  -14.8156 O   0  0  0  0  0  0  0  0  0  0  0  0
   33.0873  -25.9304  -17.5964 N   0  0  0  0  0  0  0  0  0  0  0  0
   27.4342  -21.3203  -13.8321 C   0  0  1  0  0  0  0  0  0  0  0  0
   26.7900  -21.1151  -12.5836 C   0  0  0  0  0  0  0  0  0  0  0  0
   27.7046  -20.7590  -11.4231 C   0  0  0  0  0  0  0  0  0  0  0  0
   26.9020  -20.4682  -10.2200 C   0  0  0  0  0  0  0  0  0  0  0  0
   26.5170  -21.5575   -9.4458 C   0  0  0  0  0  0  0  0  0  0  0  0
   25.7561  -21.4307   -8.3045 C   0  0  0  0  0  0  0  0  0  0  0  0
   25.3527  -20.1755   -7.9022 C   0  0  0  0  0  0  0  0  0  0  0  0
   25.7186  -19.0810   -8.6484 C   0  0  0  0  0  0  0  0  0  0  0  0
   26.4857  -19.2441   -9.7933 C   0  0  0  0  0  0  0  0  0  0  0  0
   25.5972  -20.2559  -12.6531 O   0  0  0  0  0  0  0  0  0  0  0  0
   25.6869  -19.0065  -12.7646 N   0  0  0  0  0  0  0  0  0  0  0  0
   24.3075  -20.8299  -12.5955 C   0  0  1  0  0  0  0  0  0  0  0  0
   23.1470  -19.9737  -12.6687 C   0  0  0  0  0  0  0  0  0  0  0  0
   23.2150  -19.2805  -14.0205 C   0  0  0  0  0  0  0  0  0  0  0  0
   22.2307  -19.7864  -14.9883 C   0  0  0  0  0  0  0  0  0  0  0  0
   20.9027  -20.1312  -14.7950 N   0  0  0  0  0  0  0  0  0  0  0  0
   20.3838  -20.5486  -15.9617 C   0  0  0  0  0  0  0  0  0  0  0  0
   21.3530  -20.4815  -16.9141 C   0  0  0  0  0  0  0  0  0  0  0  0
   21.3556  -20.7902  -18.2717 C   0  0  0  0  0  0  0  0  0  0  0  0
   22.4947  -20.6309  -19.0342 C   0  0  0  0  0  0  0  0  0  0  0  0
   23.6492  -20.1589  -18.4452 C   0  0  0  0  0  0  0  0  0  0  0  0
   23.6579  -19.8500  -17.1016 C   0  0  0  0  0  0  0  0  0  0  0  0
   22.5061  -20.0106  -16.3280 C   0  0  0  0  0  0  0  0  0  0  0  0
   21.8918  -20.7605  -12.5324 O   0  0  0  0  0  0  0  0  0  0  0  0
   21.8028  -21.9862  -12.7608 O   0  0  0  0  0  0  0  0  0  0  0  0
  2  3  2  0
  2  1  1  0
  4  2  1  0
  5  4  1  0
  6  5  1  0
  7  6  1  0
  8 10  1  0
  8  7  1  0
  8  9  1  1
 10 12  1  0
 11 10  2  0
 12 13  1  0
 13 14  1  1
 13 21  1  0
 15 14  1  0
 16 15  2  0
 17 16  1  0
 18 17  2  0
 18 19  1  0
 19 20  2  0
 20 15  1  0
 21 23  1  0
 21 22  2  0
 23 24  1  0
 24 35  1  0
 24 25  1  1
 26 27  2  0
 26 25  1  0
 28 27  1  0
 29 34  2  0
 29 28  1  0
 30 29  1  0
 31 32  1  0
 31 30  2  0
 32 33  2  0
 33 34  1  0
 34 26  1  0
 35 37  1  0
 36 35  2  0
M  END
$$$$
