RFW.pdb
     RDKit          3D

 37 39  0  0  1  0  0  0  0  0999 V2000
   26.2431  -22.2387  -21.8417 N   0  0  0  0  0  0  0  0  0  0  0  0
   26.4353  -23.5138  -21.2371 C   0  0  0  0  0  0  0  0  0  0  0  0
   26.3310  -24.5910  -21.9731 N   0  0  0  0  0  0  0  0  0  0  0  0
   26.7375  -23.6833  -19.8646 N   0  0  0  0  0  0  0  0  0  0  0  0
   26.6690  -22.5272  -18.9928 C   0  0  0  0  0  0  0  0  0  0  0  0
   28.0514  -22.0709  -18.5436 C   0  0  0  0  0  0  0  0  0  0  0  0
   28.0907  -22.2589  -17.0532 C   0  0  0  0  0  0  0  0  0  0  0  0
   26.9837  -21.6086  -16.3033 C   0  0  2  0  0  0  0  0  0  0  0  0
   26.7917  -20.2171  -16.5485 N   0  0  0  0  0  0  0  0  0  0  0  0
   27.0794  -21.9146  -14.8367 C   0  0  0  0  0  0  0  0  0  0  0  0
   27.3460  -23.0686  -14.4262 O   0  0  0  0  0  0  0  0  0  0  0  0
   26.4675  -25.5399  -21.5587 N   0  0  0  0  0  0  0  0  0  0  0  0
   26.8660  -20.8882  -13.8772 C   0  0  1  0  0  0  0  0  0  0  0  0
   26.9146  -21.0100  -12.4635 C   0  0  0  0  0  0  0  0  0  0  0  0
   27.6892  -19.9229  -11.7366 C   0  0  0  0  0  0  0  0  0  0  0  0
   27.6019  -20.1311  -10.2788 C   0  0  0  0  0  0  0  0  0  0  0  0
   26.5050  -19.5729   -9.6311 C   0  0  0  0  0  0  0  0  0  0  0  0
   26.3062  -19.6798   -8.2722 C   0  0  0  0  0  0  0  0  0  0  0  0
   27.2271  -20.3670   -7.5108 C   0  0  0  0  0  0  0  0  0  0  0  0
   28.3209  -20.9288   -8.1244 C   0  0  0  0  0  0  0  0  0  0  0  0
   28.4910  -20.8021   -9.4959 C   0  0  0  0  0  0  0  0  0  0  0  0
   25.6148  -21.2992  -11.8368 O   0  0  0  0  0  0  0  0  0  0  0  0
   25.4437  -21.2064  -10.5944 N   0  0  0  0  0  0  0  0  0  0  0  0
   24.5168  -21.6924  -12.6342 C   0  0  1  0  0  0  0  0  0  0  0  0
   23.3037  -20.9098  -12.6051 C   0  0  0  0  0  0  0  0  0  0  0  0
   23.6664  -19.5428  -13.1639 C   0  0  0  0  0  0  0  0  0  0  0  0
   22.6027  -18.9439  -13.9832 C   0  0  0  0  0  0  0  0  0  0  0  0
   21.2286  -18.9855  -13.8096 N   0  0  0  0  0  0  0  0  0  0  0  0
   20.6402  -18.2995  -14.8035 C   0  0  0  0  0  0  0  0  0  0  0  0
   21.6093  -17.8103  -15.6235 C   0  0  0  0  0  0  0  0  0  0  0  0
   21.5556  -17.0434  -16.7841 C   0  0  0  0  0  0  0  0  0  0  0  0
   22.7092  -16.6706  -17.4434 C   0  0  0  0  0  0  0  0  0  0  0  0
   23.9351  -17.0624  -16.9473 C   0  0  0  0  0  0  0  0  0  0  0  0
   24.0002  -17.8221  -15.7986 C   0  0  0  0  0  0  0  0  0  0  0  0
   22.8337  -18.2005  -15.1299 C   0  0  0  0  0  0  0  0  0  0  0  0
   22.2326  -21.5522  -13.4134 O   0  0  0  0  0  0  0  0  0  0  0  0
   22.4438  -22.2819  -14.4061 O   0  0  0  0  0  0  0  0  0  0  0  0
  2  3  2  0
  2  1  1  0
  4  2  1  0
  5  4  1  0
  6  5  1  0
  7  6  1  0
  8 10  1  0
  8  7  1  0
  8  9  1  1
 10 12  1  0
 11 10  2  0
 12 13  1  0
 13 14  1  1
 13 21  1  0
 15 14  1  0
 16 15  2  0
 17 16  1  0
 18 17  2  0
 18 19  1  0
 19 20  2  0
 20 15  1  0
 21 23  1  0
 21 22  2  0
 23 24  1  0
 24 35  1  0
 24 25  1  1
 26 27  2  0
 26 25  1  0
 28 27  1  0
 29 34  2  0
 29 28  1  0
 30 29  1  0
 31 32  1  0
 31 30  2  0
 32 33  2  0
 33 34  1  0
 34 26  1  0
 35 37  1  0
 36 35  2  0
M  END
$$$$
