RFW.pdb
     RDKit          3D

 37 39  0  0  1  0  0  0  0  0999 V2000
   28.1391  -19.0445  -17.5168 N   0  0  0  0  0  0  0  0  0  0  0  0
   26.8163  -18.8392  -17.0304 C   0  0  0  0  0  0  0  0  0  0  0  0
   25.8013  -19.0823  -17.8202 N   0  0  0  0  0  0  0  0  0  0  0  0
   26.5341  -18.3806  -15.7213 N   0  0  0  0  0  0  0  0  0  0  0  0
   27.6116  -18.3480  -14.7521 C   0  0  0  0  0  0  0  0  0  0  0  0
   28.0308  -19.7475  -14.3201 C   0  0  0  0  0  0  0  0  0  0  0  0
   27.3304  -20.0109  -13.0170 C   0  0  0  0  0  0  0  0  0  0  0  0
   27.6970  -21.2869  -12.3475 C   0  0  2  0  0  0  0  0  0  0  0  0
   27.5013  -22.4753  -13.1109 N   0  0  0  0  0  0  0  0  0  0  0  0
   27.0645  -21.3789  -10.9892 C   0  0  0  0  0  0  0  0  0  0  0  0
   26.0568  -22.0960  -10.7849 O   0  0  0  0  0  0  0  0  0  0  0  0
   24.8193  -18.9647  -17.4845 N   0  0  0  0  0  0  0  0  0  0  0  0
   27.6042  -20.6449   -9.8984 C   0  0  2  0  0  0  0  0  0  0  0  0
   26.9037  -20.1434   -8.7698 C   0  0  0  0  0  0  0  0  0  0  0  0
   27.6822  -19.1812   -7.8877 C   0  0  0  0  0  0  0  0  0  0  0  0
   28.0965  -19.8599   -6.6451 C   0  0  0  0  0  0  0  0  0  0  0  0
   27.2679  -19.7024   -5.5393 C   0  0  0  0  0  0  0  0  0  0  0  0
   27.5414  -20.2701   -4.3143 C   0  0  0  0  0  0  0  0  0  0  0  0
   28.6823  -21.0291   -4.1656 C   0  0  0  0  0  0  0  0  0  0  0  0
   29.5197  -21.2014   -5.2417 C   0  0  0  0  0  0  0  0  0  0  0  0
   29.2144  -20.6152   -6.4619 C   0  0  0  0  0  0  0  0  0  0  0  0
   25.5418  -19.6704   -9.0651 O   0  0  0  0  0  0  0  0  0  0  0  0
   25.3321  -18.5641   -9.6251 N   0  0  0  0  0  0  0  0  0  0  0  0
   24.4262  -20.4654   -8.7191 C   0  0  1  0  0  0  0  0  0  0  0  0
   23.1373  -20.1680   -9.2984 C   0  0  0  0  0  0  0  0  0  0  0  0
   23.3048  -20.3099  -10.8031 C   0  0  0  0  0  0  0  0  0  0  0  0
   22.0706  -20.0463  -11.5572 C   0  0  0  0  0  0  0  0  0  0  0  0
   20.9348  -19.3521  -11.1724 N   0  0  0  0  0  0  0  0  0  0  0  0
   20.0505  -19.3634  -12.1836 C   0  0  0  0  0  0  0  0  0  0  0  0
   20.5916  -20.0544  -13.2230 C   0  0  0  0  0  0  0  0  0  0  0  0
   20.1121  -20.3648  -14.4927 C   0  0  0  0  0  0  0  0  0  0  0  0
   20.8742  -21.0962  -15.3806 C   0  0  0  0  0  0  0  0  0  0  0  0
   22.1301  -21.5275  -15.0074 C   0  0  0  0  0  0  0  0  0  0  0  0
   22.6150  -21.2259  -13.7525 C   0  0  0  0  0  0  0  0  0  0  0  0
   21.8451  -20.4857  -12.8523 C   0  0  0  0  0  0  0  0  0  0  0  0
   22.0932  -21.0953   -8.7856 O   0  0  0  0  0  0  0  0  0  0  0  0
   20.8753  -20.8195   -8.7289 O   0  0  0  0  0  0  0  0  0  0  0  0
  2  3  2  0
  2  1  1  0
  4  2  1  0
  5  4  1  0
  6  5  1  0
  7  6  1  0
  8 10  1  0
  8  7  1  0
  8  9  1  6
 10 12  1  0
 11 10  2  0
 12 13  1  0
 13 14  1  6
 13 21  1  0
 15 14  1  0
 16 15  2  0
 17 16  1  0
 18 17  2  0
 18 19  1  0
 19 20  2  0
 20 15  1  0
 21 23  1  0
 21 22  2  0
 23 24  1  0
 24 35  1  0
 24 25  1  1
 26 27  2  0
 26 25  1  0
 28 27  1  0
 29 34  2  0
 29 28  1  0
 30 29  1  0
 31 32  1  0
 31 30  2  0
 32 33  2  0
 33 34  1  0
 34 26  1  0
 35 37  1  0
 36 35  2  0
M  END
$$$$
