RFW.pdb
     RDKit          3D

 37 39  0  0  1  0  0  0  0  0999 V2000
   27.1422  -35.2348  -19.9249 N   0  0  0  0  0  0  0  0  0  0  0  0
   26.4768  -36.3579  -19.3552 C   0  0  0  0  0  0  0  0  0  0  0  0
   26.8532  -37.5637  -19.6981 N   0  0  0  0  0  0  0  0  0  0  0  0
   25.4162  -36.2409  -18.4252 N   0  0  0  0  0  0  0  0  0  0  0  0
   25.1454  -34.9408  -17.8440 C   0  0  0  0  0  0  0  0  0  0  0  0
   23.9571  -34.9799  -16.8915 C   0  0  0  0  0  0  0  0  0  0  0  0
   23.7529  -33.5683  -16.4183 C   0  0  0  0  0  0  0  0  0  0  0  0
   24.6396  -33.1391  -15.3047 C   0  0  2  0  0  0  0  0  0  0  0  0
   24.3187  -33.6517  -14.0133 N   0  0  0  0  0  0  0  0  0  0  0  0
   24.8010  -31.6466  -15.2945 C   0  0  0  0  0  0  0  0  0  0  0  0
   24.1228  -30.9214  -14.5295 O   0  0  0  0  0  0  0  0  0  0  0  0
   26.4320  -38.4063  -19.2472 N   0  0  0  0  0  0  0  0  0  0  0  0
   25.7369  -31.0232  -16.1636 C   0  0  2  0  0  0  0  0  0  0  0  0
   26.0133  -29.6350  -16.2751 C   0  0  0  0  0  0  0  0  0  0  0  0
   27.4290  -29.2790  -16.6983 C   0  0  0  0  0  0  0  0  0  0  0  0
   27.5224  -27.8339  -16.9797 C   0  0  0  0  0  0  0  0  0  0  0  0
   27.5346  -27.4561  -18.3181 C   0  0  0  0  0  0  0  0  0  0  0  0
   27.6307  -26.1427  -18.7224 C   0  0  0  0  0  0  0  0  0  0  0  0
   27.7190  -25.1512  -17.7688 C   0  0  0  0  0  0  0  0  0  0  0  0
   27.7094  -25.4958  -16.4385 C   0  0  0  0  0  0  0  0  0  0  0  0
   27.6116  -26.8289  -16.0655 C   0  0  0  0  0  0  0  0  0  0  0  0
   24.9907  -28.8723  -17.0088 O   0  0  0  0  0  0  0  0  0  0  0  0
   24.6601  -29.1699  -18.1851 N   0  0  0  0  0  0  0  0  0  0  0  0
   24.3507  -27.7733  -16.3935 C   0  0  1  0  0  0  0  0  0  0  0  0
   23.2333  -27.1424  -17.0557 C   0  0  0  0  0  0  0  0  0  0  0  0
   22.0146  -27.4190  -16.1891 C   0  0  0  0  0  0  0  0  0  0  0  0
   21.7804  -26.3925  -15.1631 C   0  0  0  0  0  0  0  0  0  0  0  0
   21.9828  -25.0231  -15.2252 N   0  0  0  0  0  0  0  0  0  0  0  0
   21.6345  -24.4747  -14.0494 C   0  0  0  0  0  0  0  0  0  0  0  0
   21.2076  -25.4653  -13.2202 C   0  0  0  0  0  0  0  0  0  0  0  0
   20.7407  -25.4532  -11.9087 C   0  0  0  0  0  0  0  0  0  0  0  0
   20.3622  -26.6211  -11.2786 C   0  0  0  0  0  0  0  0  0  0  0  0
   20.4467  -27.8197  -11.9560 C   0  0  0  0  0  0  0  0  0  0  0  0
   20.9076  -27.8434  -13.2552 C   0  0  0  0  0  0  0  0  0  0  0  0
   21.2912  -26.6623  -13.8947 C   0  0  0  0  0  0  0  0  0  0  0  0
   23.4593  -25.6804  -17.2116 O   0  0  0  0  0  0  0  0  0  0  0  0
   22.8124  -24.9489  -17.9920 O   0  0  0  0  0  0  0  0  0  0  0  0
  2  3  2  0
  2  1  1  0
  4  2  1  0
  5  4  1  0
  6  5  1  0
  7  6  1  0
  8 10  1  0
  8  7  1  0
  8  9  1  1
 10 12  1  0
 11 10  2  0
 12 13  1  0
 13 14  1  1
 13 21  1  0
 15 14  1  0
 16 15  2  0
 17 16  1  0
 18 17  2  0
 18 19  1  0
 19 20  2  0
 20 15  1  0
 21 23  1  0
 21 22  2  0
 23 24  1  0
 24 35  1  0
 24 25  1  6
 26 27  2  0
 26 25  1  0
 28 27  1  0
 29 34  2  0
 29 28  1  0
 30 29  1  0
 31 32  1  0
 31 30  2  0
 32 33  2  0
 33 34  1  0
 34 26  1  0
 35 37  1  0
 36 35  2  0
M  END
$$$$
