RFW.pdb
     RDKit          3D

 37 39  0  0  1  0  0  0  0  0999 V2000
   31.3638  -22.0565  -19.6139 N   0  0  0  0  0  0  0  0  0  0  0  0
   31.4890  -23.2709  -18.8804 C   0  0  0  0  0  0  0  0  0  0  0  0
   32.6721  -23.8129  -18.7412 N   0  0  0  0  0  0  0  0  0  0  0  0
   30.3891  -23.9336  -18.2846 N   0  0  0  0  0  0  0  0  0  0  0  0
   29.0526  -23.6001  -18.7363 C   0  0  0  0  0  0  0  0  0  0  0  0
   28.7493  -22.1166  -18.5691 C   0  0  0  0  0  0  0  0  0  0  0  0
   27.5923  -22.0307  -17.6141 C   0  0  0  0  0  0  0  0  0  0  0  0
   27.4889  -23.1509  -16.6418 C   0  0  2  0  0  0  0  0  0  0  0  0
   27.1086  -24.4158  -17.1794 N   0  0  0  0  0  0  0  0  0  0  0  0
   26.6424  -22.7611  -15.4650 C   0  0  0  0  0  0  0  0  0  0  0  0
   25.4372  -23.0967  -15.3874 O   0  0  0  0  0  0  0  0  0  0  0  0
   32.7837  -24.7525  -18.2990 N   0  0  0  0  0  0  0  0  0  0  0  0
   27.2003  -21.9948  -14.4061 C   0  0  1  0  0  0  0  0  0  0  0  0
   26.5503  -21.5713  -13.2169 C   0  0  0  0  0  0  0  0  0  0  0  0
   27.4654  -21.0805  -12.1071 C   0  0  0  0  0  0  0  0  0  0  0  0
   26.6642  -20.6651  -10.9402 C   0  0  0  0  0  0  0  0  0  0  0  0
   26.2015  -21.6771  -10.1059 C   0  0  0  0  0  0  0  0  0  0  0  0
   25.4327  -21.4316   -8.9896 C   0  0  0  0  0  0  0  0  0  0  0  0
   25.1010  -20.1311   -8.6754 C   0  0  0  0  0  0  0  0  0  0  0  0
   25.5444  -19.1109   -9.4824 C   0  0  0  0  0  0  0  0  0  0  0  0
   26.3173  -19.3933  -10.5999 C   0  0  0  0  0  0  0  0  0  0  0  0
   25.3994  -20.6821  -13.4412 O   0  0  0  0  0  0  0  0  0  0  0  0
   25.5419  -19.5144  -13.8859 N   0  0  0  0  0  0  0  0  0  0  0  0
   24.0910  -21.1327  -13.1565 C   0  0  1  0  0  0  0  0  0  0  0  0
   22.9863  -20.2079  -13.2531 C   0  0  0  0  0  0  0  0  0  0  0  0
   22.8842  -19.8196  -14.7198 C   0  0  0  0  0  0  0  0  0  0  0  0
   22.4645  -20.9270  -15.5910 C   0  0  0  0  0  0  0  0  0  0  0  0
   21.5075  -21.9049  -15.3727 N   0  0  0  0  0  0  0  0  0  0  0  0
   21.4589  -22.7170  -16.4418 C   0  0  0  0  0  0  0  0  0  0  0  0
   22.3697  -22.2842  -17.3549 C   0  0  0  0  0  0  0  0  0  0  0  0
   22.7272  -22.7525  -18.6163 C   0  0  0  0  0  0  0  0  0  0  0  0
   23.7046  -22.1207  -19.3579 C   0  0  0  0  0  0  0  0  0  0  0  0
   24.3384  -21.0085  -18.8441 C   0  0  0  0  0  0  0  0  0  0  0  0
   23.9922  -20.5360  -17.5960 C   0  0  0  0  0  0  0  0  0  0  0  0
   23.0033  -21.1741  -16.8439 C   0  0  0  0  0  0  0  0  0  0  0  0
   21.7231  -20.8309  -12.7745 O   0  0  0  0  0  0  0  0  0  0  0  0
   21.6246  -22.0185  -12.3970 O   0  0  0  0  0  0  0  0  0  0  0  0
  2  3  2  0
  2  1  1  0
  4  2  1  0
  5  4  1  0
  6  5  1  0
  7  6  1  0
  8 10  1  0
  8  7  1  0
  8  9  1  6
 10 12  1  0
 11 10  2  0
 12 13  1  0
 13 14  1  1
 13 21  1  0
 15 14  1  0
 16 15  2  0
 17 16  1  0
 18 17  2  0
 18 19  1  0
 19 20  2  0
 20 15  1  0
 21 23  1  0
 21 22  2  0
 23 24  1  0
 24 35  1  0
 24 25  1  1
 26 27  2  0
 26 25  1  0
 28 27  1  0
 29 34  2  0
 29 28  1  0
 30 29  1  0
 31 32  1  0
 31 30  2  0
 32 33  2  0
 33 34  1  0
 34 26  1  0
 35 37  1  0
 36 35  2  0
M  END
$$$$
