RFW.pdb
     RDKit          3D

 37 39  0  0  1  0  0  0  0  0999 V2000
   13.8301  -22.0828   -5.6807 N   0  0  0  0  0  0  0  0  0  0  0  0
   13.8065  -22.9501   -6.8103 C   0  0  0  0  0  0  0  0  0  0  0  0
   13.4079  -22.4819   -7.9657 N   0  0  0  0  0  0  0  0  0  0  0  0
   14.1962  -24.3097   -6.7520 N   0  0  0  0  0  0  0  0  0  0  0  0
   14.9874  -24.7551   -5.6220 C   0  0  0  0  0  0  0  0  0  0  0  0
   16.4085  -25.1206   -6.0315 C   0  0  0  0  0  0  0  0  0  0  0  0
   17.0912  -25.6085   -4.7849 C   0  0  0  0  0  0  0  0  0  0  0  0
   17.4069  -27.0613   -4.7627 C   0  0  2  0  0  0  0  0  0  0  0  0
   16.4902  -27.9135   -5.4461 N   0  0  0  0  0  0  0  0  0  0  0  0
   17.6740  -27.5292   -3.3616 C   0  0  0  0  0  0  0  0  0  0  0  0
   16.8150  -28.1705   -2.7120 O   0  0  0  0  0  0  0  0  0  0  0  0
   13.3838  -23.0921   -8.8130 N   0  0  0  0  0  0  0  0  0  0  0  0
   18.9210  -27.2487   -2.7402 C   0  0  2  0  0  0  0  0  0  0  0  0
   19.1989  -27.2143   -1.3482 C   0  0  0  0  0  0  0  0  0  0  0  0
   20.6419  -26.9190   -0.9734 C   0  0  0  0  0  0  0  0  0  0  0  0
   20.8024  -26.9705    0.4921 C   0  0  0  0  0  0  0  0  0  0  0  0
   20.9185  -25.7521    1.1526 C   0  0  0  0  0  0  0  0  0  0  0  0
   21.0856  -25.6550    2.5165 C   0  0  0  0  0  0  0  0  0  0  0  0
   21.1418  -26.8078    3.2700 C   0  0  0  0  0  0  0  0  0  0  0  0
   21.0301  -28.0260    2.6436 C   0  0  0  0  0  0  0  0  0  0  0  0
   20.8627  -28.0881    1.2674 C   0  0  0  0  0  0  0  0  0  0  0  0
   18.2339  -26.4326   -0.5586 O   0  0  0  0  0  0  0  0  0  0  0  0
   17.4142  -25.6490   -1.1023 N   0  0  0  0  0  0  0  0  0  0  0  0
   18.2108  -26.5511    0.8491 C   0  0  2  0  0  0  0  0  0  0  0  0
   16.9421  -26.6576    1.5304 C   0  0  0  0  0  0  0  0  0  0  0  0
   15.8717  -26.5255    0.4584 C   0  0  0  0  0  0  0  0  0  0  0  0
   15.3599  -25.1555    0.3073 C   0  0  0  0  0  0  0  0  0  0  0  0
   15.3160  -24.1250    1.2326 N   0  0  0  0  0  0  0  0  0  0  0  0
   14.7605  -23.0446    0.6592 C   0  0  0  0  0  0  0  0  0  0  0  0
   14.4411  -23.3539   -0.6266 C   0  0  0  0  0  0  0  0  0  0  0  0
   13.8526  -22.6154   -1.6495 C   0  0  0  0  0  0  0  0  0  0  0  0
   13.6313  -23.1736   -2.8920 C   0  0  0  0  0  0  0  0  0  0  0  0
   13.9975  -24.4825   -3.1266 C   0  0  0  0  0  0  0  0  0  0  0  0
   14.5812  -25.2232   -2.1208 C   0  0  0  0  0  0  0  0  0  0  0  0
   14.8060  -24.6600   -0.8625 C   0  0  0  0  0  0  0  0  0  0  0  0
   16.8262  -27.9565    2.2463 O   0  0  0  0  0  0  0  0  0  0  0  0
   17.1231  -29.0630    1.7464 O   0  0  0  0  0  0  0  0  0  0  0  0
  2  3  2  0
  2  1  1  0
  4  2  1  0
  5  4  1  0
  6  5  1  0
  7  6  1  0
  8 10  1  0
  8  7  1  0
  8  9  1  1
 10 12  1  0
 11 10  2  0
 12 13  1  0
 13 14  1  6
 13 21  1  0
 15 14  1  0
 16 15  2  0
 17 16  1  0
 18 17  2  0
 18 19  1  0
 19 20  2  0
 20 15  1  0
 21 23  1  0
 21 22  2  0
 23 24  1  0
 24 35  1  0
 24 25  1  1
 26 27  2  0
 26 25  1  0
 28 27  1  0
 29 34  2  0
 29 28  1  0
 30 29  1  0
 31 32  1  0
 31 30  2  0
 32 33  2  0
 33 34  1  0
 34 26  1  0
 35 37  1  0
 36 35  2  0
M  END
$$$$
