RFW.pdb
     RDKit          3D

 37 39  0  0  1  0  0  0  0  0999 V2000
   26.5658  -19.9296  -21.4037 N   0  0  0  0  0  0  0  0  0  0  0  0
   27.6490  -19.4701  -20.6013 C   0  0  0  0  0  0  0  0  0  0  0  0
   28.6964  -18.9444  -21.1840 N   0  0  0  0  0  0  0  0  0  0  0  0
   27.6558  -19.5513  -19.1881 N   0  0  0  0  0  0  0  0  0  0  0  0
   26.4845  -20.0828  -18.5196 C   0  0  0  0  0  0  0  0  0  0  0  0
   26.6715  -21.5402  -18.1173 C   0  0  0  0  0  0  0  0  0  0  0  0
   26.1326  -21.6613  -16.7197 C   0  0  0  0  0  0  0  0  0  0  0  0
   26.9075  -20.9380  -15.6771 C   0  0  2  0  0  0  0  0  0  0  0  0
   28.3257  -20.9520  -15.8260 N   0  0  0  0  0  0  0  0  0  0  0  0
   26.4809  -21.3636  -14.3022 C   0  0  0  0  0  0  0  0  0  0  0  0
   25.4414  -22.0403  -14.1210 O   0  0  0  0  0  0  0  0  0  0  0  0
   29.5448  -18.6859  -20.6324 N   0  0  0  0  0  0  0  0  0  0  0  0
   27.2580  -21.0013  -13.1688 C   0  0  2  0  0  0  0  0  0  0  0  0
   26.8401  -20.9793  -11.8120 C   0  0  0  0  0  0  0  0  0  0  0  0
   27.9305  -20.6908  -10.7933 C   0  0  0  0  0  0  0  0  0  0  0  0
   27.3435  -20.5809   -9.4444 C   0  0  0  0  0  0  0  0  0  0  0  0
   27.1248  -19.2958   -8.9594 C   0  0  0  0  0  0  0  0  0  0  0  0
   26.5949  -19.0486   -7.7122 C   0  0  0  0  0  0  0  0  0  0  0  0
   26.2630  -20.1121   -6.9006 C   0  0  0  0  0  0  0  0  0  0  0  0
   26.4685  -21.3931   -7.3541 C   0  0  0  0  0  0  0  0  0  0  0  0
   27.0046  -21.6069   -8.6162 C   0  0  0  0  0  0  0  0  0  0  0  0
   25.6143  -20.2017  -11.5699 O   0  0  0  0  0  0  0  0  0  0  0  0
   25.5908  -18.9497  -11.6861 N   0  0  0  0  0  0  0  0  0  0  0  0
   24.4211  -20.8597  -11.1966 C   0  0  1  0  0  0  0  0  0  0  0  0
   23.3135  -20.0847  -10.6890 C   0  0  0  0  0  0  0  0  0  0  0  0
   22.7592  -19.3092  -11.8739 C   0  0  0  0  0  0  0  0  0  0  0  0
   22.1973  -20.1692  -12.9256 C   0  0  0  0  0  0  0  0  0  0  0  0
   21.2452  -21.1712  -12.8284 N   0  0  0  0  0  0  0  0  0  0  0  0
   21.0353  -21.6962  -14.0470 C   0  0  0  0  0  0  0  0  0  0  0  0
   21.8359  -21.0520  -14.9387 C   0  0  0  0  0  0  0  0  0  0  0  0
   22.0151  -21.1963  -16.3117 C   0  0  0  0  0  0  0  0  0  0  0  0
   22.9098  -20.4014  -16.9987 C   0  0  0  0  0  0  0  0  0  0  0  0
   23.6386  -19.4490  -16.3175 C   0  0  0  0  0  0  0  0  0  0  0  0
   23.4692  -19.2974  -14.9576 C   0  0  0  0  0  0  0  0  0  0  0  0
   22.5641  -20.1010  -14.2604 C   0  0  0  0  0  0  0  0  0  0  0  0
   22.2739  -20.9648  -10.0909 O   0  0  0  0  0  0  0  0  0  0  0  0
   22.3380  -22.2130  -10.0689 O   0  0  0  0  0  0  0  0  0  0  0  0
  2  3  2  0
  2  1  1  0
  4  2  1  0
  5  4  1  0
  6  5  1  0
  7  6  1  0
  8 10  1  0
  8  7  1  0
  8  9  1  6
 10 12  1  0
 11 10  2  0
 12 13  1  0
 13 14  1  6
 13 21  1  0
 15 14  1  0
 16 15  2  0
 17 16  1  0
 18 17  2  0
 18 19  1  0
 19 20  2  0
 20 15  1  0
 21 23  1  0
 21 22  2  0
 23 24  1  0
 24 35  1  0
 24 25  1  1
 26 27  2  0
 26 25  1  0
 28 27  1  0
 29 34  2  0
 29 28  1  0
 30 29  1  0
 31 32  1  0
 31 30  2  0
 32 33  2  0
 33 34  1  0
 34 26  1  0
 35 37  1  0
 36 35  2  0
M  END
$$$$
