RFW.pdb
     RDKit          3D

 37 39  0  0  1  0  0  0  0  0999 V2000
   29.5037  -30.5200  -17.2360 N   0  0  0  0  0  0  0  0  0  0  0  0
   28.4325  -29.9246  -16.5105 C   0  0  0  0  0  0  0  0  0  0  0  0
   27.8696  -30.5961  -15.5383 N   0  0  0  0  0  0  0  0  0  0  0  0
   27.9357  -28.6281  -16.7862 N   0  0  0  0  0  0  0  0  0  0  0  0
   28.5145  -27.8849  -17.8880 C   0  0  0  0  0  0  0  0  0  0  0  0
   27.6437  -26.7037  -18.2972 C   0  0  0  0  0  0  0  0  0  0  0  0
   27.9911  -25.5824  -17.3591 C   0  0  0  0  0  0  0  0  0  0  0  0
   26.8426  -24.9985  -16.6169 C   0  0  2  0  0  0  0  0  0  0  0  0
   25.7524  -24.5351  -17.4107 N   0  0  0  0  0  0  0  0  0  0  0  0
   27.3102  -23.9593  -15.6397 C   0  0  0  0  0  0  0  0  0  0  0  0
   28.2794  -24.1719  -14.8738 O   0  0  0  0  0  0  0  0  0  0  0  0
   27.0450  -30.2105  -15.0263 N   0  0  0  0  0  0  0  0  0  0  0  0
   26.6531  -22.7014  -15.5654 C   0  0  1  0  0  0  0  0  0  0  0  0
   26.9611  -21.6211  -14.6971 C   0  0  0  0  0  0  0  0  0  0  0  0
   26.9614  -20.2428  -15.3376 C   0  0  0  0  0  0  0  0  0  0  0  0
   27.4369  -19.2371  -14.3688 C   0  0  0  0  0  0  0  0  0  0  0  0
   26.4637  -18.5483  -13.6527 C   0  0  0  0  0  0  0  0  0  0  0  0
   26.7670  -17.5750  -12.7263 C   0  0  0  0  0  0  0  0  0  0  0  0
   28.0883  -17.2612  -12.4900 C   0  0  0  0  0  0  0  0  0  0  0  0
   29.0711  -17.9258  -13.1836 C   0  0  0  0  0  0  0  0  0  0  0  0
   28.7307  -18.9012  -14.1103 C   0  0  0  0  0  0  0  0  0  0  0  0
   26.2408  -21.6528  -13.4142 O   0  0  0  0  0  0  0  0  0  0  0  0
   25.0137  -21.9206  -13.3504 N   0  0  0  0  0  0  0  0  0  0  0  0
   26.9274  -21.3785  -12.2102 C   0  0  2  0  0  0  0  0  0  0  0  0
   26.2354  -21.5230  -10.9511 C   0  0  0  0  0  0  0  0  0  0  0  0
   27.2995  -21.4323   -9.8686 C   0  0  0  0  0  0  0  0  0  0  0  0
   26.9188  -20.5650   -8.7442 C   0  0  0  0  0  0  0  0  0  0  0  0
   25.6924  -19.9904   -8.4514 N   0  0  0  0  0  0  0  0  0  0  0  0
   25.8042  -19.2697   -7.3232 C   0  0  0  0  0  0  0  0  0  0  0  0
   27.0850  -19.3651   -6.8747 C   0  0  0  0  0  0  0  0  0  0  0  0
   27.7330  -18.8237   -5.7678 C   0  0  0  0  0  0  0  0  0  0  0  0
   29.0688  -19.0777   -5.5321 C   0  0  0  0  0  0  0  0  0  0  0  0
   29.7748  -19.8796   -6.4044 C   0  0  0  0  0  0  0  0  0  0  0  0
   29.1432  -20.4211   -7.5038 C   0  0  0  0  0  0  0  0  0  0  0  0
   27.7912  -20.1652   -7.7442 C   0  0  0  0  0  0  0  0  0  0  0  0
   25.2062  -20.4623  -10.7811 O   0  0  0  0  0  0  0  0  0  0  0  0
   25.3191  -19.2972  -11.2196 O   0  0  0  0  0  0  0  0  0  0  0  0
  2  3  2  0
  2  1  1  0
  4  2  1  0
  5  4  1  0
  6  5  1  0
  7  6  1  0
  8 10  1  0
  8  7  1  0
  8  9  1  6
 10 12  1  0
 11 10  2  0
 12 13  1  0
 13 14  1  1
 13 21  1  0
 15 14  1  0
 16 15  2  0
 17 16  1  0
 18 17  2  0
 18 19  1  0
 19 20  2  0
 20 15  1  0
 21 23  1  0
 21 22  2  0
 23 24  1  0
 24 35  1  0
 24 25  1  6
 26 27  2  0
 26 25  1  0
 28 27  1  0
 29 34  2  0
 29 28  1  0
 30 29  1  0
 31 32  1  0
 31 30  2  0
 32 33  2  0
 33 34  1  0
 34 26  1  0
 35 37  1  0
 36 35  2  0
M  END
$$$$
