RFW.pdb
     RDKit          3D

 37 39  0  0  1  0  0  0  0  0999 V2000
   27.2323  -22.3759  -21.7927 N   0  0  0  0  0  0  0  0  0  0  0  0
   28.5201  -22.2652  -22.3909 C   0  0  0  0  0  0  0  0  0  0  0  0
   28.6677  -22.5858  -23.6512 N   0  0  0  0  0  0  0  0  0  0  0  0
   29.6657  -21.8208  -21.6881 N   0  0  0  0  0  0  0  0  0  0  0  0
   29.4839  -21.1945  -20.3935 C   0  0  0  0  0  0  0  0  0  0  0  0
   29.3069  -22.2232  -19.2838 C   0  0  0  0  0  0  0  0  0  0  0  0
   28.4842  -21.5536  -18.2194 C   0  0  0  0  0  0  0  0  0  0  0  0
   27.0844  -22.0406  -18.1007 C   0  0  2  0  0  0  0  0  0  0  0  0
   26.2651  -21.8845  -19.2573 N   0  0  0  0  0  0  0  0  0  0  0  0
   26.4294  -21.4896  -16.8674 C   0  0  0  0  0  0  0  0  0  0  0  0
   26.9499  -21.6251  -15.7352 O   0  0  0  0  0  0  0  0  0  0  0  0
   29.5942  -22.4926  -24.1242 N   0  0  0  0  0  0  0  0  0  0  0  0
   25.1922  -20.7969  -16.9642 C   0  0  2  0  0  0  0  0  0  0  0  0
   24.5024  -20.1208  -15.9235 C   0  0  0  0  0  0  0  0  0  0  0  0
   24.3376  -18.6215  -16.1105 C   0  0  0  0  0  0  0  0  0  0  0  0
   25.6553  -17.9919  -16.3189 C   0  0  0  0  0  0  0  0  0  0  0  0
   26.1680  -18.0252  -17.6113 C   0  0  0  0  0  0  0  0  0  0  0  0
   27.3917  -17.4869  -17.9434 C   0  0  0  0  0  0  0  0  0  0  0  0
   28.1501  -16.8866  -16.9613 C   0  0  0  0  0  0  0  0  0  0  0  0
   27.6683  -16.8394  -15.6750 C   0  0  0  0  0  0  0  0  0  0  0  0
   26.4311  -17.3918  -15.3746 C   0  0  0  0  0  0  0  0  0  0  0  0
   23.2594  -20.7812  -15.4940 O   0  0  0  0  0  0  0  0  0  0  0  0
   22.8478  -21.8367  -16.0399 N   0  0  0  0  0  0  0  0  0  0  0  0
   22.4933  -20.2316  -14.4418 C   0  0  1  0  0  0  0  0  0  0  0  0
   21.6789  -21.1032  -13.6280 C   0  0  0  0  0  0  0  0  0  0  0  0
   22.6424  -22.0266  -12.8989 C   0  0  0  0  0  0  0  0  0  0  0  0
   23.4104  -21.3543  -11.8408 C   0  0  0  0  0  0  0  0  0  0  0  0
   22.9583  -20.6322  -10.7480 N   0  0  0  0  0  0  0  0  0  0  0  0
   24.0155  -20.1942  -10.0443 C   0  0  0  0  0  0  0  0  0  0  0  0
   25.1512  -20.6194  -10.6610 C   0  0  0  0  0  0  0  0  0  0  0  0
   26.5000  -20.4499  -10.3609 C   0  0  0  0  0  0  0  0  0  0  0  0
   27.4806  -20.9938  -11.1654 C   0  0  0  0  0  0  0  0  0  0  0  0
   27.1217  -21.7165  -12.2840 C   0  0  0  0  0  0  0  0  0  0  0  0
   25.7888  -21.8907  -12.5907 C   0  0  0  0  0  0  0  0  0  0  0  0
   24.7949  -21.3409  -11.7778 C   0  0  0  0  0  0  0  0  0  0  0  0
   20.8542  -20.3224  -12.6671 O   0  0  0  0  0  0  0  0  0  0  0  0
   19.9298  -20.8069  -11.9792 O   0  0  0  0  0  0  0  0  0  0  0  0
  2  3  2  0
  2  1  1  0
  4  2  1  0
  5  4  1  0
  6  5  1  0
  7  6  1  0
  8 10  1  0
  8  7  1  0
  8  9  1  6
 10 12  1  0
 11 10  2  0
 12 13  1  0
 13 14  1  1
 13 21  1  0
 15 14  1  0
 16 15  2  0
 17 16  1  0
 18 17  2  0
 18 19  1  0
 19 20  2  0
 20 15  1  0
 21 23  1  0
 21 22  2  0
 23 24  1  0
 24 35  1  0
 24 25  1  1
 26 27  2  0
 26 25  1  0
 28 27  1  0
 29 34  2  0
 29 28  1  0
 30 29  1  0
 31 32  1  0
 31 30  2  0
 32 33  2  0
 33 34  1  0
 34 26  1  0
 35 37  1  0
 36 35  2  0
M  END
$$$$
