RFW.pdb
     RDKit          3D

 37 39  0  0  1  0  0  0  0  0999 V2000
   29.9394  -26.2763  -16.6336 N   0  0  0  0  0  0  0  0  0  0  0  0
   28.6352  -25.8774  -17.0442 C   0  0  0  0  0  0  0  0  0  0  0  0
   27.6674  -26.7584  -17.0388 N   0  0  0  0  0  0  0  0  0  0  0  0
   28.3231  -24.5619  -17.4634 N   0  0  0  0  0  0  0  0  0  0  0  0
   29.3537  -23.5459  -17.3802 C   0  0  0  0  0  0  0  0  0  0  0  0
   29.6207  -23.1231  -15.9412 C   0  0  0  0  0  0  0  0  0  0  0  0
   29.1587  -21.6974  -15.8309 C   0  0  0  0  0  0  0  0  0  0  0  0
   27.7088  -21.4805  -16.0788 C   0  0  2  0  0  0  0  0  0  0  0  0
   27.3429  -21.1517  -17.4173 N   0  0  0  0  0  0  0  0  0  0  0  0
   27.1351  -20.5137  -15.0840 C   0  0  0  0  0  0  0  0  0  0  0  0
   27.3317  -19.2798  -15.1839 O   0  0  0  0  0  0  0  0  0  0  0  0
   26.6886  -26.4825  -17.2767 N   0  0  0  0  0  0  0  0  0  0  0  0
   26.3500  -20.9874  -13.9982 C   0  0  2  0  0  0  0  0  0  0  0  0
   25.6508  -20.2080  -13.0392 C   0  0  0  0  0  0  0  0  0  0  0  0
   24.3494  -19.5872  -13.5198 C   0  0  0  0  0  0  0  0  0  0  0  0
   23.4053  -20.6462  -13.9242 C   0  0  0  0  0  0  0  0  0  0  0  0
   22.4715  -21.0484  -12.9753 C   0  0  0  0  0  0  0  0  0  0  0  0
   21.5404  -22.0349  -13.2152 C   0  0  0  0  0  0  0  0  0  0  0  0
   21.5234  -22.6576  -14.4449 C   0  0  0  0  0  0  0  0  0  0  0  0
   22.4349  -22.2803  -15.4017 C   0  0  0  0  0  0  0  0  0  0  0  0
   23.3597  -21.2827  -15.1269 C   0  0  0  0  0  0  0  0  0  0  0  0
   25.5243  -20.8454  -11.7188 O   0  0  0  0  0  0  0  0  0  0  0  0
   25.3110  -22.0787  -11.5968 N   0  0  0  0  0  0  0  0  0  0  0  0
   25.6428  -20.0692  -10.5442 C   0  0  1  0  0  0  0  0  0  0  0  0
   25.4252  -20.6909   -9.2591 C   0  0  0  0  0  0  0  0  0  0  0  0
   26.0726  -19.7773   -8.2301 C   0  0  0  0  0  0  0  0  0  0  0  0
   27.3986  -20.2362   -7.7914 C   0  0  0  0  0  0  0  0  0  0  0  0
   28.2449  -21.1670   -8.3722 N   0  0  0  0  0  0  0  0  0  0  0  0
   29.3566  -21.2745   -7.6258 C   0  0  0  0  0  0  0  0  0  0  0  0
   29.2492  -20.4279   -6.5663 C   0  0  0  0  0  0  0  0  0  0  0  0
   30.1008  -20.1467   -5.5015 C   0  0  0  0  0  0  0  0  0  0  0  0
   29.7502  -19.2257   -4.5355 C   0  0  0  0  0  0  0  0  0  0  0  0
   28.5385  -18.5726   -4.6237 C   0  0  0  0  0  0  0  0  0  0  0  0
   27.6873  -18.8433   -5.6740 C   0  0  0  0  0  0  0  0  0  0  0  0
   28.0404  -19.7751   -6.6528 C   0  0  0  0  0  0  0  0  0  0  0  0
   23.9729  -20.8615   -8.9860 O   0  0  0  0  0  0  0  0  0  0  0  0
   23.0652  -20.2967   -9.6337 O   0  0  0  0  0  0  0  0  0  0  0  0
  2  3  2  0
  2  1  1  0
  4  2  1  0
  5  4  1  0
  6  5  1  0
  7  6  1  0
  8 10  1  0
  8  7  1  0
  8  9  1  6
 10 12  1  0
 11 10  2  0
 12 13  1  0
 13 14  1  6
 13 21  1  0
 15 14  1  0
 16 15  2  0
 17 16  1  0
 18 17  2  0
 18 19  1  0
 19 20  2  0
 20 15  1  0
 21 23  1  0
 21 22  2  0
 23 24  1  0
 24 35  1  0
 24 25  1  1
 26 27  2  0
 26 25  1  0
 28 27  1  0
 29 34  2  0
 29 28  1  0
 30 29  1  0
 31 32  1  0
 31 30  2  0
 32 33  2  0
 33 34  1  0
 34 26  1  0
 35 37  1  0
 36 35  2  0
M  END
$$$$
