RFW.pdb
     RDKit          3D

 37 39  0  0  1  0  0  0  0  0999 V2000
   29.2743  -19.2505  -21.4105 N   0  0  0  0  0  0  0  0  0  0  0  0
   29.2387  -20.6563  -21.6365 C   0  0  0  0  0  0  0  0  0  0  0  0
   30.2364  -21.2272  -22.2624 N   0  0  0  0  0  0  0  0  0  0  0  0
   28.1691  -21.4823  -21.2155 N   0  0  0  0  0  0  0  0  0  0  0  0
   27.0691  -20.8755  -20.4922 C   0  0  0  0  0  0  0  0  0  0  0  0
   27.5103  -20.3278  -19.1408 C   0  0  0  0  0  0  0  0  0  0  0  0
   26.7502  -21.1068  -18.1048 C   0  0  0  0  0  0  0  0  0  0  0  0
   27.5891  -21.7996  -17.0913 C   0  0  2  0  0  0  0  0  0  0  0  0
   28.1502  -23.0489  -17.4886 N   0  0  0  0  0  0  0  0  0  0  0  0
   26.8691  -21.8973  -15.7777 C   0  0  0  0  0  0  0  0  0  0  0  0
   25.9054  -22.6827  -15.6177 O   0  0  0  0  0  0  0  0  0  0  0  0
   30.2286  -22.2521  -22.4631 N   0  0  0  0  0  0  0  0  0  0  0  0
   27.2730  -21.0902  -14.6798 C   0  0  2  0  0  0  0  0  0  0  0  0
   26.6135  -20.9466  -13.4307 C   0  0  0  0  0  0  0  0  0  0  0  0
   27.4586  -20.3768  -12.3032 C   0  0  0  0  0  0  0  0  0  0  0  0
   26.6488  -20.2606  -11.0757 C   0  0  0  0  0  0  0  0  0  0  0  0
   26.5709  -21.3899  -10.2677 C   0  0  0  0  0  0  0  0  0  0  0  0
   25.8399  -21.4240   -9.1006 C   0  0  0  0  0  0  0  0  0  0  0  0
   25.1517  -20.2967   -8.7059 C   0  0  0  0  0  0  0  0  0  0  0  0
   25.2107  -19.1663   -9.4853 C   0  0  0  0  0  0  0  0  0  0  0  0
   25.9566  -19.1660  -10.6556 C   0  0  0  0  0  0  0  0  0  0  0  0
   25.2839  -20.3217  -13.5176 O   0  0  0  0  0  0  0  0  0  0  0  0
   25.1408  -19.1091  -13.8188 N   0  0  0  0  0  0  0  0  0  0  0  0
   24.1244  -21.0868  -13.2603 C   0  0  1  0  0  0  0  0  0  0  0  0
   22.8279  -20.4551  -13.3340 C   0  0  0  0  0  0  0  0  0  0  0  0
   22.6906  -19.9314  -14.7550 C   0  0  0  0  0  0  0  0  0  0  0  0
   21.3863  -19.3097  -15.0266 C   0  0  0  0  0  0  0  0  0  0  0  0
   20.4808  -18.7420  -14.1447 N   0  0  0  0  0  0  0  0  0  0  0  0
   19.4172  -18.2974  -14.8344 C   0  0  0  0  0  0  0  0  0  0  0  0
   19.6144  -18.5660  -16.1534 C   0  0  0  0  0  0  0  0  0  0  0  0
   18.8403  -18.3240  -17.2849 C   0  0  0  0  0  0  0  0  0  0  0  0
   19.2756  -18.7042  -18.5380 C   0  0  0  0  0  0  0  0  0  0  0  0
   20.4954  -19.3335  -18.6744 C   0  0  0  0  0  0  0  0  0  0  0  0
   21.2703  -19.5781  -17.5607 C   0  0  0  0  0  0  0  0  0  0  0  0
   20.8315  -19.1941  -16.2914 C   0  0  0  0  0  0  0  0  0  0  0  0
   21.7430  -21.4205  -13.0115 O   0  0  0  0  0  0  0  0  0  0  0  0
   21.7978  -22.6456  -13.2538 O   0  0  0  0  0  0  0  0  0  0  0  0
  2  3  2  0
  2  1  1  0
  4  2  1  0
  5  4  1  0
  6  5  1  0
  7  6  1  0
  8 10  1  0
  8  7  1  0
  8  9  1  6
 10 12  1  0
 11 10  2  0
 12 13  1  0
 13 14  1  1
 13 21  1  0
 15 14  1  0
 16 15  2  0
 17 16  1  0
 18 17  2  0
 18 19  1  0
 19 20  2  0
 20 15  1  0
 21 23  1  0
 21 22  2  0
 23 24  1  0
 24 35  1  0
 24 25  1  1
 26 27  2  0
 26 25  1  0
 28 27  1  0
 29 34  2  0
 29 28  1  0
 30 29  1  0
 31 32  1  0
 31 30  2  0
 32 33  2  0
 33 34  1  0
 34 26  1  0
 35 37  1  0
 36 35  2  0
M  END
$$$$
