NDY.pdb
     RDKit          3D

 29 29  0  0  1  0  0  0  0  0999 V2000
   10.8801  -18.8060    7.7642 N   0  0  0  0  0  0  0  0  0  0  0  0
   11.1666  -18.9678    6.3818 C   0  0  0  0  0  0  0  0  0  0  0  0
   10.4274  -19.7391    5.7224 O   0  0  0  0  0  0  0  0  0  0  0  0
   12.3043  -18.2377    5.7691 C   0  0  0  0  0  0  0  0  0  0  0  0
   12.9586  -17.4266    6.8401 C   0  0  2  0  0  0  0  0  0  0  0  0
   12.5908  -16.0408    6.7275 N   0  0  0  0  0  0  0  0  0  0  0  0
   14.4043  -17.6487    6.9858 C   0  0  0  0  0  0  0  0  0  0  0  0
   15.1187  -16.6564    7.2628 O   0  0  0  0  0  0  0  0  0  0  0  0
   14.9767  -18.9324    6.8195 N   0  0  0  0  0  0  0  0  0  0  0  0
   16.3698  -19.1834    7.0388 C   0  0  1  0  0  0  0  0  0  0  0  0
   16.8605  -18.8151    8.3909 C   0  0  0  0  0  0  0  0  0  0  0  0
   18.3180  -19.0695    8.5050 C   0  0  0  0  0  0  0  0  0  0  0  0
   19.0740  -19.0125    7.5045 O   0  0  0  0  0  0  0  0  0  0  0  0
   16.6165  -20.6375    6.7214 C   0  0  0  0  0  0  0  0  0  0  0  0
   16.1623  -21.5802    7.3816 O   0  0  0  0  0  0  0  0  0  0  0  0
   18.9339  -19.3854    9.7194 O   0  0  0  0  0  0  0  0  0  0  0  0
   19.7237  -27.0386    1.4988 O   0  0  0  0  0  0  0  0  0  0  0  0
   19.4151  -25.8075    2.0654 C   0  0  0  0  0  0  0  0  0  0  0  0
   18.1364  -25.3424    2.0563 C   0  0  0  0  0  0  0  0  0  0  0  0
   17.8370  -24.1178    2.6213 C   0  0  0  0  0  0  0  0  0  0  0  0
   18.8055  -23.3415    3.2017 C   0  0  0  0  0  0  0  0  0  0  0  0
   18.4989  -22.0318    3.8092 C   0  0  0  0  0  0  0  0  0  0  0  0
   17.8126  -22.2283    5.1676 C   0  0  2  0  0  0  0  0  0  0  0  0
   17.4190  -20.9145    5.5946 N   0  0  0  0  0  0  0  0  0  0  0  0
   18.7568  -22.9025    6.0480 C   0  0  0  0  0  0  0  0  0  0  0  0
   19.6035  -22.2674    6.7138 O   0  0  0  0  0  0  0  0  0  0  0  0
   20.1084  -23.8194    3.2087 C   0  0  0  0  0  0  0  0  0  0  0  0
   20.4031  -25.0411    2.6443 C   0  0  0  0  0  0  0  0  0  0  0  0
   18.7331  -24.2783    6.1654 O   0  0  0  0  0  0  0  0  0  0  0  0
  1  2  1  0
  2  3  2  0
  4  2  1  0
  4  5  1  0
  5  7  1  0
  5  6  1  6
  7  8  2  0
  9 10  1  0
  9  7  1  0
 10 11  1  1
 12 11  1  0
 13 12  2  0
 14 15  2  0
 14 10  1  0
 16 12  1  0
 17 18  1  0
 18 19  2  0
 18 28  1  0
 19 20  1  0
 20 21  2  0
 21 22  1  0
 23 22  1  6
 23 24  1  0
 23 25  1  0
 24 14  1  0
 25 29  1  0
 26 25  2  0
 27 21  1  0
 28 27  2  0
M  END
$$$$
