NDY.pdb
     RDKit          3D

 29 29  0  0  1  0  0  0  0  0999 V2000
   22.0874  -10.4157  -19.6845 N   0  0  0  0  0  0  0  0  0  0  0  0
   21.1671  -10.9886  -18.7658 C   0  0  0  0  0  0  0  0  0  0  0  0
   20.3270  -11.8045  -19.2186 O   0  0  0  0  0  0  0  0  0  0  0  0
   21.2226  -10.6168  -17.3300 C   0  0  0  0  0  0  0  0  0  0  0  0
   22.3084   -9.6041  -17.1605 C   0  0  2  0  0  0  0  0  0  0  0  0
   23.5964  -10.2414  -17.1040 N   0  0  0  0  0  0  0  0  0  0  0  0
   22.0794   -8.6284  -16.0852 C   0  0  0  0  0  0  0  0  0  0  0  0
   22.0886   -9.0525  -14.9054 O   0  0  0  0  0  0  0  0  0  0  0  0
   21.8545   -7.2590  -16.3634 N   0  0  0  0  0  0  0  0  0  0  0  0
   21.6208   -6.2963  -15.3289 C   0  0  1  0  0  0  0  0  0  0  0  0
   21.8439   -4.8853  -15.7336 C   0  0  0  0  0  0  0  0  0  0  0  0
   21.6639   -3.9749  -14.5756 C   0  0  0  0  0  0  0  0  0  0  0  0
   20.9692   -2.9330  -14.6623 O   0  0  0  0  0  0  0  0  0  0  0  0
   20.2212   -6.5253  -14.8142 C   0  0  0  0  0  0  0  0  0  0  0  0
   19.2518   -6.7975  -15.5332 O   0  0  0  0  0  0  0  0  0  0  0  0
   22.2499   -4.2170  -13.3299 O   0  0  0  0  0  0  0  0  0  0  0  0
   14.4172   -8.1312   -8.4029 O   0  0  0  0  0  0  0  0  0  0  0  0
   15.5773   -7.8813   -9.1265 C   0  0  0  0  0  0  0  0  0  0  0  0
   16.2289   -6.6935   -9.0009 C   0  0  0  0  0  0  0  0  0  0  0  0
   17.3814   -6.4520   -9.7233 C   0  0  0  0  0  0  0  0  0  0  0  0
   17.8993   -7.3886  -10.5788 C   0  0  0  0  0  0  0  0  0  0  0  0
   19.1300   -7.1434  -11.3559 C   0  0  0  0  0  0  0  0  0  0  0  0
   18.7762   -6.5952  -12.7448 C   0  0  2  0  0  0  0  0  0  0  0  0
   20.0312   -6.4172  -13.4205 N   0  0  0  0  0  0  0  0  0  0  0  0
   18.0023   -5.3759  -12.5564 C   0  0  0  0  0  0  0  0  0  0  0  0
   18.5513   -4.2560  -12.4674 O   0  0  0  0  0  0  0  0  0  0  0  0
   17.2315   -8.5988  -10.7041 C   0  0  0  0  0  0  0  0  0  0  0  0
   16.0825   -8.8360   -9.9821 C   0  0  0  0  0  0  0  0  0  0  0  0
   16.6252   -5.4358  -12.4716 O   0  0  0  0  0  0  0  0  0  0  0  0
  1  2  1  0
  2  3  2  0
  4  2  1  0
  4  5  1  0
  5  7  1  0
  5  6  1  1
  7  8  2  0
  9 10  1  0
  9  7  1  0
 10 11  1  6
 12 11  1  0
 13 12  2  0
 14 15  2  0
 14 10  1  0
 16 12  1  0
 17 18  1  0
 18 19  2  0
 18 28  1  0
 19 20  1  0
 20 21  2  0
 21 22  1  0
 23 22  1  1
 23 24  1  0
 23 25  1  0
 24 14  1  0
 25 29  1  0
 26 25  2  0
 27 21  1  0
 28 27  2  0
M  END
$$$$
