NDY.pdb
     RDKit          3D

 29 29  0  0  1  0  0  0  0  0999 V2000
   21.9824  -13.3369  -19.8902 N   0  0  0  0  0  0  0  0  0  0  0  0
   21.5321  -11.9893  -19.9142 C   0  0  0  0  0  0  0  0  0  0  0  0
   20.4552  -11.7479  -20.5129 O   0  0  0  0  0  0  0  0  0  0  0  0
   22.3273  -10.9288  -19.2465 C   0  0  0  0  0  0  0  0  0  0  0  0
   22.3981   -9.7577  -20.1720 C   0  0  2  0  0  0  0  0  0  0  0  0
   23.2763  -10.0329  -21.2771 N   0  0  0  0  0  0  0  0  0  0  0  0
   22.6537   -8.4674  -19.5157 C   0  0  0  0  0  0  0  0  0  0  0  0
   23.7104   -7.8633  -19.8157 O   0  0  0  0  0  0  0  0  0  0  0  0
   21.7457   -7.9213  -18.5774 N   0  0  0  0  0  0  0  0  0  0  0  0
   21.9400   -6.6312  -17.9861 C   0  0  1  0  0  0  0  0  0  0  0  0
   22.2240   -5.5421  -18.9544 C   0  0  0  0  0  0  0  0  0  0  0  0
   22.4334   -4.2548  -18.2463 C   0  0  0  0  0  0  0  0  0  0  0  0
   22.9385   -4.2126  -17.0979 O   0  0  0  0  0  0  0  0  0  0  0  0
   20.7233   -6.3390  -17.1431 C   0  0  0  0  0  0  0  0  0  0  0  0
   19.5625   -6.3476  -17.5710 O   0  0  0  0  0  0  0  0  0  0  0  0
   22.0852   -3.0226  -18.8067 O   0  0  0  0  0  0  0  0  0  0  0  0
   19.7599  -12.1685  -14.7408 O   0  0  0  0  0  0  0  0  0  0  0  0
   19.9096  -10.8166  -14.4545 C   0  0  0  0  0  0  0  0  0  0  0  0
   21.1076  -10.3264  -14.0351 C   0  0  0  0  0  0  0  0  0  0  0  0
   21.2489   -8.9817  -13.7522 C   0  0  0  0  0  0  0  0  0  0  0  0
   20.2010   -8.1088  -13.8830 C   0  0  0  0  0  0  0  0  0  0  0  0
   20.3389   -6.6699  -13.5847 C   0  0  0  0  0  0  0  0  0  0  0  0
   19.9196   -5.8362  -14.8029 C   0  0  2  0  0  0  0  0  0  0  0  0
   20.9497   -6.0403  -15.7831 N   0  0  0  0  0  0  0  0  0  0  0  0
   19.7564   -4.4577  -14.3621 C   0  0  0  0  0  0  0  0  0  0  0  0
   20.5175   -3.5471  -14.7558 O   0  0  0  0  0  0  0  0  0  0  0  0
   18.9807   -8.6128  -14.3109 C   0  0  0  0  0  0  0  0  0  0  0  0
   18.8435   -9.9544  -14.5921 C   0  0  0  0  0  0  0  0  0  0  0  0
   18.7409   -4.1262  -13.4868 O   0  0  0  0  0  0  0  0  0  0  0  0
  1  2  1  0
  2  3  2  0
  4  2  1  0
  4  5  1  0
  5  7  1  0
  5  6  1  6
  7  8  2  0
  9 10  1  0
  9  7  1  0
 10 11  1  6
 12 11  1  0
 13 12  2  0
 14 15  2  0
 14 10  1  0
 16 12  1  0
 17 18  1  0
 18 19  2  0
 18 28  1  0
 19 20  1  0
 20 21  2  0
 21 22  1  0
 23 22  1  1
 23 24  1  0
 23 25  1  0
 24 14  1  0
 25 29  1  0
 26 25  2  0
 27 21  1  0
 28 27  2  0
M  END
$$$$
