NDY.pdb
     RDKit          3D

 29 29  0  0  1  0  0  0  0  0999 V2000
   16.4305  -20.9228  -14.2303 N   0  0  0  0  0  0  0  0  0  0  0  0
   17.5551  -21.3022  -13.4489 C   0  0  0  0  0  0  0  0  0  0  0  0
   17.4066  -21.3500  -12.2031 O   0  0  0  0  0  0  0  0  0  0  0  0
   18.8440  -21.6247  -14.1105 C   0  0  0  0  0  0  0  0  0  0  0  0
   19.8716  -20.6648  -13.6046 C   0  0  2  0  0  0  0  0  0  0  0  0
   19.2705  -19.4007  -13.2743 N   0  0  0  0  0  0  0  0  0  0  0  0
   21.0746  -20.5512  -14.4417 C   0  0  0  0  0  0  0  0  0  0  0  0
   21.5749  -21.6117  -14.8852 O   0  0  0  0  0  0  0  0  0  0  0  0
   21.6537  -19.2946  -14.7393 N   0  0  0  0  0  0  0  0  0  0  0  0
   22.8294  -19.1658  -15.5473 C   0  0  1  0  0  0  0  0  0  0  0  0
   22.9096  -17.9057  -16.3284 C   0  0  0  0  0  0  0  0  0  0  0  0
   23.0610  -18.1968  -17.7756 C   0  0  0  0  0  0  0  0  0  0  0  0
   23.2098  -19.3700  -18.1965 O   0  0  0  0  0  0  0  0  0  0  0  0
   24.0185  -19.3465  -14.6365 C   0  0  0  0  0  0  0  0  0  0  0  0
   24.4029  -18.5013  -13.8188 O   0  0  0  0  0  0  0  0  0  0  0  0
   23.0481  -17.1947  -18.7500 O   0  0  0  0  0  0  0  0  0  0  0  0
   26.6786  -19.8366   -7.8495 O   0  0  0  0  0  0  0  0  0  0  0  0
   26.3991  -20.3455   -9.1124 C   0  0  0  0  0  0  0  0  0  0  0  0
   25.1127  -20.5352   -9.5130 C   0  0  0  0  0  0  0  0  0  0  0  0
   24.8425  -21.0415  -10.7696 C   0  0  0  0  0  0  0  0  0  0  0  0
   25.8480  -21.3649  -11.6423 C   0  0  0  0  0  0  0  0  0  0  0  0
   25.5728  -21.9060  -12.9877 C   0  0  0  0  0  0  0  0  0  0  0  0
   25.9458  -20.8718  -14.0584 C   0  0  2  0  0  0  0  0  0  0  0  0
   24.7204  -20.5656  -14.7425 N   0  0  0  0  0  0  0  0  0  0  0  0
   26.9863  -21.4546  -14.8944 C   0  0  0  0  0  0  0  0  0  0  0  0
   28.1207  -21.7221  -14.4414 O   0  0  0  0  0  0  0  0  0  0  0  0
   27.1587  -21.1700  -11.2298 C   0  0  0  0  0  0  0  0  0  0  0  0
   27.4243  -20.6649   -9.9759 C   0  0  0  0  0  0  0  0  0  0  0  0
   26.7343  -21.7268  -16.2247 O   0  0  0  0  0  0  0  0  0  0  0  0
  1  2  1  0
  2  3  2  0
  4  2  1  0
  4  5  1  0
  5  7  1  0
  5  6  1  6
  7  8  2  0
  9 10  1  0
  9  7  1  0
 10 11  1  1
 12 11  1  0
 13 12  2  0
 14 15  2  0
 14 10  1  0
 16 12  1  0
 17 18  1  0
 18 19  2  0
 18 28  1  0
 19 20  1  0
 20 21  2  0
 21 22  1  0
 23 22  1  1
 23 24  1  0
 23 25  1  0
 24 14  1  0
 25 29  1  0
 26 25  2  0
 27 21  1  0
 28 27  2  0
M  END
$$$$
