NDY.pdb
     RDKit          3D

 29 29  0  0  1  0  0  0  0  0999 V2000
   20.9913  -24.2139  -19.2616 N   0  0  0  0  0  0  0  0  0  0  0  0
   20.2810  -24.1424  -18.0329 C   0  0  0  0  0  0  0  0  0  0  0  0
   19.3624  -23.2912  -17.9424 O   0  0  0  0  0  0  0  0  0  0  0  0
   20.6349  -25.0542  -16.9167 C   0  0  0  0  0  0  0  0  0  0  0  0
   21.3049  -24.2420  -15.8562 C   0  0  2  0  0  0  0  0  0  0  0  0
   22.7303  -24.2293  -16.0471 N   0  0  0  0  0  0  0  0  0  0  0  0
   20.8912  -24.5601  -14.4820 C   0  0  0  0  0  0  0  0  0  0  0  0
   21.6340  -24.1743  -13.5486 O   0  0  0  0  0  0  0  0  0  0  0  0
   19.7004  -25.2765  -14.2142 N   0  0  0  0  0  0  0  0  0  0  0  0
   19.2707  -25.5757  -12.8809 C   0  0  1  0  0  0  0  0  0  0  0  0
   17.8365  -25.2986  -12.6152 C   0  0  0  0  0  0  0  0  0  0  0  0
   17.4718  -25.7086  -11.2364 C   0  0  0  0  0  0  0  0  0  0  0  0
   16.3116  -26.0943  -10.9521 O   0  0  0  0  0  0  0  0  0  0  0  0
   19.6313  -27.0151  -12.6085 C   0  0  0  0  0  0  0  0  0  0  0  0
   19.3413  -27.9580  -13.3552 O   0  0  0  0  0  0  0  0  0  0  0  0
   18.3864  -25.6909  -10.1795 O   0  0  0  0  0  0  0  0  0  0  0  0
   23.9090  -33.2012   -7.9842 O   0  0  0  0  0  0  0  0  0  0  0  0
   23.3509  -32.0042   -8.4173 C   0  0  0  0  0  0  0  0  0  0  0  0
   22.1564  -31.5790   -7.9237 C   0  0  0  0  0  0  0  0  0  0  0  0
   21.6076  -30.3883   -8.3589 C   0  0  0  0  0  0  0  0  0  0  0  0
   22.2400  -29.6067   -9.2897 C   0  0  0  0  0  0  0  0  0  0  0  0
   21.6648  -28.3323   -9.7626 C   0  0  0  0  0  0  0  0  0  0  0  0
   20.7747  -28.5781  -10.9882 C   0  0  2  0  0  0  0  0  0  0  0  0
   20.3453  -27.2772  -11.4204 N   0  0  0  0  0  0  0  0  0  0  0  0
   19.7014  -29.4756  -10.5840 C   0  0  0  0  0  0  0  0  0  0  0  0
   18.6701  -29.0536  -10.0165 O   0  0  0  0  0  0  0  0  0  0  0  0
   23.4581  -30.0441   -9.7908 C   0  0  0  0  0  0  0  0  0  0  0  0
   24.0023  -31.2321   -9.3543 C   0  0  0  0  0  0  0  0  0  0  0  0
   19.8050  -30.8316  -10.8244 O   0  0  0  0  0  0  0  0  0  0  0  0
  1  2  1  0
  2  3  2  0
  4  2  1  0
  4  5  1  0
  5  7  1  0
  5  6  1  1
  7  8  2  0
  9 10  1  0
  9  7  1  0
 10 11  1  6
 12 11  1  0
 13 12  2  0
 14 15  2  0
 14 10  1  0
 16 12  1  0
 17 18  1  0
 18 19  2  0
 18 28  1  0
 19 20  1  0
 20 21  2  0
 21 22  1  0
 23 22  1  1
 23 24  1  0
 23 25  1  0
 24 14  1  0
 25 29  1  0
 26 25  2  0
 27 21  1  0
 28 27  2  0
M  END
$$$$
