NDY.pdb
     RDKit          3D

 29 29  0  0  1  0  0  0  0  0999 V2000
   30.5638  -24.2662  -17.8193 N   0  0  0  0  0  0  0  0  0  0  0  0
   29.2576  -23.7102  -17.8818 C   0  0  0  0  0  0  0  0  0  0  0  0
   28.3333  -24.4463  -18.3064 O   0  0  0  0  0  0  0  0  0  0  0  0
   29.0262  -22.3082  -17.4531 C   0  0  0  0  0  0  0  0  0  0  0  0
   28.3936  -21.5787  -18.5936 C   0  0  2  0  0  0  0  0  0  0  0  0
   29.3877  -20.8959  -19.3770 N   0  0  0  0  0  0  0  0  0  0  0  0
   27.2444  -20.7387  -18.2271 C   0  0  0  0  0  0  0  0  0  0  0  0
   27.4815  -19.5769  -17.8198 O   0  0  0  0  0  0  0  0  0  0  0  0
   25.9160  -21.2171  -18.3260 N   0  0  0  0  0  0  0  0  0  0  0  0
   24.7933  -20.4601  -17.8590 C   0  0  1  0  0  0  0  0  0  0  0  0
   23.6867  -20.3238  -18.8395 C   0  0  0  0  0  0  0  0  0  0  0  0
   22.6790  -19.3468  -18.3576 C   0  0  0  0  0  0  0  0  0  0  0  0
   22.4090  -19.2311  -17.1372 O   0  0  0  0  0  0  0  0  0  0  0  0
   24.3344  -21.0928  -16.5685 C   0  0  0  0  0  0  0  0  0  0  0  0
   23.9866  -22.2750  -16.4589 O   0  0  0  0  0  0  0  0  0  0  0  0
   21.9747  -18.5040  -19.2221 O   0  0  0  0  0  0  0  0  0  0  0  0
   23.7894  -21.2736   -7.7932 O   0  0  0  0  0  0  0  0  0  0  0  0
   24.0016  -20.8883   -9.1117 C   0  0  0  0  0  0  0  0  0  0  0  0
   25.1621  -21.2057   -9.7473 C   0  0  0  0  0  0  0  0  0  0  0  0
   25.3661  -20.8192  -11.0578 C   0  0  0  0  0  0  0  0  0  0  0  0
   24.4189  -20.1129  -11.7514 C   0  0  0  0  0  0  0  0  0  0  0  0
   24.6243  -19.6945  -13.1519 C   0  0  0  0  0  0  0  0  0  0  0  0
   23.9543  -20.6939  -14.1044 C   0  0  2  0  0  0  0  0  0  0  0  0
   24.3093  -20.2630  -15.4279 N   0  0  0  0  0  0  0  0  0  0  0  0
   22.5260  -20.6888  -13.8198 C   0  0  0  0  0  0  0  0  0  0  0  0
   21.7847  -19.7535  -14.1929 O   0  0  0  0  0  0  0  0  0  0  0  0
   23.2368  -19.7910  -11.0995 C   0  0  0  0  0  0  0  0  0  0  0  0
   23.0368  -20.1781   -9.7925 C   0  0  0  0  0  0  0  0  0  0  0  0
   21.9553  -21.7344  -13.1211 O   0  0  0  0  0  0  0  0  0  0  0  0
  1  2  1  0
  2  3  2  0
  4  2  1  0
  4  5  1  0
  5  7  1  0
  5  6  1  1
  7  8  2  0
  9 10  1  0
  9  7  1  0
 10 11  1  6
 12 11  1  0
 13 12  2  0
 14 15  2  0
 14 10  1  0
 16 12  1  0
 17 18  1  0
 18 19  2  0
 18 28  1  0
 19 20  1  0
 20 21  2  0
 21 22  1  0
 23 22  1  1
 23 24  1  0
 23 25  1  0
 24 14  1  0
 25 29  1  0
 26 25  2  0
 27 21  1  0
 28 27  2  0
M  END
$$$$
