NDY.pdb
     RDKit          3D

 29 29  0  0  1  0  0  0  0  0999 V2000
   17.4175  -12.7934  -17.1350 N   0  0  0  0  0  0  0  0  0  0  0  0
   18.2631  -12.9984  -18.2585 C   0  0  0  0  0  0  0  0  0  0  0  0
   17.7305  -13.4120  -19.3177 O   0  0  0  0  0  0  0  0  0  0  0  0
   19.7178  -12.7243  -18.1527 C   0  0  0  0  0  0  0  0  0  0  0  0
   19.9889  -12.2135  -16.7748 C   0  0  2  0  0  0  0  0  0  0  0  0
   19.3288  -13.0273  -15.7897 N   0  0  0  0  0  0  0  0  0  0  0  0
   19.7711  -10.7706  -16.5978 C   0  0  0  0  0  0  0  0  0  0  0  0
   20.5048   -9.9891  -17.2479 O   0  0  0  0  0  0  0  0  0  0  0  0
   18.7728  -10.2739  -15.7261 N   0  0  0  0  0  0  0  0  0  0  0  0
   18.6086   -8.8743  -15.4691 C   0  0  1  0  0  0  0  0  0  0  0  0
   17.3398   -8.5142  -14.7874 C   0  0  0  0  0  0  0  0  0  0  0  0
   16.1805   -9.1240  -15.4848 C   0  0  0  0  0  0  0  0  0  0  0  0
   16.0029   -8.9719  -16.7181 O   0  0  0  0  0  0  0  0  0  0  0  0
   19.8197   -8.4181  -14.6938 C   0  0  0  0  0  0  0  0  0  0  0  0
   20.4652   -9.1402  -13.9241 O   0  0  0  0  0  0  0  0  0  0  0  0
   15.2241   -9.8969  -14.8202 O   0  0  0  0  0  0  0  0  0  0  0  0
   25.3119   -3.9246  -18.6672 O   0  0  0  0  0  0  0  0  0  0  0  0
   24.6339   -4.7529  -17.7805 C   0  0  0  0  0  0  0  0  0  0  0  0
   23.6055   -5.5331  -18.2109 C   0  0  0  0  0  0  0  0  0  0  0  0
   22.9361   -6.3538  -17.3240 C   0  0  0  0  0  0  0  0  0  0  0  0
   23.2813   -6.4085  -15.9992 C   0  0  0  0  0  0  0  0  0  0  0  0
   22.5747   -7.2815  -15.0416 C   0  0  0  0  0  0  0  0  0  0  0  0
   21.4368   -6.5074  -14.3628 C   0  0  2  0  0  0  0  0  0  0  0  0
   20.2224   -7.0783  -14.8753 N   0  0  0  0  0  0  0  0  0  0  0  0
   21.6234   -5.0938  -14.6596 C   0  0  0  0  0  0  0  0  0  0  0  0
   22.4821   -4.4052  -14.0662 O   0  0  0  0  0  0  0  0  0  0  0  0
   24.3307   -5.6111  -15.5643 C   0  0  0  0  0  0  0  0  0  0  0  0
   24.9960   -4.7939  -16.4517 C   0  0  0  0  0  0  0  0  0  0  0  0
   20.8422   -4.4784  -15.6178 O   0  0  0  0  0  0  0  0  0  0  0  0
  1  2  1  0
  2  3  2  0
  4  2  1  0
  4  5  1  0
  5  7  1  0
  5  6  1  1
  7  8  2  0
  9 10  1  0
  9  7  1  0
 10 11  1  1
 12 11  1  0
 13 12  2  0
 14 15  2  0
 14 10  1  0
 16 12  1  0
 17 18  1  0
 18 19  2  0
 18 28  1  0
 19 20  1  0
 20 21  2  0
 21 22  1  0
 23 22  1  6
 23 24  1  0
 23 25  1  0
 24 14  1  0
 25 29  1  0
 26 25  2  0
 27 21  1  0
 28 27  2  0
M  END
$$$$
