NDY.pdb
     RDKit          3D

 29 29  0  0  1  0  0  0  0  0999 V2000
   17.5572    5.0803   -8.4755 N   0  0  0  0  0  0  0  0  0  0  0  0
   17.6733    6.3848   -7.9241 C   0  0  0  0  0  0  0  0  0  0  0  0
   16.8926    7.2686   -8.3553 O   0  0  0  0  0  0  0  0  0  0  0  0
   18.6892    6.6609   -6.8779 C   0  0  0  0  0  0  0  0  0  0  0  0
   19.3280    5.3624   -6.5052 C   0  0  2  0  0  0  0  0  0  0  0  0
   18.4346    4.5638   -5.7100 N   0  0  0  0  0  0  0  0  0  0  0  0
   20.6814    5.4795   -5.9437 C   0  0  0  0  0  0  0  0  0  0  0  0
   21.4816    6.2567   -6.5158 O   0  0  0  0  0  0  0  0  0  0  0  0
   21.0749    4.7439   -4.8004 N   0  0  0  0  0  0  0  0  0  0  0  0
   22.3816    4.8635   -4.2258 C   0  0  1  0  0  0  0  0  0  0  0  0
   22.3994    4.9794   -2.7457 C   0  0  0  0  0  0  0  0  0  0  0  0
   23.7945    5.0276   -2.2422 C   0  0  0  0  0  0  0  0  0  0  0  0
   24.1459    4.3867   -1.2216 O   0  0  0  0  0  0  0  0  0  0  0  0
   23.1927    3.6887   -4.7136 C   0  0  0  0  0  0  0  0  0  0  0  0
   23.0093    2.5195   -4.3532 O   0  0  0  0  0  0  0  0  0  0  0  0
   24.7937    5.7810   -2.8650 O   0  0  0  0  0  0  0  0  0  0  0  0
   27.4946   -1.7390   -9.6826 O   0  0  0  0  0  0  0  0  0  0  0  0
   26.7026   -0.7746   -9.0705 C   0  0  0  0  0  0  0  0  0  0  0  0
   25.9179   -1.0969   -8.0067 C   0  0  0  0  0  0  0  0  0  0  0  0
   25.1332   -0.1332   -7.4034 C   0  0  0  0  0  0  0  0  0  0  0  0
   25.1196    1.1618   -7.8507 C   0  0  0  0  0  0  0  0  0  0  0  0
   24.2864    2.2009   -7.2148 C   0  0  0  0  0  0  0  0  0  0  0  0
   25.1159    2.9896   -6.1928 C   0  0  2  0  0  0  0  0  0  0  0  0
   24.2197    3.9667   -5.6399 N   0  0  0  0  0  0  0  0  0  0  0  0
   26.2705    3.5404   -6.8890 C   0  0  0  0  0  0  0  0  0  0  0  0
   26.1927    4.5918   -7.5614 O   0  0  0  0  0  0  0  0  0  0  0  0
   25.9213    1.4863   -8.9362 C   0  0  0  0  0  0  0  0  0  0  0  0
   26.7025    0.5225   -9.5352 C   0  0  0  0  0  0  0  0  0  0  0  0
   27.4923    2.9007   -6.8177 O   0  0  0  0  0  0  0  0  0  0  0  0
  1  2  1  0
  2  3  2  0
  4  2  1  0
  4  5  1  0
  5  7  1  0
  5  6  1  1
  7  8  2  0
  9 10  1  0
  9  7  1  0
 10 11  1  1
 12 11  1  0
 13 12  2  0
 14 15  2  0
 14 10  1  0
 16 12  1  0
 17 18  1  0
 18 19  2  0
 18 28  1  0
 19 20  1  0
 20 21  2  0
 21 22  1  0
 23 22  1  6
 23 24  1  0
 23 25  1  0
 24 14  1  0
 25 29  1  0
 26 25  2  0
 27 21  1  0
 28 27  2  0
M  END
$$$$
