NDY.pdb
     RDKit          3D

 29 29  0  0  1  0  0  0  0  0999 V2000
   34.5243  -22.2570  -19.9739 N   0  0  0  0  0  0  0  0  0  0  0  0
   33.1730  -21.8223  -19.9082 C   0  0  0  0  0  0  0  0  0  0  0  0
   32.7594  -21.0726  -20.8265 O   0  0  0  0  0  0  0  0  0  0  0  0
   32.3074  -22.2563  -18.7834 C   0  0  0  0  0  0  0  0  0  0  0  0
   30.9001  -22.3117  -19.2830 C   0  0  2  0  0  0  0  0  0  0  0  0
   30.4679  -21.0170  -19.7359 N   0  0  0  0  0  0  0  0  0  0  0  0
   29.9497  -22.9734  -18.3776 C   0  0  0  0  0  0  0  0  0  0  0  0
   30.4080  -23.4855  -17.3291 O   0  0  0  0  0  0  0  0  0  0  0  0
   28.5669  -23.0357  -18.6725 N   0  0  0  0  0  0  0  0  0  0  0  0
   27.6397  -23.7497  -17.8465 C   0  0  1  0  0  0  0  0  0  0  0  0
   26.2298  -23.2999  -17.9657 C   0  0  0  0  0  0  0  0  0  0  0  0
   26.1009  -21.8750  -17.5715 C   0  0  0  0  0  0  0  0  0  0  0  0
   26.6060  -21.4406  -16.5076 O   0  0  0  0  0  0  0  0  0  0  0  0
   27.7970  -25.2162  -18.1640 C   0  0  0  0  0  0  0  0  0  0  0  0
   28.0738  -25.6591  -19.2855 O   0  0  0  0  0  0  0  0  0  0  0  0
   25.4166  -20.9377  -18.3506 O   0  0  0  0  0  0  0  0  0  0  0  0
   30.1034  -33.4146  -16.7330 O   0  0  0  0  0  0  0  0  0  0  0  0
   29.7882  -32.0676  -16.5977 C   0  0  0  0  0  0  0  0  0  0  0  0
   28.8217  -31.6670  -15.7278 C   0  0  0  0  0  0  0  0  0  0  0  0
   28.5136  -30.3266  -15.5987 C   0  0  0  0  0  0  0  0  0  0  0  0
   29.1629  -29.3690  -16.3328 C   0  0  0  0  0  0  0  0  0  0  0  0
   28.8438  -27.9337  -16.2038 C   0  0  0  0  0  0  0  0  0  0  0  0
   27.7392  -27.5479  -17.1967 C   0  0  2  0  0  0  0  0  0  0  0  0
   27.6122  -26.1205  -17.0970 N   0  0  0  0  0  0  0  0  0  0  0  0
   26.5418  -28.2968  -16.8411 C   0  0  0  0  0  0  0  0  0  0  0  0
   25.6719  -27.8222  -16.0785 O   0  0  0  0  0  0  0  0  0  0  0  0
   30.1480  -29.7818  -17.2189 C   0  0  0  0  0  0  0  0  0  0  0  0
   30.4525  -31.1195  -17.3450 C   0  0  0  0  0  0  0  0  0  0  0  0
   26.3424  -29.5656  -17.3486 O   0  0  0  0  0  0  0  0  0  0  0  0
  1  2  1  0
  2  3  2  0
  4  2  1  0
  4  5  1  0
  5  7  1  0
  5  6  1  1
  7  8  2  0
  9 10  1  0
  9  7  1  0
 10 11  1  6
 12 11  1  0
 13 12  2  0
 14 15  2  0
 14 10  1  0
 16 12  1  0
 17 18  1  0
 18 19  2  0
 18 28  1  0
 19 20  1  0
 20 21  2  0
 21 22  1  0
 23 22  1  1
 23 24  1  0
 23 25  1  0
 24 14  1  0
 25 29  1  0
 26 25  2  0
 27 21  1  0
 28 27  2  0
M  END
$$$$
