NDY.pdb
     RDKit          3D

 29 29  0  0  1  0  0  0  0  0999 V2000
   15.7535  -12.9563  -17.3221 N   0  0  0  0  0  0  0  0  0  0  0  0
   15.6709  -13.4721  -16.0005 C   0  0  0  0  0  0  0  0  0  0  0  0
   14.7757  -14.3200  -15.7635 O   0  0  0  0  0  0  0  0  0  0  0  0
   16.6225  -13.0066  -14.9611 C   0  0  0  0  0  0  0  0  0  0  0  0
   17.5557  -12.0291  -15.5987 C   0  0  2  0  0  0  0  0  0  0  0  0
   18.6986  -12.7023  -16.1543 N   0  0  0  0  0  0  0  0  0  0  0  0
   17.8963  -10.8673  -14.7649 C   0  0  0  0  0  0  0  0  0  0  0  0
   18.4992  -11.0837  -13.6872 O   0  0  0  0  0  0  0  0  0  0  0  0
   17.5582   -9.5501  -15.1566 N   0  0  0  0  0  0  0  0  0  0  0  0
   17.8591   -8.4091  -14.3445 C   0  0  1  0  0  0  0  0  0  0  0  0
   18.2799   -7.2033  -15.1016 C   0  0  0  0  0  0  0  0  0  0  0  0
   18.5872   -6.0855  -14.1751 C   0  0  0  0  0  0  0  0  0  0  0  0
   17.8837   -5.0463  -14.1452 O   0  0  0  0  0  0  0  0  0  0  0  0
   16.6504   -8.1449  -13.4811 C   0  0  0  0  0  0  0  0  0  0  0  0
   15.4809   -8.2554  -13.8694 O   0  0  0  0  0  0  0  0  0  0  0  0
   19.6668   -6.1187  -13.2880 O   0  0  0  0  0  0  0  0  0  0  0  0
   11.8909   -6.9170   -6.3376 O   0  0  0  0  0  0  0  0  0  0  0  0
   12.9202   -7.2046   -7.2264 C   0  0  0  0  0  0  0  0  0  0  0  0
   14.1643   -6.6878   -7.0351 C   0  0  0  0  0  0  0  0  0  0  0  0
   15.1824   -6.9778   -7.9226 C   0  0  0  0  0  0  0  0  0  0  0  0
   14.9755   -7.7848   -9.0103 C   0  0  0  0  0  0  0  0  0  0  0  0
   16.0547   -8.1029   -9.9656 C   0  0  0  0  0  0  0  0  0  0  0  0
   15.8967   -7.2614  -11.2391 C   0  0  2  0  0  0  0  0  0  0  0  0
   16.8953   -7.7482  -12.1497 N   0  0  0  0  0  0  0  0  0  0  0  0
   16.0375   -5.8608  -10.8654 C   0  0  0  0  0  0  0  0  0  0  0  0
   17.1475   -5.2851  -10.8790 O   0  0  0  0  0  0  0  0  0  0  0  0
   13.7051   -8.3098   -9.2018 C   0  0  0  0  0  0  0  0  0  0  0  0
   12.6922   -8.0184   -8.3147 C   0  0  0  0  0  0  0  0  0  0  0  0
   14.9290   -5.1312  -10.4832 O   0  0  0  0  0  0  0  0  0  0  0  0
  1  2  1  0
  2  3  2  0
  4  2  1  0
  4  5  1  0
  5  7  1  0
  5  6  1  1
  7  8  2  0
  9 10  1  0
  9  7  1  0
 10 11  1  6
 12 11  1  0
 13 12  2  0
 14 15  2  0
 14 10  1  0
 16 12  1  0
 17 18  1  0
 18 19  2  0
 18 28  1  0
 19 20  1  0
 20 21  2  0
 21 22  1  0
 23 22  1  1
 23 24  1  0
 23 25  1  0
 24 14  1  0
 25 29  1  0
 26 25  2  0
 27 21  1  0
 28 27  2  0
M  END
$$$$
