NDY.pdb
     RDKit          3D

 29 29  0  0  1  0  0  0  0  0999 V2000
   15.6346   -7.6461   -8.5421 N   0  0  0  0  0  0  0  0  0  0  0  0
   15.1758   -8.3269   -9.7020 C   0  0  0  0  0  0  0  0  0  0  0  0
   13.9963   -8.7571   -9.6939 O   0  0  0  0  0  0  0  0  0  0  0  0
   16.0811   -8.5062  -10.8644 C   0  0  0  0  0  0  0  0  0  0  0  0
   15.8151   -7.3956  -11.8282 C   0  0  2  0  0  0  0  0  0  0  0  0
   14.4646   -7.4579  -12.3187 N   0  0  0  0  0  0  0  0  0  0  0  0
   16.8255   -7.2403  -12.8846 C   0  0  0  0  0  0  0  0  0  0  0  0
   17.9896   -7.6337  -12.6361 O   0  0  0  0  0  0  0  0  0  0  0  0
   16.5041   -6.6673  -14.1381 N   0  0  0  0  0  0  0  0  0  0  0  0
   17.4786   -6.4963  -15.1739 C   0  0  1  0  0  0  0  0  0  0  0  0
   16.9116   -6.2952  -16.5312 C   0  0  0  0  0  0  0  0  0  0  0  0
   16.1245   -7.4816  -16.9498 C   0  0  0  0  0  0  0  0  0  0  0  0
   16.6150   -8.6368  -16.9228 O   0  0  0  0  0  0  0  0  0  0  0  0
   18.3760   -5.3570  -14.7583 C   0  0  0  0  0  0  0  0  0  0  0  0
   17.9672   -4.2534  -14.3766 O   0  0  0  0  0  0  0  0  0  0  0  0
   14.8030   -7.3888  -17.3956 O   0  0  0  0  0  0  0  0  0  0  0  0
   19.2197   -7.0970   -8.9002 O   0  0  0  0  0  0  0  0  0  0  0  0
   19.8486   -6.6513  -10.0569 C   0  0  0  0  0  0  0  0  0  0  0  0
   19.8986   -5.3234  -10.3496 C   0  0  0  0  0  0  0  0  0  0  0  0
   20.5252   -4.8876  -11.5011 C   0  0  0  0  0  0  0  0  0  0  0  0
   21.1093   -5.7669  -12.3746 C   0  0  0  0  0  0  0  0  0  0  0  0
   21.7823   -5.3143  -13.6078 C   0  0  0  0  0  0  0  0  0  0  0  0
   20.7772   -4.6104  -14.5292 C   0  0  2  0  0  0  0  0  0  0  0  0
   19.7663   -5.5894  -14.8171 N   0  0  0  0  0  0  0  0  0  0  0  0
   21.5071   -4.1221  -15.6911 C   0  0  0  0  0  0  0  0  0  0  0  0
   22.3415   -3.1951  -15.6014 O   0  0  0  0  0  0  0  0  0  0  0  0
   21.0559   -7.1204  -12.0724 C   0  0  0  0  0  0  0  0  0  0  0  0
   20.4301   -7.5512  -10.9232 C   0  0  0  0  0  0  0  0  0  0  0  0
   21.2872   -4.6839  -16.9334 O   0  0  0  0  0  0  0  0  0  0  0  0
  1  2  1  0
  2  3  2  0
  4  2  1  0
  4  5  1  0
  5  7  1  0
  5  6  1  6
  7  8  2  0
  9 10  1  0
  9  7  1  0
 10 11  1  6
 12 11  1  0
 13 12  2  0
 14 15  2  0
 14 10  1  0
 16 12  1  0
 17 18  1  0
 18 19  2  0
 18 28  1  0
 19 20  1  0
 20 21  2  0
 21 22  1  0
 23 22  1  1
 23 24  1  0
 23 25  1  0
 24 14  1  0
 25 29  1  0
 26 25  2  0
 27 21  1  0
 28 27  2  0
M  END
$$$$
