NDY.pdb
     RDKit          3D

 29 29  0  0  1  0  0  0  0  0999 V2000
   26.9605  -12.7883  -15.1386 N   0  0  0  0  0  0  0  0  0  0  0  0
   25.9564  -12.8838  -16.1395 C   0  0  0  0  0  0  0  0  0  0  0  0
   25.4857  -14.0221  -16.3825 O   0  0  0  0  0  0  0  0  0  0  0  0
   25.5013  -11.6647  -16.8533 C   0  0  0  0  0  0  0  0  0  0  0  0
   24.0303  -11.7908  -17.0839 C   0  0  2  0  0  0  0  0  0  0  0  0
   23.7607  -12.6632  -18.1950 N   0  0  0  0  0  0  0  0  0  0  0  0
   23.3029  -10.5146  -17.1390 C   0  0  0  0  0  0  0  0  0  0  0  0
   23.9434   -9.4967  -17.4930 O   0  0  0  0  0  0  0  0  0  0  0  0
   21.9302  -10.4297  -16.8047 N   0  0  0  0  0  0  0  0  0  0  0  0
   21.1981   -9.2010  -16.8833 C   0  0  1  0  0  0  0  0  0  0  0  0
   19.7479   -9.3604  -17.1589 C   0  0  0  0  0  0  0  0  0  0  0  0
   19.0760   -8.0379  -17.2030 C   0  0  0  0  0  0  0  0  0  0  0  0
   18.2610   -7.6865  -16.3154 O   0  0  0  0  0  0  0  0  0  0  0  0
   21.4535   -8.4468  -15.6019 C   0  0  0  0  0  0  0  0  0  0  0  0
   21.2705   -8.9147  -14.4713 O   0  0  0  0  0  0  0  0  0  0  0  0
   19.3054   -7.1112  -18.2239 O   0  0  0  0  0  0  0  0  0  0  0  0
   26.0775   -4.1550  -19.2564 O   0  0  0  0  0  0  0  0  0  0  0  0
   25.5245   -4.6974  -18.1023 C   0  0  0  0  0  0  0  0  0  0  0  0
   25.3382   -6.0405  -17.9893 C   0  0  0  0  0  0  0  0  0  0  0  0
   24.7879   -6.5725  -16.8393 C   0  0  0  0  0  0  0  0  0  0  0  0
   24.4165   -5.7754  -15.7885 C   0  0  0  0  0  0  0  0  0  0  0  0
   23.8281   -6.3312  -14.5542 C   0  0  0  0  0  0  0  0  0  0  0  0
   22.2964   -6.2748  -14.6285 C   0  0  2  0  0  0  0  0  0  0  0  0
   21.9318   -7.1255  -15.7270 N   0  0  0  0  0  0  0  0  0  0  0  0
   21.9108   -4.8785  -14.7793 C   0  0  0  0  0  0  0  0  0  0  0  0
   21.3519   -4.4592  -15.8163 O   0  0  0  0  0  0  0  0  0  0  0  0
   24.6081   -4.4061  -15.9079 C   0  0  0  0  0  0  0  0  0  0  0  0
   25.1572   -3.8791  -17.0563 C   0  0  0  0  0  0  0  0  0  0  0  0
   22.1596   -3.9776  -13.7627 O   0  0  0  0  0  0  0  0  0  0  0  0
  1  2  1  0
  2  3  2  0
  4  2  1  0
  4  5  1  0
  5  7  1  0
  5  6  1  6
  7  8  2  0
  9 10  1  0
  9  7  1  0
 10 11  1  1
 12 11  1  0
 13 12  2  0
 14 15  2  0
 14 10  1  0
 16 12  1  0
 17 18  1  0
 18 19  2  0
 18 28  1  0
 19 20  1  0
 20 21  2  0
 21 22  1  0
 23 22  1  6
 23 24  1  0
 23 25  1  0
 24 14  1  0
 25 29  1  0
 26 25  2  0
 27 21  1  0
 28 27  2  0
M  END
$$$$
