GCK.pdb
     RDKit          3D

 20 19  0  0  1  0  0  0  0  0999 V2000
   -8.2089  -17.4251   19.8786 N   0  0  0  0  0  0  0  0  0  0  0  0
   -7.8639  -18.6570   20.5218 C   0  0  0  0  0  0  0  0  0  0  0  0
   -6.4210  -18.7590   20.8165 C   0  0  0  0  0  0  0  0  0  0  0  0
   -5.5704  -17.9518   20.3615 O   0  0  0  0  0  0  0  0  0  0  0  0
   -5.9477  -19.8034   21.6458 N   0  0  0  0  0  0  0  0  0  0  0  0
   -4.6012  -19.9399   22.0967 C   0  0  1  0  0  0  0  0  0  0  0  0
   -4.4619  -19.6579   23.5757 C   0  0  0  0  0  0  0  0  0  0  0  0
   -5.6985  -20.6342   24.4916 S   0  0  0  0  0  0  0  0  0  0  0  0
   -4.0250  -21.2814   21.8309 C   0  0  0  0  0  0  0  0  0  0  0  0
   -4.7435  -22.3063   21.8890 O   0  0  0  0  0  0  0  0  0  0  0  0
   -2.6635  -21.4348   21.5085 N   0  0  0  0  0  0  0  0  0  0  0  0
   -2.1652  -22.7611   21.1509 C   0  0  1  0  0  0  0  0  0  0  0  0
   -0.8326  -22.6510   20.4629 C   0  0  0  0  0  0  0  0  0  0  0  0
   -0.4159  -24.0062   19.9691 C   0  0  0  0  0  0  0  0  0  0  0  0
    0.9247  -23.9408   19.2395 C   0  0  0  0  0  0  0  0  0  0  0  0
    1.1961  -25.3613   18.7509 C   0  0  0  0  0  0  0  0  0  0  0  0
    2.4571  -25.3945   18.0727 N   0  0  0  0  0  0  0  0  0  0  0  0
   -2.1585  -23.6522   22.3095 C   0  0  0  0  0  0  0  0  0  0  0  0
   -1.7977  -23.1725   23.4363 O   0  0  0  0  0  0  0  0  0  0  0  0
   -2.5127  -24.9834   22.3075 O   0  0  0  0  0  0  0  0  0  0  0  0
  1  2  1  0
  3  2  1  0
  3  5  1  0
  4  3  2  0
  6  5  1  0
  6  7  1  1
  8  7  1  0
  9  6  1  0
 10  9  2  0
 11  9  1  0
 12 13  1  1
 12 11  1  0
 13 14  1  0
 14 15  1  0
 15 16  1  0
 16 17  1  0
 18 12  1  0
 19 18  2  0
 20 18  1  0
M  END
$$$$
