GCK.pdb
     RDKit          3D

 20 19  0  0  1  0  0  0  0  0999 V2000
    6.1810  -16.3411   25.6551 N   0  0  0  0  0  0  0  0  0  0  0  0
    6.4925  -15.1636   24.9022 C   0  0  0  0  0  0  0  0  0  0  0  0
    6.9708  -15.4710   23.5397 C   0  0  0  0  0  0  0  0  0  0  0  0
    7.1415  -16.6452   23.1225 O   0  0  0  0  0  0  0  0  0  0  0  0
    7.2572  -14.4143   22.6431 N   0  0  0  0  0  0  0  0  0  0  0  0
    7.8960  -14.5698   21.3771 C   0  0  1  0  0  0  0  0  0  0  0  0
    7.8406  -13.3056   20.5494 C   0  0  0  0  0  0  0  0  0  0  0  0
    8.4828  -13.6531   18.8797 S   0  0  0  0  0  0  0  0  0  0  0  0
    9.3167  -14.9854   21.4821 C   0  0  0  0  0  0  0  0  0  0  0  0
   10.0743  -14.4566   22.3286 O   0  0  0  0  0  0  0  0  0  0  0  0
    9.8457  -15.9792   20.6373 N   0  0  0  0  0  0  0  0  0  0  0  0
   11.0191  -16.7313   21.0765 C   0  0  1  0  0  0  0  0  0  0  0  0
   10.6545  -17.6587   22.2026 C   0  0  0  0  0  0  0  0  0  0  0  0
   11.8617  -18.4597   22.5961 C   0  0  0  0  0  0  0  0  0  0  0  0
   11.5415  -19.4144   23.7450 C   0  0  0  0  0  0  0  0  0  0  0  0
   12.8496  -20.1378   24.0546 C   0  0  0  0  0  0  0  0  0  0  0  0
   12.6340  -21.0667   25.1231 N   0  0  0  0  0  0  0  0  0  0  0  0
   11.6697  -17.3987   19.9505 C   0  0  0  0  0  0  0  0  0  0  0  0
   10.9394  -18.0599   19.1384 O   0  0  0  0  0  0  0  0  0  0  0  0
   13.0184  -17.3824   19.6708 O   0  0  0  0  0  0  0  0  0  0  0  0
  1  2  1  0
  3  2  1  0
  3  5  1  0
  4  3  2  0
  6  5  1  0
  6  7  1  1
  8  7  1  0
  9  6  1  0
 10  9  2  0
 11  9  1  0
 12 13  1  1
 12 11  1  0
 13 14  1  0
 14 15  1  0
 15 16  1  0
 16 17  1  0
 18 12  1  0
 19 18  2  0
 20 18  1  0
M  END
$$$$
