GCK.pdb
     RDKit          3D

 20 19  0  0  1  0  0  0  0  0999 V2000
    7.6235  -13.3268   20.1995 N   0  0  0  0  0  0  0  0  0  0  0  0
    6.7663  -13.4576   21.3390 C   0  0  0  0  0  0  0  0  0  0  0  0
    7.5179  -13.6225   22.5989 C   0  0  0  0  0  0  0  0  0  0  0  0
    8.7636  -13.7928   22.6359 O   0  0  0  0  0  0  0  0  0  0  0  0
    6.8288  -13.5914   23.8345 N   0  0  0  0  0  0  0  0  0  0  0  0
    7.4419  -13.7411   25.1139 C   0  0  1  0  0  0  0  0  0  0  0  0
    6.5202  -13.3333   26.2410 C   0  0  0  0  0  0  0  0  0  0  0  0
    6.2660  -11.5295   26.1852 S   0  0  0  0  0  0  0  0  0  0  0  0
    7.9101  -15.1233   25.3837 C   0  0  0  0  0  0  0  0  0  0  0  0
    7.1275  -16.0950   25.2682 O   0  0  0  0  0  0  0  0  0  0  0  0
    9.2386  -15.3754   25.7743 N   0  0  0  0  0  0  0  0  0  0  0  0
    9.6883  -16.7597   25.9041 C   0  0  1  0  0  0  0  0  0  0  0  0
   10.8026  -17.0406   24.9342 C   0  0  0  0  0  0  0  0  0  0  0  0
   11.2307  -18.4730   25.0720 C   0  0  0  0  0  0  0  0  0  0  0  0
   12.3312  -18.8200   24.0708 C   0  0  0  0  0  0  0  0  0  0  0  0
   12.6232  -20.3037   24.2794 C   0  0  0  0  0  0  0  0  0  0  0  0
   13.6135  -20.7272   23.3353 N   0  0  0  0  0  0  0  0  0  0  0  0
   10.0200  -17.0787   27.2914 C   0  0  0  0  0  0  0  0  0  0  0  0
   10.3314  -18.2841   27.5744 O   0  0  0  0  0  0  0  0  0  0  0  0
   10.0335  -16.1903   28.3441 O   0  0  0  0  0  0  0  0  0  0  0  0
  1  2  1  0
  3  2  1  0
  3  5  1  0
  4  3  2  0
  6  5  1  0
  6  7  1  1
  8  7  1  0
  9  6  1  0
 10  9  2  0
 11  9  1  0
 12 13  1  6
 12 11  1  0
 13 14  1  0
 14 15  1  0
 15 16  1  0
 16 17  1  0
 18 12  1  0
 19 18  2  0
 20 18  1  0
M  END
$$$$
