GCK.pdb
     RDKit          3D

 20 19  0  0  1  0  0  0  0  0999 V2000
    5.6532  -19.4488   17.8132 N   0  0  0  0  0  0  0  0  0  0  0  0
    5.2954  -18.5460   18.8654 C   0  0  0  0  0  0  0  0  0  0  0  0
    6.4582  -17.8139   19.4052 C   0  0  0  0  0  0  0  0  0  0  0  0
    7.6458  -18.0951   19.1011 O   0  0  0  0  0  0  0  0  0  0  0  0
    6.2541  -16.7431   20.3075 N   0  0  0  0  0  0  0  0  0  0  0  0
    7.2945  -16.0178   20.9607 C   0  0  1  0  0  0  0  0  0  0  0  0
    6.7986  -14.7211   21.5599 C   0  0  0  0  0  0  0  0  0  0  0  0
    8.2191  -13.7706   22.1924 S   0  0  0  0  0  0  0  0  0  0  0  0
    7.9653  -16.7908   22.0353 C   0  0  0  0  0  0  0  0  0  0  0  0
    7.3091  -17.2326   23.0070 O   0  0  0  0  0  0  0  0  0  0  0  0
    9.3488  -17.0455   21.9896 N   0  0  0  0  0  0  0  0  0  0  0  0
    9.9575  -17.8448   23.0507 C   0  0  1  0  0  0  0  0  0  0  0  0
   11.0618  -18.6998   22.4934 C   0  0  0  0  0  0  0  0  0  0  0  0
   11.5659  -19.6207   23.5666 C   0  0  0  0  0  0  0  0  0  0  0  0
   12.7719  -20.4247   23.0839 C   0  0  0  0  0  0  0  0  0  0  0  0
   13.1921  -21.2874   24.2710 C   0  0  0  0  0  0  0  0  0  0  0  0
   14.2098  -22.2039   23.8518 N   0  0  0  0  0  0  0  0  0  0  0  0
   10.3717  -17.0044   24.1726 C   0  0  0  0  0  0  0  0  0  0  0  0
   10.0492  -17.3720   25.3519 O   0  0  0  0  0  0  0  0  0  0  0  0
   11.0925  -15.8339   24.0827 O   0  0  0  0  0  0  0  0  0  0  0  0
  1  2  1  0
  3  2  1  0
  3  5  1  0
  4  3  2  0
  6  5  1  0
  6  7  1  1
  8  7  1  0
  9  6  1  0
 10  9  2  0
 11  9  1  0
 12 13  1  6
 12 11  1  0
 13 14  1  0
 14 15  1  0
 15 16  1  0
 16 17  1  0
 18 12  1  0
 19 18  2  0
 20 18  1  0
M  END
$$$$
