GCK.pdb
     RDKit          3D

 20 19  0  0  1  0  0  0  0  0999 V2000
    7.1641  -13.5748   19.8095 N   0  0  0  0  0  0  0  0  0  0  0  0
    6.5044  -13.5883   21.0803 C   0  0  0  0  0  0  0  0  0  0  0  0
    7.4505  -13.6751   22.2102 C   0  0  0  0  0  0  0  0  0  0  0  0
    8.6911  -13.8136   22.0554 O   0  0  0  0  0  0  0  0  0  0  0  0
    6.9650  -13.6018   23.5373 N   0  0  0  0  0  0  0  0  0  0  0  0
    7.7746  -13.6958   24.7081 C   0  0  1  0  0  0  0  0  0  0  0  0
    7.1373  -13.0182   25.9001 C   0  0  0  0  0  0  0  0  0  0  0  0
    5.4244  -13.6128   26.0833 S   0  0  0  0  0  0  0  0  0  0  0  0
    8.0926  -15.0934   25.0928 C   0  0  0  0  0  0  0  0  0  0  0  0
    7.1850  -15.9532   25.1767 O   0  0  0  0  0  0  0  0  0  0  0  0
    9.4153  -15.4855   25.3715 N   0  0  0  0  0  0  0  0  0  0  0  0
    9.6805  -16.8760   25.7343 C   0  0  1  0  0  0  0  0  0  0  0  0
   10.7598  -17.4484   24.8576 C   0  0  0  0  0  0  0  0  0  0  0  0
   10.9557  -18.8983   25.1946 C   0  0  0  0  0  0  0  0  0  0  0  0
   12.0088  -19.5385   24.2918 C   0  0  0  0  0  0  0  0  0  0  0  0
   12.0876  -21.0000   24.7253 C   0  0  0  0  0  0  0  0  0  0  0  0
   13.0575  -21.6797   23.9200 N   0  0  0  0  0  0  0  0  0  0  0  0
    9.9524  -17.0054   27.1646 C   0  0  0  0  0  0  0  0  0  0  0  0
    9.8299  -18.1583   27.6992 O   0  0  0  0  0  0  0  0  0  0  0  0
   10.3385  -15.9881   28.0092 O   0  0  0  0  0  0  0  0  0  0  0  0
  1  2  1  0
  3  2  1  0
  3  5  1  0
  4  3  2  0
  6  5  1  0
  6  7  1  1
  8  7  1  0
  9  6  1  0
 10  9  2  0
 11  9  1  0
 12 13  1  6
 12 11  1  0
 13 14  1  0
 14 15  1  0
 15 16  1  0
 16 17  1  0
 18 12  1  0
 19 18  2  0
 20 18  1  0
M  END
$$$$
