GCK.pdb
     RDKit          3D

 20 19  0  0  1  0  0  0  0  0999 V2000
    7.8633  -12.9503   16.1896 N   0  0  0  0  0  0  0  0  0  0  0  0
    8.1418  -14.1540   16.9133 C   0  0  0  0  0  0  0  0  0  0  0  0
    8.3156  -13.9190   18.3604 C   0  0  0  0  0  0  0  0  0  0  0  0
    8.7813  -12.8488   18.8293 O   0  0  0  0  0  0  0  0  0  0  0  0
    7.9490  -14.9278   19.2826 N   0  0  0  0  0  0  0  0  0  0  0  0
    8.1203  -14.8415   20.6962 C   0  0  1  0  0  0  0  0  0  0  0  0
    6.8159  -15.0114   21.4419 C   0  0  0  0  0  0  0  0  0  0  0  0
    7.0829  -14.6495   23.2079 S   0  0  0  0  0  0  0  0  0  0  0  0
    9.0862  -15.8319   21.2334 C   0  0  0  0  0  0  0  0  0  0  0  0
    9.1418  -16.9899   20.7581 O   0  0  0  0  0  0  0  0  0  0  0  0
    9.9595  -15.4962   22.2849 N   0  0  0  0  0  0  0  0  0  0  0  0
   10.7855  -16.5436   22.8815 C   0  0  1  0  0  0  0  0  0  0  0  0
   10.8867  -16.3463   24.3688 C   0  0  0  0  0  0  0  0  0  0  0  0
   11.6056  -17.5158   24.9766 C   0  0  0  0  0  0  0  0  0  0  0  0
   11.6834  -17.3877   26.4969 C   0  0  0  0  0  0  0  0  0  0  0  0
   12.3698  -18.6621   26.9818 C   0  0  0  0  0  0  0  0  0  0  0  0
   12.3338  -18.7024   28.4130 N   0  0  0  0  0  0  0  0  0  0  0  0
   10.3145  -17.8719   22.4939 C   0  0  0  0  0  0  0  0  0  0  0  0
   11.1163  -18.6328   21.8550 O   0  0  0  0  0  0  0  0  0  0  0  0
    9.0681  -18.3962   22.7572 O   0  0  0  0  0  0  0  0  0  0  0  0
  1  2  1  0
  3  2  1  0
  3  5  1  0
  4  3  2  0
  6  5  1  0
  6  7  1  1
  8  7  1  0
  9  6  1  0
 10  9  2  0
 11  9  1  0
 12 13  1  1
 12 11  1  0
 13 14  1  0
 14 15  1  0
 15 16  1  0
 16 17  1  0
 18 12  1  0
 19 18  2  0
 20 18  1  0
M  END
$$$$
