GCK.pdb
     RDKit          3D

 20 19  0  0  1  0  0  0  0  0999 V2000
    3.9254  -18.5795   21.6871 N   0  0  0  0  0  0  0  0  0  0  0  0
    4.2113  -17.1773   21.6389 C   0  0  0  0  0  0  0  0  0  0  0  0
    5.6547  -16.8963   21.5086 C   0  0  0  0  0  0  0  0  0  0  0  0
    6.5331  -17.7961   21.5401 O   0  0  0  0  0  0  0  0  0  0  0  0
    6.0960  -15.5625   21.3396 N   0  0  0  0  0  0  0  0  0  0  0  0
    7.4612  -15.1486   21.3439 C   0  0  1  0  0  0  0  0  0  0  0  0
    7.6530  -13.8026   20.6821 C   0  0  0  0  0  0  0  0  0  0  0  0
    7.1441  -13.9149   18.9358 S   0  0  0  0  0  0  0  0  0  0  0  0
    8.0500  -15.0771   22.7042 C   0  0  0  0  0  0  0  0  0  0  0  0
    7.3513  -14.7255   23.6831 O   0  0  0  0  0  0  0  0  0  0  0  0
    9.4014  -15.4010   22.9272 N   0  0  0  0  0  0  0  0  0  0  0  0
    9.8222  -15.8008   24.2683 C   0  0  1  0  0  0  0  0  0  0  0  0
    9.0612  -17.0190   24.7136 C   0  0  0  0  0  0  0  0  0  0  0  0
    9.5621  -17.4515   26.0612 C   0  0  0  0  0  0  0  0  0  0  0  0
    8.7841  -18.6603   26.5784 C   0  0  0  0  0  0  0  0  0  0  0  0
    9.4475  -19.0409   27.8995 C   0  0  0  0  0  0  0  0  0  0  0  0
    8.6850  -20.0769   28.5294 N   0  0  0  0  0  0  0  0  0  0  0  0
   11.2740  -15.9531   24.3423 C   0  0  0  0  0  0  0  0  0  0  0  0
   11.8781  -16.4623   23.3394 O   0  0  0  0  0  0  0  0  0  0  0  0
   12.0715  -15.5920   25.4058 O   0  0  0  0  0  0  0  0  0  0  0  0
  1  2  1  0
  3  2  1  0
  3  5  1  0
  4  3  2  0
  6  5  1  0
  6  7  1  1
  8  7  1  0
  9  6  1  0
 10  9  2  0
 11  9  1  0
 12 13  1  6
 12 11  1  0
 13 14  1  0
 14 15  1  0
 15 16  1  0
 16 17  1  0
 18 12  1  0
 19 18  2  0
 20 18  1  0
M  END
$$$$
