GCK.pdb
     RDKit          3D

 20 19  0  0  1  0  0  0  0  0999 V2000
    3.6795  -18.9272   21.8648 N   0  0  0  0  0  0  0  0  0  0  0  0
    3.9690  -17.5368   22.0476 C   0  0  0  0  0  0  0  0  0  0  0  0
    5.3213  -17.1723   21.5810 C   0  0  0  0  0  0  0  0  0  0  0  0
    6.1931  -18.0256   21.2744 O   0  0  0  0  0  0  0  0  0  0  0  0
    5.6779  -15.8078   21.4647 N   0  0  0  0  0  0  0  0  0  0  0  0
    6.9669  -15.3317   21.0816 C   0  0  1  0  0  0  0  0  0  0  0  0
    6.9156  -13.9267   20.5251 C   0  0  0  0  0  0  0  0  0  0  0  0
    8.5543  -13.4841   19.8617 S   0  0  0  0  0  0  0  0  0  0  0  0
    7.9535  -15.3485   22.1901 C   0  0  0  0  0  0  0  0  0  0  0  0
    7.7404  -14.7027   23.2425 O   0  0  0  0  0  0  0  0  0  0  0  0
    9.1474  -16.0868   22.0869 N   0  0  0  0  0  0  0  0  0  0  0  0
   10.0863  -16.0757   23.2066 C   0  0  1  0  0  0  0  0  0  0  0  0
   10.0615  -17.3976   23.9230 C   0  0  0  0  0  0  0  0  0  0  0  0
    9.9691  -17.1584   25.4023 C   0  0  0  0  0  0  0  0  0  0  0  0
    9.9315  -18.4761   26.1742 C   0  0  0  0  0  0  0  0  0  0  0  0
    9.9219  -18.0872   27.6503 C   0  0  0  0  0  0  0  0  0  0  0  0
    9.8213  -19.2712   28.4499 N   0  0  0  0  0  0  0  0  0  0  0  0
   11.4203  -15.6655   22.7724 C   0  0  0  0  0  0  0  0  0  0  0  0
   12.2983  -15.4264   23.6679 O   0  0  0  0  0  0  0  0  0  0  0  0
   11.8338  -15.5114   21.4674 O   0  0  0  0  0  0  0  0  0  0  0  0
  1  2  1  0
  3  2  1  0
  3  5  1  0
  4  3  2  0
  6  5  1  0
  6  7  1  1
  8  7  1  0
  9  6  1  0
 10  9  2  0
 11  9  1  0
 12 13  1  6
 12 11  1  0
 13 14  1  0
 14 15  1  0
 15 16  1  0
 16 17  1  0
 18 12  1  0
 19 18  2  0
 20 18  1  0
M  END
$$$$
