GCK.pdb
     RDKit          3D

 20 19  0  0  1  0  0  0  0  0999 V2000
    6.2139  -14.2177   20.4519 N   0  0  0  0  0  0  0  0  0  0  0  0
    5.9119  -14.5057   21.8216 C   0  0  0  0  0  0  0  0  0  0  0  0
    7.0784  -14.3300   22.7092 C   0  0  0  0  0  0  0  0  0  0  0  0
    8.2476  -14.1598   22.2779 O   0  0  0  0  0  0  0  0  0  0  0  0
    6.8996  -14.3501   24.1128 N   0  0  0  0  0  0  0  0  0  0  0  0
    7.9573  -14.3326   25.0699 C   0  0  1  0  0  0  0  0  0  0  0  0
    7.4773  -13.9284   26.4456 C   0  0  0  0  0  0  0  0  0  0  0  0
    7.1268  -12.1400   26.4572 S   0  0  0  0  0  0  0  0  0  0  0  0
    8.6592  -15.6341   25.1948 C   0  0  0  0  0  0  0  0  0  0  0  0
    8.0293  -16.6697   25.5122 O   0  0  0  0  0  0  0  0  0  0  0  0
   10.0433  -15.7368   24.9608 N   0  0  0  0  0  0  0  0  0  0  0  0
   10.6812  -17.0487   25.0478 C   0  0  1  0  0  0  0  0  0  0  0  0
   11.9900  -17.0439   24.3074 C   0  0  0  0  0  0  0  0  0  0  0  0
   12.6690  -18.3701   24.4920 C   0  0  0  0  0  0  0  0  0  0  0  0
   13.5702  -18.7002   23.3034 C   0  0  0  0  0  0  0  0  0  0  0  0
   14.1799  -20.0641   23.6165 C   0  0  0  0  0  0  0  0  0  0  0  0
   15.1142  -20.4110   22.5879 N   0  0  0  0  0  0  0  0  0  0  0  0
   10.7913  -17.4906   26.4367 C   0  0  0  0  0  0  0  0  0  0  0  0
   10.8082  -16.6010   27.3524 O   0  0  0  0  0  0  0  0  0  0  0  0
   10.8769  -18.7970   26.8649 O   0  0  0  0  0  0  0  0  0  0  0  0
  1  2  1  0
  3  2  1  0
  3  5  1  0
  4  3  2  0
  6  5  1  0
  6  7  1  1
  8  7  1  0
  9  6  1  0
 10  9  2  0
 11  9  1  0
 12 13  1  1
 12 11  1  0
 13 14  1  0
 14 15  1  0
 15 16  1  0
 16 17  1  0
 18 12  1  0
 19 18  2  0
 20 18  1  0
M  END
$$$$
