GCK.pdb
     RDKit          3D

 20 19  0  0  1  0  0  0  0  0999 V2000
    3.7080  -19.0849   21.6393 N   0  0  0  0  0  0  0  0  0  0  0  0
    3.9299  -17.6881   21.8632 C   0  0  0  0  0  0  0  0  0  0  0  0
    5.2938  -17.2632   21.4910 C   0  0  0  0  0  0  0  0  0  0  0  0
    6.2059  -18.0753   21.1900 O   0  0  0  0  0  0  0  0  0  0  0  0
    5.6152  -15.8853   21.4641 N   0  0  0  0  0  0  0  0  0  0  0  0
    6.9079  -15.3550   21.1765 C   0  0  1  0  0  0  0  0  0  0  0  0
    6.8492  -13.9065   20.7468 C   0  0  0  0  0  0  0  0  0  0  0  0
    8.5256  -13.3430   20.3066 S   0  0  0  0  0  0  0  0  0  0  0  0
    7.8521  -15.4556   22.3169 C   0  0  0  0  0  0  0  0  0  0  0  0
    7.5003  -15.1070   23.4679 O   0  0  0  0  0  0  0  0  0  0  0  0
    9.1599  -15.9428   22.1345 N   0  0  0  0  0  0  0  0  0  0  0  0
   10.0203  -16.1173   23.3027 C   0  0  1  0  0  0  0  0  0  0  0  0
    9.6848  -17.3999   24.0124 C   0  0  0  0  0  0  0  0  0  0  0  0
   10.5926  -17.5635   25.1969 C   0  0  0  0  0  0  0  0  0  0  0  0
   10.2788  -18.8488   25.9607 C   0  0  0  0  0  0  0  0  0  0  0  0
   11.1213  -18.7869   27.2322 C   0  0  0  0  0  0  0  0  0  0  0  0
   10.7164  -19.8367   28.1183 N   0  0  0  0  0  0  0  0  0  0  0  0
   11.4314  -15.9953   22.9416 C   0  0  0  0  0  0  0  0  0  0  0  0
   11.7759  -16.2930   21.7488 O   0  0  0  0  0  0  0  0  0  0  0  0
   12.4461  -15.5798   23.7754 O   0  0  0  0  0  0  0  0  0  0  0  0
  1  2  1  0
  3  2  1  0
  3  5  1  0
  4  3  2  0
  6  5  1  0
  6  7  1  1
  8  7  1  0
  9  6  1  0
 10  9  2  0
 11  9  1  0
 12 13  1  6
 12 11  1  0
 13 14  1  0
 14 15  1  0
 15 16  1  0
 16 17  1  0
 18 12  1  0
 19 18  2  0
 20 18  1  0
M  END
$$$$
