GCK.pdb
     RDKit          3D

 20 19  0  0  1  0  0  0  0  0999 V2000
    4.4680  -19.0888   23.4135 N   0  0  0  0  0  0  0  0  0  0  0  0
    4.8320  -18.0533   24.3330 C   0  0  0  0  0  0  0  0  0  0  0  0
    5.9163  -17.1932   23.8191 C   0  0  0  0  0  0  0  0  0  0  0  0
    6.5191  -17.4228   22.7393 O   0  0  0  0  0  0  0  0  0  0  0  0
    6.3142  -16.0527   24.5562 N   0  0  0  0  0  0  0  0  0  0  0  0
    7.4362  -15.2295   24.2421 C   0  0  1  0  0  0  0  0  0  0  0  0
    7.4109  -13.9173   24.9928 C   0  0  0  0  0  0  0  0  0  0  0  0
    6.5397  -14.1490   26.5767 S   0  0  0  0  0  0  0  0  0  0  0  0
    8.7403  -15.8849   24.5109 C   0  0  0  0  0  0  0  0  0  0  0  0
    8.9268  -16.5199   25.5749 O   0  0  0  0  0  0  0  0  0  0  0  0
    9.7947  -15.8096   23.5816 N   0  0  0  0  0  0  0  0  0  0  0  0
   10.9158  -16.7387   23.7055 C   0  0  1  0  0  0  0  0  0  0  0  0
   11.3454  -17.2237   22.3485 C   0  0  0  0  0  0  0  0  0  0  0  0
   10.6410  -18.5123   22.0365 C   0  0  0  0  0  0  0  0  0  0  0  0
   11.0862  -19.0732   20.6870 C   0  0  0  0  0  0  0  0  0  0  0  0
   10.1683  -20.2618   20.4133 C   0  0  0  0  0  0  0  0  0  0  0  0
   10.5166  -20.8470   19.1534 N   0  0  0  0  0  0  0  0  0  0  0  0
   12.0000  -16.1551   24.4933 C   0  0  0  0  0  0  0  0  0  0  0  0
   12.0363  -14.8853   24.6203 O   0  0  0  0  0  0  0  0  0  0  0  0
   13.0043  -16.8527   25.1275 O   0  0  0  0  0  0  0  0  0  0  0  0
  1  2  1  0
  3  2  1  0
  3  5  1  0
  4  3  2  0
  6  5  1  0
  6  7  1  1
  8  7  1  0
  9  6  1  0
 10  9  2  0
 11  9  1  0
 12 13  1  6
 12 11  1  0
 13 14  1  0
 14 15  1  0
 15 16  1  0
 16 17  1  0
 18 12  1  0
 19 18  2  0
 20 18  1  0
M  END
$$$$
