GCK.pdb
     RDKit          3D

 20 19  0  0  1  0  0  0  0  0999 V2000
    8.1558  -17.4781   18.4927 N   0  0  0  0  0  0  0  0  0  0  0  0
    9.1831  -16.4878   18.3723 C   0  0  0  0  0  0  0  0  0  0  0  0
    9.6669  -16.0096   19.6826 C   0  0  0  0  0  0  0  0  0  0  0  0
   10.8833  -15.8088   19.9317 O   0  0  0  0  0  0  0  0  0  0  0  0
    8.7401  -15.7582   20.7220 N   0  0  0  0  0  0  0  0  0  0  0  0
    9.0889  -15.3600   22.0467 C   0  0  1  0  0  0  0  0  0  0  0  0
    7.9312  -14.7132   22.7731 C   0  0  0  0  0  0  0  0  0  0  0  0
    8.4594  -14.2553   24.4561 S   0  0  0  0  0  0  0  0  0  0  0  0
    9.5872  -16.4784   22.8852 C   0  0  0  0  0  0  0  0  0  0  0  0
    9.0235  -17.5971   22.8555 O   0  0  0  0  0  0  0  0  0  0  0  0
   10.6999  -16.3108   23.7306 N   0  0  0  0  0  0  0  0  0  0  0  0
   11.3250  -17.4921   24.3216 C   0  0  1  0  0  0  0  0  0  0  0  0
   12.6026  -17.8234   23.6010 C   0  0  0  0  0  0  0  0  0  0  0  0
   13.2205  -19.0426   24.2220 C   0  0  0  0  0  0  0  0  0  0  0  0
   14.5748  -19.3592   23.5900 C   0  0  0  0  0  0  0  0  0  0  0  0
   15.0845  -20.6034   24.3127 C   0  0  0  0  0  0  0  0  0  0  0  0
   16.4097  -20.9030   23.8594 N   0  0  0  0  0  0  0  0  0  0  0  0
   11.4862  -17.3368   25.7660 C   0  0  0  0  0  0  0  0  0  0  0  0
   11.3639  -16.1675   26.2635 O   0  0  0  0  0  0  0  0  0  0  0  0
   11.7590  -18.3469   26.6621 O   0  0  0  0  0  0  0  0  0  0  0  0
  1  2  1  0
  3  2  1  0
  3  5  1  0
  4  3  2  0
  6  5  1  0
  6  7  1  1
  8  7  1  0
  9  6  1  0
 10  9  2  0
 11  9  1  0
 12 13  1  6
 12 11  1  0
 13 14  1  0
 14 15  1  0
 15 16  1  0
 16 17  1  0
 18 12  1  0
 19 18  2  0
 20 18  1  0
M  END
$$$$
