GCK.pdb
     RDKit          3D

 20 19  0  0  1  0  0  0  0  0999 V2000
    5.7949  -19.7327   25.4712 N   0  0  0  0  0  0  0  0  0  0  0  0
    6.3508  -18.5770   26.1082 C   0  0  0  0  0  0  0  0  0  0  0  0
    6.3141  -17.3800   25.2449 C   0  0  0  0  0  0  0  0  0  0  0  0
    5.9406  -17.4129   24.0443 O   0  0  0  0  0  0  0  0  0  0  0  0
    6.7123  -16.1269   25.7680 N   0  0  0  0  0  0  0  0  0  0  0  0
    7.0392  -14.9821   24.9821 C   0  0  1  0  0  0  0  0  0  0  0  0
    7.2500  -13.7478   25.8297 C   0  0  0  0  0  0  0  0  0  0  0  0
    5.6711  -13.2790   26.6099 S   0  0  0  0  0  0  0  0  0  0  0  0
    8.2474  -15.1711   24.1415 C   0  0  0  0  0  0  0  0  0  0  0  0
    9.2976  -15.6460   24.6331 O   0  0  0  0  0  0  0  0  0  0  0  0
    8.2434  -14.8232   22.7777 N   0  0  0  0  0  0  0  0  0  0  0  0
    9.4101  -15.1484   21.9601 C   0  0  1  0  0  0  0  0  0  0  0  0
    9.6141  -14.1015   20.9001 C   0  0  0  0  0  0  0  0  0  0  0  0
    8.5852  -14.2806   19.8216 C   0  0  0  0  0  0  0  0  0  0  0  0
    8.8760  -13.3773   18.6244 C   0  0  0  0  0  0  0  0  0  0  0  0
    7.7940  -13.6971   17.5962 C   0  0  0  0  0  0  0  0  0  0  0  0
    8.0457  -12.9527   16.3988 N   0  0  0  0  0  0  0  0  0  0  0  0
   10.5888  -15.3822   22.7922 C   0  0  0  0  0  0  0  0  0  0  0  0
   11.6562  -15.7910   22.2236 O   0  0  0  0  0  0  0  0  0  0  0  0
   10.6652  -15.1986   24.1553 O   0  0  0  0  0  0  0  0  0  0  0  0
  1  2  1  0
  3  2  1  0
  3  5  1  0
  4  3  2  0
  6  5  1  0
  6  7  1  1
  8  7  1  0
  9  6  1  0
 10  9  2  0
 11  9  1  0
 12 13  1  6
 12 11  1  0
 13 14  1  0
 14 15  1  0
 15 16  1  0
 16 17  1  0
 18 12  1  0
 19 18  2  0
 20 18  1  0
M  END
$$$$
