GCK.pdb
     RDKit          3D

 20 19  0  0  1  0  0  0  0  0999 V2000
    1.5835  -20.3438   21.0825 N   0  0  0  0  0  0  0  0  0  0  0  0
    2.0426  -19.1002   21.6238 C   0  0  0  0  0  0  0  0  0  0  0  0
    3.5118  -18.9656   21.5704 C   0  0  0  0  0  0  0  0  0  0  0  0
    4.2896  -19.9539   21.5493 O   0  0  0  0  0  0  0  0  0  0  0  0
    4.0964  -17.6773   21.5407 N   0  0  0  0  0  0  0  0  0  0  0  0
    5.4924  -17.4122   21.6670 C   0  0  1  0  0  0  0  0  0  0  0  0
    5.8355  -15.9792   21.3281 C   0  0  0  0  0  0  0  0  0  0  0  0
    7.6403  -15.7522   21.4386 S   0  0  0  0  0  0  0  0  0  0  0  0
    6.0260  -17.7020   23.0211 C   0  0  0  0  0  0  0  0  0  0  0  0
    5.4629  -17.2390   24.0403 O   0  0  0  0  0  0  0  0  0  0  0  0
    7.1724  -18.5002   23.1931 N   0  0  0  0  0  0  0  0  0  0  0  0
    7.6312  -18.7985   24.5481 C   0  0  1  0  0  0  0  0  0  0  0  0
    7.0267  -20.0872   25.0330 C   0  0  0  0  0  0  0  0  0  0  0  0
    7.5142  -20.3709   26.4244 C   0  0  0  0  0  0  0  0  0  0  0  0
    7.0741  -21.7570   26.8926 C   0  0  0  0  0  0  0  0  0  0  0  0
    7.6372  -21.9120   28.3029 C   0  0  0  0  0  0  0  0  0  0  0  0
    7.2871  -23.2042   28.8117 N   0  0  0  0  0  0  0  0  0  0  0  0
    9.0902  -18.7641   24.6305 C   0  0  0  0  0  0  0  0  0  0  0  0
    9.7597  -19.0460   23.5807 O   0  0  0  0  0  0  0  0  0  0  0  0
    9.8293  -18.4484   25.7493 O   0  0  0  0  0  0  0  0  0  0  0  0
  1  2  1  0
  3  2  1  0
  3  5  1  0
  4  3  2  0
  6  5  1  0
  6  7  1  1
  8  7  1  0
  9  6  1  0
 10  9  2  0
 11  9  1  0
 12 13  1  6
 12 11  1  0
 13 14  1  0
 14 15  1  0
 15 16  1  0
 16 17  1  0
 18 12  1  0
 19 18  2  0
 20 18  1  0
M  END
$$$$
