LSN.pdb
     RDKit          3D

 23 22  0  0  1  0  0  0  0  0999 V2000
   25.9317  -15.0397  -14.6559 C   0  0  0  0  0  0  0  0  0  0  0  0
   26.0944  -14.1898  -15.8712 C   0  0  2  0  0  0  0  0  0  0  0  0
   27.5450  -13.7508  -16.0723 C   0  0  0  0  0  0  0  0  0  0  0  0
   25.1353  -13.0814  -16.0595 C   0  0  0  0  0  0  0  0  0  0  0  0
   23.6915  -13.3245  -15.8972 C   0  0  2  0  0  0  0  0  0  0  0  0
   23.1077  -14.4310  -16.5672 N   0  0  0  0  0  0  0  0  0  0  0  0
   22.9044  -12.1030  -16.2683 C   0  0  0  0  0  0  0  0  0  0  0  0
   23.4814  -11.1876  -16.9110 O   0  0  0  0  0  0  0  0  0  0  0  0
   19.0410  -12.1794  -17.0990 O   0  0  0  0  0  0  0  0  0  0  0  0
   19.3529  -11.0618  -16.3549 C   0  0  0  0  0  0  0  0  0  0  0  0
   20.8302  -10.7101  -16.3828 C   0  0  2  0  0  0  0  0  0  0  0  0
   21.5410  -11.9045  -15.9434 N   0  0  0  0  0  0  0  0  0  0  0  0
   21.1113   -9.5557  -15.5275 C   0  0  0  0  0  0  0  0  0  0  0  0
   21.9826   -9.6116  -14.6237 O   0  0  0  0  0  0  0  0  0  0  0  0
   21.7622   -4.8590  -13.6162 N   0  0  0  0  0  0  0  0  0  0  0  0
   22.6490   -5.5585  -14.4971 C   0  0  0  0  0  0  0  0  0  0  0  0
   23.8087   -5.1292  -14.7099 O   0  0  0  0  0  0  0  0  0  0  0  0
   22.1843   -6.7841  -15.1483 C   0  0  0  0  0  0  0  0  0  0  0  0
   20.7653   -7.1486  -14.9032 C   0  0  2  0  0  0  0  0  0  0  0  0
   20.4032   -8.3249  -15.6931 N   0  0  0  0  0  0  0  0  0  0  0  0
   19.8348   -6.0241  -15.2112 C   0  0  0  0  0  0  0  0  0  0  0  0
   19.4408   -5.7752  -16.3581 O   0  0  0  0  0  0  0  0  0  0  0  0
   19.3883   -5.2200  -14.1765 O   0  0  0  0  0  0  0  0  0  0  0  0
  2  3  1  1
  2  1  1  0
  4  2  1  0
  5  6  1  6
  5  4  1  0
  5  7  1  0
  7 12  1  0
  7  8  2  0
  9 10  1  0
 11 10  1  1
 11 13  1  0
 12 11  1  0
 13 20  1  0
 14 13  2  0
 16 15  1  0
 17 16  2  0
 18 16  1  0
 19 18  1  6
 20 19  1  0
 21 19  1  0
 21 23  1  0
 22 21  2  0
M  END
$$$$
