LSN.pdb
     RDKit          3D

 23 22  0  0  1  0  0  0  0  0999 V2000
   24.4744  -16.0636  -15.2085 C   0  0  0  0  0  0  0  0  0  0  0  0
   25.2933  -14.9871  -15.8379 C   0  0  2  0  0  0  0  0  0  0  0  0
   26.6267  -14.7870  -15.1171 C   0  0  0  0  0  0  0  0  0  0  0  0
   24.6171  -13.7093  -16.1445 C   0  0  0  0  0  0  0  0  0  0  0  0
   23.2883  -13.7161  -16.7804 C   0  0  2  0  0  0  0  0  0  0  0  0
   23.1148  -14.4413  -17.9878 N   0  0  0  0  0  0  0  0  0  0  0  0
   22.8095  -12.3152  -17.0201 C   0  0  0  0  0  0  0  0  0  0  0  0
   23.6417  -11.4518  -17.4017 O   0  0  0  0  0  0  0  0  0  0  0  0
   18.8087  -11.1159  -16.5143 O   0  0  0  0  0  0  0  0  0  0  0  0
   19.5816  -10.6192  -17.5418 C   0  0  0  0  0  0  0  0  0  0  0  0
   21.0596  -10.5374  -17.2013 C   0  0  2  0  0  0  0  0  0  0  0  0
   21.4705  -11.8901  -16.8458 N   0  0  0  0  0  0  0  0  0  0  0  0
   21.2959   -9.5860  -16.1140 C   0  0  0  0  0  0  0  0  0  0  0  0
   21.3497   -9.9651  -14.9172 O   0  0  0  0  0  0  0  0  0  0  0  0
   22.2639   -5.2267  -13.4205 N   0  0  0  0  0  0  0  0  0  0  0  0
   22.7032   -5.0247  -14.7688 C   0  0  0  0  0  0  0  0  0  0  0  0
   23.2977   -3.9693  -15.0960 O   0  0  0  0  0  0  0  0  0  0  0  0
   22.4492   -6.0678  -15.7635 C   0  0  0  0  0  0  0  0  0  0  0  0
   21.6912   -7.2508  -15.2811 C   0  0  2  0  0  0  0  0  0  0  0  0
   21.4742   -8.1925  -16.3786 N   0  0  0  0  0  0  0  0  0  0  0  0
   20.3836   -6.8705  -14.6722 C   0  0  0  0  0  0  0  0  0  0  0  0
   19.3648   -6.6671  -15.3453 O   0  0  0  0  0  0  0  0  0  0  0  0
   20.2972   -6.7372  -13.2969 O   0  0  0  0  0  0  0  0  0  0  0  0
  2  3  1  1
  2  1  1  0
  4  2  1  0
  5  6  1  6
  5  4  1  0
  5  7  1  0
  7 12  1  0
  7  8  2  0
  9 10  1  0
 11 10  1  1
 11 13  1  0
 12 11  1  0
 13 20  1  0
 14 13  2  0
 16 15  1  0
 17 16  2  0
 18 16  1  0
 19 18  1  6
 20 19  1  0
 21 19  1  0
 21 23  1  0
 22 21  2  0
M  END
$$$$
