LSN.pdb
     RDKit          3D

 23 22  0  0  1  0  0  0  0  0999 V2000
   27.2186  -14.0983  -15.3759 C   0  0  0  0  0  0  0  0  0  0  0  0
   25.7320  -14.2120  -15.4284 C   0  0  2  0  0  0  0  0  0  0  0  0
   25.2760  -15.3158  -16.3829 C   0  0  0  0  0  0  0  0  0  0  0  0
   24.9597  -12.9631  -15.5956 C   0  0  0  0  0  0  0  0  0  0  0  0
   23.5184  -12.9451  -15.2916 C   0  0  2  0  0  0  0  0  0  0  0  0
   22.7621  -14.1264  -15.5073 N   0  0  0  0  0  0  0  0  0  0  0  0
   22.8367  -11.8297  -16.0266 C   0  0  0  0  0  0  0  0  0  0  0  0
   23.5146  -10.8204  -16.3515 O   0  0  0  0  0  0  0  0  0  0  0  0
   18.6899  -11.5036  -16.1686 O   0  0  0  0  0  0  0  0  0  0  0  0
   19.4000  -11.0281  -17.2501 C   0  0  0  0  0  0  0  0  0  0  0  0
   20.8263  -10.6321  -16.9097 C   0  0  2  0  0  0  0  0  0  0  0  0
   21.4674  -11.8320  -16.3858 N   0  0  0  0  0  0  0  0  0  0  0  0
   20.8495   -9.5298  -15.9467 C   0  0  0  0  0  0  0  0  0  0  0  0
   20.9609   -9.7446  -14.7135 O   0  0  0  0  0  0  0  0  0  0  0  0
   23.1262   -4.7672  -14.4829 N   0  0  0  0  0  0  0  0  0  0  0  0
   22.4874   -5.9212  -13.9244 C   0  0  0  0  0  0  0  0  0  0  0  0
   22.1802   -5.9561  -12.7084 O   0  0  0  0  0  0  0  0  0  0  0  0
   22.1965   -7.0631  -14.7925 C   0  0  0  0  0  0  0  0  0  0  0  0
   20.8471   -7.0765  -15.4133 C   0  0  2  0  0  0  0  0  0  0  0  0
   20.7467   -8.1708  -16.3781 N   0  0  0  0  0  0  0  0  0  0  0  0
   20.5215   -5.7815  -16.0785 C   0  0  0  0  0  0  0  0  0  0  0  0
   20.5726   -5.6270  -17.3057 O   0  0  0  0  0  0  0  0  0  0  0  0
   20.1456   -4.7019  -15.2977 O   0  0  0  0  0  0  0  0  0  0  0  0
  2  3  1  6
  2  1  1  0
  4  2  1  0
  5  6  1  6
  5  4  1  0
  5  7  1  0
  7 12  1  0
  7  8  2  0
  9 10  1  0
 11 10  1  1
 11 13  1  0
 12 11  1  0
 13 20  1  0
 14 13  2  0
 16 15  1  0
 17 16  2  0
 18 16  1  0
 19 18  1  6
 20 19  1  0
 21 19  1  0
 21 23  1  0
 22 21  2  0
M  END
$$$$
