LSN.pdb
     RDKit          3D

 23 22  0  0  1  0  0  0  0  0999 V2000
   25.9718  -21.1821   -6.9975 C   0  0  0  0  0  0  0  0  0  0  0  0
   26.9494  -20.3481   -7.7554 C   0  0  2  0  0  0  0  0  0  0  0  0
   27.4691  -19.1764   -6.9220 C   0  0  0  0  0  0  0  0  0  0  0  0
   26.5805  -19.9472   -9.1291 C   0  0  0  0  0  0  0  0  0  0  0  0
   26.0889  -20.9577  -10.0817 C   0  0  2  0  0  0  0  0  0  0  0  0
   26.8410  -22.1477  -10.2606 N   0  0  0  0  0  0  0  0  0  0  0  0
   25.8750  -20.3487  -11.4354 C   0  0  0  0  0  0  0  0  0  0  0  0
   24.9874  -19.4660  -11.5647 O   0  0  0  0  0  0  0  0  0  0  0  0
   28.2293  -21.4666  -14.4456 O   0  0  0  0  0  0  0  0  0  0  0  0
   27.5320  -20.3184  -14.7542 C   0  0  0  0  0  0  0  0  0  0  0  0
   26.3026  -20.1066  -13.8878 C   0  0  2  0  0  0  0  0  0  0  0  0
   26.6107  -20.7004  -12.5926 N   0  0  0  0  0  0  0  0  0  0  0  0
   25.1176  -20.7083  -14.5018 C   0  0  0  0  0  0  0  0  0  0  0  0
   24.8494  -21.9258  -14.3441 O   0  0  0  0  0  0  0  0  0  0  0  0
   21.1120  -21.1414  -11.9552 N   0  0  0  0  0  0  0  0  0  0  0  0
   21.6626  -21.2146  -13.2755 C   0  0  0  0  0  0  0  0  0  0  0  0
   21.6048  -22.2811  -13.9340 O   0  0  0  0  0  0  0  0  0  0  0  0
   22.2955  -20.0260  -13.8490 C   0  0  0  0  0  0  0  0  0  0  0  0
   22.7825  -20.1628  -15.2457 C   0  0  2  0  0  0  0  0  0  0  0  0
   24.2250  -19.9291  -15.3018 N   0  0  0  0  0  0  0  0  0  0  0  0
   22.0810  -19.2344  -16.1791 C   0  0  0  0  0  0  0  0  0  0  0  0
   22.0814  -18.0057  -16.0283 O   0  0  0  0  0  0  0  0  0  0  0  0
   21.3983  -19.7611  -17.2622 O   0  0  0  0  0  0  0  0  0  0  0  0
  2  3  1  1
  2  1  1  0
  4  2  1  0
  5  6  1  6
  5  4  1  0
  5  7  1  0
  7 12  1  0
  7  8  2  0
  9 10  1  0
 11 10  1  6
 11 13  1  0
 12 11  1  0
 13 20  1  0
 14 13  2  0
 16 15  1  0
 17 16  2  0
 18 16  1  0
 19 18  1  1
 20 19  1  0
 21 19  1  0
 21 23  1  0
 22 21  2  0
M  END
$$$$
