LSN.pdb
     RDKit          3D

 23 22  0  0  1  0  0  0  0  0999 V2000
   18.8802  -11.6030  -20.9949 C   0  0  0  0  0  0  0  0  0  0  0  0
   18.6577  -12.3163  -19.7037 C   0  0  2  0  0  0  0  0  0  0  0  0
   17.2938  -13.0056  -19.6584 C   0  0  0  0  0  0  0  0  0  0  0  0
   18.9628  -11.5807  -18.4588 C   0  0  0  0  0  0  0  0  0  0  0  0
   20.2369  -10.8525  -18.3300 C   0  0  2  0  0  0  0  0  0  0  0  0
   21.4495  -11.5597  -18.5376 N   0  0  0  0  0  0  0  0  0  0  0  0
   20.3281  -10.1786  -16.9933 C   0  0  0  0  0  0  0  0  0  0  0  0
   19.2665   -9.7844  -16.4443 O   0  0  0  0  0  0  0  0  0  0  0  0
   23.8574   -9.9275  -14.7687 O   0  0  0  0  0  0  0  0  0  0  0  0
   22.6149   -9.8843  -14.1736 C   0  0  0  0  0  0  0  0  0  0  0  0
   21.5547   -9.2207  -15.0353 C   0  0  2  0  0  0  0  0  0  0  0  0
   21.5393   -9.9521  -16.2962 N   0  0  0  0  0  0  0  0  0  0  0  0
   21.8478   -7.7992  -15.2265 C   0  0  0  0  0  0  0  0  0  0  0  0
   22.6225   -7.4106  -16.1364 O   0  0  0  0  0  0  0  0  0  0  0  0
   18.1042   -4.8766  -15.9265 N   0  0  0  0  0  0  0  0  0  0  0  0
   19.5353   -4.8388  -15.9727 C   0  0  0  0  0  0  0  0  0  0  0  0
   20.1440   -4.9885  -17.0596 O   0  0  0  0  0  0  0  0  0  0  0  0
   20.2814   -4.6227  -14.7322 C   0  0  0  0  0  0  0  0  0  0  0  0
   21.5480   -5.3871  -14.5977 C   0  0  2  0  0  0  0  0  0  0  0  0
   21.2609   -6.8049  -14.3835 N   0  0  0  0  0  0  0  0  0  0  0  0
   22.4023   -4.8690  -13.4900 C   0  0  0  0  0  0  0  0  0  0  0  0
   22.6680   -5.5349  -12.4808 O   0  0  0  0  0  0  0  0  0  0  0  0
   22.9239   -3.5903  -13.5868 O   0  0  0  0  0  0  0  0  0  0  0  0
  2  3  1  1
  2  1  1  0
  4  2  1  0
  5  6  1  1
  5  4  1  0
  5  7  1  0
  7 12  1  0
  7  8  2  0
  9 10  1  0
 11 10  1  1
 11 13  1  0
 12 11  1  0
 13 20  1  0
 14 13  2  0
 16 15  1  0
 17 16  2  0
 18 16  1  0
 19 18  1  1
 20 19  1  0
 21 19  1  0
 21 23  1  0
 22 21  2  0
M  END
$$$$
