LSN.pdb
     RDKit          3D

 23 22  0  0  1  0  0  0  0  0999 V2000
   29.0842  -20.7074  -18.3540 C   0  0  0  0  0  0  0  0  0  0  0  0
   28.4259  -19.9625  -17.2415 C   0  0  2  0  0  0  0  0  0  0  0  0
   29.4452  -19.3653  -16.2710 C   0  0  0  0  0  0  0  0  0  0  0  0
   27.3044  -20.6286  -16.5469 C   0  0  0  0  0  0  0  0  0  0  0  0
   26.3541  -19.8299  -15.7536 C   0  0  2  0  0  0  0  0  0  0  0  0
   26.8654  -18.8564  -14.8567 N   0  0  0  0  0  0  0  0  0  0  0  0
   25.4325  -20.7224  -14.9770 C   0  0  0  0  0  0  0  0  0  0  0  0
   25.0998  -21.8273  -15.4793 O   0  0  0  0  0  0  0  0  0  0  0  0
   25.5311  -21.1722  -11.0975 O   0  0  0  0  0  0  0  0  0  0  0  0
   24.2228  -21.0576  -11.5162 C   0  0  0  0  0  0  0  0  0  0  0  0
   24.0351  -21.3402  -12.9967 C   0  0  2  0  0  0  0  0  0  0  0  0
   24.9039  -20.4062  -13.7023 N   0  0  0  0  0  0  0  0  0  0  0  0
   22.6320  -21.1894  -13.3862 C   0  0  0  0  0  0  0  0  0  0  0  0
   22.1812  -20.0853  -13.7821 O   0  0  0  0  0  0  0  0  0  0  0  0
   17.7326  -24.6356  -14.9715 N   0  0  0  0  0  0  0  0  0  0  0  0
   18.3726  -23.4066  -14.6085 C   0  0  0  0  0  0  0  0  0  0  0  0
   17.7700  -22.3126  -14.7277 O   0  0  0  0  0  0  0  0  0  0  0  0
   19.7428  -23.4428  -14.0952 C   0  0  0  0  0  0  0  0  0  0  0  0
   20.3284  -22.1298  -13.7215 C   0  0  2  0  0  0  0  0  0  0  0  0
   21.7275  -22.2950  -13.3294 N   0  0  0  0  0  0  0  0  0  0  0  0
   19.5678  -21.4675  -12.6223 C   0  0  0  0  0  0  0  0  0  0  0  0
   19.8769  -21.5832  -11.4292 O   0  0  0  0  0  0  0  0  0  0  0  0
   18.4685  -20.6890  -12.9415 O   0  0  0  0  0  0  0  0  0  0  0  0
  2  3  1  1
  2  1  1  0
  4  2  1  0
  5  6  1  1
  5  4  1  0
  5  7  1  0
  7 12  1  0
  7  8  2  0
  9 10  1  0
 11 10  1  1
 11 13  1  0
 12 11  1  0
 13 20  1  0
 14 13  2  0
 16 15  1  0
 17 16  2  0
 18 16  1  0
 19 18  1  1
 20 19  1  0
 21 19  1  0
 21 23  1  0
 22 21  2  0
M  END
$$$$
