LSN.pdb
     RDKit          3D

 23 22  0  0  1  0  0  0  0  0999 V2000
   22.5123  -14.4056  -15.0082 C   0  0  0  0  0  0  0  0  0  0  0  0
   23.2963  -13.2909  -15.6152 C   0  0  2  0  0  0  0  0  0  0  0  0
   24.5635  -12.9822  -14.8177 C   0  0  0  0  0  0  0  0  0  0  0  0
   22.5573  -12.0704  -16.0001 C   0  0  0  0  0  0  0  0  0  0  0  0
   21.2955  -12.1828  -16.7522 C   0  0  2  0  0  0  0  0  0  0  0  0
   21.3210  -12.7790  -18.0397 N   0  0  0  0  0  0  0  0  0  0  0  0
   20.6386  -10.8413  -16.8867 C   0  0  0  0  0  0  0  0  0  0  0  0
   21.1652   -9.9868  -17.6458 O   0  0  0  0  0  0  0  0  0  0  0  0
   17.1573   -9.7272  -14.7860 O   0  0  0  0  0  0  0  0  0  0  0  0
   17.4210   -9.2342  -16.0459 C   0  0  0  0  0  0  0  0  0  0  0  0
   18.9044   -9.1202  -16.3520 C   0  0  2  0  0  0  0  0  0  0  0  0
   19.4528  -10.4636  -16.2120 N   0  0  0  0  0  0  0  0  0  0  0  0
   19.5537   -8.1636  -15.4540 C   0  0  0  0  0  0  0  0  0  0  0  0
   20.3888   -8.5411  -14.5941 O   0  0  0  0  0  0  0  0  0  0  0  0
   21.5286   -3.8063  -13.4888 N   0  0  0  0  0  0  0  0  0  0  0  0
   22.2019   -4.8060  -14.2628 C   0  0  0  0  0  0  0  0  0  0  0  0
   23.4518   -4.7956  -14.3718 O   0  0  0  0  0  0  0  0  0  0  0  0
   21.4113   -5.8432  -14.9272 C   0  0  0  0  0  0  0  0  0  0  0  0
   19.9511   -5.8165  -14.6562 C   0  0  2  0  0  0  0  0  0  0  0  0
   19.2593   -6.7666  -15.5264 N   0  0  0  0  0  0  0  0  0  0  0  0
   19.3717   -4.4530  -14.8309 C   0  0  0  0  0  0  0  0  0  0  0  0
   19.3363   -3.6179  -13.9177 O   0  0  0  0  0  0  0  0  0  0  0  0
   18.8495   -4.0986  -16.0630 O   0  0  0  0  0  0  0  0  0  0  0  0
  2  3  1  1
  2  1  1  0
  4  2  1  0
  5  6  1  6
  5  4  1  0
  5  7  1  0
  7 12  1  0
  7  8  2  0
  9 10  1  0
 11 10  1  1
 11 13  1  0
 12 11  1  0
 13 20  1  0
 14 13  2  0
 16 15  1  0
 17 16  2  0
 18 16  1  0
 19 18  1  6
 20 19  1  0
 21 19  1  0
 21 23  1  0
 22 21  2  0
M  END
$$$$
