LSN.pdb
     RDKit          3D

 23 22  0  0  1  0  0  0  0  0999 V2000
   27.8506  -16.3920  -15.0678 C   0  0  0  0  0  0  0  0  0  0  0  0
   27.2058  -15.5620  -16.1265 C   0  0  2  0  0  0  0  0  0  0  0  0
   28.1128  -15.3819  -17.3440 C   0  0  0  0  0  0  0  0  0  0  0  0
   26.5657  -14.2986  -15.7046 C   0  0  0  0  0  0  0  0  0  0  0  0
   25.6763  -13.5803  -16.6338 C   0  0  2  0  0  0  0  0  0  0  0  0
   25.9767  -13.6056  -18.0205 N   0  0  0  0  0  0  0  0  0  0  0  0
   25.5348  -12.1439  -16.2266 C   0  0  0  0  0  0  0  0  0  0  0  0
   25.2811  -11.8820  -15.0221 O   0  0  0  0  0  0  0  0  0  0  0  0
   26.3245   -7.4722  -17.0776 O   0  0  0  0  0  0  0  0  0  0  0  0
   26.3882   -8.8017  -17.4359 C   0  0  0  0  0  0  0  0  0  0  0  0
   25.4240   -9.6833  -16.6612 C   0  0  2  0  0  0  0  0  0  0  0  0
   25.6686  -11.0478  -17.1124 N   0  0  0  0  0  0  0  0  0  0  0  0
   24.0380   -9.2690  -16.8855 C   0  0  0  0  0  0  0  0  0  0  0  0
   23.3126   -9.8516  -17.7302 O   0  0  0  0  0  0  0  0  0  0  0  0
   19.3057   -7.3414  -16.5451 N   0  0  0  0  0  0  0  0  0  0  0  0
   19.7327   -8.6536  -16.1609 C   0  0  0  0  0  0  0  0  0  0  0  0
   18.8929   -9.5555  -15.9248 O   0  0  0  0  0  0  0  0  0  0  0  0
   21.1653   -8.9304  -16.0467 C   0  0  0  0  0  0  0  0  0  0  0  0
   22.0706   -7.7974  -16.3683 C   0  0  2  0  0  0  0  0  0  0  0  0
   23.4631   -8.1868  -16.1492 N   0  0  0  0  0  0  0  0  0  0  0  0
   21.7522   -6.5790  -15.5686 C   0  0  0  0  0  0  0  0  0  0  0  0
   21.4772   -5.4895  -16.0880 O   0  0  0  0  0  0  0  0  0  0  0  0
   21.7625   -6.6617  -14.1868 O   0  0  0  0  0  0  0  0  0  0  0  0
  2  3  1  6
  2  1  1  0
  4  2  1  0
  5  6  1  6
  5  4  1  0
  5  7  1  0
  7 12  1  0
  7  8  2  0
  9 10  1  0
 11 10  1  6
 11 13  1  0
 12 11  1  0
 13 20  1  0
 14 13  2  0
 16 15  1  0
 17 16  2  0
 18 16  1  0
 19 18  1  1
 20 19  1  0
 21 19  1  0
 21 23  1  0
 22 21  2  0
M  END
$$$$
