LSN.pdb
     RDKit          3D

 23 22  0  0  1  0  0  0  0  0999 V2000
   27.1067  -19.0524   -7.1888 C   0  0  0  0  0  0  0  0  0  0  0  0
   27.3089  -20.4462   -7.6809 C   0  0  2  0  0  0  0  0  0  0  0  0
   28.6966  -20.9819   -7.3280 C   0  0  0  0  0  0  0  0  0  0  0  0
   26.9280  -20.7358   -9.0792 C   0  0  0  0  0  0  0  0  0  0  0  0
   25.6609  -20.2123   -9.6183 C   0  0  2  0  0  0  0  0  0  0  0  0
   24.4497  -20.8598   -9.2611 N   0  0  0  0  0  0  0  0  0  0  0  0
   25.7125  -20.1409  -11.1154 C   0  0  0  0  0  0  0  0  0  0  0  0
   24.6323  -20.2004  -11.7584 O   0  0  0  0  0  0  0  0  0  0  0  0
   29.0741  -20.9169  -13.4923 O   0  0  0  0  0  0  0  0  0  0  0  0
   28.3169  -19.7995  -13.7717 C   0  0  0  0  0  0  0  0  0  0  0  0
   26.8716  -19.9206  -13.3208 C   0  0  2  0  0  0  0  0  0  0  0  0
   26.9054  -20.0091  -11.8662 N   0  0  0  0  0  0  0  0  0  0  0  0
   26.2279  -21.0864  -13.9289 C   0  0  0  0  0  0  0  0  0  0  0  0
   26.1060  -22.1661  -13.2977 O   0  0  0  0  0  0  0  0  0  0  0  0
   22.4333  -23.5694  -16.2474 N   0  0  0  0  0  0  0  0  0  0  0  0
   22.3266  -22.6593  -15.1465 C   0  0  0  0  0  0  0  0  0  0  0  0
   21.2808  -22.6125  -14.4548 O   0  0  0  0  0  0  0  0  0  0  0  0
   23.4563  -21.7815  -14.8373 C   0  0  0  0  0  0  0  0  0  0  0  0
   24.6613  -21.9540  -15.6886 C   0  0  2  0  0  0  0  0  0  0  0  0
   25.7155  -21.0344  -15.2625 N   0  0  0  0  0  0  0  0  0  0  0  0
   24.3617  -21.7478  -17.1354 C   0  0  0  0  0  0  0  0  0  0  0  0
   24.7281  -22.5381  -18.0149 O   0  0  0  0  0  0  0  0  0  0  0  0
   23.6443  -20.6277  -17.5190 O   0  0  0  0  0  0  0  0  0  0  0  0
  2  3  1  6
  2  1  1  0
  4  2  1  0
  5  6  1  6
  5  4  1  0
  5  7  1  0
  7 12  1  0
  7  8  2  0
  9 10  1  0
 11 10  1  6
 11 13  1  0
 12 11  1  0
 13 20  1  0
 14 13  2  0
 16 15  1  0
 17 16  2  0
 18 16  1  0
 19 18  1  1
 20 19  1  0
 21 19  1  0
 21 23  1  0
 22 21  2  0
M  END
$$$$
