LSN.pdb
     RDKit          3D

 23 22  0  0  1  0  0  0  0  0999 V2000
   18.7226  -14.5760  -15.3762 C   0  0  0  0  0  0  0  0  0  0  0  0
   19.8973  -13.8481  -15.9381 C   0  0  2  0  0  0  0  0  0  0  0  0
   21.1808  -14.1491  -15.1639 C   0  0  0  0  0  0  0  0  0  0  0  0
   19.7321  -12.4076  -16.2235 C   0  0  0  0  0  0  0  0  0  0  0  0
   18.5159  -11.9287  -16.9033 C   0  0  2  0  0  0  0  0  0  0  0  0
   18.3494  -12.2152  -18.2831 N   0  0  0  0  0  0  0  0  0  0  0  0
   18.3590  -10.4479  -16.7254 C   0  0  0  0  0  0  0  0  0  0  0  0
   19.1217   -9.6804  -17.3681 O   0  0  0  0  0  0  0  0  0  0  0  0
   15.6250   -6.7788  -15.0613 O   0  0  0  0  0  0  0  0  0  0  0  0
   15.9257   -8.1207  -15.1549 C   0  0  0  0  0  0  0  0  0  0  0  0
   17.2755   -8.3944  -15.7953 C   0  0  2  0  0  0  0  0  0  0  0  0
   17.4010   -9.8446  -15.8756 N   0  0  0  0  0  0  0  0  0  0  0  0
   18.3581   -7.7900  -15.0169 C   0  0  0  0  0  0  0  0  0  0  0  0
   18.9222   -8.4200  -14.0873 O   0  0  0  0  0  0  0  0  0  0  0  0
   22.0628   -4.8964  -13.0184 N   0  0  0  0  0  0  0  0  0  0  0  0
   22.2887   -5.9550  -13.9566 C   0  0  0  0  0  0  0  0  0  0  0  0
   23.4467   -6.3938  -14.1586 O   0  0  0  0  0  0  0  0  0  0  0  0
   21.1483   -6.5203  -14.6792 C   0  0  0  0  0  0  0  0  0  0  0  0
   19.8439   -5.8445  -14.4594 C   0  0  2  0  0  0  0  0  0  0  0  0
   18.8101   -6.4615  -15.2896 N   0  0  0  0  0  0  0  0  0  0  0  0
   19.9146   -4.3811  -14.7404 C   0  0  0  0  0  0  0  0  0  0  0  0
   19.3033   -3.8480  -15.6756 O   0  0  0  0  0  0  0  0  0  0  0  0
   20.6945   -3.5783  -13.9257 O   0  0  0  0  0  0  0  0  0  0  0  0
  2  3  1  1
  2  1  1  0
  4  2  1  0
  5  6  1  6
  5  4  1  0
  5  7  1  0
  7 12  1  0
  7  8  2  0
  9 10  1  0
 11 10  1  1
 11 13  1  0
 12 11  1  0
 13 20  1  0
 14 13  2  0
 16 15  1  0
 17 16  2  0
 18 16  1  0
 19 18  1  6
 20 19  1  0
 21 19  1  0
 21 23  1  0
 22 21  2  0
M  END
$$$$
