LSN.pdb
     RDKit          3D

 23 22  0  0  1  0  0  0  0  0999 V2000
   16.8995  -15.9728    2.5077 C   0  0  0  0  0  0  0  0  0  0  0  0
   18.0786  -15.0624    2.4272 C   0  0  2  0  0  0  0  0  0  0  0  0
   19.1982  -15.6509    1.5683 C   0  0  0  0  0  0  0  0  0  0  0  0
   18.5787  -14.4835    3.6916 C   0  0  0  0  0  0  0  0  0  0  0  0
   17.6439  -13.8142    4.6128 C   0  0  2  0  0  0  0  0  0  0  0  0
   17.6616  -12.3973    4.6902 N   0  0  0  0  0  0  0  0  0  0  0  0
   17.8021  -14.3465    6.0059 C   0  0  0  0  0  0  0  0  0  0  0  0
   18.7797  -13.9523    6.6934 O   0  0  0  0  0  0  0  0  0  0  0  0
   15.2091  -14.5851    8.7398 O   0  0  0  0  0  0  0  0  0  0  0  0
   15.8148  -15.8198    8.6476 C   0  0  0  0  0  0  0  0  0  0  0  0
   17.1655  -15.7801    7.9540 C   0  0  2  0  0  0  0  0  0  0  0  0
   16.9179  -15.2723    6.6102 N   0  0  0  0  0  0  0  0  0  0  0  0
   17.7857  -17.1061    7.9363 C   0  0  0  0  0  0  0  0  0  0  0  0
   18.0949  -17.6661    6.8547 O   0  0  0  0  0  0  0  0  0  0  0  0
   20.1661  -21.2644    8.0314 N   0  0  0  0  0  0  0  0  0  0  0  0
   20.8099  -19.9890    7.9281 C   0  0  0  0  0  0  0  0  0  0  0  0
   21.9103  -19.8745    7.3362 O   0  0  0  0  0  0  0  0  0  0  0  0
   20.1662  -18.8171    8.5235 C   0  0  0  0  0  0  0  0  0  0  0  0
   18.8310  -19.0513    9.1309 C   0  0  2  0  0  0  0  0  0  0  0  0
   18.0610  -17.8082    9.1508 N   0  0  0  0  0  0  0  0  0  0  0  0
   18.9313  -19.6086   10.5111 C   0  0  0  0  0  0  0  0  0  0  0  0
   18.7196  -18.9303   11.5247 O   0  0  0  0  0  0  0  0  0  0  0  0
   19.2751  -20.9397   10.6738 O   0  0  0  0  0  0  0  0  0  0  0  0
  2  3  1  1
  2  1  1  0
  4  2  1  0
  5  6  1  1
  5  4  1  0
  5  7  1  0
  7 12  1  0
  7  8  2  0
  9 10  1  0
 11 10  1  1
 11 13  1  0
 12 11  1  0
 13 20  1  0
 14 13  2  0
 16 15  1  0
 17 16  2  0
 18 16  1  0
 19 18  1  1
 20 19  1  0
 21 19  1  0
 21 23  1  0
 22 21  2  0
M  END
$$$$
