YWT.pdb
     RDKit          3D

 34 36  0  0  1  0  0  0  0  0999 V2000
   30.4781  -16.8563  -19.0575 O   0  0  0  0  0  0  0  0  0  0  0  0
   29.7155  -17.4970  -18.0759 C   0  0  0  0  0  0  0  0  0  0  0  0
   29.8111  -17.1258  -16.7608 C   0  0  0  0  0  0  0  0  0  0  0  0
   29.0531  -17.7623  -15.7829 C   0  0  0  0  0  0  0  0  0  0  0  0
   28.1808  -18.7849  -16.0935 C   0  0  0  0  0  0  0  0  0  0  0  0
   27.4012  -19.4251  -15.0181 C   0  0  0  0  0  0  0  0  0  0  0  0
   28.0557  -20.6642  -14.4785 C   0  0  2  0  0  0  0  0  0  0  0  0
   28.0848  -21.7528  -15.4195 N   0  0  0  0  0  0  0  0  0  0  0  0
   27.3037  -21.0789  -13.2564 C   0  0  0  0  0  0  0  0  0  0  0  0
   26.3444  -21.8850  -13.3622 O   0  0  0  0  0  0  0  0  0  0  0  0
   28.0953  -19.1475  -17.4218 C   0  0  0  0  0  0  0  0  0  0  0  0
   28.8477  -18.5178  -18.4030 C   0  0  0  0  0  0  0  0  0  0  0  0
   27.6373  -20.5897  -11.9643 N   0  0  0  0  0  0  0  0  0  0  0  0
   26.8833  -20.8846  -10.7641 C   0  0  1  0  0  0  0  0  0  0  0  0
   27.5922  -20.4191   -9.5341 C   0  0  0  0  0  0  0  0  0  0  0  0
   26.7573  -20.5382   -8.3125 C   0  0  0  0  0  0  0  0  0  0  0  0
   25.4581  -20.9898   -8.2023 C   0  0  0  0  0  0  0  0  0  0  0  0
   25.0601  -20.9415   -6.9213 N   0  0  0  0  0  0  0  0  0  0  0  0
   26.0713  -20.4678   -6.1895 C   0  0  0  0  0  0  0  0  0  0  0  0
   26.2440  -20.2015   -4.8279 C   0  0  0  0  0  0  0  0  0  0  0  0
   27.4420  -19.7027   -4.3820 C   0  0  0  0  0  0  0  0  0  0  0  0
   28.4878  -19.4529   -5.2296 C   0  0  0  0  0  0  0  0  0  0  0  0
   28.3358  -19.7072   -6.5607 C   0  0  0  0  0  0  0  0  0  0  0  0
   27.1274  -20.2117   -7.0209 C   0  0  0  0  0  0  0  0  0  0  0  0
   25.5277  -20.3117  -10.9316 C   0  0  0  0  0  0  0  0  0  0  0  0
   25.4611  -19.0763  -11.1757 O   0  0  0  0  0  0  0  0  0  0  0  0
   21.2708  -20.4360  -12.9099 C   0  0  0  0  0  0  0  0  0  0  0  0
   22.6301  -21.0393  -12.5937 C   0  0  1  0  0  0  0  0  0  0  0  0
   23.5133  -20.7576  -13.6383 O   0  0  0  0  0  0  0  0  0  0  0  0
   23.1005  -20.4489  -11.2895 C   0  0  2  0  0  0  0  0  0  0  0  0
   24.3382  -21.0409  -10.8378 N   0  0  0  0  0  0  0  0  0  0  0  0
   22.0023  -20.6989  -10.2882 C   0  0  0  0  0  0  0  0  0  0  0  0
   20.8119  -19.9918  -10.3659 O   0  0  0  0  0  0  0  0  0  0  0  0
   22.1195  -21.5393   -9.3640 O   0  0  0  0  0  0  0  0  0  0  0  0
  2  1  1  0
  3  2  2  0
  4  3  1  0
  5 11  1  0
  5  4  2  0
  6  7  1  0
  6  5  1  0
  7  9  1  0
  7  8  1  6
  9 10  2  0
 11 12  2  0
 12  2  1  0
 13 14  1  0
 13  9  1  0
 14 25  1  0
 15 16  1  0
 14 15  1  1
 16 24  1  0
 17 16  2  0
 17 18  1  0
 18 19  1  0
 19 20  1  0
 20 21  2  0
 22 21  1  0
 23 22  2  0
 24 19  2  0
 24 23  1  0
 25 31  1  0
 26 25  2  0
 28 27  1  6
 28 29  1  0
 30 28  1  0
 30 31  1  1
 32 30  1  0
 33 32  1  0
 34 32  2  0
M  END
$$$$
