YWT.pdb
     RDKit          3D

 34 36  0  0  1  0  0  0  0  0999 V2000
   25.6215  -16.2202  -21.8190 O   0  0  0  0  0  0  0  0  0  0  0  0
   25.6689  -16.8945  -20.5947 C   0  0  0  0  0  0  0  0  0  0  0  0
   24.7469  -17.8608  -20.2906 C   0  0  0  0  0  0  0  0  0  0  0  0
   24.7926  -18.5326  -19.0730 C   0  0  0  0  0  0  0  0  0  0  0  0
   25.7599  -18.2566  -18.1289 C   0  0  0  0  0  0  0  0  0  0  0  0
   25.7625  -18.9985  -16.8547 C   0  0  0  0  0  0  0  0  0  0  0  0
   27.0309  -19.7699  -16.6289 C   0  0  2  0  0  0  0  0  0  0  0  0
   27.2489  -20.8105  -17.5991 N   0  0  0  0  0  0  0  0  0  0  0  0
   26.9615  -20.3670  -15.2616 C   0  0  0  0  0  0  0  0  0  0  0  0
   26.2344  -21.3730  -15.0602 O   0  0  0  0  0  0  0  0  0  0  0  0
   26.6813  -17.2812  -18.4494 C   0  0  0  0  0  0  0  0  0  0  0  0
   26.6427  -16.6066  -19.6614 C   0  0  0  0  0  0  0  0  0  0  0  0
   27.6958  -19.8328  -14.1681 N   0  0  0  0  0  0  0  0  0  0  0  0
   27.6267  -20.3445  -12.8156 C   0  0  1  0  0  0  0  0  0  0  0  0
   28.7652  -19.8588  -11.9788 C   0  0  0  0  0  0  0  0  0  0  0  0
   28.7698  -20.4524  -10.6183 C   0  0  0  0  0  0  0  0  0  0  0  0
   29.2152  -21.6987  -10.2279 C   0  0  0  0  0  0  0  0  0  0  0  0
   29.0454  -21.8560   -8.9057 N   0  0  0  0  0  0  0  0  0  0  0  0
   28.4981  -20.7387   -8.4213 C   0  0  0  0  0  0  0  0  0  0  0  0
   28.1006  -20.3252   -7.1462 C   0  0  0  0  0  0  0  0  0  0  0  0
   27.5551  -19.0774   -6.9783 C   0  0  0  0  0  0  0  0  0  0  0  0
   27.3831  -18.2108   -8.0243 C   0  0  0  0  0  0  0  0  0  0  0  0
   27.7656  -18.5986   -9.2745 C   0  0  0  0  0  0  0  0  0  0  0  0
   28.3182  -19.8591   -9.4539 C   0  0  0  0  0  0  0  0  0  0  0  0
   26.2915  -20.0037  -12.2727 C   0  0  0  0  0  0  0  0  0  0  0  0
   25.7671  -18.9347  -12.6882 O   0  0  0  0  0  0  0  0  0  0  0  0
   23.2597  -21.9051  -12.5751 C   0  0  0  0  0  0  0  0  0  0  0  0
   23.2731  -20.4664  -12.0834 C   0  0  1  0  0  0  0  0  0  0  0  0
   21.9852  -20.1047  -11.6820 O   0  0  0  0  0  0  0  0  0  0  0  0
   24.2578  -20.3808  -10.9459 C   0  0  2  0  0  0  0  0  0  0  0  0
   25.5879  -20.7782  -11.3449 N   0  0  0  0  0  0  0  0  0  0  0  0
   23.7391  -21.2930   -9.8642 C   0  0  0  0  0  0  0  0  0  0  0  0
   22.4956  -21.0644   -9.2946 O   0  0  0  0  0  0  0  0  0  0  0  0
   24.3985  -22.2747   -9.4452 O   0  0  0  0  0  0  0  0  0  0  0  0
  2  1  1  0
  3  2  2  0
  4  3  1  0
  5 11  1  0
  5  4  2  0
  6  7  1  0
  6  5  1  0
  7  9  1  0
  7  8  1  6
  9 10  2  0
 11 12  2  0
 12  2  1  0
 13 14  1  0
 13  9  1  0
 14 25  1  0
 15 16  1  0
 14 15  1  1
 16 24  1  0
 17 16  2  0
 17 18  1  0
 18 19  1  0
 19 20  1  0
 20 21  2  0
 22 21  1  0
 23 22  2  0
 24 19  2  0
 24 23  1  0
 25 31  1  0
 26 25  2  0
 28 27  1  1
 28 29  1  0
 30 28  1  0
 30 31  1  6
 32 30  1  0
 33 32  1  0
 34 32  2  0
M  END
$$$$
