YWT.pdb
     RDKit          3D

 34 36  0  0  1  0  0  0  0  0999 V2000
   28.4616  -15.6875  -18.5065 O   0  0  0  0  0  0  0  0  0  0  0  0
   27.9091  -16.5344  -17.5405 C   0  0  0  0  0  0  0  0  0  0  0  0
   28.0983  -16.2927  -16.2055 C   0  0  0  0  0  0  0  0  0  0  0  0
   27.5493  -17.1344  -15.2432 C   0  0  0  0  0  0  0  0  0  0  0  0
   26.7977  -18.2381  -15.5895 C   0  0  0  0  0  0  0  0  0  0  0  0
   26.2388  -19.0970  -14.5293 C   0  0  0  0  0  0  0  0  0  0  0  0
   27.2105  -20.1330  -14.0420 C   0  0  2  0  0  0  0  0  0  0  0  0
   27.4253  -21.2031  -14.9803 N   0  0  0  0  0  0  0  0  0  0  0  0
   26.6773  -20.6888  -12.7623 C   0  0  0  0  0  0  0  0  0  0  0  0
   25.8684  -21.6511  -12.7935 O   0  0  0  0  0  0  0  0  0  0  0  0
   26.6158  -18.4686  -16.9375 C   0  0  0  0  0  0  0  0  0  0  0  0
   27.1599  -17.6340  -17.9034 C   0  0  0  0  0  0  0  0  0  0  0  0
   27.0554  -20.1632  -11.4971 N   0  0  0  0  0  0  0  0  0  0  0  0
   26.4565  -20.5603  -10.2403 C   0  0  1  0  0  0  0  0  0  0  0  0
   27.1879  -19.9870   -9.0704 C   0  0  0  0  0  0  0  0  0  0  0  0
   26.6277  -20.4334   -7.7702 C   0  0  0  0  0  0  0  0  0  0  0  0
   25.4702  -21.1466   -7.5347 C   0  0  0  0  0  0  0  0  0  0  0  0
   25.3144  -21.3510   -6.2172 N   0  0  0  0  0  0  0  0  0  0  0  0
   26.3456  -20.7866   -5.5844 C   0  0  0  0  0  0  0  0  0  0  0  0
   26.7188  -20.6758   -4.2415 C   0  0  0  0  0  0  0  0  0  0  0  0
   27.8733  -20.0115   -3.9120 C   0  0  0  0  0  0  0  0  0  0  0  0
   28.6841  -19.4461   -4.8594 C   0  0  0  0  0  0  0  0  0  0  0  0
   28.3345  -19.5452   -6.1738 C   0  0  0  0  0  0  0  0  0  0  0  0
   27.1683  -20.2152   -6.5165 C   0  0  0  0  0  0  0  0  0  0  0  0
   25.0214  -20.1973  -10.2906 C   0  0  0  0  0  0  0  0  0  0  0  0
   24.7421  -18.9735  -10.1692 O   0  0  0  0  0  0  0  0  0  0  0  0
   22.8328  -19.9421  -12.9535 C   0  0  0  0  0  0  0  0  0  0  0  0
   22.0876  -20.8659  -12.0033 C   0  0  1  0  0  0  0  0  0  0  0  0
   22.2741  -22.1899  -12.4071 O   0  0  0  0  0  0  0  0  0  0  0  0
   22.6234  -20.6241  -10.6158 C   0  0  2  0  0  0  0  0  0  0  0  0
   23.9750  -21.1093  -10.4609 N   0  0  0  0  0  0  0  0  0  0  0  0
   21.6956  -21.3422   -9.6699 C   0  0  0  0  0  0  0  0  0  0  0  0
   22.1572  -22.4096   -8.9146 O   0  0  0  0  0  0  0  0  0  0  0  0
   20.4938  -21.0093   -9.5317 O   0  0  0  0  0  0  0  0  0  0  0  0
  2  1  1  0
  3  2  2  0
  4  3  1  0
  5 11  1  0
  5  4  2  0
  6  7  1  0
  6  5  1  0
  7  9  1  0
  7  8  1  6
  9 10  2  0
 11 12  2  0
 12  2  1  0
 13 14  1  0
 13  9  1  0
 14 25  1  0
 15 16  1  0
 14 15  1  1
 16 24  1  0
 17 16  2  0
 17 18  1  0
 18 19  1  0
 19 20  1  0
 20 21  2  0
 22 21  1  0
 23 22  2  0
 24 19  2  0
 24 23  1  0
 25 31  1  0
 26 25  2  0
 28 27  1  6
 28 29  1  0
 30 28  1  0
 30 31  1  6
 32 30  1  0
 33 32  1  0
 34 32  2  0
M  END
$$$$
