YWT.pdb
     RDKit          3D

 34 36  0  0  1  0  0  0  0  0999 V2000
   29.3166  -16.7031  -18.2193 O   0  0  0  0  0  0  0  0  0  0  0  0
   28.6426  -17.4324  -17.2347 C   0  0  0  0  0  0  0  0  0  0  0  0
   28.1413  -18.6781  -17.5051 C   0  0  0  0  0  0  0  0  0  0  0  0
   27.4703  -19.4050  -16.5266 C   0  0  0  0  0  0  0  0  0  0  0  0
   27.2833  -18.9065  -15.2539 C   0  0  0  0  0  0  0  0  0  0  0  0
   26.5652  -19.7189  -14.2548 C   0  0  0  0  0  0  0  0  0  0  0  0
   27.4798  -20.5861  -13.4385 C   0  0  2  0  0  0  0  0  0  0  0  0
   27.9913  -21.7200  -14.1624 N   0  0  0  0  0  0  0  0  0  0  0  0
   26.7135  -21.0576  -12.2463 C   0  0  0  0  0  0  0  0  0  0  0  0
   26.3400  -22.2567  -12.1835 O   0  0  0  0  0  0  0  0  0  0  0  0
   27.7938  -17.6509  -14.9967 C   0  0  0  0  0  0  0  0  0  0  0  0
   28.4640  -16.9195  -15.9669 C   0  0  0  0  0  0  0  0  0  0  0  0
   26.3876  -20.1899  -11.1687 N   0  0  0  0  0  0  0  0  0  0  0  0
   25.6343  -20.5932  -10.0000 C   0  0  1  0  0  0  0  0  0  0  0  0
   26.0471  -19.8316   -8.7827 C   0  0  0  0  0  0  0  0  0  0  0  0
   27.3195  -20.3277   -8.2011 C   0  0  0  0  0  0  0  0  0  0  0  0
   28.2909  -21.1039   -8.7994 C   0  0  0  0  0  0  0  0  0  0  0  0
   29.2904  -21.3394   -7.9350 N   0  0  0  0  0  0  0  0  0  0  0  0
   28.9945  -20.7338   -6.7826 C   0  0  0  0  0  0  0  0  0  0  0  0
   29.6396  -20.6283   -5.5467 C   0  0  0  0  0  0  0  0  0  0  0  0
   29.0518  -19.9119   -4.5348 C   0  0  0  0  0  0  0  0  0  0  0  0
   27.8429  -19.2884   -4.6908 C   0  0  0  0  0  0  0  0  0  0  0  0
   27.2004  -19.3814   -5.8900 C   0  0  0  0  0  0  0  0  0  0  0  0
   27.7874  -20.1041   -6.9193 C   0  0  0  0  0  0  0  0  0  0  0  0
   24.1950  -20.4714  -10.3277 C   0  0  0  0  0  0  0  0  0  0  0  0
   23.4942  -19.7694   -9.5490 O   0  0  0  0  0  0  0  0  0  0  0  0
   20.9265  -19.9646  -13.8419 C   0  0  0  0  0  0  0  0  0  0  0  0
   22.2764  -20.5305  -13.4309 C   0  0  1  0  0  0  0  0  0  0  0  0
   23.2920  -19.7440  -13.9792 O   0  0  0  0  0  0  0  0  0  0  0  0
   22.3289  -20.5408  -11.9249 C   0  0  2  0  0  0  0  0  0  0  0  0
   23.5749  -21.0749  -11.4263 N   0  0  0  0  0  0  0  0  0  0  0  0
   21.1717  -21.3894  -11.4644 C   0  0  0  0  0  0  0  0  0  0  0  0
   19.9111  -20.8308  -11.3169 O   0  0  0  0  0  0  0  0  0  0  0  0
   21.3010  -22.6094  -11.2016 O   0  0  0  0  0  0  0  0  0  0  0  0
  2  1  1  0
  3  2  2  0
  4  3  1  0
  5 11  1  0
  5  4  2  0
  6  7  1  0
  6  5  1  0
  7  9  1  0
  7  8  1  6
  9 10  2  0
 11 12  2  0
 12  2  1  0
 13 14  1  0
 13  9  1  0
 14 25  1  0
 15 16  1  0
 14 15  1  1
 16 24  1  0
 17 16  2  0
 17 18  1  0
 18 19  1  0
 19 20  1  0
 20 21  2  0
 22 21  1  0
 23 22  2  0
 24 19  2  0
 24 23  1  0
 25 31  1  0
 26 25  2  0
 28 27  1  1
 28 29  1  0
 30 28  1  0
 30 31  1  6
 32 30  1  0
 33 32  1  0
 34 32  2  0
M  END
$$$$
