YWT.pdb
     RDKit          3D

 34 36  0  0  1  0  0  0  0  0999 V2000
   29.3624  -19.0029   -3.6087 O   0  0  0  0  0  0  0  0  0  0  0  0
   28.7064  -19.5327   -4.7244 C   0  0  0  0  0  0  0  0  0  0  0  0
   29.0858  -19.1814   -5.9928 C   0  0  0  0  0  0  0  0  0  0  0  0
   28.4341  -19.7076   -7.1039 C   0  0  0  0  0  0  0  0  0  0  0  0
   27.3878  -20.5975   -6.9763 C   0  0  0  0  0  0  0  0  0  0  0  0
   26.7322  -21.1249   -8.1872 C   0  0  0  0  0  0  0  0  0  0  0  0
   25.5950  -20.2652   -8.6589 C   0  0  2  0  0  0  0  0  0  0  0  0
   24.3491  -20.5494   -7.9967 N   0  0  0  0  0  0  0  0  0  0  0  0
   25.4416  -20.4822  -10.1287 C   0  0  0  0  0  0  0  0  0  0  0  0
   24.3730  -20.9722  -10.5751 O   0  0  0  0  0  0  0  0  0  0  0  0
   27.0172  -20.9418   -5.6928 C   0  0  0  0  0  0  0  0  0  0  0  0
   27.6619  -20.4216   -4.5796 C   0  0  0  0  0  0  0  0  0  0  0  0
   26.4714  -20.1511  -11.0507 N   0  0  0  0  0  0  0  0  0  0  0  0
   26.2488  -19.4630  -12.3049 C   0  0  1  0  0  0  0  0  0  0  0  0
   27.4801  -18.7636  -12.7811 C   0  0  0  0  0  0  0  0  0  0  0  0
   27.2868  -18.0922  -14.0909 C   0  0  0  0  0  0  0  0  0  0  0  0
   26.5197  -16.9825  -14.3809 C   0  0  0  0  0  0  0  0  0  0  0  0
   26.6090  -16.6888  -15.6876 N   0  0  0  0  0  0  0  0  0  0  0  0
   27.4186  -17.5828  -16.2601 C   0  0  0  0  0  0  0  0  0  0  0  0
   27.8781  -17.7817  -17.5656 C   0  0  0  0  0  0  0  0  0  0  0  0
   28.7275  -18.8256  -17.8329 C   0  0  0  0  0  0  0  0  0  0  0  0
   29.1478  -19.6906  -16.8583 C   0  0  0  0  0  0  0  0  0  0  0  0
   28.7089  -19.5106  -15.5798 C   0  0  0  0  0  0  0  0  0  0  0  0
   27.8493  -18.4574  -15.3001 C   0  0  0  0  0  0  0  0  0  0  0  0
   25.7041  -20.4474  -13.2683 C   0  0  0  0  0  0  0  0  0  0  0  0
   26.2841  -21.5658  -13.3242 O   0  0  0  0  0  0  0  0  0  0  0  0
   22.8770  -22.6013  -13.4702 C   0  0  0  0  0  0  0  0  0  0  0  0
   22.7983  -21.7495  -14.7272 C   0  0  1  0  0  0  0  0  0  0  0  0
   21.9026  -20.6988  -14.5163 O   0  0  0  0  0  0  0  0  0  0  0  0
   24.1871  -21.2481  -15.0278 C   0  0  2  0  0  0  0  0  0  0  0  0
   24.6072  -20.2193  -14.1051 N   0  0  0  0  0  0  0  0  0  0  0  0
   24.1500  -20.7090  -16.4346 C   0  0  0  0  0  0  0  0  0  0  0  0
   23.8800  -21.5547  -17.4999 O   0  0  0  0  0  0  0  0  0  0  0  0
   24.3577  -19.4987  -16.6919 O   0  0  0  0  0  0  0  0  0  0  0  0
  2  1  1  0
  3  2  2  0
  4  3  1  0
  5 11  1  0
  5  4  2  0
  6  7  1  0
  6  5  1  0
  7  9  1  0
  7  8  1  1
  9 10  2  0
 11 12  2  0
 12  2  1  0
 13 14  1  0
 13  9  1  0
 14 25  1  0
 15 16  1  0
 14 15  1  6
 16 24  1  0
 17 16  2  0
 17 18  1  0
 18 19  1  0
 19 20  1  0
 20 21  2  0
 22 21  1  0
 23 22  2  0
 24 19  2  0
 24 23  1  0
 25 31  1  0
 26 25  2  0
 28 27  1  1
 28 29  1  0
 30 28  1  0
 30 31  1  1
 32 30  1  0
 33 32  1  0
 34 32  2  0
M  END
$$$$
