YWT.pdb
     RDKit          3D

 34 36  0  0  1  0  0  0  0  0999 V2000
   25.9221  -16.1483  -19.9873 O   0  0  0  0  0  0  0  0  0  0  0  0
   25.5749  -16.9737  -18.9131 C   0  0  0  0  0  0  0  0  0  0  0  0
   25.1629  -18.2628  -19.1242 C   0  0  0  0  0  0  0  0  0  0  0  0
   24.8171  -19.0852  -18.0565 C   0  0  0  0  0  0  0  0  0  0  0  0
   24.8740  -18.6412  -16.7516 C   0  0  0  0  0  0  0  0  0  0  0  0
   24.4965  -19.5545  -15.6574 C   0  0  0  0  0  0  0  0  0  0  0  0
   25.6824  -20.1074  -14.9206 C   0  0  2  0  0  0  0  0  0  0  0  0
   26.5083  -20.9667  -15.7275 N   0  0  0  0  0  0  0  0  0  0  0  0
   25.1699  -20.8683  -13.7420 C   0  0  0  0  0  0  0  0  0  0  0  0
   24.7698  -22.0508  -13.8933 O   0  0  0  0  0  0  0  0  0  0  0  0
   25.2908  -17.3409  -16.5548 C   0  0  0  0  0  0  0  0  0  0  0  0
   25.6374  -16.5143  -17.6141 C   0  0  0  0  0  0  0  0  0  0  0  0
   25.1175  -20.2974  -12.4414 N   0  0  0  0  0  0  0  0  0  0  0  0
   24.4991  -20.9351  -11.2983 C   0  0  1  0  0  0  0  0  0  0  0  0
   25.0510  -20.4206  -10.0088 C   0  0  0  0  0  0  0  0  0  0  0  0
   26.4844  -20.7594   -9.8238 C   0  0  0  0  0  0  0  0  0  0  0  0
   27.3156  -21.4632  -10.6711 C   0  0  0  0  0  0  0  0  0  0  0  0
   28.5444  -21.5565  -10.1392 N   0  0  0  0  0  0  0  0  0  0  0  0
   28.5361  -20.9287   -8.9610 C   0  0  0  0  0  0  0  0  0  0  0  0
   29.5004  -20.7005   -7.9747 C   0  0  0  0  0  0  0  0  0  0  0  0
   29.1615  -19.9982   -6.8457 C   0  0  0  0  0  0  0  0  0  0  0  0
   27.8996  -19.5060   -6.6454 C   0  0  0  0  0  0  0  0  0  0  0  0
   26.9472  -19.7198   -7.5976 C   0  0  0  0  0  0  0  0  0  0  0  0
   27.2809  -20.4293   -8.7429 C   0  0  0  0  0  0  0  0  0  0  0  0
   23.0326  -20.7758  -11.4324 C   0  0  0  0  0  0  0  0  0  0  0  0
   22.5748  -19.6087  -11.2956 O   0  0  0  0  0  0  0  0  0  0  0  0
   20.8849  -21.1304  -14.2949 C   0  0  0  0  0  0  0  0  0  0  0  0
   20.2365  -21.9986  -13.2284 C   0  0  1  0  0  0  0  0  0  0  0  0
   20.5629  -23.3363  -13.4622 O   0  0  0  0  0  0  0  0  0  0  0  0
   20.7377  -21.5271  -11.8877 C   0  0  2  0  0  0  0  0  0  0  0  0
   22.1393  -21.8189  -11.6960 N   0  0  0  0  0  0  0  0  0  0  0  0
   19.9066  -22.2356  -10.8493 C   0  0  0  0  0  0  0  0  0  0  0  0
   18.5385  -22.0193  -10.7829 O   0  0  0  0  0  0  0  0  0  0  0  0
   20.4097  -23.0325  -10.0210 O   0  0  0  0  0  0  0  0  0  0  0  0
  2  1  1  0
  3  2  2  0
  4  3  1  0
  5 11  1  0
  5  4  2  0
  6  7  1  0
  6  5  1  0
  7  9  1  0
  7  8  1  6
  9 10  2  0
 11 12  2  0
 12  2  1  0
 13 14  1  0
 13  9  1  0
 14 25  1  0
 15 16  1  0
 14 15  1  1
 16 24  1  0
 17 16  2  0
 17 18  1  0
 18 19  1  0
 19 20  1  0
 20 21  2  0
 22 21  1  0
 23 22  2  0
 24 19  2  0
 24 23  1  0
 25 31  1  0
 26 25  2  0
 28 27  1  6
 28 29  1  0
 30 28  1  0
 30 31  1  1
 32 30  1  0
 33 32  1  0
 34 32  2  0
M  END
$$$$
