YWT.pdb
     RDKit          3D

 34 36  0  0  1  0  0  0  0  0999 V2000
   30.2973  -23.4020  -17.1522 O   0  0  0  0  0  0  0  0  0  0  0  0
   29.2312  -22.5310  -16.9059 C   0  0  0  0  0  0  0  0  0  0  0  0
   27.9432  -22.9949  -16.8608 C   0  0  0  0  0  0  0  0  0  0  0  0
   26.8814  -22.1296  -16.6159 C   0  0  0  0  0  0  0  0  0  0  0  0
   27.0791  -20.7799  -16.4098 C   0  0  0  0  0  0  0  0  0  0  0  0
   25.9183  -19.9075  -16.1541 C   0  0  0  0  0  0  0  0  0  0  0  0
   25.2525  -19.4344  -17.4142 C   0  0  2  0  0  0  0  0  0  0  0  0
   26.0634  -18.5292  -18.1854 N   0  0  0  0  0  0  0  0  0  0  0  0
   23.9777  -18.7589  -17.0277 C   0  0  0  0  0  0  0  0  0  0  0  0
   24.0165  -17.6283  -16.4786 O   0  0  0  0  0  0  0  0  0  0  0  0
   28.3815  -20.3277  -16.4582 C   0  0  0  0  0  0  0  0  0  0  0  0
   29.4459  -21.1840  -16.7019 C   0  0  0  0  0  0  0  0  0  0  0  0
   22.7085  -19.3549  -17.2606 N   0  0  0  0  0  0  0  0  0  0  0  0
   21.4435  -18.6975  -17.0087 C   0  0  1  0  0  0  0  0  0  0  0  0
   20.6967  -18.4260  -18.2738 C   0  0  0  0  0  0  0  0  0  0  0  0
   21.2490  -17.2732  -19.0285 C   0  0  0  0  0  0  0  0  0  0  0  0
   22.1122  -16.2922  -18.5853 C   0  0  0  0  0  0  0  0  0  0  0  0
   22.3730  -15.4251  -19.5761 N   0  0  0  0  0  0  0  0  0  0  0  0
   21.6987  -15.8173  -20.6597 C   0  0  0  0  0  0  0  0  0  0  0  0
   21.5795  -15.3223  -21.9618 C   0  0  0  0  0  0  0  0  0  0  0  0
   20.7815  -15.9780  -22.8652 C   0  0  0  0  0  0  0  0  0  0  0  0
   20.0890  -17.1125  -22.5364 C   0  0  0  0  0  0  0  0  0  0  0  0
   20.1943  -17.6084  -21.2705 C   0  0  0  0  0  0  0  0  0  0  0  0
   20.9991  -16.9517  -20.3499 C   0  0  0  0  0  0  0  0  0  0  0  0
   20.6946  -19.5212  -16.0317 C   0  0  0  0  0  0  0  0  0  0  0  0
   20.3439  -20.6714  -16.4116 O   0  0  0  0  0  0  0  0  0  0  0  0
   19.6114  -18.3166  -12.1074 C   0  0  0  0  0  0  0  0  0  0  0  0
   19.8674  -19.7796  -12.4326 C   0  0  1  0  0  0  0  0  0  0  0  0
   19.0572  -20.5798  -11.6239 O   0  0  0  0  0  0  0  0  0  0  0  0
   19.5700  -19.9819  -13.8959 C   0  0  2  0  0  0  0  0  0  0  0  0
   20.3574  -19.1115  -14.7379 N   0  0  0  0  0  0  0  0  0  0  0  0
   18.1008  -19.6982  -14.0751 C   0  0  0  0  0  0  0  0  0  0  0  0
   17.1532  -20.5537  -13.5338 O   0  0  0  0  0  0  0  0  0  0  0  0
   17.6860  -18.6975  -14.7081 O   0  0  0  0  0  0  0  0  0  0  0  0
  2  1  1  0
  3  2  2  0
  4  3  1  0
  5 11  1  0
  5  4  2  0
  6  7  1  0
  6  5  1  0
  7  9  1  0
  7  8  1  1
  9 10  2  0
 11 12  2  0
 12  2  1  0
 13 14  1  0
 13  9  1  0
 14 25  1  0
 15 16  1  0
 14 15  1  6
 16 24  1  0
 17 16  2  0
 17 18  1  0
 18 19  1  0
 19 20  1  0
 20 21  2  0
 22 21  1  0
 23 22  2  0
 24 19  2  0
 24 23  1  0
 25 31  1  0
 26 25  2  0
 28 27  1  1
 28 29  1  0
 30 28  1  0
 30 31  1  6
 32 30  1  0
 33 32  1  0
 34 32  2  0
M  END
$$$$
