YWT.pdb
     RDKit          3D

 34 36  0  0  1  0  0  0  0  0999 V2000
   29.9689  -16.6233  -18.8694 O   0  0  0  0  0  0  0  0  0  0  0  0
   29.3349  -17.2164  -17.7731 C   0  0  0  0  0  0  0  0  0  0  0  0
   27.9746  -17.3755  -17.7518 C   0  0  0  0  0  0  0  0  0  0  0  0
   27.3422  -17.9654  -16.6617 C   0  0  0  0  0  0  0  0  0  0  0  0
   28.0521  -18.4112  -15.5661 C   0  0  0  0  0  0  0  0  0  0  0  0
   27.3320  -19.0293  -14.4376 C   0  0  0  0  0  0  0  0  0  0  0  0
   27.6834  -20.4758  -14.2406 C   0  0  2  0  0  0  0  0  0  0  0  0
   27.2924  -21.3155  -15.3422 N   0  0  0  0  0  0  0  0  0  0  0  0
   27.0078  -20.9409  -12.9923 C   0  0  0  0  0  0  0  0  0  0  0  0
   25.9326  -21.5880  -13.0731 O   0  0  0  0  0  0  0  0  0  0  0  0
   29.4211  -18.2442  -15.6020 C   0  0  0  0  0  0  0  0  0  0  0  0
   30.0593  -17.6570  -16.6852 C   0  0  0  0  0  0  0  0  0  0  0  0
   27.5425  -20.6752  -11.7024 N   0  0  0  0  0  0  0  0  0  0  0  0
   26.8503  -20.9561  -10.4623 C   0  0  1  0  0  0  0  0  0  0  0  0
   27.6765  -20.5956   -9.2708 C   0  0  0  0  0  0  0  0  0  0  0  0
   26.9278  -20.7228   -7.9953 C   0  0  0  0  0  0  0  0  0  0  0  0
   25.6678  -21.2459   -7.7889 C   0  0  0  0  0  0  0  0  0  0  0  0
   25.3479  -21.1785   -6.4871 N   0  0  0  0  0  0  0  0  0  0  0  0
   26.3720  -20.6222   -5.8358 C   0  0  0  0  0  0  0  0  0  0  0  0
   26.6125  -20.3010   -4.4964 C   0  0  0  0  0  0  0  0  0  0  0  0
   27.8034  -19.7183   -4.1430 C   0  0  0  0  0  0  0  0  0  0  0  0
   28.7774  -19.4359   -5.0628 C   0  0  0  0  0  0  0  0  0  0  0  0
   28.5588  -19.7428   -6.3734 C   0  0  0  0  0  0  0  0  0  0  0  0
   27.3570  -20.3323   -6.7402 C   0  0  0  0  0  0  0  0  0  0  0  0
   25.5374  -20.2725  -10.5144 C   0  0  0  0  0  0  0  0  0  0  0  0
   25.5545  -19.0116  -10.5040 O   0  0  0  0  0  0  0  0  0  0  0  0
   23.6648  -19.2448  -12.9486 C   0  0  0  0  0  0  0  0  0  0  0  0
   22.6606  -20.1017  -12.1943 C   0  0  1  0  0  0  0  0  0  0  0  0
   22.6183  -21.3744  -12.7679 O   0  0  0  0  0  0  0  0  0  0  0  0
   23.0945  -20.1527  -10.7522 C   0  0  2  0  0  0  0  0  0  0  0  0
   24.3019  -20.9250  -10.5729 N   0  0  0  0  0  0  0  0  0  0  0  0
   21.9549  -20.7737   -9.9863 C   0  0  0  0  0  0  0  0  0  0  0  0
   20.7343  -20.1214   -9.8991 O   0  0  0  0  0  0  0  0  0  0  0  0
   22.0636  -21.8825   -9.4092 O   0  0  0  0  0  0  0  0  0  0  0  0
  2  1  1  0
  3  2  2  0
  4  3  1  0
  5 11  1  0
  5  4  2  0
  6  7  1  0
  6  5  1  0
  7  9  1  0
  7  8  1  6
  9 10  2  0
 11 12  2  0
 12  2  1  0
 13 14  1  0
 13  9  1  0
 14 25  1  0
 15 16  1  0
 14 15  1  1
 16 24  1  0
 17 16  2  0
 17 18  1  0
 18 19  1  0
 19 20  1  0
 20 21  2  0
 22 21  1  0
 23 22  2  0
 24 19  2  0
 24 23  1  0
 25 31  1  0
 26 25  2  0
 28 27  1  6
 28 29  1  0
 30 28  1  0
 30 31  1  6
 32 30  1  0
 33 32  1  0
 34 32  2  0
M  END
$$$$
