YWT.pdb
     RDKit          3D

 34 36  0  0  1  0  0  0  0  0999 V2000
   18.1313  -26.2785  -22.9551 O   0  0  0  0  0  0  0  0  0  0  0  0
   18.4402  -26.1327  -21.5989 C   0  0  0  0  0  0  0  0  0  0  0  0
   19.2290  -27.0504  -20.9572 C   0  0  0  0  0  0  0  0  0  0  0  0
   19.5372  -26.9068  -19.6080 C   0  0  0  0  0  0  0  0  0  0  0  0
   19.0659  -25.8436  -18.8660 C   0  0  0  0  0  0  0  0  0  0  0  0
   19.4232  -25.7395  -17.4393 C   0  0  0  0  0  0  0  0  0  0  0  0
   20.5625  -24.7940  -17.1885 C   0  0  2  0  0  0  0  0  0  0  0  0
   21.8558  -25.3803  -17.4232 N   0  0  0  0  0  0  0  0  0  0  0  0
   20.4697  -24.3382  -15.7691 C   0  0  0  0  0  0  0  0  0  0  0  0
   21.2735  -24.7955  -14.9170 O   0  0  0  0  0  0  0  0  0  0  0  0
   18.2729  -24.9277  -19.5260 C   0  0  0  0  0  0  0  0  0  0  0  0
   17.9609  -25.0636  -20.8712 C   0  0  0  0  0  0  0  0  0  0  0  0
   19.4947  -23.3961  -15.3425 N   0  0  0  0  0  0  0  0  0  0  0  0
   19.4218  -22.8523  -14.0028 C   0  0  1  0  0  0  0  0  0  0  0  0
   19.3786  -21.3589  -14.0108 C   0  0  0  0  0  0  0  0  0  0  0  0
   20.7165  -20.7485  -14.2134 C   0  0  0  0  0  0  0  0  0  0  0  0
   21.6686  -20.4350  -13.2651 C   0  0  0  0  0  0  0  0  0  0  0  0
   22.7466  -19.8948  -13.8548 N   0  0  0  0  0  0  0  0  0  0  0  0
   22.5210  -19.8478  -15.1699 C   0  0  0  0  0  0  0  0  0  0  0  0
   23.2619  -19.3990  -16.2674 C   0  0  0  0  0  0  0  0  0  0  0  0
   22.7290  -19.4928  -17.5283 C   0  0  0  0  0  0  0  0  0  0  0  0
   21.4841  -20.0156  -17.7559 C   0  0  0  0  0  0  0  0  0  0  0  0
   20.7484  -20.4578  -16.6964 C   0  0  0  0  0  0  0  0  0  0  0  0
   21.2793  -20.3668  -15.4172 C   0  0  0  0  0  0  0  0  0  0  0  0
   18.2684  -23.4848  -13.3221 C   0  0  0  0  0  0  0  0  0  0  0  0
   17.2785  -23.7832  -14.0442 O   0  0  0  0  0  0  0  0  0  0  0  0
   15.9470  -25.5630   -9.5601 C   0  0  0  0  0  0  0  0  0  0  0  0
   17.2830  -25.0960  -10.1158 C   0  0  1  0  0  0  0  0  0  0  0  0
   18.1072  -26.2039  -10.3256 O   0  0  0  0  0  0  0  0  0  0  0  0
   17.0105  -24.3515  -11.3972 C   0  0  2  0  0  0  0  0  0  0  0  0
   18.2084  -23.7670  -11.9537 N   0  0  0  0  0  0  0  0  0  0  0  0
   16.0089  -23.2769  -11.0606 C   0  0  0  0  0  0  0  0  0  0  0  0
   14.6659  -23.5927  -10.9210 O   0  0  0  0  0  0  0  0  0  0  0  0
   16.3441  -22.0790  -10.8969 O   0  0  0  0  0  0  0  0  0  0  0  0
  2  1  1  0
  3  2  2  0
  4  3  1  0
  5 11  1  0
  5  4  2  0
  6  7  1  0
  6  5  1  0
  7  9  1  0
  7  8  1  1
  9 10  2  0
 11 12  2  0
 12  2  1  0
 13 14  1  0
 13  9  1  0
 14 25  1  0
 15 16  1  0
 14 15  1  6
 16 24  1  0
 17 16  2  0
 17 18  1  0
 18 19  1  0
 19 20  1  0
 20 21  2  0
 22 21  1  0
 23 22  2  0
 24 19  2  0
 24 23  1  0
 25 31  1  0
 26 25  2  0
 28 27  1  6
 28 29  1  0
 30 28  1  0
 30 31  1  1
 32 30  1  0
 33 32  1  0
 34 32  2  0
M  END
$$$$
