YWT.pdb
     RDKit          3D

 34 36  0  0  1  0  0  0  0  0999 V2000
   15.6207  -15.5483  -14.9621 O   0  0  0  0  0  0  0  0  0  0  0  0
   16.3595  -14.3848  -15.1989 C   0  0  0  0  0  0  0  0  0  0  0  0
   15.7468  -13.2441  -15.6458 C   0  0  0  0  0  0  0  0  0  0  0  0
   16.4805  -12.0857  -15.8819 C   0  0  0  0  0  0  0  0  0  0  0  0
   17.8440  -12.0372  -15.6777 C   0  0  0  0  0  0  0  0  0  0  0  0
   18.5732  -10.7835  -15.9434 C   0  0  0  0  0  0  0  0  0  0  0  0
   18.7821  -10.5269  -17.4081 C   0  0  2  0  0  0  0  0  0  0  0  0
   19.6392  -11.4936  -18.0425 N   0  0  0  0  0  0  0  0  0  0  0  0
   19.3750   -9.1633  -17.5497 C   0  0  0  0  0  0  0  0  0  0  0  0
   20.6227   -9.0357  -17.6398 O   0  0  0  0  0  0  0  0  0  0  0  0
   18.4469  -13.1935  -15.2275 C   0  0  0  0  0  0  0  0  0  0  0  0
   17.7224  -14.3528  -14.9896 C   0  0  0  0  0  0  0  0  0  0  0  0
   18.5705   -7.9921  -17.5865 N   0  0  0  0  0  0  0  0  0  0  0  0
   19.0889   -6.6563  -17.7937 C   0  0  1  0  0  0  0  0  0  0  0  0
   18.2238   -5.8614  -18.7166 C   0  0  0  0  0  0  0  0  0  0  0  0
   18.7333   -4.4844  -18.9351 C   0  0  0  0  0  0  0  0  0  0  0  0
   18.5547   -3.3682  -18.1437 C   0  0  0  0  0  0  0  0  0  0  0  0
   19.1760   -2.3112  -18.6901 N   0  0  0  0  0  0  0  0  0  0  0  0
   19.7580   -2.7113  -19.8231 C   0  0  0  0  0  0  0  0  0  0  0  0
   20.5274   -2.0706  -20.7990 C   0  0  0  0  0  0  0  0  0  0  0  0
   20.9885   -2.7859  -21.8753 C   0  0  0  0  0  0  0  0  0  0  0  0
   20.7210   -4.1195  -22.0322 C   0  0  0  0  0  0  0  0  0  0  0  0
   19.9720   -4.7595  -21.0893 C   0  0  0  0  0  0  0  0  0  0  0  0
   19.5012   -4.0439  -19.9972 C   0  0  0  0  0  0  0  0  0  0  0  0
   19.2798   -6.0357  -16.4625 C   0  0  0  0  0  0  0  0  0  0  0  0
   18.3111   -6.1107  -15.6584 O   0  0  0  0  0  0  0  0  0  0  0  0
   21.3451   -6.7857  -13.6062 C   0  0  0  0  0  0  0  0  0  0  0  0
   21.6441   -5.3268  -13.9126 C   0  0  1  0  0  0  0  0  0  0  0  0
   22.8588   -5.2393  -14.5964 O   0  0  0  0  0  0  0  0  0  0  0  0
   20.5008   -4.7880  -14.7331 C   0  0  2  0  0  0  0  0  0  0  0  0
   20.4451   -5.3832  -16.0480 N   0  0  0  0  0  0  0  0  0  0  0  0
   20.7163   -3.3002  -14.8384 C   0  0  0  0  0  0  0  0  0  0  0  0
   20.6858   -2.5077  -13.7008 O   0  0  0  0  0  0  0  0  0  0  0  0
   20.9274   -2.7319  -15.9369 O   0  0  0  0  0  0  0  0  0  0  0  0
  2  1  1  0
  3  2  2  0
  4  3  1  0
  5 11  1  0
  5  4  2  0
  6  7  1  0
  6  5  1  0
  7  9  1  0
  7  8  1  1
  9 10  2  0
 11 12  2  0
 12  2  1  0
 13 14  1  0
 13  9  1  0
 14 25  1  0
 15 16  1  0
 14 15  1  6
 16 24  1  0
 17 16  2  0
 17 18  1  0
 18 19  1  0
 19 20  1  0
 20 21  2  0
 22 21  1  0
 23 22  2  0
 24 19  2  0
 24 23  1  0
 25 31  1  0
 26 25  2  0
 28 27  1  6
 28 29  1  0
 30 28  1  0
 30 31  1  6
 32 30  1  0
 33 32  1  0
 34 32  2  0
M  END
$$$$
