YWT.pdb
     RDKit          3D

 34 36  0  0  1  0  0  0  0  0999 V2000
   18.0212  -23.9464  -15.4409 O   0  0  0  0  0  0  0  0  0  0  0  0
   19.1949  -23.2891  -15.0584 C   0  0  0  0  0  0  0  0  0  0  0  0
   20.2845  -23.9963  -14.6239 C   0  0  0  0  0  0  0  0  0  0  0  0
   21.4529  -23.3439  -14.2430 C   0  0  0  0  0  0  0  0  0  0  0  0
   21.5626  -21.9694  -14.2864 C   0  0  0  0  0  0  0  0  0  0  0  0
   22.8242  -21.3288  -13.8715 C   0  0  0  0  0  0  0  0  0  0  0  0
   22.9677  -21.2299  -12.3800 C   0  0  2  0  0  0  0  0  0  0  0  0
   21.9054  -20.4908  -11.7501 N   0  0  0  0  0  0  0  0  0  0  0  0
   24.2760  -20.5689  -12.0930 C   0  0  0  0  0  0  0  0  0  0  0  0
   24.3632  -19.3157  -12.1489 O   0  0  0  0  0  0  0  0  0  0  0  0
   20.4572  -21.2709  -14.7261 C   0  0  0  0  0  0  0  0  0  0  0  0
   19.2883  -21.9139  -15.1078 C   0  0  0  0  0  0  0  0  0  0  0  0
   25.4385  -21.3138  -11.7554 N   0  0  0  0  0  0  0  0  0  0  0  0
   26.7615  -20.7406  -11.6251 C   0  0  1  0  0  0  0  0  0  0  0  0
   27.5075  -21.3218  -10.4685 C   0  0  0  0  0  0  0  0  0  0  0  0
   26.9943  -20.8465   -9.1592 C   0  0  0  0  0  0  0  0  0  0  0  0
   25.6924  -20.5644   -8.7996 C   0  0  0  0  0  0  0  0  0  0  0  0
   25.6447  -20.1584   -7.5210 N   0  0  0  0  0  0  0  0  0  0  0  0
   26.8881  -20.1686   -7.0351 C   0  0  0  0  0  0  0  0  0  0  0  0
   27.4489  -19.8532   -5.7938 C   0  0  0  0  0  0  0  0  0  0  0  0
   28.8037  -19.9728   -5.6126 C   0  0  0  0  0  0  0  0  0  0  0  0
   29.6380  -20.3944   -6.6130 C   0  0  0  0  0  0  0  0  0  0  0  0
   29.1071  -20.7061   -7.8298 C   0  0  0  0  0  0  0  0  0  0  0  0
   27.7377  -20.5881   -8.0223 C   0  0  0  0  0  0  0  0  0  0  0  0
   27.4506  -20.8976  -12.9268 C   0  0  0  0  0  0  0  0  0  0  0  0
   27.9028  -22.0441  -13.1937 O   0  0  0  0  0  0  0  0  0  0  0  0
   27.5008  -22.4658  -15.2525 C   0  0  0  0  0  0  0  0  0  0  0  0
   27.5072  -21.1229  -15.9654 C   0  0  1  0  0  0  0  0  0  0  0  0
   26.1910  -20.6962  -16.1559 O   0  0  0  0  0  0  0  0  0  0  0  0
   28.2902  -20.1568  -15.1142 C   0  0  2  0  0  0  0  0  0  0  0  0
   27.6286  -19.8731  -13.8620 N   0  0  0  0  0  0  0  0  0  0  0  0
   28.4387  -18.8967  -15.9273 C   0  0  0  0  0  0  0  0  0  0  0  0
   27.8028  -17.7301  -15.5303 O   0  0  0  0  0  0  0  0  0  0  0  0
   29.1294  -18.8546  -16.9740 O   0  0  0  0  0  0  0  0  0  0  0  0
  2  1  1  0
  3  2  2  0
  4  3  1  0
  5 11  1  0
  5  4  2  0
  6  7  1  0
  6  5  1  0
  7  9  1  0
  7  8  1  6
  9 10  2  0
 11 12  2  0
 12  2  1  0
 13 14  1  0
 13  9  1  0
 14 25  1  0
 15 16  1  0
 14 15  1  1
 16 24  1  0
 17 16  2  0
 17 18  1  0
 18 19  1  0
 19 20  1  0
 20 21  2  0
 22 21  1  0
 23 22  2  0
 24 19  2  0
 24 23  1  0
 25 31  1  0
 26 25  2  0
 28 27  1  1
 28 29  1  0
 30 28  1  0
 30 31  1  1
 32 30  1  0
 33 32  1  0
 34 32  2  0
M  END
$$$$
