PTG.pdb
     RDKit          3D

 19 19  0  0  1  0  0  0  0  0999 V2000
   23.1345  -13.0924  -16.5378 N   0  0  0  0  0  0  0  0  0  0  0  0
   24.4217  -13.7594  -16.4755 C   0  0  0  0  0  0  0  0  0  0  0  0
   25.3010  -12.6576  -15.8781 C   0  0  0  0  0  0  0  0  0  0  0  0
   24.3913  -12.1918  -14.7335 C   0  0  0  0  0  0  0  0  0  0  0  0
   23.0435  -12.2003  -15.4342 C   0  0  1  0  0  0  0  0  0  0  0  0
   22.7666  -10.7943  -15.8365 C   0  0  0  0  0  0  0  0  0  0  0  0
   23.1772  -10.2747  -16.8799 O   0  0  0  0  0  0  0  0  0  0  0  0
   19.7003   -9.7698  -16.7934 C   0  0  0  0  0  0  0  0  0  0  0  0
   20.0417   -8.7937  -15.6996 C   0  0  1  0  0  0  0  0  0  0  0  0
   19.1875   -9.0776  -14.6328 O   0  0  0  0  0  0  0  0  0  0  0  0
   21.4671   -8.7360  -15.3126 C   0  0  2  0  0  0  0  0  0  0  0  0
   21.9770  -10.0245  -14.9436 N   0  0  0  0  0  0  0  0  0  0  0  0
   21.8717   -7.6120  -14.4605 C   0  0  0  0  0  0  0  0  0  0  0  0
   21.8436   -7.8123  -13.2064 O   0  0  0  0  0  0  0  0  0  0  0  0
   22.2778   -6.3475  -14.8950 N   0  0  0  0  0  0  0  0  0  0  0  0
   22.7541   -5.3060  -13.9915 C   0  0  0  0  0  0  0  0  0  0  0  0
   21.7122   -4.2876  -13.7406 C   0  0  0  0  0  0  0  0  0  0  0  0
   20.5239   -4.6070  -13.9959 O   0  0  0  0  0  0  0  0  0  0  0  0
   21.9540   -3.0228  -13.2500 O   0  0  0  0  0  0  0  0  0  0  0  0
  1  2  1  0
  3  2  1  0
  4  3  1  0
  4  5  1  0
  5  6  1  6
  5  1  1  0
  6 12  1  0
  7  6  2  0
  9  8  1  6
 10  9  1  0
 11  9  1  0
 11 13  1  0
 11 12  1  1
 13 15  1  0
 13 14  2  0
 15 16  1  0
 16 17  1  0
 17 18  2  0
 17 19  1  0
M  END
$$$$
