PTG.pdb
     RDKit          3D

 19 19  0  0  1  0  0  0  0  0999 V2000
   20.0477  -11.8263  -15.4847 N   0  0  0  0  0  0  0  0  0  0  0  0
   19.1855  -12.8054  -16.1200 C   0  0  0  0  0  0  0  0  0  0  0  0
   19.1583  -12.2897  -17.5613 C   0  0  0  0  0  0  0  0  0  0  0  0
   20.6561  -12.0310  -17.7725 C   0  0  0  0  0  0  0  0  0  0  0  0
   21.0169  -11.4052  -16.4361 C   0  0  1  0  0  0  0  0  0  0  0  0
   21.0305   -9.9321  -16.6485 C   0  0  0  0  0  0  0  0  0  0  0  0
   21.7564   -9.3525  -17.4635 O   0  0  0  0  0  0  0  0  0  0  0  0
   17.9185   -7.9500  -17.3627 C   0  0  0  0  0  0  0  0  0  0  0  0
   18.6336   -7.3157  -16.1999 C   0  0  1  0  0  0  0  0  0  0  0  0
   17.8222   -7.5094  -15.0808 O   0  0  0  0  0  0  0  0  0  0  0  0
   20.0324   -7.7469  -15.9941 C   0  0  2  0  0  0  0  0  0  0  0  0
   20.1410   -9.1693  -15.8483 N   0  0  0  0  0  0  0  0  0  0  0  0
   20.8404   -6.9387  -15.0737 C   0  0  0  0  0  0  0  0  0  0  0  0
   20.8424   -7.2985  -13.8554 O   0  0  0  0  0  0  0  0  0  0  0  0
   21.5997   -5.8141  -15.4073 N   0  0  0  0  0  0  0  0  0  0  0  0
   22.4550   -5.1149  -14.4546 C   0  0  0  0  0  0  0  0  0  0  0  0
   21.7085   -4.0717  -13.7196 C   0  0  0  0  0  0  0  0  0  0  0  0
   22.3711   -3.3136  -12.9679 O   0  0  0  0  0  0  0  0  0  0  0  0
   20.3468   -3.8765  -13.8026 O   0  0  0  0  0  0  0  0  0  0  0  0
  1  2  1  0
  3  2  1  0
  4  3  1  0
  4  5  1  0
  5  6  1  6
  5  1  1  0
  6 12  1  0
  7  6  2  0
  9  8  1  6
 10  9  1  0
 11  9  1  0
 11 13  1  0
 11 12  1  1
 13 15  1  0
 13 14  2  0
 15 16  1  0
 16 17  1  0
 17 18  2  0
 17 19  1  0
M  END
$$$$
