PTG.pdb
     RDKit          3D

 19 19  0  0  1  0  0  0  0  0999 V2000
   26.9344  -19.0989  -15.1494 N   0  0  0  0  0  0  0  0  0  0  0  0
   28.3097  -18.6382  -15.1942 C   0  0  0  0  0  0  0  0  0  0  0  0
   29.0445  -19.8290  -14.5726 C   0  0  0  0  0  0  0  0  0  0  0  0
   28.3780  -20.9762  -15.3438 C   0  0  0  0  0  0  0  0  0  0  0  0
   26.9327  -20.5086  -15.3350 C   0  0  1  0  0  0  0  0  0  0  0  0
   26.2562  -21.2455  -14.2328 C   0  0  0  0  0  0  0  0  0  0  0  0
   26.1151  -22.4727  -14.1993 O   0  0  0  0  0  0  0  0  0  0  0  0
   26.2106  -20.1233  -10.3591 C   0  0  0  0  0  0  0  0  0  0  0  0
   25.3389  -21.2203  -10.9092 C   0  0  1  0  0  0  0  0  0  0  0  0
   24.3726  -21.4849   -9.9374 O   0  0  0  0  0  0  0  0  0  0  0  0
   24.7715  -20.9768  -12.2521 C   0  0  2  0  0  0  0  0  0  0  0  0
   25.7503  -20.4608  -13.1643 N   0  0  0  0  0  0  0  0  0  0  0  0
   23.4465  -20.3482  -12.3015 C   0  0  0  0  0  0  0  0  0  0  0  0
   23.4044  -19.0964  -12.0899 O   0  0  0  0  0  0  0  0  0  0  0  0
   22.2326  -20.9932  -12.5529 N   0  0  0  0  0  0  0  0  0  0  0  0
   20.9411  -20.3174  -12.4976 C   0  0  0  0  0  0  0  0  0  0  0  0
   19.8335  -21.2786  -12.3102 C   0  0  0  0  0  0  0  0  0  0  0  0
   20.1321  -22.4987  -12.2752 O   0  0  0  0  0  0  0  0  0  0  0  0
   18.5075  -20.9298  -12.1726 O   0  0  0  0  0  0  0  0  0  0  0  0
  1  2  1  0
  3  2  1  0
  4  3  1  0
  4  5  1  0
  5  6  1  1
  5  1  1  0
  6 12  1  0
  7  6  2  0
  9  8  1  1
 10  9  1  0
 11  9  1  0
 11 13  1  0
 11 12  1  6
 13 15  1  0
 13 14  2  0
 15 16  1  0
 16 17  1  0
 17 18  2  0
 17 19  1  0
M  END
$$$$
