PTG.pdb
     RDKit          3D

 19 19  0  0  1  0  0  0  0  0999 V2000
   17.2394  -12.3363  -16.3048 N   0  0  0  0  0  0  0  0  0  0  0  0
   15.8096  -12.2135  -16.5198 C   0  0  0  0  0  0  0  0  0  0  0  0
   15.6089  -10.7059  -16.3435 C   0  0  0  0  0  0  0  0  0  0  0  0
   16.7693  -10.1875  -17.2035 C   0  0  0  0  0  0  0  0  0  0  0  0
   17.8649  -11.1590  -16.7992 C   0  0  1  0  0  0  0  0  0  0  0  0
   18.6940  -10.4612  -15.7789 C   0  0  0  0  0  0  0  0  0  0  0  0
   18.4468  -10.4523  -14.5681 O   0  0  0  0  0  0  0  0  0  0  0  0
   23.1188   -9.1649  -14.4723 C   0  0  0  0  0  0  0  0  0  0  0  0
   22.1142   -9.6991  -15.4579 C   0  0  1  0  0  0  0  0  0  0  0  0
   22.1416  -11.0895  -15.3390 O   0  0  0  0  0  0  0  0  0  0  0  0
   20.7547   -9.1271  -15.3625 C   0  0  2  0  0  0  0  0  0  0  0  0
   19.8367   -9.7695  -16.2575 N   0  0  0  0  0  0  0  0  0  0  0  0
   20.6612   -7.6650  -15.2797 C   0  0  0  0  0  0  0  0  0  0  0  0
   20.7193   -7.0299  -16.3782 O   0  0  0  0  0  0  0  0  0  0  0  0
   20.5201   -6.9089  -14.1130 N   0  0  0  0  0  0  0  0  0  0  0  0
   20.5388   -5.4503  -14.0979 C   0  0  0  0  0  0  0  0  0  0  0  0
   21.8891   -4.9283  -13.7982 C   0  0  0  0  0  0  0  0  0  0  0  0
   22.7682   -5.7644  -13.4708 O   0  0  0  0  0  0  0  0  0  0  0  0
   22.2456   -3.5983  -13.8532 O   0  0  0  0  0  0  0  0  0  0  0  0
  1  2  1  0
  3  2  1  0
  4  3  1  0
  4  5  1  0
  5  6  1  1
  5  1  1  0
  6 12  1  0
  7  6  2  0
  9  8  1  1
 10  9  1  0
 11  9  1  0
 11 13  1  0
 11 12  1  6
 13 15  1  0
 13 14  2  0
 15 16  1  0
 16 17  1  0
 17 18  2  0
 17 19  1  0
M  END
$$$$
