PTG.pdb
     RDKit          3D

 19 19  0  0  1  0  0  0  0  0999 V2000
   18.6858  -12.2594  -17.6334 N   0  0  0  0  0  0  0  0  0  0  0  0
   19.2519  -13.5158  -17.1788 C   0  0  0  0  0  0  0  0  0  0  0  0
   20.0080  -13.0672  -15.9253 C   0  0  0  0  0  0  0  0  0  0  0  0
   18.9294  -12.1937  -15.2707 C   0  0  0  0  0  0  0  0  0  0  0  0
   18.3872  -11.4682  -16.4903 C   0  0  1  0  0  0  0  0  0  0  0  0
   19.0418  -10.1317  -16.5135 C   0  0  0  0  0  0  0  0  0  0  0  0
   20.0799   -9.8752  -17.1329 O   0  0  0  0  0  0  0  0  0  0  0  0
   18.3001   -5.3369  -16.1039 C   0  0  0  0  0  0  0  0  0  0  0  0
   17.8450   -6.7653  -15.9681 C   0  0  1  0  0  0  0  0  0  0  0  0
   17.0453   -7.0349  -17.0798 O   0  0  0  0  0  0  0  0  0  0  0  0
   18.9153   -7.7627  -15.7575 C   0  0  2  0  0  0  0  0  0  0  0  0
   18.4096   -9.1045  -15.7661 N   0  0  0  0  0  0  0  0  0  0  0  0
   19.9084   -7.4524  -14.7227 C   0  0  0  0  0  0  0  0  0  0  0  0
   19.5503   -7.6402  -13.5185 O   0  0  0  0  0  0  0  0  0  0  0  0
   21.2018   -6.9677  -14.9348 N   0  0  0  0  0  0  0  0  0  0  0  0
   22.1489   -6.7161  -13.8543 C   0  0  0  0  0  0  0  0  0  0  0  0
   22.0083   -5.3456  -13.3180 C   0  0  0  0  0  0  0  0  0  0  0  0
   21.1832   -4.5881  -13.8876 O   0  0  0  0  0  0  0  0  0  0  0  0
   22.7149   -4.8472  -12.2450 O   0  0  0  0  0  0  0  0  0  0  0  0
  1  2  1  0
  3  2  1  0
  4  3  1  0
  4  5  1  0
  5  6  1  6
  5  1  1  0
  6 12  1  0
  7  6  2  0
  9  8  1  6
 10  9  1  0
 11  9  1  0
 11 13  1  0
 11 12  1  1
 13 15  1  0
 13 14  2  0
 15 16  1  0
 16 17  1  0
 17 18  2  0
 17 19  1  0
M  END
$$$$
