PTG.pdb
     RDKit          3D

 19 19  0  0  1  0  0  0  0  0999 V2000
   18.0131  -12.6712  -17.3618 N   0  0  0  0  0  0  0  0  0  0  0  0
   18.5037  -14.0173  -17.1321 C   0  0  0  0  0  0  0  0  0  0  0  0
   19.6948  -13.7482  -16.2084 C   0  0  0  0  0  0  0  0  0  0  0  0
   19.0424  -12.7700  -15.2224 C   0  0  0  0  0  0  0  0  0  0  0  0
   18.2377  -11.9100  -16.1819 C   0  0  1  0  0  0  0  0  0  0  0  0
   19.0391  -10.6787  -16.4206 C   0  0  0  0  0  0  0  0  0  0  0  0
   19.9979  -10.6114  -17.1974 O   0  0  0  0  0  0  0  0  0  0  0  0
   17.4985   -7.6207  -17.6378 C   0  0  0  0  0  0  0  0  0  0  0  0
   18.2783   -7.2453  -16.4062 C   0  0  1  0  0  0  0  0  0  0  0  0
   17.3406   -6.8909  -15.4349 O   0  0  0  0  0  0  0  0  0  0  0  0
   19.2603   -8.2460  -15.9384 C   0  0  2  0  0  0  0  0  0  0  0  0
   18.6535   -9.5222  -15.6946 N   0  0  0  0  0  0  0  0  0  0  0  0
   20.2361   -7.7926  -14.9407 C   0  0  0  0  0  0  0  0  0  0  0  0
   19.9697   -8.0551  -13.7268 O   0  0  0  0  0  0  0  0  0  0  0  0
   21.4216   -7.0987  -15.1973 N   0  0  0  0  0  0  0  0  0  0  0  0
   22.3415   -6.6714  -14.1489 C   0  0  0  0  0  0  0  0  0  0  0  0
   21.9795   -5.3393  -13.6196 C   0  0  0  0  0  0  0  0  0  0  0  0
   20.9564   -4.7896  -14.0992 O   0  0  0  0  0  0  0  0  0  0  0  0
   22.6823   -4.6658  -12.6442 O   0  0  0  0  0  0  0  0  0  0  0  0
  1  2  1  0
  3  2  1  0
  4  3  1  0
  4  5  1  0
  5  6  1  6
  5  1  1  0
  6 12  1  0
  7  6  2  0
  9  8  1  6
 10  9  1  0
 11  9  1  0
 11 13  1  0
 11 12  1  1
 13 15  1  0
 13 14  2  0
 15 16  1  0
 16 17  1  0
 17 18  2  0
 17 19  1  0
M  END
$$$$
