PTG.pdb
     RDKit          3D

 19 19  0  0  1  0  0  0  0  0999 V2000
   21.3598  -11.6674  -16.1534 N   0  0  0  0  0  0  0  0  0  0  0  0
   20.7810  -12.9415  -16.5371 C   0  0  0  0  0  0  0  0  0  0  0  0
   19.7670  -12.5024  -17.5969 C   0  0  0  0  0  0  0  0  0  0  0  0
   20.6454  -11.5476  -18.4164 C   0  0  0  0  0  0  0  0  0  0  0  0
   21.3817  -10.8269  -17.3001 C   0  0  1  0  0  0  0  0  0  0  0  0
   20.6756   -9.5329  -17.0937 C   0  0  0  0  0  0  0  0  0  0  0  0
   20.5469   -8.6635  -17.9624 O   0  0  0  0  0  0  0  0  0  0  0  0
   17.1638   -9.2064  -16.1175 C   0  0  0  0  0  0  0  0  0  0  0  0
   17.9803   -8.4499  -15.1042 C   0  0  1  0  0  0  0  0  0  0  0  0
   17.8988   -9.1695  -13.9110 O   0  0  0  0  0  0  0  0  0  0  0  0
   19.3667   -8.1314  -15.5057 C   0  0  2  0  0  0  0  0  0  0  0  0
   20.1246   -9.3113  -15.8051 N   0  0  0  0  0  0  0  0  0  0  0  0
   20.0572   -7.1005  -14.7224 C   0  0  0  0  0  0  0  0  0  0  0  0
   19.4130   -6.0277  -14.5039 O   0  0  0  0  0  0  0  0  0  0  0  0
   21.3510   -7.1843  -14.2011 N   0  0  0  0  0  0  0  0  0  0  0  0
   21.9129   -6.1918  -13.2915 C   0  0  0  0  0  0  0  0  0  0  0  0
   22.1048   -4.8884  -13.9625 C   0  0  0  0  0  0  0  0  0  0  0  0
   21.7745   -4.8115  -15.1725 O   0  0  0  0  0  0  0  0  0  0  0  0
   22.6170   -3.7621  -13.3557 O   0  0  0  0  0  0  0  0  0  0  0  0
  1  2  1  0
  3  2  1  0
  4  3  1  0
  4  5  1  0
  5  6  1  1
  5  1  1  0
  6 12  1  0
  7  6  2  0
  9  8  1  6
 10  9  1  0
 11  9  1  0
 11 13  1  0
 11 12  1  1
 13 15  1  0
 13 14  2  0
 15 16  1  0
 16 17  1  0
 17 18  2  0
 17 19  1  0
M  END
$$$$
