PTG.pdb
     RDKit          3D

 19 19  0  0  1  0  0  0  0  0999 V2000
   26.3015  -18.3138  -15.3297 N   0  0  0  0  0  0  0  0  0  0  0  0
   27.5435  -18.1648  -16.0651 C   0  0  0  0  0  0  0  0  0  0  0  0
   27.4064  -16.7359  -16.5977 C   0  0  0  0  0  0  0  0  0  0  0  0
   26.9428  -16.0259  -15.3188 C   0  0  0  0  0  0  0  0  0  0  0  0
   25.9573  -17.0486  -14.7797 C   0  0  1  0  0  0  0  0  0  0  0  0
   24.6018  -16.5826  -15.1808 C   0  0  0  0  0  0  0  0  0  0  0  0
   24.1308  -15.4777  -14.8901 O   0  0  0  0  0  0  0  0  0  0  0  0
   23.3066  -15.7054  -18.2692 C   0  0  0  0  0  0  0  0  0  0  0  0
   22.4329  -16.8432  -17.8134 C   0  0  1  0  0  0  0  0  0  0  0  0
   22.7362  -17.9306  -18.6342 O   0  0  0  0  0  0  0  0  0  0  0  0
   22.4925  -17.1603  -16.3710 C   0  0  2  0  0  0  0  0  0  0  0  0
   23.8225  -17.4879  -15.9466 N   0  0  0  0  0  0  0  0  0  0  0  0
   21.4173  -18.0053  -15.8389 C   0  0  0  0  0  0  0  0  0  0  0  0
   21.7717  -18.9759  -15.1002 O   0  0  0  0  0  0  0  0  0  0  0  0
   20.0483  -17.8475  -16.0706 N   0  0  0  0  0  0  0  0  0  0  0  0
   19.0366  -18.7500  -15.5323 C   0  0  0  0  0  0  0  0  0  0  0  0
   17.6983  -18.4582  -16.0886 C   0  0  0  0  0  0  0  0  0  0  0  0
   16.7438  -19.1738  -15.6935 O   0  0  0  0  0  0  0  0  0  0  0  0
   17.4293  -17.4631  -17.0032 O   0  0  0  0  0  0  0  0  0  0  0  0
  1  2  1  0
  3  2  1  0
  4  3  1  0
  4  5  1  0
  5  6  1  6
  5  1  1  0
  6 12  1  0
  7  6  2  0
  9  8  1  1
 10  9  1  0
 11  9  1  0
 11 13  1  0
 11 12  1  6
 13 15  1  0
 13 14  2  0
 15 16  1  0
 16 17  1  0
 17 18  2  0
 17 19  1  0
M  END
$$$$
