PTG.pdb
     RDKit          3D

 19 19  0  0  1  0  0  0  0  0999 V2000
   23.3289  -12.5142  -16.9027 N   0  0  0  0  0  0  0  0  0  0  0  0
   24.5193  -13.3048  -16.6504 C   0  0  0  0  0  0  0  0  0  0  0  0
   25.3051  -12.3745  -15.7223 C   0  0  0  0  0  0  0  0  0  0  0  0
   24.1857  -11.9672  -14.7550 C   0  0  0  0  0  0  0  0  0  0  0  0
   23.0414  -11.7597  -15.7323 C   0  0  1  0  0  0  0  0  0  0  0  0
   22.9591  -10.2949  -15.9829 C   0  0  0  0  0  0  0  0  0  0  0  0
   23.7288   -9.6702  -16.7208 O   0  0  0  0  0  0  0  0  0  0  0  0
   20.3528   -8.9181  -17.7217 C   0  0  0  0  0  0  0  0  0  0  0  0
   20.3715   -8.1234  -16.4435 C   0  0  1  0  0  0  0  0  0  0  0  0
   19.2160   -8.4716  -15.7422 O   0  0  0  0  0  0  0  0  0  0  0  0
   21.6051   -8.2342  -15.6368 C   0  0  2  0  0  0  0  0  0  0  0  0
   21.9186   -9.5965  -15.3174 N   0  0  0  0  0  0  0  0  0  0  0  0
   21.7698   -7.2609  -14.5511 C   0  0  0  0  0  0  0  0  0  0  0  0
   21.8741   -7.7336  -13.3767 O   0  0  0  0  0  0  0  0  0  0  0  0
   21.8176   -5.8708  -14.6850 N   0  0  0  0  0  0  0  0  0  0  0  0
   21.8436   -4.9579  -13.5476 C   0  0  0  0  0  0  0  0  0  0  0  0
   21.9055   -3.5472  -13.9856 C   0  0  0  0  0  0  0  0  0  0  0  0
   21.9863   -3.3328  -15.2211 O   0  0  0  0  0  0  0  0  0  0  0  0
   21.8809   -2.4611  -13.1377 O   0  0  0  0  0  0  0  0  0  0  0  0
  1  2  1  0
  3  2  1  0
  4  3  1  0
  4  5  1  0
  5  6  1  6
  5  1  1  0
  6 12  1  0
  7  6  2  0
  9  8  1  6
 10  9  1  0
 11  9  1  0
 11 13  1  0
 11 12  1  1
 13 15  1  0
 13 14  2  0
 15 16  1  0
 16 17  1  0
 17 18  2  0
 17 19  1  0
M  END
$$$$
