PTG.pdb
     RDKit          3D

 19 19  0  0  1  0  0  0  0  0999 V2000
   23.7510  -12.0902  -15.0141 N   0  0  0  0  0  0  0  0  0  0  0  0
   23.3339  -13.3778  -15.5372 C   0  0  0  0  0  0  0  0  0  0  0  0
   22.9988  -13.0175  -16.9870 C   0  0  0  0  0  0  0  0  0  0  0  0
   24.2357  -12.1799  -17.3385 C   0  0  0  0  0  0  0  0  0  0  0  0
   24.3916  -11.3726  -16.0612 C   0  0  1  0  0  0  0  0  0  0  0  0
   23.7772  -10.0425  -16.3235 C   0  0  0  0  0  0  0  0  0  0  0  0
   24.1580   -9.2602  -17.2011 O   0  0  0  0  0  0  0  0  0  0  0  0
   20.5784   -9.2985  -17.5657 C   0  0  0  0  0  0  0  0  0  0  0  0
   20.6441   -8.6118  -16.2278 C   0  0  1  0  0  0  0  0  0  0  0  0
   19.7816   -9.3092  -15.3804 O   0  0  0  0  0  0  0  0  0  0  0  0
   21.9991   -8.4281  -15.6665 C   0  0  2  0  0  0  0  0  0  0  0  0
   22.6845   -9.6760  -15.4958 N   0  0  0  0  0  0  0  0  0  0  0  0
   22.1305   -7.4626  -14.5693 C   0  0  0  0  0  0  0  0  0  0  0  0
   22.3550   -7.9430  -13.4150 O   0  0  0  0  0  0  0  0  0  0  0  0
   22.0276   -6.0728  -14.6723 N   0  0  0  0  0  0  0  0  0  0  0  0
   22.0293   -5.1827  -13.5165 C   0  0  0  0  0  0  0  0  0  0  0  0
   21.8403   -3.7724  -13.9179 C   0  0  0  0  0  0  0  0  0  0  0  0
   21.8401   -3.5210  -15.1491 O   0  0  0  0  0  0  0  0  0  0  0  0
   21.6657   -2.7242  -13.0405 O   0  0  0  0  0  0  0  0  0  0  0  0
  1  2  1  0
  3  2  1  0
  4  3  1  0
  4  5  1  0
  5  6  1  6
  5  1  1  0
  6 12  1  0
  7  6  2  0
  9  8  1  6
 10  9  1  0
 11  9  1  0
 11 13  1  0
 11 12  1  1
 13 15  1  0
 13 14  2  0
 15 16  1  0
 16 17  1  0
 17 18  2  0
 17 19  1  0
M  END
$$$$
