PTG.pdb
     RDKit          3D

 19 19  0  0  1  0  0  0  0  0999 V2000
   18.8236  -10.6459  -17.0429 N   0  0  0  0  0  0  0  0  0  0  0  0
   18.5165  -12.0483  -17.2535 C   0  0  0  0  0  0  0  0  0  0  0  0
   18.6574  -12.6022  -15.8331 C   0  0  0  0  0  0  0  0  0  0  0  0
   17.8652  -11.5390  -15.0605 C   0  0  0  0  0  0  0  0  0  0  0  0
   18.3524  -10.2777  -15.7528 C   0  0  1  0  0  0  0  0  0  0  0  0
   19.4129   -9.7000  -14.8827 C   0  0  0  0  0  0  0  0  0  0  0  0
   19.2896   -9.5083  -13.6682 O   0  0  0  0  0  0  0  0  0  0  0  0
   22.8420  -10.9908  -14.5001 C   0  0  0  0  0  0  0  0  0  0  0  0
   22.9580   -9.5403  -14.8853 C   0  0  1  0  0  0  0  0  0  0  0  0
   23.5409   -9.5113  -16.1533 O   0  0  0  0  0  0  0  0  0  0  0  0
   21.7126   -8.7498  -14.7922 C   0  0  2  0  0  0  0  0  0  0  0  0
   20.6346   -9.3566  -15.5175 N   0  0  0  0  0  0  0  0  0  0  0  0
   21.8460   -7.2949  -14.9289 C   0  0  0  0  0  0  0  0  0  0  0  0
   21.7918   -6.8289  -16.1093 O   0  0  0  0  0  0  0  0  0  0  0  0
   22.0310   -6.3788  -13.8899 N   0  0  0  0  0  0  0  0  0  0  0  0
   22.2182   -4.9487  -14.1082 C   0  0  0  0  0  0  0  0  0  0  0  0
   20.9496   -4.2056  -13.9520 C   0  0  0  0  0  0  0  0  0  0  0  0
   19.9092   -4.8815  -13.7529 O   0  0  0  0  0  0  0  0  0  0  0  0
   20.8324   -2.8338  -14.0096 O   0  0  0  0  0  0  0  0  0  0  0  0
  1  2  1  0
  3  2  1  0
  4  3  1  0
  4  5  1  0
  5  6  1  1
  5  1  1  0
  6 12  1  0
  7  6  2  0
  9  8  1  6
 10  9  1  0
 11  9  1  0
 11 13  1  0
 11 12  1  6
 13 15  1  0
 13 14  2  0
 15 16  1  0
 16 17  1  0
 17 18  2  0
 17 19  1  0
M  END
$$$$
