PTG.pdb
     RDKit          3D

 19 19  0  0  1  0  0  0  0  0999 V2000
   24.6005  -12.8147  -19.5514 N   0  0  0  0  0  0  0  0  0  0  0  0
   24.9636  -14.2196  -19.5402 C   0  0  0  0  0  0  0  0  0  0  0  0
   24.3453  -14.6778  -18.2166 C   0  0  0  0  0  0  0  0  0  0  0  0
   22.9583  -14.0333  -18.3413 C   0  0  0  0  0  0  0  0  0  0  0  0
   23.3367  -12.6782  -18.9143 C   0  0  1  0  0  0  0  0  0  0  0  0
   23.3549  -11.7254  -17.7710 C   0  0  0  0  0  0  0  0  0  0  0  0
   22.4448  -11.6141  -16.9424 O   0  0  0  0  0  0  0  0  0  0  0  0
   26.4128  -11.3227  -15.5226 C   0  0  0  0  0  0  0  0  0  0  0  0
   25.9394   -9.9599  -15.9519 C   0  0  1  0  0  0  0  0  0  0  0  0
   26.9646   -9.4071  -16.7209 O   0  0  0  0  0  0  0  0  0  0  0  0
   24.6189   -9.9184  -16.6147 C   0  0  2  0  0  0  0  0  0  0  0  0
   24.5056  -10.9040  -17.6502 N   0  0  0  0  0  0  0  0  0  0  0  0
   24.0810   -8.5890  -16.9254 C   0  0  0  0  0  0  0  0  0  0  0  0
   24.2397   -8.1772  -18.1165 O   0  0  0  0  0  0  0  0  0  0  0  0
   23.4187   -7.7357  -16.0389 N   0  0  0  0  0  0  0  0  0  0  0  0
   22.9020   -6.4269  -16.4238 C   0  0  0  0  0  0  0  0  0  0  0  0
   22.2448   -5.7476  -15.2870 C   0  0  0  0  0  0  0  0  0  0  0  0
   22.1424   -6.3932  -14.2138 O   0  0  0  0  0  0  0  0  0  0  0  0
   21.7414   -4.4653  -15.3246 O   0  0  0  0  0  0  0  0  0  0  0  0
  1  2  1  0
  3  2  1  0
  4  3  1  0
  4  5  1  0
  5  6  1  1
  5  1  1  0
  6 12  1  0
  7  6  2  0
  9  8  1  6
 10  9  1  0
 11  9  1  0
 11 13  1  0
 11 12  1  6
 13 15  1  0
 13 14  2  0
 15 16  1  0
 16 17  1  0
 17 18  2  0
 17 19  1  0
M  END
$$$$
