PTG.pdb
     RDKit          3D

 19 19  0  0  1  0  0  0  0  0999 V2000
   22.9809  -12.7751  -16.5592 N   0  0  0  0  0  0  0  0  0  0  0  0
   24.2837  -13.3836  -16.7543 C   0  0  0  0  0  0  0  0  0  0  0  0
   25.2108  -12.2736  -16.2519 C   0  0  0  0  0  0  0  0  0  0  0  0
   24.4942  -11.9091  -14.9448 C   0  0  0  0  0  0  0  0  0  0  0  0
   23.0474  -11.9451  -15.4066 C   0  0  1  0  0  0  0  0  0  0  0  0
   22.6534  -10.5350  -15.6744 C   0  0  0  0  0  0  0  0  0  0  0  0
   22.9835   -9.8987  -16.6810 O   0  0  0  0  0  0  0  0  0  0  0  0
   19.3275   -9.7061  -16.2232 C   0  0  0  0  0  0  0  0  0  0  0  0
   19.7601   -8.7695  -15.1272 C   0  0  1  0  0  0  0  0  0  0  0  0
   19.0798   -9.1655  -13.9746 O   0  0  0  0  0  0  0  0  0  0  0  0
   21.2196   -8.6390  -14.9333 C   0  0  2  0  0  0  0  0  0  0  0  0
   21.8457   -9.9062  -14.6916 N   0  0  0  0  0  0  0  0  0  0  0  0
   21.6741   -7.5229  -14.0961 C   0  0  0  0  0  0  0  0  0  0  0  0
   22.1375   -7.8240  -12.9523 O   0  0  0  0  0  0  0  0  0  0  0  0
   21.6410   -6.1673  -14.4336 N   0  0  0  0  0  0  0  0  0  0  0  0
   22.0001   -5.1023  -13.5036 C   0  0  0  0  0  0  0  0  0  0  0  0
   21.7918   -3.7666  -14.1021 C   0  0  0  0  0  0  0  0  0  0  0  0
   21.4103   -3.7268  -15.2987 O   0  0  0  0  0  0  0  0  0  0  0  0
   21.9861   -2.5727  -13.4419 O   0  0  0  0  0  0  0  0  0  0  0  0
  1  2  1  0
  3  2  1  0
  4  3  1  0
  4  5  1  0
  5  6  1  6
  5  1  1  0
  6 12  1  0
  7  6  2  0
  9  8  1  6
 10  9  1  0
 11  9  1  0
 11 13  1  0
 11 12  1  1
 13 15  1  0
 13 14  2  0
 15 16  1  0
 16 17  1  0
 17 18  2  0
 17 19  1  0
M  END
$$$$
