PTG.pdb
     RDKit          3D

 19 19  0  0  1  0  0  0  0  0999 V2000
   28.4238  -19.8266  -15.7300 N   0  0  0  0  0  0  0  0  0  0  0  0
   28.3722  -18.7919  -16.7460 C   0  0  0  0  0  0  0  0  0  0  0  0
   27.0507  -18.0997  -16.4013 C   0  0  0  0  0  0  0  0  0  0  0  0
   27.2183  -17.9627  -14.8821 C   0  0  0  0  0  0  0  0  0  0  0  0
   27.8155  -19.3193  -14.5492 C   0  0  1  0  0  0  0  0  0  0  0  0
   26.6948  -20.1653  -14.0554 C   0  0  0  0  0  0  0  0  0  0  0  0
   26.1965  -21.1011  -14.6903 O   0  0  0  0  0  0  0  0  0  0  0  0
   26.8565  -21.4244  -10.4946 C   0  0  0  0  0  0  0  0  0  0  0  0
   25.4444  -20.9782  -10.7642 C   0  0  1  0  0  0  0  0  0  0  0  0
   25.1741  -19.9480   -9.8621 O   0  0  0  0  0  0  0  0  0  0  0  0
   25.1390  -20.6270  -12.1671 C   0  0  2  0  0  0  0  0  0  0  0  0
   26.1860  -19.8532  -12.7682 N   0  0  0  0  0  0  0  0  0  0  0  0
   23.7672  -20.1905  -12.4515 C   0  0  0  0  0  0  0  0  0  0  0  0
   23.6197  -18.9804  -12.8084 O   0  0  0  0  0  0  0  0  0  0  0  0
   22.6135  -20.9739  -12.3626 N   0  0  0  0  0  0  0  0  0  0  0  0
   21.2760  -20.4629  -12.6419 C   0  0  0  0  0  0  0  0  0  0  0  0
   20.3873  -21.5243  -13.1609 C   0  0  0  0  0  0  0  0  0  0  0  0
   20.8898  -22.6643  -13.3252 O   0  0  0  0  0  0  0  0  0  0  0  0
   19.0568  -21.3493  -13.4739 O   0  0  0  0  0  0  0  0  0  0  0  0
  1  2  1  0
  3  2  1  0
  4  3  1  0
  4  5  1  0
  5  6  1  6
  5  1  1  0
  6 12  1  0
  7  6  2  0
  9  8  1  6
 10  9  1  0
 11  9  1  0
 11 13  1  0
 11 12  1  1
 13 15  1  0
 13 14  2  0
 15 16  1  0
 16 17  1  0
 17 18  2  0
 17 19  1  0
M  END
$$$$
