DVV.pdb
     RDKit          3D

 23 22  0  0  1  0  0  0  0  0999 V2000
    8.9867  -15.3955   20.6560 N   0  0  0  0  0  0  0  0  0  0  0  0
    8.3442  -16.0579   21.7762 C   0  0  1  0  0  0  0  0  0  0  0  0
    8.8023  -17.4998   21.7473 C   0  0  0  0  0  0  0  0  0  0  0  0
    8.2516  -18.1539   20.5425 C   0  0  0  0  0  0  0  0  0  0  0  0
    8.9579  -18.7939   19.7451 O   0  0  0  0  0  0  0  0  0  0  0  0
    8.7367  -15.3792   23.0313 C   0  0  0  0  0  0  0  0  0  0  0  0
    9.9488  -15.2713   23.3495 O   0  0  0  0  0  0  0  0  0  0  0  0
    6.8932  -18.0478   20.2938 O   0  0  0  0  0  0  0  0  0  0  0  0
    7.2653  -12.8734   27.0688 C   0  0  0  0  0  0  0  0  0  0  0  0
    6.9259  -13.4069   25.6842 C   0  0  1  0  0  0  0  0  0  0  0  0
    6.5647  -12.2923   24.7544 C   0  0  0  0  0  0  0  0  0  0  0  0
    8.1425  -14.1999   25.1870 C   0  0  2  0  0  0  0  0  0  0  0  0
    7.7833  -14.8181   23.9369 N   0  0  0  0  0  0  0  0  0  0  0  0
    8.4391  -15.1947   26.2483 C   0  0  0  0  0  0  0  0  0  0  0  0
    7.8847  -16.3247   26.2323 O   0  0  0  0  0  0  0  0  0  0  0  0
   12.1928  -17.3155   28.0909 C   0  0  0  0  0  0  0  0  0  0  0  0
   11.4046  -16.2758   27.3157 C   0  0  1  0  0  0  0  0  0  0  0  0
   11.2260  -16.6846   25.8714 C   0  0  0  0  0  0  0  0  0  0  0  0
   10.1000  -15.9547   27.9944 C   0  0  2  0  0  0  0  0  0  0  0  0
    9.3392  -14.9419   27.3157 N   0  0  0  0  0  0  0  0  0  0  0  0
   10.4061  -15.4630   29.3612 C   0  0  0  0  0  0  0  0  0  0  0  0
   10.3650  -16.2996   30.4673 O   0  0  0  0  0  0  0  0  0  0  0  0
   10.7147  -14.2655   29.5652 O   0  0  0  0  0  0  0  0  0  0  0  0
  2  1  1  6
  3  2  1  0
  4  3  1  0
  4  8  1  0
  5  4  2  0
  6  2  1  0
  7  6  2  0
 10  9  1  1
 10 11  1  0
 12 13  1  6
 12 10  1  0
 13  6  1  0
 14 12  1  0
 15 14  2  0
 17 18  1  6
 17 19  1  0
 17 16  1  0
 19 20  1  6
 20 14  1  0
 21 22  1  0
 21 19  1  0
 23 21  2  0
M  END
$$$$
