DVV.pdb
     RDKit          3D

 23 22  0  0  1  0  0  0  0  0999 V2000
    8.7551  -15.2897   20.6992 N   0  0  0  0  0  0  0  0  0  0  0  0
    7.9760  -15.7605   21.8297 C   0  0  1  0  0  0  0  0  0  0  0  0
    8.1447  -17.2636   21.8758 C   0  0  0  0  0  0  0  0  0  0  0  0
    7.6885  -17.8370   20.5930 C   0  0  0  0  0  0  0  0  0  0  0  0
    6.4993  -17.8132   20.2331 O   0  0  0  0  0  0  0  0  0  0  0  0
    8.4710  -15.1114   23.0640 C   0  0  0  0  0  0  0  0  0  0  0  0
    9.7045  -15.0379   23.2991 O   0  0  0  0  0  0  0  0  0  0  0  0
    8.6259  -18.4246   19.7598 O   0  0  0  0  0  0  0  0  0  0  0  0
    7.3414  -12.7387   27.2897 C   0  0  0  0  0  0  0  0  0  0  0  0
    6.8806  -13.2312   25.9252 C   0  0  1  0  0  0  0  0  0  0  0  0
    6.4279  -12.0912   25.0690 C   0  0  0  0  0  0  0  0  0  0  0  0
    8.0522  -13.9955   25.2934 C   0  0  2  0  0  0  0  0  0  0  0  0
    7.5966  -14.5419   24.0413 N   0  0  0  0  0  0  0  0  0  0  0  0
    8.4232  -15.0489   26.2716 C   0  0  0  0  0  0  0  0  0  0  0  0
    7.6272  -15.9912   26.5224 O   0  0  0  0  0  0  0  0  0  0  0  0
   12.5331  -15.4582   27.0991 C   0  0  0  0  0  0  0  0  0  0  0  0
   11.5566  -16.6200   27.0977 C   0  0  1  0  0  0  0  0  0  0  0  0
   12.1276  -17.8199   27.8183 C   0  0  0  0  0  0  0  0  0  0  0  0
   10.2103  -16.2086   27.6305 C   0  0  2  0  0  0  0  0  0  0  0  0
    9.6613  -15.0595   26.9646 N   0  0  0  0  0  0  0  0  0  0  0  0
   10.3714  -15.8753   29.0680 C   0  0  0  0  0  0  0  0  0  0  0  0
   10.2922  -14.5697   29.5309 O   0  0  0  0  0  0  0  0  0  0  0  0
   10.5865  -16.7686   29.9204 O   0  0  0  0  0  0  0  0  0  0  0  0
  2  1  1  6
  3  2  1  0
  4  3  1  0
  4  8  1  0
  5  4  2  0
  6  2  1  0
  7  6  2  0
 10  9  1  1
 10 11  1  0
 12 13  1  6
 12 10  1  0
 13  6  1  0
 14 12  1  0
 15 14  2  0
 17 18  1  1
 17 19  1  0
 17 16  1  0
 19 20  1  6
 20 14  1  0
 21 22  1  0
 21 19  1  0
 23 21  2  0
M  END
$$$$
