DVV.pdb
     RDKit          3D

 23 22  0  0  1  0  0  0  0  0999 V2000
   12.5303  -17.2069   20.6036 N   0  0  0  0  0  0  0  0  0  0  0  0
   11.8926  -17.4572   21.8831 C   0  0  1  0  0  0  0  0  0  0  0  0
   13.0047  -17.6789   22.8851 C   0  0  0  0  0  0  0  0  0  0  0  0
   13.6766  -18.9589   22.5805 C   0  0  0  0  0  0  0  0  0  0  0  0
   13.1605  -19.8331   21.8637 O   0  0  0  0  0  0  0  0  0  0  0  0
   11.0507  -16.2942   22.2414 C   0  0  0  0  0  0  0  0  0  0  0  0
   11.5696  -15.2447   22.7010 O   0  0  0  0  0  0  0  0  0  0  0  0
   14.9321  -19.1917   23.1170 O   0  0  0  0  0  0  0  0  0  0  0  0
    6.5447  -14.2177   22.2956 C   0  0  0  0  0  0  0  0  0  0  0  0
    7.4761  -15.2838   21.7365 C   0  0  1  0  0  0  0  0  0  0  0  0
    7.7082  -15.0786   20.2732 C   0  0  0  0  0  0  0  0  0  0  0  0
    8.7819  -15.2200   22.5409 C   0  0  2  0  0  0  0  0  0  0  0  0
    9.6291  -16.2937   22.0898 N   0  0  0  0  0  0  0  0  0  0  0  0
    8.3882  -15.3668   23.9648 C   0  0  0  0  0  0  0  0  0  0  0  0
    8.2968  -16.5100   24.4837 O   0  0  0  0  0  0  0  0  0  0  0  0
    8.4257  -12.0939   26.8557 C   0  0  0  0  0  0  0  0  0  0  0  0
    7.2511  -13.0511   26.7708 C   0  0  1  0  0  0  0  0  0  0  0  0
    6.0774  -12.4204   26.0569 C   0  0  0  0  0  0  0  0  0  0  0  0
    7.6574  -14.3695   26.1686 C   0  0  2  0  0  0  0  0  0  0  0  0
    8.0988  -14.2608   24.8053 N   0  0  0  0  0  0  0  0  0  0  0  0
    6.4766  -15.2684   26.2006 C   0  0  0  0  0  0  0  0  0  0  0  0
    6.1778  -16.0467   27.3097 O   0  0  0  0  0  0  0  0  0  0  0  0
    5.7022  -15.3565   25.2190 O   0  0  0  0  0  0  0  0  0  0  0  0
  2  1  1  6
  3  2  1  0
  4  3  1  0
  4  8  1  0
  5  4  2  0
  6  2  1  0
  7  6  2  0
 10  9  1  1
 10 11  1  0
 12 13  1  6
 12 10  1  0
 13  6  1  0
 14 12  1  0
 15 14  2  0
 17 18  1  6
 17 19  1  0
 17 16  1  0
 19 20  1  6
 20 14  1  0
 21 22  1  0
 21 19  1  0
 23 21  2  0
M  END
$$$$
