DVV.pdb
     RDKit          3D

 23 22  0  0  1  0  0  0  0  0999 V2000
   10.7281  -16.9519   19.3371 N   0  0  0  0  0  0  0  0  0  0  0  0
   10.7491  -17.6041   20.6334 C   0  0  1  0  0  0  0  0  0  0  0  0
   12.1159  -18.2374   20.7774 C   0  0  0  0  0  0  0  0  0  0  0  0
   12.1909  -19.4218   19.8976 C   0  0  0  0  0  0  0  0  0  0  0  0
   11.4348  -20.3999   20.0242 O   0  0  0  0  0  0  0  0  0  0  0  0
   10.4936  -16.5972   21.6873 C   0  0  0  0  0  0  0  0  0  0  0  0
   11.1580  -15.5300   21.7287 O   0  0  0  0  0  0  0  0  0  0  0  0
   13.1433  -19.4406   18.8922 O   0  0  0  0  0  0  0  0  0  0  0  0
    7.1864  -15.0012   22.5122 C   0  0  0  0  0  0  0  0  0  0  0  0
    7.6717  -15.6599   23.7957 C   0  0  1  0  0  0  0  0  0  0  0  0
    7.0144  -16.9883   23.9977 C   0  0  0  0  0  0  0  0  0  0  0  0
    9.1988  -15.7821   23.6998 C   0  0  2  0  0  0  0  0  0  0  0  0
    9.4987  -16.7731   22.6988 N   0  0  0  0  0  0  0  0  0  0  0  0
    9.6589  -16.1840   25.0529 C   0  0  0  0  0  0  0  0  0  0  0  0
   10.0200  -17.3693   25.2748 O   0  0  0  0  0  0  0  0  0  0  0  0
   11.1084  -13.3208   27.9201 C   0  0  0  0  0  0  0  0  0  0  0  0
   10.2298  -14.4584   28.4072 C   0  0  1  0  0  0  0  0  0  0  0  0
    8.8317  -13.9779   28.7228 C   0  0  0  0  0  0  0  0  0  0  0  0
   10.2431  -15.6157   27.4448 C   0  0  2  0  0  0  0  0  0  0  0  0
    9.7186  -15.2843   26.1485 N   0  0  0  0  0  0  0  0  0  0  0  0
    9.4032  -16.6962   28.0196 C   0  0  0  0  0  0  0  0  0  0  0  0
    8.1812  -17.0484   27.4647 O   0  0  0  0  0  0  0  0  0  0  0  0
    9.7714  -17.3330   29.0344 O   0  0  0  0  0  0  0  0  0  0  0  0
  2  1  1  6
  3  2  1  0
  4  3  1  0
  4  8  1  0
  5  4  2  0
  6  2  1  0
  7  6  2  0
 10  9  1  6
 10 11  1  0
 12 13  1  6
 12 10  1  0
 13  6  1  0
 14 12  1  0
 15 14  2  0
 17 18  1  6
 17 19  1  0
 17 16  1  0
 19 20  1  6
 20 14  1  0
 21 22  1  0
 21 19  1  0
 23 21  2  0
M  END
$$$$
