DVV.pdb
     RDKit          3D

 23 22  0  0  1  0  0  0  0  0999 V2000
   12.7796  -16.6843   19.9380 N   0  0  0  0  0  0  0  0  0  0  0  0
   12.2095  -17.4133   21.0561 C   0  0  1  0  0  0  0  0  0  0  0  0
   13.3607  -18.1025   21.7558 C   0  0  0  0  0  0  0  0  0  0  0  0
   13.9085  -19.1455   20.8644 C   0  0  0  0  0  0  0  0  0  0  0  0
   13.2690  -20.1643   20.5523 O   0  0  0  0  0  0  0  0  0  0  0  0
   11.5104  -16.4627   21.9491 C   0  0  0  0  0  0  0  0  0  0  0  0
   12.0428  -15.3668   22.2614 O   0  0  0  0  0  0  0  0  0  0  0  0
   15.1868  -18.9790   20.3578 O   0  0  0  0  0  0  0  0  0  0  0  0
    7.3399  -15.2872   24.3585 C   0  0  0  0  0  0  0  0  0  0  0  0
    8.0359  -16.0183   23.2192 C   0  0  1  0  0  0  0  0  0  0  0  0
    7.5805  -15.4993   21.8923 C   0  0  0  0  0  0  0  0  0  0  0  0
    9.5480  -15.8435   23.4175 C   0  0  2  0  0  0  0  0  0  0  0  0
   10.2170  -16.7271   22.4981 N   0  0  0  0  0  0  0  0  0  0  0  0
    9.8136  -16.1922   24.8359 C   0  0  0  0  0  0  0  0  0  0  0  0
   10.1366  -17.3673   25.1511 O   0  0  0  0  0  0  0  0  0  0  0  0
   10.6237  -14.5419   29.5079 C   0  0  0  0  0  0  0  0  0  0  0  0
    9.9896  -14.3084   28.1490 C   0  0  1  0  0  0  0  0  0  0  0  0
   10.4069  -12.9767   27.5683 C   0  0  0  0  0  0  0  0  0  0  0  0
   10.2524  -15.4582   27.2137 C   0  0  2  0  0  0  0  0  0  0  0  0
    9.7227  -15.2511   25.8939 N   0  0  0  0  0  0  0  0  0  0  0  0
    9.6075  -16.6670   27.7850 C   0  0  0  0  0  0  0  0  0  0  0  0
   10.2984  -17.5484   28.6041 O   0  0  0  0  0  0  0  0  0  0  0  0
    8.4071  -16.9359   27.5452 O   0  0  0  0  0  0  0  0  0  0  0  0
  2  1  1  6
  3  2  1  0
  4  3  1  0
  4  8  1  0
  5  4  2  0
  6  2  1  0
  7  6  2  0
 10  9  1  1
 10 11  1  0
 12 13  1  6
 12 10  1  0
 13  6  1  0
 14 12  1  0
 15 14  2  0
 17 18  1  6
 17 19  1  0
 17 16  1  0
 19 20  1  6
 20 14  1  0
 21 22  1  0
 21 19  1  0
 23 21  2  0
M  END
$$$$
