DVV.pdb
     RDKit          3D

 23 22  0  0  1  0  0  0  0  0999 V2000
    9.2898  -15.2990   20.4817 N   0  0  0  0  0  0  0  0  0  0  0  0
    8.6672  -15.9768   21.6040 C   0  0  1  0  0  0  0  0  0  0  0  0
    9.2607  -17.3680   21.6529 C   0  0  0  0  0  0  0  0  0  0  0  0
    8.7625  -18.1429   20.4979 C   0  0  0  0  0  0  0  0  0  0  0  0
    9.5213  -18.6752   19.6702 O   0  0  0  0  0  0  0  0  0  0  0  0
    8.9416  -15.2159   22.8431 C   0  0  0  0  0  0  0  0  0  0  0  0
   10.1020  -14.8029   23.0980 O   0  0  0  0  0  0  0  0  0  0  0  0
    7.3941  -18.2798   20.3331 O   0  0  0  0  0  0  0  0  0  0  0  0
    7.1215  -13.2470   27.0339 C   0  0  0  0  0  0  0  0  0  0  0  0
    6.8508  -13.7925   25.6389 C   0  0  1  0  0  0  0  0  0  0  0  0
    6.2033  -12.7571   24.7752 C   0  0  0  0  0  0  0  0  0  0  0  0
    8.1926  -14.2656   25.0628 C   0  0  2  0  0  0  0  0  0  0  0  0
    7.9271  -14.9114   23.8033 N   0  0  0  0  0  0  0  0  0  0  0  0
    8.7605  -15.1966   26.0701 C   0  0  0  0  0  0  0  0  0  0  0  0
    8.3300  -16.3761   26.1584 O   0  0  0  0  0  0  0  0  0  0  0  0
   12.7083  -14.6149   27.5867 C   0  0  0  0  0  0  0  0  0  0  0  0
   11.6515  -15.1164   28.5536 C   0  0  1  0  0  0  0  0  0  0  0  0
   11.2196  -14.0283   29.5099 C   0  0  0  0  0  0  0  0  0  0  0  0
   10.4930  -15.7444   27.8262 C   0  0  2  0  0  0  0  0  0  0  0  0
    9.7933  -14.8264   26.9699 N   0  0  0  0  0  0  0  0  0  0  0  0
    9.5355  -16.2479   28.8426 C   0  0  0  0  0  0  0  0  0  0  0  0
    9.7851  -17.3974   29.5785 O   0  0  0  0  0  0  0  0  0  0  0  0
    8.4597  -15.6477   29.0731 O   0  0  0  0  0  0  0  0  0  0  0  0
  2  1  1  6
  3  2  1  0
  4  3  1  0
  4  8  1  0
  5  4  2  0
  6  2  1  0
  7  6  2  0
 10  9  1  1
 10 11  1  0
 12 13  1  6
 12 10  1  0
 13  6  1  0
 14 12  1  0
 15 14  2  0
 17 18  1  6
 17 19  1  0
 17 16  1  0
 19 20  1  6
 20 14  1  0
 21 22  1  0
 21 19  1  0
 23 21  2  0
M  END
$$$$
