DVV.pdb
     RDKit          3D

 23 22  0  0  1  0  0  0  0  0999 V2000
    8.4096  -15.2882   20.7333 N   0  0  0  0  0  0  0  0  0  0  0  0
    7.7042  -15.7074   21.9304 C   0  0  1  0  0  0  0  0  0  0  0  0
    7.8578  -17.2102   22.0196 C   0  0  0  0  0  0  0  0  0  0  0  0
    7.2804  -17.8242   20.8063 C   0  0  0  0  0  0  0  0  0  0  0  0
    7.7925  -18.8068   20.2435 O   0  0  0  0  0  0  0  0  0  0  0  0
    8.2902  -15.0221   23.1038 C   0  0  0  0  0  0  0  0  0  0  0  0
    9.5377  -14.9508   23.2475 O   0  0  0  0  0  0  0  0  0  0  0  0
    6.1218  -17.2809   20.2765 O   0  0  0  0  0  0  0  0  0  0  0  0
    7.4865  -12.5063   27.3212 C   0  0  0  0  0  0  0  0  0  0  0  0
    6.9126  -13.0691   26.0286 C   0  0  1  0  0  0  0  0  0  0  0  0
    6.3558  -11.9781   25.1700 C   0  0  0  0  0  0  0  0  0  0  0  0
    8.0380  -13.8388   25.3235 C   0  0  2  0  0  0  0  0  0  0  0  0
    7.4915  -14.4137   24.1215 N   0  0  0  0  0  0  0  0  0  0  0  0
    8.4918  -14.8694   26.2909 C   0  0  0  0  0  0  0  0  0  0  0  0
    7.7265  -15.8137   26.6183 O   0  0  0  0  0  0  0  0  0  0  0  0
   12.2919  -17.3825   28.1823 C   0  0  0  0  0  0  0  0  0  0  0  0
   11.7369  -16.2861   27.2917 C   0  0  1  0  0  0  0  0  0  0  0  0
   11.8785  -16.6406   25.8290 C   0  0  0  0  0  0  0  0  0  0  0  0
   10.3235  -15.9321   27.6696 C   0  0  2  0  0  0  0  0  0  0  0  0
    9.7782  -14.8554   26.8894 N   0  0  0  0  0  0  0  0  0  0  0  0
   10.3234  -15.5153   29.0942 C   0  0  0  0  0  0  0  0  0  0  0  0
   10.3299  -14.1788   29.4668 O   0  0  0  0  0  0  0  0  0  0  0  0
   10.3176  -16.3628   30.0176 O   0  0  0  0  0  0  0  0  0  0  0  0
  2  1  1  6
  3  2  1  0
  4  3  1  0
  4  8  1  0
  5  4  2  0
  6  2  1  0
  7  6  2  0
 10  9  1  1
 10 11  1  0
 12 13  1  6
 12 10  1  0
 13  6  1  0
 14 12  1  0
 15 14  2  0
 17 18  1  6
 17 19  1  0
 17 16  1  0
 19 20  1  6
 20 14  1  0
 21 22  1  0
 21 19  1  0
 23 21  2  0
M  END
$$$$
