DVV.pdb
     RDKit          3D

 23 22  0  0  1  0  0  0  0  0999 V2000
   12.2375  -16.6406   19.8453 N   0  0  0  0  0  0  0  0  0  0  0  0
   11.7036  -17.3610   20.9865 C   0  0  1  0  0  0  0  0  0  0  0  0
   12.8567  -18.1343   21.5885 C   0  0  0  0  0  0  0  0  0  0  0  0
   13.1271  -19.3213   20.7515 C   0  0  0  0  0  0  0  0  0  0  0  0
   12.2508  -19.8679   20.0603 O   0  0  0  0  0  0  0  0  0  0  0  0
   11.1283  -16.3923   21.9459 C   0  0  0  0  0  0  0  0  0  0  0  0
   11.8086  -15.4183   22.3591 O   0  0  0  0  0  0  0  0  0  0  0  0
   14.4095  -19.8443   20.7387 O   0  0  0  0  0  0  0  0  0  0  0  0
    7.1037  -14.8590   24.4105 C   0  0  0  0  0  0  0  0  0  0  0  0
    7.7162  -15.5621   23.2075 C   0  0  1  0  0  0  0  0  0  0  0  0
    7.3482  -14.8662   21.9356 C   0  0  0  0  0  0  0  0  0  0  0  0
    9.2354  -15.6014   23.4232 C   0  0  2  0  0  0  0  0  0  0  0  0
    9.7947  -16.5027   22.4491 N   0  0  0  0  0  0  0  0  0  0  0  0
    9.4347  -16.0752   24.8160 C   0  0  0  0  0  0  0  0  0  0  0  0
    9.5270  -17.3065   25.0608 O   0  0  0  0  0  0  0  0  0  0  0  0
   10.2498  -14.9667   29.6419 C   0  0  0  0  0  0  0  0  0  0  0  0
    9.7686  -14.5136   28.2758 C   0  0  1  0  0  0  0  0  0  0  0  0
   10.4064  -13.2033   27.8742 C   0  0  0  0  0  0  0  0  0  0  0  0
    9.9537  -15.5912   27.2413 C   0  0  2  0  0  0  0  0  0  0  0  0
    9.5307  -15.1963   25.9258 N   0  0  0  0  0  0  0  0  0  0  0  0
    9.1421  -16.7635   27.6540 C   0  0  0  0  0  0  0  0  0  0  0  0
    9.6882  -17.8156   28.3752 O   0  0  0  0  0  0  0  0  0  0  0  0
    7.9258  -16.8448   27.3628 O   0  0  0  0  0  0  0  0  0  0  0  0
  2  1  1  6
  3  2  1  0
  4  3  1  0
  4  8  1  0
  5  4  2  0
  6  2  1  0
  7  6  2  0
 10  9  1  1
 10 11  1  0
 12 13  1  6
 12 10  1  0
 13  6  1  0
 14 12  1  0
 15 14  2  0
 17 18  1  6
 17 19  1  0
 17 16  1  0
 19 20  1  6
 20 14  1  0
 21 22  1  0
 21 19  1  0
 23 21  2  0
M  END
$$$$
