DVV.pdb
     RDKit          3D

 23 22  0  0  1  0  0  0  0  0999 V2000
   12.0163  -16.5269   19.9625 N   0  0  0  0  0  0  0  0  0  0  0  0
   11.9442  -17.3510   21.1550 C   0  0  1  0  0  0  0  0  0  0  0  0
   13.3582  -17.7952   21.4604 C   0  0  0  0  0  0  0  0  0  0  0  0
   13.7978  -18.7460   20.4186 C   0  0  0  0  0  0  0  0  0  0  0  0
   14.9307  -18.7060   19.9094 O   0  0  0  0  0  0  0  0  0  0  0  0
   11.3649  -16.5555   22.2602 C   0  0  0  0  0  0  0  0  0  0  0  0
   11.8995  -15.4758   22.6215 O   0  0  0  0  0  0  0  0  0  0  0  0
   12.9095  -19.7201   19.9938 O   0  0  0  0  0  0  0  0  0  0  0  0
    7.9599  -17.9832   24.3971 C   0  0  0  0  0  0  0  0  0  0  0  0
    8.0719  -16.5138   24.0163 C   0  0  1  0  0  0  0  0  0  0  0  0
    7.3073  -15.6532   24.9713 C   0  0  0  0  0  0  0  0  0  0  0  0
    9.5651  -16.1589   23.9906 C   0  0  2  0  0  0  0  0  0  0  0  0
   10.1892  -16.9574   22.9675 N   0  0  0  0  0  0  0  0  0  0  0  0
   10.0792  -16.4712   25.3478 C   0  0  0  0  0  0  0  0  0  0  0  0
   10.5736  -17.6022   25.5948 O   0  0  0  0  0  0  0  0  0  0  0  0
   11.3353  -13.4878   28.1694 C   0  0  0  0  0  0  0  0  0  0  0  0
   10.4572  -14.6229   28.6630 C   0  0  1  0  0  0  0  0  0  0  0  0
    9.0394  -14.1573   28.9040 C   0  0  0  0  0  0  0  0  0  0  0  0
   10.5297  -15.8142   27.7459 C   0  0  2  0  0  0  0  0  0  0  0  0
   10.0468  -15.5423   26.4200 N   0  0  0  0  0  0  0  0  0  0  0  0
    9.6915  -16.8910   28.3302 C   0  0  0  0  0  0  0  0  0  0  0  0
   10.1298  -17.6646   29.3953 O   0  0  0  0  0  0  0  0  0  0  0  0
    8.5495  -17.1409   27.8781 O   0  0  0  0  0  0  0  0  0  0  0  0
  2  1  1  6
  3  2  1  0
  4  3  1  0
  4  8  1  0
  5  4  2  0
  6  2  1  0
  7  6  2  0
 10  9  1  1
 10 11  1  0
 12 13  1  6
 12 10  1  0
 13  6  1  0
 14 12  1  0
 15 14  2  0
 17 18  1  6
 17 19  1  0
 17 16  1  0
 19 20  1  6
 20 14  1  0
 21 22  1  0
 21 19  1  0
 23 21  2  0
M  END
$$$$
