DVV.pdb
     RDKit          3D

 23 22  0  0  1  0  0  0  0  0999 V2000
   10.7508  -18.7987   20.8807 N   0  0  0  0  0  0  0  0  0  0  0  0
   10.6750  -17.3520   20.7919 C   0  0  1  0  0  0  0  0  0  0  0  0
   10.4199  -17.0203   19.3377 C   0  0  0  0  0  0  0  0  0  0  0  0
   11.6422  -17.3069   18.5589 C   0  0  0  0  0  0  0  0  0  0  0  0
   12.7770  -17.2987   19.0652 O   0  0  0  0  0  0  0  0  0  0  0  0
    9.5844  -16.8687   21.6677 C   0  0  0  0  0  0  0  0  0  0  0  0
    9.0894  -15.7242   21.5027 O   0  0  0  0  0  0  0  0  0  0  0  0
   11.5154  -17.5956   17.2102 O   0  0  0  0  0  0  0  0  0  0  0  0
    6.4072  -17.9201   25.3501 C   0  0  0  0  0  0  0  0  0  0  0  0
    7.4712  -18.4201   24.3833 C   0  0  1  0  0  0  0  0  0  0  0  0
    6.9265  -19.4940   23.4960 C   0  0  0  0  0  0  0  0  0  0  0  0
    7.9689  -17.2090   23.5822 C   0  0  2  0  0  0  0  0  0  0  0  0
    9.0402  -17.6559   22.7298 N   0  0  0  0  0  0  0  0  0  0  0  0
    8.4204  -16.2153   24.5885 C   0  0  0  0  0  0  0  0  0  0  0  0
    9.5519  -16.3277   25.1286 O   0  0  0  0  0  0  0  0  0  0  0  0
    7.5426  -11.9608   27.1038 C   0  0  0  0  0  0  0  0  0  0  0  0
    7.0851  -12.9614   26.0585 C   0  0  1  0  0  0  0  0  0  0  0  0
    6.8138  -12.2874   24.7329 C   0  0  0  0  0  0  0  0  0  0  0  0
    8.0479  -14.1122   25.9389 C   0  0  2  0  0  0  0  0  0  0  0  0
    7.6286  -15.1095   24.9929 N   0  0  0  0  0  0  0  0  0  0  0  0
    8.1552  -14.7571   27.2716 C   0  0  0  0  0  0  0  0  0  0  0  0
    9.1898  -14.4615   28.1476 O   0  0  0  0  0  0  0  0  0  0  0  0
    7.3084  -15.5979   27.6549 O   0  0  0  0  0  0  0  0  0  0  0  0
  2  1  1  6
  3  2  1  0
  4  3  1  0
  4  8  1  0
  5  4  2  0
  6  2  1  0
  7  6  2  0
 10  9  1  1
 10 11  1  0
 12 13  1  6
 12 10  1  0
 13  6  1  0
 14 12  1  0
 15 14  2  0
 17 18  1  6
 17 19  1  0
 17 16  1  0
 19 20  1  6
 20 14  1  0
 21 22  1  0
 21 19  1  0
 23 21  2  0
M  END
$$$$
