DVV.pdb
     RDKit          3D

 23 22  0  0  1  0  0  0  0  0999 V2000
    8.1826  -14.9167   20.6474 N   0  0  0  0  0  0  0  0  0  0  0  0
    7.5913  -15.5139   21.8307 C   0  0  1  0  0  0  0  0  0  0  0  0
    7.8846  -16.9967   21.7601 C   0  0  0  0  0  0  0  0  0  0  0  0
    6.9756  -17.6191   20.7758 C   0  0  0  0  0  0  0  0  0  0  0  0
    6.0438  -16.9978   20.2372 O   0  0  0  0  0  0  0  0  0  0  0  0
    8.1830  -14.8911   23.0357 C   0  0  0  0  0  0  0  0  0  0  0  0
    9.4297  -14.7654   23.1457 O   0  0  0  0  0  0  0  0  0  0  0  0
    7.1716  -18.9489   20.4417 O   0  0  0  0  0  0  0  0  0  0  0  0
    7.3777  -12.6996   27.4302 C   0  0  0  0  0  0  0  0  0  0  0  0
    6.8162  -13.1455   26.0875 C   0  0  1  0  0  0  0  0  0  0  0  0
    6.2624  -11.9834   25.3258 C   0  0  0  0  0  0  0  0  0  0  0  0
    7.9501  -13.8454   25.3255 C   0  0  2  0  0  0  0  0  0  0  0  0
    7.3910  -14.4058   24.1225 N   0  0  0  0  0  0  0  0  0  0  0  0
    8.4754  -14.8851   26.2459 C   0  0  0  0  0  0  0  0  0  0  0  0
    7.7486  -15.8531   26.5913 O   0  0  0  0  0  0  0  0  0  0  0  0
   12.4485  -17.3200   27.8873 C   0  0  0  0  0  0  0  0  0  0  0  0
   11.8249  -16.2032   27.0706 C   0  0  1  0  0  0  0  0  0  0  0  0
   11.9544  -16.4671   25.5878 C   0  0  0  0  0  0  0  0  0  0  0  0
   10.4041  -15.9399   27.4921 C   0  0  2  0  0  0  0  0  0  0  0  0
    9.7903  -14.8540   26.7782 N   0  0  0  0  0  0  0  0  0  0  0  0
   10.4132  -15.5957   28.9360 C   0  0  0  0  0  0  0  0  0  0  0  0
   10.4225  -16.5717   29.9220 O   0  0  0  0  0  0  0  0  0  0  0  0
   10.4127  -14.4019   29.3177 O   0  0  0  0  0  0  0  0  0  0  0  0
  2  1  1  6
  3  2  1  0
  4  3  1  0
  4  8  1  0
  5  4  2  0
  6  2  1  0
  7  6  2  0
 10  9  1  1
 10 11  1  0
 12 13  1  6
 12 10  1  0
 13  6  1  0
 14 12  1  0
 15 14  2  0
 17 18  1  6
 17 19  1  0
 17 16  1  0
 19 20  1  6
 20 14  1  0
 21 22  1  0
 21 19  1  0
 23 21  2  0
M  END
$$$$
