MEW.pdb
     RDKit          3D

 32 33  0  0  1  0  0  0  0  0999 V2000
   27.9423  -25.4300  -19.9396 C   0  0  0  0  0  0  0  0  0  0  0  0
   27.9781  -24.3619  -18.4753 S   0  0  0  0  0  0  0  0  0  0  0  0
   29.3243  -24.8530  -17.3812 C   0  0  0  0  0  0  0  0  0  0  0  0
   29.3370  -23.9628  -16.1465 C   0  0  0  0  0  0  0  0  0  0  0  0
   29.2256  -22.5273  -16.6138 C   0  0  2  0  0  0  0  0  0  0  0  0
   30.4910  -22.0387  -17.0750 N   0  0  0  0  0  0  0  0  0  0  0  0
   28.6631  -21.6628  -15.5203 C   0  0  0  0  0  0  0  0  0  0  0  0
   29.4245  -21.2224  -14.6263 O   0  0  0  0  0  0  0  0  0  0  0  0
   27.3071  -21.3215  -15.4542 N   0  0  0  0  0  0  0  0  0  0  0  0
   26.6935  -20.4953  -14.4953 C   0  0  1  0  0  0  0  0  0  0  0  0
   25.6075  -19.5749  -14.9598 C   0  0  0  0  0  0  0  0  0  0  0  0
   24.9321  -18.9780  -13.7238 C   0  0  0  0  0  0  0  0  0  0  0  0
   23.7960  -18.1255  -14.1373 C   0  0  0  0  0  0  0  0  0  0  0  0
   23.4020  -18.1660  -15.3339 O   0  0  0  0  0  0  0  0  0  0  0  0
   26.2909  -21.1963  -13.2766 C   0  0  0  0  0  0  0  0  0  0  0  0
   25.4112  -22.1173  -13.2774 O   0  0  0  0  0  0  0  0  0  0  0  0
   23.1865  -17.3018  -13.2102 O   0  0  0  0  0  0  0  0  0  0  0  0
   26.8959  -20.8494  -12.0327 N   0  0  0  0  0  0  0  0  0  0  0  0
   26.5576  -21.5904  -10.8085 C   0  0  1  0  0  0  0  0  0  0  0  0
   27.7310  -21.4682   -9.8639 C   0  0  0  0  0  0  0  0  0  0  0  0
   27.4758  -20.5601   -8.7461 C   0  0  0  0  0  0  0  0  0  0  0  0
   26.4212  -19.6818   -8.6656 C   0  0  0  0  0  0  0  0  0  0  0  0
   26.5118  -19.0224   -7.5128 N   0  0  0  0  0  0  0  0  0  0  0  0
   27.6025  -19.4475   -6.8331 C   0  0  0  0  0  0  0  0  0  0  0  0
   28.1400  -19.0943   -5.6074 C   0  0  0  0  0  0  0  0  0  0  0  0
   29.2850  -19.7012   -5.1446 C   0  0  0  0  0  0  0  0  0  0  0  0
   29.8917  -20.6639   -5.9128 C   0  0  0  0  0  0  0  0  0  0  0  0
   29.3767  -21.0210   -7.1170 C   0  0  0  0  0  0  0  0  0  0  0  0
   28.2280  -20.4161   -7.5874 C   0  0  0  0  0  0  0  0  0  0  0  0
   25.3119  -21.0614  -10.2807 C   0  0  0  0  0  0  0  0  0  0  0  0
   24.8906  -19.7845  -10.5894 O   0  0  0  0  0  0  0  0  0  0  0  0
   24.5910  -21.7595   -9.5297 O   0  0  0  0  0  0  0  0  0  0  0  0
  2  1  1  0
  3  2  1  0
  4  3  1  0
  5  4  1  0
  5  6  1  1
  7  9  1  0
  7  5  1  0
  8  7  2  0
 10  9  1  0
 10 11  1  6
 11 12  1  0
 12 13  1  0
 13 14  2  0
 13 17  1  0
 15 10  1  0
 16 15  2  0
 18 15  1  0
 19 30  1  0
 19 18  1  0
 19 20  1  1
 21 20  1  0
 21 29  1  0
 22 23  1  0
 22 21  2  0
 23 24  1  0
 24 29  2  0
 24 25  1  0
 25 26  2  0
 26 27  1  0
 28 27  2  0
 29 28  1  0
 30 31  1  0
 32 30  2  0
M  END
$$$$
