MEW.pdb
     RDKit          3D

 32 33  0  0  1  0  0  0  0  0999 V2000
   32.6820  -16.9218  -19.4727 C   0  0  0  0  0  0  0  0  0  0  0  0
   30.9371  -17.2641  -19.1205 S   0  0  0  0  0  0  0  0  0  0  0  0
   30.5749  -16.9236  -17.3875 C   0  0  0  0  0  0  0  0  0  0  0  0
   29.1212  -17.2611  -17.0878 C   0  0  0  0  0  0  0  0  0  0  0  0
   29.0932  -18.6184  -16.4179 C   0  0  2  0  0  0  0  0  0  0  0  0
   29.6141  -19.6303  -17.2882 N   0  0  0  0  0  0  0  0  0  0  0  0
   27.7004  -18.9466  -15.9577 C   0  0  0  0  0  0  0  0  0  0  0  0
   27.0674  -18.1176  -15.2613 O   0  0  0  0  0  0  0  0  0  0  0  0
   27.0683  -20.1541  -16.2767 N   0  0  0  0  0  0  0  0  0  0  0  0
   25.7581  -20.5340  -15.9336 C   0  0  1  0  0  0  0  0  0  0  0  0
   24.8876  -21.0931  -17.0161 C   0  0  0  0  0  0  0  0  0  0  0  0
   24.7767  -20.0436  -18.1236 C   0  0  0  0  0  0  0  0  0  0  0  0
   23.5728  -19.2120  -17.9060 C   0  0  0  0  0  0  0  0  0  0  0  0
   22.4341  -19.7446  -17.9987 O   0  0  0  0  0  0  0  0  0  0  0  0
   25.6740  -21.3555  -14.7266 C   0  0  0  0  0  0  0  0  0  0  0  0
   26.3901  -22.3950  -14.5566 O   0  0  0  0  0  0  0  0  0  0  0  0
   23.7137  -17.8706  -17.6055 O   0  0  0  0  0  0  0  0  0  0  0  0
   24.7626  -20.9937  -13.6911 N   0  0  0  0  0  0  0  0  0  0  0  0
   24.6524  -21.8150  -12.4764 C   0  0  1  0  0  0  0  0  0  0  0  0
   26.0112  -21.8337  -11.8150 C   0  0  0  0  0  0  0  0  0  0  0  0
   26.0417  -21.1077  -10.5457 C   0  0  0  0  0  0  0  0  0  0  0  0
   24.9628  -20.4835   -9.9655 C   0  0  0  0  0  0  0  0  0  0  0  0
   25.3633  -19.9297   -8.8232 N   0  0  0  0  0  0  0  0  0  0  0  0
   26.6816  -20.1758   -8.6390 C   0  0  0  0  0  0  0  0  0  0  0  0
   27.5679  -19.8323   -7.6327 C   0  0  0  0  0  0  0  0  0  0  0  0
   28.8855  -20.2237   -7.6973 C   0  0  0  0  0  0  0  0  0  0  0  0
   29.3146  -20.9609   -8.7731 C   0  0  0  0  0  0  0  0  0  0  0  0
   28.4573  -21.3055   -9.7679 C   0  0  0  0  0  0  0  0  0  0  0  0
   27.1339  -20.9161   -9.7093 C   0  0  0  0  0  0  0  0  0  0  0  0
   23.5943  -21.2670  -11.6456 C   0  0  0  0  0  0  0  0  0  0  0  0
   23.0840  -20.0065  -11.8785 O   0  0  0  0  0  0  0  0  0  0  0  0
   23.1214  -21.9330  -10.6949 O   0  0  0  0  0  0  0  0  0  0  0  0
  2  1  1  0
  3  2  1  0
  4  3  1  0
  5  4  1  0
  5  6  1  6
  7  9  1  0
  7  5  1  0
  8  7  2  0
 10  9  1  0
 10 11  1  6
 11 12  1  0
 12 13  1  0
 13 14  2  0
 13 17  1  0
 15 10  1  0
 16 15  2  0
 18 15  1  0
 19 30  1  0
 19 18  1  0
 19 20  1  1
 21 20  1  0
 21 29  1  0
 22 23  1  0
 22 21  2  0
 23 24  1  0
 24 29  2  0
 24 25  1  0
 25 26  2  0
 26 27  1  0
 28 27  2  0
 29 28  1  0
 30 31  1  0
 32 30  2  0
M  END
$$$$
