MEW.pdb
     RDKit          3D

 32 33  0  0  1  0  0  0  0  0999 V2000
   37.0888  -25.6451  -19.8715 C   0  0  0  0  0  0  0  0  0  0  0  0
   36.5876  -26.6710  -18.4635 S   0  0  0  0  0  0  0  0  0  0  0  0
   35.8175  -25.6490  -17.1935 C   0  0  0  0  0  0  0  0  0  0  0  0
   35.3954  -26.5180  -16.0171 C   0  0  0  0  0  0  0  0  0  0  0  0
   34.6563  -25.6344  -15.0351 C   0  0  2  0  0  0  0  0  0  0  0  0
   35.2012  -25.7660  -13.7165 N   0  0  0  0  0  0  0  0  0  0  0  0
   33.1849  -25.9409  -15.0596 C   0  0  0  0  0  0  0  0  0  0  0  0
   32.5649  -26.0850  -13.9789 O   0  0  0  0  0  0  0  0  0  0  0  0
   32.4646  -26.0741  -16.2523 N   0  0  0  0  0  0  0  0  0  0  0  0
   31.0667  -26.1569  -16.3860 C   0  0  1  0  0  0  0  0  0  0  0  0
   30.3655  -25.0364  -17.0895 C   0  0  0  0  0  0  0  0  0  0  0  0
   29.4456  -24.3461  -16.0808 C   0  0  0  0  0  0  0  0  0  0  0  0
   28.7606  -23.2054  -16.7274 C   0  0  0  0  0  0  0  0  0  0  0  0
   28.0085  -22.4685  -16.0346 O   0  0  0  0  0  0  0  0  0  0  0  0
   30.5916  -27.4512  -16.8736 C   0  0  0  0  0  0  0  0  0  0  0  0
   31.0504  -27.9929  -17.9311 O   0  0  0  0  0  0  0  0  0  0  0  0
   28.9547  -22.9659  -18.0744 O   0  0  0  0  0  0  0  0  0  0  0  0
   29.5782  -28.1468  -16.1506 N   0  0  0  0  0  0  0  0  0  0  0  0
   29.0899  -29.4512  -16.6223 C   0  0  1  0  0  0  0  0  0  0  0  0
   28.2666  -30.0582  -15.5097 C   0  0  0  0  0  0  0  0  0  0  0  0
   27.7529  -31.3881  -15.8358 C   0  0  0  0  0  0  0  0  0  0  0  0
   28.4591  -32.5612  -15.7113 C   0  0  0  0  0  0  0  0  0  0  0  0
   27.6756  -33.5653  -16.0985 N   0  0  0  0  0  0  0  0  0  0  0  0
   26.4697  -33.0789  -16.4748 C   0  0  0  0  0  0  0  0  0  0  0  0
   25.3197  -33.6868  -16.9481 C   0  0  0  0  0  0  0  0  0  0  0  0
   24.2095  -32.9362  -17.2605 C   0  0  0  0  0  0  0  0  0  0  0  0
   24.2531  -31.5737  -17.0978 C   0  0  0  0  0  0  0  0  0  0  0  0
   25.3737  -30.9629  -16.6347 C   0  0  0  0  0  0  0  0  0  0  0  0
   26.4912  -31.7101  -16.3193 C   0  0  0  0  0  0  0  0  0  0  0  0
   28.3580  -29.2475  -17.8604 C   0  0  0  0  0  0  0  0  0  0  0  0
   28.3071  -30.2282  -18.8294 O   0  0  0  0  0  0  0  0  0  0  0  0
   27.7545  -28.1698  -18.0736 O   0  0  0  0  0  0  0  0  0  0  0  0
  2  1  1  0
  3  2  1  0
  4  3  1  0
  5  4  1  0
  5  6  1  1
  7  9  1  0
  7  5  1  0
  8  7  2  0
 10  9  1  0
 10 11  1  6
 11 12  1  0
 12 13  1  0
 13 14  2  0
 13 17  1  0
 15 10  1  0
 16 15  2  0
 18 15  1  0
 19 30  1  0
 19 18  1  0
 19 20  1  1
 21 20  1  0
 21 29  1  0
 22 23  1  0
 22 21  2  0
 23 24  1  0
 24 29  2  0
 24 25  1  0
 25 26  2  0
 26 27  1  0
 28 27  2  0
 29 28  1  0
 30 31  1  0
 32 30  2  0
M  END
$$$$
