MEW.pdb
     RDKit          3D

 32 33  0  0  1  0  0  0  0  0999 V2000
   17.6750  -20.2312  -12.2008 C   0  0  0  0  0  0  0  0  0  0  0  0
   17.6505  -19.1758  -13.6744 S   0  0  0  0  0  0  0  0  0  0  0  0
   19.3179  -18.9933  -14.3354 C   0  0  0  0  0  0  0  0  0  0  0  0
   20.3066  -19.7480  -13.4579 C   0  0  0  0  0  0  0  0  0  0  0  0
   21.3430  -20.3738  -14.3667 C   0  0  2  0  0  0  0  0  0  0  0  0
   20.7497  -21.3647  -15.2146 N   0  0  0  0  0  0  0  0  0  0  0  0
   22.4743  -20.9430  -13.5570 C   0  0  0  0  0  0  0  0  0  0  0  0
   22.2217  -21.6663  -12.5640 O   0  0  0  0  0  0  0  0  0  0  0  0
   23.8174  -20.6988  -13.8664 N   0  0  0  0  0  0  0  0  0  0  0  0
   24.9386  -21.0869  -13.1107 C   0  0  1  0  0  0  0  0  0  0  0  0
   26.2454  -21.2343  -13.8267 C   0  0  0  0  0  0  0  0  0  0  0  0
   26.0510  -22.2379  -14.9648 C   0  0  0  0  0  0  0  0  0  0  0  0
   27.3305  -22.4367  -15.6804 C   0  0  0  0  0  0  0  0  0  0  0  0
   27.4977  -21.8877  -16.8026 O   0  0  0  0  0  0  0  0  0  0  0  0
   25.1108  -20.3305  -11.8709 C   0  0  0  0  0  0  0  0  0  0  0  0
   24.8122  -19.0960  -11.7770 O   0  0  0  0  0  0  0  0  0  0  0  0
   28.3183  -23.2171  -15.1106 O   0  0  0  0  0  0  0  0  0  0  0  0
   25.6302  -20.9837  -10.7144 N   0  0  0  0  0  0  0  0  0  0  0  0
   26.5949  -20.2972   -9.8425 C   0  0  1  0  0  0  0  0  0  0  0  0
   26.1722  -20.5448   -8.4128 C   0  0  0  0  0  0  0  0  0  0  0  0
   26.9219  -19.7436   -7.4457 C   0  0  0  0  0  0  0  0  0  0  0  0
   27.0656  -18.3771   -7.4932 C   0  0  0  0  0  0  0  0  0  0  0  0
   27.8085  -17.9974   -6.4559 N   0  0  0  0  0  0  0  0  0  0  0  0
   28.1566  -19.0837   -5.7271 C   0  0  0  0  0  0  0  0  0  0  0  0
   28.9067  -19.2382   -4.5741 C   0  0  0  0  0  0  0  0  0  0  0  0
   29.1074  -20.4870   -4.0321 C   0  0  0  0  0  0  0  0  0  0  0  0
   28.5547  -21.5825   -4.6480 C   0  0  0  0  0  0  0  0  0  0  0  0
   27.8166  -21.4472   -5.7793 C   0  0  0  0  0  0  0  0  0  0  0  0
   27.6112  -20.1970   -6.3284 C   0  0  0  0  0  0  0  0  0  0  0  0
   27.9271  -20.7809  -10.1608 C   0  0  0  0  0  0  0  0  0  0  0  0
   28.1131  -21.9743  -10.8277 O   0  0  0  0  0  0  0  0  0  0  0  0
   28.9401  -20.1191   -9.8337 O   0  0  0  0  0  0  0  0  0  0  0  0
  2  1  1  0
  3  2  1  0
  4  3  1  0
  5  4  1  0
  5  6  1  1
  7  9  1  0
  7  5  1  0
  8  7  2  0
 10  9  1  0
 10 11  1  6
 11 12  1  0
 12 13  1  0
 13 14  2  0
 13 17  1  0
 15 10  1  0
 16 15  2  0
 18 15  1  0
 19 30  1  0
 19 18  1  0
 19 20  1  1
 21 20  1  0
 21 29  1  0
 22 23  1  0
 22 21  2  0
 23 24  1  0
 24 29  2  0
 24 25  1  0
 25 26  2  0
 26 27  1  0
 28 27  2  0
 29 28  1  0
 30 31  1  0
 32 30  2  0
M  END
$$$$
