MEW.pdb
     RDKit          3D

 32 33  0  0  1  0  0  0  0  0999 V2000
   28.1915  -15.5467  -15.7761 C   0  0  0  0  0  0  0  0  0  0  0  0
   28.1234  -16.3234  -17.4126 S   0  0  0  0  0  0  0  0  0  0  0  0
   27.9182  -18.1067  -17.2456 C   0  0  0  0  0  0  0  0  0  0  0  0
   27.9359  -18.4929  -15.7733 C   0  0  0  0  0  0  0  0  0  0  0  0
   27.9644  -20.0044  -15.6950 C   0  0  2  0  0  0  0  0  0  0  0  0
   28.1435  -20.5815  -16.9940 N   0  0  0  0  0  0  0  0  0  0  0  0
   26.7191  -20.5177  -15.0276 C   0  0  0  0  0  0  0  0  0  0  0  0
   25.7983  -21.0042  -15.7265 O   0  0  0  0  0  0  0  0  0  0  0  0
   26.5386  -20.4772  -13.6401 N   0  0  0  0  0  0  0  0  0  0  0  0
   25.3673  -20.8069  -12.9344 C   0  0  1  0  0  0  0  0  0  0  0  0
   25.4202  -20.7690  -11.4384 C   0  0  0  0  0  0  0  0  0  0  0  0
   24.1579  -21.4473  -10.9028 C   0  0  0  0  0  0  0  0  0  0  0  0
   24.2111  -21.5080   -9.4256 C   0  0  0  0  0  0  0  0  0  0  0  0
   25.2489  -21.9545   -8.8668 O   0  0  0  0  0  0  0  0  0  0  0  0
   24.1668  -20.1321  -13.4265 C   0  0  0  0  0  0  0  0  0  0  0  0
   23.9181  -18.9091  -13.1726 O   0  0  0  0  0  0  0  0  0  0  0  0
   23.1278  -21.0762   -8.6843 O   0  0  0  0  0  0  0  0  0  0  0  0
   23.2295  -20.8548  -14.2221 N   0  0  0  0  0  0  0  0  0  0  0  0
   22.0115  -20.1970  -14.7183 C   0  0  1  0  0  0  0  0  0  0  0  0
   21.8468  -20.5807  -16.1708 C   0  0  0  0  0  0  0  0  0  0  0  0
   20.6406  -20.0205  -16.7792 C   0  0  0  0  0  0  0  0  0  0  0  0
   20.1508  -18.7572  -16.5459 C   0  0  0  0  0  0  0  0  0  0  0  0
   19.0439  -18.5968  -17.2679 N   0  0  0  0  0  0  0  0  0  0  0  0
   18.7948  -19.7264  -17.9709 C   0  0  0  0  0  0  0  0  0  0  0  0
   17.7911  -20.0770  -18.8573 C   0  0  0  0  0  0  0  0  0  0  0  0
   17.7795  -21.3214  -19.4444 C   0  0  0  0  0  0  0  0  0  0  0  0
   18.7763  -22.2155  -19.1418 C   0  0  0  0  0  0  0  0  0  0  0  0
   19.7676  -21.8865  -18.2743 C   0  0  0  0  0  0  0  0  0  0  0  0
   19.7853  -20.6395  -17.6817 C   0  0  0  0  0  0  0  0  0  0  0  0
   20.8994  -20.5892  -13.8701 C   0  0  0  0  0  0  0  0  0  0  0  0
   19.8823  -19.7059  -13.5723 O   0  0  0  0  0  0  0  0  0  0  0  0
   20.8420  -21.7453  -13.3891 O   0  0  0  0  0  0  0  0  0  0  0  0
  2  1  1  0
  3  2  1  0
  4  3  1  0
  5  4  1  0
  5  6  1  6
  7  9  1  0
  7  5  1  0
  8  7  2  0
 10  9  1  0
 10 11  1  1
 11 12  1  0
 12 13  1  0
 13 14  2  0
 13 17  1  0
 15 10  1  0
 16 15  2  0
 18 15  1  0
 19 30  1  0
 19 18  1  0
 19 20  1  6
 21 20  1  0
 21 29  1  0
 22 23  1  0
 22 21  2  0
 23 24  1  0
 24 29  2  0
 24 25  1  0
 25 26  2  0
 26 27  1  0
 28 27  2  0
 29 28  1  0
 30 31  1  0
 32 30  2  0
M  END
$$$$
