MEW.pdb
     RDKit          3D

 32 33  0  0  1  0  0  0  0  0999 V2000
   28.4282  -22.4596  -19.9312 C   0  0  0  0  0  0  0  0  0  0  0  0
   28.0619  -20.7338  -19.5146 S   0  0  0  0  0  0  0  0  0  0  0  0
   27.4217  -20.6233  -17.8329 C   0  0  0  0  0  0  0  0  0  0  0  0
   28.3527  -21.3555  -16.8768 C   0  0  0  0  0  0  0  0  0  0  0  0
   27.4927  -22.1008  -15.8785 C   0  0  2  0  0  0  0  0  0  0  0  0
   26.3504  -22.6817  -16.5192 N   0  0  0  0  0  0  0  0  0  0  0  0
   27.0925  -21.1915  -14.7504 C   0  0  0  0  0  0  0  0  0  0  0  0
   27.9684  -20.5149  -14.1607 O   0  0  0  0  0  0  0  0  0  0  0  0
   25.7659  -21.0638  -14.3224 N   0  0  0  0  0  0  0  0  0  0  0  0
   25.2963  -20.2610  -13.2670 C   0  0  1  0  0  0  0  0  0  0  0  0
   23.9676  -19.5919  -13.4373 C   0  0  0  0  0  0  0  0  0  0  0  0
   22.9234  -20.6759  -13.7112 C   0  0  0  0  0  0  0  0  0  0  0  0
   21.7334  -20.0738  -14.3515 C   0  0  0  0  0  0  0  0  0  0  0  0
   21.7150  -18.8321  -14.5673 O   0  0  0  0  0  0  0  0  0  0  0  0
   25.3922  -20.8925  -11.9514 C   0  0  0  0  0  0  0  0  0  0  0  0
   24.9999  -22.0849  -11.7360 O   0  0  0  0  0  0  0  0  0  0  0  0
   20.6655  -20.8775  -14.7020 O   0  0  0  0  0  0  0  0  0  0  0  0
   25.9436  -20.1613  -10.8583 N   0  0  0  0  0  0  0  0  0  0  0  0
   26.0623  -20.7835   -9.5313 C   0  0  1  0  0  0  0  0  0  0  0  0
   27.0575  -19.9710   -8.7353 C   0  0  0  0  0  0  0  0  0  0  0  0
   26.9291  -20.1612   -7.2909 C   0  0  0  0  0  0  0  0  0  0  0  0
   25.9044  -20.8356   -6.6700 C   0  0  0  0  0  0  0  0  0  0  0  0
   26.1184  -20.8061   -5.3565 N   0  0  0  0  0  0  0  0  0  0  0  0
   27.2610  -20.1274   -5.0995 C   0  0  0  0  0  0  0  0  0  0  0  0
   27.9221  -19.8154   -3.9240 C   0  0  0  0  0  0  0  0  0  0  0  0
   29.0957  -19.0975   -3.9508 C   0  0  0  0  0  0  0  0  0  0  0  0
   29.6067  -18.6918   -5.1587 C   0  0  0  0  0  0  0  0  0  0  0  0
   28.9699  -18.9900   -6.3201 C   0  0  0  0  0  0  0  0  0  0  0  0
   27.7920  -19.7101   -6.3004 C   0  0  0  0  0  0  0  0  0  0  0  0
   24.7392  -20.8521   -8.9358 C   0  0  0  0  0  0  0  0  0  0  0  0
   23.6585  -20.2270   -9.5232 O   0  0  0  0  0  0  0  0  0  0  0  0
   24.5524  -21.4845   -7.8699 O   0  0  0  0  0  0  0  0  0  0  0  0
  2  1  1  0
  3  2  1  0
  4  3  1  0
  5  4  1  0
  5  6  1  6
  7  9  1  0
  7  5  1  0
  8  7  2  0
 10  9  1  0
 10 11  1  6
 11 12  1  0
 12 13  1  0
 13 14  2  0
 13 17  1  0
 15 10  1  0
 16 15  2  0
 18 15  1  0
 19 30  1  0
 19 18  1  0
 19 20  1  1
 21 20  1  0
 21 29  1  0
 22 23  1  0
 22 21  2  0
 23 24  1  0
 24 29  2  0
 24 25  1  0
 25 26  2  0
 26 27  1  0
 28 27  2  0
 29 28  1  0
 30 31  1  0
 32 30  2  0
M  END
$$$$
