MEW.pdb
     RDKit          3D

 32 33  0  0  1  0  0  0  0  0999 V2000
   30.2064  -16.4031  -16.0864 C   0  0  0  0  0  0  0  0  0  0  0  0
   29.4520  -17.8364  -16.9004 S   0  0  0  0  0  0  0  0  0  0  0  0
   27.6574  -17.6660  -16.9202 C   0  0  0  0  0  0  0  0  0  0  0  0
   27.1281  -17.6105  -15.4940 C   0  0  0  0  0  0  0  0  0  0  0  0
   27.2080  -19.0088  -14.9196 C   0  0  2  0  0  0  0  0  0  0  0  0
   26.6028  -19.9610  -15.8027 N   0  0  0  0  0  0  0  0  0  0  0  0
   26.5866  -19.0492  -13.5515 C   0  0  0  0  0  0  0  0  0  0  0  0
   26.9564  -18.2271  -12.6796 O   0  0  0  0  0  0  0  0  0  0  0  0
   25.5984  -19.9769  -13.2018 N   0  0  0  0  0  0  0  0  0  0  0  0
   24.9776  -20.1116  -11.9467 C   0  0  1  0  0  0  0  0  0  0  0  0
   23.6097  -20.7193  -11.9066 C   0  0  0  0  0  0  0  0  0  0  0  0
   23.0648  -20.7535  -13.3356 C   0  0  0  0  0  0  0  0  0  0  0  0
   21.6818  -21.2786  -13.3312 C   0  0  0  0  0  0  0  0  0  0  0  0
   21.1852  -21.6904  -12.2484 O   0  0  0  0  0  0  0  0  0  0  0  0
   25.8354  -20.7008  -10.9192 C   0  0  0  0  0  0  0  0  0  0  0  0
   26.8193  -21.4583  -11.2029 O   0  0  0  0  0  0  0  0  0  0  0  0
   20.9585  -21.3095  -14.5083 O   0  0  0  0  0  0  0  0  0  0  0  0
   25.5758  -20.4273   -9.5439 N   0  0  0  0  0  0  0  0  0  0  0  0
   26.5224  -20.8639   -8.5068 C   0  0  1  0  0  0  0  0  0  0  0  0
   27.5708  -19.7847   -8.3645 C   0  0  0  0  0  0  0  0  0  0  0  0
   28.5999  -20.1108   -7.3778 C   0  0  0  0  0  0  0  0  0  0  0  0
   29.6498  -20.9739   -7.5858 C   0  0  0  0  0  0  0  0  0  0  0  0
   30.3781  -21.0239   -6.4727 N   0  0  0  0  0  0  0  0  0  0  0  0
   29.8309  -20.2130   -5.5372 C   0  0  0  0  0  0  0  0  0  0  0  0
   30.1897  -19.9072   -4.2357 C   0  0  0  0  0  0  0  0  0  0  0  0
   29.4379  -19.0274   -3.4912 C   0  0  0  0  0  0  0  0  0  0  0  0
   28.3245  -18.4536   -4.0532 C   0  0  0  0  0  0  0  0  0  0  0  0
   27.9597  -18.7435   -5.3284 C   0  0  0  0  0  0  0  0  0  0  0  0
   28.7096  -19.6254   -6.0811 C   0  0  0  0  0  0  0  0  0  0  0  0
   25.7777  -21.1336   -7.2891 C   0  0  0  0  0  0  0  0  0  0  0  0
   26.2980  -21.9397   -6.2977 O   0  0  0  0  0  0  0  0  0  0  0  0
   24.6407  -20.6359   -7.1144 O   0  0  0  0  0  0  0  0  0  0  0  0
  2  1  1  0
  3  2  1  0
  4  3  1  0
  5  4  1  0
  5  6  1  6
  7  9  1  0
  7  5  1  0
  8  7  2  0
 10  9  1  0
 10 11  1  6
 11 12  1  0
 12 13  1  0
 13 14  2  0
 13 17  1  0
 15 10  1  0
 16 15  2  0
 18 15  1  0
 19 30  1  0
 19 18  1  0
 19 20  1  1
 21 20  1  0
 21 29  1  0
 22 23  1  0
 22 21  2  0
 23 24  1  0
 24 29  2  0
 24 25  1  0
 25 26  2  0
 26 27  1  0
 28 27  2  0
 29 28  1  0
 30 31  1  0
 32 30  2  0
M  END
$$$$
