MEW.pdb
     RDKit          3D

 32 33  0  0  1  0  0  0  0  0999 V2000
   30.9191  -21.2129  -17.3707 C   0  0  0  0  0  0  0  0  0  0  0  0
   30.5343  -22.7009  -16.4095 S   0  0  0  0  0  0  0  0  0  0  0  0
   28.8093  -22.6733  -15.8861 C   0  0  0  0  0  0  0  0  0  0  0  0
   28.4137  -21.2589  -15.4858 C   0  0  0  0  0  0  0  0  0  0  0  0
   27.1652  -20.8944  -16.2603 C   0  0  2  0  0  0  0  0  0  0  0  0
   27.4839  -20.0690  -17.3872 N   0  0  0  0  0  0  0  0  0  0  0  0
   26.1621  -20.2344  -15.3561 C   0  0  0  0  0  0  0  0  0  0  0  0
   26.2098  -18.9935  -15.1804 O   0  0  0  0  0  0  0  0  0  0  0  0
   25.1615  -20.9533  -14.6918 N   0  0  0  0  0  0  0  0  0  0  0  0
   24.1200  -20.4200  -13.9111 C   0  0  1  0  0  0  0  0  0  0  0  0
   22.8180  -20.1278  -14.5905 C   0  0  0  0  0  0  0  0  0  0  0  0
   21.8841  -19.4810  -13.5660 C   0  0  0  0  0  0  0  0  0  0  0  0
   20.5603  -19.2372  -14.1798 C   0  0  0  0  0  0  0  0  0  0  0  0
   20.3479  -19.6323  -15.3577 O   0  0  0  0  0  0  0  0  0  0  0  0
   23.8980  -21.1290  -12.6514 C   0  0  0  0  0  0  0  0  0  0  0  0
   23.7218  -22.3893  -12.5989 O   0  0  0  0  0  0  0  0  0  0  0  0
   19.5813  -18.5835  -13.4562 O   0  0  0  0  0  0  0  0  0  0  0  0
   23.8758  -20.3983  -11.4270 N   0  0  0  0  0  0  0  0  0  0  0  0
   23.6800  -21.0960  -10.1475 C   0  0  1  0  0  0  0  0  0  0  0  0
   24.4123  -20.3105   -9.0842 C   0  0  0  0  0  0  0  0  0  0  0  0
   25.8577  -20.5333   -9.0993 C   0  0  0  0  0  0  0  0  0  0  0  0
   26.5359  -21.2607  -10.0487 C   0  0  0  0  0  0  0  0  0  0  0  0
   27.8308  -21.2480   -9.7406 N   0  0  0  0  0  0  0  0  0  0  0  0
   28.0196  -20.5284   -8.6097 C   0  0  0  0  0  0  0  0  0  0  0  0
   29.1512  -20.2105   -7.8785 C   0  0  0  0  0  0  0  0  0  0  0  0
   29.0560  -19.4428   -6.7405 C   0  0  0  0  0  0  0  0  0  0  0  0
   27.8236  -18.9935   -6.3354 C   0  0  0  0  0  0  0  0  0  0  0  0
   26.7046  -19.2969   -7.0418 C   0  0  0  0  0  0  0  0  0  0  0  0
   26.7930  -20.0667   -8.1847 C   0  0  0  0  0  0  0  0  0  0  0  0
   22.2530  -21.2298   -9.9108 C   0  0  0  0  0  0  0  0  0  0  0  0
   21.3306  -20.7335  -10.8088 O   0  0  0  0  0  0  0  0  0  0  0  0
   21.8294  -21.8026   -8.8795 O   0  0  0  0  0  0  0  0  0  0  0  0
  2  1  1  0
  3  2  1  0
  4  3  1  0
  5  4  1  0
  5  6  1  6
  7  9  1  0
  7  5  1  0
  8  7  2  0
 10  9  1  0
 10 11  1  6
 11 12  1  0
 12 13  1  0
 13 14  2  0
 13 17  1  0
 15 10  1  0
 16 15  2  0
 18 15  1  0
 19 30  1  0
 19 18  1  0
 19 20  1  1
 21 20  1  0
 21 29  1  0
 22 23  1  0
 22 21  2  0
 23 24  1  0
 24 29  2  0
 24 25  1  0
 25 26  2  0
 26 27  1  0
 28 27  2  0
 29 28  1  0
 30 31  1  0
 32 30  2  0
M  END
$$$$
