MEW.pdb
     RDKit          3D

 32 33  0  0  1  0  0  0  0  0999 V2000
   30.6408  -19.2213  -17.1455 C   0  0  0  0  0  0  0  0  0  0  0  0
   30.0011  -17.5374  -16.9421 S   0  0  0  0  0  0  0  0  0  0  0  0
   28.3210  -17.4292  -17.5869 C   0  0  0  0  0  0  0  0  0  0  0  0
   27.3205  -17.6356  -16.4584 C   0  0  0  0  0  0  0  0  0  0  0  0
   27.7949  -18.8128  -15.6334 C   0  0  2  0  0  0  0  0  0  0  0  0
   27.9466  -19.9817  -16.4480 N   0  0  0  0  0  0  0  0  0  0  0  0
   26.8589  -19.0571  -14.4829 C   0  0  0  0  0  0  0  0  0  0  0  0
   26.6273  -18.1333  -13.6668 O   0  0  0  0  0  0  0  0  0  0  0  0
   26.2240  -20.2878  -14.2785 N   0  0  0  0  0  0  0  0  0  0  0  0
   25.1583  -20.5485  -13.3981 C   0  0  1  0  0  0  0  0  0  0  0  0
   24.0219  -21.3810  -13.9056 C   0  0  0  0  0  0  0  0  0  0  0  0
   22.9113  -21.3574  -12.8538 C   0  0  0  0  0  0  0  0  0  0  0  0
   21.8479  -20.4171  -13.2702 C   0  0  0  0  0  0  0  0  0  0  0  0
   21.5798  -20.2976  -14.4960 O   0  0  0  0  0  0  0  0  0  0  0  0
   25.5792  -21.0011  -12.0727 C   0  0  0  0  0  0  0  0  0  0  0  0
   26.1257  -22.1353  -11.8799 O   0  0  0  0  0  0  0  0  0  0  0  0
   21.1675  -19.6876  -12.3139 O   0  0  0  0  0  0  0  0  0  0  0  0
   25.3788  -20.1539  -10.9432 N   0  0  0  0  0  0  0  0  0  0  0  0
   25.6136  -20.6598   -9.5826 C   0  0  1  0  0  0  0  0  0  0  0  0
   26.4761  -19.6483   -8.8637 C   0  0  0  0  0  0  0  0  0  0  0  0
   27.6274  -20.2501   -8.1917 C   0  0  0  0  0  0  0  0  0  0  0  0
   28.4731  -21.1786   -8.7509 C   0  0  0  0  0  0  0  0  0  0  0  0
   29.4001  -21.4974   -7.8503 N   0  0  0  0  0  0  0  0  0  0  0  0
   29.1830  -20.7992   -6.7112 C   0  0  0  0  0  0  0  0  0  0  0  0
   29.8436  -20.7596   -5.4954 C   0  0  0  0  0  0  0  0  0  0  0  0
   29.3994  -19.9387   -4.4844 C   0  0  0  0  0  0  0  0  0  0  0  0
   28.2907  -19.1564   -4.6933 C   0  0  0  0  0  0  0  0  0  0  0  0
   27.6321  -19.1843   -5.8801 C   0  0  0  0  0  0  0  0  0  0  0  0
   28.0725  -20.0056   -6.8989 C   0  0  0  0  0  0  0  0  0  0  0  0
   24.3266  -20.8983   -8.9526 C   0  0  0  0  0  0  0  0  0  0  0  0
   23.1489  -20.5443   -9.5781 O   0  0  0  0  0  0  0  0  0  0  0  0
   24.2607  -21.4339   -7.8213 O   0  0  0  0  0  0  0  0  0  0  0  0
  2  1  1  0
  3  2  1  0
  4  3  1  0
  5  4  1  0
  5  6  1  6
  7  9  1  0
  7  5  1  0
  8  7  2  0
 10  9  1  0
 10 11  1  6
 11 12  1  0
 12 13  1  0
 13 14  2  0
 13 17  1  0
 15 10  1  0
 16 15  2  0
 18 15  1  0
 19 30  1  0
 19 18  1  0
 19 20  1  1
 21 20  1  0
 21 29  1  0
 22 23  1  0
 22 21  2  0
 23 24  1  0
 24 29  2  0
 24 25  1  0
 25 26  2  0
 26 27  1  0
 28 27  2  0
 29 28  1  0
 30 31  1  0
 32 30  2  0
M  END
$$$$
