MEW.pdb
     RDKit          3D

 32 33  0  0  1  0  0  0  0  0999 V2000
   16.5969  -29.2039    2.0606 C   0  0  0  0  0  0  0  0  0  0  0  0
   16.4473  -27.5667    1.2968 S   0  0  0  0  0  0  0  0  0  0  0  0
   17.6082  -26.4173    2.0594 C   0  0  0  0  0  0  0  0  0  0  0  0
   17.4147  -25.0247    1.4759 C   0  0  0  0  0  0  0  0  0  0  0  0
   15.9309  -24.8206    1.2564 C   0  0  2  0  0  0  0  0  0  0  0  0
   15.5926  -24.9672   -0.1280 N   0  0  0  0  0  0  0  0  0  0  0  0
   15.5012  -23.4839    1.7932 C   0  0  0  0  0  0  0  0  0  0  0  0
   15.6562  -22.4564    1.0911 O   0  0  0  0  0  0  0  0  0  0  0  0
   14.9266  -23.3322    3.0606 N   0  0  0  0  0  0  0  0  0  0  0  0
   14.5704  -22.1222    3.6833 C   0  0  1  0  0  0  0  0  0  0  0  0
   13.6295  -22.1867    4.8464 C   0  0  0  0  0  0  0  0  0  0  0  0
   13.2324  -20.7557    5.2138 C   0  0  0  0  0  0  0  0  0  0  0  0
   12.2838  -20.7757    6.3489 C   0  0  0  0  0  0  0  0  0  0  0  0
   11.9124  -21.8847    6.8188 O   0  0  0  0  0  0  0  0  0  0  0  0
   15.7062  -21.2518    3.9848 C   0  0  0  0  0  0  0  0  0  0  0  0
   16.8657  -21.7084    4.2483 O   0  0  0  0  0  0  0  0  0  0  0  0
   11.8216  -19.5842    6.8745 O   0  0  0  0  0  0  0  0  0  0  0  0
   15.5274  -19.8370    3.9875 N   0  0  0  0  0  0  0  0  0  0  0  0
   16.6325  -18.9480    4.3757 C   0  0  1  0  0  0  0  0  0  0  0  0
   17.6301  -18.9398    3.2405 C   0  0  0  0  0  0  0  0  0  0  0  0
   18.2692  -17.6386    3.0473 C   0  0  0  0  0  0  0  0  0  0  0  0
   17.8950  -16.4730    3.6733 C   0  0  0  0  0  0  0  0  0  0  0  0
   18.6974  -15.4966    3.2555 N   0  0  0  0  0  0  0  0  0  0  0  0
   19.5912  -15.9938    2.3688 C   0  0  0  0  0  0  0  0  0  0  0  0
   20.6240  -15.4133    1.6529 C   0  0  0  0  0  0  0  0  0  0  0  0
   21.3964  -16.1695    0.8015 C   0  0  0  0  0  0  0  0  0  0  0  0
   21.1322  -17.5101    0.6679 C   0  0  0  0  0  0  0  0  0  0  0  0
   20.1227  -18.0939    1.3632 C   0  0  0  0  0  0  0  0  0  0  0  0
   19.3438  -17.3409    2.2193 C   0  0  0  0  0  0  0  0  0  0  0  0
   16.0818  -17.6417    4.6926 C   0  0  0  0  0  0  0  0  0  0  0  0
   14.7425  -17.3673    4.5071 O   0  0  0  0  0  0  0  0  0  0  0  0
   16.8175  -16.7327    5.1437 O   0  0  0  0  0  0  0  0  0  0  0  0
  2  1  1  0
  3  2  1  0
  4  3  1  0
  5  4  1  0
  5  6  1  6
  7  9  1  0
  7  5  1  0
  8  7  2  0
 10  9  1  0
 10 11  1  1
 11 12  1  0
 12 13  1  0
 13 14  2  0
 13 17  1  0
 15 10  1  0
 16 15  2  0
 18 15  1  0
 19 30  1  0
 19 18  1  0
 19 20  1  6
 21 20  1  0
 21 29  1  0
 22 23  1  0
 22 21  2  0
 23 24  1  0
 24 29  2  0
 24 25  1  0
 25 26  2  0
 26 27  1  0
 28 27  2  0
 29 28  1  0
 30 31  1  0
 32 30  2  0
M  END
$$$$
