MEW.pdb
     RDKit          3D

 32 33  0  0  1  0  0  0  0  0999 V2000
   28.0825  -12.8197  -15.2834 C   0  0  0  0  0  0  0  0  0  0  0  0
   26.9954  -14.2196  -14.9033 S   0  0  0  0  0  0  0  0  0  0  0  0
   25.9518  -14.5989  -16.3237 C   0  0  0  0  0  0  0  0  0  0  0  0
   24.8903  -13.5201  -16.4873 C   0  0  0  0  0  0  0  0  0  0  0  0
   23.9923  -13.9295  -17.6351 C   0  0  2  0  0  0  0  0  0  0  0  0
   24.7503  -14.1219  -18.8355 N   0  0  0  0  0  0  0  0  0  0  0  0
   22.8959  -12.9195  -17.8281 C   0  0  0  0  0  0  0  0  0  0  0  0
   23.1311  -11.8653  -18.4655 O   0  0  0  0  0  0  0  0  0  0  0  0
   21.6045  -13.1056  -17.3212 N   0  0  0  0  0  0  0  0  0  0  0  0
   20.5381  -12.1901  -17.3789 C   0  0  1  0  0  0  0  0  0  0  0  0
   19.1465  -12.7321  -17.2699 C   0  0  0  0  0  0  0  0  0  0  0  0
   19.1152  -14.0979  -17.9581 C   0  0  0  0  0  0  0  0  0  0  0  0
   18.6080  -15.1206  -17.0172 C   0  0  0  0  0  0  0  0  0  0  0  0
   19.2790  -15.3915  -15.9851 O   0  0  0  0  0  0  0  0  0  0  0  0
   20.7081  -11.0239  -16.5129 C   0  0  0  0  0  0  0  0  0  0  0  0
   21.1410  -11.1173  -15.3187 O   0  0  0  0  0  0  0  0  0  0  0  0
   17.4122  -15.7603  -17.2823 O   0  0  0  0  0  0  0  0  0  0  0  0
   20.3828   -9.7266  -17.0076 N   0  0  0  0  0  0  0  0  0  0  0  0
   20.6421   -8.5320  -16.1902 C   0  0  1  0  0  0  0  0  0  0  0  0
   22.1136   -8.5270  -15.8458 C   0  0  0  0  0  0  0  0  0  0  0  0
   22.6130   -7.2018  -15.4805 C   0  0  0  0  0  0  0  0  0  0  0  0
   22.1515   -6.4449  -14.4296 C   0  0  0  0  0  0  0  0  0  0  0  0
   22.8363   -5.3036  -14.4026 N   0  0  0  0  0  0  0  0  0  0  0  0
   23.7379   -5.2931  -15.4121 C   0  0  0  0  0  0  0  0  0  0  0  0
   24.6787   -4.3629  -15.8194 C   0  0  0  0  0  0  0  0  0  0  0  0
   25.4866   -4.6142  -16.9046 C   0  0  0  0  0  0  0  0  0  0  0  0
   25.3505   -5.8004  -17.5822 C   0  0  0  0  0  0  0  0  0  0  0  0
   24.4325   -6.7226  -17.1949 C   0  0  0  0  0  0  0  0  0  0  0  0
   23.6187   -6.4769  -16.1068 C   0  0  0  0  0  0  0  0  0  0  0  0
   20.2010   -7.3633  -16.9317 C   0  0  0  0  0  0  0  0  0  0  0  0
   19.6685   -6.2668  -16.2855 O   0  0  0  0  0  0  0  0  0  0  0  0
   20.2964   -7.3283  -18.1810 O   0  0  0  0  0  0  0  0  0  0  0  0
  2  1  1  0
  3  2  1  0
  4  3  1  0
  5  4  1  0
  5  6  1  6
  7  9  1  0
  7  5  1  0
  8  7  2  0
 10  9  1  0
 10 11  1  1
 11 12  1  0
 12 13  1  0
 13 14  2  0
 13 17  1  0
 15 10  1  0
 16 15  2  0
 18 15  1  0
 19 30  1  0
 19 18  1  0
 19 20  1  6
 21 20  1  0
 21 29  1  0
 22 23  1  0
 22 21  2  0
 23 24  1  0
 24 29  2  0
 24 25  1  0
 25 26  2  0
 26 27  1  0
 28 27  2  0
 29 28  1  0
 30 31  1  0
 32 30  2  0
M  END
$$$$
