MEW.pdb
     RDKit          3D

 32 33  0  0  1  0  0  0  0  0999 V2000
   29.2678  -13.2339  -16.5881 C   0  0  0  0  0  0  0  0  0  0  0  0
   28.1820  -14.0663  -15.3988 S   0  0  0  0  0  0  0  0  0  0  0  0
   27.6021  -15.6324  -16.0779 C   0  0  0  0  0  0  0  0  0  0  0  0
   26.8726  -16.4236  -15.0012 C   0  0  0  0  0  0  0  0  0  0  0  0
   26.4728  -17.7549  -15.6007 C   0  0  2  0  0  0  0  0  0  0  0  0
   25.6959  -17.5688  -16.7900 N   0  0  0  0  0  0  0  0  0  0  0  0
   25.7411  -18.5877  -14.5856 C   0  0  0  0  0  0  0  0  0  0  0  0
   24.6008  -18.2342  -14.2014 O   0  0  0  0  0  0  0  0  0  0  0  0
   26.2832  -19.7581  -14.0419 N   0  0  0  0  0  0  0  0  0  0  0  0
   25.6242  -20.6845  -13.2135 C   0  0  1  0  0  0  0  0  0  0  0  0
   25.2104  -21.9903  -13.8182 C   0  0  0  0  0  0  0  0  0  0  0  0
   24.3693  -22.7443  -12.7866 C   0  0  0  0  0  0  0  0  0  0  0  0
   23.9172  -24.0330  -13.3553 C   0  0  0  0  0  0  0  0  0  0  0  0
   24.3368  -24.3833  -14.4911 O   0  0  0  0  0  0  0  0  0  0  0  0
   26.2767  -20.8965  -11.9219 C   0  0  0  0  0  0  0  0  0  0  0  0
   27.4392  -21.4066  -11.8196 O   0  0  0  0  0  0  0  0  0  0  0  0
   23.0464  -24.8295  -12.6365 O   0  0  0  0  0  0  0  0  0  0  0  0
   25.6013  -20.5235  -10.7226 N   0  0  0  0  0  0  0  0  0  0  0  0
   26.1608  -20.8827   -9.4110 C   0  0  1  0  0  0  0  0  0  0  0  0
   27.1257  -19.7896   -9.0133 C   0  0  0  0  0  0  0  0  0  0  0  0
   28.0651  -20.2042   -7.9718 C   0  0  0  0  0  0  0  0  0  0  0  0
   28.9165  -21.2803   -8.0575 C   0  0  0  0  0  0  0  0  0  0  0  0
   29.6177  -21.3511   -6.9282 N   0  0  0  0  0  0  0  0  0  0  0  0
   29.2466  -20.3455   -6.1016 C   0  0  0  0  0  0  0  0  0  0  0  0
   29.6585  -19.9738   -4.8334 C   0  0  0  0  0  0  0  0  0  0  0  0
   29.1015  -18.8813   -4.2091 C   0  0  0  0  0  0  0  0  0  0  0  0
   28.1297  -18.1607   -4.8581 C   0  0  0  0  0  0  0  0  0  0  0  0
   27.7151  -18.5128   -6.1021 C   0  0  0  0  0  0  0  0  0  0  0  0
   28.2699  -19.6078   -6.7343 C   0  0  0  0  0  0  0  0  0  0  0  0
   25.0625  -21.0740   -8.4797 C   0  0  0  0  0  0  0  0  0  0  0  0
   25.1907  -21.9043   -7.3853 O   0  0  0  0  0  0  0  0  0  0  0  0
   23.9701  -20.4846   -8.6535 O   0  0  0  0  0  0  0  0  0  0  0  0
  2  1  1  0
  3  2  1  0
  4  3  1  0
  5  4  1  0
  5  6  1  6
  7  9  1  0
  7  5  1  0
  8  7  2  0
 10  9  1  0
 10 11  1  6
 11 12  1  0
 12 13  1  0
 13 14  2  0
 13 17  1  0
 15 10  1  0
 16 15  2  0
 18 15  1  0
 19 30  1  0
 19 18  1  0
 19 20  1  1
 21 20  1  0
 21 29  1  0
 22 23  1  0
 22 21  2  0
 23 24  1  0
 24 29  2  0
 24 25  1  0
 25 26  2  0
 26 27  1  0
 28 27  2  0
 29 28  1  0
 30 31  1  0
 32 30  2  0
M  END
$$$$
