MEW.pdb
     RDKit          3D

 32 33  0  0  1  0  0  0  0  0999 V2000
   27.1583  -18.4618   -7.9000 C   0  0  0  0  0  0  0  0  0  0  0  0
   26.8986  -20.1473   -7.2853 S   0  0  0  0  0  0  0  0  0  0  0  0
   26.6413  -21.2787   -8.6652 C   0  0  0  0  0  0  0  0  0  0  0  0
   25.9608  -20.5466   -9.8133 C   0  0  0  0  0  0  0  0  0  0  0  0
   25.7393  -21.5460  -10.9285 C   0  0  2  0  0  0  0  0  0  0  0  0
   26.9869  -22.0535  -11.4171 N   0  0  0  0  0  0  0  0  0  0  0  0
   24.9226  -20.9296  -12.0296 C   0  0  0  0  0  0  0  0  0  0  0  0
   25.4752  -20.1652  -12.8561 O   0  0  0  0  0  0  0  0  0  0  0  0
   23.5522  -21.1744  -12.1764 N   0  0  0  0  0  0  0  0  0  0  0  0
   22.8131  -21.1294  -13.3724 C   0  0  1  0  0  0  0  0  0  0  0  0
   21.4898  -21.8295  -13.4016 C   0  0  0  0  0  0  0  0  0  0  0  0
   20.8131  -21.6192  -12.0459 C   0  0  0  0  0  0  0  0  0  0  0  0
   20.0007  -22.8070  -11.7028 C   0  0  0  0  0  0  0  0  0  0  0  0
   20.0615  -23.8263  -12.4417 O   0  0  0  0  0  0  0  0  0  0  0  0
   22.7033  -19.7918  -13.9535 C   0  0  0  0  0  0  0  0  0  0  0  0
   22.4842  -18.7557  -13.2459 O   0  0  0  0  0  0  0  0  0  0  0  0
   19.1915  -22.7815  -10.5829 O   0  0  0  0  0  0  0  0  0  0  0  0
   22.8449  -19.6227  -15.3624 N   0  0  0  0  0  0  0  0  0  0  0  0
   22.6629  -18.2984  -15.9749 C   0  0  1  0  0  0  0  0  0  0  0  0
   23.8079  -18.0809  -16.9370 C   0  0  0  0  0  0  0  0  0  0  0  0
   23.6989  -16.8290  -17.6853 C   0  0  0  0  0  0  0  0  0  0  0  0
   23.9024  -15.5742  -17.1615 C   0  0  0  0  0  0  0  0  0  0  0  0
   23.7175  -14.6804  -18.1305 N   0  0  0  0  0  0  0  0  0  0  0  0
   23.3970  -15.3193  -19.2801 C   0  0  0  0  0  0  0  0  0  0  0  0
   23.1117  -14.8661  -20.5565 C   0  0  0  0  0  0  0  0  0  0  0  0
   22.8126  -15.7546  -21.5637 C   0  0  0  0  0  0  0  0  0  0  0  0
   22.7997  -17.0999  -21.2900 C   0  0  0  0  0  0  0  0  0  0  0  0
   23.0773  -17.5598  -20.0431 C   0  0  0  0  0  0  0  0  0  0  0  0
   23.3783  -16.6737  -19.0278 C   0  0  0  0  0  0  0  0  0  0  0  0
   21.3496  -18.2551  -16.5942 C   0  0  0  0  0  0  0  0  0  0  0  0
   20.6033  -17.0948  -16.6053 O   0  0  0  0  0  0  0  0  0  0  0  0
   20.8660  -19.2777  -17.1340 O   0  0  0  0  0  0  0  0  0  0  0  0
  2  1  1  0
  3  2  1  0
  4  3  1  0
  5  4  1  0
  5  6  1  6
  7  9  1  0
  7  5  1  0
  8  7  2  0
 10  9  1  0
 10 11  1  1
 11 12  1  0
 12 13  1  0
 13 14  2  0
 13 17  1  0
 15 10  1  0
 16 15  2  0
 18 15  1  0
 19 30  1  0
 19 18  1  0
 19 20  1  6
 21 20  1  0
 21 29  1  0
 22 23  1  0
 22 21  2  0
 23 24  1  0
 24 29  2  0
 24 25  1  0
 25 26  2  0
 26 27  1  0
 28 27  2  0
 29 28  1  0
 30 31  1  0
 32 30  2  0
M  END
$$$$
