MEW.pdb
     RDKit          3D

 32 33  0  0  1  0  0  0  0  0999 V2000
   28.5849  -20.0958  -21.6312 C   0  0  0  0  0  0  0  0  0  0  0  0
   27.4133  -20.8774  -20.4899 S   0  0  0  0  0  0  0  0  0  0  0  0
   27.0019  -19.7439  -19.1497 C   0  0  0  0  0  0  0  0  0  0  0  0
   25.9526  -20.3738  -18.2444 C   0  0  0  0  0  0  0  0  0  0  0  0
   25.5842  -19.3533  -17.1888 C   0  0  2  0  0  0  0  0  0  0  0  0
   26.7536  -18.7116  -16.6660 N   0  0  0  0  0  0  0  0  0  0  0  0
   24.7715  -19.9963  -16.0999 C   0  0  0  0  0  0  0  0  0  0  0  0
   23.8059  -20.7366  -16.4037 O   0  0  0  0  0  0  0  0  0  0  0  0
   25.0485  -19.8033  -14.7415 N   0  0  0  0  0  0  0  0  0  0  0  0
   24.2907  -20.2731  -13.6535 C   0  0  1  0  0  0  0  0  0  0  0  0
   24.8904  -20.1625  -12.2859 C   0  0  0  0  0  0  0  0  0  0  0  0
   23.9787  -20.9055  -11.3077 C   0  0  0  0  0  0  0  0  0  0  0  0
   24.5612  -20.8607   -9.9485 C   0  0  0  0  0  0  0  0  0  0  0  0
   25.6604  -20.2699   -9.7712 O   0  0  0  0  0  0  0  0  0  0  0  0
   22.9044  -19.8074  -13.6492 C   0  0  0  0  0  0  0  0  0  0  0  0
   22.5911  -18.5974  -13.4042 O   0  0  0  0  0  0  0  0  0  0  0  0
   23.8948  -21.4639   -8.8990 O   0  0  0  0  0  0  0  0  0  0  0  0
   21.8518  -20.7281  -13.9285 N   0  0  0  0  0  0  0  0  0  0  0  0
   20.4495  -20.2865  -13.8988 C   0  0  1  0  0  0  0  0  0  0  0  0
   19.8804  -20.4858  -15.2845 C   0  0  0  0  0  0  0  0  0  0  0  0
   19.9463  -19.2808  -16.1109 C   0  0  0  0  0  0  0  0  0  0  0  0
   21.0185  -18.4226  -16.1736 C   0  0  0  0  0  0  0  0  0  0  0  0
   20.7221  -17.4428  -17.0246 N   0  0  0  0  0  0  0  0  0  0  0  0
   19.4787  -17.6375  -17.5231 C   0  0  0  0  0  0  0  0  0  0  0  0
   18.7090  -16.9260  -18.4271 C   0  0  0  0  0  0  0  0  0  0  0  0
   17.4478  -17.3598  -18.7659 C   0  0  0  0  0  0  0  0  0  0  0  0
   16.9582  -18.5092  -18.1967 C   0  0  0  0  0  0  0  0  0  0  0  0
   17.7010  -19.2179  -17.3085 C   0  0  0  0  0  0  0  0  0  0  0  0
   18.9673  -18.7883  -16.9642 C   0  0  0  0  0  0  0  0  0  0  0  0
   19.7564  -21.0273  -12.8592 C   0  0  0  0  0  0  0  0  0  0  0  0
   19.9631  -22.3806  -12.6880 O   0  0  0  0  0  0  0  0  0  0  0  0
   18.9519  -20.4476  -12.0925 O   0  0  0  0  0  0  0  0  0  0  0  0
  2  1  1  0
  3  2  1  0
  4  3  1  0
  5  4  1  0
  5  6  1  1
  7  9  1  0
  7  5  1  0
  8  7  2  0
 10  9  1  0
 10 11  1  1
 11 12  1  0
 12 13  1  0
 13 14  2  0
 13 17  1  0
 15 10  1  0
 16 15  2  0
 18 15  1  0
 19 30  1  0
 19 18  1  0
 19 20  1  6
 21 20  1  0
 21 29  1  0
 22 23  1  0
 22 21  2  0
 23 24  1  0
 24 29  2  0
 24 25  1  0
 25 26  2  0
 26 27  1  0
 28 27  2  0
 29 28  1  0
 30 31  1  0
 32 30  2  0
M  END
$$$$
