MEK.pdb
     RDKit          3D

 27 26  0  0  1  0  0  0  0  0999 V2000
   13.9890  -12.4238  -17.3832 C   0  0  0  0  0  0  0  0  0  0  0  0
   14.0641  -11.7364  -15.6902 S   0  0  0  0  0  0  0  0  0  0  0  0
   15.7046  -10.9525  -15.5399 C   0  0  0  0  0  0  0  0  0  0  0  0
   15.8656  -10.3398  -14.1793 C   0  0  0  0  0  0  0  0  0  0  0  0
   17.2450   -9.7195  -14.0725 C   0  0  2  0  0  0  0  0  0  0  0  0
   18.2209  -10.8264  -14.0136 N   0  0  0  0  0  0  0  0  0  0  0  0
   17.4187   -8.9080  -12.8291 C   0  0  0  0  0  0  0  0  0  0  0  0
   17.2897   -9.4834  -11.6965 O   0  0  0  0  0  0  0  0  0  0  0  0
   17.7205   -7.5346  -12.8372 N   0  0  0  0  0  0  0  0  0  0  0  0
   18.0666   -6.7309  -11.6635 C   0  0  1  0  0  0  0  0  0  0  0  0
   19.2400   -5.8516  -12.0110 C   0  0  0  0  0  0  0  0  0  0  0  0
   20.5615   -6.5289  -12.0611 C   0  0  0  0  0  0  0  0  0  0  0  0
   21.5904   -5.4447  -12.2075 C   0  0  0  0  0  0  0  0  0  0  0  0
   21.4585   -4.5091  -13.0124 O   0  0  0  0  0  0  0  0  0  0  0  0
   16.8712   -5.9650  -11.2600 C   0  0  0  0  0  0  0  0  0  0  0  0
   16.0298   -5.5466  -12.1347 O   0  0  0  0  0  0  0  0  0  0  0  0
   22.7175   -5.5205  -11.4002 O   0  0  0  0  0  0  0  0  0  0  0  0
   16.5144   -5.6161   -9.9336 N   0  0  0  0  0  0  0  0  0  0  0  0
   15.3450   -4.8146   -9.6273 C   0  0  1  0  0  0  0  0  0  0  0  0
   14.7415   -5.1939   -8.2952 C   0  0  0  0  0  0  0  0  0  0  0  0
   13.5173   -4.4239   -7.9211 C   0  0  0  0  0  0  0  0  0  0  0  0
   13.1239   -4.8872   -6.5167 C   0  0  0  0  0  0  0  0  0  0  0  0
   11.8046   -4.2268   -6.1150 C   0  0  0  0  0  0  0  0  0  0  0  0
   11.4670   -4.7302   -4.7983 N   0  0  0  0  0  0  0  0  0  0  0  0
   15.6920   -3.3859   -9.7100 C   0  0  0  0  0  0  0  0  0  0  0  0
   14.8006   -2.3754  -10.0329 O   0  0  0  0  0  0  0  0  0  0  0  0
   16.8731   -3.0227   -9.4769 O   0  0  0  0  0  0  0  0  0  0  0  0
  2  1  1  0
  3  2  1  0
  4  3  1  0
  5  4  1  0
  5  6  1  1
  7  8  2  0
  7  5  1  0
  9  7  1  0
 10  9  1  0
 11 12  1  0
 10 11  1  6
 13 14  2  0
 13 12  1  0
 15 10  1  0
 15 16  2  0
 17 13  1  0
 18 15  1  0
 19 20  1  1
 19 18  1  0
 21 20  1  0
 22 21  1  0
 23 22  1  0
 23 24  1  0
 25 19  1  0
 26 25  1  0
 27 25  2  0
M  END
$$$$
