MEK.pdb
     RDKit          3D

 27 26  0  0  1  0  0  0  0  0999 V2000
   26.9854  -18.4153   -7.1480 C   0  0  0  0  0  0  0  0  0  0  0  0
   27.5110  -20.1027   -6.6779 S   0  0  0  0  0  0  0  0  0  0  0  0
   27.1181  -21.1664   -8.1071 C   0  0  0  0  0  0  0  0  0  0  0  0
   26.2405  -20.4309   -9.0772 C   0  0  0  0  0  0  0  0  0  0  0  0
   25.8989  -21.3489  -10.2347 C   0  0  2  0  0  0  0  0  0  0  0  0
   27.1737  -21.8285  -10.8057 N   0  0  0  0  0  0  0  0  0  0  0  0
   25.1584  -20.6486  -11.3283 C   0  0  0  0  0  0  0  0  0  0  0  0
   24.0400  -20.0952  -11.0569 O   0  0  0  0  0  0  0  0  0  0  0  0
   25.6295  -20.5632  -12.6504 N   0  0  0  0  0  0  0  0  0  0  0  0
   24.9289  -19.9234  -13.7654 C   0  0  1  0  0  0  0  0  0  0  0  0
   25.8611  -19.8613  -14.9477 C   0  0  0  0  0  0  0  0  0  0  0  0
   25.2824  -19.3035  -16.1973 C   0  0  0  0  0  0  0  0  0  0  0  0
   26.3991  -19.2584  -17.2006 C   0  0  0  0  0  0  0  0  0  0  0  0
   26.5002  -20.0874  -18.1188 O   0  0  0  0  0  0  0  0  0  0  0  0
   23.6994  -20.6925  -14.0399 C   0  0  0  0  0  0  0  0  0  0  0  0
   23.5554  -21.8873  -13.5932 O   0  0  0  0  0  0  0  0  0  0  0  0
   27.3355  -18.2417  -17.0687 O   0  0  0  0  0  0  0  0  0  0  0  0
   22.5818  -20.2383  -14.7836 N   0  0  0  0  0  0  0  0  0  0  0  0
   21.2558  -20.8027  -14.6192 C   0  0  1  0  0  0  0  0  0  0  0  0
   20.8062  -20.7610  -13.1775 C   0  0  0  0  0  0  0  0  0  0  0  0
   20.4852  -22.0935  -12.5836 C   0  0  0  0  0  0  0  0  0  0  0  0
   19.0282  -22.0241  -12.1205 C   0  0  0  0  0  0  0  0  0  0  0  0
   18.6361  -23.3544  -11.4765 C   0  0  0  0  0  0  0  0  0  0  0  0
   18.9321  -23.2394  -10.0622 N   0  0  0  0  0  0  0  0  0  0  0  0
   20.3165  -20.1259  -15.5292 C   0  0  0  0  0  0  0  0  0  0  0  0
   20.2566  -18.7555  -15.7242 O   0  0  0  0  0  0  0  0  0  0  0  0
   19.4965  -20.8114  -16.1919 O   0  0  0  0  0  0  0  0  0  0  0  0
  2  1  1  0
  3  2  1  0
  4  3  1  0
  5  4  1  0
  5  6  1  6
  7  8  2  0
  7  5  1  0
  9  7  1  0
 10  9  1  0
 11 12  1  0
 10 11  1  6
 13 14  2  0
 13 12  1  0
 15 10  1  0
 15 16  2  0
 17 13  1  0
 18 15  1  0
 19 20  1  1
 19 18  1  0
 21 20  1  0
 22 21  1  0
 23 22  1  0
 23 24  1  0
 25 19  1  0
 26 25  1  0
 27 25  2  0
M  END
$$$$
