MEK.pdb
     RDKit          3D

 27 26  0  0  1  0  0  0  0  0999 V2000
   23.3992  -31.2062   -7.9864 C   0  0  0  0  0  0  0  0  0  0  0  0
   24.8986  -31.4044   -9.0144 S   0  0  0  0  0  0  0  0  0  0  0  0
   25.2623  -33.1922   -9.0308 C   0  0  0  0  0  0  0  0  0  0  0  0
   26.6339  -33.4388   -9.5877 C   0  0  0  0  0  0  0  0  0  0  0  0
   26.8998  -34.9313   -9.6139 C   0  0  2  0  0  0  0  0  0  0  0  0
   25.8825  -35.5432  -10.4924 N   0  0  0  0  0  0  0  0  0  0  0  0
   26.7632  -35.5662   -8.2674 C   0  0  0  0  0  0  0  0  0  0  0  0
   25.6086  -35.9562   -7.8860 O   0  0  0  0  0  0  0  0  0  0  0  0
   27.8448  -35.7610   -7.3904 N   0  0  0  0  0  0  0  0  0  0  0  0
   27.7590  -36.3292   -6.0438 C   0  0  1  0  0  0  0  0  0  0  0  0
   29.1292  -36.8027   -5.6328 C   0  0  0  0  0  0  0  0  0  0  0  0
   29.2377  -37.3459   -4.2541 C   0  0  0  0  0  0  0  0  0  0  0  0
   30.6869  -37.6764   -4.0395 C   0  0  0  0  0  0  0  0  0  0  0  0
   31.4322  -36.9708   -3.3415 O   0  0  0  0  0  0  0  0  0  0  0  0
   27.2104  -35.2977   -5.1419 C   0  0  0  0  0  0  0  0  0  0  0  0
   27.5988  -34.0768   -5.2229 O   0  0  0  0  0  0  0  0  0  0  0  0
   31.1801  -38.8178   -4.6576 O   0  0  0  0  0  0  0  0  0  0  0  0
   26.2379  -35.5062   -4.1324 N   0  0  0  0  0  0  0  0  0  0  0  0
   25.6746  -34.4173   -3.3573 C   0  0  1  0  0  0  0  0  0  0  0  0
   24.3201  -34.7762   -2.7926 C   0  0  0  0  0  0  0  0  0  0  0  0
   23.6779  -33.7022   -1.9767 C   0  0  0  0  0  0  0  0  0  0  0  0
   22.2947  -34.2241   -1.5815 C   0  0  0  0  0  0  0  0  0  0  0  0
   21.5519  -33.1462   -0.7913 C   0  0  0  0  0  0  0  0  0  0  0  0
   20.2096  -33.6432   -0.5630 N   0  0  0  0  0  0  0  0  0  0  0  0
   26.6339  -34.0042   -2.3192 C   0  0  0  0  0  0  0  0  0  0  0  0
   26.7665  -32.7119   -1.8374 O   0  0  0  0  0  0  0  0  0  0  0  0
   27.4026  -34.8608   -1.8127 O   0  0  0  0  0  0  0  0  0  0  0  0
  2  1  1  0
  3  2  1  0
  4  3  1  0
  5  4  1  0
  5  6  1  6
  7  8  2  0
  7  5  1  0
  9  7  1  0
 10  9  1  0
 11 12  1  0
 10 11  1  1
 13 14  2  0
 13 12  1  0
 15 10  1  0
 15 16  2  0
 17 13  1  0
 18 15  1  0
 19 20  1  1
 19 18  1  0
 21 20  1  0
 22 21  1  0
 23 22  1  0
 23 24  1  0
 25 19  1  0
 26 25  1  0
 27 25  2  0
M  END
$$$$
