MEK.pdb
     RDKit          3D

 27 26  0  0  1  0  0  0  0  0999 V2000
   20.0882  -19.4513   -9.1705 C   0  0  0  0  0  0  0  0  0  0  0  0
   19.7959  -19.7576  -10.9496 S   0  0  0  0  0  0  0  0  0  0  0  0
   19.8000  -21.5706  -11.1533 C   0  0  0  0  0  0  0  0  0  0  0  0
   20.2310  -22.2362   -9.8791 C   0  0  0  0  0  0  0  0  0  0  0  0
   20.1255  -23.7399  -10.0423 C   0  0  2  0  0  0  0  0  0  0  0  0
   19.8991  -24.0112  -11.4763 N   0  0  0  0  0  0  0  0  0  0  0  0
   18.9708  -24.3227   -9.2927 C   0  0  0  0  0  0  0  0  0  0  0  0
   17.9249  -24.6622   -9.9419 O   0  0  0  0  0  0  0  0  0  0  0  0
   18.9728  -24.5211   -7.9007 N   0  0  0  0  0  0  0  0  0  0  0  0
   17.8371  -24.9905   -7.1048 C   0  0  1  0  0  0  0  0  0  0  0  0
   18.2766  -25.1216   -5.6694 C   0  0  0  0  0  0  0  0  0  0  0  0
   17.2171  -25.5107   -4.7030 C   0  0  0  0  0  0  0  0  0  0  0  0
   17.7464  -26.6940   -3.9445 C   0  0  0  0  0  0  0  0  0  0  0  0
   18.9203  -27.0818   -4.0547 O   0  0  0  0  0  0  0  0  0  0  0  0
   16.7239  -24.0379   -7.2827 C   0  0  0  0  0  0  0  0  0  0  0  0
   16.9410  -22.7742   -7.3458 O   0  0  0  0  0  0  0  0  0  0  0  0
   16.8665  -27.3561   -3.0988 O   0  0  0  0  0  0  0  0  0  0  0  0
   15.3524  -24.3733   -7.4046 N   0  0  0  0  0  0  0  0  0  0  0  0
   14.3179  -23.3709   -7.5745 C   0  0  1  0  0  0  0  0  0  0  0  0
   13.4322  -23.6779   -8.7592 C   0  0  0  0  0  0  0  0  0  0  0  0
   12.2818  -22.7421   -8.9393 C   0  0  0  0  0  0  0  0  0  0  0  0
   11.4919  -23.2507  -10.1473 C   0  0  0  0  0  0  0  0  0  0  0  0
   10.3866  -22.2508  -10.4888 C   0  0  0  0  0  0  0  0  0  0  0  0
    9.5939  -22.8464  -11.5461 N   0  0  0  0  0  0  0  0  0  0  0  0
   13.5616  -23.2266   -6.3192 C   0  0  0  0  0  0  0  0  0  0  0  0
   12.7458  -22.1503   -6.0095 O   0  0  0  0  0  0  0  0  0  0  0  0
   13.6394  -24.1265   -5.4444 O   0  0  0  0  0  0  0  0  0  0  0  0
  2  1  1  0
  3  2  1  0
  4  3  1  0
  5  4  1  0
  5  6  1  6
  7  8  2  0
  7  5  1  0
  9  7  1  0
 10  9  1  0
 11 12  1  0
 10 11  1  1
 13 14  2  0
 13 12  1  0
 15 10  1  0
 15 16  2  0
 17 13  1  0
 18 15  1  0
 19 20  1  6
 19 18  1  0
 21 20  1  0
 22 21  1  0
 23 22  1  0
 23 24  1  0
 25 19  1  0
 26 25  1  0
 27 25  2  0
M  END
$$$$
