MEK.pdb
     RDKit          3D

 27 26  0  0  1  0  0  0  0  0999 V2000
   16.8527  -15.3615  -14.4273 C   0  0  0  0  0  0  0  0  0  0  0  0
   17.2449  -15.9397  -16.1173 S   0  0  0  0  0  0  0  0  0  0  0  0
   17.8192  -14.4680  -17.0300 C   0  0  0  0  0  0  0  0  0  0  0  0
   18.7109  -13.6316  -16.1597 C   0  0  0  0  0  0  0  0  0  0  0  0
   19.2227  -12.4503  -16.9608 C   0  0  2  0  0  0  0  0  0  0  0  0
   20.0117  -12.9914  -18.0858 N   0  0  0  0  0  0  0  0  0  0  0  0
   20.1295  -11.5644  -16.1685 C   0  0  0  0  0  0  0  0  0  0  0  0
   19.6762  -11.0076  -15.1124 O   0  0  0  0  0  0  0  0  0  0  0  0
   21.4659  -11.3089  -16.5234 N   0  0  0  0  0  0  0  0  0  0  0  0
   22.4015  -10.4689  -15.7736 C   0  0  1  0  0  0  0  0  0  0  0  0
   23.8050  -10.8092  -16.2036 C   0  0  0  0  0  0  0  0  0  0  0  0
   24.3501  -12.0866  -15.6754 C   0  0  0  0  0  0  0  0  0  0  0  0
   25.7123  -12.2530  -16.2856 C   0  0  0  0  0  0  0  0  0  0  0  0
   26.1820  -11.4358  -17.0931 O   0  0  0  0  0  0  0  0  0  0  0  0
   22.0501   -9.0562  -16.0169 C   0  0  0  0  0  0  0  0  0  0  0  0
   22.0364   -8.5756  -17.2072 O   0  0  0  0  0  0  0  0  0  0  0  0
   26.4467  -13.3709  -15.9132 O   0  0  0  0  0  0  0  0  0  0  0  0
   21.6981   -8.1036  -15.0284 N   0  0  0  0  0  0  0  0  0  0  0  0
   21.3343   -6.7386  -15.3573 C   0  0  1  0  0  0  0  0  0  0  0  0
   19.9022   -6.6405  -15.8283 C   0  0  0  0  0  0  0  0  0  0  0  0
   19.4413   -5.2553  -16.1452 C   0  0  0  0  0  0  0  0  0  0  0  0
   17.9748   -5.3703  -16.5670 C   0  0  0  0  0  0  0  0  0  0  0  0
   17.4674   -4.0004  -17.0186 C   0  0  0  0  0  0  0  0  0  0  0  0
   16.1259   -4.1977  -17.5310 N   0  0  0  0  0  0  0  0  0  0  0  0
   21.6176   -5.8630  -14.2077 C   0  0  0  0  0  0  0  0  0  0  0  0
   22.0419   -6.3056  -12.9652 O   0  0  0  0  0  0  0  0  0  0  0  0
   21.4744   -4.6196  -14.3284 O   0  0  0  0  0  0  0  0  0  0  0  0
  2  1  1  0
  3  2  1  0
  4  3  1  0
  5  4  1  0
  5  6  1  6
  7  8  2  0
  7  5  1  0
  9  7  1  0
 10  9  1  0
 11 12  1  0
 10 11  1  6
 13 14  2  0
 13 12  1  0
 15 10  1  0
 15 16  2  0
 17 13  1  0
 18 15  1  0
 19 20  1  1
 19 18  1  0
 21 20  1  0
 22 21  1  0
 23 22  1  0
 23 24  1  0
 25 19  1  0
 26 25  1  0
 27 25  2  0
M  END
$$$$
