MEK.pdb
     RDKit          3D

 27 26  0  0  1  0  0  0  0  0999 V2000
   27.3388  -18.9814   -7.3247 C   0  0  0  0  0  0  0  0  0  0  0  0
   28.4375  -20.4019   -7.6706 S   0  0  0  0  0  0  0  0  0  0  0  0
   27.8564  -21.1127   -9.2472 C   0  0  0  0  0  0  0  0  0  0  0  0
   26.4121  -20.7717   -9.4705 C   0  0  0  0  0  0  0  0  0  0  0  0
   25.8959  -21.5487  -10.6659 C   0  0  2  0  0  0  0  0  0  0  0  0
   26.9096  -21.4357  -11.7340 N   0  0  0  0  0  0  0  0  0  0  0  0
   24.6174  -20.9943  -11.2069 C   0  0  0  0  0  0  0  0  0  0  0  0
   23.6252  -20.8527  -10.4157 O   0  0  0  0  0  0  0  0  0  0  0  0
   24.4453  -20.6153  -12.5500 N   0  0  0  0  0  0  0  0  0  0  0  0
   23.2013  -20.1226  -13.1442 C   0  0  1  0  0  0  0  0  0  0  0  0
   23.4587  -19.7856  -14.5901 C   0  0  0  0  0  0  0  0  0  0  0  0
   22.2772  -19.3288  -15.3667 C   0  0  0  0  0  0  0  0  0  0  0  0
   22.7808  -18.9661  -16.7343 C   0  0  0  0  0  0  0  0  0  0  0  0
   22.1128  -19.1640  -17.7615 O   0  0  0  0  0  0  0  0  0  0  0  0
   22.1644  -21.1583  -12.9689 C   0  0  0  0  0  0  0  0  0  0  0  0
   22.3759  -22.3713  -13.3322 O   0  0  0  0  0  0  0  0  0  0  0  0
   24.0419  -18.3913  -16.8189 O   0  0  0  0  0  0  0  0  0  0  0  0
   20.8786  -20.9624  -12.4061 N   0  0  0  0  0  0  0  0  0  0  0  0
   19.9404  -22.0511  -12.2103 C   0  0  1  0  0  0  0  0  0  0  0  0
   19.7575  -22.3739  -10.7459 C   0  0  0  0  0  0  0  0  0  0  0  0
   18.8496  -23.5273  -10.4682 C   0  0  0  0  0  0  0  0  0  0  0  0
   18.9274  -23.7898   -8.9626 C   0  0  0  0  0  0  0  0  0  0  0  0
   18.1294  -25.0497   -8.6249 C   0  0  0  0  0  0  0  0  0  0  0  0
   18.3041  -25.2894   -7.2061 N   0  0  0  0  0  0  0  0  0  0  0  0
   18.6715  -21.7351  -12.8874 C   0  0  0  0  0  0  0  0  0  0  0  0
   17.7071  -22.6688  -13.2308 O   0  0  0  0  0  0  0  0  0  0  0  0
   18.4133  -20.5421  -13.1898 O   0  0  0  0  0  0  0  0  0  0  0  0
  2  1  1  0
  3  2  1  0
  4  3  1  0
  5  4  1  0
  5  6  1  6
  7  8  2  0
  7  5  1  0
  9  7  1  0
 10  9  1  0
 11 12  1  0
 10 11  1  6
 13 14  2  0
 13 12  1  0
 15 10  1  0
 15 16  2  0
 17 13  1  0
 18 15  1  0
 19 20  1  1
 19 18  1  0
 21 20  1  0
 22 21  1  0
 23 22  1  0
 23 24  1  0
 25 19  1  0
 26 25  1  0
 27 25  2  0
M  END
$$$$
