MEK.pdb
     RDKit          3D

 27 26  0  0  1  0  0  0  0  0999 V2000
   29.9503  -23.1171  -16.6659 C   0  0  0  0  0  0  0  0  0  0  0  0
   29.6864  -21.7517  -17.8536 S   0  0  0  0  0  0  0  0  0  0  0  0
   28.6684  -20.5161  -16.9787 C   0  0  0  0  0  0  0  0  0  0  0  0
   27.5434  -21.1911  -16.2499 C   0  0  0  0  0  0  0  0  0  0  0  0
   26.6805  -20.1386  -15.5817 C   0  0  2  0  0  0  0  0  0  0  0  0
   27.5294  -19.4327  -14.6008 N   0  0  0  0  0  0  0  0  0  0  0  0
   25.5297  -20.7269  -14.8305 C   0  0  0  0  0  0  0  0  0  0  0  0
   24.6797  -21.4373  -15.4656 O   0  0  0  0  0  0  0  0  0  0  0  0
   25.3300  -20.5412  -13.4510 N   0  0  0  0  0  0  0  0  0  0  0  0
   24.1994  -21.0560  -12.6763 C   0  0  1  0  0  0  0  0  0  0  0  0
   24.4850  -20.8481  -11.2115 C   0  0  0  0  0  0  0  0  0  0  0  0
   25.7802  -21.3884  -10.7234 C   0  0  0  0  0  0  0  0  0  0  0  0
   25.9017  -20.9698   -9.2862 C   0  0  0  0  0  0  0  0  0  0  0  0
   26.9455  -20.4840   -8.8225 O   0  0  0  0  0  0  0  0  0  0  0  0
   22.9766  -20.3647  -13.1296 C   0  0  0  0  0  0  0  0  0  0  0  0
   22.9531  -19.0886  -13.2672 O   0  0  0  0  0  0  0  0  0  0  0  0
   24.7898  -21.1460   -8.4735 O   0  0  0  0  0  0  0  0  0  0  0  0
   21.7438  -20.9822  -13.4571 N   0  0  0  0  0  0  0  0  0  0  0  0
   20.5970  -20.2295  -13.9283 C   0  0  1  0  0  0  0  0  0  0  0  0
   20.4862  -20.2655  -15.4345 C   0  0  0  0  0  0  0  0  0  0  0  0
   21.0499  -19.0708  -16.1320 C   0  0  0  0  0  0  0  0  0  0  0  0
   20.8493  -19.3068  -17.6307 C   0  0  0  0  0  0  0  0  0  0  0  0
   21.3887  -18.1071  -18.4104 C   0  0  0  0  0  0  0  0  0  0  0  0
   21.1925  -18.3979  -19.8167 N   0  0  0  0  0  0  0  0  0  0  0  0
   19.3801  -20.7137  -13.2552 C   0  0  0  0  0  0  0  0  0  0  0  0
   18.2266  -19.9667  -13.0782 O   0  0  0  0  0  0  0  0  0  0  0  0
   19.3522  -21.8842  -12.7966 O   0  0  0  0  0  0  0  0  0  0  0  0
  2  1  1  0
  3  2  1  0
  4  3  1  0
  5  4  1  0
  5  6  1  1
  7  8  2  0
  7  5  1  0
  9  7  1  0
 10  9  1  0
 11 12  1  0
 10 11  1  1
 13 14  2  0
 13 12  1  0
 15 10  1  0
 15 16  2  0
 17 13  1  0
 18 15  1  0
 19 20  1  6
 19 18  1  0
 21 20  1  0
 22 21  1  0
 23 22  1  0
 23 24  1  0
 25 19  1  0
 26 25  1  0
 27 25  2  0
M  END
$$$$
