MEK.pdb
     RDKit          3D

 27 26  0  0  1  0  0  0  0  0999 V2000
   17.0695  -16.7593  -16.1758 C   0  0  0  0  0  0  0  0  0  0  0  0
   17.0866  -15.6231  -14.7428 S   0  0  0  0  0  0  0  0  0  0  0  0
   16.1998  -14.1227  -15.2821 C   0  0  0  0  0  0  0  0  0  0  0  0
   16.3158  -13.0477  -14.2414 C   0  0  0  0  0  0  0  0  0  0  0  0
   15.5901  -11.8069  -14.7241 C   0  0  2  0  0  0  0  0  0  0  0  0
   15.8291  -11.6958  -16.1772 N   0  0  0  0  0  0  0  0  0  0  0  0
   16.1055  -10.5538  -14.0925 C   0  0  0  0  0  0  0  0  0  0  0  0
   16.0405  -10.4336  -12.8229 O   0  0  0  0  0  0  0  0  0  0  0  0
   16.6643   -9.4914  -14.8248 N   0  0  0  0  0  0  0  0  0  0  0  0
   17.0345   -8.1833  -14.2815 C   0  0  1  0  0  0  0  0  0  0  0  0
   17.8309   -7.4380  -15.3211 C   0  0  0  0  0  0  0  0  0  0  0  0
   18.3007   -6.0847  -14.9267 C   0  0  0  0  0  0  0  0  0  0  0  0
   19.0858   -5.5506  -16.0902 C   0  0  0  0  0  0  0  0  0  0  0  0
   19.2701   -6.2104  -17.1253 O   0  0  0  0  0  0  0  0  0  0  0  0
   15.7977   -7.4801  -13.8886 C   0  0  0  0  0  0  0  0  0  0  0  0
   14.7391   -7.5542  -14.6110 O   0  0  0  0  0  0  0  0  0  0  0  0
   19.6113   -4.2708  -15.9726 O   0  0  0  0  0  0  0  0  0  0  0  0
   15.6255   -6.6829  -12.7296 N   0  0  0  0  0  0  0  0  0  0  0  0
   14.4091   -5.9359  -12.4723 C   0  0  1  0  0  0  0  0  0  0  0  0
   13.8654   -6.2135  -11.0904 C   0  0  0  0  0  0  0  0  0  0  0  0
   12.6758   -5.3938  -10.7099 C   0  0  0  0  0  0  0  0  0  0  0  0
   12.2939   -5.8144   -9.2890 C   0  0  0  0  0  0  0  0  0  0  0  0
   11.1043   -4.9790   -8.8146 C   0  0  0  0  0  0  0  0  0  0  0  0
   10.8460   -5.3592   -7.4399 N   0  0  0  0  0  0  0  0  0  0  0  0
   14.6509   -4.5034  -12.7128 C   0  0  0  0  0  0  0  0  0  0  0  0
   15.8967   -3.9415  -12.9413 O   0  0  0  0  0  0  0  0  0  0  0  0
   13.6792   -3.7053  -12.7176 O   0  0  0  0  0  0  0  0  0  0  0  0
  2  1  1  0
  3  2  1  0
  4  3  1  0
  5  4  1  0
  5  6  1  6
  7  8  2  0
  7  5  1  0
  9  7  1  0
 10  9  1  0
 11 12  1  0
 10 11  1  6
 13 14  2  0
 13 12  1  0
 15 10  1  0
 15 16  2  0
 17 13  1  0
 18 15  1  0
 19 20  1  1
 19 18  1  0
 21 20  1  0
 22 21  1  0
 23 22  1  0
 23 24  1  0
 25 19  1  0
 26 25  1  0
 27 25  2  0
M  END
$$$$
