MEK.pdb
     RDKit          3D

 27 26  0  0  1  0  0  0  0  0999 V2000
   18.0500  -10.8587  -21.1095 C   0  0  0  0  0  0  0  0  0  0  0  0
   18.0248  -12.5234  -20.3529 S   0  0  0  0  0  0  0  0  0  0  0  0
   19.2100  -12.4623  -18.9673 C   0  0  0  0  0  0  0  0  0  0  0  0
   18.7475  -11.4811  -17.9302 C   0  0  0  0  0  0  0  0  0  0  0  0
   19.7810  -11.4017  -16.8236 C   0  0  2  0  0  0  0  0  0  0  0  0
   19.7981  -12.7128  -16.1440 N   0  0  0  0  0  0  0  0  0  0  0  0
   19.4462  -10.3720  -15.7930 C   0  0  0  0  0  0  0  0  0  0  0  0
   18.5895  -10.6607  -14.8911 O   0  0  0  0  0  0  0  0  0  0  0  0
   20.0281   -9.0923  -15.7601 N   0  0  0  0  0  0  0  0  0  0  0  0
   19.6989   -8.0303  -14.8077 C   0  0  1  0  0  0  0  0  0  0  0  0
   20.9389   -7.2141  -14.5491 C   0  0  0  0  0  0  0  0  0  0  0  0
   20.7657   -6.0444  -13.6493 C   0  0  0  0  0  0  0  0  0  0  0  0
   22.1218   -5.4159  -13.5022 C   0  0  0  0  0  0  0  0  0  0  0  0
   22.3865   -4.2937  -13.9615 O   0  0  0  0  0  0  0  0  0  0  0  0
   18.5906   -7.2338  -15.3696 C   0  0  0  0  0  0  0  0  0  0  0  0
   18.5716   -6.9156  -16.6132 O   0  0  0  0  0  0  0  0  0  0  0  0
   23.0919   -6.1416  -12.8238 O   0  0  0  0  0  0  0  0  0  0  0  0
   17.4673   -6.7492  -14.6543 N   0  0  0  0  0  0  0  0  0  0  0  0
   16.3932   -6.0154  -15.2959 C   0  0  1  0  0  0  0  0  0  0  0  0
   15.0365   -6.5282  -14.8731 C   0  0  0  0  0  0  0  0  0  0  0  0
   13.8780   -5.8056  -15.4791 C   0  0  0  0  0  0  0  0  0  0  0  0
   12.6158   -6.5206  -14.9917 C   0  0  0  0  0  0  0  0  0  0  0  0
   11.3893   -5.8971  -15.6587 C   0  0  0  0  0  0  0  0  0  0  0  0
   10.2676   -6.7700  -15.3744 N   0  0  0  0  0  0  0  0  0  0  0  0
   16.5621   -4.5745  -15.0437 C   0  0  0  0  0  0  0  0  0  0  0  0
   16.3049   -3.5764  -15.9697 O   0  0  0  0  0  0  0  0  0  0  0  0
   16.9673   -4.1879  -13.9178 O   0  0  0  0  0  0  0  0  0  0  0  0
  2  1  1  0
  3  2  1  0
  4  3  1  0
  5  4  1  0
  5  6  1  1
  7  8  2  0
  7  5  1  0
  9  7  1  0
 10  9  1  0
 11 12  1  0
 10 11  1  6
 13 14  2  0
 13 12  1  0
 15 10  1  0
 15 16  2  0
 17 13  1  0
 18 15  1  0
 19 20  1  1
 19 18  1  0
 21 20  1  0
 22 21  1  0
 23 22  1  0
 23 24  1  0
 25 19  1  0
 26 25  1  0
 27 25  2  0
M  END
$$$$
