MEK.pdb
     RDKit          3D

 27 26  0  0  1  0  0  0  0  0999 V2000
   23.1972  -14.9426  -22.3452 C   0  0  0  0  0  0  0  0  0  0  0  0
   21.9051  -14.0421  -21.4156 S   0  0  0  0  0  0  0  0  0  0  0  0
   22.6779  -13.5405  -19.8410 C   0  0  0  0  0  0  0  0  0  0  0  0
   21.7277  -12.6993  -19.0399 C   0  0  0  0  0  0  0  0  0  0  0  0
   22.5013  -11.5904  -18.3537 C   0  0  2  0  0  0  0  0  0  0  0  0
   22.8640  -12.0765  -17.0071 N   0  0  0  0  0  0  0  0  0  0  0  0
   21.6913  -10.3470  -18.1734 C   0  0  0  0  0  0  0  0  0  0  0  0
   21.5014   -9.5856  -19.1808 O   0  0  0  0  0  0  0  0  0  0  0  0
   21.1205   -9.9664  -16.9460 N   0  0  0  0  0  0  0  0  0  0  0  0
   20.2690   -8.7955  -16.7284 C   0  0  1  0  0  0  0  0  0  0  0  0
   19.1016   -9.2026  -15.8669 C   0  0  0  0  0  0  0  0  0  0  0  0
   18.1762   -8.1082  -15.4748 C   0  0  0  0  0  0  0  0  0  0  0  0
   17.0674   -8.7489  -14.6901 C   0  0  0  0  0  0  0  0  0  0  0  0
   17.0756   -8.7996  -13.4499 O   0  0  0  0  0  0  0  0  0  0  0  0
   21.0926   -7.7328  -16.1194 C   0  0  0  0  0  0  0  0  0  0  0  0
   22.0641   -8.0214  -15.3315 O   0  0  0  0  0  0  0  0  0  0  0  0
   16.0107   -9.2949  -15.4064 O   0  0  0  0  0  0  0  0  0  0  0  0
   20.9317   -6.3387  -16.3165 N   0  0  0  0  0  0  0  0  0  0  0  0
   21.8175   -5.3601  -15.7153 C   0  0  1  0  0  0  0  0  0  0  0  0
   21.6665   -4.0012  -16.3578 C   0  0  0  0  0  0  0  0  0  0  0  0
   22.5504   -2.9391  -15.7900 C   0  0  0  0  0  0  0  0  0  0  0  0
   22.2529   -1.6596  -16.5750 C   0  0  0  0  0  0  0  0  0  0  0  0
   23.0564   -0.5016  -15.9821 C   0  0  0  0  0  0  0  0  0  0  0  0
   22.7180    0.6804  -16.7497 N   0  0  0  0  0  0  0  0  0  0  0  0
   21.6012   -5.3295  -14.2590 C   0  0  0  0  0  0  0  0  0  0  0  0
   22.5914   -5.0911  -13.3195 O   0  0  0  0  0  0  0  0  0  0  0  0
   20.4471   -5.5301  -13.8017 O   0  0  0  0  0  0  0  0  0  0  0  0
  2  1  1  0
  3  2  1  0
  4  3  1  0
  5  4  1  0
  5  6  1  1
  7  8  2  0
  7  5  1  0
  9  7  1  0
 10  9  1  0
 11 12  1  0
 10 11  1  1
 13 14  2  0
 13 12  1  0
 15 10  1  0
 15 16  2  0
 17 13  1  0
 18 15  1  0
 19 20  1  6
 19 18  1  0
 21 20  1  0
 22 21  1  0
 23 22  1  0
 23 24  1  0
 25 19  1  0
 26 25  1  0
 27 25  2  0
M  END
$$$$
