MEK.pdb
     RDKit          3D

 27 26  0  0  1  0  0  0  0  0999 V2000
   26.3245  -20.8627   -8.3997 C   0  0  0  0  0  0  0  0  0  0  0  0
   27.7112  -20.8947   -9.5916 S   0  0  0  0  0  0  0  0  0  0  0  0
   26.9593  -21.1879  -11.2277 C   0  0  0  0  0  0  0  0  0  0  0  0
   25.5247  -20.7471  -11.2273 C   0  0  0  0  0  0  0  0  0  0  0  0
   24.9023  -21.0758  -12.5703 C   0  0  2  0  0  0  0  0  0  0  0  0
   25.6066  -20.2716  -13.5893 N   0  0  0  0  0  0  0  0  0  0  0  0
   23.4542  -20.7117  -12.6406 C   0  0  0  0  0  0  0  0  0  0  0  0
   23.0838  -19.5747  -12.1927 O   0  0  0  0  0  0  0  0  0  0  0  0
   22.4686  -21.5582  -13.1785 N   0  0  0  0  0  0  0  0  0  0  0  0
   21.0236  -21.3309  -13.1172 C   0  0  1  0  0  0  0  0  0  0  0  0
   20.5232  -21.0363  -14.5077 C   0  0  0  0  0  0  0  0  0  0  0  0
   20.8834  -22.0339  -15.5482 C   0  0  0  0  0  0  0  0  0  0  0  0
   20.4142  -21.4705  -16.8589 C   0  0  0  0  0  0  0  0  0  0  0  0
   19.8603  -20.3630  -16.9449 O   0  0  0  0  0  0  0  0  0  0  0  0
   20.3940  -22.5239  -12.5181 C   0  0  0  0  0  0  0  0  0  0  0  0
   20.8563  -23.6992  -12.7479 O   0  0  0  0  0  0  0  0  0  0  0  0
   20.6215  -22.2401  -17.9958 O   0  0  0  0  0  0  0  0  0  0  0  0
   19.2673  -22.5277  -11.6585 N   0  0  0  0  0  0  0  0  0  0  0  0
   18.7310  -23.7465  -11.0835 C   0  0  1  0  0  0  0  0  0  0  0  0
   18.0076  -23.4796   -9.7843 C   0  0  0  0  0  0  0  0  0  0  0  0
   17.3656  -24.6794   -9.1679 C   0  0  0  0  0  0  0  0  0  0  0  0
   16.6413  -24.1887   -7.9123 C   0  0  0  0  0  0  0  0  0  0  0  0
   16.0558  -25.3862   -7.1631 C   0  0  0  0  0  0  0  0  0  0  0  0
   15.4741  -24.8720   -5.9392 N   0  0  0  0  0  0  0  0  0  0  0  0
   17.8853  -24.4290  -12.0773 C   0  0  0  0  0  0  0  0  0  0  0  0
   17.8017  -25.8035  -12.2306 O   0  0  0  0  0  0  0  0  0  0  0  0
   17.1756  -23.7450  -12.8582 O   0  0  0  0  0  0  0  0  0  0  0  0
  2  1  1  0
  3  2  1  0
  4  3  1  0
  5  4  1  0
  5  6  1  6
  7  8  2  0
  7  5  1  0
  9  7  1  0
 10  9  1  0
 11 12  1  0
 10 11  1  6
 13 14  2  0
 13 12  1  0
 15 10  1  0
 15 16  2  0
 17 13  1  0
 18 15  1  0
 19 20  1  1
 19 18  1  0
 21 20  1  0
 22 21  1  0
 23 22  1  0
 23 24  1  0
 25 19  1  0
 26 25  1  0
 27 25  2  0
M  END
$$$$
