MEK.pdb
     RDKit          3D

 27 26  0  0  1  0  0  0  0  0999 V2000
   18.3649  -21.1864  -10.3995 C   0  0  0  0  0  0  0  0  0  0  0  0
   19.2795  -20.2851  -11.7016 S   0  0  0  0  0  0  0  0  0  0  0  0
   18.0117  -19.4985  -12.7516 C   0  0  0  0  0  0  0  0  0  0  0  0
   18.6513  -18.5258  -13.6988 C   0  0  0  0  0  0  0  0  0  0  0  0
   17.5966  -17.9844  -14.6440 C   0  0  2  0  0  0  0  0  0  0  0  0
   17.2326  -19.0772  -15.5683 N   0  0  0  0  0  0  0  0  0  0  0  0
   18.0956  -16.8471  -15.4761 C   0  0  0  0  0  0  0  0  0  0  0  0
   18.7158  -17.1056  -16.5620 O   0  0  0  0  0  0  0  0  0  0  0  0
   17.9173  -15.4966  -15.1274 N   0  0  0  0  0  0  0  0  0  0  0  0
   18.4138  -14.3474  -15.8865 C   0  0  1  0  0  0  0  0  0  0  0  0
   17.5795  -13.1424  -15.5366 C   0  0  0  0  0  0  0  0  0  0  0  0
   18.0718  -11.8422  -16.0608 C   0  0  0  0  0  0  0  0  0  0  0  0
   17.1268  -10.7922  -15.5507 C   0  0  0  0  0  0  0  0  0  0  0  0
   17.4047  -10.0609  -14.5872 O   0  0  0  0  0  0  0  0  0  0  0  0
   19.8447  -14.1697  -15.5714 C   0  0  0  0  0  0  0  0  0  0  0  0
   20.2496  -14.1105  -14.3546 O   0  0  0  0  0  0  0  0  0  0  0  0
   15.9072  -10.6603  -16.2012 O   0  0  0  0  0  0  0  0  0  0  0  0
   20.8967  -14.0529  -16.5138 N   0  0  0  0  0  0  0  0  0  0  0  0
   22.2752  -13.8355  -16.1188 C   0  0  1  0  0  0  0  0  0  0  0  0
   23.2421  -14.4332  -17.1139 C   0  0  0  0  0  0  0  0  0  0  0  0
   24.6841  -14.2767  -16.7566 C   0  0  0  0  0  0  0  0  0  0  0  0
   25.4755  -15.1133  -17.7643 C   0  0  0  0  0  0  0  0  0  0  0  0
   26.9700  -14.9880  -17.4659 C   0  0  0  0  0  0  0  0  0  0  0  0
   27.6550  -15.8956  -18.3648 N   0  0  0  0  0  0  0  0  0  0  0  0
   22.5025  -12.3977  -15.8959 C   0  0  0  0  0  0  0  0  0  0  0  0
   23.2266  -11.8683  -14.8399 O   0  0  0  0  0  0  0  0  0  0  0  0
   22.0185  -11.5636  -16.7029 O   0  0  0  0  0  0  0  0  0  0  0  0
  2  1  1  0
  3  2  1  0
  4  3  1  0
  5  4  1  0
  5  6  1  6
  7  8  2  0
  7  5  1  0
  9  7  1  0
 10  9  1  0
 11 12  1  0
 10 11  1  1
 13 14  2  0
 13 12  1  0
 15 10  1  0
 15 16  2  0
 17 13  1  0
 18 15  1  0
 19 20  1  6
 19 18  1  0
 21 20  1  0
 22 21  1  0
 23 22  1  0
 23 24  1  0
 25 19  1  0
 26 25  1  0
 27 25  2  0
M  END
$$$$
