MEK.pdb
     RDKit          3D

 27 26  0  0  1  0  0  0  0  0999 V2000
   13.7923   -8.2344  -16.1825 C   0  0  0  0  0  0  0  0  0  0  0  0
   14.3020   -9.5808  -17.3102 S   0  0  0  0  0  0  0  0  0  0  0  0
   16.0810   -9.8449  -17.0035 C   0  0  0  0  0  0  0  0  0  0  0  0
   16.3429   -9.9629  -15.5305 C   0  0  0  0  0  0  0  0  0  0  0  0
   17.8392  -10.0309  -15.2947 C   0  0  2  0  0  0  0  0  0  0  0  0
   18.2256  -11.4558  -15.3346 N   0  0  0  0  0  0  0  0  0  0  0  0
   18.2375   -9.5004  -13.9550 C   0  0  0  0  0  0  0  0  0  0  0  0
   18.1466  -10.2675  -12.9382 O   0  0  0  0  0  0  0  0  0  0  0  0
   18.7125   -8.1928  -13.7506 N   0  0  0  0  0  0  0  0  0  0  0  0
   19.0423   -7.5985  -12.4538 C   0  0  1  0  0  0  0  0  0  0  0  0
   20.1090   -6.5544  -12.6601 C   0  0  0  0  0  0  0  0  0  0  0  0
   21.4752   -7.0722  -12.9305 C   0  0  0  0  0  0  0  0  0  0  0  0
   22.3819   -5.8759  -12.9798 C   0  0  0  0  0  0  0  0  0  0  0  0
   22.9243   -5.4121  -11.9643 O   0  0  0  0  0  0  0  0  0  0  0  0
   17.8031   -7.0498  -11.8692 C   0  0  0  0  0  0  0  0  0  0  0  0
   17.0050   -6.3302  -12.5715 O   0  0  0  0  0  0  0  0  0  0  0  0
   22.6004   -5.2907  -14.2198 O   0  0  0  0  0  0  0  0  0  0  0  0
   17.3563   -7.2379  -10.5376 N   0  0  0  0  0  0  0  0  0  0  0  0
   16.0930   -6.7104  -10.0585 C   0  0  1  0  0  0  0  0  0  0  0  0
   15.2070   -7.8012   -9.5039 C   0  0  0  0  0  0  0  0  0  0  0  0
   13.9052   -7.3263   -8.9457 C   0  0  0  0  0  0  0  0  0  0  0  0
   13.1086   -8.5787   -8.5731 C   0  0  0  0  0  0  0  0  0  0  0  0
   11.7582   -8.1658   -7.9867 C   0  0  0  0  0  0  0  0  0  0  0  0
   10.9950   -9.3828   -7.7928 N   0  0  0  0  0  0  0  0  0  0  0  0
   16.3460   -5.6325   -9.0876 C   0  0  0  0  0  0  0  0  0  0  0  0
   15.4358   -4.6430   -8.7530 O   0  0  0  0  0  0  0  0  0  0  0  0
   17.4576   -5.5770   -8.5023 O   0  0  0  0  0  0  0  0  0  0  0  0
  2  1  1  0
  3  2  1  0
  4  3  1  0
  5  4  1  0
  5  6  1  1
  7  8  2  0
  7  5  1  0
  9  7  1  0
 10  9  1  0
 11 12  1  0
 10 11  1  6
 13 14  2  0
 13 12  1  0
 15 10  1  0
 15 16  2  0
 17 13  1  0
 18 15  1  0
 19 20  1  1
 19 18  1  0
 21 20  1  0
 22 21  1  0
 23 22  1  0
 23 24  1  0
 25 19  1  0
 26 25  1  0
 27 25  2  0
M  END
$$$$
