MEK.pdb
     RDKit          3D

 27 26  0  0  1  0  0  0  0  0999 V2000
   31.0303  -12.4830  -17.2127 C   0  0  0  0  0  0  0  0  0  0  0  0
   29.6470  -11.2879  -17.2639 S   0  0  0  0  0  0  0  0  0  0  0  0
   28.1305  -12.2644  -16.9902 C   0  0  0  0  0  0  0  0  0  0  0  0
   26.9156  -11.4105  -17.2075 C   0  0  0  0  0  0  0  0  0  0  0  0
   25.6745  -12.2758  -17.1089 C   0  0  2  0  0  0  0  0  0  0  0  0
   25.7363  -13.2592  -18.2090 N   0  0  0  0  0  0  0  0  0  0  0  0
   24.4111  -11.4956  -17.2815 C   0  0  0  0  0  0  0  0  0  0  0  0
   24.0896  -11.0972  -18.4514 O   0  0  0  0  0  0  0  0  0  0  0  0
   23.5485  -11.1743  -16.2185 N   0  0  0  0  0  0  0  0  0  0  0  0
   22.3181  -10.3883  -16.3266 C   0  0  1  0  0  0  0  0  0  0  0  0
   21.1894  -11.1736  -15.7104 C   0  0  0  0  0  0  0  0  0  0  0  0
   19.9086  -10.4393  -15.5424 C   0  0  0  0  0  0  0  0  0  0  0  0
   18.9103  -11.4367  -15.0282 C   0  0  0  0  0  0  0  0  0  0  0  0
   19.1246  -12.6591  -15.0450 O   0  0  0  0  0  0  0  0  0  0  0  0
   22.5427   -9.0869  -15.6676 C   0  0  0  0  0  0  0  0  0  0  0  0
   23.1740   -9.0127  -14.5523 O   0  0  0  0  0  0  0  0  0  0  0  0
   17.7152  -10.9420  -14.5233 O   0  0  0  0  0  0  0  0  0  0  0  0
   22.1205   -7.8240  -16.1529 N   0  0  0  0  0  0  0  0  0  0  0  0
   22.2789   -6.6029  -15.3863 C   0  0  1  0  0  0  0  0  0  0  0  0
   22.1018   -5.3753  -16.2488 C   0  0  0  0  0  0  0  0  0  0  0  0
   22.1448   -4.0788  -15.5080 C   0  0  0  0  0  0  0  0  0  0  0  0
   21.8329   -2.9831  -16.5298 C   0  0  0  0  0  0  0  0  0  0  0  0
   21.8595   -1.6202  -15.8371 C   0  0  0  0  0  0  0  0  0  0  0  0
   21.6819   -0.6202  -16.8712 N   0  0  0  0  0  0  0  0  0  0  0  0
   21.3656   -6.6249  -14.2313 C   0  0  0  0  0  0  0  0  0  0  0  0
   21.6531   -6.0844  -12.9883 O   0  0  0  0  0  0  0  0  0  0  0  0
   20.2360   -7.1651  -14.3474 O   0  0  0  0  0  0  0  0  0  0  0  0
  2  1  1  0
  3  2  1  0
  4  3  1  0
  5  4  1  0
  5  6  1  6
  7  8  2  0
  7  5  1  0
  9  7  1  0
 10  9  1  0
 11 12  1  0
 10 11  1  1
 13 14  2  0
 13 12  1  0
 15 10  1  0
 15 16  2  0
 17 13  1  0
 18 15  1  0
 19 20  1  6
 19 18  1  0
 21 20  1  0
 22 21  1  0
 23 22  1  0
 23 24  1  0
 25 19  1  0
 26 25  1  0
 27 25  2  0
M  END
$$$$
