MEK.pdb
     RDKit          3D

 27 26  0  0  1  0  0  0  0  0999 V2000
   29.3730  -18.2206  -19.7832 C   0  0  0  0  0  0  0  0  0  0  0  0
   29.3287  -19.3385  -18.3365 S   0  0  0  0  0  0  0  0  0  0  0  0
   27.5697  -19.4966  -17.8788 C   0  0  0  0  0  0  0  0  0  0  0  0
   27.4268  -20.3416  -16.6468 C   0  0  0  0  0  0  0  0  0  0  0  0
   26.5625  -19.6099  -15.6386 C   0  0  2  0  0  0  0  0  0  0  0  0
   27.4388  -18.6727  -14.9072 N   0  0  0  0  0  0  0  0  0  0  0  0
   25.9517  -20.5267  -14.6281 C   0  0  0  0  0  0  0  0  0  0  0  0
   25.2644  -21.5222  -15.0373 O   0  0  0  0  0  0  0  0  0  0  0  0
   26.0942  -20.3536  -13.2400 N   0  0  0  0  0  0  0  0  0  0  0  0
   25.2623  -20.9825  -12.2125 C   0  0  1  0  0  0  0  0  0  0  0  0
   25.8555  -20.6797  -10.8608 C   0  0  0  0  0  0  0  0  0  0  0  0
   25.1000  -21.2018   -9.6927 C   0  0  0  0  0  0  0  0  0  0  0  0
   25.8566  -20.7706   -8.4691 C   0  0  0  0  0  0  0  0  0  0  0  0
   25.5482  -21.1529   -7.3292 O   0  0  0  0  0  0  0  0  0  0  0  0
   23.8832  -20.4786  -12.3633 C   0  0  0  0  0  0  0  0  0  0  0  0
   23.6414  -19.2183  -12.3953 O   0  0  0  0  0  0  0  0  0  0  0  0
   26.9333  -19.9134   -8.6529 O   0  0  0  0  0  0  0  0  0  0  0  0
   22.7159  -21.2722  -12.4898 N   0  0  0  0  0  0  0  0  0  0  0  0
   21.4106  -20.6997  -12.7584 C   0  0  1  0  0  0  0  0  0  0  0  0
   21.3956  -19.9289  -14.0576 C   0  0  0  0  0  0  0  0  0  0  0  0
   21.7749  -20.7264  -15.2625 C   0  0  0  0  0  0  0  0  0  0  0  0
   21.6626  -19.7829  -16.4620 C   0  0  0  0  0  0  0  0  0  0  0  0
   21.9742  -20.5536  -17.7453 C   0  0  0  0  0  0  0  0  0  0  0  0
   21.9018  -19.6009  -18.8353 N   0  0  0  0  0  0  0  0  0  0  0  0
   20.3893  -21.7595  -12.7123 C   0  0  0  0  0  0  0  0  0  0  0  0
   20.6614  -23.1116  -12.5793 O   0  0  0  0  0  0  0  0  0  0  0  0
   19.1735  -21.4497  -12.7971 O   0  0  0  0  0  0  0  0  0  0  0  0
  2  1  1  0
  3  2  1  0
  4  3  1  0
  5  4  1  0
  5  6  1  1
  7  8  2  0
  7  5  1  0
  9  7  1  0
 10  9  1  0
 11 12  1  0
 10 11  1  1
 13 14  2  0
 13 12  1  0
 15 10  1  0
 15 16  2  0
 17 13  1  0
 18 15  1  0
 19 20  1  6
 19 18  1  0
 21 20  1  0
 22 21  1  0
 23 22  1  0
 23 24  1  0
 25 19  1  0
 26 25  1  0
 27 25  2  0
M  END
$$$$
