MEK.pdb
     RDKit          3D

 27 26  0  0  1  0  0  0  0  0999 V2000
   26.4489  -16.4031  -18.8528 C   0  0  0  0  0  0  0  0  0  0  0  0
   28.0360  -17.2512  -18.5265 S   0  0  0  0  0  0  0  0  0  0  0  0
   28.1979  -17.3304  -16.7110 C   0  0  0  0  0  0  0  0  0  0  0  0
   27.0838  -18.1473  -16.1246 C   0  0  0  0  0  0  0  0  0  0  0  0
   27.6473  -19.4525  -15.5975 C   0  0  2  0  0  0  0  0  0  0  0  0
   28.0644  -20.2542  -16.7655 N   0  0  0  0  0  0  0  0  0  0  0  0
   26.6359  -20.2565  -14.8456 C   0  0  0  0  0  0  0  0  0  0  0  0
   25.9152  -21.0930  -15.4872 O   0  0  0  0  0  0  0  0  0  0  0  0
   26.4331  -20.1433  -13.4587 N   0  0  0  0  0  0  0  0  0  0  0  0
   25.3812  -20.8148  -12.6933 C   0  0  1  0  0  0  0  0  0  0  0  0
   25.6923  -20.6785  -11.2252 C   0  0  0  0  0  0  0  0  0  0  0  0
   24.6890  -21.2598  -10.2961 C   0  0  0  0  0  0  0  0  0  0  0  0
   25.1974  -21.0042   -8.9062 C   0  0  0  0  0  0  0  0  0  0  0  0
   26.2019  -20.3098   -8.6843 O   0  0  0  0  0  0  0  0  0  0  0  0
   24.0850  -20.2155  -13.0665 C   0  0  0  0  0  0  0  0  0  0  0  0
   23.9471  -18.9420  -13.1506 O   0  0  0  0  0  0  0  0  0  0  0  0
   24.4972  -21.5793   -7.8542 O   0  0  0  0  0  0  0  0  0  0  0  0
   22.8956  -20.9248  -13.3676 N   0  0  0  0  0  0  0  0  0  0  0  0
   21.6809  -20.2601  -13.7995 C   0  0  1  0  0  0  0  0  0  0  0  0
   21.9166  -19.4066  -15.0235 C   0  0  0  0  0  0  0  0  0  0  0  0
   21.7039  -20.1076  -16.3254 C   0  0  0  0  0  0  0  0  0  0  0  0
   22.1838  -19.1504  -17.4187 C   0  0  0  0  0  0  0  0  0  0  0  0
   21.9444  -19.7843  -18.7895 C   0  0  0  0  0  0  0  0  0  0  0  0
   22.3888  -18.8234  -19.7796 N   0  0  0  0  0  0  0  0  0  0  0  0
   20.6168  -21.2587  -13.9969 C   0  0  0  0  0  0  0  0  0  0  0  0
   20.7913  -22.6289  -13.8878 O   0  0  0  0  0  0  0  0  0  0  0  0
   19.4551  -20.8743  -14.2863 O   0  0  0  0  0  0  0  0  0  0  0  0
  2  1  1  0
  3  2  1  0
  4  3  1  0
  5  4  1  0
  5  6  1  6
  7  8  2  0
  7  5  1  0
  9  7  1  0
 10  9  1  0
 11 12  1  0
 10 11  1  1
 13 14  2  0
 13 12  1  0
 15 10  1  0
 15 16  2  0
 17 13  1  0
 18 15  1  0
 19 20  1  6
 19 18  1  0
 21 20  1  0
 22 21  1  0
 23 22  1  0
 23 24  1  0
 25 19  1  0
 26 25  1  0
 27 25  2  0
M  END
$$$$
