KCC.pdb
     RDKit          3D

 22 21  0  0  1  0  0  0  0  0999 V2000
   23.8692  -13.1922  -17.7966 N   0  0  0  0  0  0  0  0  0  0  0  0
   23.0765  -12.5303  -18.7764 C   0  0  1  0  0  0  0  0  0  0  0  0
   21.6338  -13.0034  -18.7894 C   0  0  0  0  0  0  0  0  0  0  0  0
   21.5461  -14.4960  -18.8831 C   0  0  0  0  0  0  0  0  0  0  0  0
   20.1184  -14.9337  -18.8535 C   0  0  0  0  0  0  0  0  0  0  0  0
   19.9814  -16.4240  -18.9932 C   0  0  0  0  0  0  0  0  0  0  0  0
   18.5590  -16.7567  -18.9795 N   0  0  0  0  0  0  0  0  0  0  0  0
   23.0571  -11.0760  -18.4742 C   0  0  0  0  0  0  0  0  0  0  0  0
   22.3965  -10.3141  -19.2397 O   0  0  0  0  0  0  0  0  0  0  0  0
   23.7437  -10.5364  -17.3768 N   0  0  0  0  0  0  0  0  0  0  0  0
   23.6808   -9.1092  -17.1458 C   0  0  1  0  0  0  0  0  0  0  0  0
   23.4647   -8.9061  -15.6721 C   0  0  0  0  0  0  0  0  0  0  0  0
   23.5832   -7.1179  -15.3159 S   0  0  0  0  0  0  0  0  0  0  0  0
   24.8795   -8.4733  -17.6720 C   0  0  0  0  0  0  0  0  0  0  0  0
   26.0065   -8.8716  -17.2961 O   0  0  0  0  0  0  0  0  0  0  0  0
   24.8641   -7.4000  -18.6105 N   0  0  0  0  0  0  0  0  0  0  0  0
   26.0628   -6.8032  -19.1014 C   0  0  1  0  0  0  0  0  0  0  0  0
   26.3065   -7.2038  -20.5353 C   0  0  0  0  0  0  0  0  0  0  0  0
   26.8283   -8.9121  -20.6977 S   0  0  0  0  0  0  0  0  0  0  0  0
   26.0262   -5.3526  -18.9087 C   0  0  0  0  0  0  0  0  0  0  0  0
   27.2065   -4.6682  -18.6874 O   0  0  0  0  0  0  0  0  0  0  0  0
   24.9725   -4.6624  -18.9300 O   0  0  0  0  0  0  0  0  0  0  0  0
  2  3  1  0
  2  8  1  0
  2  1  1  1
  4  3  1  0
  5  4  1  0
  6  5  1  0
  6  7  1  0
  8  9  2  0
 10 11  1  0
 10  8  1  0
 11 14  1  0
 12 13  1  0
 11 12  1  1
 14 16  1  0
 14 15  2  0
 16 17  1  0
 17 20  1  0
 17 18  1  6
 19 18  1  0
 20 22  2  0
 20 21  1  0
M  END
$$$$
