KCC.pdb
     RDKit          3D

 22 21  0  0  1  0  0  0  0  0999 V2000
   18.4755  -10.8989  -16.8609 N   0  0  0  0  0  0  0  0  0  0  0  0
   19.7644  -11.2173  -16.3473 C   0  0  1  0  0  0  0  0  0  0  0  0
   20.4262  -12.3702  -17.0810 C   0  0  0  0  0  0  0  0  0  0  0  0
   19.4584  -13.4840  -17.3403 C   0  0  0  0  0  0  0  0  0  0  0  0
   18.8609  -13.9601  -16.0569 C   0  0  0  0  0  0  0  0  0  0  0  0
   17.8682  -15.0679  -16.2726 C   0  0  0  0  0  0  0  0  0  0  0  0
   17.3816  -15.5077  -14.9672 N   0  0  0  0  0  0  0  0  0  0  0  0
   20.6485  -10.0339  -16.5045 C   0  0  0  0  0  0  0  0  0  0  0  0
   21.8682  -10.1512  -16.1862 O   0  0  0  0  0  0  0  0  0  0  0  0
   20.1695   -8.8085  -16.9902 N   0  0  0  0  0  0  0  0  0  0  0  0
   21.0951   -7.7064  -17.1409 C   0  0  1  0  0  0  0  0  0  0  0  0
   21.1876   -7.4008  -18.6099 C   0  0  0  0  0  0  0  0  0  0  0  0
   22.5577   -8.3828  -19.3150 S   0  0  0  0  0  0  0  0  0  0  0  0
   20.6627   -6.5860  -16.3187 C   0  0  0  0  0  0  0  0  0  0  0  0
   19.4434   -6.3062  -16.2470 O   0  0  0  0  0  0  0  0  0  0  0  0
   21.5506   -5.7608  -15.5680 N   0  0  0  0  0  0  0  0  0  0  0  0
   21.0873   -4.6615  -14.7864 C   0  0  1  0  0  0  0  0  0  0  0  0
   21.0807   -5.0180  -13.3205 C   0  0  0  0  0  0  0  0  0  0  0  0
   22.7275   -5.3068  -12.6710 S   0  0  0  0  0  0  0  0  0  0  0  0
   21.8699   -3.4602  -15.0816 C   0  0  0  0  0  0  0  0  0  0  0  0
   21.5294   -2.2640  -14.4784 O   0  0  0  0  0  0  0  0  0  0  0  0
   22.8565   -3.4332  -15.8647 O   0  0  0  0  0  0  0  0  0  0  0  0
  2  3  1  0
  2  8  1  0
  2  1  1  6
  4  3  1  0
  5  4  1  0
  6  5  1  0
  6  7  1  0
  8  9  2  0
 10 11  1  0
 10  8  1  0
 11 14  1  0
 12 13  1  0
 11 12  1  6
 14 16  1  0
 14 15  2  0
 16 17  1  0
 17 20  1  0
 17 18  1  1
 19 18  1  0
 20 22  2  0
 20 21  1  0
M  END
$$$$
