KCC.pdb
     RDKit          3D

 22 21  0  0  1  0  0  0  0  0999 V2000
   19.8568  -11.6620  -15.4389 N   0  0  0  0  0  0  0  0  0  0  0  0
   19.3878  -10.4309  -15.9784 C   0  0  1  0  0  0  0  0  0  0  0  0
   17.8738  -10.3159  -15.9631 C   0  0  0  0  0  0  0  0  0  0  0  0
   17.2350  -11.3608  -16.8259 C   0  0  0  0  0  0  0  0  0  0  0  0
   15.7506  -11.1950  -16.8267 C   0  0  0  0  0  0  0  0  0  0  0  0
   15.0677  -12.2241  -17.6833 C   0  0  0  0  0  0  0  0  0  0  0  0
   13.6294  -11.9707  -17.6452 N   0  0  0  0  0  0  0  0  0  0  0  0
   19.9195   -9.3139  -15.1560 C   0  0  0  0  0  0  0  0  0  0  0  0
   19.9150   -9.4427  -13.8966 O   0  0  0  0  0  0  0  0  0  0  0  0
   20.4186   -8.1380  -15.7348 N   0  0  0  0  0  0  0  0  0  0  0  0
   21.0196   -7.1380  -14.8786 C   0  0  1  0  0  0  0  0  0  0  0  0
   22.4553   -7.5334  -14.6727 C   0  0  0  0  0  0  0  0  0  0  0  0
   23.1825   -7.9231  -16.3030 S   0  0  0  0  0  0  0  0  0  0  0  0
   20.8363   -5.8174  -15.4623 C   0  0  0  0  0  0  0  0  0  0  0  0
   20.2933   -5.7083  -16.5863 O   0  0  0  0  0  0  0  0  0  0  0  0
   21.2411   -4.6051  -14.8303 N   0  0  0  0  0  0  0  0  0  0  0  0
   21.1132   -3.3364  -15.4690 C   0  0  1  0  0  0  0  0  0  0  0  0
   19.7039   -3.1329  -15.9677 C   0  0  0  0  0  0  0  0  0  0  0  0
   19.3772   -1.4354  -16.4458 S   0  0  0  0  0  0  0  0  0  0  0  0
   21.5663   -2.2682  -14.5766 C   0  0  0  0  0  0  0  0  0  0  0  0
   22.2198   -1.1724  -15.1081 O   0  0  0  0  0  0  0  0  0  0  0  0
   21.4013   -2.2721  -13.3276 O   0  0  0  0  0  0  0  0  0  0  0  0
  2  3  1  0
  2  8  1  0
  2  1  1  1
  4  3  1  0
  5  4  1  0
  6  5  1  0
  6  7  1  0
  8  9  2  0
 10 11  1  0
 10  8  1  0
 11 14  1  0
 12 13  1  0
 11 12  1  6
 14 16  1  0
 14 15  2  0
 16 17  1  0
 17 20  1  0
 17 18  1  1
 19 18  1  0
 20 22  2  0
 20 21  1  0
M  END
$$$$
