KCC.pdb
     RDKit          3D

 22 21  0  0  1  0  0  0  0  0999 V2000
   15.2778  -14.6389  -15.5555 N   0  0  0  0  0  0  0  0  0  0  0  0
   16.2433  -13.7252  -15.0463 C   0  0  1  0  0  0  0  0  0  0  0  0
   17.6633  -14.0749  -15.4548 C   0  0  0  0  0  0  0  0  0  0  0  0
   18.0251  -15.4696  -15.0443 C   0  0  0  0  0  0  0  0  0  0  0  0
   19.3923  -15.8158  -15.5357 C   0  0  0  0  0  0  0  0  0  0  0  0
   19.7501  -17.2472  -15.2490 C   0  0  0  0  0  0  0  0  0  0  0  0
   21.0649  -17.5155  -15.8265 N   0  0  0  0  0  0  0  0  0  0  0  0
   15.9538  -12.3719  -15.5862 C   0  0  0  0  0  0  0  0  0  0  0  0
   15.6434  -12.2689  -16.8092 O   0  0  0  0  0  0  0  0  0  0  0  0
   16.0158  -11.2234  -14.7835 N   0  0  0  0  0  0  0  0  0  0  0  0
   15.6135   -9.9532  -15.3484 C   0  0  1  0  0  0  0  0  0  0  0  0
   14.2661   -9.6172  -14.7728 C   0  0  0  0  0  0  0  0  0  0  0  0
   13.0096  -10.6388  -15.6192 S   0  0  0  0  0  0  0  0  0  0  0  0
   16.6424   -8.9555  -15.0956 C   0  0  0  0  0  0  0  0  0  0  0  0
   17.2438   -8.9524  -13.9963 O   0  0  0  0  0  0  0  0  0  0  0  0
   17.0264   -7.9532  -16.0342 N   0  0  0  0  0  0  0  0  0  0  0  0
   18.0568   -7.0073  -15.7560 C   0  0  1  0  0  0  0  0  0  0  0  0
   18.8206   -6.6696  -17.0125 C   0  0  0  0  0  0  0  0  0  0  0  0
   19.6802   -8.0851  -17.7014 S   0  0  0  0  0  0  0  0  0  0  0  0
   17.5010   -5.8293  -15.0880 C   0  0  0  0  0  0  0  0  0  0  0  0
   16.1303   -5.7077  -14.9574 O   0  0  0  0  0  0  0  0  0  0  0  0
   18.1957   -4.8932  -14.6104 O   0  0  0  0  0  0  0  0  0  0  0  0
  2  3  1  0
  2  8  1  0
  2  1  1  6
  4  3  1  0
  5  4  1  0
  6  5  1  0
  6  7  1  0
  8  9  2  0
 10 11  1  0
 10  8  1  0
 11 14  1  0
 12 13  1  0
 11 12  1  1
 14 16  1  0
 14 15  2  0
 16 17  1  0
 17 20  1  0
 17 18  1  6
 19 18  1  0
 20 22  2  0
 20 21  1  0
M  END
$$$$
