KCC.pdb
     RDKit          3D

 22 21  0  0  1  0  0  0  0  0999 V2000
   24.2897  -20.2087  -15.8471 N   0  0  0  0  0  0  0  0  0  0  0  0
   23.5331  -19.4263  -14.9297 C   0  0  1  0  0  0  0  0  0  0  0  0
   22.4589  -18.5935  -15.6066 C   0  0  0  0  0  0  0  0  0  0  0  0
   23.0010  -17.8583  -16.7940 C   0  0  0  0  0  0  0  0  0  0  0  0
   21.9304  -17.0268  -17.4212 C   0  0  0  0  0  0  0  0  0  0  0  0
   22.4054  -16.3450  -18.6737 C   0  0  0  0  0  0  0  0  0  0  0  0
   21.3074  -15.5387  -19.2012 N   0  0  0  0  0  0  0  0  0  0  0  0
   22.8458  -20.3359  -13.9773 C   0  0  0  0  0  0  0  0  0  0  0  0
   22.8896  -21.5812  -14.2010 O   0  0  0  0  0  0  0  0  0  0  0  0
   22.1601  -19.8532  -12.8531 N   0  0  0  0  0  0  0  0  0  0  0  0
   21.5784  -20.8023  -11.9283 C   0  0  1  0  0  0  0  0  0  0  0  0
   21.6420  -20.1852  -10.5590 C   0  0  0  0  0  0  0  0  0  0  0  0
   20.6996  -18.6202  -10.5906 S   0  0  0  0  0  0  0  0  0  0  0  0
   20.2370  -21.1569  -12.3675 C   0  0  0  0  0  0  0  0  0  0  0  0
   19.7381  -20.5773  -13.3601 O   0  0  0  0  0  0  0  0  0  0  0  0
   19.4268  -22.1434  -11.7325 N   0  0  0  0  0  0  0  0  0  0  0  0
   18.2364  -22.6498  -12.3330 C   0  0  1  0  0  0  0  0  0  0  0  0
   18.5620  -23.4232  -13.5868 C   0  0  0  0  0  0  0  0  0  0  0  0
   18.6533  -22.3774  -15.0411 S   0  0  0  0  0  0  0  0  0  0  0  0
   17.4667  -23.4286  -11.3616 C   0  0  0  0  0  0  0  0  0  0  0  0
   16.2460  -23.9600  -11.7334 O   0  0  0  0  0  0  0  0  0  0  0  0
   17.8424  -23.6573  -10.1811 O   0  0  0  0  0  0  0  0  0  0  0  0
  2  3  1  0
  2  8  1  0
  2  1  1  6
  4  3  1  0
  5  4  1  0
  6  5  1  0
  6  7  1  0
  8  9  2  0
 10 11  1  0
 10  8  1  0
 11 14  1  0
 12 13  1  0
 11 12  1  1
 14 16  1  0
 14 15  2  0
 16 17  1  0
 17 20  1  0
 17 18  1  6
 19 18  1  0
 20 22  2  0
 20 21  1  0
M  END
$$$$
