KCC.pdb
     RDKit          3D

 22 21  0  0  1  0  0  0  0  0999 V2000
   28.4684  -22.6484  -15.7622 N   0  0  0  0  0  0  0  0  0  0  0  0
   27.5511  -22.3803  -16.8173 C   0  0  1  0  0  0  0  0  0  0  0  0
   27.7065  -23.3287  -17.9928 C   0  0  0  0  0  0  0  0  0  0  0  0
   28.9960  -24.0879  -17.9192 C   0  0  0  0  0  0  0  0  0  0  0  0
   29.0255  -24.9406  -16.6933 C   0  0  0  0  0  0  0  0  0  0  0  0
   29.7365  -26.2438  -16.9285 C   0  0  0  0  0  0  0  0  0  0  0  0
   28.9522  -27.3114  -16.3128 N   0  0  0  0  0  0  0  0  0  0  0  0
   26.1674  -22.5449  -16.3026 C   0  0  0  0  0  0  0  0  0  0  0  0
   25.2647  -22.9019  -17.1153 O   0  0  0  0  0  0  0  0  0  0  0  0
   25.8437  -22.3173  -14.9571 N   0  0  0  0  0  0  0  0  0  0  0  0
   24.4852  -22.5496  -14.5160 C   0  0  1  0  0  0  0  0  0  0  0  0
   24.5554  -23.4512  -13.3151 C   0  0  0  0  0  0  0  0  0  0  0  0
   25.5896  -22.6382  -12.0470 S   0  0  0  0  0  0  0  0  0  0  0  0
   23.8225  -21.2764  -14.2753 C   0  0  0  0  0  0  0  0  0  0  0  0
   24.5057  -20.2727  -13.9657 O   0  0  0  0  0  0  0  0  0  0  0  0
   22.4130  -21.0830  -14.3688 N   0  0  0  0  0  0  0  0  0  0  0  0
   21.8128  -19.7959  -14.2378 C   0  0  1  0  0  0  0  0  0  0  0  0
   22.4190  -18.8250  -15.2207 C   0  0  0  0  0  0  0  0  0  0  0  0
   21.6121  -17.2233  -15.1988 S   0  0  0  0  0  0  0  0  0  0  0  0
   20.3573  -19.8976  -14.3547 C   0  0  0  0  0  0  0  0  0  0  0  0
   19.8093  -20.8565  -15.1859 O   0  0  0  0  0  0  0  0  0  0  0  0
   19.5446  -19.1577  -13.7389 O   0  0  0  0  0  0  0  0  0  0  0  0
  2  3  1  0
  2  8  1  0
  2  1  1  1
  4  3  1  0
  5  4  1  0
  6  5  1  0
  6  7  1  0
  8  9  2  0
 10 11  1  0
 10  8  1  0
 11 14  1  0
 12 13  1  0
 11 12  1  1
 14 16  1  0
 14 15  2  0
 16 17  1  0
 17 20  1  0
 17 18  1  6
 19 18  1  0
 20 22  2  0
 20 21  1  0
M  END
$$$$
