KCC.pdb
     RDKit          3D

 22 21  0  0  1  0  0  0  0  0999 V2000
   27.6205  -21.2357  -15.3020 N   0  0  0  0  0  0  0  0  0  0  0  0
   26.7362  -20.3610  -14.6095 C   0  0  1  0  0  0  0  0  0  0  0  0
   25.8194  -19.5870  -15.5400 C   0  0  0  0  0  0  0  0  0  0  0  0
   26.5981  -18.7299  -16.4904 C   0  0  0  0  0  0  0  0  0  0  0  0
   27.1657  -17.5477  -15.7755 C   0  0  0  0  0  0  0  0  0  0  0  0
   27.9501  -16.6543  -16.6952 C   0  0  0  0  0  0  0  0  0  0  0  0
   28.4818  -15.5425  -15.9107 N   0  0  0  0  0  0  0  0  0  0  0  0
   25.8691  -21.1677  -13.7128 C   0  0  0  0  0  0  0  0  0  0  0  0
   25.4283  -22.2740  -14.1423 O   0  0  0  0  0  0  0  0  0  0  0  0
   25.5332  -20.7377  -12.4208 N   0  0  0  0  0  0  0  0  0  0  0  0
   24.4863  -21.4326  -11.7029 C   0  0  1  0  0  0  0  0  0  0  0  0
   24.7160  -21.1907  -10.2371 C   0  0  0  0  0  0  0  0  0  0  0  0
   24.9750  -19.3996   -9.9849 S   0  0  0  0  0  0  0  0  0  0  0  0
   23.1854  -20.9972  -12.1887 C   0  0  0  0  0  0  0  0  0  0  0  0
   23.0322  -19.8132  -12.5693 O   0  0  0  0  0  0  0  0  0  0  0  0
   22.0406  -21.8437  -12.2650 N   0  0  0  0  0  0  0  0  0  0  0  0
   20.8000  -21.3960  -12.8076 C   0  0  1  0  0  0  0  0  0  0  0  0
   20.4811  -22.1354  -14.0834 C   0  0  0  0  0  0  0  0  0  0  0  0
   21.7430  -21.9233  -15.3403 S   0  0  0  0  0  0  0  0  0  0  0  0
   19.7385  -21.4972  -11.8047 C   0  0  0  0  0  0  0  0  0  0  0  0
   20.0158  -22.0748  -10.5800 O   0  0  0  0  0  0  0  0  0  0  0  0
   18.5601  -21.0867  -11.9779 O   0  0  0  0  0  0  0  0  0  0  0  0
  2  3  1  0
  2  8  1  0
  2  1  1  6
  4  3  1  0
  5  4  1  0
  6  5  1  0
  6  7  1  0
  8  9  2  0
 10 11  1  0
 10  8  1  0
 11 14  1  0
 12 13  1  0
 11 12  1  1
 14 16  1  0
 14 15  2  0
 16 17  1  0
 17 20  1  0
 17 18  1  6
 19 18  1  0
 20 22  2  0
 20 21  1  0
M  END
$$$$
