KCC.pdb
     RDKit          3D

 22 21  0  0  1  0  0  0  0  0999 V2000
   24.6583  -21.9304  -13.8285 N   0  0  0  0  0  0  0  0  0  0  0  0
   24.7126  -20.9479  -12.7997 C   0  0  1  0  0  0  0  0  0  0  0  0
   23.3405  -20.5595  -12.2783 C   0  0  0  0  0  0  0  0  0  0  0  0
   22.3650  -20.3569  -13.3971 C   0  0  0  0  0  0  0  0  0  0  0  0
   21.1684  -21.2298  -13.2053 C   0  0  0  0  0  0  0  0  0  0  0  0
   20.2062  -21.1302  -14.3558 C   0  0  0  0  0  0  0  0  0  0  0  0
   19.0081  -21.8952  -14.0187 N   0  0  0  0  0  0  0  0  0  0  0  0
   25.4770  -21.4987  -11.6511 C   0  0  0  0  0  0  0  0  0  0  0  0
   25.7670  -22.7310  -11.6605 O   0  0  0  0  0  0  0  0  0  0  0  0
   25.8784  -20.6963  -10.5732 N   0  0  0  0  0  0  0  0  0  0  0  0
   26.8524  -21.2175   -9.6383 C   0  0  1  0  0  0  0  0  0  0  0  0
   28.1319  -21.4266  -10.3993 C   0  0  0  0  0  0  0  0  0  0  0  0
   28.6059  -19.8398  -11.1715 S   0  0  0  0  0  0  0  0  0  0  0  0
   26.9691  -20.3195   -8.4990 C   0  0  0  0  0  0  0  0  0  0  0  0
   27.0946  -19.0880   -8.6928 O   0  0  0  0  0  0  0  0  0  0  0  0
   26.9503  -20.7516   -7.1404 N   0  0  0  0  0  0  0  0  0  0  0  0
   27.1623  -19.8517   -6.0544 C   0  0  1  0  0  0  0  0  0  0  0  0
   26.9988  -20.5644   -4.7348 C   0  0  0  0  0  0  0  0  0  0  0  0
   28.5662  -21.0563   -4.0149 S   0  0  0  0  0  0  0  0  0  0  0  0
   28.4585  -19.1851   -6.1901 C   0  0  0  0  0  0  0  0  0  0  0  0
   29.4124  -19.7229   -7.0334 O   0  0  0  0  0  0  0  0  0  0  0  0
   28.7788  -18.1302   -5.5803 O   0  0  0  0  0  0  0  0  0  0  0  0
  2  3  1  0
  2  8  1  0
  2  1  1  6
  4  3  1  0
  5  4  1  0
  6  5  1  0
  6  7  1  0
  8  9  2  0
 10 11  1  0
 10  8  1  0
 11 14  1  0
 12 13  1  0
 11 12  1  6
 14 16  1  0
 14 15  2  0
 16 17  1  0
 17 20  1  0
 17 18  1  1
 19 18  1  0
 20 22  2  0
 20 21  1  0
M  END
$$$$
