KCC.pdb
     RDKit          3D

 22 21  0  0  1  0  0  0  0  0999 V2000
   24.7304  -22.4975  -18.0585 N   0  0  0  0  0  0  0  0  0  0  0  0
   24.7699  -21.8769  -16.7780 C   0  0  1  0  0  0  0  0  0  0  0  0
   25.6253  -20.6227  -16.7535 C   0  0  0  0  0  0  0  0  0  0  0  0
   26.9793  -20.8699  -17.3452 C   0  0  0  0  0  0  0  0  0  0  0  0
   27.6808  -21.9559  -16.5972 C   0  0  0  0  0  0  0  0  0  0  0  0
   29.0778  -22.1800  -17.1045 C   0  0  0  0  0  0  0  0  0  0  0  0
   29.6617  -23.2945  -16.3622 N   0  0  0  0  0  0  0  0  0  0  0  0
   23.3915  -21.4735  -16.3984 C   0  0  0  0  0  0  0  0  0  0  0  0
   22.5816  -21.1668  -17.3219 O   0  0  0  0  0  0  0  0  0  0  0  0
   22.9738  -21.4255  -15.0604 N   0  0  0  0  0  0  0  0  0  0  0  0
   21.6153  -21.0227  -14.7662 C   0  0  1  0  0  0  0  0  0  0  0  0
   21.3366  -21.4064  -13.3397 C   0  0  0  0  0  0  0  0  0  0  0  0
   22.4577  -20.4505  -12.2590 S   0  0  0  0  0  0  0  0  0  0  0  0
   21.4506  -19.6052  -15.0519 C   0  0  0  0  0  0  0  0  0  0  0  0
   22.4549  -18.8560  -15.0629 O   0  0  0  0  0  0  0  0  0  0  0  0
   20.1943  -18.9900  -15.3278 N   0  0  0  0  0  0  0  0  0  0  0  0
   20.0673  -17.5858  -15.5425 C   0  0  1  0  0  0  0  0  0  0  0  0
   20.7588  -17.1796  -16.8202 C   0  0  0  0  0  0  0  0  0  0  0  0
   19.8686  -17.7044  -18.2862 S   0  0  0  0  0  0  0  0  0  0  0  0
   18.6589  -17.1888  -15.5006 C   0  0  0  0  0  0  0  0  0  0  0  0
   18.3287  -15.8502  -15.5985 O   0  0  0  0  0  0  0  0  0  0  0  0
   17.6996  -17.9963  -15.3789 O   0  0  0  0  0  0  0  0  0  0  0  0
  2  3  1  0
  2  8  1  0
  2  1  1  6
  4  3  1  0
  5  4  1  0
  6  5  1  0
  6  7  1  0
  8  9  2  0
 10 11  1  0
 10  8  1  0
 11 14  1  0
 12 13  1  0
 11 12  1  1
 14 16  1  0
 14 15  2  0
 16 17  1  0
 17 20  1  0
 17 18  1  6
 19 18  1  0
 20 22  2  0
 20 21  1  0
M  END
$$$$
