KCC.pdb
     RDKit          3D

 22 21  0  0  1  0  0  0  0  0999 V2000
   18.0650  -13.5837  -18.5778 N   0  0  0  0  0  0  0  0  0  0  0  0
   17.7844  -12.9111  -17.3550 C   0  0  1  0  0  0  0  0  0  0  0  0
   17.6291  -13.8594  -16.1793 C   0  0  0  0  0  0  0  0  0  0  0  0
   16.3717  -14.6667  -16.2874 C   0  0  0  0  0  0  0  0  0  0  0  0
   16.3113  -15.6800  -15.1918 C   0  0  0  0  0  0  0  0  0  0  0  0
   15.0059  -16.4252  -15.1828 C   0  0  0  0  0  0  0  0  0  0  0  0
   15.0598  -17.4313  -14.1250 N   0  0  0  0  0  0  0  0  0  0  0  0
   18.9159  -12.0025  -17.0373 C   0  0  0  0  0  0  0  0  0  0  0  0
   19.9842  -12.5112  -16.5871 O   0  0  0  0  0  0  0  0  0  0  0  0
   18.8283  -10.6150  -17.2222 N   0  0  0  0  0  0  0  0  0  0  0  0
   20.0133   -9.8076  -17.0267 C   0  0  1  0  0  0  0  0  0  0  0  0
   20.4416   -9.3113  -18.3795 C   0  0  0  0  0  0  0  0  0  0  0  0
   21.8446   -8.1631  -18.1517 S   0  0  0  0  0  0  0  0  0  0  0  0
   19.7369   -8.7561  -16.0592 C   0  0  0  0  0  0  0  0  0  0  0  0
   18.6657   -8.1106  -16.1367 O   0  0  0  0  0  0  0  0  0  0  0  0
   20.6213   -8.3972  -14.9999 N   0  0  0  0  0  0  0  0  0  0  0  0
   20.3563   -7.2998  -14.1284 C   0  0  1  0  0  0  0  0  0  0  0  0
   20.7628   -7.6347  -12.7147 C   0  0  0  0  0  0  0  0  0  0  0  0
   19.6658   -8.8254  -11.9426 S   0  0  0  0  0  0  0  0  0  0  0  0
   20.9905   -6.0817  -14.6349 C   0  0  0  0  0  0  0  0  0  0  0  0
   21.7715   -6.1470  -15.7735 O   0  0  0  0  0  0  0  0  0  0  0  0
   20.8753   -4.9481  -14.0975 O   0  0  0  0  0  0  0  0  0  0  0  0
  2  3  1  0
  2  8  1  0
  2  1  1  6
  4  3  1  0
  5  4  1  0
  6  5  1  0
  6  7  1  0
  8  9  2  0
 10 11  1  0
 10  8  1  0
 11 14  1  0
 12 13  1  0
 11 12  1  6
 14 16  1  0
 14 15  2  0
 16 17  1  0
 17 20  1  0
 17 18  1  1
 19 18  1  0
 20 22  2  0
 20 21  1  0
M  END
$$$$
