KCC.pdb
     RDKit          3D

 22 21  0  0  1  0  0  0  0  0999 V2000
   11.9552  -18.5122   -1.0174 N   0  0  0  0  0  0  0  0  0  0  0  0
   11.9255  -19.2960    0.1706 C   0  0  1  0  0  0  0  0  0  0  0  0
   10.5988  -20.0041    0.3802 C   0  0  0  0  0  0  0  0  0  0  0  0
    9.4667  -19.0288    0.4878 C   0  0  0  0  0  0  0  0  0  0  0  0
    9.3067  -18.2778   -0.7933 C   0  0  0  0  0  0  0  0  0  0  0  0
    8.1458  -17.3241   -0.7480 C   0  0  0  0  0  0  0  0  0  0  0  0
    8.0693  -16.6339   -2.0332 N   0  0  0  0  0  0  0  0  0  0  0  0
   12.9719  -20.3463    0.0779 C   0  0  0  0  0  0  0  0  0  0  0  0
   13.5363  -20.5323   -1.0399 O   0  0  0  0  0  0  0  0  0  0  0  0
   13.3427  -21.1245    1.1843 N   0  0  0  0  0  0  0  0  0  0  0  0
   14.5492  -21.9199    1.1065 C   0  0  1  0  0  0  0  0  0  0  0  0
   15.6957  -20.9699    0.8992 C   0  0  0  0  0  0  0  0  0  0  0  0
   15.9602  -20.0425    2.4511 S   0  0  0  0  0  0  0  0  0  0  0  0
   14.6650  -22.7537    2.2937 C   0  0  0  0  0  0  0  0  0  0  0  0
   14.2347  -22.3295    3.3915 O   0  0  0  0  0  0  0  0  0  0  0  0
   15.2489  -24.0544    2.2984 N   0  0  0  0  0  0  0  0  0  0  0  0
   15.3884  -24.8198    3.4937 C   0  0  1  0  0  0  0  0  0  0  0  0
   15.6110  -26.2761    3.1685 C   0  0  0  0  0  0  0  0  0  0  0  0
   15.8990  -27.2755    4.6298 S   0  0  0  0  0  0  0  0  0  0  0  0
   16.4386  -24.2540    4.3420 C   0  0  0  0  0  0  0  0  0  0  0  0
   17.5327  -23.6483    3.7533 O   0  0  0  0  0  0  0  0  0  0  0  0
   16.4203  -24.2778    5.6015 O   0  0  0  0  0  0  0  0  0  0  0  0
  2  3  1  0
  2  8  1  0
  2  1  1  6
  4  3  1  0
  5  4  1  0
  6  5  1  0
  6  7  1  0
  8  9  2  0
 10 11  1  0
 10  8  1  0
 11 14  1  0
 12 13  1  0
 11 12  1  1
 14 16  1  0
 14 15  2  0
 16 17  1  0
 17 20  1  0
 17 18  1  6
 19 18  1  0
 20 22  2  0
 20 21  1  0
M  END
$$$$
