VKN.pdb
     RDKit          3D

 25 24  0  0  1  0  0  0  0  0999 V2000
   24.7636  -11.3725  -15.8203 C   0  0  0  0  0  0  0  0  0  0  0  0
   24.5709  -12.3270  -16.9515 C   0  0  1  0  0  0  0  0  0  0  0  0
   25.5721  -13.4491  -16.8527 C   0  0  0  0  0  0  0  0  0  0  0  0
   23.1559  -12.8389  -17.0747 C   0  0  2  0  0  0  0  0  0  0  0  0
   23.0310  -13.6804  -18.2484 N   0  0  0  0  0  0  0  0  0  0  0  0
   22.1417  -11.7611  -17.0596 C   0  0  0  0  0  0  0  0  0  0  0  0
   22.0123  -11.0004  -18.0747 O   0  0  0  0  0  0  0  0  0  0  0  0
   21.2833  -11.5065  -15.9752 N   0  0  0  0  0  0  0  0  0  0  0  0
   20.3170  -10.3633  -15.9595 C   0  0  1  0  0  0  0  0  0  0  0  0
   19.0986  -10.9960  -15.3834 C   0  0  0  0  0  0  0  0  0  0  0  0
   17.9180  -10.1749  -15.0466 C   0  0  0  0  0  0  0  0  0  0  0  0
   17.1295   -9.7957  -16.2535 C   0  0  0  0  0  0  0  0  0  0  0  0
   15.9621   -8.9164  -15.8183 C   0  0  0  0  0  0  0  0  0  0  0  0
   15.2939   -8.5405  -17.0727 N   0  0  0  0  0  0  0  0  0  0  0  0
   20.8685   -9.2129  -15.3265 C   0  0  0  0  0  0  0  0  0  0  0  0
   21.5442   -9.3357  -14.2397 O   0  0  0  0  0  0  0  0  0  0  0  0
   23.4086   -4.1095  -15.2136 N   0  0  0  0  0  0  0  0  0  0  0  0
   22.0169   -4.3916  -15.2020 C   0  0  0  0  0  0  0  0  0  0  0  0
   21.2782   -3.5988  -14.5310 O   0  0  0  0  0  0  0  0  0  0  0  0
   21.4621   -5.5387  -15.9288 C   0  0  0  0  0  0  0  0  0  0  0  0
   21.3583   -6.7647  -15.0224 C   0  0  2  0  0  0  0  0  0  0  0  0
   20.7735   -7.8403  -15.7825 N   0  0  0  0  0  0  0  0  0  0  0  0
   20.5600   -6.4233  -13.8194 C   0  0  0  0  0  0  0  0  0  0  0  0
   21.0556   -6.0943  -12.5914 O   0  0  0  0  0  0  0  0  0  0  0  0
   19.2908   -6.4419  -13.9620 O   0  0  0  0  0  0  0  0  0  0  0  0
  2  1  1  1
  2  4  1  0
  3  2  1  0
  4  5  1  6
  6  4  1  0
  6  7  2  0
  8  6  1  0
  9  8  1  0
  9 10  1  1
 11 10  1  0
 12 11  1  0
 13 12  1  0
 13 14  1  0
 15  9  1  0
 16 15  2  0
 18 17  1  0
 18 20  1  0
 19 18  2  0
 21 20  1  6
 21 22  1  0
 22 15  1  0
 23 21  1  0
 24 23  1  0
 25 23  2  0
M  END
$$$$
