VKN.pdb
     RDKit          3D

 25 24  0  0  1  0  0  0  0  0999 V2000
   12.4216  -12.9907  -14.1625 C   0  0  0  0  0  0  0  0  0  0  0  0
   13.0175  -11.6227  -14.1280 C   0  0  1  0  0  0  0  0  0  0  0  0
   12.3472  -10.7974  -13.0598 C   0  0  0  0  0  0  0  0  0  0  0  0
   14.5204  -11.6226  -13.9849 C   0  0  2  0  0  0  0  0  0  0  0  0
   14.9311  -12.6434  -13.0410 N   0  0  0  0  0  0  0  0  0  0  0  0
   15.0736  -10.2951  -13.6353 C   0  0  0  0  0  0  0  0  0  0  0  0
   14.9730   -9.3303  -14.4629 O   0  0  0  0  0  0  0  0  0  0  0  0
   15.7216  -10.0104  -12.4201 N   0  0  0  0  0  0  0  0  0  0  0  0
   16.2855   -8.6610  -12.1009 C   0  0  1  0  0  0  0  0  0  0  0  0
   15.5928   -8.3300  -10.8254 C   0  0  0  0  0  0  0  0  0  0  0  0
   15.8209   -7.0278  -10.1668 C   0  0  0  0  0  0  0  0  0  0  0  0
   14.9394   -6.8314   -8.9808 C   0  0  0  0  0  0  0  0  0  0  0  0
   15.1099   -5.4026   -8.4762 C   0  0  0  0  0  0  0  0  0  0  0  0
   14.0505   -5.2360   -7.4706 N   0  0  0  0  0  0  0  0  0  0  0  0
   17.7092   -8.6596  -12.1395 C   0  0  0  0  0  0  0  0  0  0  0  0
   18.3619   -9.7443  -11.9159 O   0  0  0  0  0  0  0  0  0  0  0  0
   22.1730   -8.3037  -14.4480 N   0  0  0  0  0  0  0  0  0  0  0  0
   20.9531   -8.8088  -14.9708 C   0  0  0  0  0  0  0  0  0  0  0  0
   21.0211   -9.4326  -16.0801 O   0  0  0  0  0  0  0  0  0  0  0  0
   19.6812   -8.6205  -14.2646 C   0  0  0  0  0  0  0  0  0  0  0  0
   19.8597   -7.7192  -13.0434 C   0  0  2  0  0  0  0  0  0  0  0  0
   18.5699   -7.5299  -12.4292 N   0  0  0  0  0  0  0  0  0  0  0  0
   20.4804   -6.4383  -13.4615 C   0  0  0  0  0  0  0  0  0  0  0  0
   21.7801   -6.0721  -13.2656 O   0  0  0  0  0  0  0  0  0  0  0  0
   19.7142   -5.6107  -14.0613 O   0  0  0  0  0  0  0  0  0  0  0  0
  2  1  1  1
  2  4  1  0
  3  2  1  0
  4  5  1  1
  6  4  1  0
  6  7  2  0
  8  6  1  0
  9  8  1  0
  9 10  1  1
 11 10  1  0
 12 11  1  0
 13 12  1  0
 13 14  1  0
 15  9  1  0
 16 15  2  0
 18 17  1  0
 18 20  1  0
 19 18  2  0
 21 20  1  6
 21 22  1  0
 22 15  1  0
 23 21  1  0
 24 23  1  0
 25 23  2  0
M  END
$$$$
