VKN.pdb
     RDKit          3D

 25 24  0  0  1  0  0  0  0  0999 V2000
   26.1708  -21.6512  -11.1415 C   0  0  0  0  0  0  0  0  0  0  0  0
   26.9703  -20.6322  -11.8832 C   0  0  1  0  0  0  0  0  0  0  0  0
   28.4414  -20.8706  -11.6582 C   0  0  0  0  0  0  0  0  0  0  0  0
   26.6277  -20.5480  -13.3511 C   0  0  2  0  0  0  0  0  0  0  0  0
   27.6685  -19.8356  -14.0656 N   0  0  0  0  0  0  0  0  0  0  0  0
   25.2897  -19.9690  -13.6061 C   0  0  0  0  0  0  0  0  0  0  0  0
   24.8312  -19.0694  -12.8275 O   0  0  0  0  0  0  0  0  0  0  0  0
   24.4614  -20.3491  -14.6771 N   0  0  0  0  0  0  0  0  0  0  0  0
   23.1070  -19.7530  -14.9033 C   0  0  1  0  0  0  0  0  0  0  0  0
   23.2590  -19.1429  -16.2529 C   0  0  0  0  0  0  0  0  0  0  0  0
   23.3165  -17.6752  -16.4076 C   0  0  0  0  0  0  0  0  0  0  0  0
   23.4013  -17.2598  -17.8368 C   0  0  0  0  0  0  0  0  0  0  0  0
   23.6509  -15.7566  -17.8949 C   0  0  0  0  0  0  0  0  0  0  0  0
   23.7142  -15.4470  -19.3307 N   0  0  0  0  0  0  0  0  0  0  0  0
   22.0677  -20.7012  -14.6821 C   0  0  0  0  0  0  0  0  0  0  0  0
   22.2993  -21.7647  -13.9979 O   0  0  0  0  0  0  0  0  0  0  0  0
   17.7468  -22.2636  -12.6381 N   0  0  0  0  0  0  0  0  0  0  0  0
   18.9283  -21.7134  -12.0745 C   0  0  0  0  0  0  0  0  0  0  0  0
   19.0833  -21.8576  -10.8177 O   0  0  0  0  0  0  0  0  0  0  0  0
   19.9186  -21.0160  -12.9021 C   0  0  0  0  0  0  0  0  0  0  0  0
   19.6206  -21.2033  -14.3892 C   0  0  2  0  0  0  0  0  0  0  0  0
   20.6966  -20.6117  -15.1436 N   0  0  0  0  0  0  0  0  0  0  0  0
   18.3052  -20.5967  -14.7095 C   0  0  0  0  0  0  0  0  0  0  0  0
   17.2493  -21.2292  -15.2984 O   0  0  0  0  0  0  0  0  0  0  0  0
   18.1617  -19.3662  -14.3980 O   0  0  0  0  0  0  0  0  0  0  0  0
  2  1  1  6
  2  4  1  0
  3  2  1  0
  4  5  1  6
  6  4  1  0
  6  7  2  0
  8  6  1  0
  9  8  1  0
  9 10  1  6
 11 10  1  0
 12 11  1  0
 13 12  1  0
 13 14  1  0
 15  9  1  0
 16 15  2  0
 18 17  1  0
 18 20  1  0
 19 18  2  0
 21 20  1  1
 21 22  1  0
 22 15  1  0
 23 21  1  0
 24 23  1  0
 25 23  2  0
M  END
$$$$
