VKN.pdb
     RDKit          3D

 25 24  0  0  1  0  0  0  0  0999 V2000
   20.0847  -16.8489  -14.3431 C   0  0  0  0  0  0  0  0  0  0  0  0
   20.2222  -17.2823  -15.7647 C   0  0  1  0  0  0  0  0  0  0  0  0
   19.7014  -18.6874  -15.9258 C   0  0  0  0  0  0  0  0  0  0  0  0
   19.5924  -16.3277  -16.7502 C   0  0  2  0  0  0  0  0  0  0  0  0
   19.4645  -16.9629  -18.0469 N   0  0  0  0  0  0  0  0  0  0  0  0
   20.2994  -15.0305  -16.8400 C   0  0  0  0  0  0  0  0  0  0  0  0
   20.5438  -14.3687  -15.7779 O   0  0  0  0  0  0  0  0  0  0  0  0
   20.7353  -14.4565  -18.0476 N   0  0  0  0  0  0  0  0  0  0  0  0
   21.4189  -13.1263  -18.1105 C   0  0  1  0  0  0  0  0  0  0  0  0
   22.4011  -13.3349  -19.2098 C   0  0  0  0  0  0  0  0  0  0  0  0
   23.6513  -14.0817  -18.9635 C   0  0  0  0  0  0  0  0  0  0  0  0
   24.5535  -14.0818  -20.1502 C   0  0  0  0  0  0  0  0  0  0  0  0
   25.7963  -14.9012  -19.8195 C   0  0  0  0  0  0  0  0  0  0  0  0
   26.5729  -14.9162  -21.0676 N   0  0  0  0  0  0  0  0  0  0  0  0
   20.4851  -12.0553  -18.2065 C   0  0  0  0  0  0  0  0  0  0  0  0
   19.3925  -12.2089  -18.8661 O   0  0  0  0  0  0  0  0  0  0  0  0
   17.1341   -8.2160  -17.7675 N   0  0  0  0  0  0  0  0  0  0  0  0
   17.9728   -8.3180  -16.6262 C   0  0  0  0  0  0  0  0  0  0  0  0
   17.8337   -7.4204  -15.7321 O   0  0  0  0  0  0  0  0  0  0  0  0
   18.9479   -9.4051  -16.4873 C   0  0  0  0  0  0  0  0  0  0  0  0
   19.6017   -9.7307  -17.8297 C   0  0  2  0  0  0  0  0  0  0  0  0
   20.6067  -10.7399  -17.6098 N   0  0  0  0  0  0  0  0  0  0  0  0
   20.1649   -8.4908  -18.4184 C   0  0  0  0  0  0  0  0  0  0  0  0
   19.4584   -7.5003  -19.0361 O   0  0  0  0  0  0  0  0  0  0  0  0
   21.4314   -8.3505  -18.3301 O   0  0  0  0  0  0  0  0  0  0  0  0
  2  1  1  1
  2  4  1  0
  3  2  1  0
  4  5  1  6
  6  4  1  0
  6  7  2  0
  8  6  1  0
  9  8  1  0
  9 10  1  6
 11 10  1  0
 12 11  1  0
 13 12  1  0
 13 14  1  0
 15  9  1  0
 16 15  2  0
 18 17  1  0
 18 20  1  0
 19 18  2  0
 21 20  1  1
 21 22  1  0
 22 15  1  0
 23 21  1  0
 24 23  1  0
 25 23  2  0
M  END
$$$$
