VKN.pdb
     RDKit          3D

 25 24  0  0  1  0  0  0  0  0999 V2000
   10.5802  -19.3561  -13.0735 C   0  0  0  0  0  0  0  0  0  0  0  0
   11.4433  -18.1385  -13.0911 C   0  0  1  0  0  0  0  0  0  0  0  0
   11.0206  -17.1937  -11.9956 C   0  0  0  0  0  0  0  0  0  0  0  0
   12.9205  -18.4451  -13.0369 C   0  0  2  0  0  0  0  0  0  0  0  0
   13.2274  -19.2085  -11.8433 N   0  0  0  0  0  0  0  0  0  0  0  0
   13.7717  -17.2399  -13.1534 C   0  0  0  0  0  0  0  0  0  0  0  0
   14.2113  -16.6720  -12.0999 O   0  0  0  0  0  0  0  0  0  0  0  0
   14.1431  -16.6572  -14.3782 N   0  0  0  0  0  0  0  0  0  0  0  0
   15.0651  -15.4813  -14.4678 C   0  0  1  0  0  0  0  0  0  0  0  0
   16.0870  -15.9626  -15.4376 C   0  0  0  0  0  0  0  0  0  0  0  0
   17.4009  -16.4419  -14.9628 C   0  0  0  0  0  0  0  0  0  0  0  0
   18.2648  -16.9228  -16.0785 C   0  0  0  0  0  0  0  0  0  0  0  0
   19.5749  -17.4399  -15.4944 C   0  0  0  0  0  0  0  0  0  0  0  0
   20.3071  -17.9808  -16.6487 N   0  0  0  0  0  0  0  0  0  0  0  0
   14.3593  -14.2752  -14.7428 C   0  0  0  0  0  0  0  0  0  0  0  0
   13.2065  -14.3170  -15.3101 O   0  0  0  0  0  0  0  0  0  0  0  0
   11.3129   -9.9734  -12.9703 N   0  0  0  0  0  0  0  0  0  0  0  0
   11.8438  -10.7011  -14.0681 C   0  0  0  0  0  0  0  0  0  0  0  0
   11.5372  -10.2840  -15.2327 O   0  0  0  0  0  0  0  0  0  0  0  0
   12.7030  -11.8729  -13.8663 C   0  0  0  0  0  0  0  0  0  0  0  0
   13.9544  -11.7928  -14.7398 C   0  0  2  0  0  0  0  0  0  0  0  0
   14.7910  -12.9260  -14.4355 N   0  0  0  0  0  0  0  0  0  0  0  0
   14.6428  -10.5009  -14.4991 C   0  0  0  0  0  0  0  0  0  0  0  0
   14.6615   -9.4294  -15.3438 O   0  0  0  0  0  0  0  0  0  0  0  0
   15.2721  -10.3958  -13.3926 O   0  0  0  0  0  0  0  0  0  0  0  0
  2  1  1  1
  2  4  1  0
  3  2  1  0
  4  5  1  1
  6  4  1  0
  6  7  2  0
  8  6  1  0
  9  8  1  0
  9 10  1  6
 11 10  1  0
 12 11  1  0
 13 12  1  0
 13 14  1  0
 15  9  1  0
 16 15  2  0
 18 17  1  0
 18 20  1  0
 19 18  2  0
 21 20  1  1
 21 22  1  0
 22 15  1  0
 23 21  1  0
 24 23  1  0
 25 23  2  0
M  END
$$$$
