VKN.pdb
     RDKit          3D

 25 24  0  0  1  0  0  0  0  0999 V2000
   24.6500  -12.5683  -14.9654 C   0  0  0  0  0  0  0  0  0  0  0  0
   23.6450  -11.5088  -15.2739 C   0  0  1  0  0  0  0  0  0  0  0  0
   24.3300  -10.3138  -15.8856 C   0  0  0  0  0  0  0  0  0  0  0  0
   22.4939  -11.9971  -16.1199 C   0  0  2  0  0  0  0  0  0  0  0  0
   22.9940  -12.6278  -17.3255 N   0  0  0  0  0  0  0  0  0  0  0  0
   21.5021  -10.9409  -16.4220 C   0  0  0  0  0  0  0  0  0  0  0  0
   21.5782  -10.2976  -17.5203 O   0  0  0  0  0  0  0  0  0  0  0  0
   20.4492  -10.5838  -15.5609 N   0  0  0  0  0  0  0  0  0  0  0  0
   19.4982   -9.4685  -15.8652 C   0  0  1  0  0  0  0  0  0  0  0  0
   18.1774  -10.1200  -15.6473 C   0  0  0  0  0  0  0  0  0  0  0  0
   16.9309   -9.3337  -15.7437 C   0  0  0  0  0  0  0  0  0  0  0  0
   15.7273  -10.1342  -15.3794 C   0  0  0  0  0  0  0  0  0  0  0  0
   14.4895   -9.2596  -15.5468 C   0  0  0  0  0  0  0  0  0  0  0  0
   13.3607  -10.1561  -15.2581 N   0  0  0  0  0  0  0  0  0  0  0  0
   19.8187   -8.2864  -15.1383 C   0  0  0  0  0  0  0  0  0  0  0  0
   20.5572   -8.3548  -14.0883 O   0  0  0  0  0  0  0  0  0  0  0  0
   22.0187   -4.6056  -12.5964 N   0  0  0  0  0  0  0  0  0  0  0  0
   21.9790   -4.6785  -14.0140 C   0  0  0  0  0  0  0  0  0  0  0  0
   22.4537   -3.6822  -14.6514 O   0  0  0  0  0  0  0  0  0  0  0  0
   21.4197   -5.8452  -14.7053 C   0  0  0  0  0  0  0  0  0  0  0  0
   19.8919   -5.8130  -14.6881 C   0  0  2  0  0  0  0  0  0  0  0  0
   19.4077   -6.9330  -15.4549 N   0  0  0  0  0  0  0  0  0  0  0  0
   19.4193   -4.5134  -15.2253 C   0  0  0  0  0  0  0  0  0  0  0  0
   18.9250   -3.4725  -14.4946 O   0  0  0  0  0  0  0  0  0  0  0  0
   19.4887   -4.3693  -16.4926 O   0  0  0  0  0  0  0  0  0  0  0  0
  2  1  1  6
  2  4  1  0
  3  2  1  0
  4  5  1  6
  6  4  1  0
  6  7  2  0
  8  6  1  0
  9  8  1  0
  9 10  1  1
 11 10  1  0
 12 11  1  0
 13 12  1  0
 13 14  1  0
 15  9  1  0
 16 15  2  0
 18 17  1  0
 18 20  1  0
 19 18  2  0
 21 20  1  6
 21 22  1  0
 22 15  1  0
 23 21  1  0
 24 23  1  0
 25 23  2  0
M  END
$$$$
