VKN.pdb
     RDKit          3D

 25 24  0  0  1  0  0  0  0  0999 V2000
   17.1367  -22.8954  -12.7916 C   0  0  0  0  0  0  0  0  0  0  0  0
   16.3956  -23.4479  -11.6199 C   0  0  1  0  0  0  0  0  0  0  0  0
   16.0573  -24.8964  -11.8628 C   0  0  0  0  0  0  0  0  0  0  0  0
   17.1086  -23.2451  -10.3047 C   0  0  2  0  0  0  0  0  0  0  0  0
   18.5225  -23.0218  -10.5338 N   0  0  0  0  0  0  0  0  0  0  0  0
   16.8739  -24.3411   -9.3381 C   0  0  0  0  0  0  0  0  0  0  0  0
   15.6813  -24.6479   -9.0074 O   0  0  0  0  0  0  0  0  0  0  0  0
   17.9009  -25.0926   -8.7395 N   0  0  0  0  0  0  0  0  0  0  0  0
   17.6355  -26.1599   -7.7240 C   0  0  1  0  0  0  0  0  0  0  0  0
   18.8201  -27.0463   -7.8900 C   0  0  0  0  0  0  0  0  0  0  0  0
   18.8325  -28.0895   -8.9355 C   0  0  0  0  0  0  0  0  0  0  0  0
   20.0986  -28.0870   -9.7223 C   0  0  0  0  0  0  0  0  0  0  0  0
   19.9602  -29.0762  -10.8745 C   0  0  0  0  0  0  0  0  0  0  0  0
   21.2545  -29.0190  -11.5693 N   0  0  0  0  0  0  0  0  0  0  0  0
   17.3525  -25.6108   -6.4407 C   0  0  0  0  0  0  0  0  0  0  0  0
   17.7920  -24.4442   -6.1267 O   0  0  0  0  0  0  0  0  0  0  0  0
   14.7530  -22.4083   -3.2008 N   0  0  0  0  0  0  0  0  0  0  0  0
   14.4849  -23.7390   -3.6181 C   0  0  0  0  0  0  0  0  0  0  0  0
   13.5828  -24.3691   -2.9751 O   0  0  0  0  0  0  0  0  0  0  0  0
   15.2116  -24.3523   -4.7350 C   0  0  0  0  0  0  0  0  0  0  0  0
   16.1393  -25.4625   -4.2425 C   0  0  2  0  0  0  0  0  0  0  0  0
   16.5749  -26.2268   -5.3839 N   0  0  0  0  0  0  0  0  0  0  0  0
   15.4259  -26.2952   -3.2432 C   0  0  0  0  0  0  0  0  0  0  0  0
   15.4103  -26.0958   -1.8935 O   0  0  0  0  0  0  0  0  0  0  0  0
   14.7676  -27.2878   -3.7046 O   0  0  0  0  0  0  0  0  0  0  0  0
  2  1  1  6
  2  4  1  0
  3  2  1  0
  4  5  1  6
  6  4  1  0
  6  7  2  0
  8  6  1  0
  9  8  1  0
  9 10  1  1
 11 10  1  0
 12 11  1  0
 13 12  1  0
 13 14  1  0
 15  9  1  0
 16 15  2  0
 18 17  1  0
 18 20  1  0
 19 18  2  0
 21 20  1  6
 21 22  1  0
 22 15  1  0
 23 21  1  0
 24 23  1  0
 25 23  2  0
M  END
$$$$
