WVF.pdb
     RDKit          3D

 33 35  0  0  1  0  0  0  0  0999 V2000
    5.9858  -18.3351   24.2295 N   0  0  0  0  0  0  0  0  0  0  0  0
    6.4642  -16.9488   24.1126 C   0  0  1  0  0  0  0  0  0  0  0  0
    6.8968  -16.4919   25.4728 C   0  0  0  0  0  0  0  0  0  0  0  0
    6.2740  -15.2748   25.9847 C   0  0  0  0  0  0  0  0  0  0  0  0
    5.1660  -15.2840   26.8218 C   0  0  0  0  0  0  0  0  0  0  0  0
    4.8279  -14.0055   27.0807 N   0  0  0  0  0  0  0  0  0  0  0  0
    5.6657  -13.1700   26.4507 C   0  0  0  0  0  0  0  0  0  0  0  0
    5.7093  -11.7962   26.4387 C   0  0  0  0  0  0  0  0  0  0  0  0
    6.6868  -11.1384   25.7222 C   0  0  0  0  0  0  0  0  0  0  0  0
    7.5984  -11.9316   25.0331 C   0  0  0  0  0  0  0  0  0  0  0  0
    7.5408  -13.3056   25.0549 C   0  0  0  0  0  0  0  0  0  0  0  0
    6.5729  -13.9558   25.7635 C   0  0  0  0  0  0  0  0  0  0  0  0
    7.5360  -16.8964   23.1084 C   0  0  0  0  0  0  0  0  0  0  0  0
    8.2280  -17.9451   22.8519 O   0  0  0  0  0  0  0  0  0  0  0  0
    8.9484  -13.1800   21.4954 C   0  0  0  0  0  0  0  0  0  0  0  0
    8.7407  -14.4145   20.6636 C   0  0  2  0  0  0  0  0  0  0  0  0
    7.3712  -14.3290   20.0288 C   0  0  0  0  0  0  0  0  0  0  0  0
    8.9114  -15.7079   21.4400 C   0  0  2  0  0  0  0  0  0  0  0  0
    7.8189  -15.6921   22.4132 N   0  0  0  0  0  0  0  0  0  0  0  0
   10.2122  -15.8175   22.1210 C   0  0  0  0  0  0  0  0  0  0  0  0
   11.2620  -15.4812   21.4690 O   0  0  0  0  0  0  0  0  0  0  0  0
   10.4522  -16.2545   23.4324 N   0  0  0  0  0  0  0  0  0  0  0  0
   11.7618  -16.2728   24.0546 C   0  0  1  0  0  0  0  0  0  0  0  0
   11.5705  -16.9686   25.4086 C   0  0  0  0  0  0  0  0  0  0  0  0
   10.5316  -16.2886   26.2230 C   0  0  0  0  0  0  0  0  0  0  0  0
   10.8223  -15.1836   27.0098 C   0  0  0  0  0  0  0  0  0  0  0  0
    9.8609  -14.5510   27.7677 C   0  0  0  0  0  0  0  0  0  0  0  0
    8.5559  -14.9965   27.7742 C   0  0  0  0  0  0  0  0  0  0  0  0
    8.2604  -16.0965   26.9926 C   0  0  0  0  0  0  0  0  0  0  0  0
    9.2277  -16.7374   26.2266 C   0  0  0  0  0  0  0  0  0  0  0  0
   12.7380  -17.0648   23.3052 C   0  0  0  0  0  0  0  0  0  0  0  0
   12.4233  -17.8270   22.1923 O   0  0  0  0  0  0  0  0  0  0  0  0
   13.9388  -17.0635   23.6813 O   0  0  0  0  0  0  0  0  0  0  0  0
  2  1  1  1
  2  3  1  0
  3  4  1  0
  4  5  2  0
  5  6  1  0
  7  6  1  0
  8  7  2  0
  9  8  1  0
 10 11  1  0
 10  9  2  0
 11 12  2  0
 12  4  1  0
 12  7  1  0
 13  2  1  0
 14 13  2  0
 16 15  1  1
 16 17  1  0
 18 19  1  1
 18 16  1  0
 19 13  1  0
 20 18  1  0
 21 20  2  0
 22 20  1  0
 23 22  1  0
 24 25  1  0
 23 24  1  1
 25 26  2  0
 26 27  1  0
 28 27  2  0
 29 28  1  0
 30 29  2  0
 30 25  1  0
 31 23  1  0
 31 32  1  0
 33 31  2  0
M  END
$$$$
