WVF.pdb
     RDKit          3D

 33 35  0  0  1  0  0  0  0  0999 V2000
    6.3075  -18.8573   25.0323 N   0  0  0  0  0  0  0  0  0  0  0  0
    6.6103  -17.4372   24.7956 C   0  0  1  0  0  0  0  0  0  0  0  0
    7.2479  -16.8868   26.0352 C   0  0  0  0  0  0  0  0  0  0  0  0
    6.8086  -15.5631   26.4664 C   0  0  0  0  0  0  0  0  0  0  0  0
    5.6301  -15.3462   27.1684 C   0  0  0  0  0  0  0  0  0  0  0  0
    5.5089  -14.0212   27.3813 N   0  0  0  0  0  0  0  0  0  0  0  0
    6.5540  -13.3710   26.8504 C   0  0  0  0  0  0  0  0  0  0  0  0
    6.8539  -12.0297   26.8385 C   0  0  0  0  0  0  0  0  0  0  0  0
    8.0121  -11.5821   26.2386 C   0  0  0  0  0  0  0  0  0  0  0  0
    8.8325  -12.5472   25.6636 C   0  0  0  0  0  0  0  0  0  0  0  0
    8.5177  -13.8858   25.6836 C   0  0  0  0  0  0  0  0  0  0  0  0
    7.3713  -14.3280   26.2768 C   0  0  0  0  0  0  0  0  0  0  0  0
    7.4576  -17.3223   23.6003 C   0  0  0  0  0  0  0  0  0  0  0  0
    8.2414  -18.2833   23.2734 O   0  0  0  0  0  0  0  0  0  0  0  0
    8.6226  -14.6667   19.5845 C   0  0  0  0  0  0  0  0  0  0  0  0
    7.8345  -14.9090   20.8410 C   0  0  2  0  0  0  0  0  0  0  0  0
    7.8219  -13.6273   21.6428 C   0  0  0  0  0  0  0  0  0  0  0  0
    8.3485  -16.0742   21.6673 C   0  0  2  0  0  0  0  0  0  0  0  0
    7.4212  -16.1535   22.7963 N   0  0  0  0  0  0  0  0  0  0  0  0
    9.7306  -15.8939   22.1420 C   0  0  0  0  0  0  0  0  0  0  0  0
   10.6617  -15.8177   21.2658 O   0  0  0  0  0  0  0  0  0  0  0  0
   10.1674  -15.7902   23.4711 N   0  0  0  0  0  0  0  0  0  0  0  0
   11.5510  -15.5930   23.8575 C   0  0  1  0  0  0  0  0  0  0  0  0
   11.5411  -14.4396   24.8693 C   0  0  0  0  0  0  0  0  0  0  0  0
   10.8701  -14.8360   26.1333 C   0  0  0  0  0  0  0  0  0  0  0  0
   10.2320  -16.0598   26.2732 C   0  0  0  0  0  0  0  0  0  0  0  0
    9.6073  -16.4302   27.4443 C   0  0  0  0  0  0  0  0  0  0  0  0
    9.5915  -15.5890   28.5369 C   0  0  0  0  0  0  0  0  0  0  0  0
   10.2254  -14.3689   28.4035 C   0  0  0  0  0  0  0  0  0  0  0  0
   10.8567  -13.9917   27.2235 C   0  0  0  0  0  0  0  0  0  0  0  0
   12.1224  -16.7531   24.5427 C   0  0  0  0  0  0  0  0  0  0  0  0
   11.4301  -17.9294   24.7783 O   0  0  0  0  0  0  0  0  0  0  0  0
   13.3123  -16.6943   24.9478 O   0  0  0  0  0  0  0  0  0  0  0  0
  2  1  1  1
  2  3  1  0
  3  4  1  0
  4  5  2  0
  5  6  1  0
  7  6  1  0
  8  7  2  0
  9  8  1  0
 10 11  1  0
 10  9  2  0
 11 12  2  0
 12  4  1  0
 12  7  1  0
 13  2  1  0
 14 13  2  0
 16 15  1  6
 16 17  1  0
 18 19  1  1
 18 16  1  0
 19 13  1  0
 20 18  1  0
 21 20  2  0
 22 20  1  0
 23 22  1  0
 24 25  1  0
 23 24  1  1
 25 26  2  0
 26 27  1  0
 28 27  2  0
 29 28  1  0
 30 29  2  0
 30 25  1  0
 31 23  1  0
 31 32  1  0
 33 31  2  0
M  END
$$$$
