WVF.pdb
     RDKit          3D

 33 35  0  0  1  0  0  0  0  0999 V2000
    5.7148  -17.9328   23.8823 N   0  0  0  0  0  0  0  0  0  0  0  0
    6.3457  -16.6042   23.8460 C   0  0  1  0  0  0  0  0  0  0  0  0
    6.8096  -16.2738   25.2323 C   0  0  0  0  0  0  0  0  0  0  0  0
    6.0682  -15.2357   25.9421 C   0  0  0  0  0  0  0  0  0  0  0  0
    4.9492  -15.5004   26.7209 C   0  0  0  0  0  0  0  0  0  0  0  0
    4.4907  -14.3292   27.2044 N   0  0  0  0  0  0  0  0  0  0  0  0
    5.2610  -13.3195   26.7753 C   0  0  0  0  0  0  0  0  0  0  0  0
    5.1791  -11.9704   27.0251 C   0  0  0  0  0  0  0  0  0  0  0  0
    6.1064  -11.1059   26.4826 C   0  0  0  0  0  0  0  0  0  0  0  0
    7.1002  -11.6709   25.6900 C   0  0  0  0  0  0  0  0  0  0  0  0
    7.1679  -13.0232   25.4492 C   0  0  0  0  0  0  0  0  0  0  0  0
    6.2497  -13.8780   25.9857 C   0  0  0  0  0  0  0  0  0  0  0  0
    7.4290  -16.6168   22.8530 C   0  0  0  0  0  0  0  0  0  0  0  0
    8.0049  -17.7202   22.5442 O   0  0  0  0  0  0  0  0  0  0  0  0
    9.0584  -12.9865   21.2770 C   0  0  0  0  0  0  0  0  0  0  0  0
    8.7926  -14.2058   20.4394 C   0  0  2  0  0  0  0  0  0  0  0  0
    7.4299  -14.0514   19.8032 C   0  0  0  0  0  0  0  0  0  0  0  0
    8.8996  -15.5094   21.2101 C   0  0  2  0  0  0  0  0  0  0  0  0
    7.8509  -15.4156   22.2261 N   0  0  0  0  0  0  0  0  0  0  0  0
   10.2151  -15.7145   21.8388 C   0  0  0  0  0  0  0  0  0  0  0  0
   11.2587  -15.5631   21.1118 O   0  0  0  0  0  0  0  0  0  0  0  0
   10.4761  -16.0628   23.1725 N   0  0  0  0  0  0  0  0  0  0  0  0
   11.7966  -16.3681   23.6879 C   0  0  1  0  0  0  0  0  0  0  0  0
   11.5894  -16.7695   25.1541 C   0  0  0  0  0  0  0  0  0  0  0  0
   10.9895  -15.6601   25.9380 C   0  0  0  0  0  0  0  0  0  0  0  0
   11.6949  -14.5015   26.2287 C   0  0  0  0  0  0  0  0  0  0  0  0
   11.1417  -13.4706   26.9569 C   0  0  0  0  0  0  0  0  0  0  0  0
    9.8493  -13.5508   27.4313 C   0  0  0  0  0  0  0  0  0  0  0  0
    9.1420  -14.7022   27.1449 C   0  0  0  0  0  0  0  0  0  0  0  0
    9.6968  -15.7444   26.4105 C   0  0  0  0  0  0  0  0  0  0  0  0
   12.4192  -17.5114   23.0193 C   0  0  0  0  0  0  0  0  0  0  0  0
   13.7083  -17.9484   23.2760 O   0  0  0  0  0  0  0  0  0  0  0  0
   11.7571  -18.1460   22.1577 O   0  0  0  0  0  0  0  0  0  0  0  0
  2  1  1  1
  2  3  1  0
  3  4  1  0
  4  5  2  0
  5  6  1  0
  7  6  1  0
  8  7  2  0
  9  8  1  0
 10 11  1  0
 10  9  2  0
 11 12  2  0
 12  4  1  0
 12  7  1  0
 13  2  1  0
 14 13  2  0
 16 15  1  1
 16 17  1  0
 18 19  1  1
 18 16  1  0
 19 13  1  0
 20 18  1  0
 21 20  2  0
 22 20  1  0
 23 22  1  0
 24 25  1  0
 23 24  1  1
 25 26  2  0
 26 27  1  0
 28 27  2  0
 29 28  1  0
 30 29  2  0
 30 25  1  0
 31 23  1  0
 31 32  1  0
 33 31  2  0
M  END
$$$$
