WVF.pdb
     RDKit          3D

 33 35  0  0  1  0  0  0  0  0999 V2000
    5.3745  -18.7801   24.0685 N   0  0  0  0  0  0  0  0  0  0  0  0
    6.0475  -17.4720   24.0786 C   0  0  1  0  0  0  0  0  0  0  0  0
    6.5852  -17.2385   25.4579 C   0  0  0  0  0  0  0  0  0  0  0  0
    6.3301  -15.9279   26.0481 C   0  0  0  0  0  0  0  0  0  0  0  0
    5.1032  -15.5647   26.5879 C   0  0  0  0  0  0  0  0  0  0  0  0
    5.1960  -14.2901   27.0152 N   0  0  0  0  0  0  0  0  0  0  0  0
    6.4256  -13.8122   26.7776 C   0  0  0  0  0  0  0  0  0  0  0  0
    6.9697  -12.5806   27.0542 C   0  0  0  0  0  0  0  0  0  0  0  0
    8.2831  -12.3127   26.7304 C   0  0  0  0  0  0  0  0  0  0  0  0
    9.0000  -13.3390   26.1239 C   0  0  0  0  0  0  0  0  0  0  0  0
    8.4406  -14.5659   25.8533 C   0  0  0  0  0  0  0  0  0  0  0  0
    7.1408  -14.8301   26.1734 C   0  0  0  0  0  0  0  0  0  0  0  0
    7.0834  -17.4597   23.0361 C   0  0  0  0  0  0  0  0  0  0  0  0
    7.8581  -18.4708   22.8881 O   0  0  0  0  0  0  0  0  0  0  0  0
    9.6127  -14.4796   19.9739 C   0  0  0  0  0  0  0  0  0  0  0  0
    8.3813  -14.8616   20.7461 C   0  0  2  0  0  0  0  0  0  0  0  0
    7.9405  -13.6610   21.5524 C   0  0  0  0  0  0  0  0  0  0  0  0
    8.5699  -16.0824   21.6285 C   0  0  2  0  0  0  0  0  0  0  0  0
    7.2402  -16.3357   22.1842 N   0  0  0  0  0  0  0  0  0  0  0  0
    9.5537  -15.8830   22.7057 C   0  0  0  0  0  0  0  0  0  0  0  0
    9.1351  -15.4179   23.8232 O   0  0  0  0  0  0  0  0  0  0  0  0
   10.9306  -16.1481   22.6608 N   0  0  0  0  0  0  0  0  0  0  0  0
   11.8440  -15.8837   23.7554 C   0  0  1  0  0  0  0  0  0  0  0  0
   11.5178  -14.4640   24.2372 C   0  0  0  0  0  0  0  0  0  0  0  0
   11.1194  -14.4575   25.6677 C   0  0  0  0  0  0  0  0  0  0  0  0
   12.0045  -14.1011   26.6746 C   0  0  0  0  0  0  0  0  0  0  0  0
   11.6385  -14.0951   28.0031 C   0  0  0  0  0  0  0  0  0  0  0  0
   10.3623  -14.4473   28.3890 C   0  0  0  0  0  0  0  0  0  0  0  0
    9.4764  -14.8031   27.3906 C   0  0  0  0  0  0  0  0  0  0  0  0
    9.8421  -14.8104   26.0492 C   0  0  0  0  0  0  0  0  0  0  0  0
   11.6392  -16.7762   24.8971 C   0  0  0  0  0  0  0  0  0  0  0  0
   10.7046  -17.7983   24.9206 O   0  0  0  0  0  0  0  0  0  0  0  0
   12.3464  -16.6190   25.9259 O   0  0  0  0  0  0  0  0  0  0  0  0
  2  1  1  1
  2  3  1  0
  3  4  1  0
  4  5  2  0
  5  6  1  0
  7  6  1  0
  8  7  2  0
  9  8  1  0
 10 11  1  0
 10  9  2  0
 11 12  2  0
 12  4  1  0
 12  7  1  0
 13  2  1  0
 14 13  2  0
 16 15  1  1
 16 17  1  0
 18 19  1  1
 18 16  1  0
 19 13  1  0
 20 18  1  0
 21 20  2  0
 22 20  1  0
 23 22  1  0
 24 25  1  0
 23 24  1  1
 25 26  2  0
 26 27  1  0
 28 27  2  0
 29 28  1  0
 30 29  2  0
 30 25  1  0
 31 23  1  0
 31 32  1  0
 33 31  2  0
M  END
$$$$
