WVF.pdb
     RDKit          3D

 33 35  0  0  1  0  0  0  0  0999 V2000
    9.2669  -19.0712   20.0327 N   0  0  0  0  0  0  0  0  0  0  0  0
    9.4468  -17.6117   19.9914 C   0  0  1  0  0  0  0  0  0  0  0  0
    8.4447  -17.0487   19.0296 C   0  0  0  0  0  0  0  0  0  0  0  0
    8.4189  -15.5963   18.8846 C   0  0  0  0  0  0  0  0  0  0  0  0
    9.0204  -14.9287   17.8258 C   0  0  0  0  0  0  0  0  0  0  0  0
    8.8394  -13.6061   18.0094 N   0  0  0  0  0  0  0  0  0  0  0  0
    8.1485  -13.3870   19.1370 C   0  0  0  0  0  0  0  0  0  0  0  0
    7.7268  -12.2095   19.7068 C   0  0  0  0  0  0  0  0  0  0  0  0
    7.0027  -12.2257   20.8803 C   0  0  0  0  0  0  0  0  0  0  0  0
    6.7348  -13.4737   21.4332 C   0  0  0  0  0  0  0  0  0  0  0  0
    7.1645  -14.6431   20.8507 C   0  0  0  0  0  0  0  0  0  0  0  0
    7.8815  -14.6263   19.6900 C   0  0  0  0  0  0  0  0  0  0  0  0
    9.3169  -17.0756   21.3536 C   0  0  0  0  0  0  0  0  0  0  0  0
    9.6288  -15.8557   21.5965 O   0  0  0  0  0  0  0  0  0  0  0  0
    7.3567  -19.3301   24.3415 C   0  0  0  0  0  0  0  0  0  0  0  0
    7.4103  -17.8295   24.2759 C   0  0  2  0  0  0  0  0  0  0  0  0
    6.2385  -17.3528   23.4481 C   0  0  0  0  0  0  0  0  0  0  0  0
    8.7237  -17.2898   23.7391 C   0  0  2  0  0  0  0  0  0  0  0  0
    8.8482  -17.8954   22.4129 N   0  0  0  0  0  0  0  0  0  0  0  0
    9.8857  -17.6303   24.5767 C   0  0  0  0  0  0  0  0  0  0  0  0
   10.3899  -18.8016   24.4573 O   0  0  0  0  0  0  0  0  0  0  0  0
   10.5292  -16.8086   25.5142 N   0  0  0  0  0  0  0  0  0  0  0  0
   11.5856  -17.2600   26.3990 C   0  0  1  0  0  0  0  0  0  0  0  0
   12.2313  -15.9868   26.9611 C   0  0  0  0  0  0  0  0  0  0  0  0
   11.2054  -15.0356   27.4589 C   0  0  0  0  0  0  0  0  0  0  0  0
   10.4148  -14.2907   26.5961 C   0  0  0  0  0  0  0  0  0  0  0  0
    9.4627  -13.4063   27.0548 C   0  0  0  0  0  0  0  0  0  0  0  0
    9.2555  -13.2245   28.4059 C   0  0  0  0  0  0  0  0  0  0  0  0
   10.0398  -13.9637   29.2700 C   0  0  0  0  0  0  0  0  0  0  0  0
   11.0015  -14.8570   28.8110 C   0  0  0  0  0  0  0  0  0  0  0  0
   11.0839  -18.0216   27.5437 C   0  0  0  0  0  0  0  0  0  0  0  0
   11.8975  -18.6952   28.4397 O   0  0  0  0  0  0  0  0  0  0  0  0
    9.8421  -18.0773   27.7393 O   0  0  0  0  0  0  0  0  0  0  0  0
  2  1  1  1
  2  3  1  0
  3  4  1  0
  4  5  2  0
  5  6  1  0
  7  6  1  0
  8  7  2  0
  9  8  1  0
 10 11  1  0
 10  9  2  0
 11 12  2  0
 12  4  1  0
 12  7  1  0
 13  2  1  0
 14 13  2  0
 16 15  1  6
 16 17  1  0
 18 19  1  6
 18 16  1  0
 19 13  1  0
 20 18  1  0
 21 20  2  0
 22 20  1  0
 23 22  1  0
 24 25  1  0
 23 24  1  1
 25 26  2  0
 26 27  1  0
 28 27  2  0
 29 28  1  0
 30 29  2  0
 30 25  1  0
 31 23  1  0
 31 32  1  0
 33 31  2  0
M  END
$$$$
