WVF.pdb
     RDKit          3D

 33 35  0  0  1  0  0  0  0  0999 V2000
    8.2711  -17.2677   20.8760 N   0  0  0  0  0  0  0  0  0  0  0  0
    8.7553  -16.3053   21.8779 C   0  0  1  0  0  0  0  0  0  0  0  0
    7.6272  -15.3765   22.2108 C   0  0  0  0  0  0  0  0  0  0  0  0
    7.2823  -14.3764   21.2048 C   0  0  0  0  0  0  0  0  0  0  0  0
    6.1372  -13.5938   21.2745 C   0  0  0  0  0  0  0  0  0  0  0  0
    6.1045  -12.8039   20.1833 N   0  0  0  0  0  0  0  0  0  0  0  0
    7.1750  -13.0385   19.4115 C   0  0  0  0  0  0  0  0  0  0  0  0
    7.5580  -12.4630   18.2234 C   0  0  0  0  0  0  0  0  0  0  0  0
    8.7270  -12.8557   17.6063 C   0  0  0  0  0  0  0  0  0  0  0  0
    9.4711  -13.8424   18.2450 C   0  0  0  0  0  0  0  0  0  0  0  0
    9.0737  -14.4087   19.4336 C   0  0  0  0  0  0  0  0  0  0  0  0
    7.9166  -14.0202   20.0433 C   0  0  0  0  0  0  0  0  0  0  0  0
    9.2690  -17.0436   23.0402 C   0  0  0  0  0  0  0  0  0  0  0  0
    8.4873  -17.8033   23.7156 O   0  0  0  0  0  0  0  0  0  0  0  0
   12.5389  -18.9896   22.9891 C   0  0  0  0  0  0  0  0  0  0  0  0
   12.4772  -18.1446   24.2305 C   0  0  2  0  0  0  0  0  0  0  0  0
   13.1162  -18.9205   25.3598 C   0  0  0  0  0  0  0  0  0  0  0  0
   11.0729  -17.6954   24.5923 C   0  0  2  0  0  0  0  0  0  0  0  0
   10.6286  -16.9264   23.4295 N   0  0  0  0  0  0  0  0  0  0  0  0
   11.0146  -16.8729   25.8122 C   0  0  0  0  0  0  0  0  0  0  0  0
   11.6651  -15.7696   25.8245 O   0  0  0  0  0  0  0  0  0  0  0  0
   10.3144  -17.1532   26.9951 N   0  0  0  0  0  0  0  0  0  0  0  0
   10.5490  -16.4774   28.2564 C   0  0  1  0  0  0  0  0  0  0  0  0
    9.1771  -15.9698   28.7191 C   0  0  0  0  0  0  0  0  0  0  0  0
    8.6784  -14.8833   27.8383 C   0  0  0  0  0  0  0  0  0  0  0  0
    9.1309  -13.5772   27.9556 C   0  0  0  0  0  0  0  0  0  0  0  0
    8.6693  -12.5663   27.1407 C   0  0  0  0  0  0  0  0  0  0  0  0
    7.7278  -12.8159   26.1645 C   0  0  0  0  0  0  0  0  0  0  0  0
    7.2735  -14.1147   26.0429 C   0  0  0  0  0  0  0  0  0  0  0  0
    7.7369  -15.1373   26.8633 C   0  0  0  0  0  0  0  0  0  0  0  0
   11.0431  -17.3756   29.3010 C   0  0  0  0  0  0  0  0  0  0  0  0
   11.4742  -16.9489   30.5462 O   0  0  0  0  0  0  0  0  0  0  0  0
   11.0846  -18.6118   29.0698 O   0  0  0  0  0  0  0  0  0  0  0  0
  2  1  1  6
  2  3  1  0
  3  4  1  0
  4  5  2  0
  5  6  1  0
  7  6  1  0
  8  7  2  0
  9  8  1  0
 10 11  1  0
 10  9  2  0
 11 12  2  0
 12  4  1  0
 12  7  1  0
 13  2  1  0
 14 13  2  0
 16 15  1  6
 16 17  1  0
 18 19  1  6
 18 16  1  0
 19 13  1  0
 20 18  1  0
 21 20  2  0
 22 20  1  0
 23 22  1  0
 24 25  1  0
 23 24  1  1
 25 26  2  0
 26 27  1  0
 28 27  2  0
 29 28  1  0
 30 29  2  0
 30 25  1  0
 31 23  1  0
 31 32  1  0
 33 31  2  0
M  END
$$$$
