WVF.pdb
     RDKit          3D

 33 35  0  0  1  0  0  0  0  0999 V2000
    6.7867  -19.3791   20.0497 N   0  0  0  0  0  0  0  0  0  0  0  0
    6.6713  -18.5730   21.2749 C   0  0  1  0  0  0  0  0  0  0  0  0
    6.6991  -19.5060   22.4475 C   0  0  0  0  0  0  0  0  0  0  0  0
    6.5268  -18.9061   23.7672 C   0  0  0  0  0  0  0  0  0  0  0  0
    5.5895  -17.9169   24.0345 C   0  0  0  0  0  0  0  0  0  0  0  0
    5.7128  -17.5639   25.3291 N   0  0  0  0  0  0  0  0  0  0  0  0
    6.6855  -18.2789   25.9117 C   0  0  0  0  0  0  0  0  0  0  0  0
    7.1449  -18.2652   27.2071 C   0  0  0  0  0  0  0  0  0  0  0  0
    8.1604  -19.1146   27.5930 C   0  0  0  0  0  0  0  0  0  0  0  0
    8.6741  -19.9607   26.6156 C   0  0  0  0  0  0  0  0  0  0  0  0
    8.2036  -19.9617   25.3233 C   0  0  0  0  0  0  0  0  0  0  0  0
    7.1992  -19.1206   24.9420 C   0  0  0  0  0  0  0  0  0  0  0  0
    7.7507  -17.5757   21.2940 C   0  0  0  0  0  0  0  0  0  0  0  0
    8.9614  -17.9349   21.0711 O   0  0  0  0  0  0  0  0  0  0  0  0
    6.9332  -13.4504   22.1206 C   0  0  0  0  0  0  0  0  0  0  0  0
    7.9121  -13.9447   21.0928 C   0  0  2  0  0  0  0  0  0  0  0  0
    7.1908  -14.0495   19.7683 C   0  0  0  0  0  0  0  0  0  0  0  0
    8.5771  -15.2572   21.4668 C   0  0  2  0  0  0  0  0  0  0  0  0
    7.4702  -16.2099   21.5581 N   0  0  0  0  0  0  0  0  0  0  0  0
    9.3190  -15.1995   22.7373 C   0  0  0  0  0  0  0  0  0  0  0  0
   10.3921  -14.5014   22.7752 O   0  0  0  0  0  0  0  0  0  0  0  0
    8.9871  -15.8295   23.9461 N   0  0  0  0  0  0  0  0  0  0  0  0
    9.7428  -15.6778   25.1743 C   0  0  1  0  0  0  0  0  0  0  0  0
    8.7121  -15.7428   26.3089 C   0  0  0  0  0  0  0  0  0  0  0  0
    7.9451  -14.4756   26.4147 C   0  0  0  0  0  0  0  0  0  0  0  0
    8.5018  -13.2503   26.0784 C   0  0  0  0  0  0  0  0  0  0  0  0
    7.7932  -12.0724   26.1766 C   0  0  0  0  0  0  0  0  0  0  0  0
    6.4869  -12.0649   26.6183 C   0  0  0  0  0  0  0  0  0  0  0  0
    5.9272  -13.2822   26.9546 C   0  0  0  0  0  0  0  0  0  0  0  0
    6.6389  -14.4727   26.8568 C   0  0  0  0  0  0  0  0  0  0  0  0
   10.6903  -16.7703   25.3993 C   0  0  0  0  0  0  0  0  0  0  0  0
   11.5891  -16.8088   26.4524 O   0  0  0  0  0  0  0  0  0  0  0  0
   10.7013  -17.7399   24.5973 O   0  0  0  0  0  0  0  0  0  0  0  0
  2  1  1  6
  2  3  1  0
  3  4  1  0
  4  5  2  0
  5  6  1  0
  7  6  1  0
  8  7  2  0
  9  8  1  0
 10 11  1  0
 10  9  2  0
 11 12  2  0
 12  4  1  0
 12  7  1  0
 13  2  1  0
 14 13  2  0
 16 15  1  1
 16 17  1  0
 18 19  1  1
 18 16  1  0
 19 13  1  0
 20 18  1  0
 21 20  2  0
 22 20  1  0
 23 22  1  0
 24 25  1  0
 23 24  1  1
 25 26  2  0
 26 27  1  0
 28 27  2  0
 29 28  1  0
 30 29  2  0
 30 25  1  0
 31 23  1  0
 31 32  1  0
 33 31  2  0
M  END
$$$$
