WVF.pdb
     RDKit          3D

 33 35  0  0  1  0  0  0  0  0999 V2000
    6.2357  -18.3983   24.9351 N   0  0  0  0  0  0  0  0  0  0  0  0
    6.5868  -16.9815   24.7513 C   0  0  1  0  0  0  0  0  0  0  0  0
    6.8833  -16.3992   26.1001 C   0  0  0  0  0  0  0  0  0  0  0  0
    6.1228  -15.2137   26.4843 C   0  0  0  0  0  0  0  0  0  0  0  0
    4.9312  -15.2743   27.1949 C   0  0  0  0  0  0  0  0  0  0  0  0
    4.4770  -14.0159   27.3560 N   0  0  0  0  0  0  0  0  0  0  0  0
    5.3194  -13.1444   26.7836 C   0  0  0  0  0  0  0  0  0  0  0  0
    5.2673  -11.7727   26.7131 C   0  0  0  0  0  0  0  0  0  0  0  0
    6.2703  -11.0710   26.0781 C   0  0  0  0  0  0  0  0  0  0  0  0
    7.3072  -11.8192   25.5301 C   0  0  0  0  0  0  0  0  0  0  0  0
    7.3443  -13.1917   25.6087 C   0  0  0  0  0  0  0  0  0  0  0  0
    6.3512  -13.8853   26.2366 C   0  0  0  0  0  0  0  0  0  0  0  0
    7.7128  -16.8863   23.8116 C   0  0  0  0  0  0  0  0  0  0  0  0
    8.5157  -17.8760   23.6685 O   0  0  0  0  0  0  0  0  0  0  0  0
    7.2771  -14.2781   20.7902 C   0  0  0  0  0  0  0  0  0  0  0  0
    8.7080  -14.4738   21.2064 C   0  0  2  0  0  0  0  0  0  0  0  0
    9.5687  -14.4341   19.9641 C   0  0  0  0  0  0  0  0  0  0  0  0
    8.9424  -15.7452   22.0022 C   0  0  2  0  0  0  0  0  0  0  0  0
    7.9265  -15.7053   23.0546 N   0  0  0  0  0  0  0  0  0  0  0  0
   10.2914  -15.8335   22.5855 C   0  0  0  0  0  0  0  0  0  0  0  0
   11.1664  -14.9779   22.2078 O   0  0  0  0  0  0  0  0  0  0  0  0
   10.7506  -16.7623   23.5313 N   0  0  0  0  0  0  0  0  0  0  0  0
   12.1479  -16.9545   23.8677 C   0  0  1  0  0  0  0  0  0  0  0  0
   12.6144  -15.6294   24.4845 C   0  0  0  0  0  0  0  0  0  0  0  0
   12.1807  -15.5103   25.8997 C   0  0  0  0  0  0  0  0  0  0  0  0
   12.2205  -14.3022   26.5804 C   0  0  0  0  0  0  0  0  0  0  0  0
   11.8199  -14.1885   27.8941 C   0  0  0  0  0  0  0  0  0  0  0  0
   11.3580  -15.2841   28.5925 C   0  0  0  0  0  0  0  0  0  0  0  0
   11.3161  -16.4899   27.9197 C   0  0  0  0  0  0  0  0  0  0  0  0
   11.7194  -16.6086   26.5943 C   0  0  0  0  0  0  0  0  0  0  0  0
   12.3530  -17.9896   24.8819 C   0  0  0  0  0  0  0  0  0  0  0  0
   11.3230  -18.6644   25.5161 O   0  0  0  0  0  0  0  0  0  0  0  0
   13.5290  -18.2964   25.2078 O   0  0  0  0  0  0  0  0  0  0  0  0
  2  1  1  1
  2  3  1  0
  3  4  1  0
  4  5  2  0
  5  6  1  0
  7  6  1  0
  8  7  2  0
  9  8  1  0
 10 11  1  0
 10  9  2  0
 11 12  2  0
 12  4  1  0
 12  7  1  0
 13  2  1  0
 14 13  2  0
 16 15  1  6
 16 17  1  0
 18 19  1  1
 18 16  1  0
 19 13  1  0
 20 18  1  0
 21 20  2  0
 22 20  1  0
 23 22  1  0
 24 25  1  0
 23 24  1  1
 25 26  2  0
 26 27  1  0
 28 27  2  0
 29 28  1  0
 30 29  2  0
 30 25  1  0
 31 23  1  0
 31 32  1  0
 33 31  2  0
M  END
$$$$
