WVF.pdb
     RDKit          3D

 33 35  0  0  1  0  0  0  0  0999 V2000
    6.2917  -18.2080   25.4445 N   0  0  0  0  0  0  0  0  0  0  0  0
    6.5569  -16.8220   25.0286 C   0  0  1  0  0  0  0  0  0  0  0  0
    6.8690  -16.0216   26.2567 C   0  0  0  0  0  0  0  0  0  0  0  0
    6.0153  -14.8675   26.5220 C   0  0  0  0  0  0  0  0  0  0  0  0
    4.7813  -14.9653   27.1515 C   0  0  0  0  0  0  0  0  0  0  0  0
    4.2443  -13.7309   27.2115 N   0  0  0  0  0  0  0  0  0  0  0  0
    5.0734  -12.8393   26.6508 C   0  0  0  0  0  0  0  0  0  0  0  0
    4.9468  -11.4788   26.5013 C   0  0  0  0  0  0  0  0  0  0  0  0
    5.9503  -10.7497   25.8987 C   0  0  0  0  0  0  0  0  0  0  0  0
    7.0654  -11.4592   25.4651 C   0  0  0  0  0  0  0  0  0  0  0  0
    7.1766  -12.8210   25.6218 C   0  0  0  0  0  0  0  0  0  0  0  0
    6.1831  -13.5419   26.2175 C   0  0  0  0  0  0  0  0  0  0  0  0
    7.6414  -16.8201   24.0367 C   0  0  0  0  0  0  0  0  0  0  0  0
    8.5442  -17.7302   24.0700 O   0  0  0  0  0  0  0  0  0  0  0  0
    9.4116  -14.7888   19.8740 C   0  0  0  0  0  0  0  0  0  0  0  0
    8.4599  -14.8274   21.0365 C   0  0  2  0  0  0  0  0  0  0  0  0
    8.4200  -13.4497   21.6578 C   0  0  0  0  0  0  0  0  0  0  0  0
    8.7993  -15.8898   22.0665 C   0  0  2  0  0  0  0  0  0  0  0  0
    7.7049  -15.8170   23.0349 N   0  0  0  0  0  0  0  0  0  0  0  0
   10.0956  -15.6725   22.7302 C   0  0  0  0  0  0  0  0  0  0  0  0
   10.2050  -14.6714   23.5215 O   0  0  0  0  0  0  0  0  0  0  0  0
   11.2578  -16.4478   22.6023 N   0  0  0  0  0  0  0  0  0  0  0  0
   12.3272  -16.4743   23.5813 C   0  0  1  0  0  0  0  0  0  0  0  0
   11.7916  -17.2950   24.7618 C   0  0  0  0  0  0  0  0  0  0  0  0
   11.5807  -16.4433   25.9598 C   0  0  0  0  0  0  0  0  0  0  0  0
   10.9721  -16.9291   27.1079 C   0  0  0  0  0  0  0  0  0  0  0  0
   10.7738  -16.1412   28.2210 C   0  0  0  0  0  0  0  0  0  0  0  0
   11.1773  -14.8227   28.2380 C   0  0  0  0  0  0  0  0  0  0  0  0
   11.7840  -14.3334   27.0976 C   0  0  0  0  0  0  0  0  0  0  0  0
   11.9859  -15.1253   25.9726 C   0  0  0  0  0  0  0  0  0  0  0  0
   13.5261  -17.1602   23.0974 C   0  0  0  0  0  0  0  0  0  0  0  0
   13.5915  -17.8468   21.8962 O   0  0  0  0  0  0  0  0  0  0  0  0
   14.5677  -17.1336   23.8029 O   0  0  0  0  0  0  0  0  0  0  0  0
  2  1  1  1
  2  3  1  0
  3  4  1  0
  4  5  2  0
  5  6  1  0
  7  6  1  0
  8  7  2  0
  9  8  1  0
 10 11  1  0
 10  9  2  0
 11 12  2  0
 12  4  1  0
 12  7  1  0
 13  2  1  0
 14 13  2  0
 16 15  1  6
 16 17  1  0
 18 19  1  1
 18 16  1  0
 19 13  1  0
 20 18  1  0
 21 20  2  0
 22 20  1  0
 23 22  1  0
 24 25  1  0
 23 24  1  1
 25 26  2  0
 26 27  1  0
 28 27  2  0
 29 28  1  0
 30 29  2  0
 30 25  1  0
 31 23  1  0
 31 32  1  0
 33 31  2  0
M  END
$$$$
