WVF.pdb
     RDKit          3D

 33 35  0  0  1  0  0  0  0  0999 V2000
    6.9675  -17.6099   25.3634 N   0  0  0  0  0  0  0  0  0  0  0  0
    7.0955  -17.3401   23.9229 C   0  0  1  0  0  0  0  0  0  0  0  0
    7.4605  -15.8965   23.7527 C   0  0  0  0  0  0  0  0  0  0  0  0
    6.7828  -14.9415   24.6244 C   0  0  0  0  0  0  0  0  0  0  0  0
    5.5369  -15.1813   25.1890 C   0  0  0  0  0  0  0  0  0  0  0  0
    5.1880  -14.0955   25.9067 N   0  0  0  0  0  0  0  0  0  0  0  0
    6.1501  -13.1650   25.8332 C   0  0  0  0  0  0  0  0  0  0  0  0
    6.2293  -11.9204   26.4110 C   0  0  0  0  0  0  0  0  0  0  0  0
    7.3405  -11.1295   26.2076 C   0  0  0  0  0  0  0  0  0  0  0  0
    8.3457  -11.6572   25.4038 C   0  0  0  0  0  0  0  0  0  0  0  0
    8.2508  -12.9046   24.8324 C   0  0  0  0  0  0  0  0  0  0  0  0
    7.1508  -13.6864   25.0336 C   0  0  0  0  0  0  0  0  0  0  0  0
    8.0826  -18.2656   23.3494 C   0  0  0  0  0  0  0  0  0  0  0  0
    7.7053  -19.1890   22.5435 O   0  0  0  0  0  0  0  0  0  0  0  0
    9.3275  -15.5696   21.8853 C   0  0  0  0  0  0  0  0  0  0  0  0
    9.5012  -17.0360   21.6050 C   0  0  2  0  0  0  0  0  0  0  0  0
    8.1290  -17.6656   21.5268 C   0  0  0  0  0  0  0  0  0  0  0  0
   10.3811  -17.7492   22.6158 C   0  0  2  0  0  0  0  0  0  0  0  0
    9.4585  -18.1517   23.6778 N   0  0  0  0  0  0  0  0  0  0  0  0
   11.4590  -16.9045   23.1568 C   0  0  0  0  0  0  0  0  0  0  0  0
   12.2769  -16.3705   22.3284 O   0  0  0  0  0  0  0  0  0  0  0  0
   11.7080  -16.6011   24.5037 N   0  0  0  0  0  0  0  0  0  0  0  0
   12.8679  -15.8656   24.9687 C   0  0  1  0  0  0  0  0  0  0  0  0
   12.3224  -14.7627   25.8852 C   0  0  0  0  0  0  0  0  0  0  0  0
   11.6098  -15.3361   27.0550 C   0  0  0  0  0  0  0  0  0  0  0  0
   10.3703  -15.9469   26.9324 C   0  0  0  0  0  0  0  0  0  0  0  0
    9.7057  -16.4790   28.0160 C   0  0  0  0  0  0  0  0  0  0  0  0
   10.2531  -16.4249   29.2806 C   0  0  0  0  0  0  0  0  0  0  0  0
   11.4873  -15.8179   29.4088 C   0  0  0  0  0  0  0  0  0  0  0  0
   12.1609  -15.2799   28.3178 C   0  0  0  0  0  0  0  0  0  0  0  0
   13.7728  -16.6816   25.7795 C   0  0  0  0  0  0  0  0  0  0  0  0
   13.5629  -18.0218   26.0594 O   0  0  0  0  0  0  0  0  0  0  0  0
   14.8075  -16.1487   26.2578 O   0  0  0  0  0  0  0  0  0  0  0  0
  2  1  1  1
  2  3  1  0
  3  4  1  0
  4  5  2  0
  5  6  1  0
  7  6  1  0
  8  7  2  0
  9  8  1  0
 10 11  1  0
 10  9  2  0
 11 12  2  0
 12  4  1  0
 12  7  1  0
 13  2  1  0
 14 13  2  0
 16 15  1  1
 16 17  1  0
 18 19  1  1
 18 16  1  0
 19 13  1  0
 20 18  1  0
 21 20  2  0
 22 20  1  0
 23 22  1  0
 24 25  1  0
 23 24  1  1
 25 26  2  0
 26 27  1  0
 28 27  2  0
 29 28  1  0
 30 29  2  0
 30 25  1  0
 31 23  1  0
 31 32  1  0
 33 31  2  0
M  END
$$$$
