WVF.pdb
     RDKit          3D

 33 35  0  0  1  0  0  0  0  0999 V2000
    5.9901  -18.0317   24.4018 N   0  0  0  0  0  0  0  0  0  0  0  0
    6.5616  -16.7047   24.1247 C   0  0  1  0  0  0  0  0  0  0  0  0
    7.0966  -16.1531   25.4114 C   0  0  0  0  0  0  0  0  0  0  0  0
    6.4158  -14.9824   25.9567 C   0  0  0  0  0  0  0  0  0  0  0  0
    5.1082  -15.0142   26.4233 C   0  0  0  0  0  0  0  0  0  0  0  0
    4.7781  -13.7710   26.8248 N   0  0  0  0  0  0  0  0  0  0  0  0
    5.8111  -12.9369   26.6403 C   0  0  0  0  0  0  0  0  0  0  0  0
    5.9312  -11.5956   26.9159 C   0  0  0  0  0  0  0  0  0  0  0  0
    7.1135  -10.9358   26.6546 C   0  0  0  0  0  0  0  0  0  0  0  0
    8.1458  -11.6931   26.1104 C   0  0  0  0  0  0  0  0  0  0  0  0
    8.0094  -13.0346   25.8400 C   0  0  0  0  0  0  0  0  0  0  0  0
    6.8390  -13.6867   26.0981 C   0  0  0  0  0  0  0  0  0  0  0  0
    7.5806  -16.8334   23.0736 C   0  0  0  0  0  0  0  0  0  0  0  0
    8.3217  -17.8786   23.0217 O   0  0  0  0  0  0  0  0  0  0  0  0
    9.0350  -13.4750   20.7208 C   0  0  0  0  0  0  0  0  0  0  0  0
    8.6510  -14.8185   20.1674 C   0  0  2  0  0  0  0  0  0  0  0  0
    7.2163  -14.7408   19.6970 C   0  0  0  0  0  0  0  0  0  0  0  0
    8.8515  -15.9607   21.1471 C   0  0  2  0  0  0  0  0  0  0  0  0
    7.7582  -15.8091   22.1077 N   0  0  0  0  0  0  0  0  0  0  0  0
   10.1541  -15.9254   21.8328 C   0  0  0  0  0  0  0  0  0  0  0  0
   11.0235  -15.0768   21.4276 O   0  0  0  0  0  0  0  0  0  0  0  0
   10.5730  -16.7261   22.9059 N   0  0  0  0  0  0  0  0  0  0  0  0
   11.8635  -16.6021   23.5554 C   0  0  1  0  0  0  0  0  0  0  0  0
   11.9137  -15.1740   24.1140 C   0  0  0  0  0  0  0  0  0  0  0  0
   11.1451  -15.0621   25.3797 C   0  0  0  0  0  0  0  0  0  0  0  0
   11.2736  -15.9918   26.4013 C   0  0  0  0  0  0  0  0  0  0  0  0
   10.5611  -15.8915   27.5765 C   0  0  0  0  0  0  0  0  0  0  0  0
    9.6814  -14.8505   27.7864 C   0  0  0  0  0  0  0  0  0  0  0  0
    9.5493  -13.9215   26.7726 C   0  0  0  0  0  0  0  0  0  0  0  0
   10.2665  -14.0193   25.5854 C   0  0  0  0  0  0  0  0  0  0  0  0
   12.0180  -17.5084   24.6941 C   0  0  0  0  0  0  0  0  0  0  0  0
   13.1945  -17.6555   25.4102 O   0  0  0  0  0  0  0  0  0  0  0  0
   11.0326  -18.2018   25.0569 O   0  0  0  0  0  0  0  0  0  0  0  0
  2  1  1  1
  2  3  1  0
  3  4  1  0
  4  5  2  0
  5  6  1  0
  7  6  1  0
  8  7  2  0
  9  8  1  0
 10 11  1  0
 10  9  2  0
 11 12  2  0
 12  4  1  0
 12  7  1  0
 13  2  1  0
 14 13  2  0
 16 15  1  1
 16 17  1  0
 18 19  1  1
 18 16  1  0
 19 13  1  0
 20 18  1  0
 21 20  2  0
 22 20  1  0
 23 22  1  0
 24 25  1  0
 23 24  1  1
 25 26  2  0
 26 27  1  0
 28 27  2  0
 29 28  1  0
 30 29  2  0
 30 25  1  0
 31 23  1  0
 31 32  1  0
 33 31  2  0
M  END
$$$$
