WVF.pdb
     RDKit          3D

 33 35  0  0  1  0  0  0  0  0999 V2000
    6.2388  -18.2113   24.9122 N   0  0  0  0  0  0  0  0  0  0  0  0
    7.2270  -17.1774   24.5677 C   0  0  1  0  0  0  0  0  0  0  0  0
    7.1412  -16.0928   25.5985 C   0  0  0  0  0  0  0  0  0  0  0  0
    6.6600  -14.7919   25.1433 C   0  0  0  0  0  0  0  0  0  0  0  0
    5.7219  -14.0431   25.8418 C   0  0  0  0  0  0  0  0  0  0  0  0
    5.4768  -12.9201   25.1386 N   0  0  0  0  0  0  0  0  0  0  0  0
    6.2127  -12.9072   24.0183 C   0  0  0  0  0  0  0  0  0  0  0  0
    6.2968  -11.9658   23.0204 C   0  0  0  0  0  0  0  0  0  0  0  0
    7.1488  -12.1585   21.9534 C   0  0  0  0  0  0  0  0  0  0  0  0
    7.8953  -13.3323   21.9527 C   0  0  0  0  0  0  0  0  0  0  0  0
    7.7992  -14.2649   22.9589 C   0  0  0  0  0  0  0  0  0  0  0  0
    6.9555  -14.0739   24.0140 C   0  0  0  0  0  0  0  0  0  0  0  0
    8.5564  -17.7978   24.4792 C   0  0  0  0  0  0  0  0  0  0  0  0
    8.7961  -18.8947   25.0986 O   0  0  0  0  0  0  0  0  0  0  0  0
   11.7543  -15.6530   22.6826 C   0  0  0  0  0  0  0  0  0  0  0  0
   11.6873  -17.1541   22.6487 C   0  0  2  0  0  0  0  0  0  0  0  0
   11.0764  -17.5680   21.3292 C   0  0  0  0  0  0  0  0  0  0  0  0
   10.9340  -17.7568   23.8210 C   0  0  2  0  0  0  0  0  0  0  0  0
    9.5872  -17.1952   23.7123 N   0  0  0  0  0  0  0  0  0  0  0  0
   11.5272  -17.4343   25.1295 C   0  0  0  0  0  0  0  0  0  0  0  0
   12.3779  -16.4783   25.1843 O   0  0  0  0  0  0  0  0  0  0  0  0
   11.2685  -18.0591   26.3586 N   0  0  0  0  0  0  0  0  0  0  0  0
   12.0420  -17.8308   27.5636 C   0  0  1  0  0  0  0  0  0  0  0  0
   11.0502  -17.2835   28.5984 C   0  0  0  0  0  0  0  0  0  0  0  0
   10.5349  -15.9493   28.1992 C   0  0  0  0  0  0  0  0  0  0  0  0
    9.3855  -15.8046   27.4361 C   0  0  0  0  0  0  0  0  0  0  0  0
    8.9051  -14.5680   27.0630 C   0  0  0  0  0  0  0  0  0  0  0  0
    9.5558  -13.4114   27.4379 C   0  0  0  0  0  0  0  0  0  0  0  0
   10.7009  -13.5493   28.1980 C   0  0  0  0  0  0  0  0  0  0  0  0
   11.1886  -14.7952   28.5764 C   0  0  0  0  0  0  0  0  0  0  0  0
   12.6023  -19.0617   28.1231 C   0  0  0  0  0  0  0  0  0  0  0  0
   13.4126  -19.1010   29.2458 O   0  0  0  0  0  0  0  0  0  0  0  0
   12.3414  -20.1577   27.5627 O   0  0  0  0  0  0  0  0  0  0  0  0
  2  1  1  1
  2  3  1  0
  3  4  1  0
  4  5  2  0
  5  6  1  0
  7  6  1  0
  8  7  2  0
  9  8  1  0
 10 11  1  0
 10  9  2  0
 11 12  2  0
 12  4  1  0
 12  7  1  0
 13  2  1  0
 14 13  2  0
 16 15  1  1
 16 17  1  0
 18 19  1  1
 18 16  1  0
 19 13  1  0
 20 18  1  0
 21 20  2  0
 22 20  1  0
 23 22  1  0
 24 25  1  0
 23 24  1  1
 25 26  2  0
 26 27  1  0
 28 27  2  0
 29 28  1  0
 30 29  2  0
 30 25  1  0
 31 23  1  0
 31 32  1  0
 33 31  2  0
M  END
$$$$
