WVF.pdb
     RDKit          3D

 33 35  0  0  1  0  0  0  0  0999 V2000
    6.9684  -19.3463   18.9700 N   0  0  0  0  0  0  0  0  0  0  0  0
    7.7120  -18.1647   19.4339 C   0  0  1  0  0  0  0  0  0  0  0  0
    6.7680  -17.0008   19.4509 C   0  0  0  0  0  0  0  0  0  0  0  0
    7.3472  -15.6830   19.2074 C   0  0  0  0  0  0  0  0  0  0  0  0
    8.0240  -15.3557   18.0398 C   0  0  0  0  0  0  0  0  0  0  0  0
    8.4543  -14.0835   18.1494 N   0  0  0  0  0  0  0  0  0  0  0  0
    8.0870  -13.5725   19.3329 C   0  0  0  0  0  0  0  0  0  0  0  0
    8.2937  -12.3217   19.8640 C   0  0  0  0  0  0  0  0  0  0  0  0
    7.8023  -12.0076   21.1136 C   0  0  0  0  0  0  0  0  0  0  0  0
    7.1049  -13.0088   21.7817 C   0  0  0  0  0  0  0  0  0  0  0  0
    6.9072  -14.2559   21.2365 C   0  0  0  0  0  0  0  0  0  0  0  0
    7.3942  -14.5661   20.0003 C   0  0  0  0  0  0  0  0  0  0  0  0
    8.3042  -18.4581   20.7466 C   0  0  0  0  0  0  0  0  0  0  0  0
    7.6194  -19.0773   21.6366 O   0  0  0  0  0  0  0  0  0  0  0  0
   12.3016  -19.0422   23.4740 C   0  0  0  0  0  0  0  0  0  0  0  0
   11.5774  -18.7303   22.1945 C   0  0  2  0  0  0  0  0  0  0  0  0
   12.3584  -17.6647   21.4597 C   0  0  0  0  0  0  0  0  0  0  0  0
   10.1314  -18.3154   22.3987 C   0  0  2  0  0  0  0  0  0  0  0  0
    9.6336  -18.0623   21.0462 N   0  0  0  0  0  0  0  0  0  0  0  0
    9.9765  -17.1182   23.2417 C   0  0  0  0  0  0  0  0  0  0  0  0
    9.9948  -15.9731   22.6682 O   0  0  0  0  0  0  0  0  0  0  0  0
    9.8045  -17.0735   24.6333 N   0  0  0  0  0  0  0  0  0  0  0  0
    9.5917  -15.8525   25.3858 C   0  0  1  0  0  0  0  0  0  0  0  0
    8.2337  -15.3088   24.9230 C   0  0  0  0  0  0  0  0  0  0  0  0
    7.9203  -14.0124   25.5758 C   0  0  0  0  0  0  0  0  0  0  0  0
    6.6199  -13.6426   25.8870 C   0  0  0  0  0  0  0  0  0  0  0  0
    6.3255  -12.4398   26.4918 C   0  0  0  0  0  0  0  0  0  0  0  0
    7.3237  -11.5453   26.8156 C   0  0  0  0  0  0  0  0  0  0  0  0
    8.6207  -11.9081   26.5081 C   0  0  0  0  0  0  0  0  0  0  0  0
    8.9217  -13.1207   25.8979 C   0  0  0  0  0  0  0  0  0  0  0  0
    9.4873  -16.0821   26.8274 C   0  0  0  0  0  0  0  0  0  0  0  0
    9.0195  -17.2580   27.3905 O   0  0  0  0  0  0  0  0  0  0  0  0
    9.8399  -15.1668   27.6156 O   0  0  0  0  0  0  0  0  0  0  0  0
  2  1  1  1
  2  3  1  0
  3  4  1  0
  4  5  2  0
  5  6  1  0
  7  6  1  0
  8  7  2  0
  9  8  1  0
 10 11  1  0
 10  9  2  0
 11 12  2  0
 12  4  1  0
 12  7  1  0
 13  2  1  0
 14 13  2  0
 16 15  1  1
 16 17  1  0
 18 19  1  6
 18 16  1  0
 19 13  1  0
 20 18  1  0
 21 20  2  0
 22 20  1  0
 23 22  1  0
 24 25  1  0
 23 24  1  6
 25 26  2  0
 26 27  1  0
 28 27  2  0
 29 28  1  0
 30 29  2  0
 30 25  1  0
 31 23  1  0
 31 32  1  0
 33 31  2  0
M  END
$$$$
