WVF.pdb
     RDKit          3D

 33 35  0  0  1  0  0  0  0  0999 V2000
    7.2669  -17.8792   21.6048 N   0  0  0  0  0  0  0  0  0  0  0  0
    8.2564  -16.8889   22.0569 C   0  0  1  0  0  0  0  0  0  0  0  0
    7.5245  -15.6274   22.4023 C   0  0  0  0  0  0  0  0  0  0  0  0
    7.1295  -14.7719   21.2873 C   0  0  0  0  0  0  0  0  0  0  0  0
    5.8188  -14.6639   20.8412 C   0  0  0  0  0  0  0  0  0  0  0  0
    5.8045  -13.8245   19.7872 N   0  0  0  0  0  0  0  0  0  0  0  0
    7.0444  -13.3840   19.5312 C   0  0  0  0  0  0  0  0  0  0  0  0
    7.4975  -12.5122   18.5700 C   0  0  0  0  0  0  0  0  0  0  0  0
    8.8355  -12.1850   18.5041 C   0  0  0  0  0  0  0  0  0  0  0  0
    9.6716  -12.7767   19.4453 C   0  0  0  0  0  0  0  0  0  0  0  0
    9.2025  -13.6477   20.4006 C   0  0  0  0  0  0  0  0  0  0  0  0
    7.8786  -13.9715   20.4649 C   0  0  0  0  0  0  0  0  0  0  0  0
    9.0165  -17.4521   23.1815 C   0  0  0  0  0  0  0  0  0  0  0  0
    8.4519  -18.2677   23.9943 O   0  0  0  0  0  0  0  0  0  0  0  0
   12.4895  -18.8130   22.6838 C   0  0  0  0  0  0  0  0  0  0  0  0
   12.4791  -18.0005   23.9482 C   0  0  2  0  0  0  0  0  0  0  0  0
   13.3472  -18.7042   24.9665 C   0  0  0  0  0  0  0  0  0  0  0  0
   11.0864  -17.7399   24.4933 C   0  0  2  0  0  0  0  0  0  0  0  0
   10.3771  -17.1032   23.3831 N   0  0  0  0  0  0  0  0  0  0  0  0
   11.0734  -16.8731   25.6834 C   0  0  0  0  0  0  0  0  0  0  0  0
   11.8276  -15.8379   25.6810 O   0  0  0  0  0  0  0  0  0  0  0  0
   10.3154  -17.0427   26.8517 N   0  0  0  0  0  0  0  0  0  0  0  0
   10.5883  -16.3610   28.1020 C   0  0  1  0  0  0  0  0  0  0  0  0
    9.2342  -15.8331   28.5934 C   0  0  0  0  0  0  0  0  0  0  0  0
    8.7063  -14.7784   27.6912 C   0  0  0  0  0  0  0  0  0  0  0  0
    9.3058  -13.5315   27.5897 C   0  0  0  0  0  0  0  0  0  0  0  0
    8.8178  -12.5502   26.7544 C   0  0  0  0  0  0  0  0  0  0  0  0
    7.7007  -12.7712   25.9768 C   0  0  0  0  0  0  0  0  0  0  0  0
    7.0993  -14.0111   26.0736 C   0  0  0  0  0  0  0  0  0  0  0  0
    7.5888  -15.0038   26.9153 C   0  0  0  0  0  0  0  0  0  0  0  0
   11.0961  -17.2579   29.1412 C   0  0  0  0  0  0  0  0  0  0  0  0
   11.2111  -18.6298   28.9889 O   0  0  0  0  0  0  0  0  0  0  0  0
   11.4538  -16.7690   30.2441 O   0  0  0  0  0  0  0  0  0  0  0  0
  2  1  1  1
  2  3  1  0
  3  4  1  0
  4  5  2  0
  5  6  1  0
  7  6  1  0
  8  7  2  0
  9  8  1  0
 10 11  1  0
 10  9  2  0
 11 12  2  0
 12  4  1  0
 12  7  1  0
 13  2  1  0
 14 13  2  0
 16 15  1  6
 16 17  1  0
 18 19  1  6
 18 16  1  0
 19 13  1  0
 20 18  1  0
 21 20  2  0
 22 20  1  0
 23 22  1  0
 24 25  1  0
 23 24  1  1
 25 26  2  0
 26 27  1  0
 28 27  2  0
 29 28  1  0
 30 29  2  0
 30 25  1  0
 31 23  1  0
 31 32  1  0
 33 31  2  0
M  END
$$$$
