WVF.pdb
     RDKit          3D

 33 35  0  0  1  0  0  0  0  0999 V2000
    7.1838  -17.9601   21.0603 N   0  0  0  0  0  0  0  0  0  0  0  0
    7.8882  -16.9061   21.8067 C   0  0  1  0  0  0  0  0  0  0  0  0
    6.9248  -15.7825   22.0422 C   0  0  0  0  0  0  0  0  0  0  0  0
    6.7929  -14.7967   20.9736 C   0  0  0  0  0  0  0  0  0  0  0  0
    5.7366  -14.7918   20.0720 C   0  0  0  0  0  0  0  0  0  0  0  0
    5.9331  -13.7796   19.2044 N   0  0  0  0  0  0  0  0  0  0  0  0
    7.0665  -13.1293   19.5030 C   0  0  0  0  0  0  0  0  0  0  0  0
    7.6493  -12.0376   18.9048 C   0  0  0  0  0  0  0  0  0  0  0  0
    8.8267  -11.5194   19.4014 C   0  0  0  0  0  0  0  0  0  0  0  0
    9.3700  -12.1541   20.5136 C   0  0  0  0  0  0  0  0  0  0  0  0
    8.7746  -13.2462   21.1003 C   0  0  0  0  0  0  0  0  0  0  0  0
    7.6100  -13.7589   20.6080 C   0  0  0  0  0  0  0  0  0  0  0  0
    8.4328  -17.4803   23.0451 C   0  0  0  0  0  0  0  0  0  0  0  0
    7.6662  -18.1252   23.8457 O   0  0  0  0  0  0  0  0  0  0  0  0
   12.5507  -17.9318   23.5364 C   0  0  0  0  0  0  0  0  0  0  0  0
   11.4889  -18.7234   24.2469 C   0  0  2  0  0  0  0  0  0  0  0  0
   11.1069  -19.8928   23.3682 C   0  0  0  0  0  0  0  0  0  0  0  0
   10.2729  -17.9011   24.6341 C   0  0  2  0  0  0  0  0  0  0  0  0
    9.8058  -17.3297   23.3706 N   0  0  0  0  0  0  0  0  0  0  0  0
   10.5685  -16.8368   25.6077 C   0  0  0  0  0  0  0  0  0  0  0  0
   11.3822  -15.9117   25.2580 O   0  0  0  0  0  0  0  0  0  0  0  0
   10.0542  -16.7043   26.9062 N   0  0  0  0  0  0  0  0  0  0  0  0
   10.6183  -15.8312   27.9172 C   0  0  1  0  0  0  0  0  0  0  0  0
    9.4430  -15.0076   28.4597 C   0  0  0  0  0  0  0  0  0  0  0  0
    8.8213  -14.1850   27.3911 C   0  0  0  0  0  0  0  0  0  0  0  0
    7.7294  -14.6325   26.6618 C   0  0  0  0  0  0  0  0  0  0  0  0
    7.1508  -13.8722   25.6687 C   0  0  0  0  0  0  0  0  0  0  0  0
    7.6401  -12.6212   25.3568 C   0  0  0  0  0  0  0  0  0  0  0  0
    8.7273  -12.1703   26.0798 C   0  0  0  0  0  0  0  0  0  0  0  0
    9.3138  -12.9345   27.0825 C   0  0  0  0  0  0  0  0  0  0  0  0
   11.1827  -16.5630   29.0520 C   0  0  0  0  0  0  0  0  0  0  0  0
   11.1774  -17.9439   29.1603 O   0  0  0  0  0  0  0  0  0  0  0  0
   11.7079  -15.9137   29.9932 O   0  0  0  0  0  0  0  0  0  0  0  0
  2  1  1  1
  2  3  1  0
  3  4  1  0
  4  5  2  0
  5  6  1  0
  7  6  1  0
  8  7  2  0
  9  8  1  0
 10 11  1  0
 10  9  2  0
 11 12  2  0
 12  4  1  0
 12  7  1  0
 13  2  1  0
 14 13  2  0
 16 15  1  6
 16 17  1  0
 18 19  1  6
 18 16  1  0
 19 13  1  0
 20 18  1  0
 21 20  2  0
 22 20  1  0
 23 22  1  0
 24 25  1  0
 23 24  1  1
 25 26  2  0
 26 27  1  0
 28 27  2  0
 29 28  1  0
 30 29  2  0
 30 25  1  0
 31 23  1  0
 31 32  1  0
 33 31  2  0
M  END
$$$$
