WVF.pdb
     RDKit          3D

 33 35  0  0  1  0  0  0  0  0999 V2000
    6.1266  -18.7079   24.8793 N   0  0  0  0  0  0  0  0  0  0  0  0
    6.9656  -17.5418   24.5621 C   0  0  1  0  0  0  0  0  0  0  0  0
    7.1319  -16.7364   25.8150 C   0  0  0  0  0  0  0  0  0  0  0  0
    6.8136  -15.3144   25.7278 C   0  0  0  0  0  0  0  0  0  0  0  0
    5.9606  -14.6720   26.6156 C   0  0  0  0  0  0  0  0  0  0  0  0
    5.8591  -13.3825   26.2380 N   0  0  0  0  0  0  0  0  0  0  0  0
    6.6069  -13.1607   25.1479 C   0  0  0  0  0  0  0  0  0  0  0  0
    6.8151  -12.0057   24.4323 C   0  0  0  0  0  0  0  0  0  0  0  0
    7.6532  -12.0084   23.3373 C   0  0  0  0  0  0  0  0  0  0  0  0
    8.2562  -13.2194   23.0137 C   0  0  0  0  0  0  0  0  0  0  0  0
    8.0371  -14.3667   23.7398 C   0  0  0  0  0  0  0  0  0  0  0  0
    7.2072  -14.3635   24.8227 C   0  0  0  0  0  0  0  0  0  0  0  0
    8.2373  -18.0091   23.9927 C   0  0  0  0  0  0  0  0  0  0  0  0
    8.8040  -19.0595   24.4618 O   0  0  0  0  0  0  0  0  0  0  0  0
    9.3695  -18.1782   20.2378 C   0  0  0  0  0  0  0  0  0  0  0  0
   10.3179  -17.3731   21.0812 C   0  0  2  0  0  0  0  0  0  0  0  0
   11.7190  -17.5999   20.5604 C   0  0  0  0  0  0  0  0  0  0  0  0
   10.2225  -17.6783   22.5653 C   0  0  2  0  0  0  0  0  0  0  0  0
    8.8527  -17.3087   22.9229 N   0  0  0  0  0  0  0  0  0  0  0  0
   11.1926  -16.9309   23.3828 C   0  0  0  0  0  0  0  0  0  0  0  0
   11.6502  -15.8298   22.9153 O   0  0  0  0  0  0  0  0  0  0  0  0
   11.6907  -17.2827   24.6463 N   0  0  0  0  0  0  0  0  0  0  0  0
   12.8691  -16.6894   25.2478 C   0  0  1  0  0  0  0  0  0  0  0  0
   12.5057  -15.2238   25.5194 C   0  0  0  0  0  0  0  0  0  0  0  0
   11.4630  -15.1120   26.5708 C   0  0  0  0  0  0  0  0  0  0  0  0
   10.4672  -16.0659   26.7215 C   0  0  0  0  0  0  0  0  0  0  0  0
    9.4974  -15.9646   27.6954 C   0  0  0  0  0  0  0  0  0  0  0  0
    9.4782  -14.8981   28.5693 C   0  0  0  0  0  0  0  0  0  0  0  0
   10.4675  -13.9450   28.4241 C   0  0  0  0  0  0  0  0  0  0  0  0
   11.4476  -14.0438   27.4428 C   0  0  0  0  0  0  0  0  0  0  0  0
   13.2125  -17.2873   26.5388 C   0  0  0  0  0  0  0  0  0  0  0  0
   14.3817  -17.0146   27.2297 O   0  0  0  0  0  0  0  0  0  0  0  0
   12.4082  -18.0989   27.0658 O   0  0  0  0  0  0  0  0  0  0  0  0
  2  1  1  1
  2  3  1  0
  3  4  1  0
  4  5  2  0
  5  6  1  0
  7  6  1  0
  8  7  2  0
  9  8  1  0
 10 11  1  0
 10  9  2  0
 11 12  2  0
 12  4  1  0
 12  7  1  0
 13  2  1  0
 14 13  2  0
 16 15  1  6
 16 17  1  0
 18 19  1  1
 18 16  1  0
 19 13  1  0
 20 18  1  0
 21 20  2  0
 22 20  1  0
 23 22  1  0
 24 25  1  0
 23 24  1  1
 25 26  2  0
 26 27  1  0
 28 27  2  0
 29 28  1  0
 30 29  2  0
 30 25  1  0
 31 23  1  0
 31 32  1  0
 33 31  2  0
M  END
$$$$
