WVF.pdb
     RDKit          3D

 33 35  0  0  1  0  0  0  0  0999 V2000
    6.0758  -18.1951   24.9673 N   0  0  0  0  0  0  0  0  0  0  0  0
    6.5437  -16.8382   24.6447 C   0  0  1  0  0  0  0  0  0  0  0  0
    7.0901  -16.2264   25.8990 C   0  0  0  0  0  0  0  0  0  0  0  0
    6.4160  -15.0291   26.3924 C   0  0  0  0  0  0  0  0  0  0  0  0
    5.2096  -15.0662   27.0792 C   0  0  0  0  0  0  0  0  0  0  0  0
    4.8509  -13.7984   27.3616 N   0  0  0  0  0  0  0  0  0  0  0  0
    5.7690  -12.9431   26.8901 C   0  0  0  0  0  0  0  0  0  0  0  0
    5.8244  -11.5714   26.9582 C   0  0  0  0  0  0  0  0  0  0  0  0
    6.8908  -10.8911   26.4093 C   0  0  0  0  0  0  0  0  0  0  0  0
    7.8773  -11.6600   25.8005 C   0  0  0  0  0  0  0  0  0  0  0  0
    7.8068  -13.0322   25.7402 C   0  0  0  0  0  0  0  0  0  0  0  0
    6.7510  -13.7047   26.2830 C   0  0  0  0  0  0  0  0  0  0  0  0
    7.5269  -16.9182   23.5553 C   0  0  0  0  0  0  0  0  0  0  0  0
    8.3187  -17.9239   23.4770 O   0  0  0  0  0  0  0  0  0  0  0  0
    9.2725  -14.8737   19.3919 C   0  0  0  0  0  0  0  0  0  0  0  0
    8.3625  -14.8851   20.5880 C   0  0  2  0  0  0  0  0  0  0  0  0
    8.4164  -13.5188   21.2330 C   0  0  0  0  0  0  0  0  0  0  0  0
    8.6836  -15.9822   21.5871 C   0  0  2  0  0  0  0  0  0  0  0  0
    7.6138  -15.8901   22.5811 N   0  0  0  0  0  0  0  0  0  0  0  0
   10.0011  -15.8285   22.2261 C   0  0  0  0  0  0  0  0  0  0  0  0
   10.8200  -14.9842   21.7190 O   0  0  0  0  0  0  0  0  0  0  0  0
   10.4847  -16.5085   23.3539 N   0  0  0  0  0  0  0  0  0  0  0  0
   11.8601  -16.4495   23.8090 C   0  0  1  0  0  0  0  0  0  0  0  0
   11.8171  -16.7685   25.3091 C   0  0  0  0  0  0  0  0  0  0  0  0
   11.3686  -15.5933   26.0983 C   0  0  0  0  0  0  0  0  0  0  0  0
   11.0196  -15.6978   27.4368 C   0  0  0  0  0  0  0  0  0  0  0  0
   10.6018  -14.6095   28.1718 C   0  0  0  0  0  0  0  0  0  0  0  0
   10.5131  -13.3583   27.5990 C   0  0  0  0  0  0  0  0  0  0  0  0
   10.8594  -13.2481   26.2663 C   0  0  0  0  0  0  0  0  0  0  0  0
   11.2813  -14.3438   25.5215 C   0  0  0  0  0  0  0  0  0  0  0  0
   12.7113  -17.4631   23.1844 C   0  0  0  0  0  0  0  0  0  0  0  0
   12.2363  -18.4681   22.3580 O   0  0  0  0  0  0  0  0  0  0  0  0
   13.9505  -17.4332   23.4007 O   0  0  0  0  0  0  0  0  0  0  0  0
  2  1  1  1
  2  3  1  0
  3  4  1  0
  4  5  2  0
  5  6  1  0
  7  6  1  0
  8  7  2  0
  9  8  1  0
 10 11  1  0
 10  9  2  0
 11 12  2  0
 12  4  1  0
 12  7  1  0
 13  2  1  0
 14 13  2  0
 16 15  1  6
 16 17  1  0
 18 19  1  1
 18 16  1  0
 19 13  1  0
 20 18  1  0
 21 20  2  0
 22 20  1  0
 23 22  1  0
 24 25  1  0
 23 24  1  1
 25 26  2  0
 26 27  1  0
 28 27  2  0
 29 28  1  0
 30 29  2  0
 30 25  1  0
 31 23  1  0
 31 32  1  0
 33 31  2  0
M  END
$$$$
