WVF.pdb
     RDKit          3D

 33 35  0  0  1  0  0  0  0  0999 V2000
    7.2525  -17.9061   25.8339 N   0  0  0  0  0  0  0  0  0  0  0  0
    7.4967  -16.6514   25.1057 C   0  0  1  0  0  0  0  0  0  0  0  0
    8.6851  -15.9803   25.7250 C   0  0  0  0  0  0  0  0  0  0  0  0
    8.4105  -14.9346   26.7061 C   0  0  0  0  0  0  0  0  0  0  0  0
    8.9264  -14.9496   27.9953 C   0  0  0  0  0  0  0  0  0  0  0  0
    8.4580  -13.8660   28.6449 N   0  0  0  0  0  0  0  0  0  0  0  0
    7.6638  -13.1506   27.8361 C   0  0  0  0  0  0  0  0  0  0  0  0
    6.9872  -11.9763   28.0654 C   0  0  0  0  0  0  0  0  0  0  0  0
    6.2319  -11.4028   27.0643 C   0  0  0  0  0  0  0  0  0  0  0  0
    6.2002  -12.0698   25.8440 C   0  0  0  0  0  0  0  0  0  0  0  0
    6.8825  -13.2446   25.6308 C   0  0  0  0  0  0  0  0  0  0  0  0
    7.6291  -13.8119   26.6219 C   0  0  0  0  0  0  0  0  0  0  0  0
    7.6724  -16.9538   23.6783 C   0  0  0  0  0  0  0  0  0  0  0  0
    7.9389  -18.1508   23.3032 O   0  0  0  0  0  0  0  0  0  0  0  0
    7.3493  -13.8616   20.7579 C   0  0  0  0  0  0  0  0  0  0  0  0
    7.0948  -15.3156   20.4752 C   0  0  2  0  0  0  0  0  0  0  0  0
    5.6163  -15.5773   20.6518 C   0  0  0  0  0  0  0  0  0  0  0  0
    7.9293  -16.2566   21.3255 C   0  0  2  0  0  0  0  0  0  0  0  0
    7.5509  -15.9320   22.7012 N   0  0  0  0  0  0  0  0  0  0  0  0
    9.3798  -16.0926   21.1332 C   0  0  0  0  0  0  0  0  0  0  0  0
   10.0765  -15.6916   22.1303 O   0  0  0  0  0  0  0  0  0  0  0  0
   10.1154  -16.3294   19.9623 N   0  0  0  0  0  0  0  0  0  0  0  0
   11.5527  -16.1678   19.8604 C   0  0  1  0  0  0  0  0  0  0  0  0
   11.8095  -14.6574   19.9426 C   0  0  0  0  0  0  0  0  0  0  0  0
   10.6956  -13.8865   19.3343 C   0  0  0  0  0  0  0  0  0  0  0  0
   10.0304  -12.8862   20.0281 C   0  0  0  0  0  0  0  0  0  0  0  0
    8.9956  -12.1697   19.4670 C   0  0  0  0  0  0  0  0  0  0  0  0
    8.5751  -12.4217   18.1780 C   0  0  0  0  0  0  0  0  0  0  0  0
    9.2339  -13.4167   17.4822 C   0  0  0  0  0  0  0  0  0  0  0  0
   10.2784  -14.1418   18.0450 C   0  0  0  0  0  0  0  0  0  0  0  0
   12.2758  -16.7820   20.9748 C   0  0  0  0  0  0  0  0  0  0  0  0
   12.9903  -17.9643   20.8741 O   0  0  0  0  0  0  0  0  0  0  0  0
   12.2574  -16.2143   22.0977 O   0  0  0  0  0  0  0  0  0  0  0  0
  2  1  1  1
  2  3  1  0
  3  4  1  0
  4  5  2  0
  5  6  1  0
  7  6  1  0
  8  7  2  0
  9  8  1  0
 10 11  1  0
 10  9  2  0
 11 12  2  0
 12  4  1  0
 12  7  1  0
 13  2  1  0
 14 13  2  0
 16 15  1  1
 16 17  1  0
 18 19  1  1
 18 16  1  0
 19 13  1  0
 20 18  1  0
 21 20  2  0
 22 20  1  0
 23 22  1  0
 24 25  1  0
 23 24  1  1
 25 26  2  0
 26 27  1  0
 28 27  2  0
 29 28  1  0
 30 29  2  0
 30 25  1  0
 31 23  1  0
 31 32  1  0
 33 31  2  0
M  END
$$$$
