MLC.pdb
     RDKit          3D

 23 22  0  0  1  0  0  0  0  0999 V2000
   22.7033  -23.7085  -20.6718 C   0  0  0  0  0  0  0  0  0  0  0  0
   23.3938  -22.4051  -21.7154 S   0  0  0  0  0  0  0  0  0  0  0  0
   24.3324  -21.1941  -20.7400 C   0  0  0  0  0  0  0  0  0  0  0  0
   24.4776  -21.6444  -19.3028 C   0  0  0  0  0  0  0  0  0  0  0  0
   23.7119  -20.7067  -18.3710 C   0  0  2  0  0  0  0  0  0  0  0  0
   24.2289  -19.3495  -18.5390 N   0  0  0  0  0  0  0  0  0  0  0  0
   23.8937  -21.0453  -16.9498 C   0  0  0  0  0  0  0  0  0  0  0  0
   23.5511  -22.1279  -16.4217 O   0  0  0  0  0  0  0  0  0  0  0  0
   28.1773  -18.9130  -14.1175 C   0  0  0  0  0  0  0  0  0  0  0  0
   27.0900  -19.7274  -14.7547 C   0  0  1  0  0  0  0  0  0  0  0  0
   27.6213  -21.1425  -14.9442 C   0  0  0  0  0  0  0  0  0  0  0  0
   25.8144  -19.7266  -13.9576 C   0  0  0  0  0  0  0  0  0  0  0  0
   24.6560  -20.3051  -14.6706 C   0  0  2  0  0  0  0  0  0  0  0  0
   24.5173  -20.0835  -16.0559 N   0  0  0  0  0  0  0  0  0  0  0  0
   23.3646  -20.2490  -13.9590 C   0  0  0  0  0  0  0  0  0  0  0  0
   23.1573  -19.3686  -13.0842 O   0  0  0  0  0  0  0  0  0  0  0  0
   22.3435  -21.1763  -14.2349 N   0  0  0  0  0  0  0  0  0  0  0  0
   21.0482  -21.0312  -13.5813 C   0  0  1  0  0  0  0  0  0  0  0  0
   20.3766  -19.7598  -13.9827 C   0  0  0  0  0  0  0  0  0  0  0  0
   18.7569  -19.6272  -13.1854 S   0  0  0  0  0  0  0  0  0  0  0  0
   20.1414  -22.1649  -13.8952 C   0  0  0  0  0  0  0  0  0  0  0  0
   20.4592  -22.8822  -14.8765 O   0  0  0  0  0  0  0  0  0  0  0  0
   18.9936  -22.4261  -13.1433 O   0  0  0  0  0  0  0  0  0  0  0  0
  2  1  1  0
  3  2  1  0
  4  3  1  0
  5  4  1  0
  5  7  1  0
  5  6  1  1
  7 14  1  0
  7  8  2  0
 10  9  1  1
 10 11  1  0
 12 10  1  0
 13 12  1  1
 14 13  1  0
 15 13  1  0
 15 17  1  0
 16 15  2  0
 18 21  1  0
 18 19  1  6
 18 17  1  0
 20 19  1  0
 21 23  1  0
 22 21  2  0
M  END
$$$$
