MLC.pdb
     RDKit          3D

 23 22  0  0  1  0  0  0  0  0999 V2000
   27.8050  -23.1324  -15.8664 C   0  0  0  0  0  0  0  0  0  0  0  0
   27.8258  -21.5337  -16.7081 S   0  0  0  0  0  0  0  0  0  0  0  0
   28.1271  -20.1702  -15.5467 C   0  0  0  0  0  0  0  0  0  0  0  0
   28.0278  -20.6418  -14.1125 C   0  0  0  0  0  0  0  0  0  0  0  0
   26.6162  -20.4154  -13.5741 C   0  0  2  0  0  0  0  0  0  0  0  0
   26.4346  -18.9886  -13.3124 N   0  0  0  0  0  0  0  0  0  0  0  0
   26.3793  -21.1037  -12.2943 C   0  0  0  0  0  0  0  0  0  0  0  0
   26.4029  -22.3455  -12.1336 O   0  0  0  0  0  0  0  0  0  0  0  0
   27.3839  -19.0851   -7.2218 C   0  0  0  0  0  0  0  0  0  0  0  0
   27.1693  -19.9240   -8.4472 C   0  0  1  0  0  0  0  0  0  0  0  0
   28.0774  -21.1424   -8.3399 C   0  0  0  0  0  0  0  0  0  0  0  0
   25.7330  -20.3299   -8.6345 C   0  0  0  0  0  0  0  0  0  0  0  0
   25.4243  -20.8549   -9.9813 C   0  0  2  0  0  0  0  0  0  0  0  0
   26.0979  -20.3241  -11.1002 N   0  0  0  0  0  0  0  0  0  0  0  0
   24.0011  -21.1287  -10.2583 C   0  0  0  0  0  0  0  0  0  0  0  0
   23.3221  -21.8322   -9.4660 O   0  0  0  0  0  0  0  0  0  0  0  0
   23.3751  -20.6190  -11.4103 N   0  0  0  0  0  0  0  0  0  0  0  0
   21.9761  -20.9402  -11.6669 C   0  0  1  0  0  0  0  0  0  0  0  0
   21.2575  -19.7850  -12.2815 C   0  0  0  0  0  0  0  0  0  0  0  0
   21.4057  -18.3212  -11.2270 S   0  0  0  0  0  0  0  0  0  0  0  0
   21.8352  -22.1162  -12.5632 C   0  0  0  0  0  0  0  0  0  0  0  0
   22.8963  -22.5810  -13.0496 O   0  0  0  0  0  0  0  0  0  0  0  0
   20.5916  -22.6812  -12.8547 O   0  0  0  0  0  0  0  0  0  0  0  0
  2  1  1  0
  3  2  1  0
  4  3  1  0
  5  4  1  0
  5  7  1  0
  5  6  1  1
  7 14  1  0
  7  8  2  0
 10  9  1  1
 10 11  1  0
 12 10  1  0
 13 12  1  1
 14 13  1  0
 15 13  1  0
 15 17  1  0
 16 15  2  0
 18 21  1  0
 18 19  1  6
 18 17  1  0
 20 19  1  0
 21 23  1  0
 22 21  2  0
M  END
$$$$
