MLC.pdb
     RDKit          3D

 23 22  0  0  1  0  0  0  0  0999 V2000
   16.1777  -13.8713  -14.3067 C   0  0  0  0  0  0  0  0  0  0  0  0
   15.6514  -13.8038  -16.0339 S   0  0  0  0  0  0  0  0  0  0  0  0
   16.7096  -12.6988  -17.0129 C   0  0  0  0  0  0  0  0  0  0  0  0
   17.7841  -12.0685  -16.1541 C   0  0  0  0  0  0  0  0  0  0  0  0
   18.6943  -11.1839  -17.0042 C   0  0  2  0  0  0  0  0  0  0  0  0
   19.4136  -12.0265  -17.9581 N   0  0  0  0  0  0  0  0  0  0  0  0
   19.7211  -10.4932  -16.2066 C   0  0  0  0  0  0  0  0  0  0  0  0
   19.4885   -9.7691  -15.2116 O   0  0  0  0  0  0  0  0  0  0  0  0
   24.8398  -12.7011  -15.5225 C   0  0  0  0  0  0  0  0  0  0  0  0
   23.5086  -12.0324  -15.3440 C   0  0  1  0  0  0  0  0  0  0  0  0
   23.1364  -12.1264  -13.8697 C   0  0  0  0  0  0  0  0  0  0  0  0
   23.5025  -10.6046  -15.8174 C   0  0  0  0  0  0  0  0  0  0  0  0
   22.1600   -9.9877  -15.8596 C   0  0  2  0  0  0  0  0  0  0  0  0
   21.1236  -10.6373  -16.5605 N   0  0  0  0  0  0  0  0  0  0  0  0
   22.1263   -8.5229  -16.0344 C   0  0  0  0  0  0  0  0  0  0  0  0
   22.1467   -8.0186  -17.1870 O   0  0  0  0  0  0  0  0  0  0  0  0
   22.0778   -7.6608  -14.9239 N   0  0  0  0  0  0  0  0  0  0  0  0
   22.0114   -6.2200  -15.1379 C   0  0  1  0  0  0  0  0  0  0  0  0
   20.7558   -5.8334  -15.8469 C   0  0  0  0  0  0  0  0  0  0  0  0
   19.3098   -6.3657  -14.8969 S   0  0  0  0  0  0  0  0  0  0  0  0
   22.0834   -5.4681  -13.8590 C   0  0  0  0  0  0  0  0  0  0  0  0
   22.2252   -4.2229  -13.9477 O   0  0  0  0  0  0  0  0  0  0  0  0
   21.9986   -6.1051  -12.6189 O   0  0  0  0  0  0  0  0  0  0  0  0
  2  1  1  0
  3  2  1  0
  4  3  1  0
  5  4  1  0
  5  7  1  0
  5  6  1  6
  7 14  1  0
  7  8  2  0
 10  9  1  1
 10 11  1  0
 12 10  1  0
 13 12  1  6
 14 13  1  0
 15 13  1  0
 15 17  1  0
 16 15  2  0
 18 21  1  0
 18 19  1  1
 18 17  1  0
 20 19  1  0
 21 23  1  0
 22 21  2  0
M  END
$$$$
