MLC.pdb
     RDKit          3D

 23 22  0  0  1  0  0  0  0  0999 V2000
   29.9236  -21.0985  -19.5776 C   0  0  0  0  0  0  0  0  0  0  0  0
   28.8685  -19.6693  -19.9072 S   0  0  0  0  0  0  0  0  0  0  0  0
   27.6706  -19.3994  -18.5688 C   0  0  0  0  0  0  0  0  0  0  0  0
   27.6671  -20.5586  -17.5964 C   0  0  0  0  0  0  0  0  0  0  0  0
   26.4842  -20.4447  -16.6363 C   0  0  2  0  0  0  0  0  0  0  0  0
   26.3102  -19.0408  -16.2672 N   0  0  0  0  0  0  0  0  0  0  0  0
   26.7008  -21.1790  -15.3788 C   0  0  0  0  0  0  0  0  0  0  0  0
   26.8741  -22.4163  -15.2922 O   0  0  0  0  0  0  0  0  0  0  0  0
   30.5275  -20.1478  -11.9642 C   0  0  0  0  0  0  0  0  0  0  0  0
   29.3925  -20.6714  -12.7942 C   0  0  1  0  0  0  0  0  0  0  0  0
   29.7827  -22.0576  -13.2914 C   0  0  0  0  0  0  0  0  0  0  0  0
   28.0882  -20.7083  -12.0457 C   0  0  0  0  0  0  0  0  0  0  0  0
   26.9259  -21.0890  -12.8757 C   0  0  2  0  0  0  0  0  0  0  0  0
   26.7279  -20.4544  -14.1189 N   0  0  0  0  0  0  0  0  0  0  0  0
   25.6606  -21.3163  -12.1514 C   0  0  0  0  0  0  0  0  0  0  0  0
   25.6576  -21.9260  -11.0507 O   0  0  0  0  0  0  0  0  0  0  0  0
   24.4347  -20.8657  -12.6739 N   0  0  0  0  0  0  0  0  0  0  0  0
   23.2079  -21.0913  -11.9187 C   0  0  1  0  0  0  0  0  0  0  0  0
   23.0856  -20.1314  -10.7819 C   0  0  0  0  0  0  0  0  0  0  0  0
   23.9092  -20.7921   -9.3116 S   0  0  0  0  0  0  0  0  0  0  0  0
   22.0013  -20.9661  -12.7756 C   0  0  0  0  0  0  0  0  0  0  0  0
   20.9012  -21.2527  -12.2405 O   0  0  0  0  0  0  0  0  0  0  0  0
   22.0776  -20.5521  -14.1074 O   0  0  0  0  0  0  0  0  0  0  0  0
  2  1  1  0
  3  2  1  0
  4  3  1  0
  5  4  1  0
  5  7  1  0
  5  6  1  1
  7 14  1  0
  7  8  2  0
 10  9  1  1
 10 11  1  0
 12 10  1  0
 13 12  1  1
 14 13  1  0
 15 13  1  0
 15 17  1  0
 16 15  2  0
 18 21  1  0
 18 19  1  1
 18 17  1  0
 20 19  1  0
 21 23  1  0
 22 21  2  0
M  END
$$$$
