MLC.pdb
     RDKit          3D

 23 22  0  0  1  0  0  0  0  0999 V2000
   30.7251  -23.8492  -14.7640 C   0  0  0  0  0  0  0  0  0  0  0  0
   30.1457  -24.3993  -16.3846 S   0  0  0  0  0  0  0  0  0  0  0  0
   30.0848  -23.0280  -17.5740 C   0  0  0  0  0  0  0  0  0  0  0  0
   29.4587  -21.7966  -16.9569 C   0  0  0  0  0  0  0  0  0  0  0  0
   27.9726  -22.0309  -16.6914 C   0  0  2  0  0  0  0  0  0  0  0  0
   27.2892  -22.2187  -17.9700 N   0  0  0  0  0  0  0  0  0  0  0  0
   27.3237  -20.8806  -16.0408 C   0  0  0  0  0  0  0  0  0  0  0  0
   27.6242  -20.4333  -14.9104 O   0  0  0  0  0  0  0  0  0  0  0  0
   27.7619  -16.3756  -18.0480 C   0  0  0  0  0  0  0  0  0  0  0  0
   27.4716  -17.4729  -17.0667 C   0  0  1  0  0  0  0  0  0  0  0  0
   28.1611  -17.1170  -15.7558 C   0  0  0  0  0  0  0  0  0  0  0  0
   25.9989  -17.7016  -16.8630 C   0  0  0  0  0  0  0  0  0  0  0  0
   25.6706  -18.9946  -16.2265 C   0  0  2  0  0  0  0  0  0  0  0  0
   26.2520  -20.1775  -16.7266 N   0  0  0  0  0  0  0  0  0  0  0  0
   24.2610  -19.1825  -15.8329 C   0  0  0  0  0  0  0  0  0  0  0  0
   23.5875  -18.2137  -15.3955 O   0  0  0  0  0  0  0  0  0  0  0  0
   23.6423  -20.4420  -15.9302 N   0  0  0  0  0  0  0  0  0  0  0  0
   22.2887  -20.6169  -15.4171 C   0  0  1  0  0  0  0  0  0  0  0  0
   22.2014  -20.2399  -13.9753 C   0  0  0  0  0  0  0  0  0  0  0  0
   22.6933  -21.6347  -12.9314 S   0  0  0  0  0  0  0  0  0  0  0  0
   21.3014  -19.8092  -16.1779 C   0  0  0  0  0  0  0  0  0  0  0  0
   21.7643  -19.0393  -17.0563 O   0  0  0  0  0  0  0  0  0  0  0  0
   19.9286  -19.8956  -15.9351 O   0  0  0  0  0  0  0  0  0  0  0  0
  2  1  1  0
  3  2  1  0
  4  3  1  0
  5  4  1  0
  5  7  1  0
  5  6  1  6
  7 14  1  0
  7  8  2  0
 10  9  1  6
 10 11  1  0
 12 10  1  0
 13 12  1  6
 14 13  1  0
 15 13  1  0
 15 17  1  0
 16 15  2  0
 18 21  1  0
 18 19  1  1
 18 17  1  0
 20 19  1  0
 21 23  1  0
 22 21  2  0
M  END
$$$$
