MLC.pdb
     RDKit          3D

 23 22  0  0  1  0  0  0  0  0999 V2000
   14.9915  -13.6160  -19.1202 C   0  0  0  0  0  0  0  0  0  0  0  0
   16.3825  -13.3348  -20.2386 S   0  0  0  0  0  0  0  0  0  0  0  0
   17.9749  -13.5101  -19.3828 C   0  0  0  0  0  0  0  0  0  0  0  0
   18.1554  -12.4310  -18.3376 C   0  0  0  0  0  0  0  0  0  0  0  0
   19.4880  -12.6098  -17.6123 C   0  0  2  0  0  0  0  0  0  0  0  0
   19.3656  -13.7193  -16.6682 N   0  0  0  0  0  0  0  0  0  0  0  0
   19.8643  -11.4296  -16.8166 C   0  0  0  0  0  0  0  0  0  0  0  0
   19.1518  -10.9068  -15.9293 O   0  0  0  0  0  0  0  0  0  0  0  0
   24.9267  -10.4750  -14.6764 C   0  0  0  0  0  0  0  0  0  0  0  0
   23.4521  -10.5427  -14.9452 C   0  0  1  0  0  0  0  0  0  0  0  0
   22.7300  -10.3790  -13.6138 C   0  0  0  0  0  0  0  0  0  0  0  0
   22.9915   -9.5169  -15.9445 C   0  0  0  0  0  0  0  0  0  0  0  0
   21.5715   -9.6475  -16.3336 C   0  0  2  0  0  0  0  0  0  0  0  0
   21.1519  -10.7930  -17.0399 N   0  0  0  0  0  0  0  0  0  0  0  0
   20.9175   -8.4164  -16.8173 C   0  0  0  0  0  0  0  0  0  0  0  0
   20.8542   -8.1712  -18.0498 O   0  0  0  0  0  0  0  0  0  0  0  0
   20.3588   -7.4903  -15.9178 N   0  0  0  0  0  0  0  0  0  0  0  0
   19.7168   -6.2875  -16.4347 C   0  0  1  0  0  0  0  0  0  0  0  0
   18.3855   -6.0654  -15.7966 C   0  0  0  0  0  0  0  0  0  0  0  0
   17.7246   -4.4483  -16.2710 S   0  0  0  0  0  0  0  0  0  0  0  0
   20.5528   -5.0791  -16.2181 C   0  0  0  0  0  0  0  0  0  0  0  0
   21.2693   -5.0704  -15.1860 O   0  0  0  0  0  0  0  0  0  0  0  0
   20.5479   -4.0047  -17.1106 O   0  0  0  0  0  0  0  0  0  0  0  0
  2  1  1  0
  3  2  1  0
  4  3  1  0
  5  4  1  0
  5  7  1  0
  5  6  1  1
  7 14  1  0
  7  8  2  0
 10  9  1  1
 10 11  1  0
 12 10  1  0
 13 12  1  6
 14 13  1  0
 15 13  1  0
 15 17  1  0
 16 15  2  0
 18 21  1  0
 18 19  1  1
 18 17  1  0
 20 19  1  0
 21 23  1  0
 22 21  2  0
M  END
$$$$
