MLC.pdb
     RDKit          3D

 23 22  0  0  1  0  0  0  0  0999 V2000
   16.9558  -16.6549  -15.1282 C   0  0  0  0  0  0  0  0  0  0  0  0
   17.7807  -17.5327  -16.4749 S   0  0  0  0  0  0  0  0  0  0  0  0
   18.7899  -16.4105  -17.4855 C   0  0  0  0  0  0  0  0  0  0  0  0
   19.5620  -15.4398  -16.6189 C   0  0  0  0  0  0  0  0  0  0  0  0
   20.3600  -14.4690  -17.4876 C   0  0  2  0  0  0  0  0  0  0  0  0
   21.3122  -15.2312  -18.2938 N   0  0  0  0  0  0  0  0  0  0  0  0
   21.1576  -13.5201  -16.6932 C   0  0  0  0  0  0  0  0  0  0  0  0
   20.7332  -12.8797  -15.7042 O   0  0  0  0  0  0  0  0  0  0  0  0
   26.7501  -13.9321  -16.1525 C   0  0  0  0  0  0  0  0  0  0  0  0
   25.2864  -13.7148  -15.9043 C   0  0  1  0  0  0  0  0  0  0  0  0
   25.0468  -13.8395  -14.4050 C   0  0  0  0  0  0  0  0  0  0  0  0
   24.7939  -12.3929  -16.4266 C   0  0  0  0  0  0  0  0  0  0  0  0
   23.3217  -12.2628  -16.4492 C   0  0  2  0  0  0  0  0  0  0  0  0
   22.5479  -13.2803  -17.0434 N   0  0  0  0  0  0  0  0  0  0  0  0
   22.7959  -10.9145  -16.7369 C   0  0  0  0  0  0  0  0  0  0  0  0
   22.7220  -10.4994  -17.9225 O   0  0  0  0  0  0  0  0  0  0  0  0
   22.3736  -10.0639  -15.6992 N   0  0  0  0  0  0  0  0  0  0  0  0
   21.8864   -8.7279  -16.0214 C   0  0  1  0  0  0  0  0  0  0  0  0
   20.6246   -8.7871  -16.8170 C   0  0  0  0  0  0  0  0  0  0  0  0
   19.8834   -7.1403  -16.9410 S   0  0  0  0  0  0  0  0  0  0  0  0
   21.6376   -7.9214  -14.7992 C   0  0  0  0  0  0  0  0  0  0  0  0
   21.4716   -6.6872  -14.9659 O   0  0  0  0  0  0  0  0  0  0  0  0
   21.5895   -8.4977  -13.5279 O   0  0  0  0  0  0  0  0  0  0  0  0
  2  1  1  0
  3  2  1  0
  4  3  1  0
  5  4  1  0
  5  7  1  0
  5  6  1  6
  7 14  1  0
  7  8  2  0
 10  9  1  1
 10 11  1  0
 12 10  1  0
 13 12  1  6
 14 13  1  0
 15 13  1  0
 15 17  1  0
 16 15  2  0
 18 21  1  0
 18 19  1  1
 18 17  1  0
 20 19  1  0
 21 23  1  0
 22 21  2  0
M  END
$$$$
