MLC.pdb
     RDKit          3D

 23 22  0  0  1  0  0  0  0  0999 V2000
   26.8443  -17.8666  -19.0254 C   0  0  0  0  0  0  0  0  0  0  0  0
   28.4680  -18.0709  -18.2596 S   0  0  0  0  0  0  0  0  0  0  0  0
   28.3648  -18.0127  -16.4471 C   0  0  0  0  0  0  0  0  0  0  0  0
   27.1094  -18.6948  -15.9490 C   0  0  0  0  0  0  0  0  0  0  0  0
   27.4638  -19.8152  -14.9728 C   0  0  2  0  0  0  0  0  0  0  0  0
   28.0942  -20.9055  -15.7153 N   0  0  0  0  0  0  0  0  0  0  0  0
   26.2790  -20.3928  -14.3169 C   0  0  0  0  0  0  0  0  0  0  0  0
   25.5010  -21.2211  -14.8432 O   0  0  0  0  0  0  0  0  0  0  0  0
   26.8136  -21.5153  -10.5181 C   0  0  0  0  0  0  0  0  0  0  0  0
   25.4066  -21.3072  -10.0401 C   0  0  1  0  0  0  0  0  0  0  0  0
   25.4686  -20.9335   -8.5646 C   0  0  0  0  0  0  0  0  0  0  0  0
   24.6662  -20.2665  -10.8350 C   0  0  0  0  0  0  0  0  0  0  0  0
   24.7782  -20.4321  -12.2995 C   0  0  2  0  0  0  0  0  0  0  0  0
   25.9510  -20.0053  -12.9548 N   0  0  0  0  0  0  0  0  0  0  0  0
   23.5595  -20.1400  -13.0785 C   0  0  0  0  0  0  0  0  0  0  0  0
   23.3642  -18.9886  -13.5471 O   0  0  0  0  0  0  0  0  0  0  0  0
   22.5903  -21.1331  -13.3087 N   0  0  0  0  0  0  0  0  0  0  0  0
   21.3438  -20.7765  -13.9760 C   0  0  1  0  0  0  0  0  0  0  0  0
   21.1164  -21.6180  -15.1880 C   0  0  0  0  0  0  0  0  0  0  0  0
   21.6442  -23.3213  -14.8770 S   0  0  0  0  0  0  0  0  0  0  0  0
   20.1734  -20.9213  -13.0731 C   0  0  0  0  0  0  0  0  0  0  0  0
   20.3958  -21.4216  -11.9423 O   0  0  0  0  0  0  0  0  0  0  0  0
   18.8896  -20.5243  -13.4543 O   0  0  0  0  0  0  0  0  0  0  0  0
  2  1  1  0
  3  2  1  0
  4  3  1  0
  5  4  1  0
  5  7  1  0
  5  6  1  6
  7 14  1  0
  7  8  2  0
 10  9  1  6
 10 11  1  0
 12 10  1  0
 13 12  1  1
 14 13  1  0
 15 13  1  0
 15 17  1  0
 16 15  2  0
 18 21  1  0
 18 19  1  6
 18 17  1  0
 20 19  1  0
 21 23  1  0
 22 21  2  0
M  END
$$$$
