MLC.pdb
     RDKit          3D

 23 22  0  0  1  0  0  0  0  0999 V2000
   16.9951  -33.9019  -11.6099 C   0  0  0  0  0  0  0  0  0  0  0  0
   17.2917  -33.7508  -13.3858 S   0  0  0  0  0  0  0  0  0  0  0  0
   19.0616  -33.5793  -13.7562 C   0  0  0  0  0  0  0  0  0  0  0  0
   19.9104  -34.0145  -12.5817 C   0  0  0  0  0  0  0  0  0  0  0  0
   21.3930  -33.8221  -12.8959 C   0  0  2  0  0  0  0  0  0  0  0  0
   21.7545  -34.6914  -14.0145 N   0  0  0  0  0  0  0  0  0  0  0  0
   22.2658  -34.2070  -11.7745 C   0  0  0  0  0  0  0  0  0  0  0  0
   22.5647  -35.3846  -11.4707 O   0  0  0  0  0  0  0  0  0  0  0  0
   26.3196  -34.8813   -8.8774 C   0  0  0  0  0  0  0  0  0  0  0  0
   25.8540  -33.4788   -8.6172 C   0  0  1  0  0  0  0  0  0  0  0  0
   27.0867  -32.6210   -8.3614 C   0  0  0  0  0  0  0  0  0  0  0  0
   25.0247  -32.9194   -9.7406 C   0  0  0  0  0  0  0  0  0  0  0  0
   23.6546  -33.4695   -9.8120 C   0  0  2  0  0  0  0  0  0  0  0  0
   22.8507  -33.1766  -10.9324 N   0  0  0  0  0  0  0  0  0  0  0  0
   22.8880  -33.4620   -8.5512 C   0  0  0  0  0  0  0  0  0  0  0  0
   22.3352  -32.4057   -8.1485 O   0  0  0  0  0  0  0  0  0  0  0  0
   22.7633  -34.6258   -7.7712 N   0  0  0  0  0  0  0  0  0  0  0  0
   22.0150  -34.5734   -6.5208 C   0  0  1  0  0  0  0  0  0  0  0  0
   21.2916  -35.8543   -6.2665 C   0  0  0  0  0  0  0  0  0  0  0  0
   20.0712  -36.1547   -7.5693 S   0  0  0  0  0  0  0  0  0  0  0  0
   22.8980  -34.2904   -5.3605 C   0  0  0  0  0  0  0  0  0  0  0  0
   24.1316  -34.4418   -5.5444 O   0  0  0  0  0  0  0  0  0  0  0  0
   22.3908  -33.8771   -4.1265 O   0  0  0  0  0  0  0  0  0  0  0  0
  2  1  1  0
  3  2  1  0
  4  3  1  0
  5  4  1  0
  5  7  1  0
  5  6  1  6
  7 14  1  0
  7  8  2  0
 10  9  1  6
 10 11  1  0
 12 10  1  0
 13 12  1  1
 14 13  1  0
 15 13  1  0
 15 17  1  0
 16 15  2  0
 18 21  1  0
 18 19  1  1
 18 17  1  0
 20 19  1  0
 21 23  1  0
 22 21  2  0
M  END
$$$$
