MLC.pdb
     RDKit          3D

 23 22  0  0  1  0  0  0  0  0999 V2000
   24.1168  -21.0007  -19.9030 C   0  0  0  0  0  0  0  0  0  0  0  0
   25.1062  -19.4907  -19.9800 S   0  0  0  0  0  0  0  0  0  0  0  0
   26.0965  -19.2625  -18.4746 C   0  0  0  0  0  0  0  0  0  0  0  0
   25.6914  -20.2469  -17.3993 C   0  0  0  0  0  0  0  0  0  0  0  0
   25.1037  -19.5102  -16.1970 C   0  0  2  0  0  0  0  0  0  0  0  0
   26.1982  -18.9473  -15.4079 N   0  0  0  0  0  0  0  0  0  0  0  0
   24.3586  -20.4020  -15.2931 C   0  0  0  0  0  0  0  0  0  0  0  0
   23.7961  -21.4659  -15.6396 O   0  0  0  0  0  0  0  0  0  0  0  0
   25.5723  -20.6249   -9.7663 C   0  0  0  0  0  0  0  0  0  0  0  0
   25.2580  -20.9175  -11.2039 C   0  0  1  0  0  0  0  0  0  0  0  0
   25.7333  -22.3335  -11.5035 C   0  0  0  0  0  0  0  0  0  0  0  0
   23.7988  -20.7523  -11.5296 C   0  0  0  0  0  0  0  0  0  0  0  0
   23.4891  -20.8308  -12.9727 C   0  0  2  0  0  0  0  0  0  0  0  0
   24.2451  -20.0652  -13.8836 N   0  0  0  0  0  0  0  0  0  0  0  0
   22.0570  -20.8739  -13.3257 C   0  0  0  0  0  0  0  0  0  0  0  0
   21.3758  -19.8163  -13.3524 O   0  0  0  0  0  0  0  0  0  0  0  0
   21.4217  -22.0910  -13.6320 N   0  0  0  0  0  0  0  0  0  0  0  0
   20.0049  -22.0926  -13.9767 C   0  0  1  0  0  0  0  0  0  0  0  0
   19.7294  -22.9895  -15.1379 C   0  0  0  0  0  0  0  0  0  0  0  0
   17.9507  -23.0625  -15.4659 S   0  0  0  0  0  0  0  0  0  0  0  0
   19.1594  -22.5241  -12.8344 C   0  0  0  0  0  0  0  0  0  0  0  0
   19.5956  -23.4778  -12.1425 O   0  0  0  0  0  0  0  0  0  0  0  0
   17.9418  -21.9069  -12.5388 O   0  0  0  0  0  0  0  0  0  0  0  0
  2  1  1  0
  3  2  1  0
  4  3  1  0
  5  4  1  0
  5  7  1  0
  5  6  1  1
  7 14  1  0
  7  8  2  0
 10  9  1  1
 10 11  1  0
 12 10  1  0
 13 12  1  1
 14 13  1  0
 15 13  1  0
 15 17  1  0
 16 15  2  0
 18 21  1  0
 18 19  1  6
 18 17  1  0
 20 19  1  0
 21 23  1  0
 22 21  2  0
M  END
$$$$
