MLC.pdb
     RDKit          3D

 23 22  0  0  1  0  0  0  0  0999 V2000
   20.2523  -13.3356  -21.7562 C   0  0  0  0  0  0  0  0  0  0  0  0
   21.4485  -12.1211  -22.3551 S   0  0  0  0  0  0  0  0  0  0  0  0
   21.9397  -10.9634  -21.0446 C   0  0  0  0  0  0  0  0  0  0  0  0
   20.7353  -10.4640  -20.2769 C   0  0  0  0  0  0  0  0  0  0  0  0
   21.1658   -9.4730  -19.1969 C   0  0  2  0  0  0  0  0  0  0  0  0
   22.1070  -10.1366  -18.2963 N   0  0  0  0  0  0  0  0  0  0  0  0
   20.0417   -9.0212  -18.3602 C   0  0  0  0  0  0  0  0  0  0  0  0
   19.0158   -8.4450  -18.7888 O   0  0  0  0  0  0  0  0  0  0  0  0
   18.7255  -12.2072  -14.6770 C   0  0  0  0  0  0  0  0  0  0  0  0
   18.5029  -11.2665  -15.8245 C   0  0  1  0  0  0  0  0  0  0  0  0
   17.3568  -11.8196  -16.6619 C   0  0  0  0  0  0  0  0  0  0  0  0
   18.2220   -9.8571  -15.3800 C   0  0  0  0  0  0  0  0  0  0  0  0
   19.0448   -8.8341  -16.0591 C   0  0  2  0  0  0  0  0  0  0  0  0
   20.0799   -9.2435  -16.9242 N   0  0  0  0  0  0  0  0  0  0  0  0
   19.4213   -7.6621  -15.2453 C   0  0  0  0  0  0  0  0  0  0  0  0
   18.6077   -7.1723  -14.4198 O   0  0  0  0  0  0  0  0  0  0  0  0
   20.6878   -7.0643  -15.3768 N   0  0  0  0  0  0  0  0  0  0  0  0
   20.9588   -5.8032  -14.6969 C   0  0  1  0  0  0  0  0  0  0  0  0
   22.0582   -5.9501  -13.6978 C   0  0  0  0  0  0  0  0  0  0  0  0
   22.4289   -4.3515  -12.9335 S   0  0  0  0  0  0  0  0  0  0  0  0
   21.3290   -4.7289  -15.6534 C   0  0  0  0  0  0  0  0  0  0  0  0
   21.9112   -5.0913  -16.7061 O   0  0  0  0  0  0  0  0  0  0  0  0
   21.0478   -3.3839  -15.4025 O   0  0  0  0  0  0  0  0  0  0  0  0
  2  1  1  0
  3  2  1  0
  4  3  1  0
  5  4  1  0
  5  7  1  0
  5  6  1  1
  7 14  1  0
  7  8  2  0
 10  9  1  1
 10 11  1  0
 12 10  1  0
 13 12  1  1
 14 13  1  0
 15 13  1  0
 15 17  1  0
 16 15  2  0
 18 21  1  0
 18 19  1  1
 18 17  1  0
 20 19  1  0
 21 23  1  0
 22 21  2  0
M  END
$$$$
