MLC.pdb
     RDKit          3D

 23 22  0  0  1  0  0  0  0  0999 V2000
   16.8738  -15.2848  -17.5221 C   0  0  0  0  0  0  0  0  0  0  0  0
   17.5748  -15.4734  -19.1767 S   0  0  0  0  0  0  0  0  0  0  0  0
   18.7602  -14.1505  -19.5557 C   0  0  0  0  0  0  0  0  0  0  0  0
   18.8790  -13.1765  -18.4040 C   0  0  0  0  0  0  0  0  0  0  0  0
   19.9055  -12.0922  -18.7273 C   0  0  2  0  0  0  0  0  0  0  0  0
   21.2256  -12.7106  -18.8375 N   0  0  0  0  0  0  0  0  0  0  0  0
   20.0120  -11.0767  -17.6666 C   0  0  0  0  0  0  0  0  0  0  0  0
   19.0399  -10.5560  -17.0730 O   0  0  0  0  0  0  0  0  0  0  0  0
   24.0781  -10.8557  -13.8047 C   0  0  0  0  0  0  0  0  0  0  0  0
   22.7541  -10.7373  -14.5006 C   0  0  1  0  0  0  0  0  0  0  0  0
   21.6741  -10.6459  -13.4300 C   0  0  0  0  0  0  0  0  0  0  0  0
   22.6897   -9.5649  -15.4408 C   0  0  0  0  0  0  0  0  0  0  0  0
   21.5036   -9.5623  -16.3229 C   0  0  2  0  0  0  0  0  0  0  0  0
   21.3236  -10.6171  -17.2406 N   0  0  0  0  0  0  0  0  0  0  0  0
   21.1192   -8.2537  -16.8862 C   0  0  0  0  0  0  0  0  0  0  0  0
   21.7151   -7.7950  -17.8950 O   0  0  0  0  0  0  0  0  0  0  0  0
   20.0889   -7.4898  -16.3086 N   0  0  0  0  0  0  0  0  0  0  0  0
   19.7367   -6.2023  -16.8953 C   0  0  1  0  0  0  0  0  0  0  0  0
   18.5274   -6.3136  -17.7636 C   0  0  0  0  0  0  0  0  0  0  0  0
   17.1151   -6.9066  -16.7991 S   0  0  0  0  0  0  0  0  0  0  0  0
   19.4793   -5.1736  -15.8553 C   0  0  0  0  0  0  0  0  0  0  0  0
   19.3294   -3.9933  -16.2588 O   0  0  0  0  0  0  0  0  0  0  0  0
   19.4063   -5.4942  -14.4978 O   0  0  0  0  0  0  0  0  0  0  0  0
  2  1  1  0
  3  2  1  0
  4  3  1  0
  5  4  1  0
  5  7  1  0
  5  6  1  1
  7 14  1  0
  7  8  2  0
 10  9  1  1
 10 11  1  0
 12 10  1  0
 13 12  1  6
 14 13  1  0
 15 13  1  0
 15 17  1  0
 16 15  2  0
 18 21  1  0
 18 19  1  1
 18 17  1  0
 20 19  1  0
 21 23  1  0
 22 21  2  0
M  END
$$$$
