MLC.pdb
     RDKit          3D

 23 22  0  0  1  0  0  0  0  0999 V2000
   20.8731  -18.3840  -21.5117 C   0  0  0  0  0  0  0  0  0  0  0  0
   21.3393  -17.0215  -20.4204 S   0  0  0  0  0  0  0  0  0  0  0  0
   20.0095  -16.6156  -19.2517 C   0  0  0  0  0  0  0  0  0  0  0  0
   20.3790  -15.4238  -18.3958 C   0  0  0  0  0  0  0  0  0  0  0  0
   21.5553  -15.7676  -17.4837 C   0  0  2  0  0  0  0  0  0  0  0  0
   21.1054  -16.7252  -16.4748 N   0  0  0  0  0  0  0  0  0  0  0  0
   22.0630  -14.5986  -16.7466 C   0  0  0  0  0  0  0  0  0  0  0  0
   21.4457  -14.0039  -15.8335 O   0  0  0  0  0  0  0  0  0  0  0  0
   25.3899  -11.3414  -14.2395 C   0  0  0  0  0  0  0  0  0  0  0  0
   25.8669  -11.5573  -15.6456 C   0  0  1  0  0  0  0  0  0  0  0  0
   27.3882  -11.4775  -15.6365 C   0  0  0  0  0  0  0  0  0  0  0  0
   25.3933  -12.8595  -16.2310 C   0  0  0  0  0  0  0  0  0  0  0  0
   23.9279  -12.9467  -16.4038 C   0  0  2  0  0  0  0  0  0  0  0  0
   23.3761  -14.0626  -17.0653 N   0  0  0  0  0  0  0  0  0  0  0  0
   23.2418  -11.6882  -16.7540 C   0  0  0  0  0  0  0  0  0  0  0  0
   23.2964  -11.2386  -17.9281 O   0  0  0  0  0  0  0  0  0  0  0  0
   22.5208  -10.9622  -15.7888 N   0  0  0  0  0  0  0  0  0  0  0  0
   21.8770   -9.7099  -16.1676 C   0  0  1  0  0  0  0  0  0  0  0  0
   20.3928   -9.8589  -16.2286 C   0  0  0  0  0  0  0  0  0  0  0  0
   19.7430  -10.3352  -14.6076 S   0  0  0  0  0  0  0  0  0  0  0  0
   22.2039   -8.6129  -15.2212 C   0  0  0  0  0  0  0  0  0  0  0  0
   22.8970   -8.9234  -14.2204 O   0  0  0  0  0  0  0  0  0  0  0  0
   21.7671   -7.3021  -15.4265 O   0  0  0  0  0  0  0  0  0  0  0  0
  2  1  1  0
  3  2  1  0
  4  3  1  0
  5  4  1  0
  5  7  1  0
  5  6  1  1
  7 14  1  0
  7  8  2  0
 10  9  1  1
 10 11  1  0
 12 10  1  0
 13 12  1  6
 14 13  1  0
 15 13  1  0
 15 17  1  0
 16 15  2  0
 18 21  1  0
 18 19  1  1
 18 17  1  0
 20 19  1  0
 21 23  1  0
 22 21  2  0
M  END
$$$$
