MLC.pdb
     RDKit          3D

 23 22  0  0  1  0  0  0  0  0999 V2000
   26.6973  -15.5185  -14.7355 C   0  0  0  0  0  0  0  0  0  0  0  0
   27.3122  -15.7937  -16.4120 S   0  0  0  0  0  0  0  0  0  0  0  0
   27.7865  -17.5273  -16.6744 C   0  0  0  0  0  0  0  0  0  0  0  0
   26.6944  -18.4682  -16.2147 C   0  0  0  0  0  0  0  0  0  0  0  0
   27.2416  -19.4571  -15.1867 C   0  0  2  0  0  0  0  0  0  0  0  0
   28.1486  -20.3845  -15.8610 N   0  0  0  0  0  0  0  0  0  0  0  0
   26.1867  -20.2821  -14.5749 C   0  0  0  0  0  0  0  0  0  0  0  0
   25.7471  -21.3530  -15.0527 O   0  0  0  0  0  0  0  0  0  0  0  0
   25.8316  -20.6238   -9.0454 C   0  0  0  0  0  0  0  0  0  0  0  0
   25.8691  -20.8406  -10.5296 C   0  0  1  0  0  0  0  0  0  0  0  0
   26.3770  -22.2551  -10.7789 C   0  0  0  0  0  0  0  0  0  0  0  0
   24.5352  -20.6169  -11.1879 C   0  0  0  0  0  0  0  0  0  0  0  0
   24.5839  -20.6107  -12.6652 C   0  0  2  0  0  0  0  0  0  0  0  0
   25.5845  -19.8639  -13.3197 N   0  0  0  0  0  0  0  0  0  0  0  0
   23.2818  -20.5341  -13.3551 C   0  0  0  0  0  0  0  0  0  0  0  0
   22.8157  -19.4216  -13.7137 O   0  0  0  0  0  0  0  0  0  0  0  0
   22.5322  -21.6944  -13.6206 N   0  0  0  0  0  0  0  0  0  0  0  0
   21.2347  -21.5749  -14.2751 C   0  0  1  0  0  0  0  0  0  0  0  0
   20.8949  -22.8125  -15.0376 C   0  0  0  0  0  0  0  0  0  0  0  0
   21.0361  -24.2665  -13.9686 S   0  0  0  0  0  0  0  0  0  0  0  0
   20.1471  -21.3064  -13.2998 C   0  0  0  0  0  0  0  0  0  0  0  0
   20.4655  -21.3280  -12.0846 O   0  0  0  0  0  0  0  0  0  0  0  0
   18.8367  -21.0430  -13.7049 O   0  0  0  0  0  0  0  0  0  0  0  0
  2  1  1  0
  3  2  1  0
  4  3  1  0
  5  4  1  0
  5  7  1  0
  5  6  1  6
  7 14  1  0
  7  8  2  0
 10  9  1  1
 10 11  1  0
 12 10  1  0
 13 12  1  1
 14 13  1  0
 15 13  1  0
 15 17  1  0
 16 15  2  0
 18 21  1  0
 18 19  1  1
 18 17  1  0
 20 19  1  0
 21 23  1  0
 22 21  2  0
M  END
$$$$
