WYN.pdb
     RDKit          3D

 35 37  0  0  1  0  0  0  0  0999 V2000
    6.1969  -18.3859   23.6129 N   0  0  0  0  0  0  0  0  0  0  0  0
    6.9040  -17.1119   23.7612 C   0  0  1  0  0  0  0  0  0  0  0  0
    7.1774  -16.8222   25.2230 C   0  0  0  0  0  0  0  0  0  0  0  0
    6.5599  -15.5764   25.6801 C   0  0  0  0  0  0  0  0  0  0  0  0
    5.2217  -15.3307   25.9739 C   0  0  0  0  0  0  0  0  0  0  0  0
    5.0875  -14.0691   26.3544 N   0  0  0  0  0  0  0  0  0  0  0  0
    6.2626  -13.4328   26.3382 C   0  0  0  0  0  0  0  0  0  0  0  0
    6.6234  -12.1337   26.6468 C   0  0  0  0  0  0  0  0  0  0  0  0
    7.9548  -11.8122   26.5156 C   0  0  0  0  0  0  0  0  0  0  0  0
    8.9090  -12.7196   26.0984 C   0  0  0  0  0  0  0  0  0  0  0  0
    8.5223  -13.9906   25.8020 C   0  0  0  0  0  0  0  0  0  0  0  0
    7.2017  -14.3787   25.9125 C   0  0  0  0  0  0  0  0  0  0  0  0
    8.1575  -17.1125   22.9642 C   0  0  0  0  0  0  0  0  0  0  0  0
    8.6611  -18.2333   22.7018 O   0  0  0  0  0  0  0  0  0  0  0  0
    6.2396  -13.4829   17.0535 O   0  0  0  0  0  0  0  0  0  0  0  0
    7.2155  -13.7502   18.0301 C   0  0  0  0  0  0  0  0  0  0  0  0
    8.0222  -14.8625   17.9274 C   0  0  0  0  0  0  0  0  0  0  0  0
    8.9918  -15.1350   18.8906 C   0  0  0  0  0  0  0  0  0  0  0  0
    9.1733  -14.3011   19.9747 C   0  0  0  0  0  0  0  0  0  0  0  0
   10.2172  -14.6559   20.9506 C   0  0  0  0  0  0  0  0  0  0  0  0
    9.9822  -15.9431   21.6714 C   0  0  2  0  0  0  0  0  0  0  0  0
    8.8068  -15.9671   22.4929 N   0  0  0  0  0  0  0  0  0  0  0  0
   11.1652  -16.1791   22.5431 C   0  0  0  0  0  0  0  0  0  0  0  0
   12.3475  -16.1919   22.0624 O   0  0  0  0  0  0  0  0  0  0  0  0
    8.3737  -13.1989   20.0762 C   0  0  0  0  0  0  0  0  0  0  0  0
    7.4009  -12.9211   19.1139 C   0  0  0  0  0  0  0  0  0  0  0  0
    9.6934  -18.2560   26.5089 N   0  0  0  0  0  0  0  0  0  0  0  0
   11.0967  -18.0389   26.5066 C   0  0  0  0  0  0  0  0  0  0  0  0
   11.8911  -18.9672   26.7232 O   0  0  0  0  0  0  0  0  0  0  0  0
   11.6100  -16.6861   26.2421 C   0  0  0  0  0  0  0  0  0  0  0  0
   12.1559  -16.6414   24.8332 C   0  0  2  0  0  0  0  0  0  0  0  0
   11.0303  -16.3974   23.9324 N   0  0  0  0  0  0  0  0  0  0  0  0
   12.8375  -17.8558   24.4022 C   0  0  0  0  0  0  0  0  0  0  0  0
   12.2363  -18.8955   23.6854 O   0  0  0  0  0  0  0  0  0  0  0  0
   14.0532  -18.0181   24.6756 O   0  0  0  0  0  0  0  0  0  0  0  0
  2  1  1  1
  3  4  1  0
  3  2  1  0
  4  5  2  0
  5  6  1  0
  7  6  1  0
  8  7  2  0
  9  8  1  0
 10 11  1  0
 10  9  2  0
 11 12  2  0
 12  4  1  0
 12  7  1  0
 13  2  1  0
 13 22  1  0
 14 13  2  0
 15 16  1  0
 16 17  2  0
 17 18  1  0
 19 20  1  0
 19 18  2  0
 21 20  1  1
 21 22  1  0
 21 23  1  0
 23 32  1  0
 24 23  2  0
 25 19  1  0
 26 25  2  0
 26 16  1  0
 28 27  1  0
 29 28  2  0
 30 28  1  0
 31 33  1  0
 31 30  1  1
 32 31  1  0
 33 34  1  0
 35 33  2  0
M  END
$$$$
