WYN.pdb
     RDKit          3D

 35 37  0  0  1  0  0  0  0  0999 V2000
    6.5605  -17.3670   26.1161 N   0  0  0  0  0  0  0  0  0  0  0  0
    7.6455  -17.0624   25.1806 C   0  0  1  0  0  0  0  0  0  0  0  0
    8.4207  -15.8456   25.6430 C   0  0  0  0  0  0  0  0  0  0  0  0
    7.6955  -14.5933   25.4237 C   0  0  0  0  0  0  0  0  0  0  0  0
    6.8178  -13.9394   26.2836 C   0  0  0  0  0  0  0  0  0  0  0  0
    6.3801  -12.8356   25.6968 N   0  0  0  0  0  0  0  0  0  0  0  0
    6.9098  -12.6947   24.4779 C   0  0  0  0  0  0  0  0  0  0  0  0
    6.7605  -11.7248   23.5032 C   0  0  0  0  0  0  0  0  0  0  0  0
    7.4740  -11.9000   22.3398 C   0  0  0  0  0  0  0  0  0  0  0  0
    8.3069  -12.9808   22.1251 C   0  0  0  0  0  0  0  0  0  0  0  0
    8.4326  -13.9185   23.1037 C   0  0  0  0  0  0  0  0  0  0  0  0
    7.7444  -13.8028   24.2954 C   0  0  0  0  0  0  0  0  0  0  0  0
    8.5349  -18.2396   25.0086 C   0  0  0  0  0  0  0  0  0  0  0  0
    8.7980  -18.9062   26.0406 O   0  0  0  0  0  0  0  0  0  0  0  0
    4.1971  -22.6783   24.0955 O   0  0  0  0  0  0  0  0  0  0  0  0
    5.4944  -22.2420   23.7727 C   0  0  0  0  0  0  0  0  0  0  0  0
    5.6908  -21.2986   22.7878 C   0  0  0  0  0  0  0  0  0  0  0  0
    6.9728  -20.8605   22.4613 C   0  0  0  0  0  0  0  0  0  0  0  0
    8.0829  -21.3572   23.1129 C   0  0  0  0  0  0  0  0  0  0  0  0
    9.4042  -20.8463   22.7118 C   0  0  0  0  0  0  0  0  0  0  0  0
    9.9548  -19.7807   23.6024 C   0  0  2  0  0  0  0  0  0  0  0  0
    9.0922  -18.6510   23.7937 N   0  0  0  0  0  0  0  0  0  0  0  0
   11.2198  -19.3016   22.9816 C   0  0  0  0  0  0  0  0  0  0  0  0
   12.1687  -20.1102   22.7084 O   0  0  0  0  0  0  0  0  0  0  0  0
    7.8880  -22.2922   24.0889 C   0  0  0  0  0  0  0  0  0  0  0  0
    6.6056  -22.7344   24.4200 C   0  0  0  0  0  0  0  0  0  0  0  0
   12.8645  -17.7744   19.0161 N   0  0  0  0  0  0  0  0  0  0  0  0
   11.8869  -17.1883   19.8629 C   0  0  0  0  0  0  0  0  0  0  0  0
   10.6750  -17.3082   19.6247 O   0  0  0  0  0  0  0  0  0  0  0  0
   12.3269  -16.4266   21.0418 C   0  0  0  0  0  0  0  0  0  0  0  0
   12.6761  -17.3993   22.1450 C   0  0  2  0  0  0  0  0  0  0  0  0
   11.4225  -17.9386   22.6696 N   0  0  0  0  0  0  0  0  0  0  0  0
   13.4305  -16.8240   23.2519 C   0  0  0  0  0  0  0  0  0  0  0  0
   14.7102  -16.2705   23.1416 O   0  0  0  0  0  0  0  0  0  0  0  0
   12.9295  -16.8057   24.4041 O   0  0  0  0  0  0  0  0  0  0  0  0
  2  1  1  1
  3  4  1  0
  3  2  1  0
  4  5  2  0
  5  6  1  0
  7  6  1  0
  8  7  2  0
  9  8  1  0
 10 11  1  0
 10  9  2  0
 11 12  2  0
 12  4  1  0
 12  7  1  0
 13  2  1  0
 13 22  1  0
 14 13  2  0
 15 16  1  0
 16 17  2  0
 17 18  1  0
 19 20  1  0
 19 18  2  0
 21 20  1  6
 21 22  1  0
 21 23  1  0
 23 32  1  0
 24 23  2  0
 25 19  1  0
 26 25  2  0
 26 16  1  0
 28 27  1  0
 29 28  2  0
 30 28  1  0
 31 33  1  0
 31 30  1  6
 32 31  1  0
 33 34  1  0
 35 33  2  0
M  END
$$$$
