WYN.pdb
     RDKit          3D

 35 37  0  0  1  0  0  0  0  0999 V2000
    6.3290  -17.6748   24.5285 N   0  0  0  0  0  0  0  0  0  0  0  0
    7.1484  -16.4831   24.2968 C   0  0  1  0  0  0  0  0  0  0  0  0
    7.9634  -16.1500   25.5298 C   0  0  0  0  0  0  0  0  0  0  0  0
    7.2710  -15.2344   26.4378 C   0  0  0  0  0  0  0  0  0  0  0  0
    6.3069  -15.5310   27.3969 C   0  0  0  0  0  0  0  0  0  0  0  0
    5.9398  -14.4111   28.0013 N   0  0  0  0  0  0  0  0  0  0  0  0
    6.6001  -13.3586   27.5092 C   0  0  0  0  0  0  0  0  0  0  0  0
    6.5617  -12.0095   27.8119 C   0  0  0  0  0  0  0  0  0  0  0  0
    7.3974  -11.1883   27.0906 C   0  0  0  0  0  0  0  0  0  0  0  0
    8.2450  -11.6572   26.1059 C   0  0  0  0  0  0  0  0  0  0  0  0
    8.2596  -12.9903   25.8312 C   0  0  0  0  0  0  0  0  0  0  0  0
    7.4457  -13.8693   26.5183 C   0  0  0  0  0  0  0  0  0  0  0  0
    8.0165  -16.6676   23.1057 C   0  0  0  0  0  0  0  0  0  0  0  0
    8.1110  -17.8343   22.6491 O   0  0  0  0  0  0  0  0  0  0  0  0
   10.0443  -14.1055   14.8725 O   0  0  0  0  0  0  0  0  0  0  0  0
    9.7042  -14.1516   16.2363 C   0  0  0  0  0  0  0  0  0  0  0  0
   10.6667  -13.9646   17.2044 C   0  0  0  0  0  0  0  0  0  0  0  0
   10.3385  -14.0087   18.5581 C   0  0  0  0  0  0  0  0  0  0  0  0
    9.0423  -14.2407   18.9698 C   0  0  0  0  0  0  0  0  0  0  0  0
    8.7738  -14.2736   20.4171 C   0  0  0  0  0  0  0  0  0  0  0  0
    9.0467  -15.5893   21.0699 C   0  0  2  0  0  0  0  0  0  0  0  0
    8.7264  -15.6461   22.4668 N   0  0  0  0  0  0  0  0  0  0  0  0
   10.5014  -15.8623   20.9137 C   0  0  0  0  0  0  0  0  0  0  0  0
   11.3635  -15.2989   21.6676 O   0  0  0  0  0  0  0  0  0  0  0  0
    8.0887  -14.4260   18.0102 C   0  0  0  0  0  0  0  0  0  0  0  0
    8.4121  -14.3827   16.6525 C   0  0  0  0  0  0  0  0  0  0  0  0
   13.9596  -20.1872   20.2298 N   0  0  0  0  0  0  0  0  0  0  0  0
   13.5159  -19.3347   19.1845 C   0  0  0  0  0  0  0  0  0  0  0  0
   14.2346  -19.0948   18.2019 O   0  0  0  0  0  0  0  0  0  0  0  0
   12.1787  -18.7287   19.2758 C   0  0  0  0  0  0  0  0  0  0  0  0
   12.2952  -17.4024   19.9918 C   0  0  2  0  0  0  0  0  0  0  0  0
   10.9871  -16.7523   19.9298 N   0  0  0  0  0  0  0  0  0  0  0  0
   13.2899  -16.4927   19.4369 C   0  0  0  0  0  0  0  0  0  0  0  0
   13.0098  -15.4559   18.5409 O   0  0  0  0  0  0  0  0  0  0  0  0
   14.4974  -16.6168   19.7619 O   0  0  0  0  0  0  0  0  0  0  0  0
  2  1  1  1
  3  4  1  0
  3  2  1  0
  4  5  2  0
  5  6  1  0
  7  6  1  0
  8  7  2  0
  9  8  1  0
 10 11  1  0
 10  9  2  0
 11 12  2  0
 12  4  1  0
 12  7  1  0
 13  2  1  0
 13 22  1  0
 14 13  2  0
 15 16  1  0
 16 17  2  0
 17 18  1  0
 19 20  1  0
 19 18  2  0
 21 20  1  1
 21 22  1  0
 21 23  1  0
 23 32  1  0
 24 23  2  0
 25 19  1  0
 26 25  2  0
 26 16  1  0
 28 27  1  0
 29 28  2  0
 30 28  1  0
 31 33  1  0
 31 30  1  6
 32 31  1  0
 33 34  1  0
 35 33  2  0
M  END
$$$$
