WYN.pdb
     RDKit          3D

 35 37  0  0  1  0  0  0  0  0999 V2000
    5.4986  -14.8508   21.4547 N   0  0  0  0  0  0  0  0  0  0  0  0
    6.9347  -14.9803   21.7120 C   0  0  1  0  0  0  0  0  0  0  0  0
    7.6651  -13.7191   21.2982 C   0  0  0  0  0  0  0  0  0  0  0  0
    7.6676  -13.5139   19.8490 C   0  0  0  0  0  0  0  0  0  0  0  0
    6.9441  -12.5864   19.1050 C   0  0  0  0  0  0  0  0  0  0  0  0
    7.2388  -12.7369   17.8225 N   0  0  0  0  0  0  0  0  0  0  0  0
    8.1271  -13.7193   17.6437 C   0  0  0  0  0  0  0  0  0  0  0  0
    8.7278  -14.2380   16.5110 C   0  0  0  0  0  0  0  0  0  0  0  0
    9.6160  -15.2720   16.6985 C   0  0  0  0  0  0  0  0  0  0  0  0
    9.9146  -15.7891   17.9440 C   0  0  0  0  0  0  0  0  0  0  0  0
    9.3067  -15.2572   19.0396 C   0  0  0  0  0  0  0  0  0  0  0  0
    8.4051  -14.2179   18.9212 C   0  0  0  0  0  0  0  0  0  0  0  0
    7.1837  -15.3084   23.1391 C   0  0  0  0  0  0  0  0  0  0  0  0
    6.5393  -14.6490   23.9926 O   0  0  0  0  0  0  0  0  0  0  0  0
    5.2793  -21.8659   23.8843 O   0  0  0  0  0  0  0  0  0  0  0  0
    5.8544  -20.6759   24.3648 C   0  0  0  0  0  0  0  0  0  0  0  0
    6.9553  -20.7151   25.1926 C   0  0  0  0  0  0  0  0  0  0  0  0
    7.5316  -19.5408   25.6734 C   0  0  0  0  0  0  0  0  0  0  0  0
    7.0184  -18.3053   25.3362 C   0  0  0  0  0  0  0  0  0  0  0  0
    7.6813  -17.1103   25.8841 C   0  0  0  0  0  0  0  0  0  0  0  0
    8.5866  -16.4076   24.9258 C   0  0  2  0  0  0  0  0  0  0  0  0
    8.0741  -16.2872   23.5917 N   0  0  0  0  0  0  0  0  0  0  0  0
    9.8541  -17.1857   24.8700 C   0  0  0  0  0  0  0  0  0  0  0  0
   10.0529  -18.0592   23.9610 O   0  0  0  0  0  0  0  0  0  0  0  0
    5.9274  -18.2668   24.5159 C   0  0  0  0  0  0  0  0  0  0  0  0
    5.3463  -19.4403   24.0312 C   0  0  0  0  0  0  0  0  0  0  0  0
   14.2224  -18.8119   24.5678 N   0  0  0  0  0  0  0  0  0  0  0  0
   14.3757  -17.4453   24.9217 C   0  0  0  0  0  0  0  0  0  0  0  0
   15.4295  -16.8344   24.6852 O   0  0  0  0  0  0  0  0  0  0  0  0
   13.2604  -16.7483   25.5804 C   0  0  0  0  0  0  0  0  0  0  0  0
   12.1425  -17.7378   25.8175 C   0  0  2  0  0  0  0  0  0  0  0  0
   10.8856  -16.9909   25.8156 N   0  0  0  0  0  0  0  0  0  0  0  0
   12.2371  -18.4796   27.0689 C   0  0  0  0  0  0  0  0  0  0  0  0
   13.0021  -19.6357   27.2543 O   0  0  0  0  0  0  0  0  0  0  0  0
   11.5996  -18.0841   28.0771 O   0  0  0  0  0  0  0  0  0  0  0  0
  2  1  1  1
  3  4  1  0
  3  2  1  0
  4  5  2  0
  5  6  1  0
  7  6  1  0
  8  7  2  0
  9  8  1  0
 10 11  1  0
 10  9  2  0
 11 12  2  0
 12  4  1  0
 12  7  1  0
 13  2  1  0
 13 22  1  0
 14 13  2  0
 15 16  1  0
 16 17  2  0
 17 18  1  0
 19 20  1  0
 19 18  2  0
 21 20  1  1
 21 22  1  0
 21 23  1  0
 23 32  1  0
 24 23  2  0
 25 19  1  0
 26 25  2  0
 26 16  1  0
 28 27  1  0
 29 28  2  0
 30 28  1  0
 31 33  1  0
 31 30  1  1
 32 31  1  0
 33 34  1  0
 35 33  2  0
M  END
$$$$
