WYN.pdb
     RDKit          3D

 35 37  0  0  1  0  0  0  0  0999 V2000
    9.0329  -16.8165   21.8750 N   0  0  0  0  0  0  0  0  0  0  0  0
    9.1332  -15.4312   22.3398 C   0  0  1  0  0  0  0  0  0  0  0  0
    7.8072  -14.7172   22.1740 C   0  0  0  0  0  0  0  0  0  0  0  0
    7.3872  -14.6171   20.7754 C   0  0  0  0  0  0  0  0  0  0  0  0
    6.3769  -15.3177   20.1229 C   0  0  0  0  0  0  0  0  0  0  0  0
    6.3262  -14.9256   18.8588 N   0  0  0  0  0  0  0  0  0  0  0  0
    7.2483  -13.9918   18.6061 C   0  0  0  0  0  0  0  0  0  0  0  0
    7.5764  -13.2924   17.4588 C   0  0  0  0  0  0  0  0  0  0  0  0
    8.6044  -12.3834   17.5595 C   0  0  0  0  0  0  0  0  0  0  0  0
    9.2948  -12.1575   18.7344 C   0  0  0  0  0  0  0  0  0  0  0  0
    8.9482  -12.8619   19.8464 C   0  0  0  0  0  0  0  0  0  0  0  0
    7.9257  -13.7894   19.8135 C   0  0  0  0  0  0  0  0  0  0  0  0
    9.6029  -15.3837   23.7481 C   0  0  0  0  0  0  0  0  0  0  0  0
   10.2731  -14.3768   24.0879 O   0  0  0  0  0  0  0  0  0  0  0  0
    5.6675  -11.2849   26.4828 O   0  0  0  0  0  0  0  0  0  0  0  0
    6.4129  -12.4683   26.6295 C   0  0  0  0  0  0  0  0  0  0  0  0
    5.8476  -13.6917   26.3426 C   0  0  0  0  0  0  0  0  0  0  0  0
    6.5788  -14.8694   26.4852 C   0  0  0  0  0  0  0  0  0  0  0  0
    7.8889  -14.8467   26.9176 C   0  0  0  0  0  0  0  0  0  0  0  0
    8.5957  -16.1321   27.0441 C   0  0  0  0  0  0  0  0  0  0  0  0
    9.7316  -16.3130   26.0909 C   0  0  2  0  0  0  0  0  0  0  0  0
    9.3541  -16.3695   24.7084 N   0  0  0  0  0  0  0  0  0  0  0  0
   10.4001  -17.5948   26.4445 C   0  0  0  0  0  0  0  0  0  0  0  0
   10.8100  -17.8200   27.6320 O   0  0  0  0  0  0  0  0  0  0  0  0
    8.4488  -13.6342   27.2019 C   0  0  0  0  0  0  0  0  0  0  0  0
    7.7206  -12.4512   27.0606 C   0  0  0  0  0  0  0  0  0  0  0  0
   12.7679  -22.3481   24.1025 N   0  0  0  0  0  0  0  0  0  0  0  0
   13.1917  -21.1296   24.6957 C   0  0  0  0  0  0  0  0  0  0  0  0
   14.2401  -21.0669   25.3565 O   0  0  0  0  0  0  0  0  0  0  0  0
   12.3674  -19.9243   24.5191 C   0  0  0  0  0  0  0  0  0  0  0  0
   11.4481  -19.7865   25.7112 C   0  0  2  0  0  0  0  0  0  0  0  0
   10.6077  -18.6115   25.4857 N   0  0  0  0  0  0  0  0  0  0  0  0
   12.1263  -19.6304   26.9921 C   0  0  0  0  0  0  0  0  0  0  0  0
   12.9620  -18.5598   27.3261 O   0  0  0  0  0  0  0  0  0  0  0  0
   11.9751  -20.4996   27.8869 O   0  0  0  0  0  0  0  0  0  0  0  0
  2  1  1  1
  3  4  1  0
  3  2  1  0
  4  5  2  0
  5  6  1  0
  7  6  1  0
  8  7  2  0
  9  8  1  0
 10 11  1  0
 10  9  2  0
 11 12  2  0
 12  4  1  0
 12  7  1  0
 13  2  1  0
 13 22  1  0
 14 13  2  0
 15 16  1  0
 16 17  2  0
 17 18  1  0
 19 20  1  0
 19 18  2  0
 21 20  1  1
 21 22  1  0
 21 23  1  0
 23 32  1  0
 24 23  2  0
 25 19  1  0
 26 25  2  0
 26 16  1  0
 28 27  1  0
 29 28  2  0
 30 28  1  0
 31 33  1  0
 31 30  1  6
 32 31  1  0
 33 34  1  0
 35 33  2  0
M  END
$$$$
