WYN.pdb
     RDKit          3D

 35 37  0  0  1  0  0  0  0  0999 V2000
    7.6996  -18.7729   25.7187 N   0  0  0  0  0  0  0  0  0  0  0  0
    7.3431  -17.4007   25.3509 C   0  0  1  0  0  0  0  0  0  0  0  0
    7.8731  -16.4202   26.3771 C   0  0  0  0  0  0  0  0  0  0  0  0
    7.0187  -15.2418   26.5308 C   0  0  0  0  0  0  0  0  0  0  0  0
    5.6338  -15.1567   26.4210 C   0  0  0  0  0  0  0  0  0  0  0  0
    5.2598  -13.9039   26.6331 N   0  0  0  0  0  0  0  0  0  0  0  0
    6.3140  -13.1215   26.8831 C   0  0  0  0  0  0  0  0  0  0  0  0
    6.4278  -11.7709   27.1591 C   0  0  0  0  0  0  0  0  0  0  0  0
    7.6980  -11.2863   27.3708 C   0  0  0  0  0  0  0  0  0  0  0  0
    8.8247  -12.0836   27.3172 C   0  0  0  0  0  0  0  0  0  0  0  0
    8.6798  -13.4090   27.0430 C   0  0  0  0  0  0  0  0  0  0  0  0
    7.4329  -13.9593   26.8206 C   0  0  0  0  0  0  0  0  0  0  0  0
    7.8362  -17.0789   23.9872 C   0  0  0  0  0  0  0  0  0  0  0  0
    8.6811  -17.8648   23.4905 O   0  0  0  0  0  0  0  0  0  0  0  0
    9.1030  -13.2445   16.0659 O   0  0  0  0  0  0  0  0  0  0  0  0
    8.6790  -13.5008   17.3821 C   0  0  0  0  0  0  0  0  0  0  0  0
    7.9234  -14.6166   17.6693 C   0  0  0  0  0  0  0  0  0  0  0  0
    7.4989  -14.8781   18.9707 C   0  0  0  0  0  0  0  0  0  0  0  0
    7.8215  -14.0294   20.0095 C   0  0  0  0  0  0  0  0  0  0  0  0
    7.3360  -14.3724   21.3565 C   0  0  0  0  0  0  0  0  0  0  0  0
    7.9026  -15.6353   21.9183 C   0  0  2  0  0  0  0  0  0  0  0  0
    7.4304  -15.9761   23.2291 N   0  0  0  0  0  0  0  0  0  0  0  0
    9.3791  -15.4611   21.9854 C   0  0  0  0  0  0  0  0  0  0  0  0
    9.9071  -14.5939   22.7587 O   0  0  0  0  0  0  0  0  0  0  0  0
    8.5704  -12.9237   19.7245 C   0  0  0  0  0  0  0  0  0  0  0  0
    8.9983  -12.6570   18.4224 C   0  0  0  0  0  0  0  0  0  0  0  0
   14.6212  -17.5092   22.1130 N   0  0  0  0  0  0  0  0  0  0  0  0
   13.7681  -17.3492   20.9891 C   0  0  0  0  0  0  0  0  0  0  0  0
   14.2281  -17.1075   19.8623 O   0  0  0  0  0  0  0  0  0  0  0  0
   12.3140  -17.4737   21.1723 C   0  0  0  0  0  0  0  0  0  0  0  0
   11.7081  -16.0890   21.1971 C   0  0  2  0  0  0  0  0  0  0  0  0
   10.2543  -16.2446   21.2003 N   0  0  0  0  0  0  0  0  0  0  0  0
   12.0791  -15.2385   20.0728 C   0  0  0  0  0  0  0  0  0  0  0  0
   13.0799  -14.2621   20.1084 O   0  0  0  0  0  0  0  0  0  0  0  0
   11.4795  -15.3602   18.9752 O   0  0  0  0  0  0  0  0  0  0  0  0
  2  1  1  1
  3  4  1  0
  3  2  1  0
  4  5  2  0
  5  6  1  0
  7  6  1  0
  8  7  2  0
  9  8  1  0
 10 11  1  0
 10  9  2  0
 11 12  2  0
 12  4  1  0
 12  7  1  0
 13  2  1  0
 13 22  1  0
 14 13  2  0
 15 16  1  0
 16 17  2  0
 17 18  1  0
 19 20  1  0
 19 18  2  0
 21 20  1  1
 21 22  1  0
 21 23  1  0
 23 32  1  0
 24 23  2  0
 25 19  1  0
 26 25  2  0
 26 16  1  0
 28 27  1  0
 29 28  2  0
 30 28  1  0
 31 33  1  0
 31 30  1  6
 32 31  1  0
 33 34  1  0
 35 33  2  0
M  END
$$$$
