WYN.pdb
     RDKit          3D

 35 37  0  0  1  0  0  0  0  0999 V2000
    8.3478  -17.1662   22.2199 N   0  0  0  0  0  0  0  0  0  0  0  0
    8.8207  -15.7875   22.3646 C   0  0  1  0  0  0  0  0  0  0  0  0
    7.7104  -14.8079   22.0438 C   0  0  0  0  0  0  0  0  0  0  0  0
    7.6779  -14.4293   20.6304 C   0  0  0  0  0  0  0  0  0  0  0  0
    6.6828  -14.6796   19.6900 C   0  0  0  0  0  0  0  0  0  0  0  0
    7.0492  -14.1651   18.5258 N   0  0  0  0  0  0  0  0  0  0  0  0
    8.2443  -13.5736   18.6146 C   0  0  0  0  0  0  0  0  0  0  0  0
    9.0272  -12.9103   17.6871 C   0  0  0  0  0  0  0  0  0  0  0  0
   10.2304  -12.4140   18.1332 C   0  0  0  0  0  0  0  0  0  0  0  0
   10.6640  -12.5547   19.4371 C   0  0  0  0  0  0  0  0  0  0  0  0
    9.8708  -13.2129   20.3261 C   0  0  0  0  0  0  0  0  0  0  0  0
    8.6511  -13.7355   19.9435 C   0  0  0  0  0  0  0  0  0  0  0  0
    9.3673  -15.5614   23.7271 C   0  0  0  0  0  0  0  0  0  0  0  0
   10.0611  -14.5274   23.8945 O   0  0  0  0  0  0  0  0  0  0  0  0
    5.5259  -11.1114   26.2043 O   0  0  0  0  0  0  0  0  0  0  0  0
    6.2756  -12.2776   26.4405 C   0  0  0  0  0  0  0  0  0  0  0  0
    5.7179  -13.5212   26.2384 C   0  0  0  0  0  0  0  0  0  0  0  0
    6.4535  -14.6820   26.4700 C   0  0  0  0  0  0  0  0  0  0  0  0
    7.7603  -14.6217   26.9082 C   0  0  0  0  0  0  0  0  0  0  0  0
    8.4721  -15.8911   27.1313 C   0  0  0  0  0  0  0  0  0  0  0  0
    9.5839  -16.1574   26.1697 C   0  0  2  0  0  0  0  0  0  0  0  0
    9.1659  -16.4090   24.8210 N   0  0  0  0  0  0  0  0  0  0  0  0
   10.3122  -17.3576   26.6638 C   0  0  0  0  0  0  0  0  0  0  0  0
   10.6951  -17.4440   27.8783 O   0  0  0  0  0  0  0  0  0  0  0  0
    8.3128  -13.3891   27.1085 C   0  0  0  0  0  0  0  0  0  0  0  0
    7.5802  -12.2230   26.8778 C   0  0  0  0  0  0  0  0  0  0  0  0
   10.3302  -19.3926   23.7922 N   0  0  0  0  0  0  0  0  0  0  0  0
   10.1623  -20.6619   24.4061 C   0  0  0  0  0  0  0  0  0  0  0  0
    9.6562  -21.6123   23.7894 O   0  0  0  0  0  0  0  0  0  0  0  0
   10.5987  -20.8454   25.7987 C   0  0  0  0  0  0  0  0  0  0  0  0
   11.3739  -19.6211   26.2294 C   0  0  2  0  0  0  0  0  0  0  0  0
   10.6085  -18.4467   25.8140 N   0  0  0  0  0  0  0  0  0  0  0  0
   12.7164  -19.5190   25.6703 C   0  0  0  0  0  0  0  0  0  0  0  0
   13.1842  -18.4405   24.9125 O   0  0  0  0  0  0  0  0  0  0  0  0
   13.5424  -20.4467   25.8602 O   0  0  0  0  0  0  0  0  0  0  0  0
  2  1  1  1
  3  4  1  0
  3  2  1  0
  4  5  2  0
  5  6  1  0
  7  6  1  0
  8  7  2  0
  9  8  1  0
 10 11  1  0
 10  9  2  0
 11 12  2  0
 12  4  1  0
 12  7  1  0
 13  2  1  0
 13 22  1  0
 14 13  2  0
 15 16  1  0
 16 17  2  0
 17 18  1  0
 19 20  1  0
 19 18  2  0
 21 20  1  1
 21 22  1  0
 21 23  1  0
 23 32  1  0
 24 23  2  0
 25 19  1  0
 26 25  2  0
 26 16  1  0
 28 27  1  0
 29 28  2  0
 30 28  1  0
 31 33  1  0
 31 30  1  6
 32 31  1  0
 33 34  1  0
 35 33  2  0
M  END
$$$$
