WYN.pdb
     RDKit          3D

 35 37  0  0  1  0  0  0  0  0999 V2000
    5.9235  -18.4588   23.9605 N   0  0  0  0  0  0  0  0  0  0  0  0
    6.5842  -17.1573   24.0825 C   0  0  1  0  0  0  0  0  0  0  0  0
    6.7963  -16.8031   25.5402 C   0  0  0  0  0  0  0  0  0  0  0  0
    6.6763  -15.3675   25.7989 C   0  0  0  0  0  0  0  0  0  0  0  0
    5.6137  -14.5199   25.4993 C   0  0  0  0  0  0  0  0  0  0  0  0
    5.9117  -13.2941   25.9028 N   0  0  0  0  0  0  0  0  0  0  0  0
    7.1236  -13.2524   26.4645 C   0  0  0  0  0  0  0  0  0  0  0  0
    7.8566  -12.2215   27.0240 C   0  0  0  0  0  0  0  0  0  0  0  0
    9.0989  -12.5428   27.5209 C   0  0  0  0  0  0  0  0  0  0  0  0
    9.6170  -13.8224   27.4781 C   0  0  0  0  0  0  0  0  0  0  0  0
    8.8712  -14.8154   26.9208 C   0  0  0  0  0  0  0  0  0  0  0  0
    7.6163  -14.5606   26.4036 C   0  0  0  0  0  0  0  0  0  0  0  0
    7.8646  -17.1471   23.3295 C   0  0  0  0  0  0  0  0  0  0  0  0
    8.3134  -18.2610   22.9604 O   0  0  0  0  0  0  0  0  0  0  0  0
    6.6747  -13.3475   17.3242 O   0  0  0  0  0  0  0  0  0  0  0  0
    7.5270  -13.6431   18.4030 C   0  0  0  0  0  0  0  0  0  0  0  0
    8.1721  -14.8587   18.4726 C   0  0  0  0  0  0  0  0  0  0  0  0
    9.0184  -15.1601   19.5381 C   0  0  0  0  0  0  0  0  0  0  0  0
    9.2358  -14.2523   20.5541 C   0  0  0  0  0  0  0  0  0  0  0  0
   10.1427  -14.6434   21.6461 C   0  0  0  0  0  0  0  0  0  0  0  0
    9.8266  -15.9614   22.2743 C   0  0  2  0  0  0  0  0  0  0  0  0
    8.5947  -15.9985   23.0080 N   0  0  0  0  0  0  0  0  0  0  0  0
   10.9379  -16.2771   23.2126 C   0  0  0  0  0  0  0  0  0  0  0  0
   12.1474  -16.3320   22.8088 O   0  0  0  0  0  0  0  0  0  0  0  0
    8.5963  -13.0478   20.4848 C   0  0  0  0  0  0  0  0  0  0  0  0
    7.7475  -12.7407   19.4195 C   0  0  0  0  0  0  0  0  0  0  0  0
   13.0443  -15.8163   28.3751 N   0  0  0  0  0  0  0  0  0  0  0  0
   12.1861  -16.8640   27.9483 C   0  0  0  0  0  0  0  0  0  0  0  0
   12.2913  -18.0102   28.4119 O   0  0  0  0  0  0  0  0  0  0  0  0
   11.1565  -16.5773   26.9378 C   0  0  0  0  0  0  0  0  0  0  0  0
   11.7615  -16.7577   25.5642 C   0  0  2  0  0  0  0  0  0  0  0  0
   10.7023  -16.5275   24.5829 N   0  0  0  0  0  0  0  0  0  0  0  0
   12.3408  -18.0727   25.3187 C   0  0  0  0  0  0  0  0  0  0  0  0
   13.6911  -18.3935   25.4914 O   0  0  0  0  0  0  0  0  0  0  0  0
   11.6069  -19.0123   24.9217 O   0  0  0  0  0  0  0  0  0  0  0  0
  2  1  1  1
  3  4  1  0
  3  2  1  0
  4  5  2  0
  5  6  1  0
  7  6  1  0
  8  7  2  0
  9  8  1  0
 10 11  1  0
 10  9  2  0
 11 12  2  0
 12  4  1  0
 12  7  1  0
 13  2  1  0
 13 22  1  0
 14 13  2  0
 15 16  1  0
 16 17  2  0
 17 18  1  0
 19 20  1  0
 19 18  2  0
 21 20  1  1
 21 22  1  0
 21 23  1  0
 23 32  1  0
 24 23  2  0
 25 19  1  0
 26 25  2  0
 26 16  1  0
 28 27  1  0
 29 28  2  0
 30 28  1  0
 31 33  1  0
 31 30  1  1
 32 31  1  0
 33 34  1  0
 35 33  2  0
M  END
$$$$
