WYN.pdb
     RDKit          3D

 35 37  0  0  1  0  0  0  0  0999 V2000
    6.6902  -18.2595   25.5525 N   0  0  0  0  0  0  0  0  0  0  0  0
    7.0657  -17.1112   24.7245 C   0  0  1  0  0  0  0  0  0  0  0  0
    7.8515  -16.1032   25.5379 C   0  0  0  0  0  0  0  0  0  0  0  0
    6.9970  -15.1089   26.1887 C   0  0  0  0  0  0  0  0  0  0  0  0
    5.9541  -15.3186   27.0863 C   0  0  0  0  0  0  0  0  0  0  0  0
    5.4419  -14.1478   27.4346 N   0  0  0  0  0  0  0  0  0  0  0  0
    6.0768  -13.1427   26.8242 C   0  0  0  0  0  0  0  0  0  0  0  0
    5.9081  -11.7706   26.8675 C   0  0  0  0  0  0  0  0  0  0  0  0
    6.7593  -11.0165   26.0930 C   0  0  0  0  0  0  0  0  0  0  0  0
    7.7444  -11.5724   25.3002 C   0  0  0  0  0  0  0  0  0  0  0  0
    7.8852  -12.9261   25.2790 C   0  0  0  0  0  0  0  0  0  0  0  0
    7.0636  -13.7408   26.0328 C   0  0  0  0  0  0  0  0  0  0  0  0
    7.8262  -17.5544   23.5280 C   0  0  0  0  0  0  0  0  0  0  0  0
    8.7038  -18.4350   23.7089 O   0  0  0  0  0  0  0  0  0  0  0  0
    8.3462  -11.2637   19.1686 O   0  0  0  0  0  0  0  0  0  0  0  0
    8.2522  -12.6596   19.3108 C   0  0  0  0  0  0  0  0  0  0  0  0
    7.0873  -13.2403   19.7629 C   0  0  0  0  0  0  0  0  0  0  0  0
    6.9855  -14.6228   19.9069 C   0  0  0  0  0  0  0  0  0  0  0  0
    8.0461  -15.4509   19.6020 C   0  0  0  0  0  0  0  0  0  0  0  0
    7.8626  -16.9008   19.7806 C   0  0  0  0  0  0  0  0  0  0  0  0
    8.3892  -17.4394   21.0706 C   0  0  2  0  0  0  0  0  0  0  0  0
    7.6351  -17.0652   22.2318 N   0  0  0  0  0  0  0  0  0  0  0  0
    9.7755  -16.9214   21.2281 C   0  0  0  0  0  0  0  0  0  0  0  0
   10.0029  -15.8126   21.8180 O   0  0  0  0  0  0  0  0  0  0  0  0
    9.2004  -14.8751   19.1541 C   0  0  0  0  0  0  0  0  0  0  0  0
    9.3077  -13.4906   19.0079 C   0  0  0  0  0  0  0  0  0  0  0  0
   14.3313  -17.2561   23.9140 N   0  0  0  0  0  0  0  0  0  0  0  0
   13.9848  -17.9518   22.7257 C   0  0  0  0  0  0  0  0  0  0  0  0
   14.8569  -18.4172   21.9757 O   0  0  0  0  0  0  0  0  0  0  0  0
   12.5639  -18.1196   22.3846 C   0  0  0  0  0  0  0  0  0  0  0  0
   12.2747  -17.3471   21.1177 C   0  0  2  0  0  0  0  0  0  0  0  0
   10.8927  -17.6314   20.7344 N   0  0  0  0  0  0  0  0  0  0  0  0
   13.1423  -17.6712   19.9920 C   0  0  0  0  0  0  0  0  0  0  0  0
   12.7161  -18.2787   18.8064 O   0  0  0  0  0  0  0  0  0  0  0  0
   14.3682  -17.4017   20.0526 O   0  0  0  0  0  0  0  0  0  0  0  0
  2  1  1  1
  3  4  1  0
  3  2  1  0
  4  5  2  0
  5  6  1  0
  7  6  1  0
  8  7  2  0
  9  8  1  0
 10 11  1  0
 10  9  2  0
 11 12  2  0
 12  4  1  0
 12  7  1  0
 13  2  1  0
 13 22  1  0
 14 13  2  0
 15 16  1  0
 16 17  2  0
 17 18  1  0
 19 20  1  0
 19 18  2  0
 21 20  1  6
 21 22  1  0
 21 23  1  0
 23 32  1  0
 24 23  2  0
 25 19  1  0
 26 25  2  0
 26 16  1  0
 28 27  1  0
 29 28  2  0
 30 28  1  0
 31 33  1  0
 31 30  1  1
 32 31  1  0
 33 34  1  0
 35 33  2  0
M  END
$$$$
