WYN.pdb
     RDKit          3D

 35 37  0  0  1  0  0  0  0  0999 V2000
    5.8476  -17.1008   23.1817 N   0  0  0  0  0  0  0  0  0  0  0  0
    7.2488  -16.6889   23.0707 C   0  0  1  0  0  0  0  0  0  0  0  0
    7.8129  -16.3487   24.4351 C   0  0  0  0  0  0  0  0  0  0  0  0
    6.9752  -15.4050   25.1767 C   0  0  0  0  0  0  0  0  0  0  0  0
    5.7008  -15.6048   25.6996 C   0  0  0  0  0  0  0  0  0  0  0  0
    5.3003  -14.4933   26.2984 N   0  0  0  0  0  0  0  0  0  0  0  0
    6.2316  -13.5384   26.2155 C   0  0  0  0  0  0  0  0  0  0  0  0
    6.2742  -12.2355   26.6778 C   0  0  0  0  0  0  0  0  0  0  0  0
    7.4175  -11.5190   26.4079 C   0  0  0  0  0  0  0  0  0  0  0  0
    8.4876  -12.0463   25.7118 C   0  0  0  0  0  0  0  0  0  0  0  0
    8.4151  -13.3317   25.2697 C   0  0  0  0  0  0  0  0  0  0  0  0
    7.2963  -14.1057   25.5068 C   0  0  0  0  0  0  0  0  0  0  0  0
    8.0525  -17.7413   22.3979 C   0  0  0  0  0  0  0  0  0  0  0  0
    7.4878  -18.8463   22.2017 O   0  0  0  0  0  0  0  0  0  0  0  0
    7.1718  -13.0687   17.3164 O   0  0  0  0  0  0  0  0  0  0  0  0
    7.6824  -13.5607   18.5308 C   0  0  0  0  0  0  0  0  0  0  0  0
    8.6239  -14.5666   18.5379 C   0  0  0  0  0  0  0  0  0  0  0  0
    9.1352  -15.0602   19.7367 C   0  0  0  0  0  0  0  0  0  0  0  0
    8.7150  -14.5579   20.9510 C   0  0  0  0  0  0  0  0  0  0  0  0
    9.3006  -15.1309   22.1743 C   0  0  0  0  0  0  0  0  0  0  0  0
   10.1184  -16.3615   21.9542 C   0  0  2  0  0  0  0  0  0  0  0  0
    9.3765  -17.5888   21.9742 N   0  0  0  0  0  0  0  0  0  0  0  0
   11.1338  -16.4127   23.0411 C   0  0  0  0  0  0  0  0  0  0  0  0
   11.9769  -15.4680   23.2020 O   0  0  0  0  0  0  0  0  0  0  0  0
    7.7819  -13.5610   20.9437 C   0  0  0  0  0  0  0  0  0  0  0  0
    7.2664  -13.0628   19.7454 C   0  0  0  0  0  0  0  0  0  0  0  0
    9.3478  -18.2904   26.9860 N   0  0  0  0  0  0  0  0  0  0  0  0
   10.6130  -17.6917   26.7473 C   0  0  0  0  0  0  0  0  0  0  0  0
   10.8458  -16.5222   27.0906 O   0  0  0  0  0  0  0  0  0  0  0  0
   11.6614  -18.4787   26.0802 C   0  0  0  0  0  0  0  0  0  0  0  0
   12.2447  -17.6545   24.9551 C   0  0  2  0  0  0  0  0  0  0  0  0
   11.2068  -17.5031   23.9365 N   0  0  0  0  0  0  0  0  0  0  0  0
   13.4285  -18.2278   24.3267 C   0  0  0  0  0  0  0  0  0  0  0  0
   13.4132  -19.0310   23.1818 O   0  0  0  0  0  0  0  0  0  0  0  0
   14.5634  -18.0082   24.8195 O   0  0  0  0  0  0  0  0  0  0  0  0
  2  1  1  1
  3  4  1  0
  3  2  1  0
  4  5  2  0
  5  6  1  0
  7  6  1  0
  8  7  2  0
  9  8  1  0
 10 11  1  0
 10  9  2  0
 11 12  2  0
 12  4  1  0
 12  7  1  0
 13  2  1  0
 13 22  1  0
 14 13  2  0
 15 16  1  0
 16 17  2  0
 17 18  1  0
 19 20  1  0
 19 18  2  0
 21 20  1  1
 21 22  1  0
 21 23  1  0
 23 32  1  0
 24 23  2  0
 25 19  1  0
 26 25  2  0
 26 16  1  0
 28 27  1  0
 29 28  2  0
 30 28  1  0
 31 33  1  0
 31 30  1  1
 32 31  1  0
 33 34  1  0
 35 33  2  0
M  END
$$$$
