WYN.pdb
     RDKit          3D

 35 37  0  0  1  0  0  0  0  0999 V2000
    5.8587  -17.5874   23.8044 N   0  0  0  0  0  0  0  0  0  0  0  0
    6.8183  -16.4811   23.8261 C   0  0  1  0  0  0  0  0  0  0  0  0
    7.2903  -16.2140   25.2407 C   0  0  0  0  0  0  0  0  0  0  0  0
    6.5918  -15.0922   25.8700 C   0  0  0  0  0  0  0  0  0  0  0  0
    5.2859  -15.0449   26.3493 C   0  0  0  0  0  0  0  0  0  0  0  0
    5.0503  -13.8386   26.8430 N   0  0  0  0  0  0  0  0  0  0  0  0
    6.1250  -13.0524   26.7291 C   0  0  0  0  0  0  0  0  0  0  0  0
    6.3615  -11.7388   27.0920 C   0  0  0  0  0  0  0  0  0  0  0  0
    7.6130  -11.2361   26.8194 C   0  0  0  0  0  0  0  0  0  0  0  0
    8.6062  -11.9811   26.2140 C   0  0  0  0  0  0  0  0  0  0  0  0
    8.3424  -13.2710   25.8686 C   0  0  0  0  0  0  0  0  0  0  0  0
    7.1068  -13.8369   26.1140 C   0  0  0  0  0  0  0  0  0  0  0  0
    7.9593  -16.7593   22.9166 C   0  0  0  0  0  0  0  0  0  0  0  0
    8.1049  -17.9485   22.5382 O   0  0  0  0  0  0  0  0  0  0  0  0
    6.5347  -13.4625   16.4838 O   0  0  0  0  0  0  0  0  0  0  0  0
    7.4432  -13.8109   17.4991 C   0  0  0  0  0  0  0  0  0  0  0  0
    7.6577  -12.9663   18.5664 C   0  0  0  0  0  0  0  0  0  0  0  0
    8.5562  -13.3036   19.5770 C   0  0  0  0  0  0  0  0  0  0  0  0
    9.2573  -14.4913   19.5398 C   0  0  0  0  0  0  0  0  0  0  0  0
   10.1891  -14.7770   20.6434 C   0  0  0  0  0  0  0  0  0  0  0  0
    9.8566  -15.9983   21.4368 C   0  0  2  0  0  0  0  0  0  0  0  0
    8.8701  -15.8017   22.4592 N   0  0  0  0  0  0  0  0  0  0  0  0
   11.1157  -16.4553   22.0855 C   0  0  0  0  0  0  0  0  0  0  0  0
   11.4665  -16.0135   23.2304 O   0  0  0  0  0  0  0  0  0  0  0  0
    9.0445  -15.3281   18.4819 C   0  0  0  0  0  0  0  0  0  0  0  0
    8.1454  -14.9950   17.4668 C   0  0  0  0  0  0  0  0  0  0  0  0
   14.7382  -20.6470   23.0853 N   0  0  0  0  0  0  0  0  0  0  0  0
   14.7553  -19.7647   21.9729 C   0  0  0  0  0  0  0  0  0  0  0  0
   15.8230  -19.4174   21.4444 O   0  0  0  0  0  0  0  0  0  0  0  0
   13.4802  -19.2574   21.4435 C   0  0  0  0  0  0  0  0  0  0  0  0
   13.1900  -17.9170   22.0794 C   0  0  2  0  0  0  0  0  0  0  0  0
   11.9712  -17.3929   21.4650 N   0  0  0  0  0  0  0  0  0  0  0  0
   14.2476  -16.9254   21.9265 C   0  0  0  0  0  0  0  0  0  0  0  0
   15.3200  -16.7614   22.8092 O   0  0  0  0  0  0  0  0  0  0  0  0
   14.2298  -16.1423   20.9439 O   0  0  0  0  0  0  0  0  0  0  0  0
  2  1  1  1
  3  4  1  0
  3  2  1  0
  4  5  2  0
  5  6  1  0
  7  6  1  0
  8  7  2  0
  9  8  1  0
 10 11  1  0
 10  9  2  0
 11 12  2  0
 12  4  1  0
 12  7  1  0
 13  2  1  0
 13 22  1  0
 14 13  2  0
 15 16  1  0
 16 17  2  0
 17 18  1  0
 19 20  1  0
 19 18  2  0
 21 20  1  1
 21 22  1  0
 21 23  1  0
 23 32  1  0
 24 23  2  0
 25 19  1  0
 26 25  2  0
 26 16  1  0
 28 27  1  0
 29 28  2  0
 30 28  1  0
 31 33  1  0
 31 30  1  6
 32 31  1  0
 33 34  1  0
 35 33  2  0
M  END
$$$$
