KTN.pdb
     RDKit          3D

 25 24  0  0  1  0  0  0  0  0999 V2000
    6.8510  -14.7949   19.9032 N   0  0  0  0  0  0  0  0  0  0  0  0
    8.1706  -14.5533   19.4156 C   0  0  1  0  0  0  0  0  0  0  0  0
    8.4205  -13.2031   18.8270 C   0  0  0  0  0  0  0  0  0  0  0  0
    7.6684  -12.9147   17.5936 C   0  0  0  0  0  0  0  0  0  0  0  0
    8.1346  -13.6912   16.4186 C   0  0  0  0  0  0  0  0  0  0  0  0
    7.2760  -13.3770   15.2222 C   0  0  0  0  0  0  0  0  0  0  0  0
    7.8710  -14.1072   14.0957 N   0  0  0  0  0  0  0  0  0  0  0  0
    9.2066  -14.8832   20.4628 C   0  0  0  0  0  0  0  0  0  0  0  0
    9.2155  -14.2861   21.5673 O   0  0  0  0  0  0  0  0  0  0  0  0
    9.7635  -17.7983   22.4379 C   0  0  0  0  0  0  0  0  0  0  0  0
   11.0670  -17.5637   21.7124 C   0  0  1  0  0  0  0  0  0  0  0  0
   11.0545  -18.4442   20.6226 O   0  0  0  0  0  0  0  0  0  0  0  0
   11.1990  -16.1305   21.2378 C   0  0  2  0  0  0  0  0  0  0  0  0
   10.1824  -15.8790   20.1975 N   0  0  0  0  0  0  0  0  0  0  0  0
   12.4954  -15.8431   20.5785 C   0  0  0  0  0  0  0  0  0  0  0  0
   12.5212  -15.4970   19.3392 O   0  0  0  0  0  0  0  0  0  0  0  0
   16.9524  -12.8189   19.5863 N   0  0  0  0  0  0  0  0  0  0  0  0
   16.1144  -13.8411   19.0672 C   0  0  0  0  0  0  0  0  0  0  0  0
   16.4504  -14.3665   17.9807 O   0  0  0  0  0  0  0  0  0  0  0  0
   14.9160  -14.2048   19.8448 C   0  0  0  0  0  0  0  0  0  0  0  0
   14.9762  -15.5822   20.4301 C   0  0  2  0  0  0  0  0  0  0  0  0
   13.7649  -15.9081   21.1901 N   0  0  0  0  0  0  0  0  0  0  0  0
   16.1806  -15.7566   21.3087 C   0  0  0  0  0  0  0  0  0  0  0  0
   17.4482  -15.8879   20.7954 O   0  0  0  0  0  0  0  0  0  0  0  0
   16.0481  -15.7865   22.5611 O   0  0  0  0  0  0  0  0  0  0  0  0
  2  1  1  1
  3  2  1  0
  4  3  1  0
  4  5  1  0
  5  6  1  0
  6  7  1  0
  8  2  1  0
  8  9  2  0
 11 10  1  6
 11 13  1  0
 12 11  1  0
 13 14  1  6
 14  8  1  0
 15 13  1  0
 16 15  2  0
 18 17  1  0
 19 18  2  0
 20 18  1  0
 21 20  1  1
 21 22  1  0
 21 23  1  0
 22 15  1  0
 23 24  1  0
 25 23  2  0
M  END
$$$$
