KTN.pdb
     RDKit          3D

 25 24  0  0  1  0  0  0  0  0999 V2000
    8.3215  -14.0980   15.3060 N   0  0  0  0  0  0  0  0  0  0  0  0
    8.1638  -15.1202   16.2898 C   0  0  1  0  0  0  0  0  0  0  0  0
    8.6511  -16.4811   15.9124 C   0  0  0  0  0  0  0  0  0  0  0  0
    8.8313  -16.6970   14.4665 C   0  0  0  0  0  0  0  0  0  0  0  0
    9.3725  -18.0364   14.1290 C   0  0  0  0  0  0  0  0  0  0  0  0
    9.6018  -18.1383   12.6443 C   0  0  0  0  0  0  0  0  0  0  0  0
   10.1005  -19.4986   12.4056 N   0  0  0  0  0  0  0  0  0  0  0  0
    8.7413  -14.6915   17.6172 C   0  0  0  0  0  0  0  0  0  0  0  0
    9.7723  -13.9766   17.6677 O   0  0  0  0  0  0  0  0  0  0  0  0
    7.0590  -12.5842   19.8305 C   0  0  0  0  0  0  0  0  0  0  0  0
    7.5206  -13.7085   20.7268 C   0  0  1  0  0  0  0  0  0  0  0  0
    6.3864  -14.4995   20.9522 O   0  0  0  0  0  0  0  0  0  0  0  0
    8.6220  -14.5273   20.0839 C   0  0  2  0  0  0  0  0  0  0  0  0
    8.1131  -15.1003   18.8223 N   0  0  0  0  0  0  0  0  0  0  0  0
    9.0367  -15.6986   20.8924 C   0  0  0  0  0  0  0  0  0  0  0  0
    9.0265  -16.8745   20.3692 O   0  0  0  0  0  0  0  0  0  0  0  0
   12.9534  -18.5256   21.9406 N   0  0  0  0  0  0  0  0  0  0  0  0
   12.9357  -17.1599   22.3295 C   0  0  0  0  0  0  0  0  0  0  0  0
   13.8881  -16.7472   23.0309 O   0  0  0  0  0  0  0  0  0  0  0  0
   11.8005  -16.3344   21.8790 C   0  0  0  0  0  0  0  0  0  0  0  0
   10.5582  -16.5277   22.6930 C   0  0  2  0  0  0  0  0  0  0  0  0
    9.4639  -15.6645   22.2363 N   0  0  0  0  0  0  0  0  0  0  0  0
   10.8112  -16.2856   24.1526 C   0  0  0  0  0  0  0  0  0  0  0  0
   11.3901  -17.2328   24.9621 O   0  0  0  0  0  0  0  0  0  0  0  0
   10.4901  -15.1846   24.6737 O   0  0  0  0  0  0  0  0  0  0  0  0
  2  1  1  6
  3  2  1  0
  4  3  1  0
  4  5  1  0
  5  6  1  0
  6  7  1  0
  8  2  1  0
  8  9  2  0
 11 10  1  6
 11 13  1  0
 12 11  1  0
 13 14  1  6
 14  8  1  0
 15 13  1  0
 16 15  2  0
 18 17  1  0
 19 18  2  0
 20 18  1  0
 21 20  1  6
 21 22  1  0
 21 23  1  0
 22 15  1  0
 23 24  1  0
 25 23  2  0
M  END
$$$$
