KTN.pdb
     RDKit          3D

 25 24  0  0  1  0  0  0  0  0999 V2000
    9.5568  -15.3073   17.5173 N   0  0  0  0  0  0  0  0  0  0  0  0
    9.2366  -13.9602   17.8639 C   0  0  1  0  0  0  0  0  0  0  0  0
    8.0078  -13.3902   17.2336 C   0  0  0  0  0  0  0  0  0  0  0  0
    7.4373  -14.1993   16.1429 C   0  0  0  0  0  0  0  0  0  0  0  0
    7.8642  -13.7600   14.7917 C   0  0  0  0  0  0  0  0  0  0  0  0
    7.0793  -14.4983   13.7400 C   0  0  0  0  0  0  0  0  0  0  0  0
    7.6204  -14.0564   12.4484 N   0  0  0  0  0  0  0  0  0  0  0  0
    9.2070  -13.7760   19.3620 C   0  0  0  0  0  0  0  0  0  0  0  0
    8.8893  -12.6711   19.8666 O   0  0  0  0  0  0  0  0  0  0  0  0
    7.3723  -13.3141   21.2729 C   0  0  0  0  0  0  0  0  0  0  0  0
    8.0114  -14.4383   22.0528 C   0  0  1  0  0  0  0  0  0  0  0  0
    7.2595  -15.5810   21.7498 O   0  0  0  0  0  0  0  0  0  0  0  0
    9.4635  -14.6385   21.6676 C   0  0  2  0  0  0  0  0  0  0  0  0
    9.5419  -14.8629   20.2108 N   0  0  0  0  0  0  0  0  0  0  0  0
   10.0739  -15.8472   22.2710 C   0  0  0  0  0  0  0  0  0  0  0  0
   10.6465  -16.7199   21.5180 O   0  0  0  0  0  0  0  0  0  0  0  0
   14.5606  -16.8235   23.8981 N   0  0  0  0  0  0  0  0  0  0  0  0
   13.5526  -16.0486   23.2657 C   0  0  0  0  0  0  0  0  0  0  0  0
   13.6775  -15.8300   22.0385 O   0  0  0  0  0  0  0  0  0  0  0  0
   12.4389  -15.5620   24.0999 C   0  0  0  0  0  0  0  0  0  0  0  0
   11.3495  -16.5713   24.2942 C   0  0  2  0  0  0  0  0  0  0  0  0
   10.0996  -16.1602   23.6463 N   0  0  0  0  0  0  0  0  0  0  0  0
   11.0954  -16.8364   25.7496 C   0  0  0  0  0  0  0  0  0  0  0  0
   11.5990  -17.9421   26.3910 O   0  0  0  0  0  0  0  0  0  0  0  0
   10.4001  -16.0316   26.4247 O   0  0  0  0  0  0  0  0  0  0  0  0
  2  1  1  1
  3  2  1  0
  4  3  1  0
  4  5  1  0
  5  6  1  0
  6  7  1  0
  8  2  1  0
  8  9  2  0
 11 10  1  6
 11 13  1  0
 12 11  1  0
 13 14  1  6
 14  8  1  0
 15 13  1  0
 16 15  2  0
 18 17  1  0
 19 18  2  0
 20 18  1  0
 21 20  1  1
 21 22  1  0
 21 23  1  0
 22 15  1  0
 23 24  1  0
 25 23  2  0
M  END
$$$$
