KTN.pdb
     RDKit          3D

 25 24  0  0  1  0  0  0  0  0999 V2000
    8.5327  -17.4018   17.4838 N   0  0  0  0  0  0  0  0  0  0  0  0
    9.5622  -16.4305   17.2982 C   0  0  1  0  0  0  0  0  0  0  0  0
    9.5439  -15.6881   16.0019 C   0  0  0  0  0  0  0  0  0  0  0  0
    8.2456  -15.6860   15.3060 C   0  0  0  0  0  0  0  0  0  0  0  0
    8.2353  -14.8646   14.0707 C   0  0  0  0  0  0  0  0  0  0  0  0
    6.9147  -15.0173   13.3636 C   0  0  0  0  0  0  0  0  0  0  0  0
    7.0552  -14.3035   12.0881 N   0  0  0  0  0  0  0  0  0  0  0  0
    9.6245  -15.4740   18.4645 C   0  0  0  0  0  0  0  0  0  0  0  0
   10.4749  -14.5506   18.4925 O   0  0  0  0  0  0  0  0  0  0  0  0
    7.2248  -13.0533   19.6881 C   0  0  0  0  0  0  0  0  0  0  0  0
    7.5368  -13.9490   20.8632 C   0  0  1  0  0  0  0  0  0  0  0  0
    6.4695  -14.8536   20.9401 O   0  0  0  0  0  0  0  0  0  0  0  0
    8.8478  -14.6865   20.6787 C   0  0  2  0  0  0  0  0  0  0  0  0
    8.7126  -15.6188   19.5422 N   0  0  0  0  0  0  0  0  0  0  0  0
    9.2110  -15.5444   21.8319 C   0  0  0  0  0  0  0  0  0  0  0  0
    8.3482  -16.3687   22.3142 O   0  0  0  0  0  0  0  0  0  0  0  0
   11.9807  -20.1029   22.9670 N   0  0  0  0  0  0  0  0  0  0  0  0
   11.0441  -19.1629   23.4726 C   0  0  0  0  0  0  0  0  0  0  0  0
   10.5549  -19.3870   24.6039 O   0  0  0  0  0  0  0  0  0  0  0  0
   10.7200  -17.9979   22.6294 C   0  0  0  0  0  0  0  0  0  0  0  0
   10.8374  -16.6878   23.3458 C   0  0  2  0  0  0  0  0  0  0  0  0
   10.4590  -15.5590   22.4893 N   0  0  0  0  0  0  0  0  0  0  0  0
   12.2246  -16.4709   23.8763 C   0  0  0  0  0  0  0  0  0  0  0  0
   12.6522  -17.0282   25.0571 O   0  0  0  0  0  0  0  0  0  0  0  0
   13.0406  -15.7578   23.2340 O   0  0  0  0  0  0  0  0  0  0  0  0
  2  1  1  1
  3  2  1  0
  4  3  1  0
  4  5  1  0
  5  6  1  0
  6  7  1  0
  8  2  1  0
  8  9  2  0
 11 10  1  6
 11 13  1  0
 12 11  1  0
 13 14  1  6
 14  8  1  0
 15 13  1  0
 16 15  2  0
 18 17  1  0
 19 18  2  0
 20 18  1  0
 21 20  1  6
 21 22  1  0
 21 23  1  0
 22 15  1  0
 23 24  1  0
 25 23  2  0
M  END
$$$$
