KTN.pdb
     RDKit          3D

 25 24  0  0  1  0  0  0  0  0999 V2000
    8.9243  -14.9881   14.6720 N   0  0  0  0  0  0  0  0  0  0  0  0
    8.4978  -15.7359   15.8106 C   0  0  1  0  0  0  0  0  0  0  0  0
    8.7152  -17.2127   15.7503 C   0  0  0  0  0  0  0  0  0  0  0  0
   10.1271  -17.6321   15.7342 C   0  0  0  0  0  0  0  0  0  0  0  0
   10.3117  -19.0881   15.5180 C   0  0  0  0  0  0  0  0  0  0  0  0
   11.7801  -19.4184   15.4726 C   0  0  0  0  0  0  0  0  0  0  0  0
   11.8612  -20.8596   15.2033 N   0  0  0  0  0  0  0  0  0  0  0  0
    9.0679  -15.1603   17.0844 C   0  0  0  0  0  0  0  0  0  0  0  0
   10.2354  -14.6993   17.1142 O   0  0  0  0  0  0  0  0  0  0  0  0
    7.1683  -12.6144   19.2395 C   0  0  0  0  0  0  0  0  0  0  0  0
    7.7410  -13.6853   20.1371 C   0  0  1  0  0  0  0  0  0  0  0  0
    6.6648  -14.5238   20.4560 O   0  0  0  0  0  0  0  0  0  0  0  0
    8.8414  -14.4689   19.4501 C   0  0  2  0  0  0  0  0  0  0  0  0
    8.2768  -15.1393   18.2624 N   0  0  0  0  0  0  0  0  0  0  0  0
    9.3916  -15.5672   20.2800 C   0  0  0  0  0  0  0  0  0  0  0  0
    9.6481  -16.7088   19.7438 O   0  0  0  0  0  0  0  0  0  0  0  0
   12.9617  -18.6412   21.8085 N   0  0  0  0  0  0  0  0  0  0  0  0
   12.9846  -17.2652   22.1591 C   0  0  0  0  0  0  0  0  0  0  0  0
   13.8694  -16.8890   22.9622 O   0  0  0  0  0  0  0  0  0  0  0  0
   11.9678  -16.3871   21.5525 C   0  0  0  0  0  0  0  0  0  0  0  0
   10.6511  -16.4120   22.2660 C   0  0  2  0  0  0  0  0  0  0  0  0
    9.6812  -15.4948   21.6587 N   0  0  0  0  0  0  0  0  0  0  0  0
   10.8062  -16.0842   23.7226 C   0  0  0  0  0  0  0  0  0  0  0  0
   10.1769  -15.0090   24.3018 O   0  0  0  0  0  0  0  0  0  0  0  0
   11.5326  -16.8053   24.4570 O   0  0  0  0  0  0  0  0  0  0  0  0
  2  1  1  6
  3  2  1  0
  4  3  1  0
  4  5  1  0
  5  6  1  0
  6  7  1  0
  8  2  1  0
  8  9  2  0
 11 10  1  6
 11 13  1  0
 12 11  1  0
 13 14  1  6
 14  8  1  0
 15 13  1  0
 16 15  2  0
 18 17  1  0
 19 18  2  0
 20 18  1  0
 21 20  1  6
 21 22  1  0
 21 23  1  0
 22 15  1  0
 23 24  1  0
 25 23  2  0
M  END
$$$$
