KTN.pdb
     RDKit          3D

 25 24  0  0  1  0  0  0  0  0999 V2000
    7.8654  -18.7527   18.7841 N   0  0  0  0  0  0  0  0  0  0  0  0
    8.6163  -17.7251   18.1378 C   0  0  1  0  0  0  0  0  0  0  0  0
    8.0317  -17.1721   16.8791 C   0  0  0  0  0  0  0  0  0  0  0  0
    7.7649  -18.1691   15.8282 C   0  0  0  0  0  0  0  0  0  0  0  0
    7.2173  -17.5840   14.5797 C   0  0  0  0  0  0  0  0  0  0  0  0
    6.9680  -18.6720   13.5690 C   0  0  0  0  0  0  0  0  0  0  0  0
    6.3931  -18.0064   12.3932 N   0  0  0  0  0  0  0  0  0  0  0  0
    8.9631  -16.6163   19.1018 C   0  0  0  0  0  0  0  0  0  0  0  0
    9.7708  -15.7119   18.7760 O   0  0  0  0  0  0  0  0  0  0  0  0
    6.8387  -14.0769   20.8439 C   0  0  0  0  0  0  0  0  0  0  0  0
    7.5921  -14.8517   21.8986 C   0  0  1  0  0  0  0  0  0  0  0  0
    6.6815  -15.7935   22.3956 O   0  0  0  0  0  0  0  0  0  0  0  0
    8.8140  -15.5424   21.3267 C   0  0  2  0  0  0  0  0  0  0  0  0
    8.3706  -16.5945   20.3912 N   0  0  0  0  0  0  0  0  0  0  0  0
    9.6206  -16.2560   22.3454 C   0  0  0  0  0  0  0  0  0  0  0  0
    9.4786  -17.5257   22.5010 O   0  0  0  0  0  0  0  0  0  0  0  0
   12.9876  -17.2500   22.3413 N   0  0  0  0  0  0  0  0  0  0  0  0
   13.5401  -16.4800   23.3988 C   0  0  0  0  0  0  0  0  0  0  0  0
   14.7622  -16.2110   23.3395 O   0  0  0  0  0  0  0  0  0  0  0  0
   12.6353  -16.0570   24.4830 C   0  0  0  0  0  0  0  0  0  0  0  0
   11.2088  -16.4577   24.2642 C   0  0  2  0  0  0  0  0  0  0  0  0
   10.5744  -15.6688   23.2029 N   0  0  0  0  0  0  0  0  0  0  0  0
   10.4028  -16.3406   25.5250 C   0  0  0  0  0  0  0  0  0  0  0  0
    9.3909  -15.4217   25.6641 O   0  0  0  0  0  0  0  0  0  0  0  0
   10.6449  -17.0999   26.5006 O   0  0  0  0  0  0  0  0  0  0  0  0
  2  1  1  1
  3  2  1  0
  4  3  1  0
  4  5  1  0
  5  6  1  0
  6  7  1  0
  8  2  1  0
  8  9  2  0
 11 10  1  6
 11 13  1  0
 12 11  1  0
 13 14  1  6
 14  8  1  0
 15 13  1  0
 16 15  2  0
 18 17  1  0
 19 18  2  0
 20 18  1  0
 21 20  1  1
 21 22  1  0
 21 23  1  0
 22 15  1  0
 23 24  1  0
 25 23  2  0
M  END
$$$$
