KTN.pdb
     RDKit          3D

 25 24  0  0  1  0  0  0  0  0999 V2000
    7.8578  -17.6230   16.7543 N   0  0  0  0  0  0  0  0  0  0  0  0
    8.1536  -18.0295   18.0902 C   0  0  1  0  0  0  0  0  0  0  0  0
    9.0009  -19.2512   18.2367 C   0  0  0  0  0  0  0  0  0  0  0  0
    8.3732  -20.5011   17.7745 C   0  0  0  0  0  0  0  0  0  0  0  0
    9.2783  -21.6753   17.8279 C   0  0  0  0  0  0  0  0  0  0  0  0
    8.5472  -22.9085   17.3672 C   0  0  0  0  0  0  0  0  0  0  0  0
    9.4953  -24.0195   17.5181 N   0  0  0  0  0  0  0  0  0  0  0  0
    8.7184  -16.8841   18.8952 C   0  0  0  0  0  0  0  0  0  0  0  0
    9.4615  -16.0267   18.3574 O   0  0  0  0  0  0  0  0  0  0  0  0
    6.8956  -14.2966   20.9683 C   0  0  0  0  0  0  0  0  0  0  0  0
    7.9230  -14.9768   21.8414 C   0  0  1  0  0  0  0  0  0  0  0  0
    7.2124  -15.9245   22.5896 O   0  0  0  0  0  0  0  0  0  0  0  0
    9.0054  -15.6488   21.0206 C   0  0  2  0  0  0  0  0  0  0  0  0
    8.4070  -16.7737   20.2754 N   0  0  0  0  0  0  0  0  0  0  0  0
   10.0744  -16.2645   21.8429 C   0  0  0  0  0  0  0  0  0  0  0  0
   10.0609  -17.5318   22.0669 O   0  0  0  0  0  0  0  0  0  0  0  0
   14.2694  -17.6256   24.3780 N   0  0  0  0  0  0  0  0  0  0  0  0
   14.5905  -16.3621   23.8151 C   0  0  0  0  0  0  0  0  0  0  0  0
   15.7656  -15.9504   23.9535 O   0  0  0  0  0  0  0  0  0  0  0  0
   13.5189  -15.6333   23.1127 C   0  0  0  0  0  0  0  0  0  0  0  0
   12.1878  -16.3171   23.1753 C   0  0  2  0  0  0  0  0  0  0  0  0
   11.1583  -15.5816   22.4334 N   0  0  0  0  0  0  0  0  0  0  0  0
   11.7363  -16.5178   24.5927 C   0  0  0  0  0  0  0  0  0  0  0  0
   12.1605  -17.5810   25.3524 O   0  0  0  0  0  0  0  0  0  0  0  0
   10.9422  -15.6964   25.1235 O   0  0  0  0  0  0  0  0  0  0  0  0
  2  1  1  6
  3  2  1  0
  4  3  1  0
  4  5  1  0
  5  6  1  0
  6  7  1  0
  8  2  1  0
  8  9  2  0
 11 10  1  6
 11 13  1  0
 12 11  1  0
 13 14  1  1
 14  8  1  0
 15 13  1  0
 16 15  2  0
 18 17  1  0
 19 18  2  0
 20 18  1  0
 21 20  1  1
 21 22  1  0
 21 23  1  0
 22 15  1  0
 23 24  1  0
 25 23  2  0
M  END
$$$$
