KTN.pdb
     RDKit          3D

 25 24  0  0  1  0  0  0  0  0999 V2000
    9.0100  -17.6992   15.1271 N   0  0  0  0  0  0  0  0  0  0  0  0
    9.0003  -16.5952   16.0318 C   0  0  1  0  0  0  0  0  0  0  0  0
    8.1728  -15.4183   15.6291 C   0  0  0  0  0  0  0  0  0  0  0  0
    8.3597  -14.9754   14.2367 C   0  0  0  0  0  0  0  0  0  0  0  0
    7.4986  -13.8283   13.8579 C   0  0  0  0  0  0  0  0  0  0  0  0
    7.7559  -13.4445   12.4247 C   0  0  0  0  0  0  0  0  0  0  0  0
    6.8322  -12.3417   12.1303 N   0  0  0  0  0  0  0  0  0  0  0  0
    8.6541  -17.0418   17.4317 C   0  0  0  0  0  0  0  0  0  0  0  0
    7.4568  -17.1765   17.7847 O   0  0  0  0  0  0  0  0  0  0  0  0
    7.5457  -19.0911   18.5321 C   0  0  0  0  0  0  0  0  0  0  0  0
    8.5981  -19.0858   19.6151 C   0  0  1  0  0  0  0  0  0  0  0  0
    9.5073  -20.0912   19.2608 O   0  0  0  0  0  0  0  0  0  0  0  0
    9.2984  -17.7455   19.7155 C   0  0  2  0  0  0  0  0  0  0  0  0
    9.6925  -17.3129   18.3603 N   0  0  0  0  0  0  0  0  0  0  0  0
   10.5668  -17.7971   20.4811 C   0  0  0  0  0  0  0  0  0  0  0  0
   11.5944  -17.1443   20.0635 O   0  0  0  0  0  0  0  0  0  0  0  0
   11.8946  -15.2365   25.0969 N   0  0  0  0  0  0  0  0  0  0  0  0
   12.3949  -16.0558   24.0505 C   0  0  0  0  0  0  0  0  0  0  0  0
   13.6319  -16.2492   24.0101 O   0  0  0  0  0  0  0  0  0  0  0  0
   11.4223  -16.6147   23.0940 C   0  0  0  0  0  0  0  0  0  0  0  0
   11.7263  -18.0226   22.6832 C   0  0  2  0  0  0  0  0  0  0  0  0
   10.7813  -18.5158   21.6758 N   0  0  0  0  0  0  0  0  0  0  0  0
   11.7326  -18.9524   23.8615 C   0  0  0  0  0  0  0  0  0  0  0  0
   12.8853  -19.5392   24.3247 O   0  0  0  0  0  0  0  0  0  0  0  0
   10.6568  -19.2177   24.4608 O   0  0  0  0  0  0  0  0  0  0  0  0
  2  1  1  6
  3  2  1  0
  4  3  1  0
  4  5  1  0
  5  6  1  0
  6  7  1  0
  8  2  1  0
  8  9  2  0
 11 10  1  6
 11 13  1  0
 12 11  1  0
 13 14  1  6
 14  8  1  0
 15 13  1  0
 16 15  2  0
 18 17  1  0
 19 18  2  0
 20 18  1  0
 21 20  1  1
 21 22  1  0
 21 23  1  0
 22 15  1  0
 23 24  1  0
 25 23  2  0
M  END
$$$$
