KTN.pdb
     RDKit          3D

 25 24  0  0  1  0  0  0  0  0999 V2000
    8.1958  -16.7160   15.6817 N   0  0  0  0  0  0  0  0  0  0  0  0
    7.9179  -17.2461   16.9776 C   0  0  1  0  0  0  0  0  0  0  0  0
    8.1972  -18.7010   17.1700 C   0  0  0  0  0  0  0  0  0  0  0  0
    9.6214  -19.0727   17.1123 C   0  0  0  0  0  0  0  0  0  0  0  0
    9.8530  -20.5380   17.1082 C   0  0  0  0  0  0  0  0  0  0  0  0
   11.3313  -20.8242   17.1248 C   0  0  0  0  0  0  0  0  0  0  0  0
   11.4586  -22.2856   17.1898 N   0  0  0  0  0  0  0  0  0  0  0  0
    8.5822  -16.4242   18.0557 C   0  0  0  0  0  0  0  0  0  0  0  0
    9.6480  -15.8023   17.8235 O   0  0  0  0  0  0  0  0  0  0  0  0
    6.9347  -13.7153   20.0529 C   0  0  0  0  0  0  0  0  0  0  0  0
    7.6233  -14.6379   21.0304 C   0  0  1  0  0  0  0  0  0  0  0  0
    6.6067  -15.4306   21.5791 O   0  0  0  0  0  0  0  0  0  0  0  0
    8.6659  -15.5033   20.3515 C   0  0  2  0  0  0  0  0  0  0  0  0
    7.9969  -16.3527   19.3465 N   0  0  0  0  0  0  0  0  0  0  0  0
    9.3325  -16.4565   21.2706 C   0  0  0  0  0  0  0  0  0  0  0  0
    9.6753  -17.6223   20.8465 O   0  0  0  0  0  0  0  0  0  0  0  0
   14.4900  -15.5527   22.7711 N   0  0  0  0  0  0  0  0  0  0  0  0
   13.4028  -16.4314   23.0206 C   0  0  0  0  0  0  0  0  0  0  0  0
   13.6274  -17.4417   23.7264 O   0  0  0  0  0  0  0  0  0  0  0  0
   12.0959  -16.0881   22.4312 C   0  0  0  0  0  0  0  0  0  0  0  0
   10.9315  -16.6596   23.1802 C   0  0  2  0  0  0  0  0  0  0  0  0
    9.6498  -16.2140   22.6235 N   0  0  0  0  0  0  0  0  0  0  0  0
   10.9906  -16.3143   24.6397 C   0  0  0  0  0  0  0  0  0  0  0  0
   10.6810  -15.0605   25.1084 O   0  0  0  0  0  0  0  0  0  0  0  0
   11.3329  -17.1876   25.4806 O   0  0  0  0  0  0  0  0  0  0  0  0
  2  1  1  6
  3  2  1  0
  4  3  1  0
  4  5  1  0
  5  6  1  0
  6  7  1  0
  8  2  1  0
  8  9  2  0
 11 10  1  6
 11 13  1  0
 12 11  1  0
 13 14  1  6
 14  8  1  0
 15 13  1  0
 16 15  2  0
 18 17  1  0
 19 18  2  0
 20 18  1  0
 21 20  1  6
 21 22  1  0
 21 23  1  0
 22 15  1  0
 23 24  1  0
 25 23  2  0
M  END
$$$$
