KTN.pdb
     RDKit          3D

 25 24  0  0  1  0  0  0  0  0999 V2000
    7.8432  -14.6196   13.9226 N   0  0  0  0  0  0  0  0  0  0  0  0
    8.4737  -15.4223   14.9204 C   0  0  1  0  0  0  0  0  0  0  0  0
    9.4241  -16.4640   14.4268 C   0  0  0  0  0  0  0  0  0  0  0  0
    9.7795  -16.3546   13.0015 C   0  0  0  0  0  0  0  0  0  0  0  0
   10.6271  -17.4700   12.5135 C   0  0  0  0  0  0  0  0  0  0  0  0
   10.9694  -17.2581   11.0625 C   0  0  0  0  0  0  0  0  0  0  0  0
   11.8170  -18.3938   10.6779 N   0  0  0  0  0  0  0  0  0  0  0  0
    9.1203  -14.5641   15.9808 C   0  0  0  0  0  0  0  0  0  0  0  0
    9.7527  -13.5255   15.6683 O   0  0  0  0  0  0  0  0  0  0  0  0
    7.4064  -12.8677   18.7059 C   0  0  0  0  0  0  0  0  0  0  0  0
    8.5313  -13.6422   19.3503 C   0  0  1  0  0  0  0  0  0  0  0  0
    7.9358  -14.7882   19.8935 O   0  0  0  0  0  0  0  0  0  0  0  0
    9.6020  -14.0227   18.3474 C   0  0  2  0  0  0  0  0  0  0  0  0
    9.0131  -14.9341   17.3467 N   0  0  0  0  0  0  0  0  0  0  0  0
   10.7245  -14.7867   18.9422 C   0  0  0  0  0  0  0  0  0  0  0  0
   10.8729  -16.0332   18.6583 O   0  0  0  0  0  0  0  0  0  0  0  0
   15.8597  -16.0981   20.0608 N   0  0  0  0  0  0  0  0  0  0  0  0
   15.1689  -15.2462   20.9629 C   0  0  0  0  0  0  0  0  0  0  0  0
   15.5360  -15.2548   22.1606 O   0  0  0  0  0  0  0  0  0  0  0  0
   14.0754  -14.4188   20.4219 C   0  0  0  0  0  0  0  0  0  0  0  0
   12.7624  -15.1354   20.3459 C   0  0  2  0  0  0  0  0  0  0  0  0
   11.6964  -14.2726   19.8260 N   0  0  0  0  0  0  0  0  0  0  0  0
   12.3550  -15.6848   21.6820 C   0  0  0  0  0  0  0  0  0  0  0  0
   12.9372  -16.8067   22.2204 O   0  0  0  0  0  0  0  0  0  0  0  0
   11.4514  -15.1143   22.3491 O   0  0  0  0  0  0  0  0  0  0  0  0
  2  1  1  6
  3  2  1  0
  4  3  1  0
  4  5  1  0
  5  6  1  0
  6  7  1  0
  8  2  1  0
  8  9  2  0
 11 10  1  6
 11 13  1  0
 12 11  1  0
 13 14  1  6
 14  8  1  0
 15 13  1  0
 16 15  2  0
 18 17  1  0
 19 18  2  0
 20 18  1  0
 21 20  1  1
 21 22  1  0
 21 23  1  0
 22 15  1  0
 23 24  1  0
 25 23  2  0
M  END
$$$$
