KTN.pdb
     RDKit          3D

 25 24  0  0  1  0  0  0  0  0999 V2000
   10.8689  -14.3325   17.8085 N   0  0  0  0  0  0  0  0  0  0  0  0
    9.9299  -13.3322   18.2024 C   0  0  1  0  0  0  0  0  0  0  0  0
    8.7357  -13.1635   17.3208 C   0  0  0  0  0  0  0  0  0  0  0  0
    8.7763  -13.9345   16.0663 C   0  0  0  0  0  0  0  0  0  0  0  0
    7.5749  -13.7490   15.2160 C   0  0  0  0  0  0  0  0  0  0  0  0
    7.7520  -14.4787   13.9108 C   0  0  0  0  0  0  0  0  0  0  0  0
    6.5139  -14.2566   13.1533 N   0  0  0  0  0  0  0  0  0  0  0  0
    9.5138  -13.5132   19.6422 C   0  0  0  0  0  0  0  0  0  0  0  0
    8.7473  -12.6881   20.1974 O   0  0  0  0  0  0  0  0  0  0  0  0
    7.3950  -13.6346   21.1119 C   0  0  0  0  0  0  0  0  0  0  0  0
    8.0128  -14.8435   21.7731 C   0  0  1  0  0  0  0  0  0  0  0  0
    7.5673  -15.9461   21.0321 O   0  0  0  0  0  0  0  0  0  0  0  0
    9.5269  -14.7766   21.7705 C   0  0  2  0  0  0  0  0  0  0  0  0
    9.9934  -14.6280   20.3780 N   0  0  0  0  0  0  0  0  0  0  0  0
   10.1744  -16.0183   22.2570 C   0  0  0  0  0  0  0  0  0  0  0  0
   10.7818  -16.7918   21.4270 O   0  0  0  0  0  0  0  0  0  0  0  0
   13.9061  -17.9625   23.5394 N   0  0  0  0  0  0  0  0  0  0  0  0
   13.8370  -16.5461   23.6135 C   0  0  0  0  0  0  0  0  0  0  0  0
   14.8677  -15.9014   23.3112 O   0  0  0  0  0  0  0  0  0  0  0  0
   12.5605  -15.9442   24.0394 C   0  0  0  0  0  0  0  0  0  0  0  0
   11.4518  -16.9387   24.1975 C   0  0  2  0  0  0  0  0  0  0  0  0
   10.2013  -16.4658   23.5945 N   0  0  0  0  0  0  0  0  0  0  0  0
   11.2152  -17.2770   25.6406 C   0  0  0  0  0  0  0  0  0  0  0  0
   11.7375  -18.4066   26.2227 O   0  0  0  0  0  0  0  0  0  0  0  0
   10.5177  -16.5142   26.3607 O   0  0  0  0  0  0  0  0  0  0  0  0
  2  1  1  6
  3  2  1  0
  4  3  1  0
  4  5  1  0
  5  6  1  0
  6  7  1  0
  8  2  1  0
  8  9  2  0
 11 10  1  6
 11 13  1  0
 12 11  1  0
 13 14  1  6
 14  8  1  0
 15 13  1  0
 16 15  2  0
 18 17  1  0
 19 18  2  0
 20 18  1  0
 21 20  1  1
 21 22  1  0
 21 23  1  0
 22 15  1  0
 23 24  1  0
 25 23  2  0
M  END
$$$$
