KTN.pdb
     RDKit          3D

 25 24  0  0  1  0  0  0  0  0999 V2000
   10.9091  -18.1039   14.5421 N   0  0  0  0  0  0  0  0  0  0  0  0
   11.2419  -17.3064   15.6782 C   0  0  1  0  0  0  0  0  0  0  0  0
   10.1675  -16.4022   16.1882 C   0  0  0  0  0  0  0  0  0  0  0  0
    9.5209  -15.5662   15.1621 C   0  0  0  0  0  0  0  0  0  0  0  0
    8.4305  -14.7118   15.6929 C   0  0  0  0  0  0  0  0  0  0  0  0
    7.8626  -13.8594   14.5891 C   0  0  0  0  0  0  0  0  0  0  0  0
    6.8259  -13.0282   15.2141 N   0  0  0  0  0  0  0  0  0  0  0  0
   11.8042  -18.1550   16.7930 C   0  0  0  0  0  0  0  0  0  0  0  0
   11.2256  -19.2105   17.1504 O   0  0  0  0  0  0  0  0  0  0  0  0
   15.8124  -18.3736   17.5592 C   0  0  0  0  0  0  0  0  0  0  0  0
   14.7510  -19.3435   18.0209 C   0  0  1  0  0  0  0  0  0  0  0  0
   15.3420  -20.0846   19.0527 O   0  0  0  0  0  0  0  0  0  0  0  0
   13.5117  -18.6286   18.5209 C   0  0  2  0  0  0  0  0  0  0  0  0
   12.9999  -17.7567   17.4454 N   0  0  0  0  0  0  0  0  0  0  0  0
   13.7750  -17.7141   19.6576 C   0  0  0  0  0  0  0  0  0  0  0  0
   14.0513  -16.4771   19.4341 O   0  0  0  0  0  0  0  0  0  0  0  0
   11.2549  -17.2545   21.4145 N   0  0  0  0  0  0  0  0  0  0  0  0
   11.5659  -17.4458   22.7868 C   0  0  0  0  0  0  0  0  0  0  0  0
   10.6270  -17.7651   23.5523 O   0  0  0  0  0  0  0  0  0  0  0  0
   12.9666  -17.2544   23.2045 C   0  0  0  0  0  0  0  0  0  0  0  0
   13.9099  -17.0421   22.0607 C   0  0  2  0  0  0  0  0  0  0  0  0
   13.7527  -18.0668   21.0232 N   0  0  0  0  0  0  0  0  0  0  0  0
   15.3381  -17.0108   22.5213 C   0  0  0  0  0  0  0  0  0  0  0  0
   16.2653  -17.9302   22.0940 O   0  0  0  0  0  0  0  0  0  0  0  0
   15.7213  -16.1207   23.3262 O   0  0  0  0  0  0  0  0  0  0  0  0
  2  1  1  6
  3  2  1  0
  4  3  1  0
  4  5  1  0
  5  6  1  0
  6  7  1  0
  8  2  1  0
  8  9  2  0
 11 10  1  1
 11 13  1  0
 12 11  1  0
 13 14  1  6
 14  8  1  0
 15 13  1  0
 16 15  2  0
 18 17  1  0
 19 18  2  0
 20 18  1  0
 21 20  1  1
 21 22  1  0
 21 23  1  0
 22 15  1  0
 23 24  1  0
 25 23  2  0
M  END
$$$$
