KTN.pdb
     RDKit          3D

 25 24  0  0  1  0  0  0  0  0999 V2000
    8.3832  -16.7992   17.6513 N   0  0  0  0  0  0  0  0  0  0  0  0
    9.3968  -15.8039   17.5119 C   0  0  1  0  0  0  0  0  0  0  0  0
    9.2056  -14.8165   16.4071 C   0  0  0  0  0  0  0  0  0  0  0  0
    7.8822  -14.8561   15.7615 C   0  0  0  0  0  0  0  0  0  0  0  0
    7.7156  -13.8474   14.6864 C   0  0  0  0  0  0  0  0  0  0  0  0
    7.6303  -14.5326   13.3483 C   0  0  0  0  0  0  0  0  0  0  0  0
    7.5107  -13.4599   12.3527 N   0  0  0  0  0  0  0  0  0  0  0  0
    9.6528  -15.1005   18.8230 C   0  0  0  0  0  0  0  0  0  0  0  0
   10.5193  -14.1959   18.9075 O   0  0  0  0  0  0  0  0  0  0  0  0
    7.0489  -13.6443   21.3780 C   0  0  0  0  0  0  0  0  0  0  0  0
    7.9977  -14.6022   22.0583 C   0  0  1  0  0  0  0  0  0  0  0  0
    7.2893  -15.8040   22.1887 O   0  0  0  0  0  0  0  0  0  0  0  0
    9.2621  -14.8140   21.2501 C   0  0  2  0  0  0  0  0  0  0  0  0
    8.9065  -15.4649   19.9738 N   0  0  0  0  0  0  0  0  0  0  0  0
   10.2260  -15.7394   21.8922 C   0  0  0  0  0  0  0  0  0  0  0  0
   10.9729  -16.4933   21.1640 O   0  0  0  0  0  0  0  0  0  0  0  0
   14.2799  -18.1290   23.5024 N   0  0  0  0  0  0  0  0  0  0  0  0
   14.0548  -16.7743   23.8639 C   0  0  0  0  0  0  0  0  0  0  0  0
   14.8766  -16.2411   24.6447 O   0  0  0  0  0  0  0  0  0  0  0  0
   12.8739  -16.1008   23.2938 C   0  0  0  0  0  0  0  0  0  0  0  0
   11.5721  -16.6506   23.7902 C   0  0  2  0  0  0  0  0  0  0  0  0
   10.4261  -15.8904   23.2803 N   0  0  0  0  0  0  0  0  0  0  0  0
   11.5230  -16.6847   25.2900 C   0  0  0  0  0  0  0  0  0  0  0  0
   12.2867  -17.5566   26.0277 O   0  0  0  0  0  0  0  0  0  0  0  0
   10.7636  -15.8966   25.9138 O   0  0  0  0  0  0  0  0  0  0  0  0
  2  1  1  1
  3  2  1  0
  4  3  1  0
  4  5  1  0
  5  6  1  0
  6  7  1  0
  8  2  1  0
  8  9  2  0
 11 10  1  6
 11 13  1  0
 12 11  1  0
 13 14  1  6
 14  8  1  0
 15 13  1  0
 16 15  2  0
 18 17  1  0
 19 18  2  0
 20 18  1  0
 21 20  1  1
 21 22  1  0
 21 23  1  0
 22 15  1  0
 23 24  1  0
 25 23  2  0
M  END
$$$$
