KTN.pdb
     RDKit          3D

 25 24  0  0  1  0  0  0  0  0999 V2000
    8.3500  -17.0604   14.8327 N   0  0  0  0  0  0  0  0  0  0  0  0
    7.5741  -16.9029   16.0204 C   0  0  1  0  0  0  0  0  0  0  0  0
    6.9285  -18.1390   16.5564 C   0  0  0  0  0  0  0  0  0  0  0  0
    6.1178  -18.8886   15.5815 C   0  0  0  0  0  0  0  0  0  0  0  0
    5.4986  -20.1148   16.1419 C   0  0  0  0  0  0  0  0  0  0  0  0
    4.7316  -20.8396   15.0679 C   0  0  0  0  0  0  0  0  0  0  0  0
    4.1759  -22.0385   15.7082 N   0  0  0  0  0  0  0  0  0  0  0  0
    8.3640  -16.1989   17.0971 C   0  0  0  0  0  0  0  0  0  0  0  0
    9.5924  -16.4171   17.2384 O   0  0  0  0  0  0  0  0  0  0  0  0
    6.5042  -13.5701   19.9944 C   0  0  0  0  0  0  0  0  0  0  0  0
    7.8176  -13.2629   19.3152 C   0  0  1  0  0  0  0  0  0  0  0  0
    8.5646  -12.5370   20.2522 O   0  0  0  0  0  0  0  0  0  0  0  0
    8.5526  -14.5250   18.9104 C   0  0  2  0  0  0  0  0  0  0  0  0
    7.7124  -15.2800   17.9603 N   0  0  0  0  0  0  0  0  0  0  0  0
    8.7859  -15.4603   20.0367 C   0  0  0  0  0  0  0  0  0  0  0  0
    8.0417  -16.5019   20.1694 O   0  0  0  0  0  0  0  0  0  0  0  0
   11.9406  -15.5915   23.7740 N   0  0  0  0  0  0  0  0  0  0  0  0
   12.2166  -16.6891   22.9163 C   0  0  0  0  0  0  0  0  0  0  0  0
   13.3509  -17.2145   22.9981 O   0  0  0  0  0  0  0  0  0  0  0  0
   11.1495  -17.1252   21.9975 C   0  0  0  0  0  0  0  0  0  0  0  0
    9.8953  -16.3138   22.1068 C   0  0  2  0  0  0  0  0  0  0  0  0
    9.7835  -15.3293   21.0255 N   0  0  0  0  0  0  0  0  0  0  0  0
    9.8036  -15.6147   23.4319 C   0  0  0  0  0  0  0  0  0  0  0  0
    9.7973  -16.3006   24.6224 O   0  0  0  0  0  0  0  0  0  0  0  0
    9.7291  -14.3580   23.4776 O   0  0  0  0  0  0  0  0  0  0  0  0
  2  1  1  6
  3  2  1  0
  4  3  1  0
  4  5  1  0
  5  6  1  0
  6  7  1  0
  8  2  1  0
  8  9  2  0
 11 10  1  1
 11 13  1  0
 12 11  1  0
 13 14  1  6
 14  8  1  0
 15 13  1  0
 16 15  2  0
 18 17  1  0
 19 18  2  0
 20 18  1  0
 21 20  1  1
 21 22  1  0
 21 23  1  0
 22 15  1  0
 23 24  1  0
 25 23  2  0
M  END
$$$$
