KTN.pdb
     RDKit          3D

 25 24  0  0  1  0  0  0  0  0999 V2000
    6.2731  -17.6870   17.7144 N   0  0  0  0  0  0  0  0  0  0  0  0
    7.6722  -17.9022   17.5304 C   0  0  1  0  0  0  0  0  0  0  0  0
    8.1435  -18.0109   16.1168 C   0  0  0  0  0  0  0  0  0  0  0  0
    7.1844  -18.6346   15.1889 C   0  0  0  0  0  0  0  0  0  0  0  0
    7.5248  -20.0346   14.8354 C   0  0  0  0  0  0  0  0  0  0  0  0
    6.4957  -20.5892   13.8863 C   0  0  0  0  0  0  0  0  0  0  0  0
    6.9191  -21.9637   13.5905 N   0  0  0  0  0  0  0  0  0  0  0  0
    8.4844  -16.8819   18.2908 C   0  0  0  0  0  0  0  0  0  0  0  0
    9.6054  -16.5082   17.8662 O   0  0  0  0  0  0  0  0  0  0  0  0
    7.4242  -13.4636   19.5757 C   0  0  0  0  0  0  0  0  0  0  0  0
    8.0182  -14.2391   20.7274 C   0  0  1  0  0  0  0  0  0  0  0  0
    6.9260  -14.6844   21.4837 O   0  0  0  0  0  0  0  0  0  0  0  0
    8.8490  -15.4129   20.2491 C   0  0  2  0  0  0  0  0  0  0  0  0
    7.9767  -16.3380   19.4993 N   0  0  0  0  0  0  0  0  0  0  0  0
    9.4087  -16.2296   21.3524 C   0  0  0  0  0  0  0  0  0  0  0  0
    8.8226  -17.3204   21.7034 O   0  0  0  0  0  0  0  0  0  0  0  0
   12.8623  -19.9020   23.4420 N   0  0  0  0  0  0  0  0  0  0  0  0
   11.6598  -19.1852   23.6800 C   0  0  0  0  0  0  0  0  0  0  0  0
   11.0589  -19.4073   24.7566 O   0  0  0  0  0  0  0  0  0  0  0  0
   11.2116  -18.2368   22.6443 C   0  0  0  0  0  0  0  0  0  0  0  0
   11.0372  -16.8370   23.1479 C   0  0  2  0  0  0  0  0  0  0  0  0
   10.5704  -15.9297   22.0943 N   0  0  0  0  0  0  0  0  0  0  0  0
   12.3071  -16.3020   23.7430 C   0  0  0  0  0  0  0  0  0  0  0  0
   12.6908  -16.5912   25.0301 O   0  0  0  0  0  0  0  0  0  0  0  0
   13.0612  -15.5614   23.0576 O   0  0  0  0  0  0  0  0  0  0  0  0
  2  1  1  6
  3  2  1  0
  4  3  1  0
  4  5  1  0
  5  6  1  0
  6  7  1  0
  8  2  1  0
  8  9  2  0
 11 10  1  6
 11 13  1  0
 12 11  1  0
 13 14  1  6
 14  8  1  0
 15 13  1  0
 16 15  2  0
 18 17  1  0
 19 18  2  0
 20 18  1  0
 21 20  1  6
 21 22  1  0
 21 23  1  0
 22 15  1  0
 23 24  1  0
 25 23  2  0
M  END
$$$$
