KTN.pdb
     RDKit          3D

 25 24  0  0  1  0  0  0  0  0999 V2000
    9.8174  -15.8699   16.0084 N   0  0  0  0  0  0  0  0  0  0  0  0
    9.2285  -14.5779   16.1547 C   0  0  1  0  0  0  0  0  0  0  0  0
    7.9490  -14.3478   15.4185 C   0  0  0  0  0  0  0  0  0  0  0  0
    7.5835  -15.4076   14.4630 C   0  0  0  0  0  0  0  0  0  0  0  0
    6.2728  -15.1869   13.8041 C   0  0  0  0  0  0  0  0  0  0  0  0
    5.9305  -16.3669   12.9336 C   0  0  0  0  0  0  0  0  0  0  0  0
    4.6572  -16.0326   12.2832 N   0  0  0  0  0  0  0  0  0  0  0  0
    9.0846  -14.2072   17.6111 C   0  0  0  0  0  0  0  0  0  0  0  0
    8.6691  -13.0707   17.9461 O   0  0  0  0  0  0  0  0  0  0  0  0
    7.4597  -13.1497   19.2902 C   0  0  0  0  0  0  0  0  0  0  0  0
    7.8225  -14.2795   20.2243 C   0  0  1  0  0  0  0  0  0  0  0  0
    6.9232  -15.3131   19.9312 O   0  0  0  0  0  0  0  0  0  0  0  0
    9.2511  -14.7429   20.0217 C   0  0  2  0  0  0  0  0  0  0  0  0
    9.4225  -15.1527   18.6140 N   0  0  0  0  0  0  0  0  0  0  0  0
    9.5997  -15.9474   20.8126 C   0  0  0  0  0  0  0  0  0  0  0  0
    9.9045  -17.0433   20.2104 O   0  0  0  0  0  0  0  0  0  0  0  0
   13.8989  -17.4441   22.6345 N   0  0  0  0  0  0  0  0  0  0  0  0
   13.2866  -16.2849   23.1803 C   0  0  0  0  0  0  0  0  0  0  0  0
   13.8280  -15.7640   24.1828 O   0  0  0  0  0  0  0  0  0  0  0  0
   12.0636  -15.7846   22.5270 C   0  0  0  0  0  0  0  0  0  0  0  0
   10.8284  -16.5425   22.9055 C   0  0  2  0  0  0  0  0  0  0  0  0
    9.6381  -16.0280   22.2204 N   0  0  0  0  0  0  0  0  0  0  0  0
   10.6006  -16.5215   24.3890 C   0  0  0  0  0  0  0  0  0  0  0  0
   10.7882  -15.3880   25.1423 O   0  0  0  0  0  0  0  0  0  0  0  0
   10.2248  -17.5665   24.9838 O   0  0  0  0  0  0  0  0  0  0  0  0
  2  1  1  1
  3  2  1  0
  4  3  1  0
  4  5  1  0
  5  6  1  0
  6  7  1  0
  8  2  1  0
  8  9  2  0
 11 10  1  6
 11 13  1  0
 12 11  1  0
 13 14  1  6
 14  8  1  0
 15 13  1  0
 16 15  2  0
 18 17  1  0
 19 18  2  0
 20 18  1  0
 21 20  1  1
 21 22  1  0
 21 23  1  0
 22 15  1  0
 23 24  1  0
 25 23  2  0
M  END
$$$$
