VPL.pdb
     RDKit          3D

 23 23  0  0  1  0  0  0  0  0999 V2000
    5.5121  -20.0484   22.5555 C   0  0  0  0  0  0  0  0  0  0  0  0
    6.5934  -19.0213   22.6858 C   0  0  2  0  0  0  0  0  0  0  0  0
    6.2150  -18.0109   23.7406 C   0  0  0  0  0  0  0  0  0  0  0  0
    6.9355  -18.3678   21.3667 C   0  0  2  0  0  0  0  0  0  0  0  0
    7.2082  -19.3337   20.3513 N   0  0  0  0  0  0  0  0  0  0  0  0
    8.0433  -17.4075   21.5835 C   0  0  0  0  0  0  0  0  0  0  0  0
    9.2551  -17.8215   21.6091 O   0  0  0  0  0  0  0  0  0  0  0  0
    7.8351  -16.0230   21.7696 N   0  0  0  0  0  0  0  0  0  0  0  0
    6.5673  -15.3707   21.8460 C   0  0  0  0  0  0  0  0  0  0  0  0
    6.8995  -13.8973   21.7957 C   0  0  0  0  0  0  0  0  0  0  0  0
    8.3030  -13.8386   21.2089 C   0  0  0  0  0  0  0  0  0  0  0  0
    8.8923  -15.0644   21.9070 C   0  0  1  0  0  0  0  0  0  0  0  0
    9.1574  -14.6682   23.2924 C   0  0  0  0  0  0  0  0  0  0  0  0
   10.1291  -13.9415   23.5930 O   0  0  0  0  0  0  0  0  0  0  0  0
    8.3363  -11.9392   26.4878 C   0  0  0  0  0  0  0  0  0  0  0  0
    7.1538  -12.8110   26.0258 C   0  0  2  0  0  0  0  0  0  0  0  0
    5.9227  -12.2259   26.6363 C   0  0  0  0  0  0  0  0  0  0  0  0
    7.4030  -14.2308   26.3902 C   0  0  0  0  0  0  0  0  0  0  0  0
    8.6071  -14.8387   25.7513 C   0  0  2  0  0  0  0  0  0  0  0  0
    8.3075  -15.1056   24.3351 N   0  0  0  0  0  0  0  0  0  0  0  0
    8.9517  -16.1066   26.4291 C   0  0  0  0  0  0  0  0  0  0  0  0
    9.7550  -16.0839   27.5786 O   0  0  0  0  0  0  0  0  0  0  0  0
    8.5723  -17.2268   26.0467 O   0  0  0  0  0  0  0  0  0  0  0  0
  2  1  1  6
  2  3  1  0
  4  2  1  0
  4  5  1  6
  6  8  1  0
  6  4  1  0
  7  6  2  0
  8 12  1  0
  9  8  1  0
  9 10  1  0
 10 11  1  0
 12 11  1  0
 13 20  1  0
 12 13  1  1
 14 13  2  0
 16 15  1  1
 16 17  1  0
 18 16  1  0
 19 20  1  0
 19 18  1  1
 21 22  1  0
 21 19  1  0
 23 21  2  0
M  END
$$$$
