VPL.pdb
     RDKit          3D

 23 23  0  0  1  0  0  0  0  0999 V2000
    8.0253  -12.9484   26.8993 C   0  0  0  0  0  0  0  0  0  0  0  0
    7.1511  -12.4549   25.7889 C   0  0  2  0  0  0  0  0  0  0  0  0
    6.5546  -11.1200   26.1617 C   0  0  0  0  0  0  0  0  0  0  0  0
    6.0950  -13.4602   25.3908 C   0  0  2  0  0  0  0  0  0  0  0  0
    5.2005  -13.7439   26.4669 N   0  0  0  0  0  0  0  0  0  0  0  0
    6.7645  -14.6640   24.8441 C   0  0  0  0  0  0  0  0  0  0  0  0
    6.5926  -15.8032   25.4037 O   0  0  0  0  0  0  0  0  0  0  0  0
    7.6058  -14.6275   23.7102 N   0  0  0  0  0  0  0  0  0  0  0  0
    7.7933  -13.5085   22.8436 C   0  0  0  0  0  0  0  0  0  0  0  0
    8.5752  -14.0645   21.6761 C   0  0  0  0  0  0  0  0  0  0  0  0
    8.3543  -15.5692   21.7461 C   0  0  0  0  0  0  0  0  0  0  0  0
    8.4002  -15.7349   23.2651 C   0  0  1  0  0  0  0  0  0  0  0  0
    9.8106  -15.6464   23.6520 C   0  0  0  0  0  0  0  0  0  0  0  0
   10.5596  -14.7518   23.2033 O   0  0  0  0  0  0  0  0  0  0  0  0
    9.4453  -14.4255   28.8042 C   0  0  0  0  0  0  0  0  0  0  0  0
   10.6107  -14.9345   27.9357 C   0  0  2  0  0  0  0  0  0  0  0  0
   11.6363  -13.8491   27.9115 C   0  0  0  0  0  0  0  0  0  0  0  0
   10.1038  -15.3286   26.5945 C   0  0  0  0  0  0  0  0  0  0  0  0
   11.0406  -16.1712   25.7944 C   0  0  2  0  0  0  0  0  0  0  0  0
   10.3635  -16.5848   24.5545 N   0  0  0  0  0  0  0  0  0  0  0  0
   11.4262  -17.3704   26.5682 C   0  0  0  0  0  0  0  0  0  0  0  0
   12.7618  -17.5448   26.9596 O   0  0  0  0  0  0  0  0  0  0  0  0
   10.6331  -18.2645   26.9097 O   0  0  0  0  0  0  0  0  0  0  0  0
  2  1  1  1
  2  3  1  0
  4  2  1  0
  4  5  1  1
  6  8  1  0
  6  4  1  0
  7  6  2  0
  8 12  1  0
  9  8  1  0
  9 10  1  0
 10 11  1  0
 12 11  1  0
 13 20  1  0
 12 13  1  1
 14 13  2  0
 16 15  1  1
 16 17  1  0
 18 16  1  0
 19 20  1  0
 19 18  1  1
 21 22  1  0
 21 19  1  0
 23 21  2  0
M  END
$$$$
