VPL.pdb
     RDKit          3D

 23 23  0  0  1  0  0  0  0  0999 V2000
    5.7962  -18.4776   23.0584 C   0  0  0  0  0  0  0  0  0  0  0  0
    5.2151  -17.5902   22.0021 C   0  0  2  0  0  0  0  0  0  0  0  0
    3.7955  -18.0079   21.7068 C   0  0  0  0  0  0  0  0  0  0  0  0
    6.0658  -17.5394   20.7539 C   0  0  2  0  0  0  0  0  0  0  0  0
    6.1837  -18.8229   20.1398 N   0  0  0  0  0  0  0  0  0  0  0  0
    7.3703  -16.9220   21.0908 C   0  0  0  0  0  0  0  0  0  0  0  0
    8.4225  -17.6482   21.1687 O   0  0  0  0  0  0  0  0  0  0  0  0
    7.5255  -15.5403   21.3389 N   0  0  0  0  0  0  0  0  0  0  0  0
    6.4716  -14.5798   21.4105 C   0  0  0  0  0  0  0  0  0  0  0  0
    7.1808  -13.2457   21.4427 C   0  0  0  0  0  0  0  0  0  0  0  0
    8.5734  -13.5366   20.9008 C   0  0  0  0  0  0  0  0  0  0  0  0
    8.7908  -14.9014   21.5543 C   0  0  1  0  0  0  0  0  0  0  0  0
    9.0934  -14.6450   22.9648 C   0  0  0  0  0  0  0  0  0  0  0  0
   10.1673  -14.1127   23.3196 O   0  0  0  0  0  0  0  0  0  0  0  0
    8.0035  -11.9771   26.2944 C   0  0  0  0  0  0  0  0  0  0  0  0
    6.9056  -12.9220   25.7715 C   0  0  2  0  0  0  0  0  0  0  0  0
    5.6166  -12.4542   26.3633 C   0  0  0  0  0  0  0  0  0  0  0  0
    7.2553  -14.3295   26.0993 C   0  0  0  0  0  0  0  0  0  0  0  0
    8.4677  -14.8515   25.4028 C   0  0  2  0  0  0  0  0  0  0  0  0
    8.1637  -14.9994   23.9702 N   0  0  0  0  0  0  0  0  0  0  0  0
    8.8450  -16.1660   25.9643 C   0  0  0  0  0  0  0  0  0  0  0  0
    8.7255  -17.3190   25.1745 O   0  0  0  0  0  0  0  0  0  0  0  0
    9.2735  -16.3339   27.1189 O   0  0  0  0  0  0  0  0  0  0  0  0
  2  1  1  1
  2  3  1  0
  4  2  1  0
  4  5  1  1
  6  8  1  0
  6  4  1  0
  7  6  2  0
  8 12  1  0
  9  8  1  0
  9 10  1  0
 10 11  1  0
 12 11  1  0
 13 20  1  0
 12 13  1  1
 14 13  2  0
 16 15  1  1
 16 17  1  0
 18 16  1  0
 19 20  1  0
 19 18  1  1
 21 22  1  0
 21 19  1  0
 23 21  2  0
M  END
$$$$
