VPL.pdb
     RDKit          3D

 23 23  0  0  1  0  0  0  0  0999 V2000
    5.8844  -18.4018   23.2468 C   0  0  0  0  0  0  0  0  0  0  0  0
    5.2233  -17.6147   22.1586 C   0  0  2  0  0  0  0  0  0  0  0  0
    3.8241  -18.1315   21.9307 C   0  0  0  0  0  0  0  0  0  0  0  0
    6.0362  -17.5889   20.8846 C   0  0  2  0  0  0  0  0  0  0  0  0
    6.1366  -18.8845   20.2933 N   0  0  0  0  0  0  0  0  0  0  0  0
    7.3498  -16.9646   21.1698 C   0  0  0  0  0  0  0  0  0  0  0  0
    8.4070  -17.6864   21.2127 O   0  0  0  0  0  0  0  0  0  0  0  0
    7.5086  -15.5810   21.4045 N   0  0  0  0  0  0  0  0  0  0  0  0
    6.4578  -14.6159   21.4585 C   0  0  0  0  0  0  0  0  0  0  0  0
    7.1719  -13.2842   21.4817 C   0  0  0  0  0  0  0  0  0  0  0  0
    8.5671  -13.5860   20.9525 C   0  0  0  0  0  0  0  0  0  0  0  0
    8.7748  -14.9446   21.6219 C   0  0  1  0  0  0  0  0  0  0  0  0
    9.0685  -14.6746   23.0317 C   0  0  0  0  0  0  0  0  0  0  0  0
   10.1515  -14.1636   23.3905 O   0  0  0  0  0  0  0  0  0  0  0  0
    8.0685  -11.9558   26.3552 C   0  0  0  0  0  0  0  0  0  0  0  0
    6.9366  -12.8528   25.8204 C   0  0  2  0  0  0  0  0  0  0  0  0
    5.6628  -12.3306   26.3995 C   0  0  0  0  0  0  0  0  0  0  0  0
    7.2225  -14.2740   26.1506 C   0  0  0  0  0  0  0  0  0  0  0  0
    8.4186  -14.8471   25.4660 C   0  0  2  0  0  0  0  0  0  0  0  0
    8.1196  -14.9906   24.0319 N   0  0  0  0  0  0  0  0  0  0  0  0
    8.7397  -16.1724   26.0370 C   0  0  0  0  0  0  0  0  0  0  0  0
    9.5934  -16.2627   27.1463 O   0  0  0  0  0  0  0  0  0  0  0  0
    8.2975  -17.2471   25.5959 O   0  0  0  0  0  0  0  0  0  0  0  0
  2  1  1  1
  2  3  1  0
  4  2  1  0
  4  5  1  1
  6  8  1  0
  6  4  1  0
  7  6  2  0
  8 12  1  0
  9  8  1  0
  9 10  1  0
 10 11  1  0
 12 11  1  0
 13 20  1  0
 12 13  1  1
 14 13  2  0
 16 15  1  1
 16 17  1  0
 18 16  1  0
 19 20  1  0
 19 18  1  1
 21 22  1  0
 21 19  1  0
 23 21  2  0
M  END
$$$$
