VPL.pdb
     RDKit          3D

 23 23  0  0  1  0  0  0  0  0999 V2000
    3.4640  -18.7734   21.1251 C   0  0  0  0  0  0  0  0  0  0  0  0
    4.7031  -18.0730   21.5889 C   0  0  2  0  0  0  0  0  0  0  0  0
    4.3611  -16.6759   22.0449 C   0  0  0  0  0  0  0  0  0  0  0  0
    5.7987  -18.0807   20.5477 C   0  0  2  0  0  0  0  0  0  0  0  0
    6.0460  -19.3951   20.0480 N   0  0  0  0  0  0  0  0  0  0  0  0
    7.0013  -17.4273   21.1162 C   0  0  0  0  0  0  0  0  0  0  0  0
    7.8979  -18.1311   21.7003 O   0  0  0  0  0  0  0  0  0  0  0  0
    7.2225  -16.0339   21.0503 N   0  0  0  0  0  0  0  0  0  0  0  0
    6.3285  -15.0706   20.4926 C   0  0  0  0  0  0  0  0  0  0  0  0
    7.1345  -13.7931   20.4457 C   0  0  0  0  0  0  0  0  0  0  0  0
    8.5843  -14.2488   20.5367 C   0  0  0  0  0  0  0  0  0  0  0  0
    8.4022  -15.3850   21.5431 C   0  0  1  0  0  0  0  0  0  0  0  0
    8.2293  -14.7566   22.8552 C   0  0  0  0  0  0  0  0  0  0  0  0
    7.2861  -13.9697   23.0871 O   0  0  0  0  0  0  0  0  0  0  0  0
    5.8848  -12.6834   26.6779 C   0  0  0  0  0  0  0  0  0  0  0  0
    7.3409  -13.1843   26.6585 C   0  0  2  0  0  0  0  0  0  0  0  0
    8.2047  -12.0108   26.9863 C   0  0  0  0  0  0  0  0  0  0  0  0
    7.6380  -13.8162   25.3458 C   0  0  0  0  0  0  0  0  0  0  0  0
    8.9937  -14.4317   25.2403 C   0  0  2  0  0  0  0  0  0  0  0  0
    9.1389  -15.0303   23.9033 N   0  0  0  0  0  0  0  0  0  0  0  0
    9.1525  -15.4811   26.2694 C   0  0  0  0  0  0  0  0  0  0  0  0
   10.2885  -15.4810   27.0922 O   0  0  0  0  0  0  0  0  0  0  0  0
    8.3310  -16.3925   26.4682 O   0  0  0  0  0  0  0  0  0  0  0  0
  2  1  1  6
  2  3  1  0
  4  2  1  0
  4  5  1  1
  6  8  1  0
  6  4  1  0
  7  6  2  0
  8 12  1  0
  9  8  1  0
  9 10  1  0
 10 11  1  0
 12 11  1  0
 13 20  1  0
 12 13  1  1
 14 13  2  0
 16 15  1  6
 16 17  1  0
 18 16  1  0
 19 20  1  0
 19 18  1  6
 21 22  1  0
 21 19  1  0
 23 21  2  0
M  END
$$$$
