VPL.pdb
     RDKit          3D

 23 23  0  0  1  0  0  0  0  0999 V2000
    5.6043  -19.8764   21.7130 C   0  0  0  0  0  0  0  0  0  0  0  0
    6.5793  -18.7943   22.0584 C   0  0  2  0  0  0  0  0  0  0  0  0
    5.9374  -17.8100   23.0049 C   0  0  0  0  0  0  0  0  0  0  0  0
    7.1531  -18.1176   20.8348 C   0  0  2  0  0  0  0  0  0  0  0  0
    7.5814  -19.0652   19.8565 N   0  0  0  0  0  0  0  0  0  0  0  0
    8.2218  -17.1844   21.2631 C   0  0  0  0  0  0  0  0  0  0  0  0
    9.4206  -17.6088   21.4158 O   0  0  0  0  0  0  0  0  0  0  0  0
    7.9891  -15.8154   21.5209 N   0  0  0  0  0  0  0  0  0  0  0  0
    6.7100  -15.1889   21.6212 C   0  0  0  0  0  0  0  0  0  0  0  0
    7.0178  -13.7097   21.6523 C   0  0  0  0  0  0  0  0  0  0  0  0
    8.4246  -13.5968   21.0813 C   0  0  0  0  0  0  0  0  0  0  0  0
    9.0290  -14.8483   21.7181 C   0  0  1  0  0  0  0  0  0  0  0  0
    9.2769  -14.5224   23.1249 C   0  0  0  0  0  0  0  0  0  0  0  0
   10.2405  -13.8062   23.4729 O   0  0  0  0  0  0  0  0  0  0  0  0
    7.5078  -11.8670   26.1578 C   0  0  0  0  0  0  0  0  0  0  0  0
    6.6341  -13.0326   25.6582 C   0  0  2  0  0  0  0  0  0  0  0  0
    5.2492  -12.7774   26.1559 C   0  0  0  0  0  0  0  0  0  0  0  0
    7.2170  -14.3256   26.1048 C   0  0  0  0  0  0  0  0  0  0  0  0
    8.5674  -14.6292   25.5463 C   0  0  2  0  0  0  0  0  0  0  0  0
    8.4191  -15.0182   24.1344 N   0  0  0  0  0  0  0  0  0  0  0  0
    9.1869  -15.7396   26.3004 C   0  0  0  0  0  0  0  0  0  0  0  0
    9.4317  -16.9632   25.6597 O   0  0  0  0  0  0  0  0  0  0  0  0
    9.5182  -15.6706   27.4965 O   0  0  0  0  0  0  0  0  0  0  0  0
  2  1  1  6
  2  3  1  0
  4  2  1  0
  4  5  1  6
  6  8  1  0
  6  4  1  0
  7  6  2  0
  8 12  1  0
  9  8  1  0
  9 10  1  0
 10 11  1  0
 12 11  1  0
 13 20  1  0
 12 13  1  1
 14 13  2  0
 16 15  1  1
 16 17  1  0
 18 16  1  0
 19 20  1  0
 19 18  1  1
 21 22  1  0
 21 19  1  0
 23 21  2  0
M  END
$$$$
