VPL.pdb
     RDKit          3D

 23 23  0  0  1  0  0  0  0  0999 V2000
    7.6842  -13.1665   27.2798 C   0  0  0  0  0  0  0  0  0  0  0  0
    6.9309  -12.6178   26.1083 C   0  0  2  0  0  0  0  0  0  0  0  0
    6.3643  -11.2626   26.4533 C   0  0  0  0  0  0  0  0  0  0  0  0
    5.8694  -13.5681   25.6038 C   0  0  2  0  0  0  0  0  0  0  0  0
    4.8992  -13.8615   26.6092 N   0  0  0  0  0  0  0  0  0  0  0  0
    6.5320  -14.7729   25.0506 C   0  0  0  0  0  0  0  0  0  0  0  0
    6.2148  -15.9355   25.4845 O   0  0  0  0  0  0  0  0  0  0  0  0
    7.5216  -14.7124   24.0447 N   0  0  0  0  0  0  0  0  0  0  0  0
    7.9197  -13.5408   23.3326 C   0  0  0  0  0  0  0  0  0  0  0  0
    8.8059  -14.0586   22.2233 C   0  0  0  0  0  0  0  0  0  0  0  0
    8.4523  -15.5346   22.1050 C   0  0  0  0  0  0  0  0  0  0  0  0
    8.2744  -15.8452   23.5912 C   0  0  1  0  0  0  0  0  0  0  0  0
    9.6204  -15.9306   24.1636 C   0  0  0  0  0  0  0  0  0  0  0  0
   10.6418  -15.7260   23.4727 O   0  0  0  0  0  0  0  0  0  0  0  0
   11.2817  -13.4253   26.8061 C   0  0  0  0  0  0  0  0  0  0  0  0
   10.4540  -14.4692   27.5785 C   0  0  2  0  0  0  0  0  0  0  0  0
   10.2927  -13.9484   28.9689 C   0  0  0  0  0  0  0  0  0  0  0  0
   11.1159  -15.7980   27.4949 C   0  0  0  0  0  0  0  0  0  0  0  0
   11.1308  -16.4049   26.1313 C   0  0  2  0  0  0  0  0  0  0  0  0
    9.7960  -16.2509   25.5301 N   0  0  0  0  0  0  0  0  0  0  0  0
   11.4668  -17.8417   26.2226 C   0  0  0  0  0  0  0  0  0  0  0  0
   10.4689  -18.8036   26.0077 O   0  0  0  0  0  0  0  0  0  0  0  0
   12.6016  -18.2770   26.4833 O   0  0  0  0  0  0  0  0  0  0  0  0
  2  1  1  1
  2  3  1  0
  4  2  1  0
  4  5  1  1
  6  8  1  0
  6  4  1  0
  7  6  2  0
  8 12  1  0
  9  8  1  0
  9 10  1  0
 10 11  1  0
 12 11  1  0
 13 20  1  0
 12 13  1  1
 14 13  2  0
 16 15  1  6
 16 17  1  0
 18 16  1  0
 19 20  1  0
 19 18  1  1
 21 22  1  0
 21 19  1  0
 23 21  2  0
M  END
$$$$
