VPL.pdb
     RDKit          3D

 23 23  0  0  1  0  0  0  0  0999 V2000
   12.6708  -17.5391   22.0714 C   0  0  0  0  0  0  0  0  0  0  0  0
   11.7546  -18.3940   21.2525 C   0  0  2  0  0  0  0  0  0  0  0  0
   12.5276  -19.5410   20.6494 C   0  0  0  0  0  0  0  0  0  0  0  0
   11.0010  -17.6028   20.2084 C   0  0  2  0  0  0  0  0  0  0  0  0
   11.8849  -16.9603   19.2896 N   0  0  0  0  0  0  0  0  0  0  0  0
   10.0770  -16.6681   20.8933 C   0  0  0  0  0  0  0  0  0  0  0  0
   10.3161  -15.4098   20.8864 O   0  0  0  0  0  0  0  0  0  0  0  0
    8.9154  -17.0959   21.5734 N   0  0  0  0  0  0  0  0  0  0  0  0
    8.4673  -18.4460   21.6956 C   0  0  0  0  0  0  0  0  0  0  0  0
    7.0800  -18.3294   22.2836 C   0  0  0  0  0  0  0  0  0  0  0  0
    6.6614  -16.8932   22.0012 C   0  0  0  0  0  0  0  0  0  0  0  0
    8.0081  -16.2121   22.2451 C   0  0  1  0  0  0  0  0  0  0  0  0
    8.1939  -16.1632   23.6976 C   0  0  0  0  0  0  0  0  0  0  0  0
    8.9057  -16.9979   24.2970 O   0  0  0  0  0  0  0  0  0  0  0  0
    8.2521  -12.0353   26.1575 C   0  0  0  0  0  0  0  0  0  0  0  0
    6.8880  -12.6777   25.8439 C   0  0  2  0  0  0  0  0  0  0  0  0
    5.8425  -11.7256   26.3246 C   0  0  0  0  0  0  0  0  0  0  0  0
    6.8152  -14.0294   26.4592 C   0  0  0  0  0  0  0  0  0  0  0  0
    7.7895  -15.0191   25.9125 C   0  0  2  0  0  0  0  0  0  0  0  0
    7.5629  -15.1560   24.4645 N   0  0  0  0  0  0  0  0  0  0  0  0
    7.5971  -16.3306   26.5670 C   0  0  0  0  0  0  0  0  0  0  0  0
    8.3548  -16.6592   27.7007 O   0  0  0  0  0  0  0  0  0  0  0  0
    6.7899  -17.1921   26.1780 O   0  0  0  0  0  0  0  0  0  0  0  0
  2  1  1  6
  2  3  1  0
  4  2  1  0
  4  5  1  1
  6  8  1  0
  6  4  1  0
  7  6  2  0
  8 12  1  0
  9  8  1  0
  9 10  1  0
 10 11  1  0
 12 11  1  0
 13 20  1  0
 12 13  1  1
 14 13  2  0
 16 15  1  1
 16 17  1  0
 18 16  1  0
 19 20  1  0
 19 18  1  1
 21 22  1  0
 21 19  1  0
 23 21  2  0
M  END
$$$$
