VPL.pdb
     RDKit          3D

 23 23  0  0  1  0  0  0  0  0999 V2000
    6.8600  -18.9934   23.4873 C   0  0  0  0  0  0  0  0  0  0  0  0
    5.9831  -18.2775   22.5078 C   0  0  2  0  0  0  0  0  0  0  0  0
    4.6786  -19.0194   22.3511 C   0  0  0  0  0  0  0  0  0  0  0  0
    6.6672  -18.0406   21.1811 C   0  0  2  0  0  0  0  0  0  0  0  0
    6.9714  -19.2662   20.5149 N   0  0  0  0  0  0  0  0  0  0  0  0
    7.8512  -17.1772   21.4026 C   0  0  0  0  0  0  0  0  0  0  0  0
    9.0273  -17.6842   21.3831 O   0  0  0  0  0  0  0  0  0  0  0  0
    7.7560  -15.7884   21.6416 N   0  0  0  0  0  0  0  0  0  0  0  0
    6.5466  -15.0331   21.7126 C   0  0  0  0  0  0  0  0  0  0  0  0
    7.0040  -13.5928   21.7332 C   0  0  0  0  0  0  0  0  0  0  0  0
    8.4241  -13.6319   21.1859 C   0  0  0  0  0  0  0  0  0  0  0  0
    8.8863  -14.9306   21.8466 C   0  0  1  0  0  0  0  0  0  0  0  0
    9.1433  -14.6143   23.2539 C   0  0  0  0  0  0  0  0  0  0  0  0
   10.1233  -13.9210   23.6027 O   0  0  0  0  0  0  0  0  0  0  0  0
    7.5688  -11.9987   26.2608 C   0  0  0  0  0  0  0  0  0  0  0  0
    6.6474  -13.1656   25.8594 C   0  0  2  0  0  0  0  0  0  0  0  0
    5.2952  -12.8573   26.4137 C   0  0  0  0  0  0  0  0  0  0  0  0
    7.2262  -14.4501   26.3349 C   0  0  0  0  0  0  0  0  0  0  0  0
    8.5179  -14.8306   25.6912 C   0  0  2  0  0  0  0  0  0  0  0  0
    8.2758  -15.0934   24.2633 N   0  0  0  0  0  0  0  0  0  0  0  0
    9.0605  -16.0481   26.3307 C   0  0  0  0  0  0  0  0  0  0  0  0
    9.6904  -15.9545   27.5804 O   0  0  0  0  0  0  0  0  0  0  0  0
    8.9997  -17.1844   25.8305 O   0  0  0  0  0  0  0  0  0  0  0  0
  2  1  1  1
  2  3  1  0
  4  2  1  0
  4  5  1  1
  6  8  1  0
  6  4  1  0
  7  6  2  0
  8 12  1  0
  9  8  1  0
  9 10  1  0
 10 11  1  0
 12 11  1  0
 13 20  1  0
 12 13  1  1
 14 13  2  0
 16 15  1  1
 16 17  1  0
 18 16  1  0
 19 20  1  0
 19 18  1  1
 21 22  1  0
 21 19  1  0
 23 21  2  0
M  END
$$$$
