VPL.pdb
     RDKit          3D

 23 23  0  0  1  0  0  0  0  0999 V2000
    7.5515  -12.4998   27.1001 C   0  0  0  0  0  0  0  0  0  0  0  0
    6.8091  -12.2266   25.8292 C   0  0  2  0  0  0  0  0  0  0  0  0
    6.0569  -10.9237   25.9458 C   0  0  0  0  0  0  0  0  0  0  0  0
    5.9081  -13.3710   25.4256 C   0  0  2  0  0  0  0  0  0  0  0  0
    4.9026  -13.6258   26.4067 N   0  0  0  0  0  0  0  0  0  0  0  0
    6.7475  -14.5528   25.1172 C   0  0  0  0  0  0  0  0  0  0  0  0
    6.6279  -15.6230   25.8107 O   0  0  0  0  0  0  0  0  0  0  0  0
    7.6996  -14.5683   24.0740 N   0  0  0  0  0  0  0  0  0  0  0  0
    7.9954  -13.4824   23.1956 C   0  0  0  0  0  0  0  0  0  0  0  0
    8.8803  -14.0902   22.1319 C   0  0  0  0  0  0  0  0  0  0  0  0
    8.6240  -15.5879   22.2272 C   0  0  0  0  0  0  0  0  0  0  0  0
    8.5131  -15.7028   23.7476 C   0  0  1  0  0  0  0  0  0  0  0  0
    9.8787  -15.6242   24.2727 C   0  0  0  0  0  0  0  0  0  0  0  0
   10.5583  -14.5791   24.1805 O   0  0  0  0  0  0  0  0  0  0  0  0
   11.9007  -14.2046   27.5436 C   0  0  0  0  0  0  0  0  0  0  0  0
   10.4088  -14.5122   27.3174 C   0  0  2  0  0  0  0  0  0  0  0  0
    9.6647  -13.9001   28.4586 C   0  0  0  0  0  0  0  0  0  0  0  0
   10.2136  -15.9794   27.1753 C   0  0  0  0  0  0  0  0  0  0  0  0
   11.1385  -16.6430   26.2099 C   0  0  2  0  0  0  0  0  0  0  0  0
   10.4664  -16.7451   24.9044 N   0  0  0  0  0  0  0  0  0  0  0  0
   11.4846  -17.9968   26.6926 C   0  0  0  0  0  0  0  0  0  0  0  0
   10.5354  -19.0264   26.6134 O   0  0  0  0  0  0  0  0  0  0  0  0
   12.5869  -18.3029   27.1788 O   0  0  0  0  0  0  0  0  0  0  0  0
  2  1  1  1
  2  3  1  0
  4  2  1  0
  4  5  1  1
  6  8  1  0
  6  4  1  0
  7  6  2  0
  8 12  1  0
  9  8  1  0
  9 10  1  0
 10 11  1  0
 12 11  1  0
 13 20  1  0
 12 13  1  1
 14 13  2  0
 16 15  1  1
 16 17  1  0
 18 16  1  0
 19 20  1  0
 19 18  1  1
 21 22  1  0
 21 19  1  0
 23 21  2  0
M  END
$$$$
