VPL.pdb
     RDKit          3D

 23 23  0  0  1  0  0  0  0  0999 V2000
    5.3371  -19.9848   22.6058 C   0  0  0  0  0  0  0  0  0  0  0  0
    6.4747  -19.0175   22.7116 C   0  0  2  0  0  0  0  0  0  0  0  0
    6.1399  -17.9413   23.7148 C   0  0  0  0  0  0  0  0  0  0  0  0
    6.8753  -18.4435   21.3720 C   0  0  2  0  0  0  0  0  0  0  0  0
    7.1466  -19.4684   20.4156 N   0  0  0  0  0  0  0  0  0  0  0  0
    8.0061  -17.5071   21.5734 C   0  0  0  0  0  0  0  0  0  0  0  0
    9.2002  -17.9574   21.6818 O   0  0  0  0  0  0  0  0  0  0  0  0
    7.8394  -16.1070   21.6559 N   0  0  0  0  0  0  0  0  0  0  0  0
    6.5941  -15.4095   21.6203 C   0  0  0  0  0  0  0  0  0  0  0  0
    6.9821  -13.9547   21.4906 C   0  0  0  0  0  0  0  0  0  0  0  0
    8.4153  -13.9825   20.9780 C   0  0  0  0  0  0  0  0  0  0  0  0
    8.9224  -15.1767   21.7866 C   0  0  1  0  0  0  0  0  0  0  0  0
    9.1298  -14.6962   23.1551 C   0  0  0  0  0  0  0  0  0  0  0  0
   10.0550  -13.9055   23.4401 O   0  0  0  0  0  0  0  0  0  0  0  0
    5.5488  -12.4441   26.8763 C   0  0  0  0  0  0  0  0  0  0  0  0
    6.9870  -12.7707   26.4328 C   0  0  2  0  0  0  0  0  0  0  0  0
    7.3107  -11.8464   25.3052 C   0  0  0  0  0  0  0  0  0  0  0  0
    7.0926  -14.2140   26.0914 C   0  0  0  0  0  0  0  0  0  0  0  0
    8.4288  -14.6400   25.5807 C   0  0  2  0  0  0  0  0  0  0  0  0
    8.2753  -15.1226   24.1986 N   0  0  0  0  0  0  0  0  0  0  0  0
    8.9680  -15.7274   26.4248 C   0  0  0  0  0  0  0  0  0  0  0  0
    9.7991  -15.4167   27.5111 O   0  0  0  0  0  0  0  0  0  0  0  0
    8.7342  -16.9342   26.2403 O   0  0  0  0  0  0  0  0  0  0  0  0
  2  1  1  6
  2  3  1  0
  4  2  1  0
  4  5  1  6
  6  8  1  0
  6  4  1  0
  7  6  2  0
  8 12  1  0
  9  8  1  0
  9 10  1  0
 10 11  1  0
 12 11  1  0
 13 20  1  0
 12 13  1  1
 14 13  2  0
 16 15  1  6
 16 17  1  0
 18 16  1  0
 19 20  1  0
 19 18  1  1
 21 22  1  0
 21 19  1  0
 23 21  2  0
M  END
$$$$
