VWL.pdb
     RDKit          3D

 30 31  0  0  1  0  0  0  0  0999 V2000
    9.0013  -13.3013   17.9419 C   0  0  0  0  0  0  0  0  0  0  0  0
    8.6234  -13.4447   19.3814 C   0  0  1  0  0  0  0  0  0  0  0  0
    7.1682  -13.1834   19.6520 C   0  0  0  0  0  0  0  0  0  0  0  0
    9.1341  -14.7098   20.0269 C   0  0  2  0  0  0  0  0  0  0  0  0
    8.5261  -15.8158   19.2854 N   0  0  0  0  0  0  0  0  0  0  0  0
    8.7801  -14.8670   21.4374 C   0  0  0  0  0  0  0  0  0  0  0  0
    7.7061  -14.3300   21.8682 O   0  0  0  0  0  0  0  0  0  0  0  0
    9.5162  -15.5723   22.4221 N   0  0  0  0  0  0  0  0  0  0  0  0
    9.1565  -15.6468   23.8080 C   0  0  1  0  0  0  0  0  0  0  0  0
    7.8617  -16.3079   24.1081 C   0  0  0  0  0  0  0  0  0  0  0  0
    6.8671  -15.5014   24.8139 C   0  0  0  0  0  0  0  0  0  0  0  0
    5.6034  -15.7845   25.2799 C   0  0  0  0  0  0  0  0  0  0  0  0
    5.0729  -14.7051   25.8777 N   0  0  0  0  0  0  0  0  0  0  0  0
    5.9678  -13.6952   25.8198 C   0  0  0  0  0  0  0  0  0  0  0  0
    5.8954  -12.4012   26.2869 C   0  0  0  0  0  0  0  0  0  0  0  0
    6.9491  -11.5340   26.1107 C   0  0  0  0  0  0  0  0  0  0  0  0
    8.0703  -11.9962   25.4582 C   0  0  0  0  0  0  0  0  0  0  0  0
    8.1378  -13.2912   24.9929 C   0  0  0  0  0  0  0  0  0  0  0  0
    7.0828  -14.1707   25.1653 C   0  0  0  0  0  0  0  0  0  0  0  0
   10.2824  -16.1425   24.6574 C   0  0  0  0  0  0  0  0  0  0  0  0
   11.1645  -16.8356   24.0893 O   0  0  0  0  0  0  0  0  0  0  0  0
   11.1029  -13.4390   27.4303 C   0  0  0  0  0  0  0  0  0  0  0  0
   10.6040  -14.6265   28.2468 C   0  0  2  0  0  0  0  0  0  0  0  0
   10.4404  -14.2116   29.6985 C   0  0  0  0  0  0  0  0  0  0  0  0
   11.5518  -15.7863   28.1589 C   0  0  0  0  0  0  0  0  0  0  0  0
   11.5159  -16.3937   26.7974 C   0  0  2  0  0  0  0  0  0  0  0  0
   10.3851  -15.8673   26.0282 N   0  0  0  0  0  0  0  0  0  0  0  0
   11.3656  -17.8597   26.7924 C   0  0  0  0  0  0  0  0  0  0  0  0
   10.2746  -18.3874   26.4194 O   0  0  0  0  0  0  0  0  0  0  0  0
   12.3686  -18.7515   27.1783 O   0  0  0  0  0  0  0  0  0  0  0  0
  2  1  1  6
  2  3  1  0
  4  2  1  0
  4  5  1  6
  6  4  1  0
  6  7  2  0
  8  6  1  0
  9  8  1  0
  9 10  1  6
 11 12  2  0
 11 10  1  0
 13 12  1  0
 14 19  2  0
 14 13  1  0
 15 14  1  0
 16 17  1  0
 16 15  2  0
 17 18  2  0
 18 19  1  0
 19 11  1  0
 20  9  1  0
 21 20  2  0
 23 22  1  6
 23 25  1  0
 24 23  1  0
 26 25  1  1
 26 27  1  0
 26 28  1  0
 27 20  1  0
 28 30  1  0
 29 28  2  0
M  END
$$$$
