VWL.pdb
     RDKit          3D

 30 31  0  0  1  0  0  0  0  0999 V2000
   12.7911  -17.7817   20.2794 C   0  0  0  0  0  0  0  0  0  0  0  0
   11.8442  -17.2949   19.2296 C   0  0  1  0  0  0  0  0  0  0  0  0
   12.1975  -17.7490   17.8411 C   0  0  0  0  0  0  0  0  0  0  0  0
   10.3888  -17.4989   19.5735 C   0  0  2  0  0  0  0  0  0  0  0  0
    9.6277  -16.9665   18.4422 N   0  0  0  0  0  0  0  0  0  0  0  0
    9.9394  -16.8075   20.7816 C   0  0  0  0  0  0  0  0  0  0  0  0
    9.9584  -15.5322   20.8067 O   0  0  0  0  0  0  0  0  0  0  0  0
    9.4666  -17.4082   21.9752 N   0  0  0  0  0  0  0  0  0  0  0  0
    9.0109  -16.6832   23.1251 C   0  0  1  0  0  0  0  0  0  0  0  0
    7.5890  -16.8871   23.4998 C   0  0  0  0  0  0  0  0  0  0  0  0
    7.0728  -16.0453   24.5781 C   0  0  0  0  0  0  0  0  0  0  0  0
    6.4424  -16.3405   25.7655 C   0  0  0  0  0  0  0  0  0  0  0  0
    6.1589  -15.2125   26.4371 N   0  0  0  0  0  0  0  0  0  0  0  0
    6.5929  -14.1577   25.7138 C   0  0  0  0  0  0  0  0  0  0  0  0
    6.5366  -12.8057   25.9717 C   0  0  0  0  0  0  0  0  0  0  0  0
    7.0527  -11.9001   25.0734 C   0  0  0  0  0  0  0  0  0  0  0  0
    7.6235  -12.3835   23.9171 C   0  0  0  0  0  0  0  0  0  0  0  0
    7.6774  -13.7367   23.6637 C   0  0  0  0  0  0  0  0  0  0  0  0
    7.1607  -14.6551   24.5613 C   0  0  0  0  0  0  0  0  0  0  0  0
    9.9496  -16.8114   24.2816 C   0  0  0  0  0  0  0  0  0  0  0  0
   10.6962  -17.8230   24.3020 O   0  0  0  0  0  0  0  0  0  0  0  0
    9.1372  -13.2374   27.1561 C   0  0  0  0  0  0  0  0  0  0  0  0
    9.7188  -14.4784   27.8250 C   0  0  2  0  0  0  0  0  0  0  0  0
    9.8496  -14.2361   29.3184 C   0  0  0  0  0  0  0  0  0  0  0  0
   11.0607  -14.8290   27.2527 C   0  0  0  0  0  0  0  0  0  0  0  0
   10.9711  -16.0602   26.4162 C   0  0  2  0  0  0  0  0  0  0  0  0
   10.0236  -15.8671   25.3151 N   0  0  0  0  0  0  0  0  0  0  0  0
   10.5112  -17.2553   27.1454 C   0  0  0  0  0  0  0  0  0  0  0  0
   11.2097  -17.7342   28.0892 O   0  0  0  0  0  0  0  0  0  0  0  0
    9.3191  -17.9294   26.8724 O   0  0  0  0  0  0  0  0  0  0  0  0
  2  1  1  1
  2  3  1  0
  4  2  1  0
  4  5  1  6
  6  4  1  0
  6  7  2  0
  8  6  1  0
  9  8  1  0
  9 10  1  1
 11 12  2  0
 11 10  1  0
 13 12  1  0
 14 19  2  0
 14 13  1  0
 15 14  1  0
 16 17  1  0
 16 15  2  0
 17 18  2  0
 18 19  1  0
 19 11  1  0
 20  9  1  0
 21 20  2  0
 23 22  1  6
 23 25  1  0
 24 23  1  0
 26 25  1  1
 26 27  1  0
 26 28  1  0
 27 20  1  0
 28 30  1  0
 29 28  2  0
M  END
$$$$
