VWL.pdb
     RDKit          3D

 30 31  0  0  1  0  0  0  0  0999 V2000
    9.3597  -20.5148   21.3451 C   0  0  0  0  0  0  0  0  0  0  0  0
    9.5939  -20.0409   19.9464 C   0  0  1  0  0  0  0  0  0  0  0  0
    9.4383  -21.1187   18.9104 C   0  0  0  0  0  0  0  0  0  0  0  0
    8.8621  -18.7674   19.5993 C   0  0  2  0  0  0  0  0  0  0  0  0
    9.3442  -18.3723   18.2748 N   0  0  0  0  0  0  0  0  0  0  0  0
    9.1006  -17.6517   20.5146 C   0  0  0  0  0  0  0  0  0  0  0  0
   10.2673  -17.1388   20.5725 O   0  0  0  0  0  0  0  0  0  0  0  0
    8.1537  -17.0481   21.3795 N   0  0  0  0  0  0  0  0  0  0  0  0
    8.4424  -15.9628   22.2707 C   0  0  1  0  0  0  0  0  0  0  0  0
    7.3008  -15.0738   22.6026 C   0  0  0  0  0  0  0  0  0  0  0  0
    7.5978  -13.9234   23.4546 C   0  0  0  0  0  0  0  0  0  0  0  0
    8.2036  -12.7134   23.2028 C   0  0  0  0  0  0  0  0  0  0  0  0
    8.2436  -11.9692   24.3201 N   0  0  0  0  0  0  0  0  0  0  0  0
    7.6696  -12.6659   25.3246 C   0  0  0  0  0  0  0  0  0  0  0  0
    7.4695  -12.3378   26.6475 C   0  0  0  0  0  0  0  0  0  0  0  0
    6.8512  -13.2217   27.5017 C   0  0  0  0  0  0  0  0  0  0  0  0
    6.4411  -14.4356   26.9970 C   0  0  0  0  0  0  0  0  0  0  0  0
    6.6434  -14.7592   25.6732 C   0  0  0  0  0  0  0  0  0  0  0  0
    7.2647  -13.8765   24.8065 C   0  0  0  0  0  0  0  0  0  0  0  0
    9.2112  -16.4088   23.4727 C   0  0  0  0  0  0  0  0  0  0  0  0
    8.8523  -17.4860   24.0131 O   0  0  0  0  0  0  0  0  0  0  0  0
   15.1446  -16.3079   24.5254 C   0  0  0  0  0  0  0  0  0  0  0  0
   13.7590  -16.8141   24.9121 C   0  0  2  0  0  0  0  0  0  0  0  0
   13.6605  -18.3003   24.6157 C   0  0  0  0  0  0  0  0  0  0  0  0
   12.6823  -16.0803   24.1681 C   0  0  0  0  0  0  0  0  0  0  0  0
   11.3419  -16.3835   24.7470 C   0  0  2  0  0  0  0  0  0  0  0  0
   10.2896  -15.6865   24.0025 N   0  0  0  0  0  0  0  0  0  0  0  0
   11.1842  -15.9762   26.1544 C   0  0  0  0  0  0  0  0  0  0  0  0
   11.9133  -16.4940   27.0534 O   0  0  0  0  0  0  0  0  0  0  0  0
   10.2613  -15.0259   26.5965 O   0  0  0  0  0  0  0  0  0  0  0  0
  2  1  1  1
  2  3  1  0
  4  2  1  0
  4  5  1  6
  6  4  1  0
  6  7  2  0
  8  6  1  0
  9  8  1  0
  9 10  1  1
 11 12  2  0
 11 10  1  0
 13 12  1  0
 14 19  2  0
 14 13  1  0
 15 14  1  0
 16 17  1  0
 16 15  2  0
 17 18  2  0
 18 19  1  0
 19 11  1  0
 20  9  1  0
 21 20  2  0
 23 22  1  6
 23 25  1  0
 24 23  1  0
 26 25  1  6
 26 27  1  0
 26 28  1  0
 27 20  1  0
 28 30  1  0
 29 28  2  0
M  END
$$$$
