VWL.pdb
     RDKit          3D

 30 31  0  0  1  0  0  0  0  0999 V2000
   12.8694  -19.9302   22.1379 C   0  0  0  0  0  0  0  0  0  0  0  0
   12.8516  -19.2720   20.7955 C   0  0  1  0  0  0  0  0  0  0  0  0
   13.3729  -20.1451   19.6887 C   0  0  0  0  0  0  0  0  0  0  0  0
   11.5437  -18.5977   20.4599 C   0  0  2  0  0  0  0  0  0  0  0  0
   11.7471  -17.9420   19.1671 N   0  0  0  0  0  0  0  0  0  0  0  0
   11.1136  -17.5787   21.4170 C   0  0  0  0  0  0  0  0  0  0  0  0
   11.8059  -16.5141   21.5386 O   0  0  0  0  0  0  0  0  0  0  0  0
    9.9748  -17.6342   22.2591 N   0  0  0  0  0  0  0  0  0  0  0  0
    9.6165  -16.6227   23.2099 C   0  0  1  0  0  0  0  0  0  0  0  0
    8.2556  -16.0478   23.0646 C   0  0  0  0  0  0  0  0  0  0  0  0
    8.0897  -14.6552   23.4781 C   0  0  0  0  0  0  0  0  0  0  0  0
    8.4926  -13.4654   22.9154 C   0  0  0  0  0  0  0  0  0  0  0  0
    8.0936  -12.4311   23.6735 N   0  0  0  0  0  0  0  0  0  0  0  0
    7.4241  -12.9119   24.7434 C   0  0  0  0  0  0  0  0  0  0  0  0
    6.8254  -12.2585   25.7981 C   0  0  0  0  0  0  0  0  0  0  0  0
    6.1898  -12.9685   26.7907 C   0  0  0  0  0  0  0  0  0  0  0  0
    6.1704  -14.3423   26.6979 C   0  0  0  0  0  0  0  0  0  0  0  0
    6.7706  -14.9911   25.6410 C   0  0  0  0  0  0  0  0  0  0  0  0
    7.4125  -14.2855   24.6380 C   0  0  0  0  0  0  0  0  0  0  0  0
    9.9391  -17.0270   24.6125 C   0  0  0  0  0  0  0  0  0  0  0  0
    9.8581  -18.2514   24.8871 O   0  0  0  0  0  0  0  0  0  0  0  0
    9.6735  -13.7514   26.7742 C   0  0  0  0  0  0  0  0  0  0  0  0
    9.9718  -14.6340   27.9815 C   0  0  2  0  0  0  0  0  0  0  0  0
   10.1425  -13.7655   29.2155 C   0  0  0  0  0  0  0  0  0  0  0  0
   11.2110  -15.4522   27.7669 C   0  0  0  0  0  0  0  0  0  0  0  0
   10.9369  -16.5909   26.8438 C   0  0  2  0  0  0  0  0  0  0  0  0
   10.3191  -16.1119   25.6043 N   0  0  0  0  0  0  0  0  0  0  0  0
   10.0198  -17.6063   27.3909 C   0  0  0  0  0  0  0  0  0  0  0  0
    8.8863  -17.7964   26.8551 O   0  0  0  0  0  0  0  0  0  0  0  0
   10.3100  -18.4109   28.4947 O   0  0  0  0  0  0  0  0  0  0  0  0
  2  1  1  1
  2  3  1  0
  4  2  1  0
  4  5  1  6
  6  4  1  0
  6  7  2  0
  8  6  1  0
  9  8  1  0
  9 10  1  1
 11 12  2  0
 11 10  1  0
 13 12  1  0
 14 19  2  0
 14 13  1  0
 15 14  1  0
 16 17  1  0
 16 15  2  0
 17 18  2  0
 18 19  1  0
 19 11  1  0
 20  9  1  0
 21 20  2  0
 23 22  1  6
 23 25  1  0
 24 23  1  0
 26 25  1  1
 26 27  1  0
 26 28  1  0
 27 20  1  0
 28 30  1  0
 29 28  2  0
M  END
$$$$
