VWL.pdb
     RDKit          3D

 30 31  0  0  1  0  0  0  0  0999 V2000
   13.0201  -18.6260   21.1984 C   0  0  0  0  0  0  0  0  0  0  0  0
   12.5931  -17.9520   19.9339 C   0  0  1  0  0  0  0  0  0  0  0  0
   13.2411  -18.5168   18.7009 C   0  0  0  0  0  0  0  0  0  0  0  0
   11.0990  -17.7854   19.8015 C   0  0  2  0  0  0  0  0  0  0  0  0
   10.8795  -17.1087   18.5222 N   0  0  0  0  0  0  0  0  0  0  0  0
   10.4749  -16.9777   20.8491 C   0  0  0  0  0  0  0  0  0  0  0  0
   10.7594  -15.7363   20.9240 O   0  0  0  0  0  0  0  0  0  0  0  0
    9.5554  -17.4263   21.8302 N   0  0  0  0  0  0  0  0  0  0  0  0
    8.9625  -16.5894   22.8320 C   0  0  1  0  0  0  0  0  0  0  0  0
    7.4841  -16.6612   22.9462 C   0  0  0  0  0  0  0  0  0  0  0  0
    6.8793  -15.9136   24.0476 C   0  0  0  0  0  0  0  0  0  0  0  0
    6.1684  -16.3089   25.1579 C   0  0  0  0  0  0  0  0  0  0  0  0
    5.8211  -15.2413   25.8951 N   0  0  0  0  0  0  0  0  0  0  0  0
    6.2918  -14.1280   25.2924 C   0  0  0  0  0  0  0  0  0  0  0  0
    6.1980  -12.8018   25.6530 C   0  0  0  0  0  0  0  0  0  0  0  0
    6.7653  -11.8224   24.8704 C   0  0  0  0  0  0  0  0  0  0  0  0
    7.4253  -12.2061   23.7243 C   0  0  0  0  0  0  0  0  0  0  0  0
    7.5163  -13.5338   23.3679 C   0  0  0  0  0  0  0  0  0  0  0  0
    6.9486  -14.5259   24.1487 C   0  0  0  0  0  0  0  0  0  0  0  0
    9.6617  -16.7030   24.1484 C   0  0  0  0  0  0  0  0  0  0  0  0
   10.2375  -17.7927   24.3974 O   0  0  0  0  0  0  0  0  0  0  0  0
    9.8237  -14.4769   29.8050 C   0  0  0  0  0  0  0  0  0  0  0  0
   10.6692  -15.0316   28.6635 C   0  0  2  0  0  0  0  0  0  0  0  0
   12.0405  -14.3794   28.6840 C   0  0  0  0  0  0  0  0  0  0  0  0
   10.0172  -14.7903   27.3339 C   0  0  0  0  0  0  0  0  0  0  0  0
   10.4069  -15.8473   26.3568 C   0  0  2  0  0  0  0  0  0  0  0  0
    9.6965  -15.6633   25.0883 N   0  0  0  0  0  0  0  0  0  0  0  0
   10.1050  -17.2205   26.7981 C   0  0  0  0  0  0  0  0  0  0  0  0
    8.9405  -17.6981   26.6441 O   0  0  0  0  0  0  0  0  0  0  0  0
   11.0355  -18.0744   27.3940 O   0  0  0  0  0  0  0  0  0  0  0  0
  2  1  1  1
  2  3  1  0
  4  2  1  0
  4  5  1  6
  6  4  1  0
  6  7  2  0
  8  6  1  0
  9  8  1  0
  9 10  1  1
 11 12  2  0
 11 10  1  0
 13 12  1  0
 14 19  2  0
 14 13  1  0
 15 14  1  0
 16 17  1  0
 16 15  2  0
 17 18  2  0
 18 19  1  0
 19 11  1  0
 20  9  1  0
 21 20  2  0
 23 22  1  1
 23 25  1  0
 24 23  1  0
 26 25  1  1
 26 27  1  0
 26 28  1  0
 27 20  1  0
 28 30  1  0
 29 28  2  0
M  END
$$$$
