VWL.pdb
     RDKit          3D

 30 31  0  0  1  0  0  0  0  0999 V2000
    8.6102  -12.3770   19.3708 C   0  0  0  0  0  0  0  0  0  0  0  0
    8.6254  -13.7992   18.9096 C   0  0  1  0  0  0  0  0  0  0  0  0
    8.6012  -13.9487   17.4142 C   0  0  0  0  0  0  0  0  0  0  0  0
    9.6769  -14.6502   19.5790 C   0  0  2  0  0  0  0  0  0  0  0  0
    9.4734  -16.0111   19.0797 N   0  0  0  0  0  0  0  0  0  0  0  0
    9.5972  -14.6914   21.0389 C   0  0  0  0  0  0  0  0  0  0  0  0
   10.0953  -13.7290   21.7121 O   0  0  0  0  0  0  0  0  0  0  0  0
    9.0097  -15.7127   21.8269 N   0  0  0  0  0  0  0  0  0  0  0  0
    8.6936  -15.5850   23.2194 C   0  0  1  0  0  0  0  0  0  0  0  0
    7.3056  -15.9428   23.6057 C   0  0  0  0  0  0  0  0  0  0  0  0
    6.8378  -15.4369   24.8953 C   0  0  0  0  0  0  0  0  0  0  0  0
    6.3998  -16.0688   26.0369 C   0  0  0  0  0  0  0  0  0  0  0  0
    6.0776  -15.1653   26.9769 N   0  0  0  0  0  0  0  0  0  0  0  0
    6.2947  -13.9283   26.4802 C   0  0  0  0  0  0  0  0  0  0  0  0
    6.1189  -12.6864   27.0500 C   0  0  0  0  0  0  0  0  0  0  0  0
    6.4117  -11.5439   26.3413 C   0  0  0  0  0  0  0  0  0  0  0  0
    6.8829  -11.6791   25.0544 C   0  0  0  0  0  0  0  0  0  0  0  0
    7.0571  -12.9233   24.4890 C   0  0  0  0  0  0  0  0  0  0  0  0
    6.7650  -14.0782   25.1941 C   0  0  0  0  0  0  0  0  0  0  0  0
    9.7299  -16.2151   24.0935 C   0  0  0  0  0  0  0  0  0  0  0  0
   10.4935  -17.0582   23.5576 O   0  0  0  0  0  0  0  0  0  0  0  0
   11.3404  -13.6051   26.9107 C   0  0  0  0  0  0  0  0  0  0  0  0
   10.4177  -14.5841   27.6289 C   0  0  2  0  0  0  0  0  0  0  0  0
   10.2140  -14.1303   29.0637 C   0  0  0  0  0  0  0  0  0  0  0  0
   10.9811  -15.9747   27.6163 C   0  0  0  0  0  0  0  0  0  0  0  0
   10.9262  -16.5527   26.2427 C   0  0  2  0  0  0  0  0  0  0  0  0
    9.8751  -15.9054   25.4531 N   0  0  0  0  0  0  0  0  0  0  0  0
   10.6344  -17.9966   26.2048 C   0  0  0  0  0  0  0  0  0  0  0  0
    9.5312  -18.4120   25.7373 O   0  0  0  0  0  0  0  0  0  0  0  0
   11.5104  -18.9853   26.6579 O   0  0  0  0  0  0  0  0  0  0  0  0
  2  1  1  6
  2  3  1  0
  4  2  1  0
  4  5  1  6
  6  4  1  0
  6  7  2  0
  8  6  1  0
  9  8  1  0
  9 10  1  6
 11 12  2  0
 11 10  1  0
 13 12  1  0
 14 19  2  0
 14 13  1  0
 15 14  1  0
 16 17  1  0
 16 15  2  0
 17 18  2  0
 18 19  1  0
 19 11  1  0
 20  9  1  0
 21 20  2  0
 23 22  1  1
 23 25  1  0
 24 23  1  0
 26 25  1  1
 26 27  1  0
 26 28  1  0
 27 20  1  0
 28 30  1  0
 29 28  2  0
M  END
$$$$
