VWL.pdb
     RDKit          3D

 30 31  0  0  1  0  0  0  0  0999 V2000
   13.4791  -17.6931   20.8942 C   0  0  0  0  0  0  0  0  0  0  0  0
   12.6450  -17.2130   19.7498 C   0  0  1  0  0  0  0  0  0  0  0  0
   13.1425  -17.6704   18.4073 C   0  0  0  0  0  0  0  0  0  0  0  0
   11.1624  -17.4211   19.9412 C   0  0  2  0  0  0  0  0  0  0  0  0
   10.5236  -16.9220   18.7224 N   0  0  0  0  0  0  0  0  0  0  0  0
   10.5823  -16.7052   21.0772 C   0  0  0  0  0  0  0  0  0  0  0  0
   10.8667  -15.4724   21.2409 O   0  0  0  0  0  0  0  0  0  0  0  0
    9.7074  -17.2379   22.0569 N   0  0  0  0  0  0  0  0  0  0  0  0
    9.1706  -16.4937   23.1585 C   0  0  1  0  0  0  0  0  0  0  0  0
    7.6921  -16.3659   23.1968 C   0  0  0  0  0  0  0  0  0  0  0  0
    7.1254  -15.7129   24.3759 C   0  0  0  0  0  0  0  0  0  0  0  0
    6.5381  -16.2070   25.5184 C   0  0  0  0  0  0  0  0  0  0  0  0
    6.1744  -15.2004   26.3298 N   0  0  0  0  0  0  0  0  0  0  0  0
    6.5115  -14.0304   25.7454 C   0  0  0  0  0  0  0  0  0  0  0  0
    6.3502  -12.7312   26.1741 C   0  0  0  0  0  0  0  0  0  0  0  0
    6.7786  -11.6798   25.3967 C   0  0  0  0  0  0  0  0  0  0  0  0
    7.3696  -11.9641   24.1858 C   0  0  0  0  0  0  0  0  0  0  0  0
    7.5287  -13.2652   23.7614 C   0  0  0  0  0  0  0  0  0  0  0  0
    7.1007  -14.3293   24.5365 C   0  0  0  0  0  0  0  0  0  0  0  0
    9.7599  -16.9164   24.4657 C   0  0  0  0  0  0  0  0  0  0  0  0
   10.0653  -18.1299   24.5890 O   0  0  0  0  0  0  0  0  0  0  0  0
    9.7833  -13.2028   27.2620 C   0  0  0  0  0  0  0  0  0  0  0  0
   10.0036  -14.5309   27.9783 C   0  0  2  0  0  0  0  0  0  0  0  0
   10.1533  -14.2848   29.4694 C   0  0  0  0  0  0  0  0  0  0  0  0
   11.2228  -15.2353   27.4599 C   0  0  0  0  0  0  0  0  0  0  0  0
   10.8379  -16.4253   26.6477 C   0  0  2  0  0  0  0  0  0  0  0  0
    9.9780  -16.0293   25.5291 N   0  0  0  0  0  0  0  0  0  0  0  0
   10.0892  -17.4514   27.3946 C   0  0  0  0  0  0  0  0  0  0  0  0
    8.8572  -17.6387   27.1600 O   0  0  0  0  0  0  0  0  0  0  0  0
   10.6493  -18.2695   28.3781 O   0  0  0  0  0  0  0  0  0  0  0  0
  2  1  1  1
  2  3  1  0
  4  2  1  0
  4  5  1  6
  6  4  1  0
  6  7  2  0
  8  6  1  0
  9  8  1  0
  9 10  1  1
 11 12  2  0
 11 10  1  0
 13 12  1  0
 14 19  2  0
 14 13  1  0
 15 14  1  0
 16 17  1  0
 16 15  2  0
 17 18  2  0
 18 19  1  0
 19 11  1  0
 20  9  1  0
 21 20  2  0
 23 22  1  6
 23 25  1  0
 24 23  1  0
 26 25  1  1
 26 27  1  0
 26 28  1  0
 27 20  1  0
 28 30  1  0
 29 28  2  0
M  END
$$$$
