VWL.pdb
     RDKit          3D

 30 31  0  0  1  0  0  0  0  0999 V2000
   13.4647  -18.3327   21.8460 C   0  0  0  0  0  0  0  0  0  0  0  0
   13.1174  -17.5414   20.6258 C   0  0  1  0  0  0  0  0  0  0  0  0
   13.8401  -17.9934   19.3878 C   0  0  0  0  0  0  0  0  0  0  0  0
   11.6344  -17.3535   20.4178 C   0  0  2  0  0  0  0  0  0  0  0  0
   11.4967  -16.5055   19.2326 N   0  0  0  0  0  0  0  0  0  0  0  0
   10.9365  -16.6968   21.5228 C   0  0  0  0  0  0  0  0  0  0  0  0
   11.2396  -15.4928   21.8163 O   0  0  0  0  0  0  0  0  0  0  0  0
    9.9237  -17.2597   22.3392 N   0  0  0  0  0  0  0  0  0  0  0  0
    9.2822  -16.5780   23.4252 C   0  0  1  0  0  0  0  0  0  0  0  0
    7.7987  -16.5429   23.3841 C   0  0  0  0  0  0  0  0  0  0  0  0
    7.1310  -15.9045   24.5174 C   0  0  0  0  0  0  0  0  0  0  0  0
    6.4180  -16.4108   25.5802 C   0  0  0  0  0  0  0  0  0  0  0  0
    5.9985  -15.4154   26.3783 N   0  0  0  0  0  0  0  0  0  0  0  0
    6.4225  -14.2408   25.8638 C   0  0  0  0  0  0  0  0  0  0  0  0
    6.2506  -12.9488   26.3101 C   0  0  0  0  0  0  0  0  0  0  0  0
    6.7822  -11.8904   25.6097 C   0  0  0  0  0  0  0  0  0  0  0  0
    7.4865  -12.1603   24.4576 C   0  0  0  0  0  0  0  0  0  0  0  0
    7.6557  -13.4541   24.0154 C   0  0  0  0  0  0  0  0  0  0  0  0
    7.1245  -14.5252   24.7131 C   0  0  0  0  0  0  0  0  0  0  0  0
    9.8255  -16.9962   24.7537 C   0  0  0  0  0  0  0  0  0  0  0  0
   10.3518  -18.1361   24.8226 O   0  0  0  0  0  0  0  0  0  0  0  0
   11.6276  -13.8819   26.9910 C   0  0  0  0  0  0  0  0  0  0  0  0
   10.2649  -14.2141   27.5896 C   0  0  2  0  0  0  0  0  0  0  0  0
    9.9107  -13.1841   28.6478 C   0  0  0  0  0  0  0  0  0  0  0  0
   10.2558  -15.5851   28.1991 C   0  0  0  0  0  0  0  0  0  0  0  0
   10.3873  -16.6311   27.1444 C   0  0  2  0  0  0  0  0  0  0  0  0
    9.7700  -16.1819   25.8935 N   0  0  0  0  0  0  0  0  0  0  0  0
    9.7431  -17.9133   27.4799 C   0  0  0  0  0  0  0  0  0  0  0  0
   10.1743  -18.6092   28.4482 O   0  0  0  0  0  0  0  0  0  0  0  0
    8.6502  -18.4448   26.7919 O   0  0  0  0  0  0  0  0  0  0  0  0
  2  1  1  1
  2  3  1  0
  4  2  1  0
  4  5  1  6
  6  4  1  0
  6  7  2  0
  8  6  1  0
  9  8  1  0
  9 10  1  1
 11 12  2  0
 11 10  1  0
 13 12  1  0
 14 19  2  0
 14 13  1  0
 15 14  1  0
 16 17  1  0
 16 15  2  0
 17 18  2  0
 18 19  1  0
 19 11  1  0
 20  9  1  0
 21 20  2  0
 23 22  1  1
 23 25  1  0
 24 23  1  0
 26 25  1  1
 26 27  1  0
 26 28  1  0
 27 20  1  0
 28 30  1  0
 29 28  2  0
M  END
$$$$
