VWL.pdb
     RDKit          3D

 30 31  0  0  1  0  0  0  0  0999 V2000
   13.5353  -18.1109   21.8558 C   0  0  0  0  0  0  0  0  0  0  0  0
   13.1246  -17.4372   20.5857 C   0  0  1  0  0  0  0  0  0  0  0  0
   13.8571  -17.9387   19.3728 C   0  0  0  0  0  0  0  0  0  0  0  0
   11.6304  -17.3542   20.3903 C   0  0  2  0  0  0  0  0  0  0  0  0
   11.4257  -16.5924   19.1573 N   0  0  0  0  0  0  0  0  0  0  0  0
   10.9064  -16.6736   21.4636 C   0  0  0  0  0  0  0  0  0  0  0  0
   11.1549  -15.4434   21.6928 O   0  0  0  0  0  0  0  0  0  0  0  0
    9.9230  -17.2390   22.3135 N   0  0  0  0  0  0  0  0  0  0  0  0
    9.2734  -16.5396   23.3832 C   0  0  1  0  0  0  0  0  0  0  0  0
    7.7935  -16.4573   23.3009 C   0  0  0  0  0  0  0  0  0  0  0  0
    7.1174  -15.7722   24.4016 C   0  0  0  0  0  0  0  0  0  0  0  0
    6.3908  -16.2336   25.4756 C   0  0  0  0  0  0  0  0  0  0  0  0
    5.9682  -15.2060   26.2301 N   0  0  0  0  0  0  0  0  0  0  0  0
    6.4036  -14.0543   25.6752 C   0  0  0  0  0  0  0  0  0  0  0  0
    6.2337  -12.7452   26.0693 C   0  0  0  0  0  0  0  0  0  0  0  0
    6.7779  -11.7172   25.3341 C   0  0  0  0  0  0  0  0  0  0  0  0
    7.4927  -12.0349   24.2008 C   0  0  0  0  0  0  0  0  0  0  0  0
    7.6598  -13.3457   23.8108 C   0  0  0  0  0  0  0  0  0  0  0  0
    7.1159  -14.3864   24.5437 C   0  0  0  0  0  0  0  0  0  0  0  0
    9.7658  -16.9777   24.7251 C   0  0  0  0  0  0  0  0  0  0  0  0
   10.1224  -18.1781   24.8388 O   0  0  0  0  0  0  0  0  0  0  0  0
   11.5787  -13.8573   27.1324 C   0  0  0  0  0  0  0  0  0  0  0  0
   10.2032  -14.2137   27.6861 C   0  0  2  0  0  0  0  0  0  0  0  0
    9.8487  -13.2626   28.8157 C   0  0  0  0  0  0  0  0  0  0  0  0
   10.1661  -15.6271   28.1883 C   0  0  0  0  0  0  0  0  0  0  0  0
   10.4441  -16.5867   27.0811 C   0  0  2  0  0  0  0  0  0  0  0  0
    9.8417  -16.1183   25.8301 N   0  0  0  0  0  0  0  0  0  0  0  0
    9.9128  -17.9424   27.3075 C   0  0  0  0  0  0  0  0  0  0  0  0
   10.4237  -18.6870   28.1977 O   0  0  0  0  0  0  0  0  0  0  0  0
    8.8473  -18.4956   26.5942 O   0  0  0  0  0  0  0  0  0  0  0  0
  2  1  1  1
  2  3  1  0
  4  2  1  0
  4  5  1  6
  6  4  1  0
  6  7  2  0
  8  6  1  0
  9  8  1  0
  9 10  1  1
 11 12  2  0
 11 10  1  0
 13 12  1  0
 14 19  2  0
 14 13  1  0
 15 14  1  0
 16 17  1  0
 16 15  2  0
 17 18  2  0
 18 19  1  0
 19 11  1  0
 20  9  1  0
 21 20  2  0
 23 22  1  1
 23 25  1  0
 24 23  1  0
 26 25  1  1
 26 27  1  0
 26 28  1  0
 27 20  1  0
 28 30  1  0
 29 28  2  0
M  END
$$$$
