VWL.pdb
     RDKit          3D

 30 31  0  0  1  0  0  0  0  0999 V2000
    9.2927  -20.2373   21.7523 C   0  0  0  0  0  0  0  0  0  0  0  0
    9.7322  -19.6226   20.4621 C   0  0  1  0  0  0  0  0  0  0  0  0
    9.4294  -20.4683   19.2570 C   0  0  0  0  0  0  0  0  0  0  0  0
    9.3218  -18.1794   20.2986 C   0  0  2  0  0  0  0  0  0  0  0  0
   10.0739  -17.6730   19.1494 N   0  0  0  0  0  0  0  0  0  0  0  0
    9.6214  -17.3210   21.4444 C   0  0  0  0  0  0  0  0  0  0  0  0
   10.8345  -17.0011   21.6760 O   0  0  0  0  0  0  0  0  0  0  0  0
    8.6888  -16.7805   22.3649 N   0  0  0  0  0  0  0  0  0  0  0  0
    9.0368  -15.9582   23.4866 C   0  0  1  0  0  0  0  0  0  0  0  0
    8.0590  -14.8999   23.8439 C   0  0  0  0  0  0  0  0  0  0  0  0
    8.3684  -14.1010   25.0287 C   0  0  0  0  0  0  0  0  0  0  0  0
    9.5505  -13.8162   25.6736 C   0  0  0  0  0  0  0  0  0  0  0  0
    9.3256  -13.0203   26.7319 N   0  0  0  0  0  0  0  0  0  0  0  0
    8.0016  -12.7646   26.8071 C   0  0  0  0  0  0  0  0  0  0  0  0
    7.2810  -12.0082   27.7051 C   0  0  0  0  0  0  0  0  0  0  0  0
    5.9157  -11.8889   27.5820 C   0  0  0  0  0  0  0  0  0  0  0  0
    5.2963  -12.5439   26.5410 C   0  0  0  0  0  0  0  0  0  0  0  0
    6.0214  -13.2992   25.6455 C   0  0  0  0  0  0  0  0  0  0  0  0
    7.3950  -13.4252   25.7614 C   0  0  0  0  0  0  0  0  0  0  0  0
    9.4863  -16.7665   24.6611 C   0  0  0  0  0  0  0  0  0  0  0  0
    8.6962  -17.6488   25.0835 O   0  0  0  0  0  0  0  0  0  0  0  0
   12.9824  -19.6223   25.0547 C   0  0  0  0  0  0  0  0  0  0  0  0
   13.1696  -18.1118   25.1491 C   0  0  2  0  0  0  0  0  0  0  0  0
   14.6468  -17.7757   25.0429 C   0  0  0  0  0  0  0  0  0  0  0  0
   12.6226  -17.5733   26.4384 C   0  0  0  0  0  0  0  0  0  0  0  0
   11.1361  -17.4706   26.3776 C   0  0  2  0  0  0  0  0  0  0  0  0
   10.7254  -16.5792   25.2895 N   0  0  0  0  0  0  0  0  0  0  0  0
   10.5160  -16.9331   27.6015 C   0  0  0  0  0  0  0  0  0  0  0  0
   10.6971  -17.5122   28.7151 O   0  0  0  0  0  0  0  0  0  0  0  0
    9.7147  -15.7900   27.6370 O   0  0  0  0  0  0  0  0  0  0  0  0
  2  1  1  1
  2  3  1  0
  4  2  1  0
  4  5  1  6
  6  4  1  0
  6  7  2  0
  8  6  1  0
  9  8  1  0
  9 10  1  1
 11 12  2  0
 11 10  1  0
 13 12  1  0
 14 19  2  0
 14 13  1  0
 15 14  1  0
 16 17  1  0
 16 15  2  0
 17 18  2  0
 18 19  1  0
 19 11  1  0
 20  9  1  0
 21 20  2  0
 23 22  1  1
 23 25  1  0
 24 23  1  0
 26 25  1  1
 26 27  1  0
 26 28  1  0
 27 20  1  0
 28 30  1  0
 29 28  2  0
M  END
$$$$
