VWL.pdb
     RDKit          3D

 30 31  0  0  1  0  0  0  0  0999 V2000
   10.9458  -21.1117   23.6886 C   0  0  0  0  0  0  0  0  0  0  0  0
   10.8205  -20.8618   22.2198 C   0  0  1  0  0  0  0  0  0  0  0  0
   10.9801  -22.0992   21.3816 C   0  0  0  0  0  0  0  0  0  0  0  0
    9.6187  -20.0321   21.8387 C   0  0  2  0  0  0  0  0  0  0  0  0
    9.7115  -19.8267   20.3924 N   0  0  0  0  0  0  0  0  0  0  0  0
    9.5524  -18.7169   22.4753 C   0  0  0  0  0  0  0  0  0  0  0  0
   10.3861  -17.8176   22.1235 O   0  0  0  0  0  0  0  0  0  0  0  0
    8.6366  -18.3050   23.4758 N   0  0  0  0  0  0  0  0  0  0  0  0
    8.6485  -17.0189   24.1092 C   0  0  1  0  0  0  0  0  0  0  0  0
    7.4158  -16.2068   23.9530 C   0  0  0  0  0  0  0  0  0  0  0  0
    7.5954  -14.7573   23.8856 C   0  0  0  0  0  0  0  0  0  0  0  0
    8.2707  -13.9455   23.0028 C   0  0  0  0  0  0  0  0  0  0  0  0
    8.1397  -12.6571   23.3586 N   0  0  0  0  0  0  0  0  0  0  0  0
    7.3812  -12.5914   24.4741 C   0  0  0  0  0  0  0  0  0  0  0  0
    6.9663  -11.5084   25.2175 C   0  0  0  0  0  0  0  0  0  0  0  0
    6.1846  -11.6858   26.3359 C   0  0  0  0  0  0  0  0  0  0  0  0
    5.8320  -12.9700   26.6865 C   0  0  0  0  0  0  0  0  0  0  0  0
    6.2495  -14.0499   25.9398 C   0  0  0  0  0  0  0  0  0  0  0  0
    7.0362  -13.8813   24.8134 C   0  0  0  0  0  0  0  0  0  0  0  0
    9.1326  -17.0900   25.5218 C   0  0  0  0  0  0  0  0  0  0  0  0
    8.3814  -17.6575   26.3554 O   0  0  0  0  0  0  0  0  0  0  0  0
   11.1905  -13.9193   27.7569 C   0  0  0  0  0  0  0  0  0  0  0  0
    9.8220  -14.5826   27.8698 C   0  0  2  0  0  0  0  0  0  0  0  0
    8.9808  -13.8400   28.8931 C   0  0  0  0  0  0  0  0  0  0  0  0
    9.9450  -16.0235   28.2700 C   0  0  0  0  0  0  0  0  0  0  0  0
   10.8191  -16.7627   27.3143 C   0  0  2  0  0  0  0  0  0  0  0  0
   10.3626  -16.5604   25.9366 N   0  0  0  0  0  0  0  0  0  0  0  0
   10.8484  -18.2209   27.5245 C   0  0  0  0  0  0  0  0  0  0  0  0
   11.2765  -18.6988   28.6183 O   0  0  0  0  0  0  0  0  0  0  0  0
   10.4234  -19.1575   26.5799 O   0  0  0  0  0  0  0  0  0  0  0  0
  2  1  1  1
  2  3  1  0
  4  2  1  0
  4  5  1  6
  6  4  1  0
  6  7  2  0
  8  6  1  0
  9  8  1  0
  9 10  1  1
 11 12  2  0
 11 10  1  0
 13 12  1  0
 14 19  2  0
 14 13  1  0
 15 14  1  0
 16 17  1  0
 16 15  2  0
 17 18  2  0
 18 19  1  0
 19 11  1  0
 20  9  1  0
 21 20  2  0
 23 22  1  1
 23 25  1  0
 24 23  1  0
 26 25  1  1
 26 27  1  0
 26 28  1  0
 27 20  1  0
 28 30  1  0
 29 28  2  0
M  END
$$$$
