VWL.pdb
     RDKit          3D

 30 31  0  0  1  0  0  0  0  0999 V2000
    9.9590  -21.7014   20.4061 C   0  0  0  0  0  0  0  0  0  0  0  0
   10.1700  -20.5788   21.3710 C   0  0  1  0  0  0  0  0  0  0  0  0
   11.4226  -20.7152   22.1905 C   0  0  0  0  0  0  0  0  0  0  0  0
    9.9985  -19.2076   20.7642 C   0  0  2  0  0  0  0  0  0  0  0  0
   11.1402  -19.0163   19.8683 N   0  0  0  0  0  0  0  0  0  0  0  0
    9.9934  -18.1055   21.7260 C   0  0  0  0  0  0  0  0  0  0  0  0
   11.0959  -17.5315   22.0135 O   0  0  0  0  0  0  0  0  0  0  0  0
    8.8660  -17.5778   22.4038 N   0  0  0  0  0  0  0  0  0  0  0  0
    8.9074  -16.4643   23.3060 C   0  0  1  0  0  0  0  0  0  0  0  0
    7.7287  -15.5622   23.2785 C   0  0  0  0  0  0  0  0  0  0  0  0
    7.8763  -14.2773   23.9604 C   0  0  0  0  0  0  0  0  0  0  0  0
    8.7591  -13.2343   23.7948 C   0  0  0  0  0  0  0  0  0  0  0  0
    8.4891  -12.2503   24.6681 N   0  0  0  0  0  0  0  0  0  0  0  0
    7.4312  -12.6195   25.4221 C   0  0  0  0  0  0  0  0  0  0  0  0
    6.7811  -11.9620   26.4433 C   0  0  0  0  0  0  0  0  0  0  0  0
    5.7075  -12.5435   27.0778 C   0  0  0  0  0  0  0  0  0  0  0  0
    5.3055  -13.7936   26.6633 C   0  0  0  0  0  0  0  0  0  0  0  0
    5.9589  -14.4472   25.6415 C   0  0  0  0  0  0  0  0  0  0  0  0
    7.0399  -13.8703   24.9975 C   0  0  0  0  0  0  0  0  0  0  0  0
    9.3056  -16.8721   24.6880 C   0  0  0  0  0  0  0  0  0  0  0  0
    8.8986  -17.9907   25.0932 O   0  0  0  0  0  0  0  0  0  0  0  0
   10.5706  -13.3747   26.9682 C   0  0  0  0  0  0  0  0  0  0  0  0
   10.4694  -14.6157   27.8487 C   0  0  2  0  0  0  0  0  0  0  0  0
   10.6610  -14.2233   29.3031 C   0  0  0  0  0  0  0  0  0  0  0  0
   11.4943  -15.6423   27.4654 C   0  0  0  0  0  0  0  0  0  0  0  0
   10.8907  -16.6878   26.5900 C   0  0  2  0  0  0  0  0  0  0  0  0
   10.0964  -16.0713   25.5239 N   0  0  0  0  0  0  0  0  0  0  0  0
    9.9840  -17.6143   27.2907 C   0  0  0  0  0  0  0  0  0  0  0  0
   10.4070  -18.3035   28.2674 O   0  0  0  0  0  0  0  0  0  0  0  0
    8.6414  -17.8007   26.9549 O   0  0  0  0  0  0  0  0  0  0  0  0
  2  1  1  6
  2  3  1  0
  4  2  1  0
  4  5  1  6
  6  4  1  0
  6  7  2  0
  8  6  1  0
  9  8  1  0
  9 10  1  1
 11 12  2  0
 11 10  1  0
 13 12  1  0
 14 19  2  0
 14 13  1  0
 15 14  1  0
 16 17  1  0
 16 15  2  0
 17 18  2  0
 18 19  1  0
 19 11  1  0
 20  9  1  0
 21 20  2  0
 23 22  1  6
 23 25  1  0
 24 23  1  0
 26 25  1  1
 26 27  1  0
 26 28  1  0
 27 20  1  0
 28 30  1  0
 29 28  2  0
M  END
$$$$
