VWL.pdb
     RDKit          3D

 30 31  0  0  1  0  0  0  0  0999 V2000
   13.1541  -18.4621   21.0588 C   0  0  0  0  0  0  0  0  0  0  0  0
   12.5226  -17.7991   19.8767 C   0  0  1  0  0  0  0  0  0  0  0  0
   13.0301  -18.3087   18.5568 C   0  0  0  0  0  0  0  0  0  0  0  0
   11.0171  -17.7205   19.9487 C   0  0  2  0  0  0  0  0  0  0  0  0
   10.5885  -17.0464   18.7221 N   0  0  0  0  0  0  0  0  0  0  0  0
   10.4944  -16.9611   21.0842 C   0  0  0  0  0  0  0  0  0  0  0  0
   10.7267  -15.7083   21.1489 O   0  0  0  0  0  0  0  0  0  0  0  0
    9.7304  -17.4699   22.1642 N   0  0  0  0  0  0  0  0  0  0  0  0
    9.1839  -16.6705   23.2214 C   0  0  1  0  0  0  0  0  0  0  0  0
    7.7051  -16.6876   23.3504 C   0  0  0  0  0  0  0  0  0  0  0  0
    7.1441  -15.9858   24.5039 C   0  0  0  0  0  0  0  0  0  0  0  0
    6.6333  -16.4298   25.7024 C   0  0  0  0  0  0  0  0  0  0  0  0
    6.2383  -15.3905   26.4558 N   0  0  0  0  0  0  0  0  0  0  0  0
    6.4784  -14.2480   25.7767 C   0  0  0  0  0  0  0  0  0  0  0  0
    6.2522  -12.9331   26.1196 C   0  0  0  0  0  0  0  0  0  0  0  0
    6.5834  -11.9173   25.2527 C   0  0  0  0  0  0  0  0  0  0  0  0
    7.1443  -12.2530   24.0406 C   0  0  0  0  0  0  0  0  0  0  0  0
    7.3686  -13.5695   23.7022 C   0  0  0  0  0  0  0  0  0  0  0  0
    7.0385  -14.5982   24.5677 C   0  0  0  0  0  0  0  0  0  0  0  0
    9.8915  -16.8913   24.5196 C   0  0  0  0  0  0  0  0  0  0  0  0
   10.3939  -18.0282   24.7103 O   0  0  0  0  0  0  0  0  0  0  0  0
    9.4398  -12.9727   27.5784 C   0  0  0  0  0  0  0  0  0  0  0  0
    9.7884  -14.3883   28.0261 C   0  0  2  0  0  0  0  0  0  0  0  0
    9.8948  -14.4301   29.5404 C   0  0  0  0  0  0  0  0  0  0  0  0
   11.0798  -14.8507   27.4181 C   0  0  0  0  0  0  0  0  0  0  0  0
   10.8810  -16.1209   26.6624 C   0  0  2  0  0  0  0  0  0  0  0  0
   10.0111  -15.9003   25.5040 N   0  0  0  0  0  0  0  0  0  0  0  0
   10.2520  -17.1990   27.4457 C   0  0  0  0  0  0  0  0  0  0  0  0
   10.8609  -17.7064   28.4355 O   0  0  0  0  0  0  0  0  0  0  0  0
    8.9874  -17.7272   27.1774 O   0  0  0  0  0  0  0  0  0  0  0  0
  2  1  1  1
  2  3  1  0
  4  2  1  0
  4  5  1  6
  6  4  1  0
  6  7  2  0
  8  6  1  0
  9  8  1  0
  9 10  1  1
 11 12  2  0
 11 10  1  0
 13 12  1  0
 14 19  2  0
 14 13  1  0
 15 14  1  0
 16 17  1  0
 16 15  2  0
 17 18  2  0
 18 19  1  0
 19 11  1  0
 20  9  1  0
 21 20  2  0
 23 22  1  1
 23 25  1  0
 24 23  1  0
 26 25  1  1
 26 27  1  0
 26 28  1  0
 27 20  1  0
 28 30  1  0
 29 28  2  0
M  END
$$$$
