VWL.pdb
     RDKit          3D

 30 31  0  0  1  0  0  0  0  0999 V2000
    9.1829  -13.4941   17.3395 C   0  0  0  0  0  0  0  0  0  0  0  0
    9.0335  -13.4411   18.8263 C   0  0  1  0  0  0  0  0  0  0  0  0
    7.6035  -13.4106   19.2882 C   0  0  0  0  0  0  0  0  0  0  0  0
    9.8792  -14.4501   19.5644 C   0  0  2  0  0  0  0  0  0  0  0  0
    9.5119  -15.7592   19.0221 N   0  0  0  0  0  0  0  0  0  0  0  0
    9.6682  -14.4887   21.0113 C   0  0  0  0  0  0  0  0  0  0  0  0
   10.1003  -13.5232   21.7244 O   0  0  0  0  0  0  0  0  0  0  0  0
    9.0155  -15.5106   21.7453 N   0  0  0  0  0  0  0  0  0  0  0  0
    8.6701  -15.4203   23.1339 C   0  0  1  0  0  0  0  0  0  0  0  0
    7.2988  -15.8621   23.4919 C   0  0  0  0  0  0  0  0  0  0  0  0
    6.7876  -15.4139   24.7863 C   0  0  0  0  0  0  0  0  0  0  0  0
    6.2951  -16.0950   25.8763 C   0  0  0  0  0  0  0  0  0  0  0  0
    5.9493  -15.2346   26.8479 N   0  0  0  0  0  0  0  0  0  0  0  0
    6.2044  -13.9780   26.4238 C   0  0  0  0  0  0  0  0  0  0  0  0
    6.0245  -12.7636   27.0488 C   0  0  0  0  0  0  0  0  0  0  0  0
    6.3623  -11.5920   26.4111 C   0  0  0  0  0  0  0  0  0  0  0  0
    6.8822  -11.6701   25.1384 C   0  0  0  0  0  0  0  0  0  0  0  0
    7.0603  -12.8871   24.5175 C   0  0  0  0  0  0  0  0  0  0  0  0
    6.7232  -14.0709   25.1509 C   0  0  0  0  0  0  0  0  0  0  0  0
    9.7265  -16.0022   24.0172 C   0  0  0  0  0  0  0  0  0  0  0  0
   10.6261  -16.6818   23.4606 O   0  0  0  0  0  0  0  0  0  0  0  0
   11.4161  -13.5459   26.8287 C   0  0  0  0  0  0  0  0  0  0  0  0
   10.4018  -14.4105   27.5700 C   0  0  2  0  0  0  0  0  0  0  0  0
   10.2507  -13.9071   28.9948 C   0  0  0  0  0  0  0  0  0  0  0  0
   10.8214  -15.8510   27.5872 C   0  0  0  0  0  0  0  0  0  0  0  0
   10.8202  -16.4163   26.2073 C   0  0  2  0  0  0  0  0  0  0  0  0
    9.7473  -15.8197   25.4071 N   0  0  0  0  0  0  0  0  0  0  0  0
   10.6097  -17.8737   26.1504 C   0  0  0  0  0  0  0  0  0  0  0  0
   11.4815  -18.6627   26.6251 O   0  0  0  0  0  0  0  0  0  0  0  0
    9.4811  -18.4813   25.5961 O   0  0  0  0  0  0  0  0  0  0  0  0
  2  1  1  6
  2  3  1  0
  4  2  1  0
  4  5  1  6
  6  4  1  0
  6  7  2  0
  8  6  1  0
  9  8  1  0
  9 10  1  6
 11 12  2  0
 11 10  1  0
 13 12  1  0
 14 19  2  0
 14 13  1  0
 15 14  1  0
 16 17  1  0
 16 15  2  0
 17 18  2  0
 18 19  1  0
 19 11  1  0
 20  9  1  0
 21 20  2  0
 23 22  1  1
 23 25  1  0
 24 23  1  0
 26 25  1  1
 26 27  1  0
 26 28  1  0
 27 20  1  0
 28 30  1  0
 29 28  2  0
M  END
$$$$
