CVK.pdb
     RDKit          3D

 23 22  0  0  1  0  0  0  0  0999 V2000
   24.8605  -15.2029  -19.1916 N   0  0  0  0  0  0  0  0  0  0  0  0
   24.7692  -13.7973  -19.4948 C   0  0  1  0  0  0  0  0  0  0  0  0
   23.6862  -13.4752  -20.4950 C   0  0  0  0  0  0  0  0  0  0  0  0
   23.9114  -14.3821  -22.0457 S   0  0  0  0  0  0  0  0  0  0  0  0
   24.5221  -12.9814  -18.2756 C   0  0  0  0  0  0  0  0  0  0  0  0
   23.6545  -13.4187  -17.4714 O   0  0  0  0  0  0  0  0  0  0  0  0
   27.1897  -11.7855  -15.7774 C   0  0  0  0  0  0  0  0  0  0  0  0
   26.3172  -10.6315  -16.2013 C   0  0  2  0  0  0  0  0  0  0  0  0
   26.0472   -9.7741  -14.9878 C   0  0  0  0  0  0  0  0  0  0  0  0
   25.0180  -11.0600  -16.7839 C   0  0  2  0  0  0  0  0  0  0  0  0
   25.2171  -11.7715  -18.0152 N   0  0  0  0  0  0  0  0  0  0  0  0
   24.0780   -9.9268  -17.0032 C   0  0  0  0  0  0  0  0  0  0  0  0
   24.3448   -9.0794  -17.8795 O   0  0  0  0  0  0  0  0  0  0  0  0
   22.8783   -9.7415  -16.2713 N   0  0  0  0  0  0  0  0  0  0  0  0
   21.9434   -8.6675  -16.5418 C   0  0  1  0  0  0  0  0  0  0  0  0
   20.5515   -9.1820  -16.7232 C   0  0  0  0  0  0  0  0  0  0  0  0
   19.5076   -8.1659  -16.9763 C   0  0  0  0  0  0  0  0  0  0  0  0
   18.1257   -8.8130  -16.9736 C   0  0  0  0  0  0  0  0  0  0  0  0
   17.0436   -7.8478  -17.3698 C   0  0  0  0  0  0  0  0  0  0  0  0
   15.7776   -8.5400  -17.2023 N   0  0  0  0  0  0  0  0  0  0  0  0
   22.0542   -7.5626  -15.5697 C   0  0  0  0  0  0  0  0  0  0  0  0
   21.7012   -6.3930  -15.8734 O   0  0  0  0  0  0  0  0  0  0  0  0
   22.5394   -7.7119  -14.2823 O   0  0  0  0  0  0  0  0  0  0  0  0
  2  1  1  1
  3  2  1  0
  4  3  1  0
  5  2  1  0
  6  5  2  0
  8  7  1  1
  8 10  1  0
  9  8  1  0
 10 11  1  6
 10 12  1  0
 11  5  1  0
 12 14  1  0
 13 12  2  0
 14 15  1  0
 15 16  1  1
 15 21  1  0
 17 18  1  0
 17 16  1  0
 19 20  1  0
 19 18  1  0
 21 22  2  0
 21 23  1  0
M  END
$$$$
