CVK.pdb
     RDKit          3D

 23 22  0  0  1  0  0  0  0  0999 V2000
   28.9826  -21.1337  -15.1118 N   0  0  0  0  0  0  0  0  0  0  0  0
   28.1724  -20.1173  -14.4903 C   0  0  1  0  0  0  0  0  0  0  0  0
   27.6784  -19.0750  -15.4634 C   0  0  0  0  0  0  0  0  0  0  0  0
   28.6849  -17.5712  -15.4068 S   0  0  0  0  0  0  0  0  0  0  0  0
   26.9880  -20.6961  -13.8009 C   0  0  0  0  0  0  0  0  0  0  0  0
   26.4584  -21.7047  -14.3420 O   0  0  0  0  0  0  0  0  0  0  0  0
   26.5718  -20.9008   -9.7208 C   0  0  0  0  0  0  0  0  0  0  0  0
   25.3585  -20.4201  -10.4755 C   0  0  2  0  0  0  0  0  0  0  0  0
   24.1331  -21.0243   -9.8321 C   0  0  0  0  0  0  0  0  0  0  0  0
   25.3764  -20.7919  -11.9151 C   0  0  2  0  0  0  0  0  0  0  0  0
   26.4678  -20.1543  -12.5965 N   0  0  0  0  0  0  0  0  0  0  0  0
   24.0976  -20.4813  -12.6110 C   0  0  0  0  0  0  0  0  0  0  0  0
   23.8016  -19.2891  -12.8307 O   0  0  0  0  0  0  0  0  0  0  0  0
   23.1766  -21.4655  -13.0494 N   0  0  0  0  0  0  0  0  0  0  0  0
   21.9616  -21.1471  -13.7726 C   0  0  1  0  0  0  0  0  0  0  0  0
   21.7541  -22.0672  -14.9324 C   0  0  0  0  0  0  0  0  0  0  0  0
   20.5950  -21.7714  -15.8014 C   0  0  0  0  0  0  0  0  0  0  0  0
   20.4953  -22.8022  -16.9220 C   0  0  0  0  0  0  0  0  0  0  0  0
   19.3931  -22.4835  -17.8932 C   0  0  0  0  0  0  0  0  0  0  0  0
   19.3254  -23.5888  -18.8333 N   0  0  0  0  0  0  0  0  0  0  0  0
   20.7894  -21.0259  -12.8839 C   0  0  0  0  0  0  0  0  0  0  0  0
   19.7489  -20.4258  -13.2604 O   0  0  0  0  0  0  0  0  0  0  0  0
   20.7347  -21.5448  -11.6023 O   0  0  0  0  0  0  0  0  0  0  0  0
  2  1  1  6
  3  2  1  0
  4  3  1  0
  5  2  1  0
  6  5  2  0
  8  7  1  1
  8 10  1  0
  9  8  1  0
 10 11  1  6
 10 12  1  0
 11  5  1  0
 12 14  1  0
 13 12  2  0
 14 15  1  0
 15 16  1  6
 15 21  1  0
 17 18  1  0
 17 16  1  0
 19 20  1  0
 19 18  1  0
 21 22  2  0
 21 23  1  0
M  END
$$$$
