CVK.pdb
     RDKit          3D

 23 22  0  0  1  0  0  0  0  0999 V2000
   28.9569  -21.3554  -15.1916 N   0  0  0  0  0  0  0  0  0  0  0  0
   28.2136  -20.3098  -14.5357 C   0  0  1  0  0  0  0  0  0  0  0  0
   27.6175  -19.3121  -15.4983 C   0  0  0  0  0  0  0  0  0  0  0  0
   28.5088  -17.7365  -15.4718 S   0  0  0  0  0  0  0  0  0  0  0  0
   27.1095  -20.8540  -13.7002 C   0  0  0  0  0  0  0  0  0  0  0  0
   26.5185  -21.8760  -14.1438 O   0  0  0  0  0  0  0  0  0  0  0  0
   26.9027  -20.9455   -9.5649 C   0  0  0  0  0  0  0  0  0  0  0  0
   25.7089  -20.3736  -10.2863 C   0  0  2  0  0  0  0  0  0  0  0  0
   24.4610  -20.8329   -9.5705 C   0  0  0  0  0  0  0  0  0  0  0  0
   25.6263  -20.7934  -11.7105 C   0  0  2  0  0  0  0  0  0  0  0  0
   26.7279  -20.2662  -12.4658 N   0  0  0  0  0  0  0  0  0  0  0  0
   24.3419  -20.4069  -12.3561 C   0  0  0  0  0  0  0  0  0  0  0  0
   24.1698  -19.2196  -12.6995 O   0  0  0  0  0  0  0  0  0  0  0  0
   23.2819  -21.3123  -12.6126 N   0  0  0  0  0  0  0  0  0  0  0  0
   22.0427  -20.9198  -13.2536 C   0  0  1  0  0  0  0  0  0  0  0  0
   21.7408  -21.7779  -14.4400 C   0  0  0  0  0  0  0  0  0  0  0  0
   20.5207  -21.4340  -15.2012 C   0  0  0  0  0  0  0  0  0  0  0  0
   20.3245  -22.4095  -16.3579 C   0  0  0  0  0  0  0  0  0  0  0  0
   19.1162  -22.0747  -17.1871 C   0  0  0  0  0  0  0  0  0  0  0  0
   19.0427  -23.0658  -18.2465 N   0  0  0  0  0  0  0  0  0  0  0  0
   20.9243  -20.8002  -12.2979 C   0  0  0  0  0  0  0  0  0  0  0  0
   20.8701  -21.5228  -11.2686 O   0  0  0  0  0  0  0  0  0  0  0  0
   19.8733  -19.9122  -12.4458 O   0  0  0  0  0  0  0  0  0  0  0  0
  2  1  1  6
  3  2  1  0
  4  3  1  0
  5  2  1  0
  6  5  2  0
  8  7  1  1
  8 10  1  0
  9  8  1  0
 10 11  1  6
 10 12  1  0
 11  5  1  0
 12 14  1  0
 13 12  2  0
 14 15  1  0
 15 16  1  6
 15 21  1  0
 17 18  1  0
 17 16  1  0
 19 20  1  0
 19 18  1  0
 21 22  2  0
 21 23  1  0
M  END
$$$$
