CVK.pdb
     RDKit          3D

 23 22  0  0  1  0  0  0  0  0999 V2000
   16.7039  -15.8239  -14.7278 N   0  0  0  0  0  0  0  0  0  0  0  0
   16.0824  -14.5496  -14.9844 C   0  0  1  0  0  0  0  0  0  0  0  0
   14.7931  -14.3546  -14.2248 C   0  0  0  0  0  0  0  0  0  0  0  0
   13.6173  -15.6946  -14.5401 S   0  0  0  0  0  0  0  0  0  0  0  0
   16.9848  -13.4147  -14.6513 C   0  0  0  0  0  0  0  0  0  0  0  0
   17.6852  -13.5389  -13.6099 O   0  0  0  0  0  0  0  0  0  0  0  0
   19.7320  -12.0830  -16.7853 C   0  0  0  0  0  0  0  0  0  0  0  0
   18.8638  -10.9260  -16.3607 C   0  0  2  0  0  0  0  0  0  0  0  0
   19.7617   -9.7522  -16.0495 C   0  0  0  0  0  0  0  0  0  0  0  0
   18.0320  -11.2233  -15.1646 C   0  0  2  0  0  0  0  0  0  0  0  0
   17.0658  -12.2458  -15.4525 N   0  0  0  0  0  0  0  0  0  0  0  0
   17.3451  -10.0196  -14.6213 C   0  0  0  0  0  0  0  0  0  0  0  0
   16.5479   -9.3960  -15.3513 O   0  0  0  0  0  0  0  0  0  0  0  0
   17.5379   -9.5247  -13.3072 N   0  0  0  0  0  0  0  0  0  0  0  0
   16.9258   -8.3034  -12.8230 C   0  0  1  0  0  0  0  0  0  0  0  0
   16.6168   -8.3841  -11.3625 C   0  0  0  0  0  0  0  0  0  0  0  0
   15.9712   -7.1956  -10.7650 C   0  0  0  0  0  0  0  0  0  0  0  0
   15.7905   -7.3892   -9.2623 C   0  0  0  0  0  0  0  0  0  0  0  0
   15.0302   -6.2575   -8.6292 C   0  0  0  0  0  0  0  0  0  0  0  0
   14.9973   -6.5174   -7.2004 N   0  0  0  0  0  0  0  0  0  0  0  0
   17.6835   -7.0980  -13.2115 C   0  0  0  0  0  0  0  0  0  0  0  0
   18.9399   -7.0693  -13.1378 O   0  0  0  0  0  0  0  0  0  0  0  0
   17.0976   -5.9334  -13.6757 O   0  0  0  0  0  0  0  0  0  0  0  0
  2  1  1  1
  3  2  1  0
  4  3  1  0
  5  2  1  0
  6  5  2  0
  8  7  1  1
  8 10  1  0
  9  8  1  0
 10 11  1  6
 10 12  1  0
 11  5  1  0
 12 14  1  0
 13 12  2  0
 14 15  1  0
 15 16  1  1
 15 21  1  0
 17 18  1  0
 17 16  1  0
 19 20  1  0
 19 18  1  0
 21 22  2  0
 21 23  1  0
M  END
$$$$
