CVK.pdb
     RDKit          3D

 23 22  0  0  1  0  0  0  0  0999 V2000
   20.9765  -21.0156  -11.4897 N   0  0  0  0  0  0  0  0  0  0  0  0
   21.6988  -21.4297  -12.6656 C   0  0  1  0  0  0  0  0  0  0  0  0
   20.8880  -21.3103  -13.9327 C   0  0  0  0  0  0  0  0  0  0  0  0
   19.5620  -22.5410  -14.0013 S   0  0  0  0  0  0  0  0  0  0  0  0
   22.9523  -20.6500  -12.8504 C   0  0  0  0  0  0  0  0  0  0  0  0
   22.8939  -19.4185  -12.5850 O   0  0  0  0  0  0  0  0  0  0  0  0
   26.1504  -21.1997  -11.0867 C   0  0  0  0  0  0  0  0  0  0  0  0
   26.4498  -21.1432  -12.5631 C   0  0  2  0  0  0  0  0  0  0  0  0
   27.7362  -20.3757  -12.7543 C   0  0  0  0  0  0  0  0  0  0  0  0
   25.3772  -20.4856  -13.3556 C   0  0  2  0  0  0  0  0  0  0  0  0
   24.1596  -21.2449  -13.3011 N   0  0  0  0  0  0  0  0  0  0  0  0
   25.7630  -20.2532  -14.7745 C   0  0  0  0  0  0  0  0  0  0  0  0
   25.9135  -21.2351  -15.5298 O   0  0  0  0  0  0  0  0  0  0  0  0
   25.9745  -18.9692  -15.3363 N   0  0  0  0  0  0  0  0  0  0  0  0
   26.3179  -18.7609  -16.7289 C   0  0  1  0  0  0  0  0  0  0  0  0
   25.4049  -17.7716  -17.3790 C   0  0  0  0  0  0  0  0  0  0  0  0
   25.6278  -16.3515  -17.0328 C   0  0  0  0  0  0  0  0  0  0  0  0
   24.6692  -15.4581  -17.8145 C   0  0  0  0  0  0  0  0  0  0  0  0
   24.9141  -13.9973  -17.5578 C   0  0  0  0  0  0  0  0  0  0  0  0
   23.8793  -13.2643  -18.2662 N   0  0  0  0  0  0  0  0  0  0  0  0
   27.7524  -18.4716  -16.9208 C   0  0  0  0  0  0  0  0  0  0  0  0
   28.4267  -17.9065  -16.0204 O   0  0  0  0  0  0  0  0  0  0  0  0
   28.4572  -18.7866  -18.0693 O   0  0  0  0  0  0  0  0  0  0  0  0
  2  1  1  1
  3  2  1  0
  4  3  1  0
  5  2  1  0
  6  5  2  0
  8  7  1  1
  8 10  1  0
  9  8  1  0
 10 11  1  6
 10 12  1  0
 11  5  1  0
 12 14  1  0
 13 12  2  0
 14 15  1  0
 15 16  1  1
 15 21  1  0
 17 18  1  0
 17 16  1  0
 19 20  1  0
 19 18  1  0
 21 22  2  0
 21 23  1  0
M  END
$$$$
