CVK.pdb
     RDKit          3D

 23 22  0  0  1  0  0  0  0  0999 V2000
   28.9370  -20.8180  -15.2162 N   0  0  0  0  0  0  0  0  0  0  0  0
   27.9989  -19.9426  -14.5608 C   0  0  1  0  0  0  0  0  0  0  0  0
   27.2659  -19.0349  -15.5179 C   0  0  0  0  0  0  0  0  0  0  0  0
   28.3608  -17.7784  -16.2252 S   0  0  0  0  0  0  0  0  0  0  0  0
   26.9830  -20.7008  -13.7820 C   0  0  0  0  0  0  0  0  0  0  0  0
   26.6662  -21.8379  -14.2262 O   0  0  0  0  0  0  0  0  0  0  0  0
   26.6486  -20.8851   -9.6946 C   0  0  0  0  0  0  0  0  0  0  0  0
   25.3835  -20.5461  -10.4413 C   0  0  2  0  0  0  0  0  0  0  0  0
   24.2327  -21.2508   -9.7632 C   0  0  0  0  0  0  0  0  0  0  0  0
   25.4183  -20.9522  -11.8713 C   0  0  2  0  0  0  0  0  0  0  0  0
   26.3910  -20.1865  -12.5989 N   0  0  0  0  0  0  0  0  0  0  0  0
   24.0915  -20.8450  -12.5378 C   0  0  0  0  0  0  0  0  0  0  0  0
   23.6151  -19.7133  -12.7601 O   0  0  0  0  0  0  0  0  0  0  0  0
   23.3186  -21.9612  -12.9448 N   0  0  0  0  0  0  0  0  0  0  0  0
   22.0069  -21.8383  -13.5492 C   0  0  1  0  0  0  0  0  0  0  0  0
   21.5440  -23.1363  -14.1286 C   0  0  0  0  0  0  0  0  0  0  0  0
   20.2274  -23.1185  -14.8014 C   0  0  0  0  0  0  0  0  0  0  0  0
   19.8243  -24.5306  -15.2157 C   0  0  0  0  0  0  0  0  0  0  0  0
   19.5767  -25.4232  -14.0318 C   0  0  0  0  0  0  0  0  0  0  0  0
   19.2021  -26.7254  -14.5552 N   0  0  0  0  0  0  0  0  0  0  0  0
   21.0274  -21.1978  -12.6500 C   0  0  0  0  0  0  0  0  0  0  0  0
   21.0096  -21.4582  -11.4185 O   0  0  0  0  0  0  0  0  0  0  0  0
   20.0751  -20.2854  -13.0692 O   0  0  0  0  0  0  0  0  0  0  0  0
  2  1  1  6
  3  2  1  0
  4  3  1  0
  5  2  1  0
  6  5  2  0
  8  7  1  1
  8 10  1  0
  9  8  1  0
 10 11  1  6
 10 12  1  0
 11  5  1  0
 12 14  1  0
 13 12  2  0
 14 15  1  0
 15 16  1  1
 15 21  1  0
 17 18  1  0
 17 16  1  0
 19 20  1  0
 19 18  1  0
 21 22  2  0
 21 23  1  0
M  END
$$$$
