CVK.pdb
     RDKit          3D

 23 22  0  0  1  0  0  0  0  0999 V2000
   28.0633  -18.9510   -6.3482 N   0  0  0  0  0  0  0  0  0  0  0  0
   27.3521  -20.1416   -6.7389 C   0  0  1  0  0  0  0  0  0  0  0  0
   26.1777  -20.4520   -5.8434 C   0  0  0  0  0  0  0  0  0  0  0  0
   26.6870  -20.6804   -4.1212 S   0  0  0  0  0  0  0  0  0  0  0  0
   26.8500  -20.0548   -8.1366 C   0  0  0  0  0  0  0  0  0  0  0  0
   26.3449  -18.9534   -8.4864 O   0  0  0  0  0  0  0  0  0  0  0  0
   29.2933  -21.1066  -10.8135 C   0  0  0  0  0  0  0  0  0  0  0  0
   27.9249  -21.6208  -11.1823 C   0  0  2  0  0  0  0  0  0  0  0  0
   27.7310  -21.4224  -12.6667 C   0  0  0  0  0  0  0  0  0  0  0  0
   26.8235  -20.9318  -10.4589 C   0  0  2  0  0  0  0  0  0  0  0  0
   26.9274  -21.1448   -9.0426 N   0  0  0  0  0  0  0  0  0  0  0  0
   25.4728  -21.3409  -10.9322 C   0  0  0  0  0  0  0  0  0  0  0  0
   25.0431  -22.4734  -10.6320 O   0  0  0  0  0  0  0  0  0  0  0  0
   24.6258  -20.5166  -11.7146 N   0  0  0  0  0  0  0  0  0  0  0  0
   23.3509  -20.9632  -12.2398 C   0  0  1  0  0  0  0  0  0  0  0  0
   22.4338  -19.8139  -12.5100 C   0  0  0  0  0  0  0  0  0  0  0  0
   21.1181  -20.1516  -13.0941 C   0  0  0  0  0  0  0  0  0  0  0  0
   20.3176  -18.8818  -13.3681 C   0  0  0  0  0  0  0  0  0  0  0  0
   18.9804  -19.1740  -13.9894 C   0  0  0  0  0  0  0  0  0  0  0  0
   18.0246  -18.2636  -13.3830 N   0  0  0  0  0  0  0  0  0  0  0  0
   23.5013  -21.8925  -13.3765 C   0  0  0  0  0  0  0  0  0  0  0  0
   24.4889  -21.8136  -14.1531 O   0  0  0  0  0  0  0  0  0  0  0  0
   22.5994  -22.8982  -13.6768 O   0  0  0  0  0  0  0  0  0  0  0  0
  2  1  1  1
  3  2  1  0
  4  3  1  0
  5  2  1  0
  6  5  2  0
  8  7  1  1
  8 10  1  0
  9  8  1  0
 10 11  1  1
 10 12  1  0
 11  5  1  0
 12 14  1  0
 13 12  2  0
 14 15  1  0
 15 16  1  6
 15 21  1  0
 17 18  1  0
 17 16  1  0
 19 20  1  0
 19 18  1  0
 21 22  2  0
 21 23  1  0
M  END
$$$$
