CVK.pdb
     RDKit          3D

 23 22  0  0  1  0  0  0  0  0999 V2000
   21.4410  -14.1577  -19.4793 N   0  0  0  0  0  0  0  0  0  0  0  0
   21.7510  -12.7543  -19.5813 C   0  0  1  0  0  0  0  0  0  0  0  0
   21.0339  -12.0694  -20.7188 C   0  0  0  0  0  0  0  0  0  0  0  0
   21.4728  -12.7889  -22.3211 S   0  0  0  0  0  0  0  0  0  0  0  0
   21.4247  -12.0213  -18.3285 C   0  0  0  0  0  0  0  0  0  0  0  0
   20.3174  -12.2927  -17.7891 O   0  0  0  0  0  0  0  0  0  0  0  0
   23.1663  -12.2300  -15.1391 C   0  0  0  0  0  0  0  0  0  0  0  0
   23.0794  -10.7679  -15.4962 C   0  0  2  0  0  0  0  0  0  0  0  0
   22.8080   -9.9889  -14.2312 C   0  0  0  0  0  0  0  0  0  0  0  0
   22.0090  -10.4667  -16.4834 C   0  0  2  0  0  0  0  0  0  0  0  0
   22.3019  -11.0632  -17.7563 N   0  0  0  0  0  0  0  0  0  0  0  0
   21.7703   -9.0072  -16.6538 C   0  0  0  0  0  0  0  0  0  0  0  0
   22.6987   -8.2867  -17.0737 O   0  0  0  0  0  0  0  0  0  0  0  0
   20.5379   -8.3687  -16.3670 N   0  0  0  0  0  0  0  0  0  0  0  0
   20.3219   -6.9468  -16.5465 C   0  0  1  0  0  0  0  0  0  0  0  0
   18.8691   -6.6243  -16.6890 C   0  0  0  0  0  0  0  0  0  0  0  0
   18.5310   -5.1948  -16.8576 C   0  0  0  0  0  0  0  0  0  0  0  0
   17.0255   -5.0235  -17.0380 C   0  0  0  0  0  0  0  0  0  0  0  0
   16.6426   -3.5947  -17.3059 C   0  0  0  0  0  0  0  0  0  0  0  0
   15.2419   -3.5976  -17.6907 N   0  0  0  0  0  0  0  0  0  0  0  0
   21.0211   -6.1356  -15.5309 C   0  0  0  0  0  0  0  0  0  0  0  0
   21.6215   -5.0755  -15.8478 O   0  0  0  0  0  0  0  0  0  0  0  0
   21.0750   -6.4594  -14.1866 O   0  0  0  0  0  0  0  0  0  0  0  0
  2  1  1  1
  3  2  1  0
  4  3  1  0
  5  2  1  0
  6  5  2  0
  8  7  1  1
  8 10  1  0
  9  8  1  0
 10 11  1  6
 10 12  1  0
 11  5  1  0
 12 14  1  0
 13 12  2  0
 14 15  1  0
 15 16  1  1
 15 21  1  0
 17 18  1  0
 17 16  1  0
 19 20  1  0
 19 18  1  0
 21 22  2  0
 21 23  1  0
M  END
$$$$
