CVK.pdb
     RDKit          3D

 23 22  0  0  1  0  0  0  0  0999 V2000
   28.5952  -19.4039  -17.2679 N   0  0  0  0  0  0  0  0  0  0  0  0
   28.1343  -18.7337  -16.0787 C   0  0  1  0  0  0  0  0  0  0  0  0
   26.9387  -17.8461  -16.3234 C   0  0  0  0  0  0  0  0  0  0  0  0
   26.6266  -16.7377  -14.9263 S   0  0  0  0  0  0  0  0  0  0  0  0
   27.7755  -19.6965  -15.0027 C   0  0  0  0  0  0  0  0  0  0  0  0
   27.1304  -20.7210  -15.3557 O   0  0  0  0  0  0  0  0  0  0  0  0
   30.0977  -20.8680  -11.9937 C   0  0  0  0  0  0  0  0  0  0  0  0
   28.7197  -20.4731  -11.5268 C   0  0  2  0  0  0  0  0  0  0  0  0
   28.2596  -21.4862  -10.5057 C   0  0  0  0  0  0  0  0  0  0  0  0
   27.7209  -20.4139  -12.6268 C   0  0  2  0  0  0  0  0  0  0  0  0
   28.1325  -19.4885  -13.6447 N   0  0  0  0  0  0  0  0  0  0  0  0
   26.3539  -20.0651  -12.1517 C   0  0  0  0  0  0  0  0  0  0  0  0
   26.1550  -18.9384  -11.6534 O   0  0  0  0  0  0  0  0  0  0  0  0
   25.2425  -20.9414  -12.2286 N   0  0  0  0  0  0  0  0  0  0  0  0
   23.9508  -20.6352  -11.6467 C   0  0  1  0  0  0  0  0  0  0  0  0
   22.8496  -21.3839  -12.3262 C   0  0  0  0  0  0  0  0  0  0  0  0
   21.4797  -21.1149  -11.8392 C   0  0  0  0  0  0  0  0  0  0  0  0
   20.4716  -21.9863  -12.5827 C   0  0  0  0  0  0  0  0  0  0  0  0
   19.0593  -21.7328  -12.1346 C   0  0  0  0  0  0  0  0  0  0  0  0
   18.2021  -22.5925  -12.9323 N   0  0  0  0  0  0  0  0  0  0  0  0
   23.9476  -20.7642  -10.1764 C   0  0  0  0  0  0  0  0  0  0  0  0
   23.3781  -19.9074   -9.4510 O   0  0  0  0  0  0  0  0  0  0  0  0
   24.5502  -21.8043   -9.4908 O   0  0  0  0  0  0  0  0  0  0  0  0
  2  1  1  6
  3  2  1  0
  4  3  1  0
  5  2  1  0
  6  5  2  0
  8  7  1  6
  8 10  1  0
  9  8  1  0
 10 11  1  6
 10 12  1  0
 11  5  1  0
 12 14  1  0
 13 12  2  0
 14 15  1  0
 15 16  1  6
 15 21  1  0
 17 18  1  0
 17 16  1  0
 19 20  1  0
 19 18  1  0
 21 22  2  0
 21 23  1  0
M  END
$$$$
