CVK.pdb
     RDKit          3D

 23 22  0  0  1  0  0  0  0  0999 V2000
   19.6441  -14.4492  -16.9979 N   0  0  0  0  0  0  0  0  0  0  0  0
   19.9642  -13.1537  -17.5412 C   0  0  1  0  0  0  0  0  0  0  0  0
   18.9409  -12.6568  -18.5328 C   0  0  0  0  0  0  0  0  0  0  0  0
   18.8310  -13.7348  -19.9832 S   0  0  0  0  0  0  0  0  0  0  0  0
   20.1053  -12.1245  -16.4762 C   0  0  0  0  0  0  0  0  0  0  0  0
   19.2880  -12.1899  -15.5179 O   0  0  0  0  0  0  0  0  0  0  0  0
   22.9660  -11.4535  -14.2382 C   0  0  0  0  0  0  0  0  0  0  0  0
   22.5911  -10.1485  -14.8931 C   0  0  2  0  0  0  0  0  0  0  0  0
   22.6860   -9.0557  -13.8551 C   0  0  0  0  0  0  0  0  0  0  0  0
   21.2177  -10.1501  -15.4630 C   0  0  2  0  0  0  0  0  0  0  0  0
   21.1017  -11.1146  -16.5204 N   0  0  0  0  0  0  0  0  0  0  0  0
   20.7910   -8.8109  -15.9534 C   0  0  0  0  0  0  0  0  0  0  0  0
   21.4256   -8.2769  -16.8858 O   0  0  0  0  0  0  0  0  0  0  0  0
   19.6926   -8.0881  -15.4243 N   0  0  0  0  0  0  0  0  0  0  0  0
   19.2911   -6.7851  -15.9160 C   0  0  1  0  0  0  0  0  0  0  0  0
   17.8318   -6.5414  -15.7013 C   0  0  0  0  0  0  0  0  0  0  0  0
   16.9064   -7.3739  -16.4992 C   0  0  0  0  0  0  0  0  0  0  0  0
   15.4590   -7.0528  -16.1387 C   0  0  0  0  0  0  0  0  0  0  0  0
   14.4818   -7.9354  -16.8637 C   0  0  0  0  0  0  0  0  0  0  0  0
   13.1611   -7.6143  -16.3510 N   0  0  0  0  0  0  0  0  0  0  0  0
   20.1611   -5.7007  -15.4206 C   0  0  0  0  0  0  0  0  0  0  0  0
   20.5881   -5.7008  -14.2364 O   0  0  0  0  0  0  0  0  0  0  0  0
   20.5695   -4.6254  -16.1899 O   0  0  0  0  0  0  0  0  0  0  0  0
  2  1  1  1
  3  2  1  0
  4  3  1  0
  5  2  1  0
  6  5  2  0
  8  7  1  1
  8 10  1  0
  9  8  1  0
 10 11  1  6
 10 12  1  0
 11  5  1  0
 12 14  1  0
 13 12  2  0
 14 15  1  0
 15 16  1  1
 15 21  1  0
 17 18  1  0
 17 16  1  0
 19 20  1  0
 19 18  1  0
 21 22  2  0
 21 23  1  0
M  END
$$$$
