CVK.pdb
     RDKit          3D

 23 22  0  0  1  0  0  0  0  0999 V2000
   21.8874  -18.7538  -15.1170 N   0  0  0  0  0  0  0  0  0  0  0  0
   22.0300  -17.7357  -16.1264 C   0  0  1  0  0  0  0  0  0  0  0  0
   20.7293  -17.3912  -16.8096 C   0  0  0  0  0  0  0  0  0  0  0  0
   20.1831  -18.7117  -17.9213 S   0  0  0  0  0  0  0  0  0  0  0  0
   22.6005  -16.4791  -15.5706 C   0  0  0  0  0  0  0  0  0  0  0  0
   22.1552  -16.1049  -14.4516 O   0  0  0  0  0  0  0  0  0  0  0  0
   26.3659  -15.4499  -15.1421 C   0  0  0  0  0  0  0  0  0  0  0  0
   25.5797  -14.4105  -15.8999 C   0  0  2  0  0  0  0  0  0  0  0  0
   26.0431  -13.0463  -15.4473 C   0  0  0  0  0  0  0  0  0  0  0  0
   24.1117  -14.5130  -15.6867 C   0  0  2  0  0  0  0  0  0  0  0  0
   23.5945  -15.7280  -16.2508 N   0  0  0  0  0  0  0  0  0  0  0  0
   23.3632  -13.3467  -16.2301 C   0  0  0  0  0  0  0  0  0  0  0  0
   23.3560  -13.1526  -17.4629 O   0  0  0  0  0  0  0  0  0  0  0  0
   22.6446  -12.4249  -15.4283 N   0  0  0  0  0  0  0  0  0  0  0  0
   21.9706  -11.2615  -15.9695 C   0  0  1  0  0  0  0  0  0  0  0  0
   20.4842  -11.4118  -15.9157 C   0  0  0  0  0  0  0  0  0  0  0  0
   19.6947  -10.3114  -16.5090 C   0  0  0  0  0  0  0  0  0  0  0  0
   18.2025  -10.6121  -16.4032 C   0  0  0  0  0  0  0  0  0  0  0  0
   17.3582   -9.5315  -17.0191 C   0  0  0  0  0  0  0  0  0  0  0  0
   15.9820   -9.9943  -16.9762 N   0  0  0  0  0  0  0  0  0  0  0  0
   22.4686   -9.9986  -15.3905 C   0  0  0  0  0  0  0  0  0  0  0  0
   22.3492   -8.9091  -16.0097 O   0  0  0  0  0  0  0  0  0  0  0  0
   23.0892   -9.9059  -14.1571 O   0  0  0  0  0  0  0  0  0  0  0  0
  2  1  1  1
  3  2  1  0
  4  3  1  0
  5  2  1  0
  6  5  2  0
  8  7  1  1
  8 10  1  0
  9  8  1  0
 10 11  1  6
 10 12  1  0
 11  5  1  0
 12 14  1  0
 13 12  2  0
 14 15  1  0
 15 16  1  1
 15 21  1  0
 17 18  1  0
 17 16  1  0
 19 20  1  0
 19 18  1  0
 21 22  2  0
 21 23  1  0
M  END
$$$$
