CVK.pdb
     RDKit          3D

 23 22  0  0  1  0  0  0  0  0999 V2000
   24.6761  -15.5338  -18.9092 N   0  0  0  0  0  0  0  0  0  0  0  0
   24.6736  -14.1173  -19.1727 C   0  0  1  0  0  0  0  0  0  0  0  0
   23.6575  -13.7087  -20.2110 C   0  0  0  0  0  0  0  0  0  0  0  0
   23.9571  -14.5206  -21.8012 S   0  0  0  0  0  0  0  0  0  0  0  0
   24.4124  -13.3242  -17.9414 C   0  0  0  0  0  0  0  0  0  0  0  0
   23.5952  -13.8169  -17.1167 O   0  0  0  0  0  0  0  0  0  0  0  0
   25.8682  -10.3290  -14.4619 C   0  0  0  0  0  0  0  0  0  0  0  0
   26.0626  -11.1099  -15.7367 C   0  0  2  0  0  0  0  0  0  0  0  0
   26.9967  -10.3289  -16.6301 C   0  0  0  0  0  0  0  0  0  0  0  0
   24.7945  -11.3604  -16.4717 C   0  0  2  0  0  0  0  0  0  0  0  0
   25.0410  -12.0763  -17.6918 N   0  0  0  0  0  0  0  0  0  0  0  0
   24.0365  -10.1130  -16.7638 C   0  0  0  0  0  0  0  0  0  0  0  0
   24.3859   -9.4040  -17.7295 O   0  0  0  0  0  0  0  0  0  0  0  0
   22.9243   -9.6678  -16.0063 N   0  0  0  0  0  0  0  0  0  0  0  0
   22.1590   -8.4840  -16.3438 C   0  0  1  0  0  0  0  0  0  0  0  0
   20.8541   -8.8359  -16.9829 C   0  0  0  0  0  0  0  0  0  0  0  0
   20.1016   -7.7172  -17.5900 C   0  0  0  0  0  0  0  0  0  0  0  0
   18.7417   -8.1999  -18.0859 C   0  0  0  0  0  0  0  0  0  0  0  0
   17.9410   -7.0960  -18.7183 C   0  0  0  0  0  0  0  0  0  0  0  0
   16.6392   -7.6516  -19.0447 N   0  0  0  0  0  0  0  0  0  0  0  0
   22.0400   -7.5452  -15.2113 C   0  0  0  0  0  0  0  0  0  0  0  0
   22.1291   -7.9482  -14.0220 O   0  0  0  0  0  0  0  0  0  0  0  0
   21.8274   -6.1853  -15.3541 O   0  0  0  0  0  0  0  0  0  0  0  0
  2  1  1  1
  3  2  1  0
  4  3  1  0
  5  2  1  0
  6  5  2  0
  8  7  1  1
  8 10  1  0
  9  8  1  0
 10 11  1  6
 10 12  1  0
 11  5  1  0
 12 14  1  0
 13 12  2  0
 14 15  1  0
 15 16  1  1
 15 21  1  0
 17 18  1  0
 17 16  1  0
 19 20  1  0
 19 18  1  0
 21 22  2  0
 21 23  1  0
M  END
$$$$
