CVK.pdb
     RDKit          3D

 23 22  0  0  1  0  0  0  0  0999 V2000
   29.8386  -30.4335  -18.0064 N   0  0  0  0  0  0  0  0  0  0  0  0
   29.8645  -31.5878  -17.1445 C   0  0  1  0  0  0  0  0  0  0  0  0
   30.8784  -31.4753  -16.0325 C   0  0  0  0  0  0  0  0  0  0  0  0
   32.5753  -31.5493  -16.6594 S   0  0  0  0  0  0  0  0  0  0  0  0
   28.5365  -31.8491  -16.5268 C   0  0  0  0  0  0  0  0  0  0  0  0
   27.8521  -30.8372  -16.2133 O   0  0  0  0  0  0  0  0  0  0  0  0
   25.5993  -33.3057  -18.0065 C   0  0  0  0  0  0  0  0  0  0  0  0
   25.8811  -34.1020  -16.7578 C   0  0  2  0  0  0  0  0  0  0  0  0
   24.5613  -34.4401  -16.1064 C   0  0  0  0  0  0  0  0  0  0  0  0
   26.7279  -33.3746  -15.7755 C   0  0  2  0  0  0  0  0  0  0  0  0
   28.0496  -33.1621  -16.2950 N   0  0  0  0  0  0  0  0  0  0  0  0
   26.8090  -34.0619  -14.4575 C   0  0  0  0  0  0  0  0  0  0  0  0
   27.0807  -35.2794  -14.4251 O   0  0  0  0  0  0  0  0  0  0  0  0
   26.5953  -33.4157  -13.2143 N   0  0  0  0  0  0  0  0  0  0  0  0
   26.4950  -34.1302  -11.9572 C   0  0  1  0  0  0  0  0  0  0  0  0
   26.2754  -33.1973  -10.8098 C   0  0  0  0  0  0  0  0  0  0  0  0
   26.1482  -33.8218   -9.4756 C   0  0  0  0  0  0  0  0  0  0  0  0
   26.0016  -32.7497   -8.3998 C   0  0  0  0  0  0  0  0  0  0  0  0
   25.7640  -33.3383   -7.0372 C   0  0  0  0  0  0  0  0  0  0  0  0
   25.5986  -32.2250   -6.1189 N   0  0  0  0  0  0  0  0  0  0  0  0
   25.5325  -35.2475  -12.0165 C   0  0  0  0  0  0  0  0  0  0  0  0
   25.8809  -36.4207  -11.7217 O   0  0  0  0  0  0  0  0  0  0  0  0
   24.2072  -35.1065  -12.3889 O   0  0  0  0  0  0  0  0  0  0  0  0
  2  1  1  1
  3  2  1  0
  4  3  1  0
  5  2  1  0
  6  5  2  0
  8  7  1  6
  8 10  1  0
  9  8  1  0
 10 11  1  6
 10 12  1  0
 11  5  1  0
 12 14  1  0
 13 12  2  0
 14 15  1  0
 15 16  1  1
 15 21  1  0
 17 18  1  0
 17 16  1  0
 19 20  1  0
 19 18  1  0
 21 22  2  0
 21 23  1  0
M  END
$$$$
