CVK.pdb
     RDKit          3D

 23 22  0  0  1  0  0  0  0  0999 V2000
   28.6419  -21.5198  -15.3725 N   0  0  0  0  0  0  0  0  0  0  0  0
   27.9065  -20.4638  -14.7244 C   0  0  1  0  0  0  0  0  0  0  0  0
   27.3269  -19.4629  -15.6937 C   0  0  0  0  0  0  0  0  0  0  0  0
   28.5986  -18.3634  -16.3659 S   0  0  0  0  0  0  0  0  0  0  0  0
   26.7918  -20.9928  -13.8932 C   0  0  0  0  0  0  0  0  0  0  0  0
   26.2278  -22.0415  -14.3088 O   0  0  0  0  0  0  0  0  0  0  0  0
   26.6730  -21.1501   -9.8328 C   0  0  0  0  0  0  0  0  0  0  0  0
   25.4490  -20.5494  -10.4759 C   0  0  2  0  0  0  0  0  0  0  0  0
   24.2338  -21.0356   -9.7225 C   0  0  0  0  0  0  0  0  0  0  0  0
   25.3005  -20.9126  -11.9102 C   0  0  2  0  0  0  0  0  0  0  0  0
   26.3717  -20.3628  -12.6926 N   0  0  0  0  0  0  0  0  0  0  0  0
   23.9919  -20.4938  -12.4828 C   0  0  0  0  0  0  0  0  0  0  0  0
   23.7735  -19.2795  -12.6701 O   0  0  0  0  0  0  0  0  0  0  0  0
   22.9582  -21.3967  -12.8367 N   0  0  0  0  0  0  0  0  0  0  0  0
   21.6801  -20.9681  -13.3693 C   0  0  1  0  0  0  0  0  0  0  0  0
   21.2489  -21.8211  -14.5189 C   0  0  0  0  0  0  0  0  0  0  0  0
   19.9239  -21.5141  -15.0989 C   0  0  0  0  0  0  0  0  0  0  0  0
   19.5910  -22.5017  -16.2134 C   0  0  0  0  0  0  0  0  0  0  0  0
   18.2783  -22.1911  -16.8767 C   0  0  0  0  0  0  0  0  0  0  0  0
   18.1500  -23.0971  -18.0049 N   0  0  0  0  0  0  0  0  0  0  0  0
   20.6543  -20.8096  -12.3202 C   0  0  0  0  0  0  0  0  0  0  0  0
   20.7136  -21.4691  -11.2495 O   0  0  0  0  0  0  0  0  0  0  0  0
   19.5741  -19.9503  -12.4193 O   0  0  0  0  0  0  0  0  0  0  0  0
  2  1  1  6
  3  2  1  0
  4  3  1  0
  5  2  1  0
  6  5  2  0
  8  7  1  1
  8 10  1  0
  9  8  1  0
 10 11  1  6
 10 12  1  0
 11  5  1  0
 12 14  1  0
 13 12  2  0
 14 15  1  0
 15 16  1  6
 15 21  1  0
 17 18  1  0
 17 16  1  0
 19 20  1  0
 19 18  1  0
 21 22  2  0
 21 23  1  0
M  END
$$$$
