CVK.pdb
     RDKit          3D

 23 22  0  0  1  0  0  0  0  0999 V2000
   24.6736  -14.2508  -20.2254 N   0  0  0  0  0  0  0  0  0  0  0  0
   24.6132  -12.8117  -20.1881 C   0  0  1  0  0  0  0  0  0  0  0  0
   23.5792  -12.2367  -21.1249 C   0  0  0  0  0  0  0  0  0  0  0  0
   24.0843  -12.3852  -22.8571 S   0  0  0  0  0  0  0  0  0  0  0  0
   24.3230  -12.3036  -18.8203 C   0  0  0  0  0  0  0  0  0  0  0  0
   23.3678  -12.8525  -18.2064 O   0  0  0  0  0  0  0  0  0  0  0  0
   25.6322   -9.9216  -14.7490 C   0  0  0  0  0  0  0  0  0  0  0  0
   25.9306  -10.5521  -16.0854 C   0  0  2  0  0  0  0  0  0  0  0  0
   26.8952   -9.6557  -16.8248 C   0  0  0  0  0  0  0  0  0  0  0  0
   24.7198  -10.7494  -16.9256 C   0  0  2  0  0  0  0  0  0  0  0  0
   25.0716  -11.2564  -18.2222 N   0  0  0  0  0  0  0  0  0  0  0  0
   23.9067   -9.5111  -17.0724 C   0  0  0  0  0  0  0  0  0  0  0  0
   24.2485   -8.6588  -17.9175 O   0  0  0  0  0  0  0  0  0  0  0  0
   22.7496   -9.2292  -16.3041 N   0  0  0  0  0  0  0  0  0  0  0  0
   22.0114   -7.9864  -16.4107 C   0  0  1  0  0  0  0  0  0  0  0  0
   20.6557   -8.2004  -17.0033 C   0  0  0  0  0  0  0  0  0  0  0  0
   19.8604   -6.9830  -17.2708 C   0  0  0  0  0  0  0  0  0  0  0  0
   18.4623   -7.3582  -17.7534 C   0  0  0  0  0  0  0  0  0  0  0  0
   17.6589   -6.1554  -18.1628 C   0  0  0  0  0  0  0  0  0  0  0  0
   16.3477   -6.6382  -18.5601 N   0  0  0  0  0  0  0  0  0  0  0  0
   22.0018   -7.2237  -15.1471 C   0  0  0  0  0  0  0  0  0  0  0  0
   21.8259   -5.9773  -15.1427 O   0  0  0  0  0  0  0  0  0  0  0  0
   22.1791   -7.7943  -13.8990 O   0  0  0  0  0  0  0  0  0  0  0  0
  2  1  1  1
  3  2  1  0
  4  3  1  0
  5  2  1  0
  6  5  2  0
  8  7  1  1
  8 10  1  0
  9  8  1  0
 10 11  1  6
 10 12  1  0
 11  5  1  0
 12 14  1  0
 13 12  2  0
 14 15  1  0
 15 16  1  1
 15 21  1  0
 17 18  1  0
 17 16  1  0
 19 20  1  0
 19 18  1  0
 21 22  2  0
 21 23  1  0
M  END
$$$$
