AIC.pdb
     RDKit          3D

 20 19  0  0  1  0  0  0  0  0999 V2000
    6.0665  -16.9048   21.4556 C   0  0  0  0  0  0  0  0  0  0  0  0
    6.2892  -15.4118   21.5024 C   0  0  2  0  0  0  0  0  0  0  0  0
    6.7793  -15.0091   20.1994 N   0  0  0  0  0  0  0  0  0  0  0  0
    7.3221  -15.0414   22.5043 C   0  0  0  0  0  0  0  0  0  0  0  0
    8.5505  -14.9963   22.2081 O   0  0  0  0  0  0  0  0  0  0  0  0
    5.7903  -11.5585   26.2912 C   0  0  0  0  0  0  0  0  0  0  0  0
    6.6015  -12.2582   25.1966 C   0  0  0  0  0  0  0  0  0  0  0  0
    7.2825  -13.4294   25.8259 C   0  0  2  0  0  0  0  0  0  0  0  0
    8.2157  -12.9585   26.9213 C   0  0  0  0  0  0  0  0  0  0  0  0
    7.9679  -14.3423   24.8501 C   0  0  2  0  0  0  0  0  0  0  0  0
    6.9954  -14.7167   23.8496 N   0  0  0  0  0  0  0  0  0  0  0  0
    8.5636  -15.5425   25.5072 C   0  0  0  0  0  0  0  0  0  0  0  0
    7.8522  -16.3779   26.0995 O   0  0  0  0  0  0  0  0  0  0  0  0
    9.9625  -15.7536   25.4676 N   0  0  0  0  0  0  0  0  0  0  0  0
   10.6053  -17.0256   25.4835 C   0  0  1  0  0  0  0  0  0  0  0  0
   10.2802  -17.8878   24.2930 C   0  0  0  0  0  0  0  0  0  0  0  0
    8.7507  -18.7947   24.6896 S   0  0  0  0  0  0  0  0  0  0  0  0
   12.0642  -16.8975   25.6168 C   0  0  0  0  0  0  0  0  0  0  0  0
   12.5944  -15.7438   25.5954 O   0  0  0  0  0  0  0  0  0  0  0  0
   12.8232  -18.0494   25.7629 O   0  0  0  0  0  0  0  0  0  0  0  0
  2  1  1  6
  3  2  1  0
  4 11  1  0
  4  2  1  0
  5  4  2  0
  7  8  1  0
  7  6  1  0
  8 10  1  0
  8  9  1  1
 10 12  1  0
 10 11  1  6
 12 14  1  0
 13 12  2  0
 14 15  1  0
 15 18  1  0
 15 16  1  6
 16 17  1  0
 18 19  2  0
 18 20  1  0
M  END
$$$$
