AIC.pdb
     RDKit          3D

 20 19  0  0  1  0  0  0  0  0999 V2000
    6.4668  -16.8508   21.1742 C   0  0  0  0  0  0  0  0  0  0  0  0
    6.7964  -15.3829   21.3066 C   0  0  2  0  0  0  0  0  0  0  0  0
    7.4670  -14.9812   20.0863 N   0  0  0  0  0  0  0  0  0  0  0  0
    7.7286  -15.1285   22.4353 C   0  0  0  0  0  0  0  0  0  0  0  0
    8.9829  -15.1297   22.2756 O   0  0  0  0  0  0  0  0  0  0  0  0
    6.1566  -11.7452   26.3272 C   0  0  0  0  0  0  0  0  0  0  0  0
    7.0121  -12.4580   25.2757 C   0  0  0  0  0  0  0  0  0  0  0  0
    7.4315  -13.7690   25.8561 C   0  0  2  0  0  0  0  0  0  0  0  0
    8.2293  -13.5429   27.1230 C   0  0  0  0  0  0  0  0  0  0  0  0
    8.1441  -14.6717   24.8903 C   0  0  2  0  0  0  0  0  0  0  0  0
    7.2711  -14.8696   23.7565 N   0  0  0  0  0  0  0  0  0  0  0  0
    8.5416  -15.9720   25.5056 C   0  0  0  0  0  0  0  0  0  0  0  0
    7.6933  -16.7459   25.9916 O   0  0  0  0  0  0  0  0  0  0  0  0
    9.9045  -16.3513   25.5475 N   0  0  0  0  0  0  0  0  0  0  0  0
   10.4018  -17.5849   26.0596 C   0  0  1  0  0  0  0  0  0  0  0  0
   11.6986  -18.0258   25.4349 C   0  0  0  0  0  0  0  0  0  0  0  0
   11.4303  -18.0940   23.6342 S   0  0  0  0  0  0  0  0  0  0  0  0
   10.5454  -17.5494   27.5227 C   0  0  0  0  0  0  0  0  0  0  0  0
   10.3150  -16.4677   28.1469 O   0  0  0  0  0  0  0  0  0  0  0  0
   10.9313  -18.7071   28.1822 O   0  0  0  0  0  0  0  0  0  0  0  0
  2  1  1  6
  3  2  1  0
  4 11  1  0
  4  2  1  0
  5  4  2  0
  7  8  1  0
  7  6  1  0
  8 10  1  0
  8  9  1  1
 10 12  1  0
 10 11  1  6
 12 14  1  0
 13 12  2  0
 14 15  1  0
 15 18  1  0
 15 16  1  6
 16 17  1  0
 18 19  2  0
 18 20  1  0
M  END
$$$$
