AIC.pdb
     RDKit          3D

 20 19  0  0  1  0  0  0  0  0999 V2000
    8.5547  -19.6251   18.7528 C   0  0  0  0  0  0  0  0  0  0  0  0
    8.7142  -18.3135   18.0214 C   0  0  2  0  0  0  0  0  0  0  0  0
    9.6414  -18.5394   16.9308 N   0  0  0  0  0  0  0  0  0  0  0  0
    9.2977  -17.2638   18.8962 C   0  0  0  0  0  0  0  0  0  0  0  0
   10.5468  -17.0879   18.9821 O   0  0  0  0  0  0  0  0  0  0  0  0
    6.6212  -12.6308   19.6207 C   0  0  0  0  0  0  0  0  0  0  0  0
    7.7598  -13.6291   19.3916 C   0  0  0  0  0  0  0  0  0  0  0  0
    8.0369  -14.2970   20.6988 C   0  0  2  0  0  0  0  0  0  0  0  0
    8.4347  -13.2656   21.7333 C   0  0  0  0  0  0  0  0  0  0  0  0
    9.0216  -15.4280   20.6173 C   0  0  2  0  0  0  0  0  0  0  0  0
    8.4929  -16.3974   19.6860 N   0  0  0  0  0  0  0  0  0  0  0  0
    9.2992  -16.0450   21.9475 C   0  0  0  0  0  0  0  0  0  0  0  0
    8.4216  -16.6822   22.5628 O   0  0  0  0  0  0  0  0  0  0  0  0
   10.5787  -15.9149   22.5384 N   0  0  0  0  0  0  0  0  0  0  0  0
   11.0693  -16.6978   23.6235 C   0  0  1  0  0  0  0  0  0  0  0  0
   11.0338  -18.1813   23.3699 C   0  0  0  0  0  0  0  0  0  0  0  0
   10.7040  -18.9908   24.9683 S   0  0  0  0  0  0  0  0  0  0  0  0
   12.4289  -16.2961   24.0146 C   0  0  0  0  0  0  0  0  0  0  0  0
   13.1132  -15.5654   23.2334 O   0  0  0  0  0  0  0  0  0  0  0  0
   12.9267  -16.7305   25.2343 O   0  0  0  0  0  0  0  0  0  0  0  0
  2  1  1  1
  3  2  1  0
  4 11  1  0
  4  2  1  0
  5  4  2  0
  7  8  1  0
  7  6  1  0
  8 10  1  0
  8  9  1  1
 10 12  1  0
 10 11  1  6
 12 14  1  0
 13 12  2  0
 14 15  1  0
 15 18  1  0
 15 16  1  6
 16 17  1  0
 18 19  2  0
 18 20  1  0
M  END
$$$$
