AIC.pdb
     RDKit          3D

 20 19  0  0  1  0  0  0  0  0999 V2000
    6.9619  -17.0162   21.2097 C   0  0  0  0  0  0  0  0  0  0  0  0
    7.2179  -15.5281   21.1798 C   0  0  2  0  0  0  0  0  0  0  0  0
    8.0042  -15.2509   19.9945 N   0  0  0  0  0  0  0  0  0  0  0  0
    8.0080  -15.0826   22.3566 C   0  0  0  0  0  0  0  0  0  0  0  0
    9.2723  -15.0767   22.3456 O   0  0  0  0  0  0  0  0  0  0  0  0
    7.0900  -11.4879   27.1717 C   0  0  0  0  0  0  0  0  0  0  0  0
    8.0165  -12.5730   26.6153 C   0  0  0  0  0  0  0  0  0  0  0  0
    7.3258  -13.1915   25.4440 C   0  0  2  0  0  0  0  0  0  0  0  0
    5.9546  -13.6859   25.8533 C   0  0  0  0  0  0  0  0  0  0  0  0
    8.1264  -14.2527   24.7453 C   0  0  2  0  0  0  0  0  0  0  0  0
    7.3954  -14.6381   23.5604 N   0  0  0  0  0  0  0  0  0  0  0  0
    8.4072  -15.4293   25.6193 C   0  0  0  0  0  0  0  0  0  0  0  0
    7.5013  -16.2157   25.9594 O   0  0  0  0  0  0  0  0  0  0  0  0
    9.7225  -15.6737   26.0814 N   0  0  0  0  0  0  0  0  0  0  0  0
   10.1273  -16.7958   26.8614 C   0  0  1  0  0  0  0  0  0  0  0  0
   11.4280  -17.4099   26.4169 C   0  0  0  0  0  0  0  0  0  0  0  0
   11.2952  -17.7083   24.6247 S   0  0  0  0  0  0  0  0  0  0  0  0
   10.2002  -16.4669   28.2929 C   0  0  0  0  0  0  0  0  0  0  0  0
   10.0116  -15.2686   28.6687 O   0  0  0  0  0  0  0  0  0  0  0  0
   10.4748  -17.4829   29.1964 O   0  0  0  0  0  0  0  0  0  0  0  0
  2  1  1  1
  3  2  1  0
  4 11  1  0
  4  2  1  0
  5  4  2  0
  7  8  1  0
  7  6  1  0
  8 10  1  0
  8  9  1  1
 10 12  1  0
 10 11  1  6
 12 14  1  0
 13 12  2  0
 14 15  1  0
 15 18  1  0
 15 16  1  6
 16 17  1  0
 18 19  2  0
 18 20  1  0
M  END
$$$$
