AIC.pdb
     RDKit          3D

 20 19  0  0  1  0  0  0  0  0999 V2000
    6.2727  -16.5535   21.2591 C   0  0  0  0  0  0  0  0  0  0  0  0
    6.5729  -15.0820   21.4191 C   0  0  2  0  0  0  0  0  0  0  0  0
    7.1989  -14.6350   20.1909 N   0  0  0  0  0  0  0  0  0  0  0  0
    7.5313  -14.8340   22.5271 C   0  0  0  0  0  0  0  0  0  0  0  0
    8.7819  -14.8984   22.3522 O   0  0  0  0  0  0  0  0  0  0  0  0
    6.0180  -11.4387   26.4623 C   0  0  0  0  0  0  0  0  0  0  0  0
    6.8756  -12.1270   25.3963 C   0  0  0  0  0  0  0  0  0  0  0  0
    7.3127  -13.4413   25.9559 C   0  0  2  0  0  0  0  0  0  0  0  0
    8.1447  -13.2226   27.2018 C   0  0  0  0  0  0  0  0  0  0  0  0
    7.9997  -14.3362   24.9646 C   0  0  2  0  0  0  0  0  0  0  0  0
    7.1044  -14.5109   23.8445 N   0  0  0  0  0  0  0  0  0  0  0  0
    8.3972  -15.6483   25.5543 C   0  0  0  0  0  0  0  0  0  0  0  0
    7.5496  -16.4288   26.0310 O   0  0  0  0  0  0  0  0  0  0  0  0
    9.7594  -16.0316   25.5820 N   0  0  0  0  0  0  0  0  0  0  0  0
   10.2492  -17.3062   25.9904 C   0  0  1  0  0  0  0  0  0  0  0  0
   11.3872  -17.8200   25.1493 C   0  0  0  0  0  0  0  0  0  0  0  0
   12.7036  -16.5618   25.2021 S   0  0  0  0  0  0  0  0  0  0  0  0
   10.6414  -17.3109   27.4077 C   0  0  0  0  0  0  0  0  0  0  0  0
   10.6081  -16.2269   28.0685 O   0  0  0  0  0  0  0  0  0  0  0  0
   11.0390  -18.5080   27.9846 O   0  0  0  0  0  0  0  0  0  0  0  0
  2  1  1  6
  3  2  1  0
  4 11  1  0
  4  2  1  0
  5  4  2  0
  7  8  1  0
  7  6  1  0
  8 10  1  0
  8  9  1  1
 10 12  1  0
 10 11  1  6
 12 14  1  0
 13 12  2  0
 14 15  1  0
 15 18  1  0
 15 16  1  6
 16 17  1  0
 18 19  2  0
 18 20  1  0
M  END
$$$$
