AIC.pdb
     RDKit          3D

 20 19  0  0  1  0  0  0  0  0999 V2000
    7.9408  -19.8325   19.0981 C   0  0  0  0  0  0  0  0  0  0  0  0
    7.9112  -18.4833   18.4201 C   0  0  2  0  0  0  0  0  0  0  0  0
    8.5649  -18.6333   17.1355 N   0  0  0  0  0  0  0  0  0  0  0  0
    8.6676  -17.4636   19.1920 C   0  0  0  0  0  0  0  0  0  0  0  0
    9.9217  -17.3436   19.0854 O   0  0  0  0  0  0  0  0  0  0  0  0
    6.8431  -12.4768   19.9032 C   0  0  0  0  0  0  0  0  0  0  0  0
    7.7936  -13.6583   19.6883 C   0  0  0  0  0  0  0  0  0  0  0  0
    7.9228  -14.3701   20.9953 C   0  0  2  0  0  0  0  0  0  0  0  0
    8.4223  -13.4144   22.0581 C   0  0  0  0  0  0  0  0  0  0  0  0
    8.7399  -15.6286   20.9345 C   0  0  2  0  0  0  0  0  0  0  0  0
    8.0322  -16.5652   20.0927 N   0  0  0  0  0  0  0  0  0  0  0  0
    9.0090  -16.2047   22.2846 C   0  0  0  0  0  0  0  0  0  0  0  0
    8.1012  -16.7316   22.9578 O   0  0  0  0  0  0  0  0  0  0  0  0
   10.3150  -16.1614   22.8285 N   0  0  0  0  0  0  0  0  0  0  0  0
   10.8332  -17.0642   23.8020 C   0  0  1  0  0  0  0  0  0  0  0  0
   10.7160  -18.5137   23.4126 C   0  0  0  0  0  0  0  0  0  0  0  0
   10.3353  -19.4474   24.9299 S   0  0  0  0  0  0  0  0  0  0  0  0
   12.2301  -16.7557   24.1426 C   0  0  0  0  0  0  0  0  0  0  0  0
   12.8879  -15.9512   23.4126 O   0  0  0  0  0  0  0  0  0  0  0  0
   12.7917  -17.3573   25.2592 O   0  0  0  0  0  0  0  0  0  0  0  0
  2  1  1  1
  3  2  1  0
  4 11  1  0
  4  2  1  0
  5  4  2  0
  7  8  1  0
  7  6  1  0
  8 10  1  0
  8  9  1  1
 10 12  1  0
 10 11  1  6
 12 14  1  0
 13 12  2  0
 14 15  1  0
 15 18  1  0
 15 16  1  6
 16 17  1  0
 18 19  2  0
 18 20  1  0
M  END
$$$$
