AIC.pdb
     RDKit          3D

 20 19  0  0  1  0  0  0  0  0999 V2000
    8.6969  -19.5969   18.4328 C   0  0  0  0  0  0  0  0  0  0  0  0
    8.8645  -18.2080   17.8640 C   0  0  2  0  0  0  0  0  0  0  0  0
    9.8381  -18.2962   16.7942 N   0  0  0  0  0  0  0  0  0  0  0  0
    9.3958  -17.2597   18.8770 C   0  0  0  0  0  0  0  0  0  0  0  0
   10.6342  -17.1630   19.1131 O   0  0  0  0  0  0  0  0  0  0  0  0
    6.6893  -12.6218   19.9001 C   0  0  0  0  0  0  0  0  0  0  0  0
    7.8196  -13.6151   19.6147 C   0  0  0  0  0  0  0  0  0  0  0  0
    8.0163  -14.4335   20.8488 C   0  0  2  0  0  0  0  0  0  0  0  0
    8.3342  -13.5318   22.0228 C   0  0  0  0  0  0  0  0  0  0  0  0
    9.0156  -15.5445   20.6997 C   0  0  2  0  0  0  0  0  0  0  0  0
    8.5501  -16.4074   19.6389 N   0  0  0  0  0  0  0  0  0  0  0  0
    9.2244  -16.3035   21.9677 C   0  0  0  0  0  0  0  0  0  0  0  0
    8.2641  -16.7830   22.6023 O   0  0  0  0  0  0  0  0  0  0  0  0
   10.5318  -16.4930   22.4756 N   0  0  0  0  0  0  0  0  0  0  0  0
   10.8538  -17.1468   23.7004 C   0  0  1  0  0  0  0  0  0  0  0  0
   11.3275  -18.5654   23.5281 C   0  0  0  0  0  0  0  0  0  0  0  0
   10.3258  -19.3074   22.1996 S   0  0  0  0  0  0  0  0  0  0  0  0
   11.8427  -16.3873   24.4801 C   0  0  0  0  0  0  0  0  0  0  0  0
   12.1608  -16.7861   25.6430 O   0  0  0  0  0  0  0  0  0  0  0  0
   12.4025  -15.2495   23.9178 O   0  0  0  0  0  0  0  0  0  0  0  0
  2  1  1  1
  3  2  1  0
  4 11  1  0
  4  2  1  0
  5  4  2  0
  7  8  1  0
  7  6  1  0
  8 10  1  0
  8  9  1  1
 10 12  1  0
 10 11  1  6
 12 14  1  0
 13 12  2  0
 14 15  1  0
 15 18  1  0
 15 16  1  6
 16 17  1  0
 18 19  2  0
 18 20  1  0
M  END
$$$$
