AIC.pdb
     RDKit          3D

 20 19  0  0  1  0  0  0  0  0999 V2000
    7.3260  -17.1509   21.8484 C   0  0  0  0  0  0  0  0  0  0  0  0
    7.1568  -15.6518   21.7764 C   0  0  2  0  0  0  0  0  0  0  0  0
    7.6488  -15.2254   20.4817 N   0  0  0  0  0  0  0  0  0  0  0  0
    7.9628  -14.9573   22.8135 C   0  0  0  0  0  0  0  0  0  0  0  0
    9.1800  -14.6697   22.6284 O   0  0  0  0  0  0  0  0  0  0  0  0
    5.5620  -11.4102   26.1307 C   0  0  0  0  0  0  0  0  0  0  0  0
    6.5398  -12.1027   25.1768 C   0  0  0  0  0  0  0  0  0  0  0  0
    7.2659  -13.1456   25.9621 C   0  0  2  0  0  0  0  0  0  0  0  0
    7.9661  -12.5095   27.1443 C   0  0  0  0  0  0  0  0  0  0  0  0
    8.1932  -13.9990   25.1453 C   0  0  2  0  0  0  0  0  0  0  0  0
    7.4188  -14.5754   24.0707 N   0  0  0  0  0  0  0  0  0  0  0  0
    8.8681  -15.0538   25.9573 C   0  0  0  0  0  0  0  0  0  0  0  0
    8.2246  -15.9954   26.4614 O   0  0  0  0  0  0  0  0  0  0  0  0
   10.2663  -15.0008   26.1703 N   0  0  0  0  0  0  0  0  0  0  0  0
   10.9238  -15.2809   27.4034 C   0  0  1  0  0  0  0  0  0  0  0  0
   10.3611  -14.5275   28.5791 C   0  0  0  0  0  0  0  0  0  0  0  0
   11.3246  -15.0224   30.0439 S   0  0  0  0  0  0  0  0  0  0  0  0
   10.9358  -16.7212   27.6999 C   0  0  0  0  0  0  0  0  0  0  0  0
    9.8366  -17.3529   27.7736 O   0  0  0  0  0  0  0  0  0  0  0  0
   12.1565  -17.3514   27.8916 O   0  0  0  0  0  0  0  0  0  0  0  0
  2  1  1  6
  3  2  1  0
  4 11  1  0
  4  2  1  0
  5  4  2  0
  7  8  1  0
  7  6  1  0
  8 10  1  0
  8  9  1  1
 10 12  1  0
 10 11  1  6
 12 14  1  0
 13 12  2  0
 14 15  1  0
 15 18  1  0
 15 16  1  1
 16 17  1  0
 18 19  2  0
 18 20  1  0
M  END
$$$$
