AIC.pdb
     RDKit          3D

 20 19  0  0  1  0  0  0  0  0999 V2000
    7.8095  -19.0678   17.1959 C   0  0  0  0  0  0  0  0  0  0  0  0
    8.2719  -17.6809   16.8167 C   0  0  2  0  0  0  0  0  0  0  0  0
    9.2025  -17.8242   15.7152 N   0  0  0  0  0  0  0  0  0  0  0  0
    8.9960  -17.0188   17.9325 C   0  0  0  0  0  0  0  0  0  0  0  0
   10.2393  -17.1724   18.1029 O   0  0  0  0  0  0  0  0  0  0  0  0
    6.9957  -12.2807   19.8492 C   0  0  0  0  0  0  0  0  0  0  0  0
    7.9936  -13.3171   19.3242 C   0  0  0  0  0  0  0  0  0  0  0  0
    8.1590  -14.3547   20.3861 C   0  0  2  0  0  0  0  0  0  0  0  0
    8.6518  -13.7121   21.6655 C   0  0  0  0  0  0  0  0  0  0  0  0
    9.0046  -15.5266   19.9774 C   0  0  2  0  0  0  0  0  0  0  0  0
    8.3399  -16.1766   18.8719 N   0  0  0  0  0  0  0  0  0  0  0  0
    9.2501  -16.4775   21.1011 C   0  0  0  0  0  0  0  0  0  0  0  0
    8.3115  -17.0832   21.6552 O   0  0  0  0  0  0  0  0  0  0  0  0
   10.5685  -16.7094   21.5608 N   0  0  0  0  0  0  0  0  0  0  0  0
   10.9360  -17.6391   22.5766 C   0  0  1  0  0  0  0  0  0  0  0  0
   11.7903  -18.7759   22.0824 C   0  0  0  0  0  0  0  0  0  0  0  0
   10.7734  -19.7461   20.9233 S   0  0  0  0  0  0  0  0  0  0  0  0
   11.6025  -16.9759   23.7074 C   0  0  0  0  0  0  0  0  0  0  0  0
   11.9704  -15.7658   23.5930 O   0  0  0  0  0  0  0  0  0  0  0  0
   11.8109  -17.6972   24.8737 O   0  0  0  0  0  0  0  0  0  0  0  0
  2  1  1  1
  3  2  1  0
  4 11  1  0
  4  2  1  0
  5  4  2  0
  7  8  1  0
  7  6  1  0
  8 10  1  0
  8  9  1  1
 10 12  1  0
 10 11  1  6
 12 14  1  0
 13 12  2  0
 14 15  1  0
 15 18  1  0
 15 16  1  6
 16 17  1  0
 18 19  2  0
 18 20  1  0
M  END
$$$$
