AIC.pdb
     RDKit          3D

 20 19  0  0  1  0  0  0  0  0999 V2000
   -1.9308  -27.8801   28.8764 C   0  0  0  0  0  0  0  0  0  0  0  0
   -3.4172  -27.6409   28.7568 C   0  0  2  0  0  0  0  0  0  0  0  0
   -3.7695  -27.8130   27.3617 N   0  0  0  0  0  0  0  0  0  0  0  0
   -3.7836  -26.2540   29.1442 C   0  0  0  0  0  0  0  0  0  0  0  0
   -3.5771  -25.8124   30.3108 O   0  0  0  0  0  0  0  0  0  0  0  0
   -3.7409  -20.8144   26.7631 C   0  0  0  0  0  0  0  0  0  0  0  0
   -4.4983  -21.6255   27.8185 C   0  0  0  0  0  0  0  0  0  0  0  0
   -4.1901  -23.0674   27.5785 C   0  0  2  0  0  0  0  0  0  0  0  0
   -4.5472  -23.4434   26.1560 C   0  0  0  0  0  0  0  0  0  0  0  0
   -4.7985  -24.0038   28.5827 C   0  0  2  0  0  0  0  0  0  0  0  0
   -4.3853  -25.3431   28.2330 N   0  0  0  0  0  0  0  0  0  0  0  0
   -6.2853  -23.8912   28.6461 C   0  0  0  0  0  0  0  0  0  0  0  0
   -7.0170  -24.5015   27.8418 O   0  0  0  0  0  0  0  0  0  0  0  0
   -6.8952  -23.0799   29.6325 N   0  0  0  0  0  0  0  0  0  0  0  0
   -8.2932  -23.0225   29.9041 C   0  0  1  0  0  0  0  0  0  0  0  0
   -8.7946  -24.1539   30.7614 C   0  0  0  0  0  0  0  0  0  0  0  0
   -8.8303  -25.6446   29.7147 S   0  0  0  0  0  0  0  0  0  0  0  0
   -8.6792  -21.7378   30.5067 C   0  0  0  0  0  0  0  0  0  0  0  0
   -7.7764  -20.9413   30.9109 O   0  0  0  0  0  0  0  0  0  0  0  0
  -10.0277  -21.4322   30.6164 O   0  0  0  0  0  0  0  0  0  0  0  0
  2  1  1  6
  3  2  1  0
  4 11  1  0
  4  2  1  0
  5  4  2  0
  7  8  1  0
  7  6  1  0
  8 10  1  0
  8  9  1  6
 10 12  1  0
 10 11  1  6
 12 14  1  0
 13 12  2  0
 14 15  1  0
 15 18  1  0
 15 16  1  1
 16 17  1  0
 18 19  2  0
 18 20  1  0
M  END
$$$$
