AIC.pdb
     RDKit          3D

 20 19  0  0  1  0  0  0  0  0999 V2000
    6.5329  -16.0722   20.9183 C   0  0  0  0  0  0  0  0  0  0  0  0
    6.9487  -14.6415   21.1659 C   0  0  2  0  0  0  0  0  0  0  0  0
    7.7419  -14.2213   20.0282 N   0  0  0  0  0  0  0  0  0  0  0  0
    7.8007  -14.5185   22.3769 C   0  0  0  0  0  0  0  0  0  0  0  0
    9.0618  -14.5832   22.3126 O   0  0  0  0  0  0  0  0  0  0  0  0
    5.9678  -11.4448   26.4196 C   0  0  0  0  0  0  0  0  0  0  0  0
    6.8974  -12.0705   25.3757 C   0  0  0  0  0  0  0  0  0  0  0  0
    7.2812  -13.4251   25.8751 C   0  0  2  0  0  0  0  0  0  0  0  0
    8.0083  -13.3025   27.1975 C   0  0  0  0  0  0  0  0  0  0  0  0
    8.0439  -14.2553   24.8829 C   0  0  2  0  0  0  0  0  0  0  0  0
    7.2545  -14.3218   23.6750 N   0  0  0  0  0  0  0  0  0  0  0  0
    8.3646  -15.6180   25.4001 C   0  0  0  0  0  0  0  0  0  0  0  0
    7.4642  -16.4158   25.7282 O   0  0  0  0  0  0  0  0  0  0  0  0
    9.7124  -16.0308   25.5278 N   0  0  0  0  0  0  0  0  0  0  0  0
   10.1437  -17.2997   26.0127 C   0  0  1  0  0  0  0  0  0  0  0  0
   11.3696  -17.8324   25.3200 C   0  0  0  0  0  0  0  0  0  0  0  0
   11.0086  -17.8564   23.5345 S   0  0  0  0  0  0  0  0  0  0  0  0
   10.3669  -17.2806   27.4661 C   0  0  0  0  0  0  0  0  0  0  0  0
   10.2382  -16.1898   28.1035 O   0  0  0  0  0  0  0  0  0  0  0  0
   10.7138  -18.4635   28.1021 O   0  0  0  0  0  0  0  0  0  0  0  0
  2  1  1  6
  3  2  1  0
  4 11  1  0
  4  2  1  0
  5  4  2  0
  7  8  1  0
  7  6  1  0
  8 10  1  0
  8  9  1  1
 10 12  1  0
 10 11  1  6
 12 14  1  0
 13 12  2  0
 14 15  1  0
 15 18  1  0
 15 16  1  6
 16 17  1  0
 18 19  2  0
 18 20  1  0
M  END
$$$$
