AIC.pdb
     RDKit          3D

 20 19  0  0  1  0  0  0  0  0999 V2000
    6.6500  -16.2129   20.9697 C   0  0  0  0  0  0  0  0  0  0  0  0
    7.1850  -14.8176   21.1885 C   0  0  2  0  0  0  0  0  0  0  0  0
    8.0767  -14.5213   20.0854 N   0  0  0  0  0  0  0  0  0  0  0  0
    7.9760  -14.7227   22.4427 C   0  0  0  0  0  0  0  0  0  0  0  0
    9.2234  -14.9280   22.4599 O   0  0  0  0  0  0  0  0  0  0  0  0
    6.0458  -11.5086   26.3995 C   0  0  0  0  0  0  0  0  0  0  0  0
    7.0049  -12.1606   25.3991 C   0  0  0  0  0  0  0  0  0  0  0  0
    7.3127  -13.5320   25.9053 C   0  0  2  0  0  0  0  0  0  0  0  0
    7.9700  -13.4460   27.2665 C   0  0  0  0  0  0  0  0  0  0  0  0
    8.0991  -14.3809   24.9481 C   0  0  2  0  0  0  0  0  0  0  0  0
    7.3830  -14.3972   23.6936 N   0  0  0  0  0  0  0  0  0  0  0  0
    8.3297  -15.7629   25.4619 C   0  0  0  0  0  0  0  0  0  0  0  0
    7.3973  -16.5859   25.5512 O   0  0  0  0  0  0  0  0  0  0  0  0
    9.6266  -16.1657   25.8608 N   0  0  0  0  0  0  0  0  0  0  0  0
   10.0050  -17.4931   26.2159 C   0  0  1  0  0  0  0  0  0  0  0  0
   11.0075  -18.1126   25.2789 C   0  0  0  0  0  0  0  0  0  0  0  0
   10.1955  -18.2751   23.6562 S   0  0  0  0  0  0  0  0  0  0  0  0
   10.5083  -17.5658   27.5958 C   0  0  0  0  0  0  0  0  0  0  0  0
   10.6565  -16.4959   28.2636 O   0  0  0  0  0  0  0  0  0  0  0  0
   10.8082  -18.8100   28.1306 O   0  0  0  0  0  0  0  0  0  0  0  0
  2  1  1  6
  3  2  1  0
  4 11  1  0
  4  2  1  0
  5  4  2  0
  7  8  1  0
  7  6  1  0
  8 10  1  0
  8  9  1  1
 10 12  1  0
 10 11  1  6
 12 14  1  0
 13 12  2  0
 14 15  1  0
 15 18  1  0
 15 16  1  6
 16 17  1  0
 18 19  2  0
 18 20  1  0
M  END
$$$$
