AFM.pdb
     RDKit          3D

 25 25  0  0  1  0  0  0  0  0999 V2000
    9.3928  -19.3227   20.3963 C   0  0  0  0  0  0  0  0  0  0  0  0
    9.1457  -17.9346   19.8483 C   0  0  2  0  0  0  0  0  0  0  0  0
    9.9728  -17.6258   18.7107 N   0  0  0  0  0  0  0  0  0  0  0  0
    9.3200  -16.8876   20.8905 C   0  0  0  0  0  0  0  0  0  0  0  0
   10.4671  -16.3673   21.0772 O   0  0  0  0  0  0  0  0  0  0  0  0
    8.2742  -16.4191   21.7076 N   0  0  0  0  0  0  0  0  0  0  0  0
    8.4283  -15.3837   22.7234 C   0  0  1  0  0  0  0  0  0  0  0  0
    7.0530  -14.8670   23.0183 C   0  0  0  0  0  0  0  0  0  0  0  0
    6.9753  -13.9016   24.1239 C   0  0  0  0  0  0  0  0  0  0  0  0
    6.3567  -14.1882   25.3200 C   0  0  0  0  0  0  0  0  0  0  0  0
    6.2966  -13.2594   26.3546 C   0  0  0  0  0  0  0  0  0  0  0  0
    6.8690  -12.0191   26.1844 C   0  0  0  0  0  0  0  0  0  0  0  0
    7.4854  -11.7317   24.9944 C   0  0  0  0  0  0  0  0  0  0  0  0
    7.5446  -12.6586   23.9635 C   0  0  0  0  0  0  0  0  0  0  0  0
    9.1582  -15.8796   23.8994 C   0  0  0  0  0  0  0  0  0  0  0  0
    8.6575  -16.8161   24.5716 O   0  0  0  0  0  0  0  0  0  0  0  0
   10.3436  -13.0452   30.1990 C   0  0  0  0  0  0  0  0  0  0  0  0
    9.3443  -14.2146   29.2680 S   0  0  0  0  0  0  0  0  0  0  0  0
   10.3164  -15.1694   28.1217 C   0  0  0  0  0  0  0  0  0  0  0  0
   10.0500  -14.9947   26.6841 C   0  0  0  0  0  0  0  0  0  0  0  0
   10.9489  -15.6434   25.6840 C   0  0  2  0  0  0  0  0  0  0  0  0
   10.4029  -15.3666   24.3310 N   0  0  0  0  0  0  0  0  0  0  0  0
   11.1366  -17.0748   25.8518 C   0  0  0  0  0  0  0  0  0  0  0  0
   11.5464  -17.6769   26.8736 O   0  0  0  0  0  0  0  0  0  0  0  0
   10.8347  -17.9164   24.7653 O   0  0  0  0  0  0  0  0  0  0  0  0
  2  1  1  1
  2  3  1  0
  4  2  1  0
  4  5  2  0
  6  4  1  0
  7  6  1  0
  7  8  1  1
  8  9  1  0
  9 10  2  0
  9 14  1  0
 10 11  1  0
 11 12  2  0
 13 12  1  0
 14 13  2  0
 15  7  1  0
 16 15  2  0
 18 17  1  0
 19 18  1  0
 20 19  1  0
 21 20  1  1
 21 22  1  0
 22 15  1  0
 23 21  1  0
 24 23  2  0
 25 23  1  0
M  END
$$$$
