AFM.pdb
     RDKit          3D

 25 25  0  0  1  0  0  0  0  0999 V2000
   10.2208  -19.0017   19.9372 C   0  0  0  0  0  0  0  0  0  0  0  0
   10.3326  -17.5081   19.7251 C   0  0  2  0  0  0  0  0  0  0  0  0
   11.5389  -17.1287   19.0364 N   0  0  0  0  0  0  0  0  0  0  0  0
   10.2318  -16.7569   21.0051 C   0  0  0  0  0  0  0  0  0  0  0  0
   11.2882  -16.4826   21.6612 O   0  0  0  0  0  0  0  0  0  0  0  0
    9.0144  -16.3159   21.5566 N   0  0  0  0  0  0  0  0  0  0  0  0
    8.9014  -15.5785   22.8099 C   0  0  1  0  0  0  0  0  0  0  0  0
    7.5678  -14.8953   22.7847 C   0  0  0  0  0  0  0  0  0  0  0  0
    7.2939  -14.0236   23.9358 C   0  0  0  0  0  0  0  0  0  0  0  0
    7.6283  -12.6882   23.9543 C   0  0  0  0  0  0  0  0  0  0  0  0
    7.3576  -11.8803   25.0546 C   0  0  0  0  0  0  0  0  0  0  0  0
    6.7389  -12.4243   26.1574 C   0  0  0  0  0  0  0  0  0  0  0  0
    6.4050  -13.7536   26.1412 C   0  0  0  0  0  0  0  0  0  0  0  0
    6.6756  -14.5581   25.0435 C   0  0  0  0  0  0  0  0  0  0  0  0
    9.1182  -16.4490   23.9748 C   0  0  0  0  0  0  0  0  0  0  0  0
    8.9366  -17.6861   23.8477 O   0  0  0  0  0  0  0  0  0  0  0  0
   10.1631  -12.6819   28.6293 C   0  0  0  0  0  0  0  0  0  0  0  0
   10.1333  -14.2638   29.4833 S   0  0  0  0  0  0  0  0  0  0  0  0
    9.7051  -15.6084   28.3973 C   0  0  0  0  0  0  0  0  0  0  0  0
   10.6779  -15.9890   27.3595 C   0  0  0  0  0  0  0  0  0  0  0  0
   10.2401  -16.8456   26.2178 C   0  0  2  0  0  0  0  0  0  0  0  0
    9.5229  -15.9814   25.2462 N   0  0  0  0  0  0  0  0  0  0  0  0
    9.4029  -17.9788   26.5748 C   0  0  0  0  0  0  0  0  0  0  0  0
    8.1757  -18.1211   26.3549 O   0  0  0  0  0  0  0  0  0  0  0  0
   10.0009  -19.0615   27.2457 O   0  0  0  0  0  0  0  0  0  0  0  0
  2  1  1  1
  2  3  1  0
  4  2  1  0
  4  5  2  0
  6  4  1  0
  7  6  1  0
  7  8  1  1
  8  9  1  0
  9 10  2  0
  9 14  1  0
 10 11  1  0
 11 12  2  0
 13 12  1  0
 14 13  2  0
 15  7  1  0
 16 15  2  0
 18 17  1  0
 19 18  1  0
 20 19  1  0
 21 20  1  1
 21 22  1  0
 22 15  1  0
 23 21  1  0
 24 23  2  0
 25 23  1  0
M  END
$$$$
