AFM.pdb
     RDKit          3D

 25 25  0  0  1  0  0  0  0  0999 V2000
   10.0907  -19.2721   20.1995 C   0  0  0  0  0  0  0  0  0  0  0  0
    9.7679  -17.8875   19.6830 C   0  0  2  0  0  0  0  0  0  0  0  0
   10.6399  -17.4701   18.6158 N   0  0  0  0  0  0  0  0  0  0  0  0
    9.7877  -16.8715   20.7694 C   0  0  0  0  0  0  0  0  0  0  0  0
   10.8382  -16.1797   20.9679 O   0  0  0  0  0  0  0  0  0  0  0  0
    8.6939  -16.6150   21.6171 N   0  0  0  0  0  0  0  0  0  0  0  0
    8.7258  -15.6809   22.7369 C   0  0  1  0  0  0  0  0  0  0  0  0
    7.3132  -15.2331   22.9597 C   0  0  0  0  0  0  0  0  0  0  0  0
    7.1397  -14.2243   24.0143 C   0  0  0  0  0  0  0  0  0  0  0  0
    7.5892  -12.9293   23.8866 C   0  0  0  0  0  0  0  0  0  0  0  0
    7.4123  -11.9894   24.8975 C   0  0  0  0  0  0  0  0  0  0  0  0
    6.7716  -12.3574   26.0589 C   0  0  0  0  0  0  0  0  0  0  0  0
    6.3232  -13.6461   26.1882 C   0  0  0  0  0  0  0  0  0  0  0  0
    6.5002  -14.5824   25.1796 C   0  0  0  0  0  0  0  0  0  0  0  0
    9.3719  -16.2703   23.9188 C   0  0  0  0  0  0  0  0  0  0  0  0
    9.0722  -17.4453   24.2492 O   0  0  0  0  0  0  0  0  0  0  0  0
   10.0371  -12.8935   29.1568 C   0  0  0  0  0  0  0  0  0  0  0  0
   10.5923  -14.4899   29.7700 S   0  0  0  0  0  0  0  0  0  0  0  0
   11.0250  -15.6053   28.4512 C   0  0  0  0  0  0  0  0  0  0  0  0
   10.6198  -15.2410   27.0832 C   0  0  0  0  0  0  0  0  0  0  0  0
   10.8793  -16.1900   25.9604 C   0  0  2  0  0  0  0  0  0  0  0  0
   10.3208  -15.5946   24.7199 N   0  0  0  0  0  0  0  0  0  0  0  0
   10.3467  -17.5300   26.1421 C   0  0  0  0  0  0  0  0  0  0  0  0
   10.9776  -18.5655   26.4651 O   0  0  0  0  0  0  0  0  0  0  0  0
    8.9684  -17.7300   25.9417 O   0  0  0  0  0  0  0  0  0  0  0  0
  2  1  1  1
  2  3  1  0
  4  2  1  0
  4  5  2  0
  6  4  1  0
  7  6  1  0
  7  8  1  1
  8  9  1  0
  9 10  2  0
  9 14  1  0
 10 11  1  0
 11 12  2  0
 13 12  1  0
 14 13  2  0
 15  7  1  0
 16 15  2  0
 18 17  1  0
 19 18  1  0
 20 19  1  0
 21 20  1  1
 21 22  1  0
 22 15  1  0
 23 21  1  0
 24 23  2  0
 25 23  1  0
M  END
$$$$
