AFM.pdb
     RDKit          3D

 25 25  0  0  1  0  0  0  0  0999 V2000
    9.4405  -17.7949   18.3804 C   0  0  0  0  0  0  0  0  0  0  0  0
    9.6074  -18.1171   19.8489 C   0  0  2  0  0  0  0  0  0  0  0  0
    8.6078  -19.0302   20.3393 N   0  0  0  0  0  0  0  0  0  0  0  0
    9.6164  -16.8894   20.6888 C   0  0  0  0  0  0  0  0  0  0  0  0
   10.5403  -16.0264   20.5358 O   0  0  0  0  0  0  0  0  0  0  0  0
    8.6464  -16.6079   21.6689 N   0  0  0  0  0  0  0  0  0  0  0  0
    8.7222  -15.4875   22.5996 C   0  0  1  0  0  0  0  0  0  0  0  0
    7.3399  -15.2896   23.1432 C   0  0  0  0  0  0  0  0  0  0  0  0
    7.2262  -14.2726   24.1982 C   0  0  0  0  0  0  0  0  0  0  0  0
    7.7198  -12.9952   24.0568 C   0  0  0  0  0  0  0  0  0  0  0  0
    7.5993  -12.0471   25.0683 C   0  0  0  0  0  0  0  0  0  0  0  0
    6.9709  -12.3888   26.2444 C   0  0  0  0  0  0  0  0  0  0  0  0
    6.4787  -13.6600   26.3874 C   0  0  0  0  0  0  0  0  0  0  0  0
    6.5995  -14.6045   25.3781 C   0  0  0  0  0  0  0  0  0  0  0  0
    9.7553  -15.7000   23.6240 C   0  0  0  0  0  0  0  0  0  0  0  0
   10.7287  -14.9067   23.6752 O   0  0  0  0  0  0  0  0  0  0  0  0
    9.6283  -13.0751   29.6752 C   0  0  0  0  0  0  0  0  0  0  0  0
    9.2236  -14.7194   29.0709 S   0  0  0  0  0  0  0  0  0  0  0  0
   10.2595  -15.2109   27.7085 C   0  0  0  0  0  0  0  0  0  0  0  0
    9.8704  -16.4104   26.9482 C   0  0  0  0  0  0  0  0  0  0  0  0
   10.6471  -16.7968   25.7332 C   0  0  2  0  0  0  0  0  0  0  0  0
    9.7268  -16.7516   24.5685 N   0  0  0  0  0  0  0  0  0  0  0  0
   11.2938  -18.0969   25.7950 C   0  0  0  0  0  0  0  0  0  0  0  0
   12.3189  -18.4100   26.4474 O   0  0  0  0  0  0  0  0  0  0  0  0
   10.7356  -19.1527   25.0509 O   0  0  0  0  0  0  0  0  0  0  0  0
  2  1  1  6
  2  3  1  0
  4  2  1  0
  4  5  2  0
  6  4  1  0
  7  6  1  0
  7  8  1  1
  8  9  1  0
  9 10  2  0
  9 14  1  0
 10 11  1  0
 11 12  2  0
 13 12  1  0
 14 13  2  0
 15  7  1  0
 16 15  2  0
 18 17  1  0
 19 18  1  0
 20 19  1  0
 21 20  1  1
 21 22  1  0
 22 15  1  0
 23 21  1  0
 24 23  2  0
 25 23  1  0
M  END
$$$$
