AFM.pdb
     RDKit          3D

 25 25  0  0  1  0  0  0  0  0999 V2000
   10.5371  -16.3926   18.3164 C   0  0  0  0  0  0  0  0  0  0  0  0
   10.3946  -17.2615   19.5465 C   0  0  2  0  0  0  0  0  0  0  0  0
    9.3042  -18.1968   19.4486 N   0  0  0  0  0  0  0  0  0  0  0  0
   10.2464  -16.4503   20.7846 C   0  0  0  0  0  0  0  0  0  0  0  0
   11.1485  -15.6086   21.0998 O   0  0  0  0  0  0  0  0  0  0  0  0
    9.1462  -16.5520   21.6564 N   0  0  0  0  0  0  0  0  0  0  0  0
    8.9727  -15.7405   22.8558 C   0  0  1  0  0  0  0  0  0  0  0  0
    7.5029  -15.4793   22.9857 C   0  0  0  0  0  0  0  0  0  0  0  0
    7.1222  -14.6136   24.1109 C   0  0  0  0  0  0  0  0  0  0  0  0
    7.4500  -13.2776   24.1660 C   0  0  0  0  0  0  0  0  0  0  0  0
    7.0773  -12.4756   25.2405 C   0  0  0  0  0  0  0  0  0  0  0  0
    6.3617  -13.0263   26.2795 C   0  0  0  0  0  0  0  0  0  0  0  0
    6.0342  -14.3562   26.2267 C   0  0  0  0  0  0  0  0  0  0  0  0
    6.4064  -15.1548   25.1548 C   0  0  0  0  0  0  0  0  0  0  0  0
    9.5858  -16.3721   24.0335 C   0  0  0  0  0  0  0  0  0  0  0  0
    9.4546  -17.6120   24.1920 O   0  0  0  0  0  0  0  0  0  0  0  0
   10.6928  -12.6756   29.2254 C   0  0  0  0  0  0  0  0  0  0  0  0
   11.2234  -14.2521   29.9078 S   0  0  0  0  0  0  0  0  0  0  0  0
   11.0932  -15.5768   28.7251 C   0  0  0  0  0  0  0  0  0  0  0  0
   10.8757  -15.2179   27.3136 C   0  0  0  0  0  0  0  0  0  0  0  0
   10.7470  -16.2973   26.2903 C   0  0  2  0  0  0  0  0  0  0  0  0
   10.3234  -15.6687   25.0133 N   0  0  0  0  0  0  0  0  0  0  0  0
    9.8321  -17.3736   26.6323 C   0  0  0  0  0  0  0  0  0  0  0  0
    8.5792  -17.3622   26.5628 O   0  0  0  0  0  0  0  0  0  0  0  0
   10.3757  -18.5846   27.0990 O   0  0  0  0  0  0  0  0  0  0  0  0
  2  1  1  6
  2  3  1  0
  4  2  1  0
  4  5  2  0
  6  4  1  0
  7  6  1  0
  7  8  1  1
  8  9  1  0
  9 10  2  0
  9 14  1  0
 10 11  1  0
 11 12  2  0
 13 12  1  0
 14 13  2  0
 15  7  1  0
 16 15  2  0
 18 17  1  0
 19 18  1  0
 20 19  1  0
 21 20  1  1
 21 22  1  0
 22 15  1  0
 23 21  1  0
 24 23  2  0
 25 23  1  0
M  END
$$$$
