AFM.pdb
     RDKit          3D

 25 25  0  0  1  0  0  0  0  0999 V2000
    7.8586  -13.0722   20.0752 C   0  0  0  0  0  0  0  0  0  0  0  0
    7.9546  -14.5254   20.4845 C   0  0  2  0  0  0  0  0  0  0  0  0
    6.6942  -15.2163   20.3981 N   0  0  0  0  0  0  0  0  0  0  0  0
    8.5156  -14.6803   21.8535 C   0  0  0  0  0  0  0  0  0  0  0  0
    9.7082  -14.3041   22.0934 O   0  0  0  0  0  0  0  0  0  0  0  0
    7.7982  -15.2296   22.9325 N   0  0  0  0  0  0  0  0  0  0  0  0
    8.3305  -15.3728   24.2829 C   0  0  1  0  0  0  0  0  0  0  0  0
    7.1650  -15.2489   25.2166 C   0  0  0  0  0  0  0  0  0  0  0  0
    6.9526  -13.9043   25.7709 C   0  0  0  0  0  0  0  0  0  0  0  0
    5.6995  -13.3905   26.0177 C   0  0  0  0  0  0  0  0  0  0  0  0
    5.5215  -12.1151   26.5451 C   0  0  0  0  0  0  0  0  0  0  0  0
    6.6235  -11.3410   26.8302 C   0  0  0  0  0  0  0  0  0  0  0  0
    7.8721  -11.8506   26.5854 C   0  0  0  0  0  0  0  0  0  0  0  0
    8.0483  -13.1224   26.0594 C   0  0  0  0  0  0  0  0  0  0  0  0
    9.1033  -16.6145   24.4343 C   0  0  0  0  0  0  0  0  0  0  0  0
    8.6425  -17.6771   23.9463 O   0  0  0  0  0  0  0  0  0  0  0  0
   14.8576  -17.8885   22.4943 C   0  0  0  0  0  0  0  0  0  0  0  0
   15.1299  -18.1594   24.2507 S   0  0  0  0  0  0  0  0  0  0  0  0
   13.6050  -18.3795   25.1434 C   0  0  0  0  0  0  0  0  0  0  0  0
   12.3687  -17.8704   24.5263 C   0  0  0  0  0  0  0  0  0  0  0  0
   11.0772  -17.9772   25.2674 C   0  0  2  0  0  0  0  0  0  0  0  0
   10.3472  -16.6945   25.1014 N   0  0  0  0  0  0  0  0  0  0  0  0
   11.1947  -18.2931   26.6811 C   0  0  0  0  0  0  0  0  0  0  0  0
   10.9288  -17.5480   27.6551 O   0  0  0  0  0  0  0  0  0  0  0  0
   11.6567  -19.5729   27.0397 O   0  0  0  0  0  0  0  0  0  0  0  0
  2  1  1  1
  2  3  1  0
  4  2  1  0
  4  5  2  0
  6  4  1  0
  7  6  1  0
  7  8  1  1
  8  9  1  0
  9 10  2  0
  9 14  1  0
 10 11  1  0
 11 12  2  0
 13 12  1  0
 14 13  2  0
 15  7  1  0
 16 15  2  0
 18 17  1  0
 19 18  1  0
 20 19  1  0
 21 20  1  1
 21 22  1  0
 22 15  1  0
 23 21  1  0
 24 23  2  0
 25 23  1  0
M  END
$$$$
