AFM.pdb
     RDKit          3D

 25 25  0  0  1  0  0  0  0  0999 V2000
   10.1737  -19.3647   21.3031 C   0  0  0  0  0  0  0  0  0  0  0  0
    9.6760  -18.1661   20.5260 C   0  0  2  0  0  0  0  0  0  0  0  0
   10.4612  -17.8955   19.3497 N   0  0  0  0  0  0  0  0  0  0  0  0
    9.6087  -16.9449   21.3727 C   0  0  0  0  0  0  0  0  0  0  0  0
   10.6282  -16.1883   21.4716 O   0  0  0  0  0  0  0  0  0  0  0  0
    8.4632  -16.5571   22.0924 N   0  0  0  0  0  0  0  0  0  0  0  0
    8.4230  -15.4408   23.0303 C   0  0  1  0  0  0  0  0  0  0  0  0
    6.9966  -15.3022   23.4683 C   0  0  0  0  0  0  0  0  0  0  0  0
    6.7496  -14.2422   24.4560 C   0  0  0  0  0  0  0  0  0  0  0  0
    6.1053  -14.4735   25.6505 C   0  0  0  0  0  0  0  0  0  0  0  0
    5.8838  -13.4550   26.5725 C   0  0  0  0  0  0  0  0  0  0  0  0
    6.3177  -12.1797   26.2891 C   0  0  0  0  0  0  0  0  0  0  0  0
    6.9594  -11.9472   25.1005 C   0  0  0  0  0  0  0  0  0  0  0  0
    7.1797  -12.9636   24.1819 C   0  0  0  0  0  0  0  0  0  0  0  0
    9.3834  -15.6186   24.1293 C   0  0  0  0  0  0  0  0  0  0  0  0
    9.9117  -14.5999   24.6418 O   0  0  0  0  0  0  0  0  0  0  0  0
   12.1774  -13.4374   28.7280 C   0  0  0  0  0  0  0  0  0  0  0  0
   10.5964  -14.2915   28.7871 S   0  0  0  0  0  0  0  0  0  0  0  0
   10.0676  -14.8433   27.1788 C   0  0  0  0  0  0  0  0  0  0  0  0
    9.8380  -16.2854   26.9890 C   0  0  0  0  0  0  0  0  0  0  0  0
   10.5580  -17.0090   25.8997 C   0  0  2  0  0  0  0  0  0  0  0  0
    9.7578  -16.8762   24.6557 N   0  0  0  0  0  0  0  0  0  0  0  0
   10.8295  -18.4132   26.1585 C   0  0  0  0  0  0  0  0  0  0  0  0
   10.0750  -19.3908   25.9358 O   0  0  0  0  0  0  0  0  0  0  0  0
   12.0715  -18.7566   26.7238 O   0  0  0  0  0  0  0  0  0  0  0  0
  2  1  1  1
  2  3  1  0
  4  2  1  0
  4  5  2  0
  6  4  1  0
  7  6  1  0
  7  8  1  1
  8  9  1  0
  9 10  2  0
  9 14  1  0
 10 11  1  0
 11 12  2  0
 13 12  1  0
 14 13  2  0
 15  7  1  0
 16 15  2  0
 18 17  1  0
 19 18  1  0
 20 19  1  0
 21 20  1  1
 21 22  1  0
 22 15  1  0
 23 21  1  0
 24 23  2  0
 25 23  1  0
M  END
$$$$
