AFM.pdb
     RDKit          3D

 25 25  0  0  1  0  0  0  0  0999 V2000
    9.3707  -18.5937   20.5463 C   0  0  0  0  0  0  0  0  0  0  0  0
    9.5520  -17.1135   20.2924 C   0  0  2  0  0  0  0  0  0  0  0  0
   10.6740  -16.8249   19.4373 N   0  0  0  0  0  0  0  0  0  0  0  0
    9.6800  -16.3448   21.5596 C   0  0  0  0  0  0  0  0  0  0  0  0
   10.8357  -16.0904   22.0298 O   0  0  0  0  0  0  0  0  0  0  0  0
    8.5801  -15.8658   22.2955 N   0  0  0  0  0  0  0  0  0  0  0  0
    8.6919  -15.0761   23.5166 C   0  0  1  0  0  0  0  0  0  0  0  0
    7.4134  -14.3051   23.6451 C   0  0  0  0  0  0  0  0  0  0  0  0
    7.2989  -13.4892   24.8622 C   0  0  0  0  0  0  0  0  0  0  0  0
    8.0416  -12.3480   25.0657 C   0  0  0  0  0  0  0  0  0  0  0  0
    7.9156  -11.5890   26.2252 C   0  0  0  0  0  0  0  0  0  0  0  0
    7.0265  -11.9839   27.1991 C   0  0  0  0  0  0  0  0  0  0  0  0
    6.2860  -13.1198   26.9986 C   0  0  0  0  0  0  0  0  0  0  0  0
    6.4126  -13.8758   25.8420 C   0  0  0  0  0  0  0  0  0  0  0  0
    9.0171  -15.9151   24.6794 C   0  0  0  0  0  0  0  0  0  0  0  0
    8.2886  -16.9077   24.9318 O   0  0  0  0  0  0  0  0  0  0  0  0
   14.2090  -18.5443   24.2820 C   0  0  0  0  0  0  0  0  0  0  0  0
   14.1061  -18.4756   26.0757 S   0  0  0  0  0  0  0  0  0  0  0  0
   12.4407  -18.2073   26.6457 C   0  0  0  0  0  0  0  0  0  0  0  0
   11.9241  -16.8284   26.6317 C   0  0  0  0  0  0  0  0  0  0  0  0
   10.4502  -16.5934   26.6626 C   0  0  2  0  0  0  0  0  0  0  0  0
   10.1095  -15.6771   25.5447 N   0  0  0  0  0  0  0  0  0  0  0  0
    9.9312  -16.0569   27.9097 C   0  0  0  0  0  0  0  0  0  0  0  0
    9.3712  -14.9485   28.0900 O   0  0  0  0  0  0  0  0  0  0  0  0
   10.0517  -16.8412   29.0717 O   0  0  0  0  0  0  0  0  0  0  0  0
  2  1  1  1
  2  3  1  0
  4  2  1  0
  4  5  2  0
  6  4  1  0
  7  6  1  0
  7  8  1  1
  8  9  1  0
  9 10  2  0
  9 14  1  0
 10 11  1  0
 11 12  2  0
 13 12  1  0
 14 13  2  0
 15  7  1  0
 16 15  2  0
 18 17  1  0
 19 18  1  0
 20 19  1  0
 21 20  1  1
 21 22  1  0
 22 15  1  0
 23 21  1  0
 24 23  2  0
 25 23  1  0
M  END
$$$$
