AFM.pdb
     RDKit          3D

 25 25  0  0  1  0  0  0  0  0999 V2000
   10.6636  -19.1125   20.0596 C   0  0  0  0  0  0  0  0  0  0  0  0
    9.8789  -17.9248   19.5479 C   0  0  2  0  0  0  0  0  0  0  0  0
   10.4071  -17.3918   18.3188 N   0  0  0  0  0  0  0  0  0  0  0  0
    9.7875  -16.8413   20.5629 C   0  0  0  0  0  0  0  0  0  0  0  0
   10.6654  -15.9191   20.5828 O   0  0  0  0  0  0  0  0  0  0  0  0
    8.7683  -16.7630   21.5303 N   0  0  0  0  0  0  0  0  0  0  0  0
    8.7441  -15.7929   22.6192 C   0  0  1  0  0  0  0  0  0  0  0  0
    7.3127  -15.6624   23.0431 C   0  0  0  0  0  0  0  0  0  0  0  0
    7.0582  -14.6393   24.0671 C   0  0  0  0  0  0  0  0  0  0  0  0
    6.5011  -14.9339   25.2911 C   0  0  0  0  0  0  0  0  0  0  0  0
    6.2708  -13.9493   26.2472 C   0  0  0  0  0  0  0  0  0  0  0  0
    6.6065  -12.6438   25.9683 C   0  0  0  0  0  0  0  0  0  0  0  0
    7.1613  -12.3482   24.7503 C   0  0  0  0  0  0  0  0  0  0  0  0
    7.3905  -13.3308   23.7978 C   0  0  0  0  0  0  0  0  0  0  0  0
    9.6683  -16.1653   23.7003 C   0  0  0  0  0  0  0  0  0  0  0  0
   10.8542  -16.4611   23.4073 O   0  0  0  0  0  0  0  0  0  0  0  0
   10.3840  -12.5327   28.5833 C   0  0  0  0  0  0  0  0  0  0  0  0
   11.0225  -13.9900   29.4206 S   0  0  0  0  0  0  0  0  0  0  0  0
   10.9717  -15.4384   28.3861 C   0  0  0  0  0  0  0  0  0  0  0  0
   10.2150  -15.3556   27.1256 C   0  0  0  0  0  0  0  0  0  0  0  0
   10.3002  -16.4737   26.1401 C   0  0  2  0  0  0  0  0  0  0  0  0
    9.3077  -16.2138   25.0665 N   0  0  0  0  0  0  0  0  0  0  0  0
   10.0908  -17.8036   26.6877 C   0  0  0  0  0  0  0  0  0  0  0  0
   10.8978  -18.4876   27.3627 O   0  0  0  0  0  0  0  0  0  0  0  0
    8.8525  -18.4303   26.4557 O   0  0  0  0  0  0  0  0  0  0  0  0
  2  1  1  1
  2  3  1  0
  4  2  1  0
  4  5  2  0
  6  4  1  0
  7  6  1  0
  7  8  1  1
  8  9  1  0
  9 10  2  0
  9 14  1  0
 10 11  1  0
 11 12  2  0
 13 12  1  0
 14 13  2  0
 15  7  1  0
 16 15  2  0
 18 17  1  0
 19 18  1  0
 20 19  1  0
 21 20  1  1
 21 22  1  0
 22 15  1  0
 23 21  1  0
 24 23  2  0
 25 23  1  0
M  END
$$$$
