AFM.pdb
     RDKit          3D

 25 25  0  0  1  0  0  0  0  0999 V2000
    9.7298  -19.5602   20.3130 C   0  0  0  0  0  0  0  0  0  0  0  0
    9.1844  -18.2919   19.6949 C   0  0  2  0  0  0  0  0  0  0  0  0
    9.7847  -17.9858   18.4223 N   0  0  0  0  0  0  0  0  0  0  0  0
    9.3257  -17.1250   20.6066 C   0  0  0  0  0  0  0  0  0  0  0  0
   10.3272  -16.3477   20.4867 O   0  0  0  0  0  0  0  0  0  0  0  0
    8.4022  -16.8121   21.6215 N   0  0  0  0  0  0  0  0  0  0  0  0
    8.5736  -15.7257   22.5795 C   0  0  1  0  0  0  0  0  0  0  0  0
    7.2021  -15.2033   22.8824 C   0  0  0  0  0  0  0  0  0  0  0  0
    7.1523  -14.1350   23.8905 C   0  0  0  0  0  0  0  0  0  0  0  0
    7.6104  -12.8598   23.6467 C   0  0  0  0  0  0  0  0  0  0  0  0
    7.5517  -11.8625   24.6155 C   0  0  0  0  0  0  0  0  0  0  0  0
    7.0225  -12.1518   25.8530 C   0  0  0  0  0  0  0  0  0  0  0  0
    6.5658  -13.4207   26.0979 C   0  0  0  0  0  0  0  0  0  0  0  0
    6.6250  -14.4142   25.1311 C   0  0  0  0  0  0  0  0  0  0  0  0
    9.3361  -16.1568   23.7604 C   0  0  0  0  0  0  0  0  0  0  0  0
    8.8602  -17.0626   24.4902 O   0  0  0  0  0  0  0  0  0  0  0  0
    9.8986  -14.3657   30.6933 C   0  0  0  0  0  0  0  0  0  0  0  0
    9.6830  -13.9561   28.9559 S   0  0  0  0  0  0  0  0  0  0  0  0
   10.5677  -15.0708   27.8856 C   0  0  0  0  0  0  0  0  0  0  0  0
   10.3804  -14.9210   26.4328 C   0  0  0  0  0  0  0  0  0  0  0  0
   11.1522  -15.7910   25.4967 C   0  0  2  0  0  0  0  0  0  0  0  0
   10.5862  -15.6133   24.1353 N   0  0  0  0  0  0  0  0  0  0  0  0
   11.1750  -17.2041   25.8359 C   0  0  0  0  0  0  0  0  0  0  0  0
   10.2218  -18.0184   25.7806 O   0  0  0  0  0  0  0  0  0  0  0  0
   12.3879  -17.7610   26.2817 O   0  0  0  0  0  0  0  0  0  0  0  0
  2  1  1  1
  2  3  1  0
  4  2  1  0
  4  5  2  0
  6  4  1  0
  7  6  1  0
  7  8  1  1
  8  9  1  0
  9 10  2  0
  9 14  1  0
 10 11  1  0
 11 12  2  0
 13 12  1  0
 14 13  2  0
 15  7  1  0
 16 15  2  0
 18 17  1  0
 19 18  1  0
 20 19  1  0
 21 20  1  1
 21 22  1  0
 22 15  1  0
 23 21  1  0
 24 23  2  0
 25 23  1  0
M  END
$$$$
