AFM.pdb
     RDKit          3D

 25 25  0  0  1  0  0  0  0  0999 V2000
    4.1354  -20.7006   23.4709 C   0  0  0  0  0  0  0  0  0  0  0  0
    5.5962  -20.3717   23.6858 C   0  0  2  0  0  0  0  0  0  0  0  0
    6.1335  -20.9635   24.8835 N   0  0  0  0  0  0  0  0  0  0  0  0
    5.8378  -18.9040   23.7030 C   0  0  0  0  0  0  0  0  0  0  0  0
    5.4895  -18.1951   22.7042 O   0  0  0  0  0  0  0  0  0  0  0  0
    6.4420  -18.2258   24.7780 N   0  0  0  0  0  0  0  0  0  0  0  0
    6.7446  -16.7990   24.7811 C   0  0  1  0  0  0  0  0  0  0  0  0
    6.7936  -16.3760   26.2179 C   0  0  0  0  0  0  0  0  0  0  0  0
    6.9945  -14.9365   26.4358 C   0  0  0  0  0  0  0  0  0  0  0  0
    8.2429  -14.3699   26.5616 C   0  0  0  0  0  0  0  0  0  0  0  0
    8.4101  -13.0035   26.7655 C   0  0  0  0  0  0  0  0  0  0  0  0
    7.3020  -12.1907   26.8444 C   0  0  0  0  0  0  0  0  0  0  0  0
    6.0581  -12.7526   26.7193 C   0  0  0  0  0  0  0  0  0  0  0  0
    5.8927  -14.1152   26.5161 C   0  0  0  0  0  0  0  0  0  0  0  0
    7.9638  -16.4997   24.0158 C   0  0  0  0  0  0  0  0  0  0  0  0
    8.9175  -17.3174   24.0532 O   0  0  0  0  0  0  0  0  0  0  0  0
    7.3357  -11.8803   19.4665 C   0  0  0  0  0  0  0  0  0  0  0  0
    8.9159  -12.5538   18.9355 S   0  0  0  0  0  0  0  0  0  0  0  0
    9.4880  -13.8560   20.0067 C   0  0  0  0  0  0  0  0  0  0  0  0
    8.6466  -14.2152   21.1605 C   0  0  0  0  0  0  0  0  0  0  0  0
    9.1029  -15.2800   22.1022 C   0  0  2  0  0  0  0  0  0  0  0  0
    8.1380  -15.3377   23.2296 N   0  0  0  0  0  0  0  0  0  0  0  0
   10.4508  -15.1170   22.6204 C   0  0  0  0  0  0  0  0  0  0  0  0
   10.7879  -14.8126   23.7902 O   0  0  0  0  0  0  0  0  0  0  0  0
   11.5300  -15.3152   21.7395 O   0  0  0  0  0  0  0  0  0  0  0  0
  2  1  1  1
  2  3  1  0
  4  2  1  0
  4  5  2  0
  6  4  1  0
  7  6  1  0
  7  8  1  1
  8  9  1  0
  9 10  2  0
  9 14  1  0
 10 11  1  0
 11 12  2  0
 13 12  1  0
 14 13  2  0
 15  7  1  0
 16 15  2  0
 18 17  1  0
 19 18  1  0
 20 19  1  0
 21 20  1  6
 21 22  1  0
 22 15  1  0
 23 21  1  0
 24 23  2  0
 25 23  1  0
M  END
$$$$
