AFM.pdb
     RDKit          3D

 25 25  0  0  1  0  0  0  0  0999 V2000
   10.5762  -19.1280   20.0082 C   0  0  0  0  0  0  0  0  0  0  0  0
   10.1924  -17.7111   19.6430 C   0  0  2  0  0  0  0  0  0  0  0  0
   11.0731  -17.1263   18.6653 N   0  0  0  0  0  0  0  0  0  0  0  0
   10.1202  -16.8300   20.8394 C   0  0  0  0  0  0  0  0  0  0  0  0
   11.1425  -16.1568   21.1905 O   0  0  0  0  0  0  0  0  0  0  0  0
    8.9666  -16.6851   21.6325 N   0  0  0  0  0  0  0  0  0  0  0  0
    8.8696  -15.7947   22.7837 C   0  0  1  0  0  0  0  0  0  0  0  0
    7.4201  -15.4451   22.9321 C   0  0  0  0  0  0  0  0  0  0  0  0
    7.1169  -14.4953   24.0120 C   0  0  0  0  0  0  0  0  0  0  0  0
    7.4415  -13.1593   23.9409 C   0  0  0  0  0  0  0  0  0  0  0  0
    7.1430  -12.2769   24.9748 C   0  0  0  0  0  0  0  0  0  0  0  0
    6.5063  -12.7455   26.1016 C   0  0  0  0  0  0  0  0  0  0  0  0
    6.1821  -14.0753   26.1745 C   0  0  0  0  0  0  0  0  0  0  0  0
    6.4803  -14.9542   25.1430 C   0  0  0  0  0  0  0  0  0  0  0  0
    9.4794  -16.3876   23.9831 C   0  0  0  0  0  0  0  0  0  0  0  0
    9.3582  -17.6237   24.1752 O   0  0  0  0  0  0  0  0  0  0  0  0
    9.6195  -13.0278   29.3822 C   0  0  0  0  0  0  0  0  0  0  0  0
   10.7043  -14.3519   29.9325 S   0  0  0  0  0  0  0  0  0  0  0  0
   10.9723  -15.5743   28.6658 C   0  0  0  0  0  0  0  0  0  0  0  0
   10.6056  -15.2225   27.2838 C   0  0  0  0  0  0  0  0  0  0  0  0
   10.6866  -16.2599   26.2132 C   0  0  2  0  0  0  0  0  0  0  0  0
   10.2031  -15.6503   24.9482 N   0  0  0  0  0  0  0  0  0  0  0  0
    9.9518  -17.4857   26.4771 C   0  0  0  0  0  0  0  0  0  0  0  0
    8.7227  -17.6874   26.3248 O   0  0  0  0  0  0  0  0  0  0  0  0
   10.6661  -18.5977   26.9601 O   0  0  0  0  0  0  0  0  0  0  0  0
  2  1  1  1
  2  3  1  0
  4  2  1  0
  4  5  2  0
  6  4  1  0
  7  6  1  0
  7  8  1  1
  8  9  1  0
  9 10  2  0
  9 14  1  0
 10 11  1  0
 11 12  2  0
 13 12  1  0
 14 13  2  0
 15  7  1  0
 16 15  2  0
 18 17  1  0
 19 18  1  0
 20 19  1  0
 21 20  1  1
 21 22  1  0
 22 15  1  0
 23 21  1  0
 24 23  2  0
 25 23  1  0
M  END
$$$$
