AFM.pdb
     RDKit          3D

 25 25  0  0  1  0  0  0  0  0999 V2000
   10.5839  -19.1154   19.9865 C   0  0  0  0  0  0  0  0  0  0  0  0
    9.9917  -17.7806   19.5916 C   0  0  2  0  0  0  0  0  0  0  0  0
   10.6887  -17.1611   18.4943 N   0  0  0  0  0  0  0  0  0  0  0  0
    9.9327  -16.8379   20.7408 C   0  0  0  0  0  0  0  0  0  0  0  0
   10.9184  -16.0669   20.9763 O   0  0  0  0  0  0  0  0  0  0  0  0
    8.8310  -16.7368   21.6106 N   0  0  0  0  0  0  0  0  0  0  0  0
    8.7702  -15.8352   22.7556 C   0  0  1  0  0  0  0  0  0  0  0  0
    7.3200  -15.5377   22.9883 C   0  0  0  0  0  0  0  0  0  0  0  0
    7.0499  -14.5392   24.0323 C   0  0  0  0  0  0  0  0  0  0  0  0
    6.5919  -14.8781   25.2856 C   0  0  0  0  0  0  0  0  0  0  0  0
    6.3446  -13.9160   26.2602 C   0  0  0  0  0  0  0  0  0  0  0  0
    6.5616  -12.5880   25.9702 C   0  0  0  0  0  0  0  0  0  0  0  0
    7.0176  -12.2482   24.7230 C   0  0  0  0  0  0  0  0  0  0  0  0
    7.2637  -13.2085   23.7522 C   0  0  0  0  0  0  0  0  0  0  0  0
    9.4736  -16.3888   23.9220 C   0  0  0  0  0  0  0  0  0  0  0  0
    9.4656  -17.6331   24.0987 O   0  0  0  0  0  0  0  0  0  0  0  0
    9.7911  -13.1102   29.3861 C   0  0  0  0  0  0  0  0  0  0  0  0
   10.7933  -14.5138   29.8942 S   0  0  0  0  0  0  0  0  0  0  0  0
   11.1538  -15.6108   28.5388 C   0  0  0  0  0  0  0  0  0  0  0  0
   10.6201  -15.2608   27.2118 C   0  0  0  0  0  0  0  0  0  0  0  0
   10.8188  -16.1982   26.0670 C   0  0  2  0  0  0  0  0  0  0  0  0
   10.1680  -15.6045   24.8714 N   0  0  0  0  0  0  0  0  0  0  0  0
   10.3219  -17.5482   26.2741 C   0  0  0  0  0  0  0  0  0  0  0  0
   10.9954  -18.6006   26.3906 O   0  0  0  0  0  0  0  0  0  0  0  0
    8.9303  -17.7383   26.3594 O   0  0  0  0  0  0  0  0  0  0  0  0
  2  1  1  1
  2  3  1  0
  4  2  1  0
  4  5  2  0
  6  4  1  0
  7  6  1  0
  7  8  1  1
  8  9  1  0
  9 10  2  0
  9 14  1  0
 10 11  1  0
 11 12  2  0
 13 12  1  0
 14 13  2  0
 15  7  1  0
 16 15  2  0
 18 17  1  0
 19 18  1  0
 20 19  1  0
 21 20  1  1
 21 22  1  0
 22 15  1  0
 23 21  1  0
 24 23  2  0
 25 23  1  0
M  END
$$$$
