AFM.pdb
     RDKit          3D

 25 25  0  0  1  0  0  0  0  0999 V2000
   10.4591  -19.0306   19.8540 C   0  0  0  0  0  0  0  0  0  0  0  0
   10.1835  -17.5879   19.4920 C   0  0  2  0  0  0  0  0  0  0  0  0
   11.1441  -17.0497   18.5641 N   0  0  0  0  0  0  0  0  0  0  0  0
   10.1115  -16.7177   20.6963 C   0  0  0  0  0  0  0  0  0  0  0  0
   11.1578  -16.1182   21.1055 O   0  0  0  0  0  0  0  0  0  0  0  0
    8.9329  -16.5053   21.4356 N   0  0  0  0  0  0  0  0  0  0  0  0
    8.8507  -15.6630   22.6235 C   0  0  1  0  0  0  0  0  0  0  0  0
    7.4169  -15.2471   22.7536 C   0  0  0  0  0  0  0  0  0  0  0  0
    7.1279  -14.3576   23.8874 C   0  0  0  0  0  0  0  0  0  0  0  0
    6.4786  -14.7866   25.0231 C   0  0  0  0  0  0  0  0  0  0  0  0
    6.2170  -13.9274   26.0860 C   0  0  0  0  0  0  0  0  0  0  0  0
    6.6152  -12.6121   26.0066 C   0  0  0  0  0  0  0  0  0  0  0  0
    7.2618  -12.1828   24.8769 C   0  0  0  0  0  0  0  0  0  0  0  0
    7.5221  -13.0405   23.8176 C   0  0  0  0  0  0  0  0  0  0  0  0
    9.3992  -16.3385   23.8086 C   0  0  0  0  0  0  0  0  0  0  0  0
    9.3490  -17.5930   23.8672 O   0  0  0  0  0  0  0  0  0  0  0  0
    9.6536  -13.0259   29.2645 C   0  0  0  0  0  0  0  0  0  0  0  0
   10.8402  -14.3253   29.6337 S   0  0  0  0  0  0  0  0  0  0  0  0
   10.7458  -15.6738   28.4747 C   0  0  0  0  0  0  0  0  0  0  0  0
   11.0229  -15.3821   27.0582 C   0  0  0  0  0  0  0  0  0  0  0  0
   10.6564  -16.3843   26.0141 C   0  0  2  0  0  0  0  0  0  0  0  0
    9.9875  -15.6624   24.9019 N   0  0  0  0  0  0  0  0  0  0  0  0
    9.8097  -17.4749   26.4679 C   0  0  0  0  0  0  0  0  0  0  0  0
   10.1738  -18.5817   26.9338 O   0  0  0  0  0  0  0  0  0  0  0  0
    8.4145  -17.3088   26.3922 O   0  0  0  0  0  0  0  0  0  0  0  0
  2  1  1  1
  2  3  1  0
  4  2  1  0
  4  5  2  0
  6  4  1  0
  7  6  1  0
  7  8  1  1
  8  9  1  0
  9 10  2  0
  9 14  1  0
 10 11  1  0
 11 12  2  0
 13 12  1  0
 14 13  2  0
 15  7  1  0
 16 15  2  0
 18 17  1  0
 19 18  1  0
 20 19  1  0
 21 20  1  1
 21 22  1  0
 22 15  1  0
 23 21  1  0
 24 23  2  0
 25 23  1  0
M  END
$$$$
