KGH.pdb
     RDKit          3D

 24 24  0  0  1  0  0  0  0  0999 V2000
    8.7393  -16.6975   17.2012 N   0  0  0  0  0  0  0  0  0  0  0  0
    8.6111  -15.3590   16.7127 C   0  0  1  0  0  0  0  0  0  0  0  0
    7.5868  -15.2881   15.6285 C   0  0  0  0  0  0  0  0  0  0  0  0
    8.1193  -15.0062   14.2784 C   0  0  0  0  0  0  0  0  0  0  0  0
    7.1067  -15.0242   13.1941 C   0  0  0  0  0  0  0  0  0  0  0  0
    7.6485  -14.5371   11.8580 C   0  0  0  0  0  0  0  0  0  0  0  0
    6.6006  -14.6052   10.8695 N   0  0  0  0  0  0  0  0  0  0  0  0
    8.2954  -14.3823   17.7903 C   0  0  0  0  0  0  0  0  0  0  0  0
    8.5317  -13.1732   17.5352 O   0  0  0  0  0  0  0  0  0  0  0  0
    7.7521  -14.7660   19.0583 N   0  0  0  0  0  0  0  0  0  0  0  0
    7.6106  -13.7308   20.0288 C   0  0  0  0  0  0  0  0  0  0  0  0
    8.6076  -13.6936   21.0897 C   0  0  0  0  0  0  0  0  0  0  0  0
    8.2139  -13.1973   22.2022 O   0  0  0  0  0  0  0  0  0  0  0  0
    9.9485  -14.1444   21.0159 N   0  0  0  0  0  0  0  0  0  0  0  0
   10.4111  -15.2112   21.8875 C   0  0  1  0  0  0  0  0  0  0  0  0
    9.3970  -16.3314   21.9626 C   0  0  0  0  0  0  0  0  0  0  0  0
    9.8148  -17.3759   22.9115 C   0  0  0  0  0  0  0  0  0  0  0  0
   10.6736  -17.3007   23.9819 C   0  0  0  0  0  0  0  0  0  0  0  0
   10.7804  -18.5012   24.5758 N   0  0  0  0  0  0  0  0  0  0  0  0
    9.9942  -19.3479   23.8918 C   0  0  0  0  0  0  0  0  0  0  0  0
    9.4098  -18.6558   22.8804 N   0  0  0  0  0  0  0  0  0  0  0  0
   11.7613  -15.6770   21.4897 C   0  0  0  0  0  0  0  0  0  0  0  0
   11.9732  -16.1283   20.1708 O   0  0  0  0  0  0  0  0  0  0  0  0
   12.7558  -15.7021   22.2529 O   0  0  0  0  0  0  0  0  0  0  0  0
  2  1  1  1
  3  2  1  0
  4  3  1  0
  5  6  1  0
  5  4  1  0
  7  6  1  0
  8  2  1  0
  8 10  1  0
  9  8  2  0
 11 10  1  0
 12 11  1  0
 13 12  2  0
 14 12  1  0
 15 14  1  0
 15 16  1  6
 17 18  2  0
 17 16  1  0
 19 18  1  0
 20 21  2  0
 20 19  1  0
 21 17  1  0
 22 15  1  0
 23 22  1  0
 24 22  2  0
M  END
$$$$
