KGH.pdb
     RDKit          3D

 24 24  0  0  1  0  0  0  0  0999 V2000
    9.1913  -14.9224   18.8307 N   0  0  0  0  0  0  0  0  0  0  0  0
    8.4803  -14.0125   19.6752 C   0  0  1  0  0  0  0  0  0  0  0  0
    7.2969  -13.4453   18.9628 C   0  0  0  0  0  0  0  0  0  0  0  0
    7.0498  -13.9995   17.6147 C   0  0  0  0  0  0  0  0  0  0  0  0
    8.1714  -13.8320   16.6580 C   0  0  0  0  0  0  0  0  0  0  0  0
    7.8276  -14.2802   15.2449 C   0  0  0  0  0  0  0  0  0  0  0  0
    9.0056  -14.1838   14.4184 N   0  0  0  0  0  0  0  0  0  0  0  0
    8.0641  -14.6307   20.9633 C   0  0  0  0  0  0  0  0  0  0  0  0
    7.3409  -13.9256   21.7135 O   0  0  0  0  0  0  0  0  0  0  0  0
    8.4489  -15.9527   21.3563 N   0  0  0  0  0  0  0  0  0  0  0  0
    7.9594  -16.4096   22.6153 C   0  0  0  0  0  0  0  0  0  0  0  0
    8.6638  -15.9340   23.7979 C   0  0  0  0  0  0  0  0  0  0  0  0
    9.8625  -15.5287   23.6027 O   0  0  0  0  0  0  0  0  0  0  0  0
    8.1642  -15.8754   25.1222 N   0  0  0  0  0  0  0  0  0  0  0  0
    9.0280  -15.4552   26.2125 C   0  0  1  0  0  0  0  0  0  0  0  0
    8.2387  -14.7456   27.2905 C   0  0  0  0  0  0  0  0  0  0  0  0
    7.4769  -13.6110   26.7443 C   0  0  0  0  0  0  0  0  0  0  0  0
    6.1401  -13.3124   26.8565 C   0  0  0  0  0  0  0  0  0  0  0  0
    5.8605  -12.1798   26.1898 N   0  0  0  0  0  0  0  0  0  0  0  0
    7.0117  -11.7490   25.6495 C   0  0  0  0  0  0  0  0  0  0  0  0
    7.9910  -12.6251   25.9913 N   0  0  0  0  0  0  0  0  0  0  0  0
    9.8242  -16.5936   26.7310 C   0  0  0  0  0  0  0  0  0  0  0  0
   10.7727  -16.3636   27.7485 O   0  0  0  0  0  0  0  0  0  0  0  0
    9.7182  -17.7755   26.3259 O   0  0  0  0  0  0  0  0  0  0  0  0
  2  1  1  6
  3  2  1  0
  4  3  1  0
  5  6  1  0
  5  4  1  0
  7  6  1  0
  8  2  1  0
  8 10  1  0
  9  8  2  0
 11 10  1  0
 12 11  1  0
 13 12  2  0
 14 12  1  0
 15 14  1  0
 15 16  1  1
 17 18  2  0
 17 16  1  0
 19 18  1  0
 20 21  2  0
 20 19  1  0
 21 17  1  0
 22 15  1  0
 23 22  1  0
 24 22  2  0
M  END
$$$$
