KGH.pdb
     RDKit          3D

 24 24  0  0  1  0  0  0  0  0999 V2000
    8.5536  -16.3533   19.7879 N   0  0  0  0  0  0  0  0  0  0  0  0
    7.9936  -15.6528   20.9025 C   0  0  1  0  0  0  0  0  0  0  0  0
    7.0271  -14.6122   20.4412 C   0  0  0  0  0  0  0  0  0  0  0  0
    7.5830  -13.6064   19.5113 C   0  0  0  0  0  0  0  0  0  0  0  0
    7.5335  -13.9892   18.0787 C   0  0  0  0  0  0  0  0  0  0  0  0
    8.0331  -12.8946   17.1468 C   0  0  0  0  0  0  0  0  0  0  0  0
    8.0284  -13.3885   15.7918 N   0  0  0  0  0  0  0  0  0  0  0  0
    7.3467  -16.5630   21.8863 C   0  0  0  0  0  0  0  0  0  0  0  0
    7.5163  -17.7959   21.7023 O   0  0  0  0  0  0  0  0  0  0  0  0
    6.5678  -16.0925   22.9918 N   0  0  0  0  0  0  0  0  0  0  0  0
    6.4238  -16.9858   24.0940 C   0  0  0  0  0  0  0  0  0  0  0  0
    7.2483  -16.7138   25.2632 C   0  0  0  0  0  0  0  0  0  0  0  0
    6.9600  -17.3876   26.3129 O   0  0  0  0  0  0  0  0  0  0  0  0
    8.3209  -15.7928   25.3548 N   0  0  0  0  0  0  0  0  0  0  0  0
    9.0785  -15.6721   26.5888 C   0  0  1  0  0  0  0  0  0  0  0  0
    8.2125  -15.1412   27.7099 C   0  0  0  0  0  0  0  0  0  0  0  0
    7.5453  -13.8858   27.3295 C   0  0  0  0  0  0  0  0  0  0  0  0
    7.8073  -13.0305   26.2861 C   0  0  0  0  0  0  0  0  0  0  0  0
    6.9575  -11.9901   26.3148 N   0  0  0  0  0  0  0  0  0  0  0  0
    6.1503  -12.1729   27.3721 C   0  0  0  0  0  0  0  0  0  0  0  0
    6.5141  -13.3286   27.9847 N   0  0  0  0  0  0  0  0  0  0  0  0
    9.7496  -16.9495   26.9296 C   0  0  0  0  0  0  0  0  0  0  0  0
   10.3134  -17.1105   28.2119 O   0  0  0  0  0  0  0  0  0  0  0  0
    9.8585  -17.9236   26.1476 O   0  0  0  0  0  0  0  0  0  0  0  0
  2  1  1  6
  3  2  1  0
  4  3  1  0
  5  6  1  0
  5  4  1  0
  7  6  1  0
  8  2  1  0
  8 10  1  0
  9  8  2  0
 11 10  1  0
 12 11  1  0
 13 12  2  0
 14 12  1  0
 15 14  1  0
 15 16  1  1
 17 18  2  0
 17 16  1  0
 19 18  1  0
 20 21  2  0
 20 19  1  0
 21 17  1  0
 22 15  1  0
 23 22  1  0
 24 22  2  0
M  END
$$$$
