KGH.pdb
     RDKit          3D

 24 24  0  0  1  0  0  0  0  0999 V2000
    8.0532  -16.4225   19.1699 N   0  0  0  0  0  0  0  0  0  0  0  0
    7.0468  -17.4103   19.4110 C   0  0  1  0  0  0  0  0  0  0  0  0
    7.5765  -18.7805   19.1433 C   0  0  0  0  0  0  0  0  0  0  0  0
    8.9074  -19.0638   19.7212 C   0  0  0  0  0  0  0  0  0  0  0  0
    9.4155  -20.4350   19.4703 C   0  0  0  0  0  0  0  0  0  0  0  0
   10.7809  -20.6927   20.0912 C   0  0  0  0  0  0  0  0  0  0  0  0
   11.1686  -22.0574   19.8315 N   0  0  0  0  0  0  0  0  0  0  0  0
    6.4823  -17.3311   20.7857 C   0  0  0  0  0  0  0  0  0  0  0  0
    5.6337  -18.2077   21.0925 O   0  0  0  0  0  0  0  0  0  0  0  0
    6.8633  -16.3247   21.7304 N   0  0  0  0  0  0  0  0  0  0  0  0
    6.6446  -16.6288   23.1063 C   0  0  0  0  0  0  0  0  0  0  0  0
    7.6933  -16.2300   24.0348 C   0  0  0  0  0  0  0  0  0  0  0  0
    8.7763  -15.8076   23.4984 O   0  0  0  0  0  0  0  0  0  0  0  0
    7.6368  -16.2619   25.4499 N   0  0  0  0  0  0  0  0  0  0  0  0
    8.7422  -15.7443   26.2384 C   0  0  1  0  0  0  0  0  0  0  0  0
    8.2512  -14.7884   27.3032 C   0  0  0  0  0  0  0  0  0  0  0  0
    7.5451  -13.6394   26.7141 C   0  0  0  0  0  0  0  0  0  0  0  0
    8.0082  -12.3804   26.4149 C   0  0  0  0  0  0  0  0  0  0  0  0
    7.0189  -11.6339   25.8957 N   0  0  0  0  0  0  0  0  0  0  0  0
    5.9220  -12.4074   25.8599 C   0  0  0  0  0  0  0  0  0  0  0  0
    6.2500  -13.6265   26.3596 N   0  0  0  0  0  0  0  0  0  0  0  0
    9.5691  -16.8468   26.7854 C   0  0  0  0  0  0  0  0  0  0  0  0
    9.1620  -18.1808   26.5785 O   0  0  0  0  0  0  0  0  0  0  0  0
   10.6293  -16.6829   27.4344 O   0  0  0  0  0  0  0  0  0  0  0  0
  2  1  1  1
  3  2  1  0
  4  3  1  0
  5  6  1  0
  5  4  1  0
  7  6  1  0
  8  2  1  0
  8 10  1  0
  9  8  2  0
 11 10  1  0
 12 11  1  0
 13 12  2  0
 14 12  1  0
 15 14  1  0
 15 16  1  1
 17 18  2  0
 17 16  1  0
 19 18  1  0
 20 21  2  0
 20 19  1  0
 21 17  1  0
 22 15  1  0
 23 22  1  0
 24 22  2  0
M  END
$$$$
