KGH.pdb
     RDKit          3D

 24 24  0  0  1  0  0  0  0  0999 V2000
   10.1825  -15.1488   18.5521 N   0  0  0  0  0  0  0  0  0  0  0  0
    9.3527  -14.3748   19.4234 C   0  0  1  0  0  0  0  0  0  0  0  0
    8.2631  -13.7018   18.6555 C   0  0  0  0  0  0  0  0  0  0  0  0
    8.5361  -13.5087   17.2155 C   0  0  0  0  0  0  0  0  0  0  0  0
    7.4138  -13.8716   16.3154 C   0  0  0  0  0  0  0  0  0  0  0  0
    7.6909  -13.5565   14.8525 C   0  0  0  0  0  0  0  0  0  0  0  0
    6.5580  -13.9637   14.0582 N   0  0  0  0  0  0  0  0  0  0  0  0
    8.7822  -15.1797   20.5376 C   0  0  0  0  0  0  0  0  0  0  0  0
    7.8645  -15.9844   20.2327 O   0  0  0  0  0  0  0  0  0  0  0  0
    9.2312  -15.0674   21.8926 N   0  0  0  0  0  0  0  0  0  0  0  0
    8.6504  -15.9698   22.8317 C   0  0  0  0  0  0  0  0  0  0  0  0
    9.0518  -15.8082   24.2223 C   0  0  0  0  0  0  0  0  0  0  0  0
   10.0615  -15.0468   24.4221 O   0  0  0  0  0  0  0  0  0  0  0  0
    8.4469  -16.3993   25.3588 N   0  0  0  0  0  0  0  0  0  0  0  0
    8.9712  -16.1346   26.6879 C   0  0  1  0  0  0  0  0  0  0  0  0
    7.9050  -15.5491   27.5874 C   0  0  0  0  0  0  0  0  0  0  0  0
    7.3784  -14.2846   27.0492 C   0  0  0  0  0  0  0  0  0  0  0  0
    7.6846  -12.9882   27.3877 C   0  0  0  0  0  0  0  0  0  0  0  0
    6.9577  -12.1323   26.6497 N   0  0  0  0  0  0  0  0  0  0  0  0
    6.1856  -12.8728   25.8384 C   0  0  0  0  0  0  0  0  0  0  0  0
    6.4471  -14.1817   26.0873 N   0  0  0  0  0  0  0  0  0  0  0  0
    9.6118  -17.3437   27.2589 C   0  0  0  0  0  0  0  0  0  0  0  0
    9.6610  -18.5249   26.4905 O   0  0  0  0  0  0  0  0  0  0  0  0
   10.1269  -17.4008   28.4007 O   0  0  0  0  0  0  0  0  0  0  0  0
  2  1  1  6
  3  2  1  0
  4  3  1  0
  5  6  1  0
  5  4  1  0
  7  6  1  0
  8  2  1  0
  8 10  1  0
  9  8  2  0
 11 10  1  0
 12 11  1  0
 13 12  2  0
 14 12  1  0
 15 14  1  0
 15 16  1  1
 17 18  2  0
 17 16  1  0
 19 18  1  0
 20 21  2  0
 20 19  1  0
 21 17  1  0
 22 15  1  0
 23 22  1  0
 24 22  2  0
M  END
$$$$
