KGH.pdb
     RDKit          3D

 24 24  0  0  1  0  0  0  0  0999 V2000
    7.0564  -18.7021   22.2945 N   0  0  0  0  0  0  0  0  0  0  0  0
    7.0689  -17.6629   21.3114 C   0  0  1  0  0  0  0  0  0  0  0  0
    5.9216  -17.8144   20.3677 C   0  0  0  0  0  0  0  0  0  0  0  0
    5.7734  -19.1580   19.7691 C   0  0  0  0  0  0  0  0  0  0  0  0
    4.7489  -19.2532   18.7001 C   0  0  0  0  0  0  0  0  0  0  0  0
    4.7273  -20.6083   18.0077 C   0  0  0  0  0  0  0  0  0  0  0  0
    3.6980  -20.6069   16.9975 N   0  0  0  0  0  0  0  0  0  0  0  0
    7.0696  -16.3023   21.9142 C   0  0  0  0  0  0  0  0  0  0  0  0
    6.2930  -16.1220   22.8874 O   0  0  0  0  0  0  0  0  0  0  0  0
    7.8966  -15.2358   21.4357 N   0  0  0  0  0  0  0  0  0  0  0  0
    7.8839  -14.0305   22.1977 C   0  0  0  0  0  0  0  0  0  0  0  0
    8.4333  -14.1070   23.5442 C   0  0  0  0  0  0  0  0  0  0  0  0
    8.7308  -12.9855   24.0853 O   0  0  0  0  0  0  0  0  0  0  0  0
    8.6683  -15.2793   24.3041 N   0  0  0  0  0  0  0  0  0  0  0  0
    9.3683  -15.1997   25.5750 C   0  0  1  0  0  0  0  0  0  0  0  0
    8.3952  -15.0616   26.7251 C   0  0  0  0  0  0  0  0  0  0  0  0
    7.5852  -13.8388   26.6040 C   0  0  0  0  0  0  0  0  0  0  0  0
    7.9732  -12.5204   26.6200 C   0  0  0  0  0  0  0  0  0  0  0  0
    6.9018  -11.7202   26.4888 N   0  0  0  0  0  0  0  0  0  0  0  0
    5.8268  -12.5184   26.3887 C   0  0  0  0  0  0  0  0  0  0  0  0
    6.2506  -13.8064   26.4596 N   0  0  0  0  0  0  0  0  0  0  0  0
   10.3039  -16.3380   25.7405 C   0  0  0  0  0  0  0  0  0  0  0  0
   11.1346  -16.3866   26.8788 O   0  0  0  0  0  0  0  0  0  0  0  0
   10.4182  -17.2856   24.9274 O   0  0  0  0  0  0  0  0  0  0  0  0
  2  1  1  1
  3  2  1  0
  4  3  1  0
  5  6  1  0
  5  4  1  0
  7  6  1  0
  8  2  1  0
  8 10  1  0
  9  8  2  0
 11 10  1  0
 12 11  1  0
 13 12  2  0
 14 12  1  0
 15 14  1  0
 15 16  1  1
 17 18  2  0
 17 16  1  0
 19 18  1  0
 20 21  2  0
 20 19  1  0
 21 17  1  0
 22 15  1  0
 23 22  1  0
 24 22  2  0
M  END
$$$$
