KGH.pdb
     RDKit          3D

 24 24  0  0  1  0  0  0  0  0999 V2000
    6.8297  -15.9754   19.6050 N   0  0  0  0  0  0  0  0  0  0  0  0
    7.6804  -15.2205   20.4729 C   0  0  1  0  0  0  0  0  0  0  0  0
    7.3090  -13.7744   20.4502 C   0  0  0  0  0  0  0  0  0  0  0  0
    7.2773  -13.1547   19.1084 C   0  0  0  0  0  0  0  0  0  0  0  0
    8.4319  -13.4922   18.2399 C   0  0  0  0  0  0  0  0  0  0  0  0
    8.4018  -12.7783   16.8962 C   0  0  0  0  0  0  0  0  0  0  0  0
    9.4683  -13.2843   16.0677 N   0  0  0  0  0  0  0  0  0  0  0  0
    7.6784  -15.7355   21.8692 C   0  0  0  0  0  0  0  0  0  0  0  0
    6.7669  -15.3052   22.6220 O   0  0  0  0  0  0  0  0  0  0  0  0
    8.6466  -16.6697   22.3592 N   0  0  0  0  0  0  0  0  0  0  0  0
    8.5816  -16.9828   23.7489 C   0  0  0  0  0  0  0  0  0  0  0  0
    9.5446  -16.3129   24.6118 C   0  0  0  0  0  0  0  0  0  0  0  0
    9.9436  -15.1648   24.2096 O   0  0  0  0  0  0  0  0  0  0  0  0
   10.0764  -16.7961   25.8327 N   0  0  0  0  0  0  0  0  0  0  0  0
    9.6326  -16.2347   27.0974 C   0  0  1  0  0  0  0  0  0  0  0  0
    8.1405  -15.9857   27.0892 C   0  0  0  0  0  0  0  0  0  0  0  0
    7.8302  -14.5692   26.8382 C   0  0  0  0  0  0  0  0  0  0  0  0
    8.6749  -13.5117   26.5989 C   0  0  0  0  0  0  0  0  0  0  0  0
    7.9673  -12.3817   26.4321 N   0  0  0  0  0  0  0  0  0  0  0  0
    6.6715  -12.7080   26.5632 C   0  0  0  0  0  0  0  0  0  0  0  0
    6.5959  -14.0410   26.8102 N   0  0  0  0  0  0  0  0  0  0  0  0
   10.0743  -17.0736   28.2374 C   0  0  0  0  0  0  0  0  0  0  0  0
   10.5774  -16.4495   29.3973 O   0  0  0  0  0  0  0  0  0  0  0  0
   10.0350  -18.3268   28.2523 O   0  0  0  0  0  0  0  0  0  0  0  0
  2  1  1  6
  3  2  1  0
  4  3  1  0
  5  6  1  0
  5  4  1  0
  7  6  1  0
  8  2  1  0
  8 10  1  0
  9  8  2  0
 11 10  1  0
 12 11  1  0
 13 12  2  0
 14 12  1  0
 15 14  1  0
 15 16  1  6
 17 18  2  0
 17 16  1  0
 19 18  1  0
 20 21  2  0
 20 19  1  0
 21 17  1  0
 22 15  1  0
 23 22  1  0
 24 22  2  0
M  END
$$$$
