KGH.pdb
     RDKit          3D

 24 24  0  0  1  0  0  0  0  0999 V2000
   11.3111  -17.7586   14.1509 N   0  0  0  0  0  0  0  0  0  0  0  0
   11.2922  -16.4989   14.8287 C   0  0  1  0  0  0  0  0  0  0  0  0
   10.0428  -15.7459   14.5096 C   0  0  0  0  0  0  0  0  0  0  0  0
    9.0435  -16.4936   13.7171 C   0  0  0  0  0  0  0  0  0  0  0  0
    7.8859  -15.6880   13.2563 C   0  0  0  0  0  0  0  0  0  0  0  0
    6.9574  -16.4503   12.3221 C   0  0  0  0  0  0  0  0  0  0  0  0
    5.9069  -15.5684   11.8761 N   0  0  0  0  0  0  0  0  0  0  0  0
   11.4535  -16.6371   16.3017 C   0  0  0  0  0  0  0  0  0  0  0  0
   10.7209  -17.4897   16.8664 O   0  0  0  0  0  0  0  0  0  0  0  0
   12.3824  -15.8572   17.0628 N   0  0  0  0  0  0  0  0  0  0  0  0
   12.3075  -15.9849   18.4811 C   0  0  0  0  0  0  0  0  0  0  0  0
   12.1209  -14.7534   19.2357 C   0  0  0  0  0  0  0  0  0  0  0  0
   11.8034  -13.7235   18.5446 O   0  0  0  0  0  0  0  0  0  0  0  0
   12.2533  -14.5826   20.6357 N   0  0  0  0  0  0  0  0  0  0  0  0
   11.1056  -14.7684   21.5075 C   0  0  1  0  0  0  0  0  0  0  0  0
    9.9755  -15.4625   20.7797 C   0  0  0  0  0  0  0  0  0  0  0  0
    9.0864  -14.4962   20.1151 C   0  0  0  0  0  0  0  0  0  0  0  0
    9.1967  -13.1309   20.0028 C   0  0  0  0  0  0  0  0  0  0  0  0
    8.1515  -12.6361   19.3186 N   0  0  0  0  0  0  0  0  0  0  0  0
    7.3698  -13.6773   18.9906 C   0  0  0  0  0  0  0  0  0  0  0  0
    7.9452  -14.8060   19.4787 N   0  0  0  0  0  0  0  0  0  0  0  0
   11.4952  -15.4548   22.7627 C   0  0  0  0  0  0  0  0  0  0  0  0
   10.9634  -15.0033   23.9880 O   0  0  0  0  0  0  0  0  0  0  0  0
   12.2805  -16.4305   22.8227 O   0  0  0  0  0  0  0  0  0  0  0  0
  2  1  1  6
  3  2  1  0
  4  3  1  0
  5  6  1  0
  5  4  1  0
  7  6  1  0
  8  2  1  0
  8 10  1  0
  9  8  2  0
 11 10  1  0
 12 11  1  0
 13 12  2  0
 14 12  1  0
 15 14  1  0
 15 16  1  6
 17 18  2  0
 17 16  1  0
 19 18  1  0
 20 21  2  0
 20 19  1  0
 21 17  1  0
 22 15  1  0
 23 22  1  0
 24 22  2  0
M  END
$$$$
