KGH.pdb
     RDKit          3D

 24 24  0  0  1  0  0  0  0  0999 V2000
   10.1724  -17.5524   18.0353 N   0  0  0  0  0  0  0  0  0  0  0  0
    8.7635  -17.3056   18.0101 C   0  0  1  0  0  0  0  0  0  0  0  0
    8.0555  -18.3638   17.2299 C   0  0  0  0  0  0  0  0  0  0  0  0
    8.2013  -18.2658   15.7620 C   0  0  0  0  0  0  0  0  0  0  0  0
    7.6206  -19.4002   15.0021 C   0  0  0  0  0  0  0  0  0  0  0  0
    7.8520  -19.2990   13.5013 C   0  0  0  0  0  0  0  0  0  0  0  0
    7.3034  -20.4676   12.8583 N   0  0  0  0  0  0  0  0  0  0  0  0
    8.1773  -17.1851   19.3727 C   0  0  0  0  0  0  0  0  0  0  0  0
    6.9840  -16.7916   19.4347 O   0  0  0  0  0  0  0  0  0  0  0  0
    8.9054  -17.4923   20.5668 N   0  0  0  0  0  0  0  0  0  0  0  0
    8.1905  -17.3755   21.7951 C   0  0  0  0  0  0  0  0  0  0  0  0
    8.9484  -16.9045   22.9460 C   0  0  0  0  0  0  0  0  0  0  0  0
   10.1825  -16.6434   22.7269 O   0  0  0  0  0  0  0  0  0  0  0  0
    8.4654  -16.7091   24.2633 N   0  0  0  0  0  0  0  0  0  0  0  0
    9.3575  -16.2334   25.3070 C   0  0  1  0  0  0  0  0  0  0  0  0
    8.5819  -15.5888   26.4347 C   0  0  0  0  0  0  0  0  0  0  0  0
    7.8360  -14.4076   25.9716 C   0  0  0  0  0  0  0  0  0  0  0  0
    8.2398  -13.3730   25.1621 C   0  0  0  0  0  0  0  0  0  0  0  0
    7.2379  -12.4923   25.0009 N   0  0  0  0  0  0  0  0  0  0  0  0
    6.1919  -12.9563   25.7034 C   0  0  0  0  0  0  0  0  0  0  0  0
    6.5635  -14.1222   26.2914 N   0  0  0  0  0  0  0  0  0  0  0  0
   10.2619  -17.3139   25.7687 C   0  0  0  0  0  0  0  0  0  0  0  0
   11.2785  -17.0110   26.6975 O   0  0  0  0  0  0  0  0  0  0  0  0
   10.1927  -18.5068   25.3888 O   0  0  0  0  0  0  0  0  0  0  0  0
  2  1  1  1
  3  2  1  0
  4  3  1  0
  5  6  1  0
  5  4  1  0
  7  6  1  0
  8  2  1  0
  8 10  1  0
  9  8  2  0
 11 10  1  0
 12 11  1  0
 13 12  2  0
 14 12  1  0
 15 14  1  0
 15 16  1  1
 17 18  2  0
 17 16  1  0
 19 18  1  0
 20 21  2  0
 20 19  1  0
 21 17  1  0
 22 15  1  0
 23 22  1  0
 24 22  2  0
M  END
$$$$
