KGH.pdb
     RDKit          3D

 24 24  0  0  1  0  0  0  0  0999 V2000
    9.8434  -20.8222   22.7202 N   0  0  0  0  0  0  0  0  0  0  0  0
   10.8759  -21.7204   22.3034 C   0  0  1  0  0  0  0  0  0  0  0  0
   11.2603  -21.4613   20.8839 C   0  0  0  0  0  0  0  0  0  0  0  0
   10.1685  -20.9695   20.0169 C   0  0  0  0  0  0  0  0  0  0  0  0
   10.5199  -20.8523   18.5802 C   0  0  0  0  0  0  0  0  0  0  0  0
    9.4196  -20.2168   17.7426 C   0  0  0  0  0  0  0  0  0  0  0  0
    9.8635  -20.1197   16.3738 N   0  0  0  0  0  0  0  0  0  0  0  0
   12.0742  -21.6661   23.1843 C   0  0  0  0  0  0  0  0  0  0  0  0
   12.8615  -20.7027   22.9978 O   0  0  0  0  0  0  0  0  0  0  0  0
   12.3445  -22.6414   24.1972 N   0  0  0  0  0  0  0  0  0  0  0  0
   13.4673  -22.3890   25.0393 C   0  0  0  0  0  0  0  0  0  0  0  0
   13.2207  -21.5840   26.2276 C   0  0  0  0  0  0  0  0  0  0  0  0
   14.1665  -21.5660   27.0902 O   0  0  0  0  0  0  0  0  0  0  0  0
   12.0576  -20.8303   26.5207 N   0  0  0  0  0  0  0  0  0  0  0  0
   11.9642  -20.0817   27.7627 C   0  0  1  0  0  0  0  0  0  0  0  0
   11.8652  -18.5957   27.4969 C   0  0  0  0  0  0  0  0  0  0  0  0
   11.1980  -18.3192   26.2146 C   0  0  0  0  0  0  0  0  0  0  0  0
   11.5112  -18.7512   24.9480 C   0  0  0  0  0  0  0  0  0  0  0  0
   10.6389  -18.2488   24.0580 N   0  0  0  0  0  0  0  0  0  0  0  0
    9.7665  -17.4957   24.7468 C   0  0  0  0  0  0  0  0  0  0  0  0
   10.1131  -17.5434   26.0587 N   0  0  0  0  0  0  0  0  0  0  0  0
   10.8621  -20.5937   28.6122 C   0  0  0  0  0  0  0  0  0  0  0  0
   10.7186  -20.1001   29.9252 O   0  0  0  0  0  0  0  0  0  0  0  0
   10.0257  -21.4532   28.2463 O   0  0  0  0  0  0  0  0  0  0  0  0
  2  1  1  1
  3  2  1  0
  4  3  1  0
  5  6  1  0
  5  4  1  0
  7  6  1  0
  8  2  1  0
  8 10  1  0
  9  8  2  0
 11 10  1  0
 12 11  1  0
 13 12  2  0
 14 12  1  0
 15 14  1  0
 15 16  1  6
 17 18  2  0
 17 16  1  0
 19 18  1  0
 20 21  2  0
 20 19  1  0
 21 17  1  0
 22 15  1  0
 23 22  1  0
 24 22  2  0
M  END
$$$$
