KGH.pdb
     RDKit          3D

 24 24  0  0  1  0  0  0  0  0999 V2000
    9.1161  -18.1659   18.5247 N   0  0  0  0  0  0  0  0  0  0  0  0
    8.0929  -17.6081   19.3544 C   0  0  1  0  0  0  0  0  0  0  0  0
    7.3123  -18.6879   20.0286 C   0  0  0  0  0  0  0  0  0  0  0  0
    7.0457  -19.8822   19.1990 C   0  0  0  0  0  0  0  0  0  0  0  0
    6.2763  -20.9530   19.8793 C   0  0  0  0  0  0  0  0  0  0  0  0
    6.1014  -22.2013   19.0265 C   0  0  0  0  0  0  0  0  0  0  0  0
    5.4334  -23.2157   19.8044 N   0  0  0  0  0  0  0  0  0  0  0  0
    8.6275  -16.6491   20.3590 C   0  0  0  0  0  0  0  0  0  0  0  0
    9.7867  -16.8799   20.7901 O   0  0  0  0  0  0  0  0  0  0  0  0
    7.8882  -15.5166   20.8293 N   0  0  0  0  0  0  0  0  0  0  0  0
    8.5613  -14.6525   21.7425 C   0  0  0  0  0  0  0  0  0  0  0  0
    8.6328  -15.0987   23.1269 C   0  0  0  0  0  0  0  0  0  0  0  0
    8.0595  -16.2153   23.3790 O   0  0  0  0  0  0  0  0  0  0  0  0
    9.2631  -14.4320   24.2063 N   0  0  0  0  0  0  0  0  0  0  0  0
    9.2745  -15.0309   25.5302 C   0  0  1  0  0  0  0  0  0  0  0  0
    7.8679  -15.2923   26.0219 C   0  0  0  0  0  0  0  0  0  0  0  0
    7.1638  -14.0390   26.3371 C   0  0  0  0  0  0  0  0  0  0  0  0
    7.6282  -12.7454   26.3423 C   0  0  0  0  0  0  0  0  0  0  0  0
    6.6463  -11.9018   26.7023 N   0  0  0  0  0  0  0  0  0  0  0  0
    5.5528  -12.6473   26.9286 C   0  0  0  0  0  0  0  0  0  0  0  0
    5.8754  -13.9469   26.7043 N   0  0  0  0  0  0  0  0  0  0  0  0
   10.1336  -16.2390   25.5615 C   0  0  0  0  0  0  0  0  0  0  0  0
   10.3322  -16.9112   26.7849 O   0  0  0  0  0  0  0  0  0  0  0  0
   10.7128  -16.7230   24.5603 O   0  0  0  0  0  0  0  0  0  0  0  0
  2  1  1  1
  3  2  1  0
  4  3  1  0
  5  6  1  0
  5  4  1  0
  7  6  1  0
  8  2  1  0
  8 10  1  0
  9  8  2  0
 11 10  1  0
 12 11  1  0
 13 12  2  0
 14 12  1  0
 15 14  1  0
 15 16  1  6
 17 18  2  0
 17 16  1  0
 19 18  1  0
 20 21  2  0
 20 19  1  0
 21 17  1  0
 22 15  1  0
 23 22  1  0
 24 22  2  0
M  END
$$$$
