FVV.pdb
     RDKit          3D

 26 26  0  0  1  0  0  0  0  0999 V2000
    5.2746  -18.1766   25.3182 N   0  0  0  0  0  0  0  0  0  0  0  0
    5.8841  -16.8659   25.3053 C   0  0  1  0  0  0  0  0  0  0  0  0
    6.2595  -16.4700   26.7075 C   0  0  0  0  0  0  0  0  0  0  0  0
    6.3549  -14.9953   26.7912 C   0  0  0  0  0  0  0  0  0  0  0  0
    7.5670  -14.4484   27.1360 C   0  0  0  0  0  0  0  0  0  0  0  0
    7.7310  -13.0904   27.2338 C   0  0  0  0  0  0  0  0  0  0  0  0
    6.6369  -12.2846   26.9743 C   0  0  0  0  0  0  0  0  0  0  0  0
    5.4288  -12.8278   26.6306 C   0  0  0  0  0  0  0  0  0  0  0  0
    5.2604  -14.1845   26.5318 C   0  0  0  0  0  0  0  0  0  0  0  0
    7.0745  -16.8682   24.4185 C   0  0  0  0  0  0  0  0  0  0  0  0
    7.7117  -17.9338   24.2247 O   0  0  0  0  0  0  0  0  0  0  0  0
    8.2946  -13.4035   22.0755 C   0  0  0  0  0  0  0  0  0  0  0  0
    8.4857  -14.8275   21.6654 C   0  0  1  0  0  0  0  0  0  0  0  0
    9.6188  -14.9763   20.6824 C   0  0  0  0  0  0  0  0  0  0  0  0
    8.6705  -15.7046   22.8912 C   0  0  2  0  0  0  0  0  0  0  0  0
    7.5411  -15.6973   23.7620 N   0  0  0  0  0  0  0  0  0  0  0  0
    9.9525  -15.4259   23.5835 C   0  0  0  0  0  0  0  0  0  0  0  0
   10.7041  -14.4637   23.3070 O   0  0  0  0  0  0  0  0  0  0  0  0
    9.3501  -15.2441   27.3336 C   0  0  0  0  0  0  0  0  0  0  0  0
   10.3542  -14.6702   26.3769 C   0  0  1  0  0  0  0  0  0  0  0  0
   11.3116  -13.7052   26.9996 C   0  0  0  0  0  0  0  0  0  0  0  0
   11.1787  -15.7950   25.7420 C   0  0  2  0  0  0  0  0  0  0  0  0
   10.3877  -16.2829   24.6320 N   0  0  0  0  0  0  0  0  0  0  0  0
   11.5257  -16.8467   26.6919 C   0  0  0  0  0  0  0  0  0  0  0  0
   12.5186  -16.7064   27.4442 O   0  0  0  0  0  0  0  0  0  0  0  0
   10.7778  -18.0010   26.7801 O   0  0  0  0  0  0  0  0  0  0  0  0
  2 10  1  0
  2  1  1  1
  3  2  1  0
  4  3  1  0
  5  4  2  0
  6  5  1  0
  7  8  1  0
  7  6  2  0
  8  9  2  0
  9  4  1  0
 10 11  2  0
 13 12  1  1
 13 14  1  0
 15 13  1  0
 15 16  1  1
 16 10  1  0
 17 18  2  0
 17 15  1  0
 20 19  1  1
 20 21  1  0
 20 22  1  0
 22 23  1  6
 23 17  1  0
 24 26  1  0
 24 22  1  0
 25 24  2  0
M  END
$$$$
