FVV.pdb
     RDKit          3D

 26 26  0  0  1  0  0  0  0  0999 V2000
    5.3407  -18.2108   24.8970 N   0  0  0  0  0  0  0  0  0  0  0  0
    5.8336  -16.8548   24.9859 C   0  0  1  0  0  0  0  0  0  0  0  0
    5.8131  -16.4033   26.4211 C   0  0  0  0  0  0  0  0  0  0  0  0
    5.9451  -14.9300   26.4730 C   0  0  0  0  0  0  0  0  0  0  0  0
    4.8954  -14.1742   26.0104 C   0  0  0  0  0  0  0  0  0  0  0  0
    4.9459  -12.8038   26.0267 C   0  0  0  0  0  0  0  0  0  0  0  0
    6.0883  -12.2028   26.5241 C   0  0  0  0  0  0  0  0  0  0  0  0
    7.1348  -12.9543   26.9854 C   0  0  0  0  0  0  0  0  0  0  0  0
    7.0886  -14.3241   26.9709 C   0  0  0  0  0  0  0  0  0  0  0  0
    7.2057  -16.7755   24.4249 C   0  0  0  0  0  0  0  0  0  0  0  0
    7.9845  -17.7563   24.5283 O   0  0  0  0  0  0  0  0  0  0  0  0
   10.4202  -14.6632   21.3655 C   0  0  0  0  0  0  0  0  0  0  0  0
    9.0813  -14.5701   22.0221 C   0  0  1  0  0  0  0  0  0  0  0  0
    7.9608  -14.7407   21.0282 C   0  0  0  0  0  0  0  0  0  0  0  0
    8.9896  -15.5641   23.1665 C   0  0  2  0  0  0  0  0  0  0  0  0
    7.6944  -15.6180   23.7608 N   0  0  0  0  0  0  0  0  0  0  0  0
   10.0843  -15.3785   24.1502 C   0  0  0  0  0  0  0  0  0  0  0  0
   10.9192  -14.4469   24.1030 O   0  0  0  0  0  0  0  0  0  0  0  0
   10.9120  -14.4416   28.3666 C   0  0  0  0  0  0  0  0  0  0  0  0
   10.3352  -14.7287   27.0110 C   0  0  1  0  0  0  0  0  0  0  0  0
   10.4980  -13.6143   26.0274 C   0  0  0  0  0  0  0  0  0  0  0  0
   10.9954  -15.9748   26.4114 C   0  0  2  0  0  0  0  0  0  0  0  0
   10.2257  -16.2958   25.2281 N   0  0  0  0  0  0  0  0  0  0  0  0
   11.0677  -17.0854   27.3550 C   0  0  0  0  0  0  0  0  0  0  0  0
   10.1821  -17.9726   27.3448 O   0  0  0  0  0  0  0  0  0  0  0  0
   12.0985  -17.1802   28.2648 O   0  0  0  0  0  0  0  0  0  0  0  0
  2 10  1  0
  2  1  1  1
  3  2  1  0
  4  3  1  0
  5  4  2  0
  6  5  1  0
  7  8  1  0
  7  6  2  0
  8  9  2  0
  9  4  1  0
 10 11  2  0
 13 12  1  6
 13 14  1  0
 15 13  1  0
 15 16  1  1
 16 10  1  0
 17 18  2  0
 17 15  1  0
 20 19  1  1
 20 21  1  0
 20 22  1  0
 22 23  1  6
 23 17  1  0
 24 26  1  0
 24 22  1  0
 25 24  2  0
M  END
$$$$
