FVV.pdb
     RDKit          3D

 26 26  0  0  1  0  0  0  0  0999 V2000
    6.0298  -16.8483   25.7819 N   0  0  0  0  0  0  0  0  0  0  0  0
    6.0819  -16.8619   24.3373 C   0  0  1  0  0  0  0  0  0  0  0  0
    5.3797  -15.6465   23.7955 C   0  0  0  0  0  0  0  0  0  0  0  0
    5.9759  -14.4299   24.3917 C   0  0  0  0  0  0  0  0  0  0  0  0
    5.4361  -13.9580   25.5635 C   0  0  0  0  0  0  0  0  0  0  0  0
    5.9356  -12.8361   26.1740 C   0  0  0  0  0  0  0  0  0  0  0  0
    7.0022  -12.1914   25.5735 C   0  0  0  0  0  0  0  0  0  0  0  0
    7.5410  -12.6603   24.4063 C   0  0  0  0  0  0  0  0  0  0  0  0
    7.0449  -13.7811   23.7927 C   0  0  0  0  0  0  0  0  0  0  0  0
    7.4935  -16.9062   23.8805 C   0  0  0  0  0  0  0  0  0  0  0  0
    7.7547  -17.0351   22.6580 O   0  0  0  0  0  0  0  0  0  0  0  0
   11.5357  -15.2855   23.0307 C   0  0  0  0  0  0  0  0  0  0  0  0
   10.0884  -15.5642   23.2760 C   0  0  1  0  0  0  0  0  0  0  0  0
    9.3633  -15.9065   21.9996 C   0  0  0  0  0  0  0  0  0  0  0  0
    9.9355  -16.6460   24.3308 C   0  0  2  0  0  0  0  0  0  0  0  0
    8.5910  -16.8079   24.7780 N   0  0  0  0  0  0  0  0  0  0  0  0
   10.9108  -16.4831   25.4366 C   0  0  0  0  0  0  0  0  0  0  0  0
   12.1525  -16.5497   25.2920 O   0  0  0  0  0  0  0  0  0  0  0  0
   11.5496  -14.6921   29.9511 C   0  0  0  0  0  0  0  0  0  0  0  0
   10.7224  -14.9259   28.7208 C   0  0  1  0  0  0  0  0  0  0  0  0
   10.5612  -13.7192   27.8525 C   0  0  0  0  0  0  0  0  0  0  0  0
   11.3521  -16.0303   27.8653 C   0  0  2  0  0  0  0  0  0  0  0  0
   10.4436  -16.2342   26.7568 N   0  0  0  0  0  0  0  0  0  0  0  0
   11.6052  -17.2538   28.6189 C   0  0  0  0  0  0  0  0  0  0  0  0
   10.7709  -18.1890   28.5903 O   0  0  0  0  0  0  0  0  0  0  0  0
   12.7524  -17.4039   29.3678 O   0  0  0  0  0  0  0  0  0  0  0  0
  2 10  1  0
  2  1  1  1
  3  2  1  0
  4  3  1  0
  5  4  2  0
  6  5  1  0
  7  8  1  0
  7  6  2  0
  8  9  2  0
  9  4  1  0
 10 11  2  0
 13 12  1  6
 13 14  1  0
 15 13  1  0
 15 16  1  1
 16 10  1  0
 17 18  2  0
 17 15  1  0
 20 19  1  1
 20 21  1  0
 20 22  1  0
 22 23  1  6
 23 17  1  0
 24 26  1  0
 24 22  1  0
 25 24  2  0
M  END
$$$$
