FVV.pdb
     RDKit          3D

 26 26  0  0  1  0  0  0  0  0999 V2000
    4.9826  -17.8873   25.2517 N   0  0  0  0  0  0  0  0  0  0  0  0
    5.6813  -16.6222   25.2864 C   0  0  1  0  0  0  0  0  0  0  0  0
    5.9024  -16.2067   26.7155 C   0  0  0  0  0  0  0  0  0  0  0  0
    6.2506  -14.7687   26.7592 C   0  0  0  0  0  0  0  0  0  0  0  0
    5.2229  -13.8577   26.7287 C   0  0  0  0  0  0  0  0  0  0  0  0
    5.4685  -12.5090   26.7656 C   0  0  0  0  0  0  0  0  0  0  0  0
    6.7855  -12.0913   26.8347 C   0  0  0  0  0  0  0  0  0  0  0  0
    7.8103  -12.9975   26.8652 C   0  0  0  0  0  0  0  0  0  0  0  0
    7.5695  -14.3464   26.8285 C   0  0  0  0  0  0  0  0  0  0  0  0
    6.9717  -16.7348   24.5614 C   0  0  0  0  0  0  0  0  0  0  0  0
    7.6936  -17.7515   24.7175 O   0  0  0  0  0  0  0  0  0  0  0  0
   10.0458  -15.3666   21.0045 C   0  0  0  0  0  0  0  0  0  0  0  0
    8.7611  -15.0725   21.7084 C   0  0  1  0  0  0  0  0  0  0  0  0
    7.5675  -15.3934   20.8456 C   0  0  0  0  0  0  0  0  0  0  0  0
    8.7172  -15.7981   23.0417 C   0  0  2  0  0  0  0  0  0  0  0  0
    7.4431  -15.7261   23.6783 N   0  0  0  0  0  0  0  0  0  0  0  0
    9.8422  -15.4033   23.9244 C   0  0  0  0  0  0  0  0  0  0  0  0
   10.6586  -14.4931   23.6554 O   0  0  0  0  0  0  0  0  0  0  0  0
   11.2739  -14.4558   28.2648 C   0  0  0  0  0  0  0  0  0  0  0  0
   10.3309  -14.8181   27.1548 C   0  0  1  0  0  0  0  0  0  0  0  0
    9.7343  -13.6423   26.4495 C   0  0  0  0  0  0  0  0  0  0  0  0
   11.0553  -15.6680   26.1054 C   0  0  2  0  0  0  0  0  0  0  0  0
   10.0371  -16.0777   25.1614 N   0  0  0  0  0  0  0  0  0  0  0  0
   11.7702  -16.7981   26.6890 C   0  0  0  0  0  0  0  0  0  0  0  0
   11.2092  -17.9159   26.7737 O   0  0  0  0  0  0  0  0  0  0  0  0
   13.0608  -16.6609   27.1527 O   0  0  0  0  0  0  0  0  0  0  0  0
  2 10  1  0
  2  1  1  1
  3  2  1  0
  4  3  1  0
  5  4  2  0
  6  5  1  0
  7  8  1  0
  7  6  2  0
  8  9  2  0
  9  4  1  0
 10 11  2  0
 13 12  1  6
 13 14  1  0
 15 13  1  0
 15 16  1  1
 16 10  1  0
 17 18  2  0
 17 15  1  0
 20 19  1  1
 20 21  1  0
 20 22  1  0
 22 23  1  6
 23 17  1  0
 24 26  1  0
 24 22  1  0
 25 24  2  0
M  END
$$$$
