FVV.pdb
     RDKit          3D

 26 26  0  0  1  0  0  0  0  0999 V2000
    5.9530  -18.2149   25.6263 N   0  0  0  0  0  0  0  0  0  0  0  0
    6.3090  -16.8220   25.4757 C   0  0  1  0  0  0  0  0  0  0  0  0
    6.8420  -16.2933   26.7797 C   0  0  0  0  0  0  0  0  0  0  0  0
    6.7895  -14.8142   26.7666 C   0  0  0  0  0  0  0  0  0  0  0  0
    7.9542  -14.1278   27.0108 C   0  0  0  0  0  0  0  0  0  0  0  0
    7.9826  -12.7567   27.0153 C   0  0  0  0  0  0  0  0  0  0  0  0
    6.8004  -12.0828   26.7660 C   0  0  0  0  0  0  0  0  0  0  0  0
    5.6395  -12.7650   26.5225 C   0  0  0  0  0  0  0  0  0  0  0  0
    5.6065  -14.1353   26.5172 C   0  0  0  0  0  0  0  0  0  0  0  0
    7.3119  -16.6685   24.3920 C   0  0  0  0  0  0  0  0  0  0  0  0
    8.1887  -17.5516   24.2176 O   0  0  0  0  0  0  0  0  0  0  0  0
    8.5731  -14.5805   20.1205 C   0  0  0  0  0  0  0  0  0  0  0  0
    7.7548  -14.4460   21.3634 C   0  0  1  0  0  0  0  0  0  0  0  0
    6.2794  -14.5495   21.0724 C   0  0  0  0  0  0  0  0  0  0  0  0
    8.2078  -15.4591   22.4000 C   0  0  2  0  0  0  0  0  0  0  0  0
    7.3305  -15.5458   23.5210 N   0  0  0  0  0  0  0  0  0  0  0  0
    9.6302  -15.2687   22.7758 C   0  0  0  0  0  0  0  0  0  0  0  0
   10.0216  -14.4739   23.6603 O   0  0  0  0  0  0  0  0  0  0  0  0
   12.8532  -17.6181   24.6298 C   0  0  0  0  0  0  0  0  0  0  0  0
   11.5865  -17.1459   23.9778 C   0  0  1  0  0  0  0  0  0  0  0  0
   10.7138  -16.3161   24.8642 C   0  0  0  0  0  0  0  0  0  0  0  0
   11.9138  -16.3090   22.7367 C   0  0  2  0  0  0  0  0  0  0  0  0
   10.6405  -16.0185   22.1122 N   0  0  0  0  0  0  0  0  0  0  0  0
   12.8447  -16.9776   21.8337 C   0  0  0  0  0  0  0  0  0  0  0  0
   12.4669  -17.9725   21.1713 O   0  0  0  0  0  0  0  0  0  0  0  0
   14.1419  -16.5339   21.6926 O   0  0  0  0  0  0  0  0  0  0  0  0
  2 10  1  0
  2  1  1  1
  3  2  1  0
  4  3  1  0
  5  4  2  0
  6  5  1  0
  7  8  1  0
  7  6  2  0
  8  9  2  0
  9  4  1  0
 10 11  2  0
 13 12  1  6
 13 14  1  0
 15 13  1  0
 15 16  1  1
 16 10  1  0
 17 18  2  0
 17 15  1  0
 20 19  1  1
 20 21  1  0
 20 22  1  0
 22 23  1  6
 23 17  1  0
 24 26  1  0
 24 22  1  0
 25 24  2  0
M  END
$$$$
