FVV.pdb
     RDKit          3D

 26 26  0  0  1  0  0  0  0  0999 V2000
    7.0938  -18.4716   19.3566 N   0  0  0  0  0  0  0  0  0  0  0  0
    7.5229  -17.1843   19.8550 C   0  0  1  0  0  0  0  0  0  0  0  0
    6.9518  -16.0927   18.9914 C   0  0  0  0  0  0  0  0  0  0  0  0
    7.3564  -14.7764   19.5342 C   0  0  0  0  0  0  0  0  0  0  0  0
    6.5170  -14.1675   20.4353 C   0  0  0  0  0  0  0  0  0  0  0  0
    6.8253  -12.9474   20.9802 C   0  0  0  0  0  0  0  0  0  0  0  0
    8.0099  -12.3457   20.5950 C   0  0  0  0  0  0  0  0  0  0  0  0
    8.8471  -12.9510   19.6977 C   0  0  0  0  0  0  0  0  0  0  0  0
    8.5430  -14.1703   19.1504 C   0  0  0  0  0  0  0  0  0  0  0  0
    7.0980  -17.0195   21.2678 C   0  0  0  0  0  0  0  0  0  0  0  0
    5.8785  -17.0686   21.5670 O   0  0  0  0  0  0  0  0  0  0  0  0
    7.4836  -18.0397   25.8265 C   0  0  0  0  0  0  0  0  0  0  0  0
    7.8047  -18.1480   24.3713 C   0  0  1  0  0  0  0  0  0  0  0  0
    6.9931  -19.2270   23.7010 C   0  0  0  0  0  0  0  0  0  0  0  0
    7.6340  -16.7984   23.6962 C   0  0  2  0  0  0  0  0  0  0  0  0
    8.0236  -16.8038   22.3244 N   0  0  0  0  0  0  0  0  0  0  0  0
    8.2536  -15.7036   24.4825 C   0  0  0  0  0  0  0  0  0  0  0  0
    9.4789  -15.4471   24.4830 O   0  0  0  0  0  0  0  0  0  0  0  0
    7.2951  -11.7773   27.3501 C   0  0  0  0  0  0  0  0  0  0  0  0
    6.8205  -12.9090   26.4860 C   0  0  1  0  0  0  0  0  0  0  0  0
    6.1783  -12.4756   25.2071 C   0  0  0  0  0  0  0  0  0  0  0  0
    7.9951  -13.8249   26.1263 C   0  0  2  0  0  0  0  0  0  0  0  0
    7.4366  -14.8724   25.2978 N   0  0  0  0  0  0  0  0  0  0  0  0
    8.6870  -14.3444   27.3013 C   0  0  0  0  0  0  0  0  0  0  0  0
    8.2598  -15.3750   27.8730 O   0  0  0  0  0  0  0  0  0  0  0  0
    9.8102  -13.7203   27.7995 O   0  0  0  0  0  0  0  0  0  0  0  0
  2 10  1  0
  2  1  1  6
  3  2  1  0
  4  3  1  0
  5  4  2  0
  6  5  1  0
  7  8  1  0
  7  6  2  0
  8  9  2  0
  9  4  1  0
 10 11  2  0
 13 12  1  1
 13 14  1  0
 15 13  1  0
 15 16  1  6
 16 10  1  0
 17 18  2  0
 17 15  1  0
 20 19  1  6
 20 21  1  0
 20 22  1  0
 22 23  1  1
 23 17  1  0
 24 26  1  0
 24 22  1  0
 25 24  2  0
M  END
$$$$
