FVV.pdb
     RDKit          3D

 26 26  0  0  1  0  0  0  0  0999 V2000
    5.6223  -17.3202   24.2502 N   0  0  0  0  0  0  0  0  0  0  0  0
    6.6224  -16.3058   24.4963 C   0  0  1  0  0  0  0  0  0  0  0  0
    6.4553  -15.7593   25.8881 C   0  0  0  0  0  0  0  0  0  0  0  0
    6.3262  -14.2862   25.8238 C   0  0  0  0  0  0  0  0  0  0  0  0
    7.3666  -13.5732   25.2795 C   0  0  0  0  0  0  0  0  0  0  0  0
    7.3184  -12.2058   25.1868 C   0  0  0  0  0  0  0  0  0  0  0  0
    6.1878  -11.5633   25.6589 C   0  0  0  0  0  0  0  0  0  0  0  0
    5.1505  -12.2721   26.2012 C   0  0  0  0  0  0  0  0  0  0  0  0
    5.1946  -13.6388   26.2959 C   0  0  0  0  0  0  0  0  0  0  0  0
    7.9803  -16.8759   24.3101 C   0  0  0  0  0  0  0  0  0  0  0  0
    8.2397  -18.0315   24.7302 O   0  0  0  0  0  0  0  0  0  0  0  0
   12.5922  -16.7218   22.6335 C   0  0  0  0  0  0  0  0  0  0  0  0
   11.2011  -16.1891   22.5174 C   0  0  1  0  0  0  0  0  0  0  0  0
   10.5380  -16.6378   21.2403 C   0  0  0  0  0  0  0  0  0  0  0  0
   10.3927  -16.5653   23.7467 C   0  0  2  0  0  0  0  0  0  0  0  0
    9.0270  -16.1630   23.6651 N   0  0  0  0  0  0  0  0  0  0  0  0
   11.0608  -16.1389   25.0007 C   0  0  0  0  0  0  0  0  0  0  0  0
   11.7509  -15.1001   25.1093 O   0  0  0  0  0  0  0  0  0  0  0  0
   10.6632  -14.7723   29.1644 C   0  0  0  0  0  0  0  0  0  0  0  0
   10.5670  -15.1668   27.7195 C   0  0  1  0  0  0  0  0  0  0  0  0
   11.0806  -14.1347   26.7672 C   0  0  0  0  0  0  0  0  0  0  0  0
   11.3557  -16.4571   27.4726 C   0  0  2  0  0  0  0  0  0  0  0  0
   10.9316  -16.9337   26.1731 N   0  0  0  0  0  0  0  0  0  0  0  0
   11.1631  -17.4476   28.5265 C   0  0  0  0  0  0  0  0  0  0  0  0
   10.3439  -18.3823   28.3633 O   0  0  0  0  0  0  0  0  0  0  0  0
   11.8694  -17.3762   29.7078 O   0  0  0  0  0  0  0  0  0  0  0  0
  2 10  1  0
  2  1  1  1
  3  2  1  0
  4  3  1  0
  5  4  2  0
  6  5  1  0
  7  8  1  0
  7  6  2  0
  8  9  2  0
  9  4  1  0
 10 11  2  0
 13 12  1  1
 13 14  1  0
 15 13  1  0
 15 16  1  6
 16 10  1  0
 17 18  2  0
 17 15  1  0
 20 19  1  1
 20 21  1  0
 20 22  1  0
 22 23  1  6
 23 17  1  0
 24 26  1  0
 24 22  1  0
 25 24  2  0
M  END
$$$$
