FVV.pdb
     RDKit          3D

 26 26  0  0  1  0  0  0  0  0999 V2000
    5.5562  -18.0370   25.5686 N   0  0  0  0  0  0  0  0  0  0  0  0
    6.0369  -16.6754   25.4996 C   0  0  1  0  0  0  0  0  0  0  0  0
    6.3946  -16.1959   26.8802 C   0  0  0  0  0  0  0  0  0  0  0  0
    6.5146  -14.7206   26.8705 C   0  0  0  0  0  0  0  0  0  0  0  0
    7.7502  -14.1749   27.1206 C   0  0  0  0  0  0  0  0  0  0  0  0
    7.9378  -12.8164   27.1285 C   0  0  0  0  0  0  0  0  0  0  0  0
    6.8430  -12.0090   26.8765 C   0  0  0  0  0  0  0  0  0  0  0  0
    5.6116  -12.5511   26.6271 C   0  0  0  0  0  0  0  0  0  0  0  0
    5.4195  -13.9083   26.6183 C   0  0  0  0  0  0  0  0  0  0  0  0
    7.2079  -16.5958   24.5909 C   0  0  0  0  0  0  0  0  0  0  0  0
    8.0479  -17.5300   24.5650 O   0  0  0  0  0  0  0  0  0  0  0  0
    9.4453  -14.6979   20.6660 C   0  0  0  0  0  0  0  0  0  0  0  0
    8.3054  -14.5664   21.6229 C   0  0  1  0  0  0  0  0  0  0  0  0
    6.9885  -14.8984   20.9689 C   0  0  0  0  0  0  0  0  0  0  0  0
    8.5608  -15.4098   22.8597 C   0  0  2  0  0  0  0  0  0  0  0  0
    7.4321  -15.4892   23.7278 N   0  0  0  0  0  0  0  0  0  0  0  0
    9.8119  -15.0138   23.5514 C   0  0  0  0  0  0  0  0  0  0  0  0
   10.0617  -13.8493   23.9371 O   0  0  0  0  0  0  0  0  0  0  0  0
   10.3528  -14.3106   25.9260 C   0  0  0  0  0  0  0  0  0  0  0  0
   11.3965  -15.3839   26.0324 C   0  0  1  0  0  0  0  0  0  0  0  0
   10.9014  -16.6629   26.6281 C   0  0  0  0  0  0  0  0  0  0  0  0
   11.9613  -15.7080   24.6454 C   0  0  2  0  0  0  0  0  0  0  0  0
   10.8130  -15.9905   23.8102 N   0  0  0  0  0  0  0  0  0  0  0  0
   12.9240  -16.8042   24.6692 C   0  0  0  0  0  0  0  0  0  0  0  0
   12.5929  -17.9359   24.2436 O   0  0  0  0  0  0  0  0  0  0  0  0
   14.2009  -16.6194   25.1538 O   0  0  0  0  0  0  0  0  0  0  0  0
  2 10  1  0
  2  1  1  1
  3  2  1  0
  4  3  1  0
  5  4  2  0
  6  5  1  0
  7  8  1  0
  7  6  2  0
  8  9  2  0
  9  4  1  0
 10 11  2  0
 13 12  1  6
 13 14  1  0
 15 13  1  0
 15 16  1  1
 16 10  1  0
 17 18  2  0
 17 15  1  0
 20 19  1  6
 20 21  1  0
 20 22  1  0
 22 23  1  6
 23 17  1  0
 24 26  1  0
 24 22  1  0
 25 24  2  0
M  END
$$$$
