FVV.pdb
     RDKit          3D

 26 26  0  0  1  0  0  0  0  0999 V2000
    5.5907  -17.8606   24.4136 N   0  0  0  0  0  0  0  0  0  0  0  0
    6.3190  -16.6253   24.5962 C   0  0  1  0  0  0  0  0  0  0  0  0
    6.0412  -16.0736   25.9682 C   0  0  0  0  0  0  0  0  0  0  0  0
    6.2816  -14.6131   25.9667 C   0  0  0  0  0  0  0  0  0  0  0  0
    5.2615  -13.7944   25.5468 C   0  0  0  0  0  0  0  0  0  0  0  0
    5.4111  -12.4315   25.5179 C   0  0  0  0  0  0  0  0  0  0  0  0
    6.6231  -11.9034   25.9253 C   0  0  0  0  0  0  0  0  0  0  0  0
    7.6402  -12.7175   26.3440 C   0  0  0  0  0  0  0  0  0  0  0  0
    7.4950  -14.0801   26.3744 C   0  0  0  0  0  0  0  0  0  0  0  0
    7.7721  -16.8592   24.4032 C   0  0  0  0  0  0  0  0  0  0  0  0
    8.2783  -17.9646   24.7210 O   0  0  0  0  0  0  0  0  0  0  0  0
   11.9792  -15.6718   22.1588 C   0  0  0  0  0  0  0  0  0  0  0  0
   10.5315  -15.3719   22.3745 C   0  0  1  0  0  0  0  0  0  0  0  0
    9.7152  -15.6499   21.1381 C   0  0  0  0  0  0  0  0  0  0  0  0
   10.0152  -16.1291   23.5854 C   0  0  2  0  0  0  0  0  0  0  0  0
    8.6405  -15.8719   23.8641 N   0  0  0  0  0  0  0  0  0  0  0  0
   10.8995  -15.9579   24.7640 C   0  0  0  0  0  0  0  0  0  0  0  0
   12.1270  -16.2040   24.7615 O   0  0  0  0  0  0  0  0  0  0  0  0
   10.9327  -14.7548   29.5881 C   0  0  0  0  0  0  0  0  0  0  0  0
   10.2179  -14.8315   28.2706 C   0  0  1  0  0  0  0  0  0  0  0  0
    9.7742  -13.5072   27.7364 C   0  0  0  0  0  0  0  0  0  0  0  0
   11.1250  -15.4748   27.2164 C   0  0  2  0  0  0  0  0  0  0  0  0
   10.3550  -15.4866   25.9906 N   0  0  0  0  0  0  0  0  0  0  0  0
   11.5879  -16.8032   27.6039 C   0  0  0  0  0  0  0  0  0  0  0  0
   10.8195  -17.7880   27.4981 O   0  0  0  0  0  0  0  0  0  0  0  0
   12.8633  -16.9992   28.0878 O   0  0  0  0  0  0  0  0  0  0  0  0
  2 10  1  0
  2  1  1  1
  3  2  1  0
  4  3  1  0
  5  4  2  0
  6  5  1  0
  7  8  1  0
  7  6  2  0
  8  9  2  0
  9  4  1  0
 10 11  2  0
 13 12  1  6
 13 14  1  0
 15 13  1  0
 15 16  1  1
 16 10  1  0
 17 18  2  0
 17 15  1  0
 20 19  1  1
 20 21  1  0
 20 22  1  0
 22 23  1  6
 23 17  1  0
 24 26  1  0
 24 22  1  0
 25 24  2  0
M  END
$$$$
