DWA.pdb
     RDKit          3D

 28 29  0  0  1  0  0  0  0  0999 V2000
   10.0067  -17.4443   19.1667 N   0  0  0  0  0  0  0  0  0  0  0  0
    9.3447  -17.7209   20.4083 C   0  0  1  0  0  0  0  0  0  0  0  0
    9.1349  -19.2217   20.4742 C   0  0  0  0  0  0  0  0  0  0  0  0
    8.7320  -19.7228   19.1592 C   0  0  0  0  0  0  0  0  0  0  0  0
    7.5611  -20.1580   19.0097 O   0  0  0  0  0  0  0  0  0  0  0  0
   10.1411  -17.2556   21.5823 C   0  0  0  0  0  0  0  0  0  0  0  0
   11.3893  -17.4262   21.6023 O   0  0  0  0  0  0  0  0  0  0  0  0
    9.5652  -19.7512   18.0504 O   0  0  0  0  0  0  0  0  0  0  0  0
    9.5615  -16.6142   22.7098 N   0  0  0  0  0  0  0  0  0  0  0  0
   10.3419  -16.3262   23.9364 C   0  0  1  0  0  0  0  0  0  0  0  0
    9.8616  -15.0311   24.5226 C   0  0  0  0  0  0  0  0  0  0  0  0
    8.5837  -14.5560   23.9603 C   0  0  0  0  0  0  0  0  0  0  0  0
    7.3270  -14.7073   24.5715 C   0  0  0  0  0  0  0  0  0  0  0  0
    6.3774  -14.1941   23.7767 N   0  0  0  0  0  0  0  0  0  0  0  0
    6.9309  -13.6977   22.6488 C   0  0  0  0  0  0  0  0  0  0  0  0
    6.3697  -13.0657   21.5583 C   0  0  0  0  0  0  0  0  0  0  0  0
    7.2236  -12.6502   20.5593 C   0  0  0  0  0  0  0  0  0  0  0  0
    8.5943  -12.8619   20.6518 C   0  0  0  0  0  0  0  0  0  0  0  0
    9.1292  -13.4933   21.7457 C   0  0  0  0  0  0  0  0  0  0  0  0
    8.2938  -13.9211   22.7624 C   0  0  0  0  0  0  0  0  0  0  0  0
   10.4147  -17.4812   24.8089 C   0  0  0  0  0  0  0  0  0  0  0  0
    9.4911  -18.3056   24.9889 O   0  0  0  0  0  0  0  0  0  0  0  0
   13.1237  -19.4946   26.2058 C   0  0  0  0  0  0  0  0  0  0  0  0
   11.7401  -18.9328   26.4062 C   0  0  2  0  0  0  0  0  0  0  0  0
   11.6192  -17.7587   25.5571 N   0  0  0  0  0  0  0  0  0  0  0  0
   11.4933  -18.5320   27.8119 C   0  0  0  0  0  0  0  0  0  0  0  0
   11.5440  -19.3874   28.7328 O   0  0  0  0  0  0  0  0  0  0  0  0
   11.2005  -17.2209   28.1685 O   0  0  0  0  0  0  0  0  0  0  0  0
  2  1  1  6
  2  6  1  0
  2  3  1  0
  3  4  1  0
  4  5  2  0
  4  8  1  0
  6  7  2  0
  9 10  1  0
  9  6  1  0
 10 11  1  1
 12 11  1  0
 13 12  2  0
 14 13  1  0
 15 14  1  0
 15 20  2  0
 16 15  1  0
 17 16  2  0
 17 18  1  0
 18 19  2  0
 19 20  1  0
 20 12  1  0
 21 22  2  0
 21 10  1  0
 24 23  1  1
 24 26  1  0
 24 25  1  0
 25 21  1  0
 26 28  1  0
 27 26  2  0
M  END
$$$$
