DWA.pdb
     RDKit          3D

 28 29  0  0  1  0  0  0  0  0999 V2000
   10.7328  -16.4887   20.2090 N   0  0  0  0  0  0  0  0  0  0  0  0
   11.1693  -17.1329   21.4135 C   0  0  1  0  0  0  0  0  0  0  0  0
   12.6847  -17.1798   21.3671 C   0  0  0  0  0  0  0  0  0  0  0  0
   13.1195  -18.0058   20.2395 C   0  0  0  0  0  0  0  0  0  0  0  0
   14.2516  -17.7930   19.7339 O   0  0  0  0  0  0  0  0  0  0  0  0
   10.7093  -16.4066   22.6342 C   0  0  0  0  0  0  0  0  0  0  0  0
   11.0075  -15.1929   22.7931 O   0  0  0  0  0  0  0  0  0  0  0  0
   12.3572  -19.0220   19.6821 O   0  0  0  0  0  0  0  0  0  0  0  0
    9.9340  -17.0175   23.6561 N   0  0  0  0  0  0  0  0  0  0  0  0
    9.5064  -16.2763   24.8663 C   0  0  1  0  0  0  0  0  0  0  0  0
    8.0611  -16.5786   25.1334 C   0  0  0  0  0  0  0  0  0  0  0  0
    7.1878  -15.3903   25.1202 C   0  0  0  0  0  0  0  0  0  0  0  0
    6.0464  -15.2363   24.3145 C   0  0  0  0  0  0  0  0  0  0  0  0
    5.5082  -14.0271   24.5262 N   0  0  0  0  0  0  0  0  0  0  0  0
    6.2319  -13.3481   25.4427 C   0  0  0  0  0  0  0  0  0  0  0  0
    6.0651  -12.0924   25.9896 C   0  0  0  0  0  0  0  0  0  0  0  0
    6.9811  -11.6881   26.9369 C   0  0  0  0  0  0  0  0  0  0  0  0
    8.0290  -12.5161   27.3221 C   0  0  0  0  0  0  0  0  0  0  0  0
    8.1749  -13.7604   26.7636 C   0  0  0  0  0  0  0  0  0  0  0  0
    7.2694  -14.1903   25.8098 C   0  0  0  0  0  0  0  0  0  0  0  0
   10.4476  -16.4411   25.9560 C   0  0  0  0  0  0  0  0  0  0  0  0
   11.2364  -17.4035   26.0855 O   0  0  0  0  0  0  0  0  0  0  0  0
   11.4051  -14.3264   28.9212 C   0  0  0  0  0  0  0  0  0  0  0  0
   11.4238  -15.6163   28.1428 C   0  0  2  0  0  0  0  0  0  0  0  0
   10.5314  -15.4527   27.0066 N   0  0  0  0  0  0  0  0  0  0  0  0
   10.9597  -16.7688   28.9515 C   0  0  0  0  0  0  0  0  0  0  0  0
    9.7857  -17.2018   28.8222 O   0  0  0  0  0  0  0  0  0  0  0  0
   11.7830  -17.4093   29.8700 O   0  0  0  0  0  0  0  0  0  0  0  0
  2  1  1  6
  2  6  1  0
  2  3  1  0
  3  4  1  0
  4  5  2  0
  4  8  1  0
  6  7  2  0
  9 10  1  0
  9  6  1  0
 10 11  1  1
 12 11  1  0
 13 12  2  0
 14 13  1  0
 15 14  1  0
 15 20  2  0
 16 15  1  0
 17 16  2  0
 17 18  1  0
 18 19  2  0
 19 20  1  0
 20 12  1  0
 21 22  2  0
 21 10  1  0
 24 23  1  1
 24 26  1  0
 24 25  1  0
 25 21  1  0
 26 28  1  0
 27 26  2  0
M  END
$$$$
