DWA.pdb
     RDKit          3D

 28 29  0  0  1  0  0  0  0  0999 V2000
   10.8871  -16.3538   19.7747 N   0  0  0  0  0  0  0  0  0  0  0  0
   11.0257  -17.1137   20.9829 C   0  0  1  0  0  0  0  0  0  0  0  0
   12.4894  -17.4932   21.1026 C   0  0  0  0  0  0  0  0  0  0  0  0
   12.7530  -18.7001   20.3173 C   0  0  0  0  0  0  0  0  0  0  0  0
   11.7947  -19.4700   20.0498 O   0  0  0  0  0  0  0  0  0  0  0  0
   10.5899  -16.3399   22.1831 C   0  0  0  0  0  0  0  0  0  0  0  0
   11.0128  -15.1667   22.3620 O   0  0  0  0  0  0  0  0  0  0  0  0
   14.0057  -19.0582   19.8410 O   0  0  0  0  0  0  0  0  0  0  0  0
    9.7025  -16.8602   23.1632 N   0  0  0  0  0  0  0  0  0  0  0  0
    9.2612  -16.0570   24.3280 C   0  0  1  0  0  0  0  0  0  0  0  0
    7.8187  -16.3618   24.6074 C   0  0  0  0  0  0  0  0  0  0  0  0
    7.0742  -15.2391   25.2075 C   0  0  0  0  0  0  0  0  0  0  0  0
    5.7426  -15.3004   25.6536 C   0  0  0  0  0  0  0  0  0  0  0  0
    5.3673  -14.0975   26.1105 N   0  0  0  0  0  0  0  0  0  0  0  0
    6.3851  -13.2166   25.9967 C   0  0  0  0  0  0  0  0  0  0  0  0
    6.4824  -11.8844   26.3426 C   0  0  0  0  0  0  0  0  0  0  0  0
    7.6886  -11.2579   26.1140 C   0  0  0  0  0  0  0  0  0  0  0  0
    8.7609  -11.9453   25.5571 C   0  0  0  0  0  0  0  0  0  0  0  0
    8.6401  -13.2695   25.2206 C   0  0  0  0  0  0  0  0  0  0  0  0
    7.4396  -13.9220   25.4391 C   0  0  0  0  0  0  0  0  0  0  0  0
   10.2002  -16.1478   25.4283 C   0  0  0  0  0  0  0  0  0  0  0  0
   11.0871  -17.0222   25.5463 O   0  0  0  0  0  0  0  0  0  0  0  0
   10.8104  -14.0583   28.5068 C   0  0  0  0  0  0  0  0  0  0  0  0
   11.1178  -15.2215   27.5997 C   0  0  2  0  0  0  0  0  0  0  0  0
   10.1621  -15.1846   26.5046 N   0  0  0  0  0  0  0  0  0  0  0  0
   10.9962  -16.5251   28.2950 C   0  0  0  0  0  0  0  0  0  0  0  0
   11.8561  -16.8725   29.1449 O   0  0  0  0  0  0  0  0  0  0  0  0
    9.9491  -17.4041   28.0444 O   0  0  0  0  0  0  0  0  0  0  0  0
  2  1  1  6
  2  6  1  0
  2  3  1  0
  3  4  1  0
  4  5  2  0
  4  8  1  0
  6  7  2  0
  9 10  1  0
  9  6  1  0
 10 11  1  1
 12 11  1  0
 13 12  2  0
 14 13  1  0
 15 14  1  0
 15 20  2  0
 16 15  1  0
 17 16  2  0
 17 18  1  0
 18 19  2  0
 19 20  1  0
 20 12  1  0
 21 22  2  0
 21 10  1  0
 24 23  1  1
 24 26  1  0
 24 25  1  0
 25 21  1  0
 26 28  1  0
 27 26  2  0
M  END
$$$$
