DWA.pdb
     RDKit          3D

 28 29  0  0  1  0  0  0  0  0999 V2000
   10.8960  -17.8489   21.3976 N   0  0  0  0  0  0  0  0  0  0  0  0
   11.8338  -16.9489   22.0033 C   0  0  1  0  0  0  0  0  0  0  0  0
   12.2157  -15.9295   20.9470 C   0  0  0  0  0  0  0  0  0  0  0  0
   13.0510  -16.5643   19.9263 C   0  0  0  0  0  0  0  0  0  0  0  0
   13.4207  -17.7542   20.1004 O   0  0  0  0  0  0  0  0  0  0  0  0
   11.2601  -16.2661   23.2007 C   0  0  0  0  0  0  0  0  0  0  0  0
   11.8589  -15.2813   23.7096 O   0  0  0  0  0  0  0  0  0  0  0  0
   13.4691  -15.9344   18.7632 O   0  0  0  0  0  0  0  0  0  0  0  0
   10.0462  -16.6701   23.8186 N   0  0  0  0  0  0  0  0  0  0  0  0
    9.5425  -16.0266   25.0550 C   0  0  1  0  0  0  0  0  0  0  0  0
    8.0503  -16.1773   25.1056 C   0  0  0  0  0  0  0  0  0  0  0  0
    7.3116  -14.9782   24.6683 C   0  0  0  0  0  0  0  0  0  0  0  0
    6.7637  -14.7901   23.3876 C   0  0  0  0  0  0  0  0  0  0  0  0
    6.1917  -13.5799   23.3182 N   0  0  0  0  0  0  0  0  0  0  0  0
    6.3241  -12.9328   24.4965 C   0  0  0  0  0  0  0  0  0  0  0  0
    5.8917  -11.6890   24.9086 C   0  0  0  0  0  0  0  0  0  0  0  0
    6.1721  -11.3197   26.2066 C   0  0  0  0  0  0  0  0  0  0  0  0
    6.8631  -12.1701   27.0620 C   0  0  0  0  0  0  0  0  0  0  0  0
    7.2837  -13.4019   26.6294 C   0  0  0  0  0  0  0  0  0  0  0  0
    7.0157  -13.7967   25.3306 C   0  0  0  0  0  0  0  0  0  0  0  0
   10.3059  -16.4305   26.2188 C   0  0  0  0  0  0  0  0  0  0  0  0
   10.9793  -17.4812   26.3077 O   0  0  0  0  0  0  0  0  0  0  0  0
   11.0366  -14.8050   29.5387 C   0  0  0  0  0  0  0  0  0  0  0  0
   11.1284  -15.9521   28.5660 C   0  0  2  0  0  0  0  0  0  0  0  0
   10.3331  -15.6002   27.4009 N   0  0  0  0  0  0  0  0  0  0  0  0
   10.6056  -17.2168   29.1360 C   0  0  0  0  0  0  0  0  0  0  0  0
    9.4782  -17.6513   28.7857 O   0  0  0  0  0  0  0  0  0  0  0  0
   11.3221  -17.9638   30.0636 O   0  0  0  0  0  0  0  0  0  0  0  0
  2  1  1  6
  2  6  1  0
  2  3  1  0
  3  4  1  0
  4  5  2  0
  4  8  1  0
  6  7  2  0
  9 10  1  0
  9  6  1  0
 10 11  1  1
 12 11  1  0
 13 12  2  0
 14 13  1  0
 15 14  1  0
 15 20  2  0
 16 15  1  0
 17 16  2  0
 17 18  1  0
 18 19  2  0
 19 20  1  0
 20 12  1  0
 21 22  2  0
 21 10  1  0
 24 23  1  1
 24 26  1  0
 24 25  1  0
 25 21  1  0
 26 28  1  0
 27 26  2  0
M  END
$$$$
