DWA.pdb
     RDKit          3D

 28 29  0  0  1  0  0  0  0  0999 V2000
   10.1138  -17.9805   21.4874 N   0  0  0  0  0  0  0  0  0  0  0  0
   11.0445  -17.0655   22.0814 C   0  0  1  0  0  0  0  0  0  0  0  0
   11.1693  -15.8847   21.1376 C   0  0  0  0  0  0  0  0  0  0  0  0
   12.0805  -16.2213   20.0424 C   0  0  0  0  0  0  0  0  0  0  0  0
   12.0254  -17.3740   19.5413 O   0  0  0  0  0  0  0  0  0  0  0  0
   10.5952  -16.6076   23.4296 C   0  0  0  0  0  0  0  0  0  0  0  0
   11.2357  -15.7056   24.0326 O   0  0  0  0  0  0  0  0  0  0  0  0
   13.0143  -15.3434   19.5117 O   0  0  0  0  0  0  0  0  0  0  0  0
    9.4576  -17.1415   24.0926 N   0  0  0  0  0  0  0  0  0  0  0  0
    9.0984  -16.7479   25.4756 C   0  0  1  0  0  0  0  0  0  0  0  0
    7.6494  -16.3591   25.5072 C   0  0  0  0  0  0  0  0  0  0  0  0
    7.3700  -15.0386   24.9131 C   0  0  0  0  0  0  0  0  0  0  0  0
    7.2263  -14.7863   23.5378 C   0  0  0  0  0  0  0  0  0  0  0  0
    7.0133  -13.4775   23.3421 N   0  0  0  0  0  0  0  0  0  0  0  0
    7.0043  -12.8242   24.5244 C   0  0  0  0  0  0  0  0  0  0  0  0
    6.8096  -11.4929   24.8303 C   0  0  0  0  0  0  0  0  0  0  0  0
    6.8391  -11.1389   26.1621 C   0  0  0  0  0  0  0  0  0  0  0  0
    7.0567  -12.0890   27.1532 C   0  0  0  0  0  0  0  0  0  0  0  0
    7.2486  -13.4068   26.8247 C   0  0  0  0  0  0  0  0  0  0  0  0
    7.2245  -13.7886   25.4949 C   0  0  0  0  0  0  0  0  0  0  0  0
    9.5628  -17.7183   26.4467 C   0  0  0  0  0  0  0  0  0  0  0  0
    9.2543  -17.7264   27.6591 O   0  0  0  0  0  0  0  0  0  0  0  0
   11.5687  -20.8883   26.2112 C   0  0  0  0  0  0  0  0  0  0  0  0
   10.9483  -19.7649   27.0008 C   0  0  2  0  0  0  0  0  0  0  0  0
   10.4529  -18.7845   26.0483 N   0  0  0  0  0  0  0  0  0  0  0  0
   11.9230  -19.1045   27.9015 C   0  0  0  0  0  0  0  0  0  0  0  0
   12.4465  -19.7462   28.8483 O   0  0  0  0  0  0  0  0  0  0  0  0
   12.2945  -17.7744   27.7443 O   0  0  0  0  0  0  0  0  0  0  0  0
  2  1  1  6
  2  6  1  0
  2  3  1  0
  3  4  1  0
  4  5  2  0
  4  8  1  0
  6  7  2  0
  9 10  1  0
  9  6  1  0
 10 11  1  6
 12 11  1  0
 13 12  2  0
 14 13  1  0
 15 14  1  0
 15 20  2  0
 16 15  1  0
 17 16  2  0
 17 18  1  0
 18 19  2  0
 19 20  1  0
 20 12  1  0
 21 22  2  0
 21 10  1  0
 24 23  1  6
 24 26  1  0
 24 25  1  0
 25 21  1  0
 26 28  1  0
 27 26  2  0
M  END
$$$$
