DWA.pdb
     RDKit          3D

 28 29  0  0  1  0  0  0  0  0999 V2000
   11.7801  -16.5028   20.5439 N   0  0  0  0  0  0  0  0  0  0  0  0
   11.6575  -17.3276   21.7106 C   0  0  1  0  0  0  0  0  0  0  0  0
   13.0326  -17.9012   21.9947 C   0  0  0  0  0  0  0  0  0  0  0  0
   13.3207  -18.9844   21.0532 C   0  0  0  0  0  0  0  0  0  0  0  0
   13.9343  -18.7143   19.9886 O   0  0  0  0  0  0  0  0  0  0  0  0
   11.1620  -16.5577   22.8899 C   0  0  0  0  0  0  0  0  0  0  0  0
   11.6994  -15.4595   23.1943 O   0  0  0  0  0  0  0  0  0  0  0  0
   12.9580  -20.3076   21.2575 O   0  0  0  0  0  0  0  0  0  0  0  0
   10.0916  -17.0000   23.7129 N   0  0  0  0  0  0  0  0  0  0  0  0
    9.5972  -16.1972   24.8565 C   0  0  1  0  0  0  0  0  0  0  0  0
    8.1009  -16.2982   24.9075 C   0  0  0  0  0  0  0  0  0  0  0  0
    7.4032  -15.0500   24.5470 C   0  0  0  0  0  0  0  0  0  0  0  0
    6.8748  -14.7583   23.2775 C   0  0  0  0  0  0  0  0  0  0  0  0
    6.3402  -13.5292   23.2862 N   0  0  0  0  0  0  0  0  0  0  0  0
    6.4795  -12.9682   24.5071 C   0  0  0  0  0  0  0  0  0  0  0  0
    6.0803  -11.7427   24.9996 C   0  0  0  0  0  0  0  0  0  0  0  0
    6.3579  -11.4715   26.3222 C   0  0  0  0  0  0  0  0  0  0  0  0
    7.0139  -12.3990   27.1232 C   0  0  0  0  0  0  0  0  0  0  0  0
    7.4019  -13.6108   26.6111 C   0  0  0  0  0  0  0  0  0  0  0  0
    7.1359  -13.9078   25.2860 C   0  0  0  0  0  0  0  0  0  0  0  0
   10.3388  -16.4786   26.0694 C   0  0  0  0  0  0  0  0  0  0  0  0
   10.9040  -17.5636   26.3311 O   0  0  0  0  0  0  0  0  0  0  0  0
   11.2315  -14.4435   29.1127 C   0  0  0  0  0  0  0  0  0  0  0  0
   11.1589  -15.7405   28.3492 C   0  0  2  0  0  0  0  0  0  0  0  0
   10.4734  -15.4706   27.0957 N   0  0  0  0  0  0  0  0  0  0  0  0
   10.4106  -16.7866   29.0863 C   0  0  0  0  0  0  0  0  0  0  0  0
    9.1948  -16.9908   28.8364 O   0  0  0  0  0  0  0  0  0  0  0  0
   11.0058  -17.5723   30.0663 O   0  0  0  0  0  0  0  0  0  0  0  0
  2  1  1  6
  2  6  1  0
  2  3  1  0
  3  4  1  0
  4  5  2  0
  4  8  1  0
  6  7  2  0
  9 10  1  0
  9  6  1  0
 10 11  1  1
 12 11  1  0
 13 12  2  0
 14 13  1  0
 15 14  1  0
 15 20  2  0
 16 15  1  0
 17 16  2  0
 17 18  1  0
 18 19  2  0
 19 20  1  0
 20 12  1  0
 21 22  2  0
 21 10  1  0
 24 23  1  1
 24 26  1  0
 24 25  1  0
 25 21  1  0
 26 28  1  0
 27 26  2  0
M  END
$$$$
