DWA.pdb
     RDKit          3D

 28 29  0  0  1  0  0  0  0  0999 V2000
   10.9733  -17.3055   18.7933 N   0  0  0  0  0  0  0  0  0  0  0  0
   10.7654  -17.8831   20.0893 C   0  0  1  0  0  0  0  0  0  0  0  0
   11.9920  -18.7179   20.4046 C   0  0  0  0  0  0  0  0  0  0  0  0
   12.2392  -19.6644   19.3157 C   0  0  0  0  0  0  0  0  0  0  0  0
   13.3561  -19.6437   18.7370 O   0  0  0  0  0  0  0  0  0  0  0  0
   10.5619  -16.8416   21.1395 C   0  0  0  0  0  0  0  0  0  0  0  0
   11.4531  -15.9755   21.3465 O   0  0  0  0  0  0  0  0  0  0  0  0
   11.3124  -20.5963   18.8716 O   0  0  0  0  0  0  0  0  0  0  0  0
    9.3919  -16.7652   21.9420 N   0  0  0  0  0  0  0  0  0  0  0  0
    9.1964  -15.6913   22.9446 C   0  0  1  0  0  0  0  0  0  0  0  0
    7.7571  -15.2674   22.9251 C   0  0  0  0  0  0  0  0  0  0  0  0
    7.4856  -14.0326   23.6843 C   0  0  0  0  0  0  0  0  0  0  0  0
    7.3830  -12.7472   23.1249 C   0  0  0  0  0  0  0  0  0  0  0  0
    7.1655  -11.8511   24.0977 N   0  0  0  0  0  0  0  0  0  0  0  0
    7.1140  -12.4686   25.2981 C   0  0  0  0  0  0  0  0  0  0  0  0
    6.8988  -11.9769   26.5691 C   0  0  0  0  0  0  0  0  0  0  0  0
    6.8836  -12.8860   27.6050 C   0  0  0  0  0  0  0  0  0  0  0  0
    7.0778  -14.2427   27.3729 C   0  0  0  0  0  0  0  0  0  0  0  0
    7.2907  -14.7081   26.1003 C   0  0  0  0  0  0  0  0  0  0  0  0
    7.3115  -13.8163   25.0426 C   0  0  0  0  0  0  0  0  0  0  0  0
    9.7853  -16.0377   24.2227 C   0  0  0  0  0  0  0  0  0  0  0  0
    9.8057  -15.2956   25.2297 O   0  0  0  0  0  0  0  0  0  0  0  0
   11.3596  -19.1592   25.6132 C   0  0  0  0  0  0  0  0  0  0  0  0
   11.0537  -17.6850   25.6693 C   0  0  2  0  0  0  0  0  0  0  0  0
   10.4135  -17.3246   24.4147 N   0  0  0  0  0  0  0  0  0  0  0  0
   12.2758  -16.8622   25.8345 C   0  0  0  0  0  0  0  0  0  0  0  0
   12.7419  -16.2172   24.8603 O   0  0  0  0  0  0  0  0  0  0  0  0
   12.9480  -16.7685   27.0475 O   0  0  0  0  0  0  0  0  0  0  0  0
  2  1  1  6
  2  6  1  0
  2  3  1  0
  3  4  1  0
  4  5  2  0
  4  8  1  0
  6  7  2  0
  9 10  1  0
  9  6  1  0
 10 11  1  1
 12 11  1  0
 13 12  2  0
 14 13  1  0
 15 14  1  0
 15 20  2  0
 16 15  1  0
 17 16  2  0
 17 18  1  0
 18 19  2  0
 19 20  1  0
 20 12  1  0
 21 22  2  0
 21 10  1  0
 24 23  1  6
 24 26  1  0
 24 25  1  0
 25 21  1  0
 26 28  1  0
 27 26  2  0
M  END
$$$$
