DWA.pdb
     RDKit          3D

 28 29  0  0  1  0  0  0  0  0999 V2000
   10.9800  -17.7953   21.2919 N   0  0  0  0  0  0  0  0  0  0  0  0
   11.9663  -16.9586   21.9111 C   0  0  1  0  0  0  0  0  0  0  0  0
   12.3285  -15.8819   20.9060 C   0  0  0  0  0  0  0  0  0  0  0  0
   13.0221  -16.4832   19.7657 C   0  0  0  0  0  0  0  0  0  0  0  0
   12.5511  -16.3123   18.6117 O   0  0  0  0  0  0  0  0  0  0  0  0
   11.4629  -16.3419   23.1742 C   0  0  0  0  0  0  0  0  0  0  0  0
   12.1700  -15.4979   23.7867 O   0  0  0  0  0  0  0  0  0  0  0  0
   14.1801  -17.2396   19.8722 O   0  0  0  0  0  0  0  0  0  0  0  0
   10.2000  -16.6571   23.7435 N   0  0  0  0  0  0  0  0  0  0  0  0
    9.7040  -15.9913   24.9712 C   0  0  1  0  0  0  0  0  0  0  0  0
    8.2099  -16.1208   25.0221 C   0  0  0  0  0  0  0  0  0  0  0  0
    7.4883  -14.9000   24.6175 C   0  0  0  0  0  0  0  0  0  0  0  0
    7.0420  -14.6206   23.3142 C   0  0  0  0  0  0  0  0  0  0  0  0
    6.4568  -13.4150   23.2897 N   0  0  0  0  0  0  0  0  0  0  0  0
    6.4830  -12.8583   24.5202 C   0  0  0  0  0  0  0  0  0  0  0  0
    5.9977  -11.6545   24.9881 C   0  0  0  0  0  0  0  0  0  0  0  0
    6.1665  -11.3823   26.3287 C   0  0  0  0  0  0  0  0  0  0  0  0
    6.8009  -12.2879   27.1711 C   0  0  0  0  0  0  0  0  0  0  0  0
    7.2759  -13.4784   26.6828 C   0  0  0  0  0  0  0  0  0  0  0  0
    7.1200  -13.7758   25.3405 C   0  0  0  0  0  0  0  0  0  0  0  0
   10.4608  -16.3911   26.1408 C   0  0  0  0  0  0  0  0  0  0  0  0
   11.0019  -17.5078   26.2998 O   0  0  0  0  0  0  0  0  0  0  0  0
   11.5407  -14.6503   29.2952 C   0  0  0  0  0  0  0  0  0  0  0  0
   11.2563  -15.8939   28.4934 C   0  0  2  0  0  0  0  0  0  0  0  0
   10.6414  -15.4758   27.2440 N   0  0  0  0  0  0  0  0  0  0  0  0
   10.3319  -16.8167   29.1945 C   0  0  0  0  0  0  0  0  0  0  0  0
    9.1071  -16.8254   28.9078 O   0  0  0  0  0  0  0  0  0  0  0  0
   10.7673  -17.6952   30.1796 O   0  0  0  0  0  0  0  0  0  0  0  0
  2  1  1  6
  2  6  1  0
  2  3  1  0
  3  4  1  0
  4  5  2  0
  4  8  1  0
  6  7  2  0
  9 10  1  0
  9  6  1  0
 10 11  1  1
 12 11  1  0
 13 12  2  0
 14 13  1  0
 15 14  1  0
 15 20  2  0
 16 15  1  0
 17 16  2  0
 17 18  1  0
 18 19  2  0
 19 20  1  0
 20 12  1  0
 21 22  2  0
 21 10  1  0
 24 23  1  1
 24 26  1  0
 24 25  1  0
 25 21  1  0
 26 28  1  0
 27 26  2  0
M  END
$$$$
