DWA.pdb
     RDKit          3D

 28 29  0  0  1  0  0  0  0  0999 V2000
   10.2548  -15.7064   20.5599 N   0  0  0  0  0  0  0  0  0  0  0  0
   10.3667  -16.8919   21.3588 C   0  0  1  0  0  0  0  0  0  0  0  0
   11.7141  -17.5133   21.0438 C   0  0  0  0  0  0  0  0  0  0  0  0
   11.5896  -18.4053   19.8899 C   0  0  0  0  0  0  0  0  0  0  0  0
   10.4606  -18.5473   19.3532 O   0  0  0  0  0  0  0  0  0  0  0  0
   10.2602  -16.5949   22.8180 C   0  0  0  0  0  0  0  0  0  0  0  0
   11.0174  -15.7344   23.3411 O   0  0  0  0  0  0  0  0  0  0  0  0
   12.6468  -19.1153   19.3397 O   0  0  0  0  0  0  0  0  0  0  0  0
    9.3310  -17.2410   23.6770 N   0  0  0  0  0  0  0  0  0  0  0  0
    9.2840  -16.9650   25.1324 C   0  0  1  0  0  0  0  0  0  0  0  0
    7.8624  -16.6915   25.5274 C   0  0  0  0  0  0  0  0  0  0  0  0
    7.3517  -15.3879   25.0640 C   0  0  0  0  0  0  0  0  0  0  0  0
    6.7359  -15.1577   23.8216 C   0  0  0  0  0  0  0  0  0  0  0  0
    6.4248  -13.8587   23.7095 N   0  0  0  0  0  0  0  0  0  0  0  0
    6.8006  -13.1911   24.8220 C   0  0  0  0  0  0  0  0  0  0  0  0
    6.6781  -11.8628   25.1747 C   0  0  0  0  0  0  0  0  0  0  0  0
    7.1515  -11.4912   26.4147 C   0  0  0  0  0  0  0  0  0  0  0  0
    7.7281  -12.4214   27.2717 C   0  0  0  0  0  0  0  0  0  0  0  0
    7.8396  -13.7366   26.8988 C   0  0  0  0  0  0  0  0  0  0  0  0
    7.3730  -14.1358   25.6589 C   0  0  0  0  0  0  0  0  0  0  0  0
   10.0208  -17.9567   25.8900 C   0  0  0  0  0  0  0  0  0  0  0  0
    9.8572  -19.1941   25.8048 O   0  0  0  0  0  0  0  0  0  0  0  0
   13.1615  -17.9560   27.8431 C   0  0  0  0  0  0  0  0  0  0  0  0
   11.7819  -18.5196   27.6212 C   0  0  2  0  0  0  0  0  0  0  0  0
   11.0368  -17.5507   26.8338 N   0  0  0  0  0  0  0  0  0  0  0  0
   11.0592  -18.7569   28.8936 C   0  0  0  0  0  0  0  0  0  0  0  0
   10.0001  -18.1274   29.1476 O   0  0  0  0  0  0  0  0  0  0  0  0
   11.5096  -19.6660   29.8435 O   0  0  0  0  0  0  0  0  0  0  0  0
  2  1  1  6
  2  6  1  0
  2  3  1  0
  3  4  1  0
  4  5  2  0
  4  8  1  0
  6  7  2  0
  9 10  1  0
  9  6  1  0
 10 11  1  1
 12 11  1  0
 13 12  2  0
 14 13  1  0
 15 14  1  0
 15 20  2  0
 16 15  1  0
 17 16  2  0
 17 18  1  0
 18 19  2  0
 19 20  1  0
 20 12  1  0
 21 22  2  0
 21 10  1  0
 24 23  1  1
 24 26  1  0
 24 25  1  0
 25 21  1  0
 26 28  1  0
 27 26  2  0
M  END
$$$$
