DWA.pdb
     RDKit          3D

 28 29  0  0  1  0  0  0  0  0999 V2000
   10.0032  -17.6648   21.2835 N   0  0  0  0  0  0  0  0  0  0  0  0
   10.9655  -16.7062   21.7434 C   0  0  1  0  0  0  0  0  0  0  0  0
   11.0094  -15.5932   20.7138 C   0  0  0  0  0  0  0  0  0  0  0  0
   11.6247  -16.0851   19.4799 C   0  0  0  0  0  0  0  0  0  0  0  0
   12.6488  -16.8113   19.5616 O   0  0  0  0  0  0  0  0  0  0  0  0
   10.6108  -16.1580   23.0860 C   0  0  0  0  0  0  0  0  0  0  0  0
   11.2458  -15.1740   23.5508 O   0  0  0  0  0  0  0  0  0  0  0  0
   11.1488  -15.8009   18.2082 O   0  0  0  0  0  0  0  0  0  0  0  0
    9.5720  -16.6929   23.8943 N   0  0  0  0  0  0  0  0  0  0  0  0
    9.2553  -16.1406   25.2327 C   0  0  1  0  0  0  0  0  0  0  0  0
    7.8500  -16.5233   25.5940 C   0  0  0  0  0  0  0  0  0  0  0  0
    6.8900  -15.4055   25.5337 C   0  0  0  0  0  0  0  0  0  0  0  0
    5.5277  -15.5281   25.2096 C   0  0  0  0  0  0  0  0  0  0  0  0
    4.9553  -14.3161   25.2135 N   0  0  0  0  0  0  0  0  0  0  0  0
    5.8673  -13.3702   25.5270 C   0  0  0  0  0  0  0  0  0  0  0  0
    5.7521  -12.0027   25.6694 C   0  0  0  0  0  0  0  0  0  0  0  0
    6.8869  -11.3057   26.0247 C   0  0  0  0  0  0  0  0  0  0  0  0
    8.0964  -11.9594   26.2302 C   0  0  0  0  0  0  0  0  0  0  0  0
    8.1867  -13.3200   26.0820 C   0  0  0  0  0  0  0  0  0  0  0  0
    7.0624  -14.0433   25.7251 C   0  0  0  0  0  0  0  0  0  0  0  0
   10.3044  -16.4241   26.1915 C   0  0  0  0  0  0  0  0  0  0  0  0
   11.1382  -17.3515   26.0917 O   0  0  0  0  0  0  0  0  0  0  0  0
   11.3557  -14.8511   29.4514 C   0  0  0  0  0  0  0  0  0  0  0  0
   11.3768  -15.9681   28.4404 C   0  0  2  0  0  0  0  0  0  0  0  0
   10.4532  -15.6102   27.3760 N   0  0  0  0  0  0  0  0  0  0  0  0
   10.9533  -17.2635   29.0236 C   0  0  0  0  0  0  0  0  0  0  0  0
   11.7093  -17.8773   29.8200 O   0  0  0  0  0  0  0  0  0  0  0  0
    9.7278  -17.8465   28.7231 O   0  0  0  0  0  0  0  0  0  0  0  0
  2  1  1  6
  2  6  1  0
  2  3  1  0
  3  4  1  0
  4  5  2  0
  4  8  1  0
  6  7  2  0
  9 10  1  0
  9  6  1  0
 10 11  1  1
 12 11  1  0
 13 12  2  0
 14 13  1  0
 15 14  1  0
 15 20  2  0
 16 15  1  0
 17 16  2  0
 17 18  1  0
 18 19  2  0
 19 20  1  0
 20 12  1  0
 21 22  2  0
 21 10  1  0
 24 23  1  1
 24 26  1  0
 24 25  1  0
 25 21  1  0
 26 28  1  0
 27 26  2  0
M  END
$$$$
