DWA.pdb
     RDKit          3D

 28 29  0  0  1  0  0  0  0  0999 V2000
    9.7580  -18.5542   20.6297 N   0  0  0  0  0  0  0  0  0  0  0  0
   11.0187  -17.9170   20.8768 C   0  0  1  0  0  0  0  0  0  0  0  0
   11.4744  -17.3114   19.5628 C   0  0  0  0  0  0  0  0  0  0  0  0
   11.7434  -18.3760   18.5948 C   0  0  0  0  0  0  0  0  0  0  0  0
   12.2903  -19.4355   18.9961 O   0  0  0  0  0  0  0  0  0  0  0  0
   10.9150  -16.8610   21.9271 C   0  0  0  0  0  0  0  0  0  0  0  0
   11.9229  -16.1636   22.2188 O   0  0  0  0  0  0  0  0  0  0  0  0
   11.4321  -18.2951   17.2453 O   0  0  0  0  0  0  0  0  0  0  0  0
    9.7156  -16.5865   22.6376 N   0  0  0  0  0  0  0  0  0  0  0  0
    9.6439  -15.5362   23.6809 C   0  0  1  0  0  0  0  0  0  0  0  0
    8.5178  -14.6013   23.3498 C   0  0  0  0  0  0  0  0  0  0  0  0
    7.5660  -14.3937   24.4569 C   0  0  0  0  0  0  0  0  0  0  0  0
    6.7583  -15.3939   25.0252 C   0  0  0  0  0  0  0  0  0  0  0  0
    5.9888  -14.8581   25.9830 N   0  0  0  0  0  0  0  0  0  0  0  0
    6.2362  -13.5348   26.0947 C   0  0  0  0  0  0  0  0  0  0  0  0
    5.7124  -12.5761   26.9374 C   0  0  0  0  0  0  0  0  0  0  0  0
    6.1981  -11.2921   26.8144 C   0  0  0  0  0  0  0  0  0  0  0  0
    7.1765  -10.9809   25.8773 C   0  0  0  0  0  0  0  0  0  0  0  0
    7.6817  -11.9510   25.0496 C   0  0  0  0  0  0  0  0  0  0  0  0
    7.2107  -13.2480   25.1520 C   0  0  0  0  0  0  0  0  0  0  0  0
    9.6876  -16.1017   25.0145 C   0  0  0  0  0  0  0  0  0  0  0  0
    9.7700  -15.4406   26.0735 O   0  0  0  0  0  0  0  0  0  0  0  0
    9.2313  -19.5651   26.3900 C   0  0  0  0  0  0  0  0  0  0  0  0
    9.6734  -18.1315   26.5294 C   0  0  2  0  0  0  0  0  0  0  0  0
    9.6358  -17.5330   25.2049 N   0  0  0  0  0  0  0  0  0  0  0  0
   11.0507  -18.0166   27.0656 C   0  0  0  0  0  0  0  0  0  0  0  0
   11.2438  -17.9486   28.3068 O   0  0  0  0  0  0  0  0  0  0  0  0
   12.1674  -17.9793   26.2388 O   0  0  0  0  0  0  0  0  0  0  0  0
  2  1  1  6
  2  6  1  0
  2  3  1  0
  3  4  1  0
  4  5  2  0
  4  8  1  0
  6  7  2  0
  9 10  1  0
  9  6  1  0
 10 11  1  1
 12 11  1  0
 13 12  2  0
 14 13  1  0
 15 14  1  0
 15 20  2  0
 16 15  1  0
 17 16  2  0
 17 18  1  0
 18 19  2  0
 19 20  1  0
 20 12  1  0
 21 22  2  0
 21 10  1  0
 24 23  1  6
 24 26  1  0
 24 25  1  0
 25 21  1  0
 26 28  1  0
 27 26  2  0
M  END
$$$$
