DWA.pdb
     RDKit          3D

 28 29  0  0  1  0  0  0  0  0999 V2000
   10.8050  -16.2927   20.7540 N   0  0  0  0  0  0  0  0  0  0  0  0
   11.1463  -17.0800   21.9029 C   0  0  1  0  0  0  0  0  0  0  0  0
   12.6524  -17.2593   21.8859 C   0  0  0  0  0  0  0  0  0  0  0  0
   13.0539  -17.9529   20.6610 C   0  0  0  0  0  0  0  0  0  0  0  0
   12.3580  -18.9198   20.2565 O   0  0  0  0  0  0  0  0  0  0  0  0
   10.7151  -16.4286   23.1752 C   0  0  0  0  0  0  0  0  0  0  0  0
   11.1043  -15.2616   23.4471 O   0  0  0  0  0  0  0  0  0  0  0  0
   14.1658  -17.6120   19.9046 O   0  0  0  0  0  0  0  0  0  0  0  0
    9.8689  -17.0619   24.1247 N   0  0  0  0  0  0  0  0  0  0  0  0
    9.4460  -16.3853   25.3738 C   0  0  1  0  0  0  0  0  0  0  0  0
    7.9862  -16.6513   25.5977 C   0  0  0  0  0  0  0  0  0  0  0  0
    7.1043  -15.5464   25.1779 C   0  0  0  0  0  0  0  0  0  0  0  0
    6.0948  -15.6446   24.2047 C   0  0  0  0  0  0  0  0  0  0  0  0
    5.5098  -14.4494   24.0437 N   0  0  0  0  0  0  0  0  0  0  0  0
    6.0752  -13.5385   24.8655 C   0  0  0  0  0  0  0  0  0  0  0  0
    5.8060  -12.2005   25.0683 C   0  0  0  0  0  0  0  0  0  0  0  0
    6.5615  -11.5391   26.0125 C   0  0  0  0  0  0  0  0  0  0  0  0
    7.5537  -12.1984   26.7288 C   0  0  0  0  0  0  0  0  0  0  0  0
    7.8039  -13.5290   26.5092 C   0  0  0  0  0  0  0  0  0  0  0  0
    7.0601  -14.2163   25.5663 C   0  0  0  0  0  0  0  0  0  0  0  0
   10.3607  -16.6543   26.4652 C   0  0  0  0  0  0  0  0  0  0  0  0
   11.1179  -17.6474   26.5405 O   0  0  0  0  0  0  0  0  0  0  0  0
   11.1396  -14.8843   29.7020 C   0  0  0  0  0  0  0  0  0  0  0  0
   11.3017  -16.0249   28.7309 C   0  0  2  0  0  0  0  0  0  0  0  0
   10.4538  -15.7443   27.5836 N   0  0  0  0  0  0  0  0  0  0  0  0
   10.8965  -17.3250   29.3167 C   0  0  0  0  0  0  0  0  0  0  0  0
   11.7397  -18.0394   29.9176 O   0  0  0  0  0  0  0  0  0  0  0  0
    9.5944  -17.8035   29.2301 O   0  0  0  0  0  0  0  0  0  0  0  0
  2  1  1  6
  2  6  1  0
  2  3  1  0
  3  4  1  0
  4  5  2  0
  4  8  1  0
  6  7  2  0
  9 10  1  0
  9  6  1  0
 10 11  1  1
 12 11  1  0
 13 12  2  0
 14 13  1  0
 15 14  1  0
 15 20  2  0
 16 15  1  0
 17 16  2  0
 17 18  1  0
 18 19  2  0
 19 20  1  0
 20 12  1  0
 21 22  2  0
 21 10  1  0
 24 23  1  1
 24 26  1  0
 24 25  1  0
 25 21  1  0
 26 28  1  0
 27 26  2  0
M  END
$$$$
