DWA.pdb
     RDKit          3D

 28 29  0  0  1  0  0  0  0  0999 V2000
   11.3784  -16.4483   19.5070 N   0  0  0  0  0  0  0  0  0  0  0  0
   11.6722  -16.9814   20.8054 C   0  0  1  0  0  0  0  0  0  0  0  0
   13.1829  -17.0317   20.9326 C   0  0  0  0  0  0  0  0  0  0  0  0
   13.7357  -17.9220   19.9105 C   0  0  0  0  0  0  0  0  0  0  0  0
   14.6813  -17.5062   19.1924 O   0  0  0  0  0  0  0  0  0  0  0  0
   11.0865  -16.1485   21.8973 C   0  0  0  0  0  0  0  0  0  0  0  0
   11.3291  -14.9130   21.9443 O   0  0  0  0  0  0  0  0  0  0  0  0
   13.2815  -19.2117   19.6762 O   0  0  0  0  0  0  0  0  0  0  0  0
   10.2488  -16.6786   22.9151 N   0  0  0  0  0  0  0  0  0  0  0  0
    9.6382  -15.8186   23.9564 C   0  0  1  0  0  0  0  0  0  0  0  0
    8.1453  -15.8721   23.8138 C   0  0  0  0  0  0  0  0  0  0  0  0
    7.4170  -15.1106   24.8455 C   0  0  0  0  0  0  0  0  0  0  0  0
    6.6179  -15.6774   25.8535 C   0  0  0  0  0  0  0  0  0  0  0  0
    6.0770  -14.7026   26.5977 N   0  0  0  0  0  0  0  0  0  0  0  0
    6.4724  -13.4938   26.1425 C   0  0  0  0  0  0  0  0  0  0  0  0
    6.1960  -12.2166   26.5852 C   0  0  0  0  0  0  0  0  0  0  0  0
    6.7822  -11.1706   25.9053 C   0  0  0  0  0  0  0  0  0  0  0  0
    7.6174  -11.3991   24.8179 C   0  0  0  0  0  0  0  0  0  0  0  0
    7.8768  -12.6780   24.3955 C   0  0  0  0  0  0  0  0  0  0  0  0
    7.3004  -13.7459   25.0602 C   0  0  0  0  0  0  0  0  0  0  0  0
   10.2053  -16.0766   25.2649 C   0  0  0  0  0  0  0  0  0  0  0  0
   10.7039  -17.1642   25.6307 O   0  0  0  0  0  0  0  0  0  0  0  0
   10.7873  -13.9398   28.3139 C   0  0  0  0  0  0  0  0  0  0  0  0
   10.8169  -15.2565   27.5819 C   0  0  2  0  0  0  0  0  0  0  0  0
   10.2274  -15.0395   26.2706 N   0  0  0  0  0  0  0  0  0  0  0  0
   10.0437  -16.3085   28.2841 C   0  0  0  0  0  0  0  0  0  0  0  0
    8.9452  -16.7057   27.8172 O   0  0  0  0  0  0  0  0  0  0  0  0
   10.4879  -16.8912   29.4652 O   0  0  0  0  0  0  0  0  0  0  0  0
  2  1  1  6
  2  6  1  0
  2  3  1  0
  3  4  1  0
  4  5  2  0
  4  8  1  0
  6  7  2  0
  9 10  1  0
  9  6  1  0
 10 11  1  1
 12 11  1  0
 13 12  2  0
 14 13  1  0
 15 14  1  0
 15 20  2  0
 16 15  1  0
 17 16  2  0
 17 18  1  0
 18 19  2  0
 19 20  1  0
 20 12  1  0
 21 22  2  0
 21 10  1  0
 24 23  1  1
 24 26  1  0
 24 25  1  0
 25 21  1  0
 26 28  1  0
 27 26  2  0
M  END
$$$$
