RDP.pdb
     RDKit          3D

 27 27  0  0  1  0  0  0  0  0999 V2000
    8.7400  -15.9950   15.4940 N   0  0  0  0  0  0  0  0  0  0  0  0
    8.1113  -14.7908   15.0763 C   0  0  0  0  0  0  0  0  0  0  0  0
    7.5900  -14.7127   13.9000 N   0  0  0  0  0  0  0  0  0  0  0  0
    8.0412  -13.6597   15.9285 N   0  0  0  0  0  0  0  0  0  0  0  0
    8.6410  -13.6165   17.2510 C   0  0  0  0  0  0  0  0  0  0  0  0
    7.7380  -14.2630   18.2882 C   0  0  0  0  0  0  0  0  0  0  0  0
    7.8564  -13.5245   19.5968 C   0  0  0  0  0  0  0  0  0  0  0  0
    8.8897  -14.1868   20.5052 C   0  0  2  0  0  0  0  0  0  0  0  0
    9.4668  -15.3304   19.8998 N   0  0  0  0  0  0  0  0  0  0  0  0
    8.2484  -14.4199   21.8226 C   0  0  0  0  0  0  0  0  0  0  0  0
    7.6962  -13.4039   22.3483 O   0  0  0  0  0  0  0  0  0  0  0  0
    7.1389  -13.8477   13.5753 N   0  0  0  0  0  0  0  0  0  0  0  0
    8.2308  -15.6513   22.4688 C   0  0  1  0  0  0  0  0  0  0  0  0
    7.5838  -15.7581   23.7958 C   0  0  0  0  0  0  0  0  0  0  0  0
    7.3281  -17.2700   23.8829 C   0  0  0  0  0  0  0  0  0  0  0  0
    6.8405  -17.6303   25.2057 O   0  0  0  0  0  0  0  0  0  0  0  0
    7.6808  -18.1222   26.0232 C   0  0  0  0  0  0  0  0  0  0  0  0
    8.5074  -15.2782   24.8363 O   0  0  0  0  0  0  0  0  0  0  0  0
    9.7340  -15.6482   24.7286 O   0  0  0  0  0  0  0  0  0  0  0  0
    5.5376  -17.4859   25.6571 N   0  0  0  0  0  0  0  0  0  0  0  0
    8.1903  -14.4508   25.9338 C   0  0  0  0  0  0  0  0  0  0  0  0
    6.8226  -14.0538   26.3383 C   0  0  0  0  0  0  0  0  0  0  0  0
    6.9429  -12.8611   27.2138 C   0  0  0  0  0  0  0  0  0  0  0  0
    8.4058  -12.5031   27.1620 C   0  0  1  0  0  0  0  0  0  0  0  0
    9.0342  -13.8609   26.9429 C   0  0  0  0  0  0  0  0  0  0  0  0
    8.9143  -14.6579   28.2169 O   0  0  0  0  0  0  0  0  0  0  0  0
    9.7767  -14.4648   29.2791 O   0  0  0  0  0  0  0  0  0  0  0  0
  2  4  1  0
  2  1  1  0
  3  2  2  0
  5  4  1  0
  6  5  1  0
  7  6  1  0
  8  7  1  0
  8  9  1  6
 10 11  2  0
 10  8  1  0
 12 10  1  0
 13 12  1  0
 14 15  1  0
 13 14  1  1
 15 16  2  0
 17 20  1  0
 17 13  1  0
 18 17  2  0
 19 15  1  0
 20 21  1  0
 22 21  1  0
 23 24  1  0
 23 22  1  0
 24 20  1  0
 24 25  1  1
 25 26  1  0
 27 25  2  0
M  END
$$$$
