RDP.pdb
     RDKit          3D

 27 27  0  0  1  0  0  0  0  0999 V2000
    7.6455  -13.4990   15.8386 N   0  0  0  0  0  0  0  0  0  0  0  0
    8.5169  -14.4727   16.3974 C   0  0  0  0  0  0  0  0  0  0  0  0
    8.7027  -15.5937   15.7886 N   0  0  0  0  0  0  0  0  0  0  0  0
    9.1954  -14.2419   17.6209 N   0  0  0  0  0  0  0  0  0  0  0  0
    8.6560  -13.4220   18.6921 C   0  0  0  0  0  0  0  0  0  0  0  0
    7.1681  -13.6677   18.8797 C   0  0  0  0  0  0  0  0  0  0  0  0
    6.8710  -13.9006   20.3389 C   0  0  0  0  0  0  0  0  0  0  0  0
    8.0057  -14.6708   21.0103 C   0  0  2  0  0  0  0  0  0  0  0  0
    8.3580  -15.8325   20.2796 N   0  0  0  0  0  0  0  0  0  0  0  0
    7.6193  -14.9014   22.4241 C   0  0  0  0  0  0  0  0  0  0  0  0
    7.2671  -13.8657   23.0696 O   0  0  0  0  0  0  0  0  0  0  0  0
    9.3187  -16.3164   16.1826 N   0  0  0  0  0  0  0  0  0  0  0  0
    7.6278  -16.1504   23.0358 C   0  0  2  0  0  0  0  0  0  0  0  0
    7.3242  -16.2455   24.4814 C   0  0  0  0  0  0  0  0  0  0  0  0
    7.2203  -17.7667   24.6657 C   0  0  0  0  0  0  0  0  0  0  0  0
    6.9547  -18.0956   26.0580 O   0  0  0  0  0  0  0  0  0  0  0  0
    6.8102  -17.1272   26.8690 C   0  0  0  0  0  0  0  0  0  0  0  0
    8.4256  -15.6539   25.2579 O   0  0  0  0  0  0  0  0  0  0  0  0
    9.6116  -16.0582   24.9698 O   0  0  0  0  0  0  0  0  0  0  0  0
    6.8450  -19.3743   26.5827 N   0  0  0  0  0  0  0  0  0  0  0  0
    8.3176  -14.6866   26.2788 C   0  0  0  0  0  0  0  0  0  0  0  0
    7.0472  -14.1583   26.8255 C   0  0  0  0  0  0  0  0  0  0  0  0
    7.3544  -12.8827   27.5196 C   0  0  0  0  0  0  0  0  0  0  0  0
    8.8074  -12.6279   27.2119 C   0  0  1  0  0  0  0  0  0  0  0  0
    9.3315  -14.0395   27.0737 C   0  0  0  0  0  0  0  0  0  0  0  0
    9.3699  -14.6746   28.4404 O   0  0  0  0  0  0  0  0  0  0  0  0
   10.3265  -14.3296   29.3758 O   0  0  0  0  0  0  0  0  0  0  0  0
  2  4  1  0
  2  1  1  0
  3  2  2  0
  5  4  1  0
  6  5  1  0
  7  6  1  0
  8  7  1  0
  8  9  1  6
 10 11  2  0
 10  8  1  0
 12 10  1  0
 13 12  1  0
 14 15  1  0
 13 14  1  6
 15 16  2  0
 17 20  1  0
 17 13  1  0
 18 17  2  0
 19 15  1  0
 20 21  1  0
 22 21  1  0
 23 24  1  0
 23 22  1  0
 24 20  1  0
 24 25  1  1
 25 26  1  0
 27 25  2  0
M  END
$$$$
