RDP.pdb
     RDKit          3D

 27 27  0  0  1  0  0  0  0  0999 V2000
    8.2712  -13.1567   20.4747 N   0  0  0  0  0  0  0  0  0  0  0  0
    8.4165  -12.8847   19.0874 C   0  0  0  0  0  0  0  0  0  0  0  0
    8.1844  -11.6993   18.6373 N   0  0  0  0  0  0  0  0  0  0  0  0
    8.8147  -13.8937   18.1742 N   0  0  0  0  0  0  0  0  0  0  0  0
    9.4868  -15.1170   18.5772 C   0  0  0  0  0  0  0  0  0  0  0  0
    8.4892  -16.1764   19.0152 C   0  0  0  0  0  0  0  0  0  0  0  0
    8.0775  -15.9278   20.4437 C   0  0  0  0  0  0  0  0  0  0  0  0
    7.2530  -17.0937   20.9844 C   0  0  2  0  0  0  0  0  0  0  0  0
    6.1516  -17.3935   20.1451 N   0  0  0  0  0  0  0  0  0  0  0  0
    6.9126  -16.7889   22.3960 C   0  0  0  0  0  0  0  0  0  0  0  0
    5.9102  -16.0268   22.5634 O   0  0  0  0  0  0  0  0  0  0  0  0
    8.3778  -11.4559   17.6573 N   0  0  0  0  0  0  0  0  0  0  0  0
    7.6171  -17.2851   23.4875 C   0  0  1  0  0  0  0  0  0  0  0  0
    7.1979  -16.8944   24.8523 C   0  0  0  0  0  0  0  0  0  0  0  0
    7.1956  -18.2547   25.5653 C   0  0  0  0  0  0  0  0  0  0  0  0
    7.2592  -18.0755   27.0079 O   0  0  0  0  0  0  0  0  0  0  0  0
    6.1563  -18.0060   27.6364 C   0  0  0  0  0  0  0  0  0  0  0  0
    8.1794  -15.9571   25.4217 O   0  0  0  0  0  0  0  0  0  0  0  0
    9.3985  -16.1021   25.0399 O   0  0  0  0  0  0  0  0  0  0  0  0
    8.4180  -17.9725   27.7621 N   0  0  0  0  0  0  0  0  0  0  0  0
    7.9225  -14.9139   26.3357 C   0  0  0  0  0  0  0  0  0  0  0  0
    6.6328  -14.6777   27.0233 C   0  0  0  0  0  0  0  0  0  0  0  0
    6.6376  -13.2772   27.5154 C   0  0  0  0  0  0  0  0  0  0  0  0
    7.9009  -12.6837   26.9473 C   0  0  1  0  0  0  0  0  0  0  0  0
    8.7940  -13.9019   26.8784 C   0  0  0  0  0  0  0  0  0  0  0  0
    9.1895  -14.2886   28.2808 O   0  0  0  0  0  0  0  0  0  0  0  0
   10.1114  -13.5566   29.0042 O   0  0  0  0  0  0  0  0  0  0  0  0
  2  4  1  0
  2  1  1  0
  3  2  2  0
  5  4  1  0
  6  5  1  0
  7  6  1  0
  8  7  1  0
  8  9  1  6
 10 11  2  0
 10  8  1  0
 12 10  1  0
 13 12  1  0
 14 15  1  0
 13 14  1  1
 15 16  2  0
 17 20  1  0
 17 13  1  0
 18 17  2  0
 19 15  1  0
 20 21  1  0
 22 21  1  0
 23 24  1  0
 23 22  1  0
 24 20  1  0
 24 25  1  1
 25 26  1  0
 27 25  2  0
M  END
$$$$
