RDP.pdb
     RDKit          3D

 27 27  0  0  1  0  0  0  0  0999 V2000
    9.2667  -13.9110   17.0020 N   0  0  0  0  0  0  0  0  0  0  0  0
    8.6883  -12.9511   17.8759 C   0  0  0  0  0  0  0  0  0  0  0  0
    9.1435  -11.7453   17.8977 N   0  0  0  0  0  0  0  0  0  0  0  0
    7.6112  -13.2877   18.7344 N   0  0  0  0  0  0  0  0  0  0  0  0
    7.3500  -14.6399   19.1972 C   0  0  0  0  0  0  0  0  0  0  0  0
    8.6371  -15.4373   19.3270 C   0  0  0  0  0  0  0  0  0  0  0  0
    8.8656  -15.8029   20.7712 C   0  0  0  0  0  0  0  0  0  0  0  0
    8.0106  -17.0029   21.1718 C   0  0  2  0  0  0  0  0  0  0  0  0
    6.9766  -17.2488   20.2349 N   0  0  0  0  0  0  0  0  0  0  0  0
    7.5642  -16.7916   22.5709 C   0  0  0  0  0  0  0  0  0  0  0  0
    6.4744  -16.1531   22.7056 O   0  0  0  0  0  0  0  0  0  0  0  0
    8.7327  -11.0336   18.5155 N   0  0  0  0  0  0  0  0  0  0  0  0
    8.2624  -17.2471   23.6842 C   0  0  1  0  0  0  0  0  0  0  0  0
    7.7487  -16.9284   25.0353 C   0  0  0  0  0  0  0  0  0  0  0  0
    7.7251  -18.3211   25.6824 C   0  0  0  0  0  0  0  0  0  0  0  0
    7.4847  -18.2154   27.1136 O   0  0  0  0  0  0  0  0  0  0  0  0
    6.2785  -18.0874   27.4946 C   0  0  0  0  0  0  0  0  0  0  0  0
    8.6741  -16.0046   25.7108 O   0  0  0  0  0  0  0  0  0  0  0  0
    9.9253  -16.1616   25.4600 O   0  0  0  0  0  0  0  0  0  0  0  0
    8.4553  -18.2411   28.1032 N   0  0  0  0  0  0  0  0  0  0  0  0
    8.3327  -14.9625   26.5980 C   0  0  0  0  0  0  0  0  0  0  0  0
    6.9616  -14.6457   27.0578 C   0  0  0  0  0  0  0  0  0  0  0  0
    6.9757  -13.2585   27.5862 C   0  0  0  0  0  0  0  0  0  0  0  0
    8.3567  -12.7482   27.2651 C   0  0  2  0  0  0  0  0  0  0  0  0
    9.1626  -14.0267   27.3150 C   0  0  0  0  0  0  0  0  0  0  0  0
    9.2782  -14.4669   28.7522 O   0  0  0  0  0  0  0  0  0  0  0  0
   10.1392  -13.8451   29.6360 O   0  0  0  0  0  0  0  0  0  0  0  0
  2  4  1  0
  2  1  1  0
  3  2  2  0
  5  4  1  0
  6  5  1  0
  7  6  1  0
  8  7  1  0
  8  9  1  6
 10 11  2  0
 10  8  1  0
 12 10  1  0
 13 12  1  0
 14 15  1  0
 13 14  1  1
 15 16  2  0
 17 20  1  0
 17 13  1  0
 18 17  2  0
 19 15  1  0
 20 21  1  0
 22 21  1  0
 23 24  1  0
 23 22  1  0
 24 20  1  0
 24 25  1  1
 25 26  1  0
 27 25  2  0
M  END
$$$$
