RDP.pdb
     RDKit          3D

 27 27  0  0  1  0  0  0  0  0999 V2000
    8.9630  -11.6547   19.2532 N   0  0  0  0  0  0  0  0  0  0  0  0
    9.6887  -12.8656   19.0891 C   0  0  0  0  0  0  0  0  0  0  0  0
   10.9429  -12.9081   19.3838 N   0  0  0  0  0  0  0  0  0  0  0  0
    9.0631  -14.0421   18.6044 N   0  0  0  0  0  0  0  0  0  0  0  0
    8.3630  -14.9857   19.4590 C   0  0  0  0  0  0  0  0  0  0  0  0
    7.1960  -14.3236   20.1726 C   0  0  0  0  0  0  0  0  0  0  0  0
    6.1441  -15.3546   20.4921 C   0  0  0  0  0  0  0  0  0  0  0  0
    6.7827  -16.6493   20.9894 C   0  0  2  0  0  0  0  0  0  0  0  0
    6.2876  -17.7809   20.2953 N   0  0  0  0  0  0  0  0  0  0  0  0
    6.6288  -16.6905   22.4645 C   0  0  0  0  0  0  0  0  0  0  0  0
    5.4580  -16.4562   22.8979 O   0  0  0  0  0  0  0  0  0  0  0  0
   11.4933  -13.7646   19.2410 N   0  0  0  0  0  0  0  0  0  0  0  0
    7.6700  -16.9645   23.3448 C   0  0  2  0  0  0  0  0  0  0  0  0
    7.4371  -16.8256   24.8000 C   0  0  0  0  0  0  0  0  0  0  0  0
    7.4384  -18.2957   25.2447 C   0  0  0  0  0  0  0  0  0  0  0  0
    7.4757  -18.3903   26.6962 O   0  0  0  0  0  0  0  0  0  0  0  0
    6.3881  -18.1866   27.3222 C   0  0  0  0  0  0  0  0  0  0  0  0
    8.5318  -16.0492   25.4040 O   0  0  0  0  0  0  0  0  0  0  0  0
    9.7264  -16.3889   25.0716 O   0  0  0  0  0  0  0  0  0  0  0  0
    8.5941  -18.6829   27.4615 N   0  0  0  0  0  0  0  0  0  0  0  0
    8.4081  -14.9691   26.3027 C   0  0  0  0  0  0  0  0  0  0  0  0
    7.1315  -14.4432   26.8372 C   0  0  0  0  0  0  0  0  0  0  0  0
    7.3920  -13.0768   27.3555 C   0  0  0  0  0  0  0  0  0  0  0  0
    8.8154  -12.7877   26.9539 C   0  0  1  0  0  0  0  0  0  0  0  0
    9.4132  -14.1765   26.9661 C   0  0  0  0  0  0  0  0  0  0  0  0
    9.5398  -14.6335   28.3971 O   0  0  0  0  0  0  0  0  0  0  0  0
   10.5181  -14.1348   29.2357 O   0  0  0  0  0  0  0  0  0  0  0  0
  2  4  1  0
  2  1  1  0
  3  2  2  0
  5  4  1  0
  6  5  1  0
  7  6  1  0
  8  7  1  0
  8  9  1  6
 10 11  2  0
 10  8  1  0
 12 10  1  0
 13 12  1  0
 14 15  1  0
 13 14  1  6
 15 16  2  0
 17 20  1  0
 17 13  1  0
 18 17  2  0
 19 15  1  0
 20 21  1  0
 22 21  1  0
 23 24  1  0
 23 22  1  0
 24 20  1  0
 24 25  1  1
 25 26  1  0
 27 25  2  0
M  END
$$$$
