RDP.pdb
     RDKit          3D

 27 27  0  0  1  0  0  0  0  0999 V2000
   10.5095  -12.2269   19.8377 N   0  0  0  0  0  0  0  0  0  0  0  0
    9.1622  -12.5988   19.5803 C   0  0  0  0  0  0  0  0  0  0  0  0
    8.1990  -11.8400   19.9779 N   0  0  0  0  0  0  0  0  0  0  0  0
    8.8451  -13.7960   18.8897 N   0  0  0  0  0  0  0  0  0  0  0  0
    7.4897  -14.1774   18.5316 C   0  0  0  0  0  0  0  0  0  0  0  0
    6.9750  -15.2919   19.4272 C   0  0  0  0  0  0  0  0  0  0  0  0
    8.0793  -16.2829   19.6919 C   0  0  0  0  0  0  0  0  0  0  0  0
    7.5794  -17.4389   20.5552 C   0  0  2  0  0  0  0  0  0  0  0  0
    6.6211  -18.2290   19.8733 N   0  0  0  0  0  0  0  0  0  0  0  0
    7.1309  -16.8728   21.8512 C   0  0  0  0  0  0  0  0  0  0  0  0
    5.8924  -16.6019   21.9291 O   0  0  0  0  0  0  0  0  0  0  0  0
    8.3871  -10.9381   20.4342 N   0  0  0  0  0  0  0  0  0  0  0  0
    7.9774  -16.6415   22.9301 C   0  0  2  0  0  0  0  0  0  0  0  0
    7.3919  -16.4542   24.2766 C   0  0  0  0  0  0  0  0  0  0  0  0
    7.3035  -17.9064   24.7689 C   0  0  0  0  0  0  0  0  0  0  0  0
    6.9312  -17.9473   26.1749 O   0  0  0  0  0  0  0  0  0  0  0  0
    7.4646  -18.8503   26.8936 C   0  0  0  0  0  0  0  0  0  0  0  0
    8.2939  -15.6308   25.0978 O   0  0  0  0  0  0  0  0  0  0  0  0
    9.5540  -15.7819   24.8922 O   0  0  0  0  0  0  0  0  0  0  0  0
    6.0437  -17.0881   26.8044 N   0  0  0  0  0  0  0  0  0  0  0  0
    7.9217  -14.6898   26.0805 C   0  0  0  0  0  0  0  0  0  0  0  0
    6.5744  -14.5692   26.6822 C   0  0  0  0  0  0  0  0  0  0  0  0
    6.4785  -13.2228   27.2998 C   0  0  0  0  0  0  0  0  0  0  0  0
    7.7529  -12.5303   26.8909 C   0  0  1  0  0  0  0  0  0  0  0  0
    8.7030  -13.7016   26.7815 C   0  0  0  0  0  0  0  0  0  0  0  0
    9.0085  -14.2047   28.1694 O   0  0  0  0  0  0  0  0  0  0  0  0
    8.5852  -15.4468   28.6020 O   0  0  0  0  0  0  0  0  0  0  0  0
  2  4  1  0
  2  1  1  0
  3  2  2  0
  5  4  1  0
  6  5  1  0
  7  6  1  0
  8  7  1  0
  8  9  1  6
 10 11  2  0
 10  8  1  0
 12 10  1  0
 13 12  1  0
 14 15  1  0
 13 14  1  1
 15 16  2  0
 17 20  1  0
 17 13  1  0
 18 17  2  0
 19 15  1  0
 20 21  1  0
 22 21  1  0
 23 24  1  0
 23 22  1  0
 24 20  1  0
 24 25  1  1
 25 26  1  0
 27 25  2  0
M  END
$$$$
