RDP.pdb
     RDKit          3D

 27 27  0  0  1  0  0  0  0  0999 V2000
    8.4968  -12.2904   16.1845 N   0  0  0  0  0  0  0  0  0  0  0  0
    8.0533  -13.6344   16.3131 C   0  0  0  0  0  0  0  0  0  0  0  0
    8.6029  -14.5627   15.6075 N   0  0  0  0  0  0  0  0  0  0  0  0
    7.0103  -13.9862   17.2069 N   0  0  0  0  0  0  0  0  0  0  0  0
    7.0750  -13.7587   18.6404 C   0  0  0  0  0  0  0  0  0  0  0  0
    6.8130  -15.0396   19.4150 C   0  0  0  0  0  0  0  0  0  0  0  0
    6.7514  -14.7381   20.8905 C   0  0  0  0  0  0  0  0  0  0  0  0
    8.0946  -15.0173   21.5608 C   0  0  2  0  0  0  0  0  0  0  0  0
    8.8356  -16.0038   20.8641 N   0  0  0  0  0  0  0  0  0  0  0  0
    7.8323  -15.3111   22.9913 C   0  0  0  0  0  0  0  0  0  0  0  0
    7.1478  -14.4388   23.6111 O   0  0  0  0  0  0  0  0  0  0  0  0
    8.3488  -15.5503   15.7384 N   0  0  0  0  0  0  0  0  0  0  0  0
    8.2862  -16.4523   23.6438 C   0  0  1  0  0  0  0  0  0  0  0  0
    8.0784  -16.5766   25.1041 C   0  0  0  0  0  0  0  0  0  0  0  0
    7.6312  -18.0414   25.2189 C   0  0  0  0  0  0  0  0  0  0  0  0
    7.5785  -18.4516   26.6139 O   0  0  0  0  0  0  0  0  0  0  0  0
    6.4974  -18.2325   27.2460 C   0  0  0  0  0  0  0  0  0  0  0  0
    9.3439  -16.3131   25.8076 O   0  0  0  0  0  0  0  0  0  0  0  0
   10.4131  -16.7598   25.2506 O   0  0  0  0  0  0  0  0  0  0  0  0
    8.6044  -19.0615   27.3194 N   0  0  0  0  0  0  0  0  0  0  0  0
    9.5076  -15.6172   27.0237 C   0  0  0  0  0  0  0  0  0  0  0  0
    8.4065  -15.1305   27.8853 C   0  0  0  0  0  0  0  0  0  0  0  0
    8.9679  -14.0930   28.7864 C   0  0  0  0  0  0  0  0  0  0  0  0
   10.3804  -13.8969   28.2993 C   0  0  1  0  0  0  0  0  0  0  0  0
   10.6994  -15.2723   27.7579 C   0  0  0  0  0  0  0  0  0  0  0  0
   10.8585  -16.2213   28.9184 O   0  0  0  0  0  0  0  0  0  0  0  0
   11.9845  -16.2083   29.7191 O   0  0  0  0  0  0  0  0  0  0  0  0
  2  4  1  0
  2  1  1  0
  3  2  2  0
  5  4  1  0
  6  5  1  0
  7  6  1  0
  8  7  1  0
  8  9  1  6
 10 11  2  0
 10  8  1  0
 12 10  1  0
 13 12  1  0
 14 15  1  0
 13 14  1  1
 15 16  2  0
 17 20  1  0
 17 13  1  0
 18 17  2  0
 19 15  1  0
 20 21  1  0
 22 21  1  0
 23 24  1  0
 23 22  1  0
 24 20  1  0
 24 25  1  1
 25 26  1  0
 27 25  2  0
M  END
$$$$
