RDP.pdb
     RDKit          3D

 27 27  0  0  1  0  0  0  0  0999 V2000
    9.7661  -14.6919   16.3507 N   0  0  0  0  0  0  0  0  0  0  0  0
    8.5859  -14.0204   15.9313 C   0  0  0  0  0  0  0  0  0  0  0  0
    8.1893  -14.1210   14.7089 N   0  0  0  0  0  0  0  0  0  0  0  0
    7.8237  -13.2336   16.8316 N   0  0  0  0  0  0  0  0  0  0  0  0
    8.1517  -13.0856   18.2392 C   0  0  0  0  0  0  0  0  0  0  0  0
    8.5026  -14.4238   18.8680 C   0  0  0  0  0  0  0  0  0  0  0  0
    7.4973  -14.7618   19.9390 C   0  0  0  0  0  0  0  0  0  0  0  0
    7.7574  -16.1532   20.5115 C   0  0  2  0  0  0  0  0  0  0  0  0
    7.1722  -17.1681   19.7147 N   0  0  0  0  0  0  0  0  0  0  0  0
    7.3380  -16.1408   21.9346 C   0  0  0  0  0  0  0  0  0  0  0  0
    6.0850  -16.1980   22.1350 O   0  0  0  0  0  0  0  0  0  0  0  0
    7.3843  -13.5814   14.3655 N   0  0  0  0  0  0  0  0  0  0  0  0
    8.2254  -16.0735   23.0034 C   0  0  1  0  0  0  0  0  0  0  0  0
    7.6911  -16.0841   24.3838 C   0  0  0  0  0  0  0  0  0  0  0  0
    7.6992  -17.5879   24.6960 C   0  0  0  0  0  0  0  0  0  0  0  0
    6.8209  -17.8813   25.8184 O   0  0  0  0  0  0  0  0  0  0  0  0
    5.8708  -18.7017   25.6168 C   0  0  0  0  0  0  0  0  0  0  0  0
    8.5851  -15.3168   25.2658 O   0  0  0  0  0  0  0  0  0  0  0  0
    9.8474  -15.4678   25.0739 O   0  0  0  0  0  0  0  0  0  0  0  0
    6.9262  -17.3449   27.0925 N   0  0  0  0  0  0  0  0  0  0  0  0
    8.2033  -14.4294   26.2937 C   0  0  0  0  0  0  0  0  0  0  0  0
    6.8127  -14.1832   26.7380 C   0  0  0  0  0  0  0  0  0  0  0  0
    6.8013  -12.8995   27.4833 C   0  0  0  0  0  0  0  0  0  0  0  0
    8.1943  -12.3518   27.3095 C   0  0  1  0  0  0  0  0  0  0  0  0
    8.9992  -13.6261   27.1878 C   0  0  0  0  0  0  0  0  0  0  0  0
    9.0519  -14.2929   28.5389 O   0  0  0  0  0  0  0  0  0  0  0  0
    9.8421  -13.8031   29.5610 O   0  0  0  0  0  0  0  0  0  0  0  0
  2  4  1  0
  2  1  1  0
  3  2  2  0
  5  4  1  0
  6  5  1  0
  7  6  1  0
  8  7  1  0
  8  9  1  6
 10 11  2  0
 10  8  1  0
 12 10  1  0
 13 12  1  0
 14 15  1  0
 13 14  1  1
 15 16  2  0
 17 20  1  0
 17 13  1  0
 18 17  2  0
 19 15  1  0
 20 21  1  0
 22 21  1  0
 23 24  1  0
 23 22  1  0
 24 20  1  0
 24 25  1  1
 25 26  1  0
 27 25  2  0
M  END
$$$$
