RDP.pdb
     RDKit          3D

 27 27  0  0  1  0  0  0  0  0999 V2000
   10.5367  -13.2273   17.8677 N   0  0  0  0  0  0  0  0  0  0  0  0
    9.2982  -12.8318   18.4416 C   0  0  0  0  0  0  0  0  0  0  0  0
    9.2232  -11.7355   19.1156 N   0  0  0  0  0  0  0  0  0  0  0  0
    8.1289  -13.6197   18.2911 N   0  0  0  0  0  0  0  0  0  0  0  0
    6.9993  -13.5565   19.2026 C   0  0  0  0  0  0  0  0  0  0  0  0
    6.7065  -14.9166   19.8139 C   0  0  0  0  0  0  0  0  0  0  0  0
    7.9861  -15.5345   20.3165 C   0  0  0  0  0  0  0  0  0  0  0  0
    7.7133  -16.8700   21.0047 C   0  0  2  0  0  0  0  0  0  0  0  0
    6.8082  -17.6691   20.2631 N   0  0  0  0  0  0  0  0  0  0  0  0
    7.3095  -16.5825   22.4030 C   0  0  0  0  0  0  0  0  0  0  0  0
    6.1058  -16.2073   22.5575 O   0  0  0  0  0  0  0  0  0  0  0  0
    8.3460  -11.4500   19.5696 N   0  0  0  0  0  0  0  0  0  0  0  0
    8.1606  -16.7050   23.4961 C   0  0  1  0  0  0  0  0  0  0  0  0
    7.6551  -16.3596   24.8437 C   0  0  0  0  0  0  0  0  0  0  0  0
    7.8543  -17.6885   25.5875 C   0  0  0  0  0  0  0  0  0  0  0  0
    6.8156  -18.6395   25.2215 O   0  0  0  0  0  0  0  0  0  0  0  0
    5.6091  -18.2902   25.4185 C   0  0  0  0  0  0  0  0  0  0  0  0
    8.4621  -15.2665   25.4093 O   0  0  0  0  0  0  0  0  0  0  0  0
    9.6870  -15.2001   25.0243 O   0  0  0  0  0  0  0  0  0  0  0  0
    7.0229  -19.8970   24.6758 N   0  0  0  0  0  0  0  0  0  0  0  0
    8.0318  -14.2815   26.3228 C   0  0  0  0  0  0  0  0  0  0  0  0
    6.6520  -14.1395   26.8402 C   0  0  0  0  0  0  0  0  0  0  0  0
    6.5175  -12.7656   27.3858 C   0  0  0  0  0  0  0  0  0  0  0  0
    7.8113  -12.0866   27.0172 C   0  0  1  0  0  0  0  0  0  0  0  0
    8.7692  -13.2566   27.0187 C   0  0  0  0  0  0  0  0  0  0  0  0
    8.9962  -13.6910   28.4443 O   0  0  0  0  0  0  0  0  0  0  0  0
    8.4795  -14.8750   28.9346 O   0  0  0  0  0  0  0  0  0  0  0  0
  2  4  1  0
  2  1  1  0
  3  2  2  0
  5  4  1  0
  6  5  1  0
  7  6  1  0
  8  7  1  0
  8  9  1  6
 10 11  2  0
 10  8  1  0
 12 10  1  0
 13 12  1  0
 14 15  1  0
 13 14  1  1
 15 16  2  0
 17 20  1  0
 17 13  1  0
 18 17  2  0
 19 15  1  0
 20 21  1  0
 22 21  1  0
 23 24  1  0
 23 22  1  0
 24 20  1  0
 24 25  1  1
 25 26  1  0
 27 25  2  0
M  END
$$$$
