RDP.pdb
     RDKit          3D

 27 27  0  0  1  0  0  0  0  0999 V2000
    3.6064  -18.6251   12.7808 N   0  0  0  0  0  0  0  0  0  0  0  0
    4.8181  -18.2417   13.4169 C   0  0  0  0  0  0  0  0  0  0  0  0
    5.6399  -17.4539   12.8121 N   0  0  0  0  0  0  0  0  0  0  0  0
    5.1514  -18.7076   14.7139 N   0  0  0  0  0  0  0  0  0  0  0  0
    6.0149  -19.8507   14.9556 C   0  0  0  0  0  0  0  0  0  0  0  0
    7.3626  -19.4175   15.5081 C   0  0  0  0  0  0  0  0  0  0  0  0
    7.1590  -18.4421   16.6390 C   0  0  0  0  0  0  0  0  0  0  0  0
    8.4721  -17.7578   17.0120 C   0  0  2  0  0  0  0  0  0  0  0  0
    9.5219  -18.1174   16.1312 N   0  0  0  0  0  0  0  0  0  0  0  0
    8.7276  -18.0251   18.4488 C   0  0  0  0  0  0  0  0  0  0  0  0
    7.8356  -17.6045   19.2494 O   0  0  0  0  0  0  0  0  0  0  0  0
    6.6322  -17.4153   13.0787 N   0  0  0  0  0  0  0  0  0  0  0  0
    9.8533  -18.6886   18.9253 C   0  0  1  0  0  0  0  0  0  0  0  0
   10.0156  -18.8729   20.3850 C   0  0  0  0  0  0  0  0  0  0  0  0
   10.7886  -20.1991   20.4348 C   0  0  0  0  0  0  0  0  0  0  0  0
    9.8743  -21.3271   20.3410 O   0  0  0  0  0  0  0  0  0  0  0  0
    8.9525  -21.4050   21.2132 C   0  0  0  0  0  0  0  0  0  0  0  0
   10.7829  -17.7477   20.9430 O   0  0  0  0  0  0  0  0  0  0  0  0
   11.7819  -17.3344   20.2472 O   0  0  0  0  0  0  0  0  0  0  0  0
    9.9175  -22.3289   19.3836 N   0  0  0  0  0  0  0  0  0  0  0  0
   10.5338  -17.0719   22.1558 C   0  0  0  0  0  0  0  0  0  0  0  0
    9.5043  -17.4506   23.1500 C   0  0  0  0  0  0  0  0  0  0  0  0
    9.2634  -16.2701   24.0171 C   0  0  0  0  0  0  0  0  0  0  0  0
   10.0712  -15.1671   23.3832 C   0  0  1  0  0  0  0  0  0  0  0  0
   11.2064  -15.9513   22.7643 C   0  0  0  0  0  0  0  0  0  0  0  0
   12.1035  -16.4514   23.8678 O   0  0  0  0  0  0  0  0  0  0  0  0
   13.1384  -15.6843   24.3673 O   0  0  0  0  0  0  0  0  0  0  0  0
  2  4  1  0
  2  1  1  0
  3  2  2  0
  5  4  1  0
  6  5  1  0
  7  6  1  0
  8  7  1  0
  8  9  1  6
 10 11  2  0
 10  8  1  0
 12 10  1  0
 13 12  1  0
 14 15  1  0
 13 14  1  1
 15 16  2  0
 17 20  1  0
 17 13  1  0
 18 17  2  0
 19 15  1  0
 20 21  1  0
 22 21  1  0
 23 24  1  0
 23 22  1  0
 24 20  1  0
 24 25  1  1
 25 26  1  0
 27 25  2  0
M  END
$$$$
