RDP.pdb
     RDKit          3D

 27 27  0  0  1  0  0  0  0  0999 V2000
    9.6295  -14.6982   15.8181 N   0  0  0  0  0  0  0  0  0  0  0  0
    8.6909  -13.9245   16.5530 C   0  0  0  0  0  0  0  0  0  0  0  0
    8.1470  -12.8891   16.0108 N   0  0  0  0  0  0  0  0  0  0  0  0
    8.3321  -14.2646   17.8819 N   0  0  0  0  0  0  0  0  0  0  0  0
    7.3722  -13.5098   18.6691 C   0  0  0  0  0  0  0  0  0  0  0  0
    7.2282  -14.0882   20.0670 C   0  0  0  0  0  0  0  0  0  0  0  0
    8.4600  -14.8826   20.4182 C   0  0  0  0  0  0  0  0  0  0  0  0
    8.0912  -16.3034   20.8386 C   0  0  2  0  0  0  0  0  0  0  0  0
    6.9474  -16.7763   20.1489 N   0  0  0  0  0  0  0  0  0  0  0  0
    7.9954  -16.3250   22.3190 C   0  0  0  0  0  0  0  0  0  0  0  0
    6.8404  -16.0944   22.7947 O   0  0  0  0  0  0  0  0  0  0  0  0
    8.3995  -12.5935   15.0590 N   0  0  0  0  0  0  0  0  0  0  0  0
    9.0725  -16.5780   23.1616 C   0  0  1  0  0  0  0  0  0  0  0  0
    8.8486  -16.6146   24.6243 C   0  0  0  0  0  0  0  0  0  0  0  0
    9.6611  -17.8563   25.0202 C   0  0  0  0  0  0  0  0  0  0  0  0
    8.9113  -19.0700   24.7340 O   0  0  0  0  0  0  0  0  0  0  0  0
    7.6545  -19.0378   24.9235 C   0  0  0  0  0  0  0  0  0  0  0  0
    9.3663  -15.3795   25.2348 O   0  0  0  0  0  0  0  0  0  0  0  0
   10.5114  -14.9704   24.8173 O   0  0  0  0  0  0  0  0  0  0  0  0
    9.4450  -20.2633   24.2720 N   0  0  0  0  0  0  0  0  0  0  0  0
    8.7362  -14.5952   26.2234 C   0  0  0  0  0  0  0  0  0  0  0  0
    7.3880  -14.8444   26.7820 C   0  0  0  0  0  0  0  0  0  0  0  0
    6.9294  -13.5867   27.4233 C   0  0  0  0  0  0  0  0  0  0  0  0
    7.9910  -12.5767   27.0714 C   0  0  1  0  0  0  0  0  0  0  0  0
    9.2151  -13.4587   26.9701 C   0  0  0  0  0  0  0  0  0  0  0  0
    9.6030  -13.9047   28.3569 O   0  0  0  0  0  0  0  0  0  0  0  0
   10.3171  -13.0861   29.2108 O   0  0  0  0  0  0  0  0  0  0  0  0
  2  4  1  0
  2  1  1  0
  3  2  2  0
  5  4  1  0
  6  5  1  0
  7  6  1  0
  8  7  1  0
  8  9  1  6
 10 11  2  0
 10  8  1  0
 12 10  1  0
 13 12  1  0
 14 15  1  0
 13 14  1  1
 15 16  2  0
 17 20  1  0
 17 13  1  0
 18 17  2  0
 19 15  1  0
 20 21  1  0
 22 21  1  0
 23 24  1  0
 23 22  1  0
 24 20  1  0
 24 25  1  1
 25 26  1  0
 27 25  2  0
M  END
$$$$
