RDP.pdb
     RDKit          3D

 27 27  0  0  1  0  0  0  0  0999 V2000
    7.6970  -12.8198   15.4750 N   0  0  0  0  0  0  0  0  0  0  0  0
    7.8596  -14.2271   15.5889 C   0  0  0  0  0  0  0  0  0  0  0  0
    7.6096  -14.9867   14.5780 N   0  0  0  0  0  0  0  0  0  0  0  0
    8.2947  -14.8252   16.7988 N   0  0  0  0  0  0  0  0  0  0  0  0
    8.6664  -14.0636   17.9788 C   0  0  0  0  0  0  0  0  0  0  0  0
    7.4566  -13.3902   18.6050 C   0  0  0  0  0  0  0  0  0  0  0  0
    7.0217  -14.1592   19.8261 C   0  0  0  0  0  0  0  0  0  0  0  0
    8.2238  -14.5421   20.6863 C   0  0  2  0  0  0  0  0  0  0  0  0
    8.9331  -15.6405   20.1406 N   0  0  0  0  0  0  0  0  0  0  0  0
    7.7429  -14.7237   22.0780 C   0  0  0  0  0  0  0  0  0  0  0  0
    7.2160  -13.6984   22.6117 O   0  0  0  0  0  0  0  0  0  0  0  0
    7.9167  -15.9678   14.5620 N   0  0  0  0  0  0  0  0  0  0  0  0
    7.8428  -15.9185   22.7827 C   0  0  1  0  0  0  0  0  0  0  0  0
    7.4761  -15.9409   24.2166 C   0  0  0  0  0  0  0  0  0  0  0  0
    7.1100  -17.4201   24.4085 C   0  0  0  0  0  0  0  0  0  0  0  0
    7.0031  -17.7403   25.8239 O   0  0  0  0  0  0  0  0  0  0  0  0
    8.0211  -18.2566   26.3839 C   0  0  0  0  0  0  0  0  0  0  0  0
    8.6332  -15.5328   25.0292 O   0  0  0  0  0  0  0  0  0  0  0  0
    9.7830  -15.9604   24.6445 O   0  0  0  0  0  0  0  0  0  0  0  0
    5.8873  -17.5333   26.6203 N   0  0  0  0  0  0  0  0  0  0  0  0
    8.6142  -14.7176   26.1803 C   0  0  0  0  0  0  0  0  0  0  0  0
    7.3973  -14.3024   26.9141 C   0  0  0  0  0  0  0  0  0  0  0  0
    7.7554  -13.1264   27.7461 C   0  0  0  0  0  0  0  0  0  0  0  0
    9.1677  -12.7942   27.3390 C   0  0  1  0  0  0  0  0  0  0  0  0
    9.6933  -14.1595   26.9565 C   0  0  0  0  0  0  0  0  0  0  0  0
    9.8739  -14.9746   28.2117 O   0  0  0  0  0  0  0  0  0  0  0  0
    9.0656  -16.0581   28.4975 O   0  0  0  0  0  0  0  0  0  0  0  0
  2  4  1  0
  2  1  1  0
  3  2  2  0
  5  4  1  0
  6  5  1  0
  7  6  1  0
  8  7  1  0
  8  9  1  6
 10 11  2  0
 10  8  1  0
 12 10  1  0
 13 12  1  0
 14 15  1  0
 13 14  1  6
 15 16  2  0
 17 20  1  0
 17 13  1  0
 18 17  2  0
 19 15  1  0
 20 21  1  0
 22 21  1  0
 23 24  1  0
 23 22  1  0
 24 20  1  0
 24 25  1  1
 25 26  1  0
 27 25  2  0
M  END
$$$$
