YPD.pdb
     RDKit          3D

 28 29  0  0  1  0  0  0  0  0999 V2000
   16.9837  -18.0881  -19.5378 O   0  0  0  0  0  0  0  0  0  0  0  0
   17.5721  -16.8706  -19.1388 C   0  0  0  0  0  0  0  0  0  0  0  0
   17.8059  -15.8645  -20.0498 C   0  0  0  0  0  0  0  0  0  0  0  0
   18.3776  -14.6945  -19.6367 C   0  0  0  0  0  0  0  0  0  0  0  0
   18.7415  -14.4635  -18.3227 C   0  0  0  0  0  0  0  0  0  0  0  0
   19.3479  -13.1528  -17.9919 C   0  0  0  0  0  0  0  0  0  0  0  0
   20.8456  -13.2640  -18.1594 C   0  0  2  0  0  0  0  0  0  0  0  0
   21.3701  -14.3188  -17.3665 N   0  0  0  0  0  0  0  0  0  0  0  0
   21.5494  -11.9766  -17.9985 C   0  0  0  0  0  0  0  0  0  0  0  0
   22.1017  -11.7977  -16.8623 O   0  0  0  0  0  0  0  0  0  0  0  0
   18.5068  -15.4695  -17.4144 C   0  0  0  0  0  0  0  0  0  0  0  0
   17.9306  -16.6504  -17.8280 C   0  0  0  0  0  0  0  0  0  0  0  0
   21.6601  -10.9567  -18.9635 N   0  0  0  0  0  0  0  0  0  0  0  0
   21.1334  -10.8819  -20.3059 C   0  0  0  0  0  0  0  0  0  0  0  0
   21.9784   -9.8533  -21.0372 C   0  0  0  0  0  0  0  0  0  0  0  0
   23.1266   -9.5752  -20.0574 C   0  0  0  0  0  0  0  0  0  0  0  0
   22.3707   -9.7102  -18.7546 C   0  0  1  0  0  0  0  0  0  0  0  0
   21.3285   -8.6344  -18.6115 C   0  0  0  0  0  0  0  0  0  0  0  0
   20.1129   -8.8630  -18.8738 O   0  0  0  0  0  0  0  0  0  0  0  0
   21.7019   -7.3421  -18.1770 N   0  0  0  0  0  0  0  0  0  0  0  0
   21.0335   -6.7898  -16.9869 C   0  0  1  0  0  0  0  0  0  0  0  0
   21.2481   -7.7244  -15.8146 C   0  0  0  0  0  0  0  0  0  0  0  0
   20.7573   -7.2206  -14.5319 C   0  0  0  0  0  0  0  0  0  0  0  0
   20.1979   -6.0705  -14.4526 O   0  0  0  0  0  0  0  0  0  0  0  0
   21.5984   -5.4376  -16.7507 C   0  0  0  0  0  0  0  0  0  0  0  0
   22.8205   -5.0072  -17.2251 O   0  0  0  0  0  0  0  0  0  0  0  0
   20.8867   -7.9659  -13.3847 O   0  0  0  0  0  0  0  0  0  0  0  0
   20.9280   -4.6208  -16.0745 O   0  0  0  0  0  0  0  0  0  0  0  0
  2 12  2  0
  2  1  1  0
  3  2  1  0
  4  5  1  0
  4  3  2  0
  5 11  2  0
  6  7  1  0
  6  5  1  0
  7  8  1  1
  9  7  1  0
  9 13  1  0
 10  9  2  0
 11 12  1  0
 13 14  1  0
 14 15  1  0
 16 15  1  0
 17 13  1  0
 17 16  1  0
 18 19  2  0
 17 18  1  6
 20 18  1  0
 21 20  1  0
 21 25  1  0
 21 22  1  1
 23 22  1  0
 23 24  2  0
 25 26  1  0
 27 23  1  0
 28 25  2  0
M  END
$$$$
