YPD.pdb
     RDKit          3D

 28 29  0  0  1  0  0  0  0  0999 V2000
   20.7006  -10.4438    6.2912 O   0  0  0  0  0  0  0  0  0  0  0  0
   20.1585  -11.7195    6.0333 C   0  0  0  0  0  0  0  0  0  0  0  0
   20.0937  -12.6753    7.0227 C   0  0  0  0  0  0  0  0  0  0  0  0
   19.5638  -13.9036    6.7459 C   0  0  0  0  0  0  0  0  0  0  0  0
   19.0786  -14.2440    5.4964 C   0  0  0  0  0  0  0  0  0  0  0  0
   18.5210  -15.6049    5.3169 C   0  0  0  0  0  0  0  0  0  0  0  0
   17.0866  -15.4764    4.8591 C   0  0  2  0  0  0  0  0  0  0  0  0
   16.3124  -14.7548    5.8058 N   0  0  0  0  0  0  0  0  0  0  0  0
   16.4895  -16.7590    4.4387 C   0  0  0  0  0  0  0  0  0  0  0  0
   15.3968  -17.0664    5.0214 O   0  0  0  0  0  0  0  0  0  0  0  0
   19.1440  -13.2879    4.5097 C   0  0  0  0  0  0  0  0  0  0  0  0
   19.6779  -12.0484    4.7858 C   0  0  0  0  0  0  0  0  0  0  0  0
   17.0076  -17.6486    3.4776 N   0  0  0  0  0  0  0  0  0  0  0  0
   18.2081  -17.5635    2.6795 C   0  0  0  0  0  0  0  0  0  0  0  0
   17.9915  -18.4793    1.4874 C   0  0  0  0  0  0  0  0  0  0  0  0
   16.5085  -18.8594    1.5960 C   0  0  0  0  0  0  0  0  0  0  0  0
   16.3791  -18.9002    3.1022 C   0  0  1  0  0  0  0  0  0  0  0  0
   17.2155  -20.0016    3.6948 C   0  0  0  0  0  0  0  0  0  0  0  0
   18.4076  -19.7925    4.0604 O   0  0  0  0  0  0  0  0  0  0  0  0
   16.6707  -21.2966    3.8510 N   0  0  0  0  0  0  0  0  0  0  0  0
   17.3999  -22.2595    4.6931 C   0  0  1  0  0  0  0  0  0  0  0  0
   16.6360  -22.4735    5.9833 C   0  0  0  0  0  0  0  0  0  0  0  0
   17.1792  -23.5191    6.8504 C   0  0  0  0  0  0  0  0  0  0  0  0
   18.4419  -23.7294    6.9080 O   0  0  0  0  0  0  0  0  0  0  0  0
   17.5524  -23.5083    3.9053 C   0  0  0  0  0  0  0  0  0  0  0  0
   18.6152  -24.3806    4.0210 O   0  0  0  0  0  0  0  0  0  0  0  0
   16.3499  -24.2997    7.6193 O   0  0  0  0  0  0  0  0  0  0  0  0
   16.6601  -23.8018    3.0737 O   0  0  0  0  0  0  0  0  0  0  0  0
  2 12  2  0
  2  1  1  0
  3  2  1  0
  4  5  1  0
  4  3  2  0
  5 11  2  0
  6  7  1  0
  6  5  1  0
  7  8  1  1
  9  7  1  0
  9 13  1  0
 10  9  2  0
 11 12  1  0
 13 14  1  0
 14 15  1  0
 16 15  1  0
 17 13  1  0
 17 16  1  0
 18 19  2  0
 17 18  1  1
 20 18  1  0
 21 20  1  0
 21 25  1  0
 21 22  1  1
 23 22  1  0
 23 24  2  0
 25 26  1  0
 27 23  1  0
 28 25  2  0
M  END
$$$$
