YPD.pdb
     RDKit          3D

 28 29  0  0  1  0  0  0  0  0999 V2000
   28.3520  -16.1095  -20.8806 O   0  0  0  0  0  0  0  0  0  0  0  0
   27.9900  -16.7648  -19.6858 C   0  0  0  0  0  0  0  0  0  0  0  0
   26.6907  -17.1625  -19.4614 C   0  0  0  0  0  0  0  0  0  0  0  0
   26.3668  -17.7955  -18.2948 C   0  0  0  0  0  0  0  0  0  0  0  0
   27.2963  -18.0631  -17.3066 C   0  0  0  0  0  0  0  0  0  0  0  0
   26.8287  -18.7613  -16.0864 C   0  0  0  0  0  0  0  0  0  0  0  0
   27.4316  -20.1469  -16.0686 C   0  0  2  0  0  0  0  0  0  0  0  0
   26.9960  -20.9064  -17.1865 N   0  0  0  0  0  0  0  0  0  0  0  0
   27.2793  -20.8346  -14.7715 C   0  0  0  0  0  0  0  0  0  0  0  0
   26.4040  -21.7628  -14.7484 O   0  0  0  0  0  0  0  0  0  0  0  0
   28.5935  -17.6653  -17.5329 C   0  0  0  0  0  0  0  0  0  0  0  0
   28.9232  -17.0268  -18.7081 C   0  0  0  0  0  0  0  0  0  0  0  0
   27.9957  -20.5619  -13.5901 N   0  0  0  0  0  0  0  0  0  0  0  0
   29.0268  -19.5851  -13.3292 C   0  0  0  0  0  0  0  0  0  0  0  0
   29.7827  -20.0809  -12.1088 C   0  0  0  0  0  0  0  0  0  0  0  0
   29.2287  -21.4967  -11.8985 C   0  0  0  0  0  0  0  0  0  0  0  0
   27.8001  -21.2649  -12.3371 C   0  0  1  0  0  0  0  0  0  0  0  0
   27.0898  -20.3146  -11.4118 C   0  0  0  0  0  0  0  0  0  0  0  0
   27.0905  -19.0688  -11.6278 O   0  0  0  0  0  0  0  0  0  0  0  0
   26.4063  -20.8105  -10.2781 N   0  0  0  0  0  0  0  0  0  0  0  0
   25.0088  -20.3945  -10.0732 C   0  0  1  0  0  0  0  0  0  0  0  0
   24.1837  -20.8065  -11.2747 C   0  0  0  0  0  0  0  0  0  0  0  0
   22.7440  -20.5900  -11.1322 C   0  0  0  0  0  0  0  0  0  0  0  0
   22.2746  -19.9643  -10.1172 O   0  0  0  0  0  0  0  0  0  0  0  0
   24.5400  -21.0260   -8.8143 C   0  0  0  0  0  0  0  0  0  0  0  0
   24.3082  -22.3770   -8.6566 O   0  0  0  0  0  0  0  0  0  0  0  0
   21.8633  -21.0535  -12.0798 O   0  0  0  0  0  0  0  0  0  0  0  0
   24.3371  -20.2912   -7.8179 O   0  0  0  0  0  0  0  0  0  0  0  0
  2 12  2  0
  2  1  1  0
  3  2  1  0
  4  5  1  0
  4  3  2  0
  5 11  2  0
  6  7  1  0
  6  5  1  0
  7  8  1  6
  9  7  1  0
  9 13  1  0
 10  9  2  0
 11 12  1  0
 13 14  1  0
 14 15  1  0
 16 15  1  0
 17 13  1  0
 17 16  1  0
 18 19  2  0
 17 18  1  1
 20 18  1  0
 21 20  1  0
 21 25  1  0
 21 22  1  6
 23 22  1  0
 23 24  2  0
 25 26  1  0
 27 23  1  0
 28 25  2  0
M  END
$$$$
