YPD.pdb
     RDKit          3D

 28 29  0  0  1  0  0  0  0  0999 V2000
   26.2029  -14.7801  -24.5720 O   0  0  0  0  0  0  0  0  0  0  0  0
   25.6235  -14.1960  -23.4270 C   0  0  0  0  0  0  0  0  0  0  0  0
   26.4041  -13.5845  -22.4713 C   0  0  0  0  0  0  0  0  0  0  0  0
   25.8171  -13.0264  -21.3712 C   0  0  0  0  0  0  0  0  0  0  0  0
   24.4501  -13.0443  -21.1633 C   0  0  0  0  0  0  0  0  0  0  0  0
   23.9275  -12.4009  -19.9353 C   0  0  0  0  0  0  0  0  0  0  0  0
   24.4614  -13.1528  -18.7382 C   0  0  2  0  0  0  0  0  0  0  0  0
   24.0887  -14.5221  -18.7888 N   0  0  0  0  0  0  0  0  0  0  0  0
   24.1663  -12.4910  -17.4524 C   0  0  0  0  0  0  0  0  0  0  0  0
   23.1203  -12.9096  -16.8535 O   0  0  0  0  0  0  0  0  0  0  0  0
   23.6722  -13.6553  -22.1192 C   0  0  0  0  0  0  0  0  0  0  0  0
   24.2612  -14.2190  -23.2295 C   0  0  0  0  0  0  0  0  0  0  0  0
   24.9179  -11.4654  -16.8468 N   0  0  0  0  0  0  0  0  0  0  0  0
   26.1289  -10.8129  -17.2861 C   0  0  0  0  0  0  0  0  0  0  0  0
   26.7585  -10.2053  -16.0447 C   0  0  0  0  0  0  0  0  0  0  0  0
   25.9200  -10.7886  -14.8991 C   0  0  0  0  0  0  0  0  0  0  0  0
   24.5736  -10.8378  -15.5858 C   0  0  1  0  0  0  0  0  0  0  0  0
   24.0727   -9.4566  -15.9103 C   0  0  0  0  0  0  0  0  0  0  0  0
   24.3349   -8.9101  -17.0199 O   0  0  0  0  0  0  0  0  0  0  0  0
   23.2946   -8.7473  -14.9670 N   0  0  0  0  0  0  0  0  0  0  0  0
   22.1636   -7.9453  -15.4627 C   0  0  1  0  0  0  0  0  0  0  0  0
   21.2762   -8.8149  -16.3289 C   0  0  0  0  0  0  0  0  0  0  0  0
   20.0690   -8.1548  -16.8257 C   0  0  0  0  0  0  0  0  0  0  0  0
   18.9414   -8.3307  -16.2431 O   0  0  0  0  0  0  0  0  0  0  0  0
   21.4524   -7.4048  -14.2772 C   0  0  0  0  0  0  0  0  0  0  0  0
   21.5761   -7.9035  -12.9968 O   0  0  0  0  0  0  0  0  0  0  0  0
   20.1155   -7.3348  -17.9274 O   0  0  0  0  0  0  0  0  0  0  0  0
   20.6827   -6.4272  -14.4379 O   0  0  0  0  0  0  0  0  0  0  0  0
  2 12  2  0
  2  1  1  0
  3  2  1  0
  4  5  1  0
  4  3  2  0
  5 11  2  0
  6  7  1  0
  6  5  1  0
  7  8  1  1
  9  7  1  0
  9 13  1  0
 10  9  2  0
 11 12  1  0
 13 14  1  0
 14 15  1  0
 16 15  1  0
 17 13  1  0
 17 16  1  0
 18 19  2  0
 17 18  1  6
 20 18  1  0
 21 20  1  0
 21 25  1  0
 21 22  1  1
 23 22  1  0
 23 24  2  0
 25 26  1  0
 27 23  1  0
 28 25  2  0
M  END
$$$$
