YPD.pdb
     RDKit          3D

 28 29  0  0  1  0  0  0  0  0999 V2000
   26.0575  -15.8389  -15.4256 O   0  0  0  0  0  0  0  0  0  0  0  0
   26.3893  -17.1540  -15.8106 C   0  0  0  0  0  0  0  0  0  0  0  0
   27.6929  -17.5052  -16.0829 C   0  0  0  0  0  0  0  0  0  0  0  0
   27.9870  -18.7865  -16.4542 C   0  0  0  0  0  0  0  0  0  0  0  0
   27.0224  -19.7703  -16.5734 C   0  0  0  0  0  0  0  0  0  0  0  0
   27.4619  -21.1262  -16.9774 C   0  0  0  0  0  0  0  0  0  0  0  0
   27.7499  -21.9266  -15.7284 C   0  0  2  0  0  0  0  0  0  0  0  0
   28.3504  -23.1728  -16.0490 N   0  0  0  0  0  0  0  0  0  0  0  0
   26.5924  -22.0274  -14.8183 C   0  0  0  0  0  0  0  0  0  0  0  0
   25.6971  -22.8663  -15.1689 O   0  0  0  0  0  0  0  0  0  0  0  0
   25.7211  -19.4175  -16.3008 C   0  0  0  0  0  0  0  0  0  0  0  0
   25.4214  -18.1262  -15.9262 C   0  0  0  0  0  0  0  0  0  0  0  0
   26.3956  -21.2975  -13.6300 N   0  0  0  0  0  0  0  0  0  0  0  0
   27.1522  -20.2008  -13.0731 C   0  0  0  0  0  0  0  0  0  0  0  0
   26.8282  -20.1711  -11.5896 C   0  0  0  0  0  0  0  0  0  0  0  0
   26.0411  -21.4706  -11.3716 C   0  0  0  0  0  0  0  0  0  0  0  0
   25.3131  -21.5371  -12.6955 C   0  0  1  0  0  0  0  0  0  0  0  0
   24.3464  -20.3942  -12.8477 C   0  0  0  0  0  0  0  0  0  0  0  0
   24.6916  -19.3170  -13.4125 O   0  0  0  0  0  0  0  0  0  0  0  0
   23.0268  -20.5145  -12.3553 N   0  0  0  0  0  0  0  0  0  0  0  0
   21.9134  -20.2498  -13.2818 C   0  0  1  0  0  0  0  0  0  0  0  0
   22.0482  -21.1475  -14.4942 C   0  0  0  0  0  0  0  0  0  0  0  0
   21.4288  -20.6275  -15.7131 C   0  0  0  0  0  0  0  0  0  0  0  0
   20.2155  -20.2152  -15.7048 O   0  0  0  0  0  0  0  0  0  0  0  0
   20.6522  -20.4835  -12.5348 C   0  0  0  0  0  0  0  0  0  0  0  0
   20.5772  -21.0906  -11.2981 O   0  0  0  0  0  0  0  0  0  0  0  0
   22.1308  -20.5716  -16.8931 O   0  0  0  0  0  0  0  0  0  0  0  0
   19.5734  -20.1078  -13.0534 O   0  0  0  0  0  0  0  0  0  0  0  0
  2 12  2  0
  2  1  1  0
  3  2  1  0
  4  5  1  0
  4  3  2  0
  5 11  2  0
  6  7  1  0
  6  5  1  0
  7  8  1  6
  9  7  1  0
  9 13  1  0
 10  9  2  0
 11 12  1  0
 13 14  1  0
 14 15  1  0
 16 15  1  0
 17 13  1  0
 17 16  1  0
 18 19  2  0
 17 18  1  1
 20 18  1  0
 21 20  1  0
 21 25  1  0
 21 22  1  6
 23 22  1  0
 23 24  2  0
 25 26  1  0
 27 23  1  0
 28 25  2  0
M  END
$$$$
