YPD.pdb
     RDKit          3D

 28 29  0  0  1  0  0  0  0  0999 V2000
   27.2563  -14.3722  -20.7940 O   0  0  0  0  0  0  0  0  0  0  0  0
   26.7899  -15.4269  -19.9829 C   0  0  0  0  0  0  0  0  0  0  0  0
   27.4714  -15.8013  -18.8462 C   0  0  0  0  0  0  0  0  0  0  0  0
   26.9977  -16.8270  -18.0780 C   0  0  0  0  0  0  0  0  0  0  0  0
   25.8444  -17.5235  -18.3898 C   0  0  0  0  0  0  0  0  0  0  0  0
   25.4251  -18.6130  -17.4776 C   0  0  0  0  0  0  0  0  0  0  0  0
   26.5018  -19.6733  -17.4738 C   0  0  2  0  0  0  0  0  0  0  0  0
   26.5109  -20.3946  -18.6969 N   0  0  0  0  0  0  0  0  0  0  0  0
   26.4806  -20.5242  -16.2680 C   0  0  0  0  0  0  0  0  0  0  0  0
   25.7945  -21.5951  -16.3708 O   0  0  0  0  0  0  0  0  0  0  0  0
   25.1652  -17.1477  -19.5254 C   0  0  0  0  0  0  0  0  0  0  0  0
   25.6404  -16.1140  -20.3020 C   0  0  0  0  0  0  0  0  0  0  0  0
   27.1333  -20.2632  -15.0476 N   0  0  0  0  0  0  0  0  0  0  0  0
   27.9683  -19.1522  -14.6556 C   0  0  0  0  0  0  0  0  0  0  0  0
   28.8001  -19.6392  -13.4819 C   0  0  0  0  0  0  0  0  0  0  0  0
   28.5136  -21.1465  -13.4444 C   0  0  0  0  0  0  0  0  0  0  0  0
   27.0674  -21.1288  -13.8861 C   0  0  1  0  0  0  0  0  0  0  0  0
   26.1940  -20.4351  -12.8762 C   0  0  0  0  0  0  0  0  0  0  0  0
   26.1279  -19.1735  -12.8261 O   0  0  0  0  0  0  0  0  0  0  0  0
   25.4294  -21.1957  -11.9622 N   0  0  0  0  0  0  0  0  0  0  0  0
   24.3181  -20.5288  -11.2634 C   0  0  1  0  0  0  0  0  0  0  0  0
   23.0036  -21.0813  -11.7741 C   0  0  0  0  0  0  0  0  0  0  0  0
   21.8135  -20.5174  -11.1370 C   0  0  0  0  0  0  0  0  0  0  0  0
   21.9124  -19.5311  -10.3250 O   0  0  0  0  0  0  0  0  0  0  0  0
   24.5088  -20.7594   -9.8095 C   0  0  0  0  0  0  0  0  0  0  0  0
   24.1858  -19.8488   -8.8246 O   0  0  0  0  0  0  0  0  0  0  0  0
   20.5654  -21.0326  -11.3919 O   0  0  0  0  0  0  0  0  0  0  0  0
   24.9966  -21.8540   -9.4381 O   0  0  0  0  0  0  0  0  0  0  0  0
  2 12  2  0
  2  1  1  0
  3  2  1  0
  4  5  1  0
  4  3  2  0
  5 11  2  0
  6  7  1  0
  6  5  1  0
  7  8  1  6
  9  7  1  0
  9 13  1  0
 10  9  2  0
 11 12  1  0
 13 14  1  0
 14 15  1  0
 16 15  1  0
 17 13  1  0
 17 16  1  0
 18 19  2  0
 17 18  1  1
 20 18  1  0
 21 20  1  0
 21 25  1  0
 21 22  1  6
 23 22  1  0
 23 24  2  0
 25 26  1  0
 27 23  1  0
 28 25  2  0
M  END
$$$$
