YPD.pdb
     RDKit          3D

 28 29  0  0  1  0  0  0  0  0999 V2000
   21.5606  -10.1514    6.9733 O   0  0  0  0  0  0  0  0  0  0  0  0
   20.7768  -11.3196    7.0676 C   0  0  0  0  0  0  0  0  0  0  0  0
   19.4056  -11.2464    7.1730 C   0  0  0  0  0  0  0  0  0  0  0  0
   18.6697  -12.3939    7.2632 C   0  0  0  0  0  0  0  0  0  0  0  0
   19.2432  -13.6522    7.2540 C   0  0  0  0  0  0  0  0  0  0  0  0
   18.3428  -14.8247    7.3513 C   0  0  0  0  0  0  0  0  0  0  0  0
   18.0591  -15.3259    5.9542 C   0  0  2  0  0  0  0  0  0  0  0  0
   16.8647  -14.7548    5.4408 N   0  0  0  0  0  0  0  0  0  0  0  0
   18.1291  -16.7953    5.8343 C   0  0  0  0  0  0  0  0  0  0  0  0
   17.0876  -17.3510    5.3501 O   0  0  0  0  0  0  0  0  0  0  0  0
   20.6129  -13.7231    7.1484 C   0  0  0  0  0  0  0  0  0  0  0  0
   21.3576  -12.5678    7.0574 C   0  0  0  0  0  0  0  0  0  0  0  0
   19.2154  -17.6142    6.1989 N   0  0  0  0  0  0  0  0  0  0  0  0
   20.4645  -17.2759    6.8396 C   0  0  0  0  0  0  0  0  0  0  0  0
   21.4308  -18.3993    6.5065 C   0  0  0  0  0  0  0  0  0  0  0  0
   20.6720  -19.2208    5.4553 C   0  0  0  0  0  0  0  0  0  0  0  0
   19.2652  -19.0471    5.9821 C   0  0  1  0  0  0  0  0  0  0  0  0
   19.1001  -19.6964    7.3294 C   0  0  0  0  0  0  0  0  0  0  0  0
   19.3698  -19.0704    8.3942 O   0  0  0  0  0  0  0  0  0  0  0  0
   18.6361  -21.0287    7.4196 N   0  0  0  0  0  0  0  0  0  0  0  0
   18.0234  -21.4662    8.6850 C   0  0  1  0  0  0  0  0  0  0  0  0
   16.8547  -20.5605    9.0135 C   0  0  0  0  0  0  0  0  0  0  0  0
   16.0917  -20.9510   10.1989 C   0  0  0  0  0  0  0  0  0  0  0  0
   16.6146  -21.7051   11.0933 O   0  0  0  0  0  0  0  0  0  0  0  0
   17.6174  -22.8834    8.5124 C   0  0  0  0  0  0  0  0  0  0  0  0
   17.3038  -23.7386    9.5487 O   0  0  0  0  0  0  0  0  0  0  0  0
   14.7989  -20.5216   10.3792 O   0  0  0  0  0  0  0  0  0  0  0  0
   17.5510  -23.3474    7.3486 O   0  0  0  0  0  0  0  0  0  0  0  0
  2 12  2  0
  2  1  1  0
  3  2  1  0
  4  5  1  0
  4  3  2  0
  5 11  2  0
  6  7  1  0
  6  5  1  0
  7  8  1  1
  9  7  1  0
  9 13  1  0
 10  9  2  0
 11 12  1  0
 13 14  1  0
 14 15  1  0
 16 15  1  0
 17 13  1  0
 17 16  1  0
 18 19  2  0
 17 18  1  1
 20 18  1  0
 21 20  1  0
 21 25  1  0
 21 22  1  6
 23 22  1  0
 23 24  2  0
 25 26  1  0
 27 23  1  0
 28 25  2  0
M  END
$$$$
