YPD.pdb
     RDKit          3D

 28 29  0  0  1  0  0  0  0  0999 V2000
   18.7812  -22.3780  -11.6454 O   0  0  0  0  0  0  0  0  0  0  0  0
   19.9124  -21.9123  -12.3463 C   0  0  0  0  0  0  0  0  0  0  0  0
   20.6543  -22.7606  -13.1380 C   0  0  0  0  0  0  0  0  0  0  0  0
   21.7461  -22.2835  -13.8063 C   0  0  0  0  0  0  0  0  0  0  0  0
   22.1536  -20.9644  -13.7269 C   0  0  0  0  0  0  0  0  0  0  0  0
   23.3501  -20.5610  -14.5019 C   0  0  0  0  0  0  0  0  0  0  0  0
   22.9176  -19.5924  -15.5780 C   0  0  2  0  0  0  0  0  0  0  0  0
   21.7904  -20.0873  -16.2859 N   0  0  0  0  0  0  0  0  0  0  0  0
   24.0271  -19.1437  -16.4417 C   0  0  0  0  0  0  0  0  0  0  0  0
   23.9952  -19.5831  -17.6393 O   0  0  0  0  0  0  0  0  0  0  0  0
   21.4111  -20.1189  -12.9358 C   0  0  0  0  0  0  0  0  0  0  0  0
   20.3097  -20.5970  -12.2607 C   0  0  0  0  0  0  0  0  0  0  0  0
   25.0889  -18.2971  -16.0686 N   0  0  0  0  0  0  0  0  0  0  0  0
   25.3902  -17.6845  -14.7960 C   0  0  0  0  0  0  0  0  0  0  0  0
   26.2929  -16.5009  -15.0973 C   0  0  0  0  0  0  0  0  0  0  0  0
   26.2457  -16.3984  -16.6280 C   0  0  0  0  0  0  0  0  0  0  0  0
   26.1446  -17.8691  -16.9657 C   0  0  1  0  0  0  0  0  0  0  0  0
   27.3884  -18.6118  -16.5589 C   0  0  0  0  0  0  0  0  0  0  0  0
   27.5361  -19.0426  -15.3795 O   0  0  0  0  0  0  0  0  0  0  0  0
   28.4165  -18.8383  -17.5024 N   0  0  0  0  0  0  0  0  0  0  0  0
   29.0202  -20.1800  -17.5623 C   0  0  1  0  0  0  0  0  0  0  0  0
   27.9216  -21.2226  -17.5616 C   0  0  0  0  0  0  0  0  0  0  0  0
   28.0296  -22.2253  -16.5019 C   0  0  0  0  0  0  0  0  0  0  0  0
   29.0541  -22.2552  -15.7327 O   0  0  0  0  0  0  0  0  0  0  0  0
   29.8577  -20.2331  -18.7866 C   0  0  0  0  0  0  0  0  0  0  0  0
   30.9060  -21.1093  -18.9793 O   0  0  0  0  0  0  0  0  0  0  0  0
   27.0389  -23.1577  -16.3087 O   0  0  0  0  0  0  0  0  0  0  0  0
   29.6050  -19.4309  -19.7175 O   0  0  0  0  0  0  0  0  0  0  0  0
  2 12  2  0
  2  1  1  0
  3  2  1  0
  4  5  1  0
  4  3  2  0
  5 11  2  0
  6  7  1  0
  6  5  1  0
  7  8  1  6
  9  7  1  0
  9 13  1  0
 10  9  2  0
 11 12  1  0
 13 14  1  0
 14 15  1  0
 16 15  1  0
 17 13  1  0
 17 16  1  0
 18 19  2  0
 17 18  1  1
 20 18  1  0
 21 20  1  0
 21 25  1  0
 21 22  1  6
 23 22  1  0
 23 24  2  0
 25 26  1  0
 27 23  1  0
 28 25  2  0
M  END
$$$$
