YPD.pdb
     RDKit          3D

 28 29  0  0  1  0  0  0  0  0999 V2000
   18.9269  -11.0992    3.2929 O   0  0  0  0  0  0  0  0  0  0  0  0
   18.8371  -12.3995    3.8305 C   0  0  0  0  0  0  0  0  0  0  0  0
   18.1881  -12.6300    5.0232 C   0  0  0  0  0  0  0  0  0  0  0  0
   18.1158  -13.8998    5.5219 C   0  0  0  0  0  0  0  0  0  0  0  0
   18.6727  -14.9890    4.8770 C   0  0  0  0  0  0  0  0  0  0  0  0
   18.5250  -16.3197    5.5113 C   0  0  0  0  0  0  0  0  0  0  0  0
   17.8981  -17.2598    4.5079 C   0  0  2  0  0  0  0  0  0  0  0  0
   16.5914  -16.8304    4.1547 N   0  0  0  0  0  0  0  0  0  0  0  0
   17.9840  -18.6793    4.9030 C   0  0  0  0  0  0  0  0  0  0  0  0
   16.8899  -19.3315    4.8270 O   0  0  0  0  0  0  0  0  0  0  0  0
   19.3202  -14.7566    3.6859 C   0  0  0  0  0  0  0  0  0  0  0  0
   19.3948  -13.4773    3.1805 C   0  0  0  0  0  0  0  0  0  0  0  0
   19.1367  -19.3569    5.3451 N   0  0  0  0  0  0  0  0  0  0  0  0
   20.4971  -18.8922    5.4811 C   0  0  0  0  0  0  0  0  0  0  0  0
   21.3725  -20.1333    5.4766 C   0  0  0  0  0  0  0  0  0  0  0  0
   20.3980  -21.2543    5.0900 C   0  0  0  0  0  0  0  0  0  0  0  0
   19.1534  -20.7406    5.7784 C   0  0  1  0  0  0  0  0  0  0  0  0
   19.3203  -20.7258    7.2737 C   0  0  0  0  0  0  0  0  0  0  0  0
   19.8336  -19.7326    7.8643 O   0  0  0  0  0  0  0  0  0  0  0  0
   18.9001  -21.8350    8.0427 N   0  0  0  0  0  0  0  0  0  0  0  0
   18.8340  -21.6805    9.5055 C   0  0  1  0  0  0  0  0  0  0  0  0
   17.9146  -20.5257    9.8448 C   0  0  0  0  0  0  0  0  0  0  0  0
   17.6350  -20.3643   11.2716 C   0  0  0  0  0  0  0  0  0  0  0  0
   18.4510  -20.8125   12.1521 O   0  0  0  0  0  0  0  0  0  0  0  0
   18.3607  -22.9713   10.0651 C   0  0  0  0  0  0  0  0  0  0  0  0
   18.7493  -23.4835   11.2858 O   0  0  0  0  0  0  0  0  0  0  0  0
   16.4925  -19.7321   11.6998 O   0  0  0  0  0  0  0  0  0  0  0  0
   17.5514  -23.6528    9.3908 O   0  0  0  0  0  0  0  0  0  0  0  0
  2 12  2  0
  2  1  1  0
  3  2  1  0
  4  5  1  0
  4  3  2  0
  5 11  2  0
  6  7  1  0
  6  5  1  0
  7  8  1  1
  9  7  1  0
  9 13  1  0
 10  9  2  0
 11 12  1  0
 13 14  1  0
 14 15  1  0
 16 15  1  0
 17 13  1  0
 17 16  1  0
 18 19  2  0
 17 18  1  1
 20 18  1  0
 21 20  1  0
 21 25  1  0
 21 22  1  6
 23 22  1  0
 23 24  2  0
 25 26  1  0
 27 23  1  0
 28 25  2  0
M  END
$$$$
