YPD.pdb
     RDKit          3D

 28 29  0  0  1  0  0  0  0  0999 V2000
   19.7751  -22.8281  -13.8250 O   0  0  0  0  0  0  0  0  0  0  0  0
   19.0326  -23.0668  -12.6505 C   0  0  0  0  0  0  0  0  0  0  0  0
   19.6435  -23.5363  -11.5089 C   0  0  0  0  0  0  0  0  0  0  0  0
   18.9006  -23.7594  -10.3844 C   0  0  0  0  0  0  0  0  0  0  0  0
   17.5373  -23.5333  -10.3322 C   0  0  0  0  0  0  0  0  0  0  0  0
   16.8382  -23.8056   -9.0547 C   0  0  0  0  0  0  0  0  0  0  0  0
   16.6778  -25.3010   -8.9077 C   0  0  2  0  0  0  0  0  0  0  0  0
   16.0163  -25.8557  -10.0352 N   0  0  0  0  0  0  0  0  0  0  0  0
   16.1032  -25.7029   -7.6090 C   0  0  0  0  0  0  0  0  0  0  0  0
   14.8833  -26.0754   -7.6466 O   0  0  0  0  0  0  0  0  0  0  0  0
   16.9291  -23.0642  -11.4733 C   0  0  0  0  0  0  0  0  0  0  0  0
   17.6756  -22.8383  -12.6088 C   0  0  0  0  0  0  0  0  0  0  0  0
   16.7660  -25.7097   -6.3664 N   0  0  0  0  0  0  0  0  0  0  0  0
   18.0954  -25.2677   -6.0162 C   0  0  0  0  0  0  0  0  0  0  0  0
   18.4534  -25.9804   -4.7237 C   0  0  0  0  0  0  0  0  0  0  0  0
   17.3194  -27.0008   -4.5546 C   0  0  0  0  0  0  0  0  0  0  0  0
   16.1789  -26.1925   -5.1316 C   0  0  1  0  0  0  0  0  0  0  0  0
   15.8832  -24.9819   -4.2884 C   0  0  0  0  0  0  0  0  0  0  0  0
   16.6936  -24.0133   -4.2285 O   0  0  0  0  0  0  0  0  0  0  0  0
   14.6822  -24.9142   -3.5458 N   0  0  0  0  0  0  0  0  0  0  0  0
   14.3637  -23.6536   -2.8547 C   0  0  1  0  0  0  0  0  0  0  0  0
   12.9619  -23.2190   -3.2291 C   0  0  0  0  0  0  0  0  0  0  0  0
   12.8155  -22.7418   -4.6042 C   0  0  0  0  0  0  0  0  0  0  0  0
   13.8334  -22.3298   -5.2646 O   0  0  0  0  0  0  0  0  0  0  0  0
   14.5167  -23.8975   -1.3985 C   0  0  0  0  0  0  0  0  0  0  0  0
   14.6673  -22.9056   -0.4514 O   0  0  0  0  0  0  0  0  0  0  0  0
   11.5859  -22.7218   -5.2172 O   0  0  0  0  0  0  0  0  0  0  0  0
   14.5103  -25.0831   -0.9883 O   0  0  0  0  0  0  0  0  0  0  0  0
  2 12  2  0
  2  1  1  0
  3  2  1  0
  4  5  1  0
  4  3  2  0
  5 11  2  0
  6  7  1  0
  6  5  1  0
  7  8  1  6
  9  7  1  0
  9 13  1  0
 10  9  2  0
 11 12  1  0
 13 14  1  0
 14 15  1  0
 16 15  1  0
 17 13  1  0
 17 16  1  0
 18 19  2  0
 17 18  1  1
 20 18  1  0
 21 20  1  0
 21 25  1  0
 21 22  1  1
 23 22  1  0
 23 24  2  0
 25 26  1  0
 27 23  1  0
 28 25  2  0
M  END
$$$$
