YPD.pdb
     RDKit          3D

 28 29  0  0  1  0  0  0  0  0999 V2000
   18.0533  -17.5192    2.5814 O   0  0  0  0  0  0  0  0  0  0  0  0
   17.8586  -16.3849    3.3959 C   0  0  0  0  0  0  0  0  0  0  0  0
   17.5054  -16.5158    4.7206 C   0  0  0  0  0  0  0  0  0  0  0  0
   17.3228  -15.4001    5.4875 C   0  0  0  0  0  0  0  0  0  0  0  0
   17.4776  -14.1186    4.9915 C   0  0  0  0  0  0  0  0  0  0  0  0
   17.2591  -12.9851    5.9203 C   0  0  0  0  0  0  0  0  0  0  0  0
   18.3805  -11.9900    5.7310 C   0  0  2  0  0  0  0  0  0  0  0  0
   18.7125  -11.8517    4.3573 N   0  0  0  0  0  0  0  0  0  0  0  0
   19.5378  -12.2381    6.6128 C   0  0  0  0  0  0  0  0  0  0  0  0
   20.6779  -12.1764    6.0430 O   0  0  0  0  0  0  0  0  0  0  0  0
   17.8306  -13.9901    3.6683 C   0  0  0  0  0  0  0  0  0  0  0  0
   18.0154  -15.1131    2.8924 C   0  0  0  0  0  0  0  0  0  0  0  0
   19.4938  -12.5298    7.9899 N   0  0  0  0  0  0  0  0  0  0  0  0
   18.3639  -12.7687    8.8568 C   0  0  0  0  0  0  0  0  0  0  0  0
   18.8495  -12.5019   10.2709 C   0  0  0  0  0  0  0  0  0  0  0  0
   20.2361  -11.8790   10.0590 C   0  0  0  0  0  0  0  0  0  0  0  0
   20.6655  -12.6559    8.8346 C   0  0  1  0  0  0  0  0  0  0  0  0
   20.8241  -14.1202    9.1421 C   0  0  0  0  0  0  0  0  0  0  0  0
   19.9621  -14.9645    8.7644 O   0  0  0  0  0  0  0  0  0  0  0  0
   21.9517  -14.5724    9.8648 N   0  0  0  0  0  0  0  0  0  0  0  0
   22.1523  -16.0248   10.0008 C   0  0  1  0  0  0  0  0  0  0  0  0
   23.6368  -16.3234   10.0319 C   0  0  0  0  0  0  0  0  0  0  0  0
   23.9759  -17.7111   10.3467 C   0  0  0  0  0  0  0  0  0  0  0  0
   23.3376  -18.6795    9.8017 O   0  0  0  0  0  0  0  0  0  0  0  0
   21.4572  -16.4524   11.2407 C   0  0  0  0  0  0  0  0  0  0  0  0
   21.0270  -17.7392   11.4916 O   0  0  0  0  0  0  0  0  0  0  0  0
   24.9825  -18.0080   11.2338 O   0  0  0  0  0  0  0  0  0  0  0  0
   21.2399  -15.5937   12.1292 O   0  0  0  0  0  0  0  0  0  0  0  0
  2 12  2  0
  2  1  1  0
  3  2  1  0
  4  5  1  0
  4  3  2  0
  5 11  2  0
  6  7  1  0
  6  5  1  0
  7  8  1  6
  9  7  1  0
  9 13  1  0
 10  9  2  0
 11 12  1  0
 13 14  1  0
 14 15  1  0
 16 15  1  0
 17 13  1  0
 17 16  1  0
 18 19  2  0
 17 18  1  1
 20 18  1  0
 21 20  1  0
 21 25  1  0
 21 22  1  1
 23 22  1  0
 23 24  2  0
 25 26  1  0
 27 23  1  0
 28 25  2  0
M  END
$$$$
