YPD.pdb
     RDKit          3D

 28 29  0  0  1  0  0  0  0  0999 V2000
   21.5378  -16.7998  -21.9204 O   0  0  0  0  0  0  0  0  0  0  0  0
   21.2773  -15.7329  -21.0363 C   0  0  0  0  0  0  0  0  0  0  0  0
   20.0089  -15.2117  -20.9089 C   0  0  0  0  0  0  0  0  0  0  0  0
   19.7838  -14.1776  -20.0450 C   0  0  0  0  0  0  0  0  0  0  0  0
   20.7856  -13.6151  -19.2754 C   0  0  0  0  0  0  0  0  0  0  0  0
   20.4204  -12.5015  -18.3690 C   0  0  0  0  0  0  0  0  0  0  0  0
   20.3609  -13.0356  -16.9566 C   0  0  2  0  0  0  0  0  0  0  0  0
   19.3685  -14.0440  -16.8347 N   0  0  0  0  0  0  0  0  0  0  0  0
   20.2772  -11.9754  -15.9332 C   0  0  0  0  0  0  0  0  0  0  0  0
   19.1154  -11.7864  -15.4405 O   0  0  0  0  0  0  0  0  0  0  0  0
   22.0517  -14.1372  -19.4040 C   0  0  0  0  0  0  0  0  0  0  0  0
   22.2818  -15.1799  -20.2743 C   0  0  0  0  0  0  0  0  0  0  0  0
   21.3389  -11.1759  -15.4672 N   0  0  0  0  0  0  0  0  0  0  0  0
   22.7255  -11.1406  -15.8688 C   0  0  0  0  0  0  0  0  0  0  0  0
   23.4863  -10.5120  -14.7143 C   0  0  0  0  0  0  0  0  0  0  0  0
   22.4392  -10.4430  -13.5943 C   0  0  0  0  0  0  0  0  0  0  0  0
   21.2087  -10.1709  -14.4302 C   0  0  1  0  0  0  0  0  0  0  0  0
   21.2930   -8.8313  -15.1102 C   0  0  0  0  0  0  0  0  0  0  0  0
   21.9124   -8.6911  -16.2035 O   0  0  0  0  0  0  0  0  0  0  0  0
   20.6732   -7.7025  -14.5271 N   0  0  0  0  0  0  0  0  0  0  0  0
   20.4170   -6.5319  -15.3827 C   0  0  1  0  0  0  0  0  0  0  0  0
   18.9842   -6.0789  -15.1936 C   0  0  0  0  0  0  0  0  0  0  0  0
   18.5950   -4.9243  -16.0032 C   0  0  0  0  0  0  0  0  0  0  0  0
   19.4364   -4.3662  -16.7922 O   0  0  0  0  0  0  0  0  0  0  0  0
   21.4013   -5.4863  -15.0069 C   0  0  0  0  0  0  0  0  0  0  0  0
   22.2423   -5.5605  -13.9156 O   0  0  0  0  0  0  0  0  0  0  0  0
   17.3222   -4.4111  -15.9347 O   0  0  0  0  0  0  0  0  0  0  0  0
   21.4836   -4.4595  -15.7231 O   0  0  0  0  0  0  0  0  0  0  0  0
  2 12  2  0
  2  1  1  0
  3  2  1  0
  4  5  1  0
  4  3  2  0
  5 11  2  0
  6  7  1  0
  6  5  1  0
  7  8  1  6
  9  7  1  0
  9 13  1  0
 10  9  2  0
 11 12  1  0
 13 14  1  0
 14 15  1  0
 16 15  1  0
 17 13  1  0
 17 16  1  0
 18 19  2  0
 17 18  1  6
 20 18  1  0
 21 20  1  0
 21 25  1  0
 21 22  1  1
 23 22  1  0
 23 24  2  0
 25 26  1  0
 27 23  1  0
 28 25  2  0
M  END
$$$$
