FEM.pdb
     RDKit          3D

 29 29  0  0  1  0  0  0  0  0999 V2000
   27.2688  -19.9873  -16.6319 N   0  0  0  0  0  0  0  0  0  0  0  0
   26.9190  -21.0508  -15.7165 C   0  0  1  0  0  0  0  0  0  0  0  0
   28.1155  -21.9432  -15.5620 C   0  0  0  0  0  0  0  0  0  0  0  0
   28.2249  -22.7185  -16.8263 C   0  0  0  0  0  0  0  0  0  0  0  0
   29.2673  -22.5297  -17.7085 C   0  0  0  0  0  0  0  0  0  0  0  0
   29.3567  -23.2556  -18.8874 C   0  0  0  0  0  0  0  0  0  0  0  0
   28.4078  -24.1936  -19.2220 C   0  0  0  0  0  0  0  0  0  0  0  0
   27.3598  -24.3983  -18.3569 C   0  0  0  0  0  0  0  0  0  0  0  0
   27.2830  -23.6569  -17.1701 C   0  0  0  0  0  0  0  0  0  0  0  0
   26.4365  -20.4641  -14.4618 C   0  0  0  0  0  0  0  0  0  0  0  0
   27.1154  -19.5604  -13.8606 O   0  0  0  0  0  0  0  0  0  0  0  0
   25.2223  -20.8197  -13.8119 N   0  0  0  0  0  0  0  0  0  0  0  0
   24.7836  -20.2294  -12.5654 C   0  0  1  0  0  0  0  0  0  0  0  0
   23.3203  -19.9497  -12.6019 C   0  0  0  0  0  0  0  0  0  0  0  0
   22.4012  -21.1103  -12.6497 C   0  0  0  0  0  0  0  0  0  0  0  0
   21.4029  -21.1528  -13.7025 C   0  0  0  0  0  0  0  0  0  0  0  0
   21.3387  -22.1197  -14.4986 O   0  0  0  0  0  0  0  0  0  0  0  0
   25.1723  -20.9620  -11.3635 C   0  0  0  0  0  0  0  0  0  0  0  0
   24.9525  -22.2017  -11.2056 O   0  0  0  0  0  0  0  0  0  0  0  0
   20.4924  -20.1192  -13.8534 O   0  0  0  0  0  0  0  0  0  0  0  0
   29.0014  -18.3520   -6.5079 C   0  0  0  0  0  0  0  0  0  0  0  0
   28.0596  -19.5973   -5.6532 S   0  0  0  0  0  0  0  0  0  0  0  0
   26.8548  -20.4354   -6.6475 C   0  0  0  0  0  0  0  0  0  0  0  0
   26.8433  -20.0878   -8.0858 C   0  0  0  0  0  0  0  0  0  0  0  0
   25.8547  -20.7567   -8.9488 C   0  0  2  0  0  0  0  0  0  0  0  0
   25.8300  -20.2725  -10.3173 N   0  0  0  0  0  0  0  0  0  0  0  0
   24.4850  -20.8862   -8.3688 C   0  0  0  0  0  0  0  0  0  0  0  0
   23.5923  -20.1146   -8.8321 O   0  0  0  0  0  0  0  0  0  0  0  0
   24.1050  -21.7526   -7.3885 O   0  0  0  0  0  0  0  0  0  0  0  0
  2  1  1  6
  3  4  1  0
  3  2  1  0
  4  5  2  0
  4  9  1  0
  5  6  1  0
  6  7  2  0
  8  7  1  0
  9  8  2  0
 10  2  1  0
 11 10  2  0
 12 10  1  0
 13 12  1  0
 13 18  1  0
 13 14  1  6
 15 16  1  0
 15 14  1  0
 16 20  1  0
 17 16  2  0
 18 26  1  0
 19 18  2  0
 21 22  1  0
 23 22  1  0
 24 23  1  0
 25 24  1  1
 25 27  1  0
 26 25  1  0
 27 28  2  0
 27 29  1  0
M  END
$$$$
