FEM.pdb
     RDKit          3D

 29 29  0  0  1  0  0  0  0  0999 V2000
   26.5455  -18.4605   -7.9733 N   0  0  0  0  0  0  0  0  0  0  0  0
   26.9711  -19.7433   -8.4877 C   0  0  1  0  0  0  0  0  0  0  0  0
   26.8036  -20.7601   -7.3969 C   0  0  0  0  0  0  0  0  0  0  0  0
   27.7760  -20.3954   -6.3325 C   0  0  0  0  0  0  0  0  0  0  0  0
   29.1374  -20.5003   -6.5228 C   0  0  0  0  0  0  0  0  0  0  0  0
   30.0352  -20.1616   -5.5209 C   0  0  0  0  0  0  0  0  0  0  0  0
   29.6015  -19.7065   -4.2974 C   0  0  0  0  0  0  0  0  0  0  0  0
   28.2483  -19.5939   -4.0859 C   0  0  0  0  0  0  0  0  0  0  0  0
   27.3538  -19.9405   -5.1074 C   0  0  0  0  0  0  0  0  0  0  0  0
   26.2211  -20.0415   -9.7124 C   0  0  0  0  0  0  0  0  0  0  0  0
   24.9798  -19.7425   -9.8065 O   0  0  0  0  0  0  0  0  0  0  0  0
   26.7669  -20.6641  -10.8689 N   0  0  0  0  0  0  0  0  0  0  0  0
   26.1528  -20.5913  -12.1775 C   0  0  1  0  0  0  0  0  0  0  0  0
   27.1176  -21.0050  -13.2352 C   0  0  0  0  0  0  0  0  0  0  0  0
   26.6434  -20.9937  -14.6384 C   0  0  0  0  0  0  0  0  0  0  0  0
   27.5868  -21.3420  -15.6850 C   0  0  0  0  0  0  0  0  0  0  0  0
   28.3870  -22.2978  -15.5470 O   0  0  0  0  0  0  0  0  0  0  0  0
   24.8737  -21.2851  -12.2999 C   0  0  0  0  0  0  0  0  0  0  0  0
   24.7138  -22.5047  -11.9883 O   0  0  0  0  0  0  0  0  0  0  0  0
   27.6258  -20.6216  -16.8680 O   0  0  0  0  0  0  0  0  0  0  0  0
   19.9483  -23.9436  -11.4026 C   0  0  0  0  0  0  0  0  0  0  0  0
   19.5960  -22.2367  -11.0409 S   0  0  0  0  0  0  0  0  0  0  0  0
   19.9954  -21.1004  -12.3417 C   0  0  0  0  0  0  0  0  0  0  0  0
   21.3432  -20.4926  -12.2830 C   0  0  0  0  0  0  0  0  0  0  0  0
   22.4461  -21.1948  -12.9612 C   0  0  2  0  0  0  0  0  0  0  0  0
   23.7479  -20.5771  -12.7835 N   0  0  0  0  0  0  0  0  0  0  0  0
   22.1859  -21.5692  -14.3829 C   0  0  0  0  0  0  0  0  0  0  0  0
   21.1971  -22.3316  -14.6019 O   0  0  0  0  0  0  0  0  0  0  0  0
   22.9111  -21.1711  -15.4654 O   0  0  0  0  0  0  0  0  0  0  0  0
  2  1  1  1
  3  4  1  0
  3  2  1  0
  4  5  2  0
  4  9  1  0
  5  6  1  0
  6  7  2  0
  8  7  1  0
  9  8  2  0
 10  2  1  0
 11 10  2  0
 12 10  1  0
 13 12  1  0
 13 18  1  0
 13 14  1  6
 15 16  1  0
 15 14  1  0
 16 20  1  0
 17 16  2  0
 18 26  1  0
 19 18  2  0
 21 22  1  0
 23 22  1  0
 24 23  1  0
 25 24  1  6
 25 27  1  0
 26 25  1  0
 27 28  2  0
 27 29  1  0
M  END
$$$$
