FEM.pdb
     RDKit          3D

 29 29  0  0  1  0  0  0  0  0999 V2000
   28.4828  -20.3582  -14.5788 N   0  0  0  0  0  0  0  0  0  0  0  0
   27.3091  -20.5910  -13.7666 C   0  0  1  0  0  0  0  0  0  0  0  0
   27.4422  -19.7763  -12.5134 C   0  0  0  0  0  0  0  0  0  0  0  0
   28.5353  -20.4015  -11.7224 C   0  0  0  0  0  0  0  0  0  0  0  0
   28.2954  -21.4261  -10.8317 C   0  0  0  0  0  0  0  0  0  0  0  0
   29.3225  -21.9988  -10.0955 C   0  0  0  0  0  0  0  0  0  0  0  0
   30.6218  -21.5666  -10.2265 C   0  0  0  0  0  0  0  0  0  0  0  0
   30.8838  -20.5463  -11.1090 C   0  0  0  0  0  0  0  0  0  0  0  0
   29.8357  -19.9774  -11.8451 C   0  0  0  0  0  0  0  0  0  0  0  0
   26.1112  -20.2913  -14.5581 C   0  0  0  0  0  0  0  0  0  0  0  0
   25.8880  -19.1032  -14.9794 O   0  0  0  0  0  0  0  0  0  0  0  0
   25.1190  -21.2426  -14.9235 N   0  0  0  0  0  0  0  0  0  0  0  0
   23.7943  -20.8773  -15.3780 C   0  0  1  0  0  0  0  0  0  0  0  0
   23.6202  -21.2164  -16.8186 C   0  0  0  0  0  0  0  0  0  0  0  0
   22.3508  -20.8166  -17.4688 C   0  0  0  0  0  0  0  0  0  0  0  0
   22.1411  -21.1921  -18.8550 C   0  0  0  0  0  0  0  0  0  0  0  0
   23.1019  -21.2845  -19.6558 O   0  0  0  0  0  0  0  0  0  0  0  0
   22.6974  -21.3846  -14.5585 C   0  0  0  0  0  0  0  0  0  0  0  0
   22.7623  -22.4736  -13.9104 O   0  0  0  0  0  0  0  0  0  0  0  0
   20.8665  -21.4582  -19.3288 O   0  0  0  0  0  0  0  0  0  0  0  0
   22.1653  -19.5581   -8.9656 C   0  0  0  0  0  0  0  0  0  0  0  0
   21.0346  -20.8962   -9.2809 S   0  0  0  0  0  0  0  0  0  0  0  0
   20.2502  -20.8517  -10.8701 C   0  0  0  0  0  0  0  0  0  0  0  0
   21.1525  -20.7430  -12.0378 C   0  0  0  0  0  0  0  0  0  0  0  0
   20.5511  -20.7966  -13.3812 C   0  0  2  0  0  0  0  0  0  0  0  0
   21.4996  -20.6364  -14.4685 N   0  0  0  0  0  0  0  0  0  0  0  0
   19.3292  -19.9589  -13.5673 C   0  0  0  0  0  0  0  0  0  0  0  0
   18.3735  -20.1535  -12.7576 O   0  0  0  0  0  0  0  0  0  0  0  0
   19.1438  -19.0081  -14.5252 O   0  0  0  0  0  0  0  0  0  0  0  0
  2  1  1  6
  3  4  1  0
  3  2  1  0
  4  5  2  0
  4  9  1  0
  5  6  1  0
  6  7  2  0
  8  7  1  0
  9  8  2  0
 10  2  1  0
 11 10  2  0
 12 10  1  0
 13 12  1  0
 13 18  1  0
 13 14  1  6
 15 16  1  0
 15 14  1  0
 16 20  1  0
 17 16  2  0
 18 26  1  0
 19 18  2  0
 21 22  1  0
 23 22  1  0
 24 23  1  0
 25 24  1  1
 25 27  1  0
 26 25  1  0
 27 28  2  0
 27 29  1  0
M  END
$$$$
