FEM.pdb
     RDKit          3D

 29 29  0  0  1  0  0  0  0  0999 V2000
   22.8450  -16.2886  -18.5374 N   0  0  0  0  0  0  0  0  0  0  0  0
   21.4814  -15.9940  -18.9187 C   0  0  1  0  0  0  0  0  0  0  0  0
   21.1156  -16.8903  -20.0654 C   0  0  0  0  0  0  0  0  0  0  0  0
   21.8714  -16.3903  -21.2444 C   0  0  0  0  0  0  0  0  0  0  0  0
   22.9760  -17.0528  -21.7358 C   0  0  0  0  0  0  0  0  0  0  0  0
   23.6763  -16.5745  -22.8338 C   0  0  0  0  0  0  0  0  0  0  0  0
   23.2946  -15.4195  -23.4762 C   0  0  0  0  0  0  0  0  0  0  0  0
   22.1959  -14.7429  -23.0034 C   0  0  0  0  0  0  0  0  0  0  0  0
   21.4993  -15.2383  -21.8929 C   0  0  0  0  0  0  0  0  0  0  0  0
   20.6145  -16.1314  -17.7436 C   0  0  0  0  0  0  0  0  0  0  0  0
   20.8811  -16.9912  -16.8333 O   0  0  0  0  0  0  0  0  0  0  0  0
   19.4431  -15.3616  -17.5028 N   0  0  0  0  0  0  0  0  0  0  0  0
   18.6166  -15.5162  -16.3247 C   0  0  1  0  0  0  0  0  0  0  0  0
   17.9626  -14.2256  -15.9677 C   0  0  0  0  0  0  0  0  0  0  0  0
   18.8349  -13.1155  -15.5197 C   0  0  0  0  0  0  0  0  0  0  0  0
   18.2149  -11.8459  -15.1876 C   0  0  0  0  0  0  0  0  0  0  0  0
   18.4566  -10.8108  -15.8531 O   0  0  0  0  0  0  0  0  0  0  0  0
   17.6608  -16.6187  -16.3801 C   0  0  0  0  0  0  0  0  0  0  0  0
   16.8792  -16.8101  -17.3612 O   0  0  0  0  0  0  0  0  0  0  0  0
   17.3364  -11.7476  -14.1206 O   0  0  0  0  0  0  0  0  0  0  0  0
   14.2682  -21.6427  -17.7011 C   0  0  0  0  0  0  0  0  0  0  0  0
   15.9767  -21.8060  -17.2289 S   0  0  0  0  0  0  0  0  0  0  0  0
   16.3799  -21.1298  -15.6405 C   0  0  0  0  0  0  0  0  0  0  0  0
   17.2574  -19.9384  -15.6447 C   0  0  0  0  0  0  0  0  0  0  0  0
   16.6650  -18.6445  -15.2651 C   0  0  2  0  0  0  0  0  0  0  0  0
   17.5930  -17.5285  -15.2983 N   0  0  0  0  0  0  0  0  0  0  0  0
   15.8422  -18.6602  -14.0193 C   0  0  0  0  0  0  0  0  0  0  0  0
   16.2383  -17.9287  -13.0628 O   0  0  0  0  0  0  0  0  0  0  0  0
   14.7086  -19.3871  -13.8129 O   0  0  0  0  0  0  0  0  0  0  0  0
  2  1  1  1
  3  4  1  0
  3  2  1  0
  4  5  2  0
  4  9  1  0
  5  6  1  0
  6  7  2  0
  8  7  1  0
  9  8  2  0
 10  2  1  0
 11 10  2  0
 12 10  1  0
 13 12  1  0
 13 18  1  0
 13 14  1  6
 15 16  1  0
 15 14  1  0
 16 20  1  0
 17 16  2  0
 18 26  1  0
 19 18  2  0
 21 22  1  0
 23 22  1  0
 24 23  1  0
 25 24  1  1
 25 27  1  0
 26 25  1  0
 27 28  2  0
 27 29  1  0
M  END
$$$$
