FEM.pdb
     RDKit          3D

 29 29  0  0  1  0  0  0  0  0999 V2000
   27.9582  -20.8124   -9.1126 N   0  0  0  0  0  0  0  0  0  0  0  0
   26.7290  -20.1159   -8.8039 C   0  0  1  0  0  0  0  0  0  0  0  0
   27.0790  -18.8703   -8.0438 C   0  0  0  0  0  0  0  0  0  0  0  0
   27.6825  -19.3191   -6.7609 C   0  0  0  0  0  0  0  0  0  0  0  0
   27.1805  -20.3924   -6.0560 C   0  0  0  0  0  0  0  0  0  0  0  0
   27.7488  -20.7994   -4.8577 C   0  0  0  0  0  0  0  0  0  0  0  0
   28.8372  -20.1475   -4.3259 C   0  0  0  0  0  0  0  0  0  0  0  0
   29.3541  -19.0749   -5.0120 C   0  0  0  0  0  0  0  0  0  0  0  0
   28.7687  -18.6753   -6.2209 C   0  0  0  0  0  0  0  0  0  0  0  0
   25.9879  -19.8774  -10.0470 C   0  0  0  0  0  0  0  0  0  0  0  0
   26.2400  -18.8514  -10.7701 O   0  0  0  0  0  0  0  0  0  0  0  0
   24.9609  -20.7196  -10.5558 N   0  0  0  0  0  0  0  0  0  0  0  0
   24.2976  -20.4910  -11.8217 C   0  0  1  0  0  0  0  0  0  0  0  0
   25.2898  -20.4279  -12.9318 C   0  0  0  0  0  0  0  0  0  0  0  0
   26.2133  -21.5748  -13.0923 C   0  0  0  0  0  0  0  0  0  0  0  0
   26.7924  -21.8123  -14.4019 C   0  0  0  0  0  0  0  0  0  0  0  0
   27.4378  -20.9179  -14.9990 O   0  0  0  0  0  0  0  0  0  0  0  0
   23.1995  -21.4064  -12.1188 C   0  0  0  0  0  0  0  0  0  0  0  0
   23.3766  -22.6232  -12.4322 O   0  0  0  0  0  0  0  0  0  0  0  0
   26.6442  -23.0401  -15.0267 O   0  0  0  0  0  0  0  0  0  0  0  0
   16.8250  -24.3576   -9.1207 C   0  0  0  0  0  0  0  0  0  0  0  0
   18.2929  -23.3508   -9.1291 S   0  0  0  0  0  0  0  0  0  0  0  0
   18.9780  -23.0434  -10.7350 C   0  0  0  0  0  0  0  0  0  0  0  0
   20.1282  -22.1138  -10.7841 C   0  0  0  0  0  0  0  0  0  0  0  0
   20.7147  -21.8117  -12.1009 C   0  0  2  0  0  0  0  0  0  0  0  0
   21.8681  -20.9312  -12.0547 N   0  0  0  0  0  0  0  0  0  0  0  0
   19.7387  -21.4120  -13.1578 C   0  0  0  0  0  0  0  0  0  0  0  0
   19.6182  -20.1707  -13.3853 O   0  0  0  0  0  0  0  0  0  0  0  0
   18.9649  -22.2540  -13.8983 O   0  0  0  0  0  0  0  0  0  0  0  0
  2  1  1  6
  3  4  1  0
  3  2  1  0
  4  5  2  0
  4  9  1  0
  5  6  1  0
  6  7  2  0
  8  7  1  0
  9  8  2  0
 10  2  1  0
 11 10  2  0
 12 10  1  0
 13 12  1  0
 13 18  1  0
 13 14  1  6
 15 16  1  0
 15 14  1  0
 16 20  1  0
 17 16  2  0
 18 26  1  0
 19 18  2  0
 21 22  1  0
 23 22  1  0
 24 23  1  0
 25 24  1  1
 25 27  1  0
 26 25  1  0
 27 28  2  0
 27 29  1  0
M  END
$$$$
