FEM.pdb
     RDKit          3D

 29 29  0  0  1  0  0  0  0  0999 V2000
   28.8410  -21.1611   -9.0817 N   0  0  0  0  0  0  0  0  0  0  0  0
   27.4483  -20.7828   -8.9879 C   0  0  1  0  0  0  0  0  0  0  0  0
   27.3724  -19.4613   -8.2809 C   0  0  0  0  0  0  0  0  0  0  0  0
   27.7011  -19.7301   -6.8557 C   0  0  0  0  0  0  0  0  0  0  0  0
   26.8190  -20.3732   -6.0137 C   0  0  0  0  0  0  0  0  0  0  0  0
   27.1345  -20.6145   -4.6845 C   0  0  0  0  0  0  0  0  0  0  0  0
   28.3417  -20.2218   -4.1545 C   0  0  0  0  0  0  0  0  0  0  0  0
   29.2363  -19.5791   -4.9761 C   0  0  0  0  0  0  0  0  0  0  0  0
   28.9029  -19.3419   -6.3164 C   0  0  0  0  0  0  0  0  0  0  0  0
   26.8595  -20.7844  -10.3312 C   0  0  0  0  0  0  0  0  0  0  0  0
   27.4903  -20.2726  -11.3207 O   0  0  0  0  0  0  0  0  0  0  0  0
   25.5873  -21.3284  -10.6607 N   0  0  0  0  0  0  0  0  0  0  0  0
   25.0378  -21.3148  -11.9997 C   0  0  1  0  0  0  0  0  0  0  0  0
   24.9889  -22.6938  -12.5624 C   0  0  0  0  0  0  0  0  0  0  0  0
   24.4871  -22.8522  -13.9470 C   0  0  0  0  0  0  0  0  0  0  0  0
   24.5763  -24.1628  -14.5642 C   0  0  0  0  0  0  0  0  0  0  0  0
   24.1152  -24.3739  -15.7112 O   0  0  0  0  0  0  0  0  0  0  0  0
   23.7606  -20.6205  -12.1371 C   0  0  0  0  0  0  0  0  0  0  0  0
   22.8893  -20.5827  -11.2154 O   0  0  0  0  0  0  0  0  0  0  0  0
   25.1765  -25.2179  -13.8958 O   0  0  0  0  0  0  0  0  0  0  0  0
   22.0185  -15.3555  -16.5127 C   0  0  0  0  0  0  0  0  0  0  0  0
   20.9221  -16.7555  -16.5914 S   0  0  0  0  0  0  0  0  0  0  0  0
   20.8976  -17.7671  -15.1357 C   0  0  0  0  0  0  0  0  0  0  0  0
   22.1646  -18.4537  -14.7998 C   0  0  0  0  0  0  0  0  0  0  0  0
   22.1860  -19.3156  -13.6056 C   0  0  2  0  0  0  0  0  0  0  0  0
   23.4664  -19.9494  -13.3477 N   0  0  0  0  0  0  0  0  0  0  0  0
   21.0461  -20.2729  -13.4888 C   0  0  0  0  0  0  0  0  0  0  0  0
   20.0083  -19.8565  -12.8918 O   0  0  0  0  0  0  0  0  0  0  0  0
   21.0169  -21.5506  -13.9607 O   0  0  0  0  0  0  0  0  0  0  0  0
  2  1  1  6
  3  4  1  0
  3  2  1  0
  4  5  2  0
  4  9  1  0
  5  6  1  0
  6  7  2  0
  8  7  1  0
  9  8  2  0
 10  2  1  0
 11 10  2  0
 12 10  1  0
 13 12  1  0
 13 18  1  0
 13 14  1  1
 15 16  1  0
 15 14  1  0
 16 20  1  0
 17 16  2  0
 18 26  1  0
 19 18  2  0
 21 22  1  0
 23 22  1  0
 24 23  1  0
 25 24  1  6
 25 27  1  0
 26 25  1  0
 27 28  2  0
 27 29  1  0
M  END
$$$$
