FEM.pdb
     RDKit          3D

 29 29  0  0  1  0  0  0  0  0999 V2000
   21.0832  -17.8392  -19.0455 N   0  0  0  0  0  0  0  0  0  0  0  0
   21.7914  -18.7712  -18.1962 C   0  0  1  0  0  0  0  0  0  0  0  0
   23.0985  -18.1448  -17.8076 C   0  0  0  0  0  0  0  0  0  0  0  0
   23.9163  -18.0801  -19.0480 C   0  0  0  0  0  0  0  0  0  0  0  0
   24.4595  -19.2098  -19.6218 C   0  0  0  0  0  0  0  0  0  0  0  0
   25.2248  -19.1370  -20.7767 C   0  0  0  0  0  0  0  0  0  0  0  0
   25.4709  -17.9333  -21.3954 C   0  0  0  0  0  0  0  0  0  0  0  0
   24.9389  -16.7941  -20.8406 C   0  0  0  0  0  0  0  0  0  0  0  0
   24.1685  -16.8838  -19.6734 C   0  0  0  0  0  0  0  0  0  0  0  0
   20.9342  -19.1337  -17.0626 C   0  0  0  0  0  0  0  0  0  0  0  0
   20.7426  -18.3112  -16.1004 O   0  0  0  0  0  0  0  0  0  0  0  0
   20.2579  -20.3766  -16.9194 N   0  0  0  0  0  0  0  0  0  0  0  0
   19.4483  -20.7150  -15.7683 C   0  0  1  0  0  0  0  0  0  0  0  0
   18.2325  -21.4699  -16.1837 C   0  0  0  0  0  0  0  0  0  0  0  0
   18.2473  -22.9413  -16.0136 C   0  0  0  0  0  0  0  0  0  0  0  0
   17.1109  -23.7006  -16.5020 C   0  0  0  0  0  0  0  0  0  0  0  0
   17.0358  -24.9408  -16.3306 O   0  0  0  0  0  0  0  0  0  0  0  0
   20.1636  -21.3809  -14.6833 C   0  0  0  0  0  0  0  0  0  0  0  0
   21.1830  -22.1128  -14.8714 O   0  0  0  0  0  0  0  0  0  0  0  0
   16.0764  -23.0689  -17.1734 O   0  0  0  0  0  0  0  0  0  0  0  0
   24.3556  -20.9053   -8.4381 C   0  0  0  0  0  0  0  0  0  0  0  0
   23.5335  -20.3350   -9.9103 S   0  0  0  0  0  0  0  0  0  0  0  0
   22.1607  -21.3285  -10.4309 C   0  0  0  0  0  0  0  0  0  0  0  0
   21.4942  -20.9110  -11.6843 C   0  0  0  0  0  0  0  0  0  0  0  0
   20.4134  -21.7638  -12.2075 C   0  0  2  0  0  0  0  0  0  0  0  0
   19.7142  -21.2090  -13.3525 N   0  0  0  0  0  0  0  0  0  0  0  0
   19.4761  -22.3083  -11.1807 C   0  0  0  0  0  0  0  0  0  0  0  0
   18.2444  -22.0529  -11.3377 O   0  0  0  0  0  0  0  0  0  0  0  0
   19.8193  -23.0508  -10.0912 O   0  0  0  0  0  0  0  0  0  0  0  0
  2  1  1  6
  3  4  1  0
  3  2  1  0
  4  5  2  0
  4  9  1  0
  5  6  1  0
  6  7  2  0
  8  7  1  0
  9  8  2  0
 10  2  1  0
 11 10  2  0
 12 10  1  0
 13 12  1  0
 13 18  1  0
 13 14  1  6
 15 16  1  0
 15 14  1  0
 16 20  1  0
 17 16  2  0
 18 26  1  0
 19 18  2  0
 21 22  1  0
 23 22  1  0
 24 23  1  0
 25 24  1  1
 25 27  1  0
 26 25  1  0
 27 28  2  0
 27 29  1  0
M  END
$$$$
