FEM.pdb
     RDKit          3D

 29 29  0  0  1  0  0  0  0  0999 V2000
   24.4060  -16.4031  -18.4819 N   0  0  0  0  0  0  0  0  0  0  0  0
   24.6467  -17.1597  -17.2731 C   0  0  1  0  0  0  0  0  0  0  0  0
   25.7445  -16.4786  -16.5096 C   0  0  0  0  0  0  0  0  0  0  0  0
   27.0011  -16.7415  -17.2600 C   0  0  0  0  0  0  0  0  0  0  0  0
   27.6889  -17.9297  -17.1351 C   0  0  0  0  0  0  0  0  0  0  0  0
   28.8630  -18.1622  -17.8368 C   0  0  0  0  0  0  0  0  0  0  0  0
   29.3866  -17.2153  -18.6861 C   0  0  0  0  0  0  0  0  0  0  0  0
   28.7172  -16.0233  -18.8260 C   0  0  0  0  0  0  0  0  0  0  0  0
   27.5328  -15.8030  -18.1101 C   0  0  0  0  0  0  0  0  0  0  0  0
   23.3880  -17.2932  -16.5323 C   0  0  0  0  0  0  0  0  0  0  0  0
   22.4983  -16.3743  -16.5867 O   0  0  0  0  0  0  0  0  0  0  0  0
   23.0394  -18.4037  -15.7148 N   0  0  0  0  0  0  0  0  0  0  0  0
   21.7584  -18.5355  -15.0542 C   0  0  1  0  0  0  0  0  0  0  0  0
   20.6455  -18.4435  -16.0411 C   0  0  0  0  0  0  0  0  0  0  0  0
   20.4694  -19.5726  -16.9835 C   0  0  0  0  0  0  0  0  0  0  0  0
   19.3592  -19.5212  -17.9170 C   0  0  0  0  0  0  0  0  0  0  0  0
   18.5492  -18.5637  -17.9116 O   0  0  0  0  0  0  0  0  0  0  0  0
   21.6270  -19.7026  -14.1865 C   0  0  0  0  0  0  0  0  0  0  0  0
   21.6564  -20.8951  -14.6192 O   0  0  0  0  0  0  0  0  0  0  0  0
   19.1670  -20.5357  -18.8411 O   0  0  0  0  0  0  0  0  0  0  0  0
   21.9971  -22.0972   -6.5774 C   0  0  0  0  0  0  0  0  0  0  0  0
   21.7456  -20.7801   -7.7480 S   0  0  0  0  0  0  0  0  0  0  0  0
   21.5281  -21.3054   -9.4272 C   0  0  0  0  0  0  0  0  0  0  0  0
   21.6689  -20.2554  -10.4603 C   0  0  0  0  0  0  0  0  0  0  0  0
   21.3618  -20.6152  -11.8551 C   0  0  2  0  0  0  0  0  0  0  0  0
   21.4627  -19.5124  -12.7939 N   0  0  0  0  0  0  0  0  0  0  0  0
   20.1138  -21.4118  -12.0489 C   0  0  0  0  0  0  0  0  0  0  0  0
   19.0564  -20.7636  -12.3110 O   0  0  0  0  0  0  0  0  0  0  0  0
   20.0039  -22.7673  -11.9687 O   0  0  0  0  0  0  0  0  0  0  0  0
  2  1  1  6
  3  4  1  0
  3  2  1  0
  4  5  2  0
  4  9  1  0
  5  6  1  0
  6  7  2  0
  8  7  1  0
  9  8  2  0
 10  2  1  0
 11 10  2  0
 12 10  1  0
 13 12  1  0
 13 18  1  0
 13 14  1  6
 15 16  1  0
 15 14  1  0
 16 20  1  0
 17 16  2  0
 18 26  1  0
 19 18  2  0
 21 22  1  0
 23 22  1  0
 24 23  1  0
 25 24  1  1
 25 27  1  0
 26 25  1  0
 27 28  2  0
 27 29  1  0
M  END
$$$$
