FEM.pdb
     RDKit          3D

 29 29  0  0  1  0  0  0  0  0999 V2000
   25.1208  -16.9747  -17.0186 N   0  0  0  0  0  0  0  0  0  0  0  0
   25.8001  -17.8101  -16.0532 C   0  0  1  0  0  0  0  0  0  0  0  0
   26.9970  -17.0583  -15.5489 C   0  0  0  0  0  0  0  0  0  0  0  0
   27.9939  -17.0709  -16.6523 C   0  0  0  0  0  0  0  0  0  0  0  0
   28.3190  -15.9290  -17.3531 C   0  0  0  0  0  0  0  0  0  0  0  0
   29.2473  -15.9534  -18.3838 C   0  0  0  0  0  0  0  0  0  0  0  0
   29.8808  -17.1193  -18.7466 C   0  0  0  0  0  0  0  0  0  0  0  0
   29.5720  -18.2698  -18.0613 C   0  0  0  0  0  0  0  0  0  0  0  0
   28.6318  -18.2292  -17.0229 C   0  0  0  0  0  0  0  0  0  0  0  0
   24.8499  -18.2049  -15.0080 C   0  0  0  0  0  0  0  0  0  0  0  0
   24.1703  -17.3224  -14.3769 O   0  0  0  0  0  0  0  0  0  0  0  0
   24.5953  -19.5448  -14.6046 N   0  0  0  0  0  0  0  0  0  0  0  0
   23.7579  -19.8915  -13.4761 C   0  0  1  0  0  0  0  0  0  0  0  0
   22.5556  -20.6484  -13.9260 C   0  0  0  0  0  0  0  0  0  0  0  0
   21.5873  -21.0763  -12.8900 C   0  0  0  0  0  0  0  0  0  0  0  0
   20.4028  -21.8000  -13.3141 C   0  0  0  0  0  0  0  0  0  0  0  0
   19.7428  -21.4358  -14.3166 O   0  0  0  0  0  0  0  0  0  0  0  0
   24.4475  -20.5603  -12.3765 C   0  0  0  0  0  0  0  0  0  0  0  0
   25.1509  -21.6049  -12.5322 O   0  0  0  0  0  0  0  0  0  0  0  0
   19.9707  -22.9166  -12.6166 O   0  0  0  0  0  0  0  0  0  0  0  0
   27.9986  -19.9599   -5.3807 C   0  0  0  0  0  0  0  0  0  0  0  0
   27.3198  -19.2511   -6.8658 S   0  0  0  0  0  0  0  0  0  0  0  0
   26.2766  -20.3368   -7.8017 C   0  0  0  0  0  0  0  0  0  0  0  0
   25.7986  -19.8179   -9.1023 C   0  0  0  0  0  0  0  0  0  0  0  0
   24.9142  -20.6796   -9.9053 C   0  0  2  0  0  0  0  0  0  0  0  0
   24.3402  -20.0289  -11.0693 N   0  0  0  0  0  0  0  0  0  0  0  0
   23.8985  -21.4514   -9.1292 C   0  0  0  0  0  0  0  0  0  0  0  0
   22.6875  -21.1030   -9.2671 O   0  0  0  0  0  0  0  0  0  0  0  0
   24.1503  -22.4918   -8.2864 O   0  0  0  0  0  0  0  0  0  0  0  0
  2  1  1  6
  3  4  1  0
  3  2  1  0
  4  5  2  0
  4  9  1  0
  5  6  1  0
  6  7  2  0
  8  7  1  0
  9  8  2  0
 10  2  1  0
 11 10  2  0
 12 10  1  0
 13 12  1  0
 13 18  1  0
 13 14  1  6
 15 16  1  0
 15 14  1  0
 16 20  1  0
 17 16  2  0
 18 26  1  0
 19 18  2  0
 21 22  1  0
 23 22  1  0
 24 23  1  0
 25 24  1  1
 25 27  1  0
 26 25  1  0
 27 28  2  0
 27 29  1  0
M  END
$$$$
