FEM.pdb
     RDKit          3D

 29 29  0  0  1  0  0  0  0  0999 V2000
   27.1763  -18.1005  -19.5752 N   0  0  0  0  0  0  0  0  0  0  0  0
   26.7503  -17.6994  -18.2527 C   0  0  1  0  0  0  0  0  0  0  0  0
   26.0865  -16.3583  -18.3651 C   0  0  0  0  0  0  0  0  0  0  0  0
   27.0473  -15.4746  -19.0774 C   0  0  0  0  0  0  0  0  0  0  0  0
   28.3778  -15.4091  -18.7219 C   0  0  0  0  0  0  0  0  0  0  0  0
   29.2642  -14.5775  -19.3907 C   0  0  0  0  0  0  0  0  0  0  0  0
   28.8499  -13.7855  -20.4363 C   0  0  0  0  0  0  0  0  0  0  0  0
   27.5277  -13.8351  -20.8077 C   0  0  0  0  0  0  0  0  0  0  0  0
   26.6442  -14.6796  -20.1221 C   0  0  0  0  0  0  0  0  0  0  0  0
   25.8988  -18.7496  -17.6841 C   0  0  0  0  0  0  0  0  0  0  0  0
   25.5447  -19.7564  -18.3912 O   0  0  0  0  0  0  0  0  0  0  0  0
   25.4007  -18.7601  -16.3520 N   0  0  0  0  0  0  0  0  0  0  0  0
   24.5840  -19.8279  -15.8154 C   0  0  1  0  0  0  0  0  0  0  0  0
   25.3093  -21.1281  -15.8795 C   0  0  0  0  0  0  0  0  0  0  0  0
   26.7533  -21.0925  -16.2077 C   0  0  0  0  0  0  0  0  0  0  0  0
   27.4721  -22.3513  -16.2812 C   0  0  0  0  0  0  0  0  0  0  0  0
   26.8822  -23.4468  -16.1237 O   0  0  0  0  0  0  0  0  0  0  0  0
   24.0281  -19.5746  -14.4891 C   0  0  0  0  0  0  0  0  0  0  0  0
   24.6058  -18.8507  -13.6218 O   0  0  0  0  0  0  0  0  0  0  0  0
   28.8354  -22.3718  -16.5282 O   0  0  0  0  0  0  0  0  0  0  0  0
   21.4973  -16.0616  -17.3275 C   0  0  0  0  0  0  0  0  0  0  0  0
   20.0540  -16.2781  -16.3085 S   0  0  0  0  0  0  0  0  0  0  0  0
   20.2435  -17.4404  -14.9834 C   0  0  0  0  0  0  0  0  0  0  0  0
   21.3759  -18.3852  -15.1042 C   0  0  0  0  0  0  0  0  0  0  0  0
   21.5592  -19.3818  -14.0353 C   0  0  2  0  0  0  0  0  0  0  0  0
   22.7847  -20.1531  -14.1398 N   0  0  0  0  0  0  0  0  0  0  0  0
   20.3712  -20.2413  -13.7534 C   0  0  0  0  0  0  0  0  0  0  0  0
   19.4992  -19.7704  -12.9629 O   0  0  0  0  0  0  0  0  0  0  0  0
   20.1372  -21.4829  -14.2631 O   0  0  0  0  0  0  0  0  0  0  0  0
  2  1  1  6
  3  4  1  0
  3  2  1  0
  4  5  2  0
  4  9  1  0
  5  6  1  0
  6  7  2  0
  8  7  1  0
  9  8  2  0
 10  2  1  0
 11 10  2  0
 12 10  1  0
 13 12  1  0
 13 18  1  0
 13 14  1  1
 15 16  1  0
 15 14  1  0
 16 20  1  0
 17 16  2  0
 18 26  1  0
 19 18  2  0
 21 22  1  0
 23 22  1  0
 24 23  1  0
 25 24  1  6
 25 27  1  0
 26 25  1  0
 27 28  2  0
 27 29  1  0
M  END
$$$$
