FEM.pdb
     RDKit          3D

 29 29  0  0  1  0  0  0  0  0999 V2000
   26.8857  -20.3865  -16.6298 N   0  0  0  0  0  0  0  0  0  0  0  0
   27.2954  -19.2397  -15.8496 C   0  0  1  0  0  0  0  0  0  0  0  0
   27.0852  -18.0107  -16.6846 C   0  0  0  0  0  0  0  0  0  0  0  0
   27.9018  -18.1956  -17.9137 C   0  0  0  0  0  0  0  0  0  0  0  0
   29.2644  -17.9864  -17.9210 C   0  0  0  0  0  0  0  0  0  0  0  0
   30.0155  -18.1575  -19.0748 C   0  0  0  0  0  0  0  0  0  0  0  0
   29.4292  -18.5438  -20.2577 C   0  0  0  0  0  0  0  0  0  0  0  0
   28.0719  -18.7580  -20.2732 C   0  0  0  0  0  0  0  0  0  0  0  0
   27.3266  -18.5805  -19.0998 C   0  0  0  0  0  0  0  0  0  0  0  0
   26.5643  -19.2389  -14.5781 C   0  0  0  0  0  0  0  0  0  0  0  0
   26.6549  -18.2467  -13.7742 O   0  0  0  0  0  0  0  0  0  0  0  0
   25.7184  -20.2890  -14.1258 N   0  0  0  0  0  0  0  0  0  0  0  0
   24.8721  -20.1825  -12.9565 C   0  0  1  0  0  0  0  0  0  0  0  0
   23.4594  -20.5120  -13.2976 C   0  0  0  0  0  0  0  0  0  0  0  0
   22.4840  -20.5835  -12.1852 C   0  0  0  0  0  0  0  0  0  0  0  0
   21.1164  -20.9591  -12.4941 C   0  0  0  0  0  0  0  0  0  0  0  0
   20.2563  -21.0826  -11.5897 O   0  0  0  0  0  0  0  0  0  0  0  0
   25.3398  -20.9187  -11.7853 C   0  0  0  0  0  0  0  0  0  0  0  0
   25.4776  -22.1800  -11.7687 O   0  0  0  0  0  0  0  0  0  0  0  0
   20.7273  -21.1918  -13.8034 O   0  0  0  0  0  0  0  0  0  0  0  0
   28.4763  -18.0445   -6.6118 C   0  0  0  0  0  0  0  0  0  0  0  0
   28.1953  -19.7181   -6.0746 S   0  0  0  0  0  0  0  0  0  0  0  0
   27.0942  -20.6561   -7.0996 C   0  0  0  0  0  0  0  0  0  0  0  0
   26.8456  -20.1135   -8.4536 C   0  0  0  0  0  0  0  0  0  0  0  0
   25.9395  -20.8626   -9.3408 C   0  0  2  0  0  0  0  0  0  0  0  0
   25.6628  -20.2065  -10.6059 N   0  0  0  0  0  0  0  0  0  0  0  0
   24.7014  -21.3879   -8.6923 C   0  0  0  0  0  0  0  0  0  0  0  0
   23.6405  -20.7131   -8.8541 O   0  0  0  0  0  0  0  0  0  0  0  0
   24.6046  -22.5212   -7.9425 O   0  0  0  0  0  0  0  0  0  0  0  0
  2  1  1  6
  3  4  1  0
  3  2  1  0
  4  5  2  0
  4  9  1  0
  5  6  1  0
  6  7  2  0
  8  7  1  0
  9  8  2  0
 10  2  1  0
 11 10  2  0
 12 10  1  0
 13 12  1  0
 13 18  1  0
 13 14  1  6
 15 16  1  0
 15 14  1  0
 16 20  1  0
 17 16  2  0
 18 26  1  0
 19 18  2  0
 21 22  1  0
 23 22  1  0
 24 23  1  0
 25 24  1  1
 25 27  1  0
 26 25  1  0
 27 28  2  0
 27 29  1  0
M  END
$$$$
