FEM.pdb
     RDKit          3D

 29 29  0  0  1  0  0  0  0  0999 V2000
   23.4110  -18.6563  -16.5746 N   0  0  0  0  0  0  0  0  0  0  0  0
   23.4635  -19.3812  -15.3243 C   0  0  1  0  0  0  0  0  0  0  0  0
   24.3357  -18.6109  -14.3769 C   0  0  0  0  0  0  0  0  0  0  0  0
   25.6840  -18.5544  -15.0018 C   0  0  0  0  0  0  0  0  0  0  0  0
   26.5204  -19.6500  -15.0291 C   0  0  0  0  0  0  0  0  0  0  0  0
   27.7782  -19.5844  -15.6109 C   0  0  0  0  0  0  0  0  0  0  0  0
   28.2399  -18.4224  -16.1845 C   0  0  0  0  0  0  0  0  0  0  0  0
   27.4224  -17.3179  -16.1687 C   0  0  0  0  0  0  0  0  0  0  0  0
   26.1548  -17.3995  -15.5767 C   0  0  0  0  0  0  0  0  0  0  0  0
   22.0965  -19.6044  -14.8418 C   0  0  0  0  0  0  0  0  0  0  0  0
   21.1652  -18.7680  -15.1102 O   0  0  0  0  0  0  0  0  0  0  0  0
   21.6811  -20.7194  -14.0627 N   0  0  0  0  0  0  0  0  0  0  0  0
   20.2929  -21.0669  -13.8460 C   0  0  1  0  0  0  0  0  0  0  0  0
   19.5584  -21.1319  -15.1410 C   0  0  0  0  0  0  0  0  0  0  0  0
   18.1217  -21.4898  -15.0975 C   0  0  0  0  0  0  0  0  0  0  0  0
   17.3902  -21.5477  -16.3498 C   0  0  0  0  0  0  0  0  0  0  0  0
   17.9796  -21.4460  -17.4522 O   0  0  0  0  0  0  0  0  0  0  0  0
   20.0734  -22.2580  -13.0304 C   0  0  0  0  0  0  0  0  0  0  0  0
   20.6479  -23.3671  -13.2542 O   0  0  0  0  0  0  0  0  0  0  0  0
   16.0150  -21.7172  -16.3562 O   0  0  0  0  0  0  0  0  0  0  0  0
   19.2554  -25.7262   -6.5746 C   0  0  0  0  0  0  0  0  0  0  0  0
   19.5013  -24.3680   -7.6986 S   0  0  0  0  0  0  0  0  0  0  0  0
   18.1229  -24.0155   -8.7561 C   0  0  0  0  0  0  0  0  0  0  0  0
   18.3276  -22.9438   -9.7557 C   0  0  0  0  0  0  0  0  0  0  0  0
   18.9398  -23.3107  -11.0441 C   0  0  2  0  0  0  0  0  0  0  0  0
   19.1841  -22.1883  -11.9319 N   0  0  0  0  0  0  0  0  0  0  0  0
   18.3021  -24.4622  -11.7489 C   0  0  0  0  0  0  0  0  0  0  0  0
   18.8495  -25.5962  -11.6032 O   0  0  0  0  0  0  0  0  0  0  0  0
   17.1902  -24.4089  -12.5344 O   0  0  0  0  0  0  0  0  0  0  0  0
  2  1  1  6
  3  4  1  0
  3  2  1  0
  4  5  2  0
  4  9  1  0
  5  6  1  0
  6  7  2  0
  8  7  1  0
  9  8  2  0
 10  2  1  0
 11 10  2  0
 12 10  1  0
 13 12  1  0
 13 18  1  0
 13 14  1  6
 15 16  1  0
 15 14  1  0
 16 20  1  0
 17 16  2  0
 18 26  1  0
 19 18  2  0
 21 22  1  0
 23 22  1  0
 24 23  1  0
 25 24  1  1
 25 27  1  0
 26 25  1  0
 27 28  2  0
 27 29  1  0
M  END
$$$$
