FEM.pdb
     RDKit          3D

 29 29  0  0  1  0  0  0  0  0999 V2000
   13.0943  -16.7145    3.5425 N   0  0  0  0  0  0  0  0  0  0  0  0
   14.0858  -17.7603    3.6647 C   0  0  1  0  0  0  0  0  0  0  0  0
   14.8806  -17.7979    2.3924 C   0  0  0  0  0  0  0  0  0  0  0  0
   15.6819  -19.0498    2.4369 C   0  0  0  0  0  0  0  0  0  0  0  0
   17.0192  -19.0470    2.7720 C   0  0  0  0  0  0  0  0  0  0  0  0
   17.7582  -20.2207    2.8057 C   0  0  0  0  0  0  0  0  0  0  0  0
   17.1843  -21.4345    2.5066 C   0  0  0  0  0  0  0  0  0  0  0  0
   15.8522  -21.4608    2.1700 C   0  0  0  0  0  0  0  0  0  0  0  0
   15.1192  -20.2668    2.1396 C   0  0  0  0  0  0  0  0  0  0  0  0
   14.8862  -17.5236    4.8707 C   0  0  0  0  0  0  0  0  0  0  0  0
   15.1743  -16.3319    5.2390 O   0  0  0  0  0  0  0  0  0  0  0  0
   15.4020  -18.5434    5.7174 N   0  0  0  0  0  0  0  0  0  0  0  0
   16.1901  -18.2731    6.9009 C   0  0  1  0  0  0  0  0  0  0  0  0
   16.3322  -19.5028    7.7306 C   0  0  0  0  0  0  0  0  0  0  0  0
   16.9524  -19.3599    9.0681 C   0  0  0  0  0  0  0  0  0  0  0  0
   16.9567  -20.5127    9.9499 C   0  0  0  0  0  0  0  0  0  0  0  0
   15.9465  -20.8158   10.6285 O   0  0  0  0  0  0  0  0  0  0  0  0
   17.4757  -17.6265    6.6536 C   0  0  0  0  0  0  0  0  0  0  0  0
   18.2231  -17.9223    5.6716 O   0  0  0  0  0  0  0  0  0  0  0  0
   18.0845  -21.3098   10.0634 O   0  0  0  0  0  0  0  0  0  0  0  0
   21.7563  -11.0581    7.0861 C   0  0  0  0  0  0  0  0  0  0  0  0
   20.2250  -11.9456    7.2755 S   0  0  0  0  0  0  0  0  0  0  0  0
   20.3809  -13.7115    7.2748 C   0  0  0  0  0  0  0  0  0  0  0  0
   19.1184  -14.4758    7.3813 C   0  0  0  0  0  0  0  0  0  0  0  0
   19.2011  -15.9463    7.3876 C   0  0  2  0  0  0  0  0  0  0  0  0
   17.9224  -16.6171    7.5390 N   0  0  0  0  0  0  0  0  0  0  0  0
   20.2522  -16.5226    8.2777 C   0  0  0  0  0  0  0  0  0  0  0  0
   19.8764  -16.9280    9.4185 O   0  0  0  0  0  0  0  0  0  0  0  0
   21.5755  -16.6519    7.9810 O   0  0  0  0  0  0  0  0  0  0  0  0
  2  1  1  6
  3  4  1  0
  3  2  1  0
  4  5  2  0
  4  9  1  0
  5  6  1  0
  6  7  2  0
  8  7  1  0
  9  8  2  0
 10  2  1  0
 11 10  2  0
 12 10  1  0
 13 12  1  0
 13 18  1  0
 13 14  1  6
 15 16  1  0
 15 14  1  0
 16 20  1  0
 17 16  2  0
 18 26  1  0
 19 18  2  0
 21 22  1  0
 23 22  1  0
 24 23  1  0
 25 24  1  1
 25 27  1  0
 26 25  1  0
 27 28  2  0
 27 29  1  0
M  END
$$$$
