NYE.pdb
     RDKit          3D

 30 30  0  0  1  0  0  0  0  0999 V2000
    9.6309  -18.5441   16.9735 N   0  0  0  0  0  0  0  0  0  0  0  0
   10.3352  -17.3205   17.1197 C   0  0  0  0  0  0  0  0  0  0  0  0
   11.0071  -16.9142   16.1459 O   0  0  0  0  0  0  0  0  0  0  0  0
   10.2926  -16.5395   18.3620 C   0  0  0  0  0  0  0  0  0  0  0  0
    9.5132  -17.1241   19.4779 C   0  0  2  0  0  0  0  0  0  0  0  0
    8.1499  -17.4251   19.1867 N   0  0  0  0  0  0  0  0  0  0  0  0
    9.6605  -16.3381   20.7545 C   0  0  0  0  0  0  0  0  0  0  0  0
   10.7974  -16.1038   21.2075 O   0  0  0  0  0  0  0  0  0  0  0  0
    6.7976  -12.0750   28.0293 O   0  0  0  0  0  0  0  0  0  0  0  0
    6.8658  -12.7113   26.7767 C   0  0  0  0  0  0  0  0  0  0  0  0
    7.2713  -11.9990   25.6747 C   0  0  0  0  0  0  0  0  0  0  0  0
    7.3407  -12.6039   24.4582 C   0  0  0  0  0  0  0  0  0  0  0  0
    7.0122  -13.9517   24.2613 C   0  0  0  0  0  0  0  0  0  0  0  0
    7.1366  -14.5249   22.9044 C   0  0  0  0  0  0  0  0  0  0  0  0
    8.4640  -15.2578   22.7028 C   0  0  2  0  0  0  0  0  0  0  0  0
    8.5166  -15.8744   21.4268 N   0  0  0  0  0  0  0  0  0  0  0  0
    8.8032  -16.1227   23.8416 C   0  0  0  0  0  0  0  0  0  0  0  0
    8.2826  -17.2751   23.9897 O   0  0  0  0  0  0  0  0  0  0  0  0
    6.6126  -14.6372   25.3742 C   0  0  0  0  0  0  0  0  0  0  0  0
    6.5379  -14.0211   26.6321 C   0  0  0  0  0  0  0  0  0  0  0  0
    9.7336  -15.6522   24.7909 N   0  0  0  0  0  0  0  0  0  0  0  0
   10.6674  -16.5989   25.4637 C   0  0  1  0  0  0  0  0  0  0  0  0
   11.9986  -16.4176   24.8551 C   0  0  0  0  0  0  0  0  0  0  0  0
   13.1578  -17.1721   25.4090 C   0  0  0  0  0  0  0  0  0  0  0  0
   14.4261  -16.9180   24.7107 C   0  0  0  0  0  0  0  0  0  0  0  0
   15.3712  -17.7291   24.8310 O   0  0  0  0  0  0  0  0  0  0  0  0
   10.4643  -16.4616   26.8785 C   0  0  0  0  0  0  0  0  0  0  0  0
   11.0511  -17.2111   27.7171 O   0  0  0  0  0  0  0  0  0  0  0  0
   14.6378  -15.7927   23.8948 O   0  0  0  0  0  0  0  0  0  0  0  0
    9.6302  -15.5100   27.4348 O   0  0  0  0  0  0  0  0  0  0  0  0
  2  1  1  0
  2  3  2  0
  4  2  1  0
  5  4  1  0
  5  6  1  6
  7  5  1  0
  7  8  2  0
 10 20  2  0
 10  9  1  0
 11 10  1  0
 12 13  1  0
 12 11  2  0
 13 19  2  0
 14 13  1  0
 15 14  1  1
 15 16  1  0
 16  7  1  0
 17 15  1  0
 17 18  2  0
 19 20  1  0
 21 22  1  0
 21 17  1  0
 22 23  1  1
 23 24  1  0
 24 25  1  0
 25 29  1  0
 25 26  2  0
 27 22  1  0
 28 27  2  0
 30 27  1  0
M  END
$$$$
