NYE.pdb
     RDKit          3D

 30 30  0  0  1  0  0  0  0  0999 V2000
    8.2851  -12.0264   18.5719 N   0  0  0  0  0  0  0  0  0  0  0  0
    7.9696  -13.2916   19.1324 C   0  0  0  0  0  0  0  0  0  0  0  0
    7.4770  -14.1581   18.3765 O   0  0  0  0  0  0  0  0  0  0  0  0
    8.2041  -13.5977   20.5489 C   0  0  0  0  0  0  0  0  0  0  0  0
    8.6678  -14.9710   20.8551 C   0  0  2  0  0  0  0  0  0  0  0  0
    7.8321  -16.0243   20.3798 N   0  0  0  0  0  0  0  0  0  0  0  0
    9.0287  -15.1445   22.3072 C   0  0  0  0  0  0  0  0  0  0  0  0
   10.1212  -14.7171   22.7271 O   0  0  0  0  0  0  0  0  0  0  0  0
    6.8000  -10.2426   26.7435 O   0  0  0  0  0  0  0  0  0  0  0  0
    6.8930  -11.6120   26.4361 C   0  0  0  0  0  0  0  0  0  0  0  0
    6.1722  -12.1220   25.3841 C   0  0  0  0  0  0  0  0  0  0  0  0
    6.2541  -13.4450   25.0778 C   0  0  0  0  0  0  0  0  0  0  0  0
    7.0558  -14.3418   25.7964 C   0  0  0  0  0  0  0  0  0  0  0  0
    7.0932  -15.7587   25.3763 C   0  0  0  0  0  0  0  0  0  0  0  0
    8.3380  -16.0867   24.5499 C   0  0  2  0  0  0  0  0  0  0  0  0
    8.1327  -15.7869   23.1791 N   0  0  0  0  0  0  0  0  0  0  0  0
    8.8601  -17.4304   24.8358 C   0  0  0  0  0  0  0  0  0  0  0  0
    8.5420  -18.4403   24.1289 O   0  0  0  0  0  0  0  0  0  0  0  0
    7.7625  -13.8082   26.8374 C   0  0  0  0  0  0  0  0  0  0  0  0
    7.6836  -12.4455   27.1602 C   0  0  0  0  0  0  0  0  0  0  0  0
    9.7384  -17.5935   25.9268 N   0  0  0  0  0  0  0  0  0  0  0  0
   10.8356  -18.6003   25.8666 C   0  0  1  0  0  0  0  0  0  0  0  0
   11.7921  -18.1538   24.8365 C   0  0  0  0  0  0  0  0  0  0  0  0
   13.0283  -18.9514   24.6008 C   0  0  0  0  0  0  0  0  0  0  0  0
   13.3013  -19.2270   23.1830 C   0  0  0  0  0  0  0  0  0  0  0  0
   13.4902  -20.4056   22.8076 O   0  0  0  0  0  0  0  0  0  0  0  0
   11.2520  -18.8553   27.2169 C   0  0  0  0  0  0  0  0  0  0  0  0
   10.9832  -18.0562   28.1648 O   0  0  0  0  0  0  0  0  0  0  0  0
   13.3585  -18.2185   22.2049 O   0  0  0  0  0  0  0  0  0  0  0  0
   11.9634  -19.9800   27.5902 O   0  0  0  0  0  0  0  0  0  0  0  0
  2  1  1  0
  2  3  2  0
  4  2  1  0
  5  4  1  0
  5  6  1  1
  7  5  1  0
  7  8  2  0
 10 20  2  0
 10  9  1  0
 11 10  1  0
 12 13  1  0
 12 11  2  0
 13 19  2  0
 14 13  1  0
 15 14  1  1
 15 16  1  0
 16  7  1  0
 17 15  1  0
 17 18  2  0
 19 20  1  0
 21 22  1  0
 21 17  1  0
 22 23  1  6
 23 24  1  0
 24 25  1  0
 25 29  1  0
 25 26  2  0
 27 22  1  0
 28 27  2  0
 30 27  1  0
M  END
$$$$
