NYE.pdb
     RDKit          3D

 30 30  0  0  1  0  0  0  0  0999 V2000
    7.4527  -15.7562   15.9316 N   0  0  0  0  0  0  0  0  0  0  0  0
    7.9936  -14.4869   16.2642 C   0  0  0  0  0  0  0  0  0  0  0  0
    7.9610  -13.5919   15.3909 O   0  0  0  0  0  0  0  0  0  0  0  0
    8.5774  -14.2087   17.5822 C   0  0  0  0  0  0  0  0  0  0  0  0
    8.5042  -15.3043   18.5765 C   0  0  2  0  0  0  0  0  0  0  0  0
    7.3071  -16.0792   18.5533 N   0  0  0  0  0  0  0  0  0  0  0  0
    8.8539  -14.8420   19.9668 C   0  0  0  0  0  0  0  0  0  0  0  0
   10.0007  -14.4178   20.2061 O   0  0  0  0  0  0  0  0  0  0  0  0
    7.6347  -12.6165   28.4440 O   0  0  0  0  0  0  0  0  0  0  0  0
    7.4209  -12.9823   27.1028 C   0  0  0  0  0  0  0  0  0  0  0  0
    7.7270  -12.0951   26.1001 C   0  0  0  0  0  0  0  0  0  0  0  0
    7.5241  -12.4379   24.7993 C   0  0  0  0  0  0  0  0  0  0  0  0
    7.0055  -13.6814   24.4146 C   0  0  0  0  0  0  0  0  0  0  0  0
    6.8375  -13.9690   22.9743 C   0  0  0  0  0  0  0  0  0  0  0  0
    8.0789  -14.6219   22.3638 C   0  0  2  0  0  0  0  0  0  0  0  0
    7.8862  -14.8919   20.9850 N   0  0  0  0  0  0  0  0  0  0  0  0
    8.5716  -15.7478   23.1696 C   0  0  0  0  0  0  0  0  0  0  0  0
    7.9579  -16.8624   23.2144 O   0  0  0  0  0  0  0  0  0  0  0  0
    6.7101  -14.5453   25.4318 C   0  0  0  0  0  0  0  0  0  0  0  0
    6.9159  -14.1997   26.7755 C   0  0  0  0  0  0  0  0  0  0  0  0
    9.7594  -15.5771   23.9101 N   0  0  0  0  0  0  0  0  0  0  0  0
   10.4756  -16.7589   24.4680 C   0  0  1  0  0  0  0  0  0  0  0  0
   11.8543  -16.7304   23.9450 C   0  0  0  0  0  0  0  0  0  0  0  0
   12.8376  -17.7353   24.4380 C   0  0  0  0  0  0  0  0  0  0  0  0
   14.1779  -17.5997   23.8498 C   0  0  0  0  0  0  0  0  0  0  0  0
   14.9848  -16.7747   24.3338 O   0  0  0  0  0  0  0  0  0  0  0  0
   10.2088  -16.7897   25.8786 C   0  0  0  0  0  0  0  0  0  0  0  0
   10.3611  -17.8436   26.5680 O   0  0  0  0  0  0  0  0  0  0  0  0
   14.6132  -18.3649   22.7536 O   0  0  0  0  0  0  0  0  0  0  0  0
    9.7772  -15.6871   26.5917 O   0  0  0  0  0  0  0  0  0  0  0  0
  2  1  1  0
  2  3  2  0
  4  2  1  0
  5  4  1  0
  5  6  1  1
  7  5  1  0
  7  8  2  0
 10 20  2  0
 10  9  1  0
 11 10  1  0
 12 13  1  0
 12 11  2  0
 13 19  2  0
 14 13  1  0
 15 14  1  1
 15 16  1  0
 16  7  1  0
 17 15  1  0
 17 18  2  0
 19 20  1  0
 21 22  1  0
 21 17  1  0
 22 23  1  1
 23 24  1  0
 24 25  1  0
 25 29  1  0
 25 26  2  0
 27 22  1  0
 28 27  2  0
 30 27  1  0
M  END
$$$$
