NYE.pdb
     RDKit          3D

 30 30  0  0  1  0  0  0  0  0999 V2000
   10.6524  -19.2218   18.2218 N   0  0  0  0  0  0  0  0  0  0  0  0
   10.9493  -17.8346   18.2664 C   0  0  0  0  0  0  0  0  0  0  0  0
   11.4399  -17.3098   17.2423 O   0  0  0  0  0  0  0  0  0  0  0  0
   10.6984  -17.0211   19.4624 C   0  0  0  0  0  0  0  0  0  0  0  0
   10.1655  -17.7387   20.6437 C   0  0  2  0  0  0  0  0  0  0  0  0
    8.9245  -18.4135   20.4473 N   0  0  0  0  0  0  0  0  0  0  0  0
   10.1543  -16.8790   21.8806 C   0  0  0  0  0  0  0  0  0  0  0  0
   11.2232  -16.4088   22.3152 O   0  0  0  0  0  0  0  0  0  0  0  0
    7.7242  -12.0614   18.6572 O   0  0  0  0  0  0  0  0  0  0  0  0
    7.6741  -12.7851   19.8623 C   0  0  0  0  0  0  0  0  0  0  0  0
    8.4119  -12.3608   20.9401 C   0  0  0  0  0  0  0  0  0  0  0  0
    8.3714  -13.0532   22.1105 C   0  0  0  0  0  0  0  0  0  0  0  0
    7.5967  -14.2080   22.2824 C   0  0  0  0  0  0  0  0  0  0  0  0
    7.6038  -14.8818   23.5982 C   0  0  0  0  0  0  0  0  0  0  0  0
    8.7578  -15.8765   23.7351 C   0  0  2  0  0  0  0  0  0  0  0  0
    8.9403  -16.6128   22.5369 N   0  0  0  0  0  0  0  0  0  0  0  0
    8.6634  -16.6759   24.9647 C   0  0  0  0  0  0  0  0  0  0  0  0
    7.5665  -17.1990   25.3446 O   0  0  0  0  0  0  0  0  0  0  0  0
    6.8722  -14.6078   21.1946 C   0  0  0  0  0  0  0  0  0  0  0  0
    6.9084  -13.9000   19.9842 C   0  0  0  0  0  0  0  0  0  0  0  0
    9.8278  -16.8624   25.7378 N   0  0  0  0  0  0  0  0  0  0  0  0
    9.8234  -17.8070   26.8904 C   0  0  1  0  0  0  0  0  0  0  0  0
   10.2423  -19.1275   26.3843 C   0  0  0  0  0  0  0  0  0  0  0  0
   11.6294  -19.2993   25.8683 C   0  0  0  0  0  0  0  0  0  0  0  0
   11.9637  -20.6825   25.4997 C   0  0  0  0  0  0  0  0  0  0  0  0
   11.1409  -21.5981   25.7244 O   0  0  0  0  0  0  0  0  0  0  0  0
   10.5175  -17.1626   27.9697 C   0  0  0  0  0  0  0  0  0  0  0  0
   11.1389  -16.0682   27.8100 O   0  0  0  0  0  0  0  0  0  0  0  0
   13.1803  -21.0394   24.8920 O   0  0  0  0  0  0  0  0  0  0  0  0
   10.5586  -17.6712   29.2543 O   0  0  0  0  0  0  0  0  0  0  0  0
  2  1  1  0
  2  3  2  0
  4  2  1  0
  5  4  1  0
  5  6  1  6
  7  5  1  0
  7  8  2  0
 10 20  2  0
 10  9  1  0
 11 10  1  0
 12 13  1  0
 12 11  2  0
 13 19  2  0
 14 13  1  0
 15 14  1  6
 15 16  1  0
 16  7  1  0
 17 15  1  0
 17 18  2  0
 19 20  1  0
 21 22  1  0
 21 17  1  0
 22 23  1  6
 23 24  1  0
 24 25  1  0
 25 29  1  0
 25 26  2  0
 27 22  1  0
 28 27  2  0
 30 27  1  0
M  END
$$$$
