NYE.pdb
     RDKit          3D

 30 30  0  0  1  0  0  0  0  0999 V2000
    7.5879  -15.0591   17.7351 N   0  0  0  0  0  0  0  0  0  0  0  0
    7.9201  -13.9140   18.5050 C   0  0  0  0  0  0  0  0  0  0  0  0
    7.8787  -12.7989   17.9398 O   0  0  0  0  0  0  0  0  0  0  0  0
    8.3027  -14.0089   19.9192 C   0  0  0  0  0  0  0  0  0  0  0  0
    8.3930  -15.3754   20.4840 C   0  0  2  0  0  0  0  0  0  0  0  0
    7.2204  -16.1763   20.3510 N   0  0  0  0  0  0  0  0  0  0  0  0
    8.9266  -15.3802   21.8926 C   0  0  0  0  0  0  0  0  0  0  0  0
   10.1145  -15.0688   22.1038 O   0  0  0  0  0  0  0  0  0  0  0  0
    6.5083  -10.2416   26.7895 O   0  0  0  0  0  0  0  0  0  0  0  0
    6.7214  -11.5828   26.4229 C   0  0  0  0  0  0  0  0  0  0  0  0
    5.7139  -12.2875   25.8109 C   0  0  0  0  0  0  0  0  0  0  0  0
    5.9085  -13.5852   25.4522 C   0  0  0  0  0  0  0  0  0  0  0  0
    7.1142  -14.2623   25.6789 C   0  0  0  0  0  0  0  0  0  0  0  0
    7.2365  -15.6676   25.2369 C   0  0  0  0  0  0  0  0  0  0  0  0
    8.4434  -15.8860   24.3227 C   0  0  2  0  0  0  0  0  0  0  0  0
    8.0832  -15.7355   22.9593 N   0  0  0  0  0  0  0  0  0  0  0  0
    9.1805  -17.1134   24.6541 C   0  0  0  0  0  0  0  0  0  0  0  0
    8.7323  -18.2679   24.3586 O   0  0  0  0  0  0  0  0  0  0  0  0
    8.0998  -13.5379   26.2887 C   0  0  0  0  0  0  0  0  0  0  0  0
    7.9073  -12.1996   26.6619 C   0  0  0  0  0  0  0  0  0  0  0  0
   10.4190  -16.9967   25.3181 N   0  0  0  0  0  0  0  0  0  0  0  0
   11.2160  -18.2128   25.6447 C   0  0  1  0  0  0  0  0  0  0  0  0
   12.5518  -18.0433   25.0428 C   0  0  0  0  0  0  0  0  0  0  0  0
   13.6178  -19.0370   25.3524 C   0  0  0  0  0  0  0  0  0  0  0  0
   14.9136  -18.7396   24.7251 C   0  0  0  0  0  0  0  0  0  0  0  0
   15.8077  -18.1730   25.3924 O   0  0  0  0  0  0  0  0  0  0  0  0
   11.0523  -18.4628   27.0491 C   0  0  0  0  0  0  0  0  0  0  0  0
   11.4107  -19.5564   27.5829 O   0  0  0  0  0  0  0  0  0  0  0  0
   15.2106  -19.0677   23.3906 O   0  0  0  0  0  0  0  0  0  0  0  0
   10.5052  -17.5423   27.9233 O   0  0  0  0  0  0  0  0  0  0  0  0
  2  1  1  0
  2  3  2  0
  4  2  1  0
  5  4  1  0
  5  6  1  1
  7  5  1  0
  7  8  2  0
 10 20  2  0
 10  9  1  0
 11 10  1  0
 12 13  1  0
 12 11  2  0
 13 19  2  0
 14 13  1  0
 15 14  1  1
 15 16  1  0
 16  7  1  0
 17 15  1  0
 17 18  2  0
 19 20  1  0
 21 22  1  0
 21 17  1  0
 22 23  1  1
 23 24  1  0
 24 25  1  0
 25 29  1  0
 25 26  2  0
 27 22  1  0
 28 27  2  0
 30 27  1  0
M  END
$$$$
