NYE.pdb
     RDKit          3D

 30 30  0  0  1  0  0  0  0  0999 V2000
   10.9562  -20.5687   19.5494 N   0  0  0  0  0  0  0  0  0  0  0  0
   10.0842  -19.4947   19.2320 C   0  0  0  0  0  0  0  0  0  0  0  0
    9.7228  -19.3692   18.0411 O   0  0  0  0  0  0  0  0  0  0  0  0
    9.6084  -18.5494   20.2495 C   0  0  0  0  0  0  0  0  0  0  0  0
    9.6663  -17.1137   19.8890 C   0  0  2  0  0  0  0  0  0  0  0  0
   10.5891  -16.7740   18.8560 N   0  0  0  0  0  0  0  0  0  0  0  0
    9.8132  -16.2244   21.0958 C   0  0  0  0  0  0  0  0  0  0  0  0
   10.9471  -15.9919   21.5570 O   0  0  0  0  0  0  0  0  0  0  0  0
    6.6854  -11.8600   28.2451 O   0  0  0  0  0  0  0  0  0  0  0  0
    6.8698  -12.4180   26.9671 C   0  0  0  0  0  0  0  0  0  0  0  0
    6.1800  -13.5525   26.6158 C   0  0  0  0  0  0  0  0  0  0  0  0
    6.3506  -14.1011   25.3827 C   0  0  0  0  0  0  0  0  0  0  0  0
    7.2157  -13.5577   24.4237 C   0  0  0  0  0  0  0  0  0  0  0  0
    7.3205  -14.2154   23.1040 C   0  0  0  0  0  0  0  0  0  0  0  0
    8.5829  -15.0704   22.9798 C   0  0  2  0  0  0  0  0  0  0  0  0
    8.6722  -15.6629   21.6944 N   0  0  0  0  0  0  0  0  0  0  0  0
    8.7505  -15.9875   24.1159 C   0  0  0  0  0  0  0  0  0  0  0  0
    7.9370  -16.9418   24.3359 O   0  0  0  0  0  0  0  0  0  0  0  0
    7.8891  -12.4290   24.7989 C   0  0  0  0  0  0  0  0  0  0  0  0
    7.7192  -11.8571   26.0683 C   0  0  0  0  0  0  0  0  0  0  0  0
    9.8479  -15.7954   24.9802 N   0  0  0  0  0  0  0  0  0  0  0  0
   10.0223  -16.6616   26.1803 C   0  0  1  0  0  0  0  0  0  0  0  0
   11.1045  -17.6187   25.8838 C   0  0  0  0  0  0  0  0  0  0  0  0
   11.6435  -17.6968   24.4969 C   0  0  0  0  0  0  0  0  0  0  0  0
   12.2061  -19.0088   24.1465 C   0  0  0  0  0  0  0  0  0  0  0  0
   12.5314  -19.2453   22.9616 O   0  0  0  0  0  0  0  0  0  0  0  0
   10.0793  -15.7954   27.3240 C   0  0  0  0  0  0  0  0  0  0  0  0
   10.0985  -14.5322   27.2094 O   0  0  0  0  0  0  0  0  0  0  0  0
   12.4069  -20.0317   25.0900 O   0  0  0  0  0  0  0  0  0  0  0  0
   10.1103  -16.2606   28.6253 O   0  0  0  0  0  0  0  0  0  0  0  0
  2  1  1  0
  2  3  2  0
  4  2  1  0
  5  4  1  0
  5  6  1  6
  7  5  1  0
  7  8  2  0
 10 20  2  0
 10  9  1  0
 11 10  1  0
 12 13  1  0
 12 11  2  0
 13 19  2  0
 14 13  1  0
 15 14  1  1
 15 16  1  0
 16  7  1  0
 17 15  1  0
 17 18  2  0
 19 20  1  0
 21 22  1  0
 21 17  1  0
 22 23  1  6
 23 24  1  0
 24 25  1  0
 25 29  1  0
 25 26  2  0
 27 22  1  0
 28 27  2  0
 30 27  1  0
M  END
$$$$
