NYE.pdb
     RDKit          3D

 30 30  0  0  1  0  0  0  0  0999 V2000
   10.2294  -19.0840   17.8046 N   0  0  0  0  0  0  0  0  0  0  0  0
   10.1755  -17.6686   17.7146 C   0  0  0  0  0  0  0  0  0  0  0  0
   10.2884  -17.1515   16.5812 O   0  0  0  0  0  0  0  0  0  0  0  0
    9.9941  -16.8180   18.8972 C   0  0  0  0  0  0  0  0  0  0  0  0
    9.9709  -17.5110   20.2063 C   0  0  2  0  0  0  0  0  0  0  0  0
    8.8966  -18.4290   20.3991 N   0  0  0  0  0  0  0  0  0  0  0  0
   10.1169  -16.5575   21.3632 C   0  0  0  0  0  0  0  0  0  0  0  0
   11.1115  -15.8095   21.4249 O   0  0  0  0  0  0  0  0  0  0  0  0
    6.9896  -12.4802   18.2655 O   0  0  0  0  0  0  0  0  0  0  0  0
    7.2119  -13.0166   19.5467 C   0  0  0  0  0  0  0  0  0  0  0  0
    6.5513  -14.1585   19.9285 C   0  0  0  0  0  0  0  0  0  0  0  0
    6.7582  -14.6860   21.1654 C   0  0  0  0  0  0  0  0  0  0  0  0
    7.6328  -14.1126   22.0980 C   0  0  0  0  0  0  0  0  0  0  0  0
    7.8052  -14.7695   23.4111 C   0  0  0  0  0  0  0  0  0  0  0  0
    9.0693  -15.6288   23.4691 C   0  0  2  0  0  0  0  0  0  0  0  0
    9.1323  -16.5171   22.3654 N   0  0  0  0  0  0  0  0  0  0  0  0
    9.2687  -16.2408   24.7903 C   0  0  0  0  0  0  0  0  0  0  0  0
    9.1612  -15.5687   25.8662 O   0  0  0  0  0  0  0  0  0  0  0  0
    8.2774  -12.9777   21.6923 C   0  0  0  0  0  0  0  0  0  0  0  0
    8.0696  -12.4272   20.4191 C   0  0  0  0  0  0  0  0  0  0  0  0
    9.5876  -17.6128   24.8558 N   0  0  0  0  0  0  0  0  0  0  0  0
   10.8642  -18.0604   25.4809 C   0  0  1  0  0  0  0  0  0  0  0  0
   11.9696  -17.5430   24.6529 C   0  0  0  0  0  0  0  0  0  0  0  0
   13.3736  -17.7506   25.1064 C   0  0  0  0  0  0  0  0  0  0  0  0
   14.3842  -17.1774   24.2058 C   0  0  0  0  0  0  0  0  0  0  0  0
   14.6661  -17.7663   23.1384 O   0  0  0  0  0  0  0  0  0  0  0  0
   10.7759  -17.7657   26.8835 C   0  0  0  0  0  0  0  0  0  0  0  0
   11.1611  -18.5892   27.7682 O   0  0  0  0  0  0  0  0  0  0  0  0
   15.0619  -15.9769   24.4820 O   0  0  0  0  0  0  0  0  0  0  0  0
   10.2776  -16.5746   27.3770 O   0  0  0  0  0  0  0  0  0  0  0  0
  2  1  1  0
  2  3  2  0
  4  2  1  0
  5  4  1  0
  5  6  1  1
  7  5  1  0
  7  8  2  0
 10 20  2  0
 10  9  1  0
 11 10  1  0
 12 13  1  0
 12 11  2  0
 13 19  2  0
 14 13  1  0
 15 14  1  1
 15 16  1  0
 16  7  1  0
 17 15  1  0
 17 18  2  0
 19 20  1  0
 21 22  1  0
 21 17  1  0
 22 23  1  6
 23 24  1  0
 24 25  1  0
 25 29  1  0
 25 26  2  0
 27 22  1  0
 28 27  2  0
 30 27  1  0
M  END
$$$$
