NYE.pdb
     RDKit          3D

 30 30  0  0  1  0  0  0  0  0999 V2000
    9.7807  -16.7626   15.9032 N   0  0  0  0  0  0  0  0  0  0  0  0
   10.1583  -17.4294   17.0978 C   0  0  0  0  0  0  0  0  0  0  0  0
   10.3779  -18.6593   17.0349 O   0  0  0  0  0  0  0  0  0  0  0  0
   10.2934  -16.7218   18.3770 C   0  0  0  0  0  0  0  0  0  0  0  0
    9.5090  -17.2623   19.5115 C   0  0  2  0  0  0  0  0  0  0  0  0
    8.1415  -17.5551   19.2318 N   0  0  0  0  0  0  0  0  0  0  0  0
    9.6685  -16.4396   20.7632 C   0  0  0  0  0  0  0  0  0  0  0  0
   10.8099  -16.1484   21.1692 O   0  0  0  0  0  0  0  0  0  0  0  0
    6.9117  -11.7904   27.8557 O   0  0  0  0  0  0  0  0  0  0  0  0
    7.0252  -12.4198   26.6029 C   0  0  0  0  0  0  0  0  0  0  0  0
    6.3948  -13.6207   26.3869 C   0  0  0  0  0  0  0  0  0  0  0  0
    6.4979  -14.2387   25.1793 C   0  0  0  0  0  0  0  0  0  0  0  0
    7.2324  -13.7028   24.1132 C   0  0  0  0  0  0  0  0  0  0  0  0
    7.2707  -14.4399   22.8323 C   0  0  0  0  0  0  0  0  0  0  0  0
    8.4986  -15.3452   22.7198 C   0  0  2  0  0  0  0  0  0  0  0  0
    8.5308  -16.0059   21.4653 N   0  0  0  0  0  0  0  0  0  0  0  0
    8.6665  -16.2080   23.8975 C   0  0  0  0  0  0  0  0  0  0  0  0
    7.8642  -17.1634   24.1515 O   0  0  0  0  0  0  0  0  0  0  0  0
    7.8490  -12.5072   24.3548 C   0  0  0  0  0  0  0  0  0  0  0  0
    7.7481  -11.8635   25.5969 C   0  0  0  0  0  0  0  0  0  0  0  0
    9.7512  -15.9613   24.7640 N   0  0  0  0  0  0  0  0  0  0  0  0
   10.2215  -17.0192   25.7024 C   0  0  1  0  0  0  0  0  0  0  0  0
   11.4888  -17.5538   25.1700 C   0  0  0  0  0  0  0  0  0  0  0  0
   12.1838  -18.6438   25.9106 C   0  0  0  0  0  0  0  0  0  0  0  0
   13.4630  -19.0525   25.3127 C   0  0  0  0  0  0  0  0  0  0  0  0
   13.7806  -18.6249   24.1805 O   0  0  0  0  0  0  0  0  0  0  0  0
   10.1341  -16.4784   27.0296 C   0  0  0  0  0  0  0  0  0  0  0  0
    9.9999  -15.2347   27.2405 O   0  0  0  0  0  0  0  0  0  0  0  0
   14.3695  -19.9113   25.9587 O   0  0  0  0  0  0  0  0  0  0  0  0
   10.1812  -17.2586   28.1697 O   0  0  0  0  0  0  0  0  0  0  0  0
  2  1  1  0
  2  3  2  0
  4  2  1  0
  5  4  1  0
  5  6  1  6
  7  5  1  0
  7  8  2  0
 10 20  2  0
 10  9  1  0
 11 10  1  0
 12 13  1  0
 12 11  2  0
 13 19  2  0
 14 13  1  0
 15 14  1  1
 15 16  1  0
 16  7  1  0
 17 15  1  0
 17 18  2  0
 19 20  1  0
 21 22  1  0
 21 17  1  0
 22 23  1  6
 23 24  1  0
 24 25  1  0
 25 29  1  0
 25 26  2  0
 27 22  1  0
 28 27  2  0
 30 27  1  0
M  END
$$$$
