NYE.pdb
     RDKit          3D

 30 30  0  0  1  0  0  0  0  0999 V2000
    5.6469  -15.1915   17.9122 N   0  0  0  0  0  0  0  0  0  0  0  0
    7.0486  -15.3804   18.0309 C   0  0  0  0  0  0  0  0  0  0  0  0
    7.7183  -15.4563   16.9772 O   0  0  0  0  0  0  0  0  0  0  0  0
    7.7138  -15.4864   19.3353 C   0  0  0  0  0  0  0  0  0  0  0  0
    7.5066  -14.3567   20.2709 C   0  0  2  0  0  0  0  0  0  0  0  0
    7.4674  -13.0616   19.6749 N   0  0  0  0  0  0  0  0  0  0  0  0
    8.4412  -14.4100   21.4510 C   0  0  0  0  0  0  0  0  0  0  0  0
    9.6702  -14.4892   21.2621 O   0  0  0  0  0  0  0  0  0  0  0  0
   10.2979  -15.3010   30.1366 O   0  0  0  0  0  0  0  0  0  0  0  0
    9.7104  -14.9540   28.9066 C   0  0  0  0  0  0  0  0  0  0  0  0
    8.9279  -15.8690   28.2458 C   0  0  0  0  0  0  0  0  0  0  0  0
    8.3550  -15.5445   27.0554 C   0  0  0  0  0  0  0  0  0  0  0  0
    8.5235  -14.2928   26.4486 C   0  0  0  0  0  0  0  0  0  0  0  0
    7.8455  -14.0272   25.1620 C   0  0  0  0  0  0  0  0  0  0  0  0
    8.6346  -14.5662   23.9676 C   0  0  2  0  0  0  0  0  0  0  0  0
    7.9226  -14.3706   22.7568 N   0  0  0  0  0  0  0  0  0  0  0  0
    9.1357  -15.9284   24.1978 C   0  0  0  0  0  0  0  0  0  0  0  0
    8.3866  -16.9505   24.0750 O   0  0  0  0  0  0  0  0  0  0  0  0
    9.3061  -13.4012   27.1273 C   0  0  0  0  0  0  0  0  0  0  0  0
    9.9008  -13.7278   28.3549 C   0  0  0  0  0  0  0  0  0  0  0  0
   10.4870  -16.0960   24.5643 N   0  0  0  0  0  0  0  0  0  0  0  0
   11.0940  -17.4565   24.6025 C   0  0  1  0  0  0  0  0  0  0  0  0
   12.0765  -17.5355   23.5054 C   0  0  0  0  0  0  0  0  0  0  0  0
   12.9916  -18.7093   23.4350 C   0  0  0  0  0  0  0  0  0  0  0  0
   13.9474  -18.6567   22.3195 C   0  0  0  0  0  0  0  0  0  0  0  0
   13.9367  -17.6763   21.5420 O   0  0  0  0  0  0  0  0  0  0  0  0
   11.4676  -17.7162   25.9644 C   0  0  0  0  0  0  0  0  0  0  0  0
   11.7158  -16.7794   26.7830 O   0  0  0  0  0  0  0  0  0  0  0  0
   14.8953  -19.6662   22.0762 O   0  0  0  0  0  0  0  0  0  0  0  0
   11.5787  -18.9901   26.4893 O   0  0  0  0  0  0  0  0  0  0  0  0
  2  1  1  0
  2  3  2  0
  4  2  1  0
  5  4  1  0
  5  6  1  6
  7  5  1  0
  7  8  2  0
 10 20  2  0
 10  9  1  0
 11 10  1  0
 12 13  1  0
 12 11  2  0
 13 19  2  0
 14 13  1  0
 15 14  1  1
 15 16  1  0
 16  7  1  0
 17 15  1  0
 17 18  2  0
 19 20  1  0
 21 22  1  0
 21 17  1  0
 22 23  1  6
 23 24  1  0
 24 25  1  0
 25 29  1  0
 25 26  2  0
 27 22  1  0
 28 27  2  0
 30 27  1  0
M  END
$$$$
