EAY.pdb
     RDKit          3D

 27 27  0  0  1  0  0  0  0  0999 V2000
    9.2477  -18.5980   18.6791 N   0  0  0  0  0  0  0  0  0  0  0  0
    8.4871  -18.2548   19.8668 C   0  0  1  0  0  0  0  0  0  0  0  0
    8.5839  -19.2706   20.9341 C   0  0  0  0  0  0  0  0  0  0  0  0
    9.9140  -19.4344   21.5736 C   0  0  0  0  0  0  0  0  0  0  0  0
    9.8067  -20.5151   22.6091 C   0  0  0  0  0  0  0  0  0  0  0  0
    9.9726  -20.2562   23.8262 O   0  0  0  0  0  0  0  0  0  0  0  0
    8.8263  -16.8699   20.2449 C   0  0  0  0  0  0  0  0  0  0  0  0
   10.0184  -16.4382   20.0756 O   0  0  0  0  0  0  0  0  0  0  0  0
    9.5240  -21.8263   22.2690 O   0  0  0  0  0  0  0  0  0  0  0  0
    7.2628  -13.5533   20.7902 C   0  0  0  0  0  0  0  0  0  0  0  0
    8.3046  -14.5646   21.1284 C   0  0  2  0  0  0  0  0  0  0  0  0
    7.9264  -15.9251   20.8043 N   0  0  0  0  0  0  0  0  0  0  0  0
    8.7467  -14.4684   22.5652 C   0  0  0  0  0  0  0  0  0  0  0  0
    8.4252  -13.4666   23.2670 O   0  0  0  0  0  0  0  0  0  0  0  0
    6.0843  -10.8537   26.7503 O   0  0  0  0  0  0  0  0  0  0  0  0
    6.5775  -12.1048   26.3438 C   0  0  0  0  0  0  0  0  0  0  0  0
    7.8965  -12.4402   26.5843 C   0  0  0  0  0  0  0  0  0  0  0  0
    8.3729  -13.6730   26.1809 C   0  0  0  0  0  0  0  0  0  0  0  0
    7.5550  -14.5782   25.5410 C   0  0  0  0  0  0  0  0  0  0  0  0
    8.0680  -15.8903   25.0969 C   0  0  0  0  0  0  0  0  0  0  0  0
    9.4697  -15.7486   24.6261 C   0  0  2  0  0  0  0  0  0  0  0  0
    9.5250  -15.4751   23.1772 N   0  0  0  0  0  0  0  0  0  0  0  0
   10.3890  -16.8349   24.9886 C   0  0  0  0  0  0  0  0  0  0  0  0
   11.0621  -17.4915   23.9340 O   0  0  0  0  0  0  0  0  0  0  0  0
    6.2507  -14.2388   25.3067 C   0  0  0  0  0  0  0  0  0  0  0  0
    5.7755  -13.0201   25.7041 C   0  0  0  0  0  0  0  0  0  0  0  0
   10.6400  -17.2406   26.1262 O   0  0  0  0  0  0  0  0  0  0  0  0
  2  1  1  6
  2  3  1  0
  4  3  1  0
  5  4  1  0
  6  5  2  0
  7  2  1  0
  8  7  2  0
  9  5  1  0
 11 10  1  1
 11 12  1  0
 12  7  1  0
 13 11  1  0
 13 22  1  0
 14 13  2  0
 15 16  1  0
 16 17  2  0
 17 18  1  0
 19 18  2  0
 19 20  1  0
 21 20  1  6
 21 22  1  0
 21 23  1  0
 23 24  1  0
 25 19  1  0
 26 16  1  0
 26 25  2  0
 27 23  2  0
M  END
$$$$
