EAY.pdb
     RDKit          3D

 27 27  0  0  1  0  0  0  0  0999 V2000
    9.1657  -18.5966   18.9772 N   0  0  0  0  0  0  0  0  0  0  0  0
    9.5131  -18.4109   20.3743 C   0  0  1  0  0  0  0  0  0  0  0  0
   10.8071  -19.0216   20.7388 C   0  0  0  0  0  0  0  0  0  0  0  0
   10.8724  -20.5046   20.7042 C   0  0  0  0  0  0  0  0  0  0  0  0
   12.2153  -20.9273   21.2234 C   0  0  0  0  0  0  0  0  0  0  0  0
   13.1910  -21.0616   20.4450 O   0  0  0  0  0  0  0  0  0  0  0  0
    9.3444  -16.9829   20.7035 C   0  0  0  0  0  0  0  0  0  0  0  0
   10.3592  -16.2043   20.6958 O   0  0  0  0  0  0  0  0  0  0  0  0
   12.4310  -21.1836   22.5661 O   0  0  0  0  0  0  0  0  0  0  0  0
    6.6847  -14.3572   21.1795 C   0  0  0  0  0  0  0  0  0  0  0  0
    8.0202  -14.9658   21.4416 C   0  0  2  0  0  0  0  0  0  0  0  0
    8.1174  -16.3560   21.0453 N   0  0  0  0  0  0  0  0  0  0  0  0
    8.4530  -14.7945   22.8743 C   0  0  0  0  0  0  0  0  0  0  0  0
    8.3600  -13.6669   23.4394 O   0  0  0  0  0  0  0  0  0  0  0  0
    5.7770  -10.6996   26.6368 O   0  0  0  0  0  0  0  0  0  0  0  0
    6.3248  -11.9785   26.4422 C   0  0  0  0  0  0  0  0  0  0  0  0
    5.6464  -12.9141   25.6842 C   0  0  0  0  0  0  0  0  0  0  0  0
    6.1929  -14.1696   25.4981 C   0  0  0  0  0  0  0  0  0  0  0  0
    7.4062  -14.5082   26.0560 C   0  0  0  0  0  0  0  0  0  0  0  0
    7.9835  -15.8550   25.8691 C   0  0  0  0  0  0  0  0  0  0  0  0
    9.2378  -15.7589   25.0795 C   0  0  2  0  0  0  0  0  0  0  0  0
    8.9715  -15.8671   23.6322 N   0  0  0  0  0  0  0  0  0  0  0  0
   10.3271  -16.6591   25.4793 C   0  0  0  0  0  0  0  0  0  0  0  0
   10.9624  -17.3994   24.4572 O   0  0  0  0  0  0  0  0  0  0  0  0
    8.0715  -13.5767   26.8050 C   0  0  0  0  0  0  0  0  0  0  0  0
    7.5342  -12.3335   26.9915 C   0  0  0  0  0  0  0  0  0  0  0  0
   10.7521  -16.8408   26.6230 O   0  0  0  0  0  0  0  0  0  0  0  0
  2  1  1  6
  2  3  1  0
  4  3  1  0
  5  4  1  0
  6  5  2  0
  7  2  1  0
  8  7  2  0
  9  5  1  0
 11 10  1  1
 11 12  1  0
 12  7  1  0
 13 11  1  0
 13 22  1  0
 14 13  2  0
 15 16  1  0
 16 17  2  0
 17 18  1  0
 19 18  2  0
 19 20  1  0
 21 20  1  1
 21 22  1  0
 21 23  1  0
 23 24  1  0
 25 19  1  0
 26 16  1  0
 26 25  2  0
 27 23  2  0
M  END
$$$$
