EAY.pdb
     RDKit          3D

 27 27  0  0  1  0  0  0  0  0999 V2000
   15.1125  -20.6132   13.6098 N   0  0  0  0  0  0  0  0  0  0  0  0
   15.2046  -19.4533   14.4777 C   0  0  1  0  0  0  0  0  0  0  0  0
   13.8923  -18.9884   14.9696 C   0  0  0  0  0  0  0  0  0  0  0  0
   12.7698  -19.9559   14.8770 C   0  0  0  0  0  0  0  0  0  0  0  0
   11.5433  -19.3077   15.4490 C   0  0  0  0  0  0  0  0  0  0  0  0
   10.7369  -18.6942   14.7078 O   0  0  0  0  0  0  0  0  0  0  0  0
   16.2310  -19.7262   15.5014 C   0  0  0  0  0  0  0  0  0  0  0  0
   16.1879  -20.8153   16.1707 O   0  0  0  0  0  0  0  0  0  0  0  0
   11.2539  -19.3589   16.8012 O   0  0  0  0  0  0  0  0  0  0  0  0
   19.6164  -18.6039   16.6570 C   0  0  0  0  0  0  0  0  0  0  0  0
   18.2509  -19.1505   16.9000 C   0  0  2  0  0  0  0  0  0  0  0  0
   17.3090  -18.8653   15.8367 N   0  0  0  0  0  0  0  0  0  0  0  0
   17.6919  -18.7167   18.2298 C   0  0  0  0  0  0  0  0  0  0  0  0
   16.9447  -17.6993   18.3077 O   0  0  0  0  0  0  0  0  0  0  0  0
   11.8963  -21.5086   18.8289 O   0  0  0  0  0  0  0  0  0  0  0  0
   13.1055  -21.1797   19.4640 C   0  0  0  0  0  0  0  0  0  0  0  0
   14.2214  -21.9747   19.2822 C   0  0  0  0  0  0  0  0  0  0  0  0
   15.4066  -21.6434   19.9108 C   0  0  0  0  0  0  0  0  0  0  0  0
   15.4978  -20.5313   20.7187 C   0  0  0  0  0  0  0  0  0  0  0  0
   16.7607  -20.1853   21.4023 C   0  0  0  0  0  0  0  0  0  0  0  0
   17.3977  -19.0270   20.7250 C   0  0  2  0  0  0  0  0  0  0  0  0
   17.9743  -19.4157   19.4237 N   0  0  0  0  0  0  0  0  0  0  0  0
   18.3684  -18.2637   21.5199 C   0  0  0  0  0  0  0  0  0  0  0  0
   19.6429  -18.0467   20.9500 O   0  0  0  0  0  0  0  0  0  0  0  0
   14.3889  -19.7495   20.8937 C   0  0  0  0  0  0  0  0  0  0  0  0
   13.2145  -20.0738   20.2735 C   0  0  0  0  0  0  0  0  0  0  0  0
   18.1897  -17.7864   22.6433 O   0  0  0  0  0  0  0  0  0  0  0  0
  2  1  1  1
  2  3  1  0
  4  3  1  0
  5  4  1  0
  6  5  2  0
  7  2  1  0
  8  7  2  0
  9  5  1  0
 11 10  1  6
 11 12  1  0
 12  7  1  0
 13 11  1  0
 13 22  1  0
 14 13  2  0
 15 16  1  0
 16 17  2  0
 17 18  1  0
 19 18  2  0
 19 20  1  0
 21 20  1  1
 21 22  1  0
 21 23  1  0
 23 24  1  0
 25 19  1  0
 26 16  1  0
 26 25  2  0
 27 23  2  0
M  END
$$$$
