EAY.pdb
     RDKit          3D

 27 27  0  0  1  0  0  0  0  0999 V2000
    6.7046  -17.7667   20.5966 N   0  0  0  0  0  0  0  0  0  0  0  0
    7.9007  -18.5521   20.3525 C   0  0  1  0  0  0  0  0  0  0  0  0
    7.9901  -19.0626   18.9699 C   0  0  0  0  0  0  0  0  0  0  0  0
    6.9307  -18.6169   18.0298 C   0  0  0  0  0  0  0  0  0  0  0  0
    7.0553  -19.4194   16.7680 C   0  0  0  0  0  0  0  0  0  0  0  0
    7.9735  -20.2647   16.6332 O   0  0  0  0  0  0  0  0  0  0  0  0
    9.0610  -17.7872   20.8469 C   0  0  0  0  0  0  0  0  0  0  0  0
   10.0504  -17.5588   20.0691 O   0  0  0  0  0  0  0  0  0  0  0  0
    6.1733  -19.2625   15.7132 O   0  0  0  0  0  0  0  0  0  0  0  0
    9.2095  -14.8347   21.7078 C   0  0  0  0  0  0  0  0  0  0  0  0
    9.8291  -15.9808   22.4326 C   0  0  2  0  0  0  0  0  0  0  0  0
    9.2001  -17.2564   22.1563 N   0  0  0  0  0  0  0  0  0  0  0  0
    9.9054  -15.7413   23.9178 C   0  0  0  0  0  0  0  0  0  0  0  0
   10.6785  -14.8553   24.3833 O   0  0  0  0  0  0  0  0  0  0  0  0
    6.4097  -11.0127   26.2502 O   0  0  0  0  0  0  0  0  0  0  0  0
    6.8683  -12.3239   26.4602 C   0  0  0  0  0  0  0  0  0  0  0  0
    6.0326  -13.3970   26.2148 C   0  0  0  0  0  0  0  0  0  0  0  0
    6.4923  -14.6833   26.4242 C   0  0  0  0  0  0  0  0  0  0  0  0
    7.7729  -14.9177   26.8750 C   0  0  0  0  0  0  0  0  0  0  0  0
    8.2594  -16.2919   27.1127 C   0  0  0  0  0  0  0  0  0  0  0  0
    9.4564  -16.5536   26.2732 C   0  0  2  0  0  0  0  0  0  0  0  0
    9.1305  -16.4834   24.8358 N   0  0  0  0  0  0  0  0  0  0  0  0
   10.2093  -17.7767   26.5795 C   0  0  0  0  0  0  0  0  0  0  0  0
   10.6728  -17.9360   27.9046 O   0  0  0  0  0  0  0  0  0  0  0  0
    8.5938  -13.8502   27.1156 C   0  0  0  0  0  0  0  0  0  0  0  0
    8.1429  -12.5761   26.9097 C   0  0  0  0  0  0  0  0  0  0  0  0
   10.4839  -18.6897   25.7968 O   0  0  0  0  0  0  0  0  0  0  0  0
  2  1  1  6
  2  3  1  0
  4  3  1  0
  5  4  1  0
  6  5  2  0
  7  2  1  0
  8  7  2  0
  9  5  1  0
 11 10  1  6
 11 12  1  0
 12  7  1  0
 13 11  1  0
 13 22  1  0
 14 13  2  0
 15 16  1  0
 16 17  2  0
 17 18  1  0
 19 18  2  0
 19 20  1  0
 21 20  1  1
 21 22  1  0
 21 23  1  0
 23 24  1  0
 25 19  1  0
 26 16  1  0
 26 25  2  0
 27 23  2  0
M  END
$$$$
