EAY.pdb
     RDKit          3D

 27 27  0  0  1  0  0  0  0  0999 V2000
    8.4315  -17.4469   20.0646 N   0  0  0  0  0  0  0  0  0  0  0  0
    8.2319  -17.5287   21.5000 C   0  0  1  0  0  0  0  0  0  0  0  0
    7.3770  -18.6624   21.9053 C   0  0  0  0  0  0  0  0  0  0  0  0
    7.2254  -18.8886   23.3650 C   0  0  0  0  0  0  0  0  0  0  0  0
    6.4393  -20.1510   23.5650 C   0  0  0  0  0  0  0  0  0  0  0  0
    6.3003  -20.9755   22.6286 O   0  0  0  0  0  0  0  0  0  0  0  0
    9.5510  -17.4340   22.1532 C   0  0  0  0  0  0  0  0  0  0  0  0
   10.4827  -18.2468   21.8258 O   0  0  0  0  0  0  0  0  0  0  0  0
    5.8422  -20.4548   24.7758 O   0  0  0  0  0  0  0  0  0  0  0  0
   12.2746  -15.8136   23.2329 C   0  0  0  0  0  0  0  0  0  0  0  0
   11.1564  -16.5505   23.8880 C   0  0  2  0  0  0  0  0  0  0  0  0
    9.9086  -16.4928   23.1542 N   0  0  0  0  0  0  0  0  0  0  0  0
   10.9488  -16.1185   25.3160 C   0  0  0  0  0  0  0  0  0  0  0  0
   11.6183  -15.1595   25.7973 O   0  0  0  0  0  0  0  0  0  0  0  0
    7.8834  -10.9359   25.3534 O   0  0  0  0  0  0  0  0  0  0  0  0
    8.0691  -12.1683   26.0019 C   0  0  0  0  0  0  0  0  0  0  0  0
    7.4874  -13.3135   25.4917 C   0  0  0  0  0  0  0  0  0  0  0  0
    7.6755  -14.5212   26.1363 C   0  0  0  0  0  0  0  0  0  0  0  0
    8.4348  -14.6063   27.2827 C   0  0  0  0  0  0  0  0  0  0  0  0
    8.6237  -15.8947   27.9799 C   0  0  0  0  0  0  0  0  0  0  0  0
    9.9382  -16.4787   27.6090 C   0  0  2  0  0  0  0  0  0  0  0  0
   10.0143  -16.7553   26.1617 N   0  0  0  0  0  0  0  0  0  0  0  0
   10.3731  -17.6453   28.3878 C   0  0  0  0  0  0  0  0  0  0  0  0
   10.6269  -18.8395   27.6767 O   0  0  0  0  0  0  0  0  0  0  0  0
    9.0071  -13.4683   27.7814 C   0  0  0  0  0  0  0  0  0  0  0  0
    8.8235  -12.2714   27.1467 C   0  0  0  0  0  0  0  0  0  0  0  0
   10.5427  -17.6961   29.6086 O   0  0  0  0  0  0  0  0  0  0  0  0
  2  1  1  6
  2  3  1  0
  4  3  1  0
  5  4  1  0
  6  5  2  0
  7  2  1  0
  8  7  2  0
  9  5  1  0
 11 10  1  6
 11 12  1  0
 12  7  1  0
 13 11  1  0
 13 22  1  0
 14 13  2  0
 15 16  1  0
 16 17  2  0
 17 18  1  0
 19 18  2  0
 19 20  1  0
 21 20  1  1
 21 22  1  0
 21 23  1  0
 23 24  1  0
 25 19  1  0
 26 16  1  0
 26 25  2  0
 27 23  2  0
M  END
$$$$
