EAY.pdb
     RDKit          3D

 27 27  0  0  1  0  0  0  0  0999 V2000
    8.7528  -15.0190   16.2158 N   0  0  0  0  0  0  0  0  0  0  0  0
    8.6640  -15.9566   17.3204 C   0  0  1  0  0  0  0  0  0  0  0  0
    9.6189  -17.0776   17.2109 C   0  0  0  0  0  0  0  0  0  0  0  0
   11.0225  -16.7220   16.8820 C   0  0  0  0  0  0  0  0  0  0  0  0
   11.8185  -17.9907   16.7896 C   0  0  0  0  0  0  0  0  0  0  0  0
   11.2472  -19.1085   16.7949 O   0  0  0  0  0  0  0  0  0  0  0  0
    8.6947  -15.1877   18.5788 C   0  0  0  0  0  0  0  0  0  0  0  0
    9.6177  -14.3240   18.7741 O   0  0  0  0  0  0  0  0  0  0  0  0
   13.1991  -17.9808   16.6957 O   0  0  0  0  0  0  0  0  0  0  0  0
    6.5751  -14.3414   21.5685 C   0  0  0  0  0  0  0  0  0  0  0  0
    7.8800  -14.5821   20.8890 C   0  0  2  0  0  0  0  0  0  0  0  0
    7.7650  -15.3145   19.6442 N   0  0  0  0  0  0  0  0  0  0  0  0
    8.8827  -15.2426   21.7986 C   0  0  0  0  0  0  0  0  0  0  0  0
    9.3774  -16.3664   21.4955 O   0  0  0  0  0  0  0  0  0  0  0  0
    6.3347  -10.9521   27.6284 O   0  0  0  0  0  0  0  0  0  0  0  0
    6.7486  -12.1048   26.9401 C   0  0  0  0  0  0  0  0  0  0  0  0
    8.0944  -12.3403   26.7311 C   0  0  0  0  0  0  0  0  0  0  0  0
    8.4923  -13.4767   26.0531 C   0  0  0  0  0  0  0  0  0  0  0  0
    7.5696  -14.3834   25.5793 C   0  0  0  0  0  0  0  0  0  0  0  0
    7.9942  -15.5908   24.8418 C   0  0  0  0  0  0  0  0  0  0  0  0
    9.3544  -15.3851   24.2818 C   0  0  2  0  0  0  0  0  0  0  0  0
    9.3043  -14.6448   23.0064 N   0  0  0  0  0  0  0  0  0  0  0  0
   10.1934  -16.5840   24.1578 C   0  0  0  0  0  0  0  0  0  0  0  0
   10.9526  -16.9618   25.2879 O   0  0  0  0  0  0  0  0  0  0  0  0
    6.2395  -14.1431   25.7902 C   0  0  0  0  0  0  0  0  0  0  0  0
    5.8417  -13.0200   26.4606 C   0  0  0  0  0  0  0  0  0  0  0  0
   10.3083  -17.3047   23.1633 O   0  0  0  0  0  0  0  0  0  0  0  0
  2  1  1  6
  2  3  1  0
  4  3  1  0
  5  4  1  0
  6  5  2  0
  7  2  1  0
  8  7  2  0
  9  5  1  0
 11 10  1  1
 11 12  1  0
 12  7  1  0
 13 11  1  0
 13 22  1  0
 14 13  2  0
 15 16  1  0
 16 17  2  0
 17 18  1  0
 19 18  2  0
 19 20  1  0
 21 20  1  6
 21 22  1  0
 21 23  1  0
 23 24  1  0
 25 19  1  0
 26 16  1  0
 26 25  2  0
 27 23  2  0
M  END
$$$$
