EAY.pdb
     RDKit          3D

 27 27  0  0  1  0  0  0  0  0999 V2000
    9.5702  -14.0344   20.7641 N   0  0  0  0  0  0  0  0  0  0  0  0
    8.2509  -14.5599   21.0647 C   0  0  1  0  0  0  0  0  0  0  0  0
    7.5311  -15.0448   19.8700 C   0  0  0  0  0  0  0  0  0  0  0  0
    8.1920  -14.8153   18.5603 C   0  0  0  0  0  0  0  0  0  0  0  0
    7.3650  -15.4743   17.4957 C   0  0  0  0  0  0  0  0  0  0  0  0
    6.6442  -16.4661   17.7651 O   0  0  0  0  0  0  0  0  0  0  0  0
    8.3795  -15.5104   22.1852 C   0  0  0  0  0  0  0  0  0  0  0  0
    7.3323  -16.0439   22.6900 O   0  0  0  0  0  0  0  0  0  0  0  0
    7.3630  -15.0211   16.1882 O   0  0  0  0  0  0  0  0  0  0  0  0
   10.4967  -18.0455   23.6286 C   0  0  0  0  0  0  0  0  0  0  0  0
    9.6686  -16.8363   23.9020 C   0  0  2  0  0  0  0  0  0  0  0  0
    9.6002  -15.9105   22.7897 N   0  0  0  0  0  0  0  0  0  0  0  0
   10.0996  -16.1224   25.1565 C   0  0  0  0  0  0  0  0  0  0  0  0
   11.0914  -15.3379   25.1365 O   0  0  0  0  0  0  0  0  0  0  0  0
    6.2926  -11.4153   24.4385 O   0  0  0  0  0  0  0  0  0  0  0  0
    6.8807  -12.2738   25.3824 C   0  0  0  0  0  0  0  0  0  0  0  0
    8.1755  -12.0491   25.8101 C   0  0  0  0  0  0  0  0  0  0  0  0
    8.7458  -12.8987   26.7389 C   0  0  0  0  0  0  0  0  0  0  0  0
    8.0456  -13.9700   27.2488 C   0  0  0  0  0  0  0  0  0  0  0  0
    8.6602  -14.8866   28.2306 C   0  0  0  0  0  0  0  0  0  0  0  0
    9.8198  -15.5800   27.6134 C   0  0  2  0  0  0  0  0  0  0  0  0
    9.4260  -16.2966   26.3851 N   0  0  0  0  0  0  0  0  0  0  0  0
   10.6015  -16.4520   28.4995 C   0  0  0  0  0  0  0  0  0  0  0  0
   10.7646  -17.7982   28.1028 O   0  0  0  0  0  0  0  0  0  0  0  0
    6.7645  -14.1856   26.8204 C   0  0  0  0  0  0  0  0  0  0  0  0
    6.1966  -13.3474   25.9017 C   0  0  0  0  0  0  0  0  0  0  0  0
   11.1369  -16.1331   29.5641 O   0  0  0  0  0  0  0  0  0  0  0  0
  2  1  1  6
  2  3  1  0
  4  3  1  0
  5  4  1  0
  6  5  2  0
  7  2  1  0
  8  7  2  0
  9  5  1  0
 11 10  1  6
 11 12  1  0
 12  7  1  0
 13 11  1  0
 13 22  1  0
 14 13  2  0
 15 16  1  0
 16 17  2  0
 17 18  1  0
 19 18  2  0
 19 20  1  0
 21 20  1  1
 21 22  1  0
 21 23  1  0
 23 24  1  0
 25 19  1  0
 26 16  1  0
 26 25  2  0
 27 23  2  0
M  END
$$$$
