EAY.pdb
     RDKit          3D

 27 27  0  0  1  0  0  0  0  0999 V2000
    5.5007  -16.2663   21.3840 N   0  0  0  0  0  0  0  0  0  0  0  0
    6.6565  -17.0572   21.7655 C   0  0  1  0  0  0  0  0  0  0  0  0
    7.8722  -16.7196   20.9983 C   0  0  0  0  0  0  0  0  0  0  0  0
    8.4839  -15.3955   21.2760 C   0  0  0  0  0  0  0  0  0  0  0  0
    9.7142  -15.2599   20.4277 C   0  0  0  0  0  0  0  0  0  0  0  0
   10.8513  -15.1832   20.9539 O   0  0  0  0  0  0  0  0  0  0  0  0
    6.7749  -17.0179   23.2353 C   0  0  0  0  0  0  0  0  0  0  0  0
    6.3816  -15.9841   23.8776 O   0  0  0  0  0  0  0  0  0  0  0  0
    9.6466  -15.2142   19.0462 O   0  0  0  0  0  0  0  0  0  0  0  0
    7.0469  -19.3504   26.1251 C   0  0  0  0  0  0  0  0  0  0  0  0
    7.2822  -18.0200   25.4949 C   0  0  2  0  0  0  0  0  0  0  0  0
    7.3060  -18.0547   24.0467 N   0  0  0  0  0  0  0  0  0  0  0  0
    8.5215  -17.3489   26.0266 C   0  0  0  0  0  0  0  0  0  0  0  0
    9.6201  -17.4540   25.4089 O   0  0  0  0  0  0  0  0  0  0  0  0
    5.9478  -11.9165   24.5840 O   0  0  0  0  0  0  0  0  0  0  0  0
    6.7984  -12.5718   25.4900 C   0  0  0  0  0  0  0  0  0  0  0  0
    6.3972  -12.7680   26.7980 C   0  0  0  0  0  0  0  0  0  0  0  0
    7.2405  -13.4136   27.6821 C   0  0  0  0  0  0  0  0  0  0  0  0
    8.4787  -13.8672   27.2834 C   0  0  0  0  0  0  0  0  0  0  0  0
    9.3860  -14.5443   28.2322 C   0  0  0  0  0  0  0  0  0  0  0  0
    9.7097  -15.9055   27.7336 C   0  0  2  0  0  0  0  0  0  0  0  0
    8.5083  -16.5881   27.2160 N   0  0  0  0  0  0  0  0  0  0  0  0
   10.4487  -16.7762   28.6570 C   0  0  0  0  0  0  0  0  0  0  0  0
    9.8256  -17.9831   29.0461 O   0  0  0  0  0  0  0  0  0  0  0  0
    8.8685  -13.6691   25.9871 C   0  0  0  0  0  0  0  0  0  0  0  0
    8.0371  -13.0309   25.1093 C   0  0  0  0  0  0  0  0  0  0  0  0
   11.5663  -16.5658   29.1346 O   0  0  0  0  0  0  0  0  0  0  0  0
  2  1  1  6
  2  3  1  0
  4  3  1  0
  5  4  1  0
  6  5  2  0
  7  2  1  0
  8  7  2  0
  9  5  1  0
 11 10  1  1
 11 12  1  0
 12  7  1  0
 13 11  1  0
 13 22  1  0
 14 13  2  0
 15 16  1  0
 16 17  2  0
 17 18  1  0
 19 18  2  0
 19 20  1  0
 21 20  1  1
 21 22  1  0
 21 23  1  0
 23 24  1  0
 25 19  1  0
 26 16  1  0
 26 25  2  0
 27 23  2  0
M  END
$$$$
