EQK.pdb
     RDKit          3D

 28 27  0  0  1  0  0  0  0  0999 V2000
    8.7857  -19.7716   16.8812 N   0  0  0  0  0  0  0  0  0  0  0  0
    9.5802  -19.1542   17.9309 C   0  0  1  0  0  0  0  0  0  0  0  0
   10.5370  -18.2119   17.2794 C   0  0  0  0  0  0  0  0  0  0  0  0
   11.6198  -18.9570   16.5545 C   0  0  0  0  0  0  0  0  0  0  0  0
   12.6063  -18.0957   15.8977 C   0  0  0  0  0  0  0  0  0  0  0  0
   12.5373  -17.7086   14.7065 O   0  0  0  0  0  0  0  0  0  0  0  0
    8.6878  -18.4279   18.8996 C   0  0  0  0  0  0  0  0  0  0  0  0
    7.6185  -17.9771   18.4722 O   0  0  0  0  0  0  0  0  0  0  0  0
   13.7318  -17.6385   16.5993 O   0  0  0  0  0  0  0  0  0  0  0  0
    5.3389  -19.5226   23.3795 N   0  0  0  0  0  0  0  0  0  0  0  0
    6.4002  -20.3142   22.8247 C   0  0  0  0  0  0  0  0  0  0  0  0
    6.5221  -21.4670   23.3004 O   0  0  0  0  0  0  0  0  0  0  0  0
    7.2650  -19.7490   21.7590 C   0  0  0  0  0  0  0  0  0  0  0  0
    7.0071  -18.3348   21.4231 C   0  0  0  0  0  0  0  0  0  0  0  0
    8.2658  -17.5335   21.2180 C   0  0  2  0  0  0  0  0  0  0  0  0
    9.0896  -18.2883   20.2311 N   0  0  0  0  0  0  0  0  0  0  0  0
    9.0398  -17.4300   22.4781 C   0  0  0  0  0  0  0  0  0  0  0  0
    9.7378  -18.4370   22.8747 O   0  0  0  0  0  0  0  0  0  0  0  0
    9.0980  -16.3087   23.3104 N   0  0  0  0  0  0  0  0  0  0  0  0
    9.8860  -16.2926   24.5492 C   0  0  1  0  0  0  0  0  0  0  0  0
    9.3001  -15.2412   25.4800 C   0  0  0  0  0  0  0  0  0  0  0  0
   10.0567  -15.2029   26.7514 C   0  0  0  0  0  0  0  0  0  0  0  0
    9.5829  -14.1600   27.7415 C   0  0  0  0  0  0  0  0  0  0  0  0
   10.3800  -14.0548   28.9865 C   0  0  0  0  0  0  0  0  0  0  0  0
   10.0010  -13.0249   29.9024 N   0  0  0  0  0  0  0  0  0  0  0  0
    9.9743  -17.6206   25.1395 C   0  0  0  0  0  0  0  0  0  0  0  0
   11.1987  -18.0791   25.6661 O   0  0  0  0  0  0  0  0  0  0  0  0
    9.0340  -18.4320   25.2317 O   0  0  0  0  0  0  0  0  0  0  0  0
  2  3  1  0
  2  1  1  6
  2  7  1  0
  3  4  1  0
  4  5  1  0
  5  6  2  0
  7 16  1  0
  8  7  2  0
  9  5  1  0
 11 10  1  0
 12 11  2  0
 13 11  1  0
 14 13  1  0
 15 14  1  1
 16 15  1  0
 17 19  1  0
 17 15  1  0
 18 17  2  0
 20 19  1  0
 20 26  1  0
 21 22  1  0
 20 21  1  1
 22 23  1  0
 24 23  1  0
 24 25  1  0
 26 27  1  0
 28 26  2  0
M  END
$$$$
