EQK.pdb
     RDKit          3D

 28 27  0  0  1  0  0  0  0  0999 V2000
   10.6989  -17.3629   15.9338 N   0  0  0  0  0  0  0  0  0  0  0  0
   10.1194  -17.9937   17.1087 C   0  0  1  0  0  0  0  0  0  0  0  0
   10.8148  -19.2988   17.3110 C   0  0  0  0  0  0  0  0  0  0  0  0
   12.2397  -19.2296   16.8443 C   0  0  0  0  0  0  0  0  0  0  0  0
   12.9822  -20.4842   16.9911 C   0  0  0  0  0  0  0  0  0  0  0  0
   14.0863  -20.5975   17.5754 O   0  0  0  0  0  0  0  0  0  0  0  0
   10.2851  -17.1055   18.3111 C   0  0  0  0  0  0  0  0  0  0  0  0
   11.4303  -16.7465   18.6096 O   0  0  0  0  0  0  0  0  0  0  0  0
   12.4733  -21.6790   16.4606 O   0  0  0  0  0  0  0  0  0  0  0  0
    9.4368  -12.7322   20.3406 N   0  0  0  0  0  0  0  0  0  0  0  0
    8.4825  -12.9430   19.2891 C   0  0  0  0  0  0  0  0  0  0  0  0
    8.4073  -12.0300   18.4343 O   0  0  0  0  0  0  0  0  0  0  0  0
    7.6656  -14.1821   19.2693 C   0  0  0  0  0  0  0  0  0  0  0  0
    7.9377  -15.1330   20.3653 C   0  0  0  0  0  0  0  0  0  0  0  0
    9.2663  -15.8297   20.2314 C   0  0  2  0  0  0  0  0  0  0  0  0
    9.1570  -16.7203   19.0409 N   0  0  0  0  0  0  0  0  0  0  0  0
    9.5420  -16.6780   21.4154 C   0  0  0  0  0  0  0  0  0  0  0  0
    8.8405  -17.7407   21.6077 O   0  0  0  0  0  0  0  0  0  0  0  0
   10.5253  -16.4390   22.3795 N   0  0  0  0  0  0  0  0  0  0  0  0
   10.7077  -17.3122   23.5457 C   0  0  1  0  0  0  0  0  0  0  0  0
   12.0536  -16.9946   24.1804 C   0  0  0  0  0  0  0  0  0  0  0  0
   12.3630  -17.9754   25.2446 C   0  0  0  0  0  0  0  0  0  0  0  0
   13.6787  -17.7454   25.9577 C   0  0  0  0  0  0  0  0  0  0  0  0
   14.0432  -18.7670   26.9677 C   0  0  0  0  0  0  0  0  0  0  0  0
   15.3208  -18.6206   27.5917 N   0  0  0  0  0  0  0  0  0  0  0  0
    9.5830  -17.2120   24.4649 C   0  0  0  0  0  0  0  0  0  0  0  0
    8.7067  -16.1105   24.3907 O   0  0  0  0  0  0  0  0  0  0  0  0
    9.3021  -18.0392   25.3525 O   0  0  0  0  0  0  0  0  0  0  0  0
  2  3  1  0
  2  1  1  6
  2  7  1  0
  3  4  1  0
  4  5  1  0
  5  6  2  0
  7 16  1  0
  8  7  2  0
  9  5  1  0
 11 10  1  0
 12 11  2  0
 13 11  1  0
 14 13  1  0
 15 14  1  1
 16 15  1  0
 17 19  1  0
 17 15  1  0
 18 17  2  0
 20 19  1  0
 20 26  1  0
 21 22  1  0
 20 21  1  1
 22 23  1  0
 24 23  1  0
 24 25  1  0
 26 27  1  0
 28 26  2  0
M  END
$$$$
