EQK.pdb
     RDKit          3D

 28 27  0  0  1  0  0  0  0  0999 V2000
    8.3027  -17.1353   19.4148 N   0  0  0  0  0  0  0  0  0  0  0  0
    8.7151  -18.0500   20.4671 C   0  0  1  0  0  0  0  0  0  0  0  0
   10.2072  -18.0831   20.4790 C   0  0  0  0  0  0  0  0  0  0  0  0
   10.7802  -16.7719   20.0255 C   0  0  0  0  0  0  0  0  0  0  0  0
   12.2428  -16.7042   20.0786 C   0  0  0  0  0  0  0  0  0  0  0  0
   12.9067  -16.3655   21.0875 O   0  0  0  0  0  0  0  0  0  0  0  0
    8.1781  -17.5912   21.7951 C   0  0  0  0  0  0  0  0  0  0  0  0
    7.7458  -16.4353   21.8742 O   0  0  0  0  0  0  0  0  0  0  0  0
   13.0121  -17.0293   18.9514 O   0  0  0  0  0  0  0  0  0  0  0  0
    7.0953  -21.7096   26.5585 N   0  0  0  0  0  0  0  0  0  0  0  0
    6.6856  -20.4471   27.1054 C   0  0  0  0  0  0  0  0  0  0  0  0
    6.2101  -20.4871   28.2640 O   0  0  0  0  0  0  0  0  0  0  0  0
    6.8393  -19.2083   26.3023 C   0  0  0  0  0  0  0  0  0  0  0  0
    7.4537  -19.3925   24.9727 C   0  0  0  0  0  0  0  0  0  0  0  0
    7.5397  -18.1171   24.1760 C   0  0  2  0  0  0  0  0  0  0  0  0
    8.1848  -18.4726   22.8799 N   0  0  0  0  0  0  0  0  0  0  0  0
    8.4003  -17.1221   24.8593 C   0  0  0  0  0  0  0  0  0  0  0  0
    9.6805  -17.2186   24.7570 O   0  0  0  0  0  0  0  0  0  0  0  0
    7.9505  -16.0451   25.6282 N   0  0  0  0  0  0  0  0  0  0  0  0
    8.8733  -15.1425   26.3279 C   0  0  1  0  0  0  0  0  0  0  0  0
    8.0555  -14.1735   27.1689 C   0  0  0  0  0  0  0  0  0  0  0  0
    7.4990  -13.0987   26.3173 C   0  0  0  0  0  0  0  0  0  0  0  0
    6.5843  -12.1287   27.0350 C   0  0  0  0  0  0  0  0  0  0  0  0
    6.0085  -11.0538   26.1927 C   0  0  0  0  0  0  0  0  0  0  0  0
    5.0661  -10.1838   26.8237 N   0  0  0  0  0  0  0  0  0  0  0  0
    9.8705  -15.8855   27.0852 C   0  0  0  0  0  0  0  0  0  0  0  0
   11.1569  -15.3434   27.2802 O   0  0  0  0  0  0  0  0  0  0  0  0
    9.6952  -17.0042   27.6034 O   0  0  0  0  0  0  0  0  0  0  0  0
  2  3  1  0
  2  1  1  6
  2  7  1  0
  3  4  1  0
  4  5  1  0
  5  6  2  0
  7 16  1  0
  8  7  2  0
  9  5  1  0
 11 10  1  0
 12 11  2  0
 13 11  1  0
 14 13  1  0
 15 14  1  1
 16 15  1  0
 17 19  1  0
 17 15  1  0
 18 17  2  0
 20 19  1  0
 20 26  1  0
 21 22  1  0
 20 21  1  1
 22 23  1  0
 24 23  1  0
 24 25  1  0
 26 27  1  0
 28 26  2  0
M  END
$$$$
