EQK.pdb
     RDKit          3D

 28 27  0  0  1  0  0  0  0  0999 V2000
   11.9884  -17.9280   16.8245 N   0  0  0  0  0  0  0  0  0  0  0  0
   10.8981  -18.1755   17.7541 C   0  0  1  0  0  0  0  0  0  0  0  0
   10.9215  -19.6264   18.1032 C   0  0  0  0  0  0  0  0  0  0  0  0
   12.2675  -20.0341   18.6276 C   0  0  0  0  0  0  0  0  0  0  0  0
   12.3621  -21.4456   19.0090 C   0  0  0  0  0  0  0  0  0  0  0  0
   11.4254  -22.2750   18.9184 O   0  0  0  0  0  0  0  0  0  0  0  0
   11.0600  -17.3251   18.9841 C   0  0  0  0  0  0  0  0  0  0  0  0
   12.2024  -16.9618   19.2878 O   0  0  0  0  0  0  0  0  0  0  0  0
   13.5604  -21.9666   19.5193 O   0  0  0  0  0  0  0  0  0  0  0  0
    6.6588  -13.3286   20.5422 N   0  0  0  0  0  0  0  0  0  0  0  0
    7.7816  -13.1753   19.6609 C   0  0  0  0  0  0  0  0  0  0  0  0
    7.7103  -12.2198   18.8535 O   0  0  0  0  0  0  0  0  0  0  0  0
    8.9239  -14.1191   19.7473 C   0  0  0  0  0  0  0  0  0  0  0  0
    8.8150  -15.1439   20.8043 C   0  0  0  0  0  0  0  0  0  0  0  0
   10.0216  -16.0414   20.8885 C   0  0  2  0  0  0  0  0  0  0  0  0
    9.9315  -16.9781   19.7323 N   0  0  0  0  0  0  0  0  0  0  0  0
    9.9986  -16.8456   22.1336 C   0  0  0  0  0  0  0  0  0  0  0  0
    9.1389  -17.7968   22.2549 O   0  0  0  0  0  0  0  0  0  0  0  0
   10.8487  -16.6767   23.2301 N   0  0  0  0  0  0  0  0  0  0  0  0
   10.7239  -17.4845   24.4499 C   0  0  1  0  0  0  0  0  0  0  0  0
   12.1205  -17.7961   24.9671 C   0  0  0  0  0  0  0  0  0  0  0  0
   12.0431  -18.6750   26.1553 C   0  0  0  0  0  0  0  0  0  0  0  0
   13.3821  -19.0725   26.7399 C   0  0  0  0  0  0  0  0  0  0  0  0
   13.3259  -20.0404   27.8607 C   0  0  0  0  0  0  0  0  0  0  0  0
   14.5795  -20.4864   28.3829 N   0  0  0  0  0  0  0  0  0  0  0  0
    9.8622  -16.8376   25.4291 C   0  0  0  0  0  0  0  0  0  0  0  0
    9.5922  -15.4578   25.3295 O   0  0  0  0  0  0  0  0  0  0  0  0
    9.3127  -17.4053   26.3918 O   0  0  0  0  0  0  0  0  0  0  0  0
  2  3  1  0
  2  1  1  6
  2  7  1  0
  3  4  1  0
  4  5  1  0
  5  6  2  0
  7 16  1  0
  8  7  2  0
  9  5  1  0
 11 10  1  0
 12 11  2  0
 13 11  1  0
 14 13  1  0
 15 14  1  1
 16 15  1  0
 17 19  1  0
 17 15  1  0
 18 17  2  0
 20 19  1  0
 20 26  1  0
 21 22  1  0
 20 21  1  1
 22 23  1  0
 24 23  1  0
 24 25  1  0
 26 27  1  0
 28 26  2  0
M  END
$$$$
