EQK.pdb
     RDKit          3D

 28 27  0  0  1  0  0  0  0  0999 V2000
    8.5760  -18.8137   19.8672 N   0  0  0  0  0  0  0  0  0  0  0  0
    9.9962  -18.6236   20.1146 C   0  0  1  0  0  0  0  0  0  0  0  0
   10.6547  -18.3697   18.7994 C   0  0  0  0  0  0  0  0  0  0  0  0
   10.0138  -17.2133   18.0887 C   0  0  0  0  0  0  0  0  0  0  0  0
   10.7022  -16.8054   16.8615 C   0  0  0  0  0  0  0  0  0  0  0  0
   11.1642  -15.6589   16.6481 O   0  0  0  0  0  0  0  0  0  0  0  0
   10.2106  -17.4685   21.0536 C   0  0  0  0  0  0  0  0  0  0  0  0
   11.3251  -16.9328   21.0641 O   0  0  0  0  0  0  0  0  0  0  0  0
   10.8886  -17.7181   15.8126 O   0  0  0  0  0  0  0  0  0  0  0  0
    5.5762  -15.0566   24.8338 N   0  0  0  0  0  0  0  0  0  0  0  0
    6.6184  -14.0694   24.8202 C   0  0  0  0  0  0  0  0  0  0  0  0
    6.3220  -12.9614   25.3247 O   0  0  0  0  0  0  0  0  0  0  0  0
    7.9409  -14.3982   24.2320 C   0  0  0  0  0  0  0  0  0  0  0  0
    7.9502  -15.5498   23.3084 C   0  0  0  0  0  0  0  0  0  0  0  0
    9.3326  -15.9306   22.8473 C   0  0  2  0  0  0  0  0  0  0  0  0
    9.1594  -17.0442   21.8713 N   0  0  0  0  0  0  0  0  0  0  0  0
   10.1489  -16.4339   23.9777 C   0  0  0  0  0  0  0  0  0  0  0  0
   10.0535  -17.6707   24.3238 O   0  0  0  0  0  0  0  0  0  0  0  0
   11.0503  -15.6788   24.7331 N   0  0  0  0  0  0  0  0  0  0  0  0
   11.4790  -16.0853   26.0774 C   0  0  1  0  0  0  0  0  0  0  0  0
   11.0460  -15.0134   27.0666 C   0  0  0  0  0  0  0  0  0  0  0  0
   11.3000  -15.4628   28.4536 C   0  0  0  0  0  0  0  0  0  0  0  0
   10.8932  -14.4746   29.5262 C   0  0  0  0  0  0  0  0  0  0  0  0
   11.0782  -14.9372   30.9220 C   0  0  0  0  0  0  0  0  0  0  0  0
   10.7577  -14.0005   31.9530 N   0  0  0  0  0  0  0  0  0  0  0  0
   11.0002  -17.4204   26.4061 C   0  0  0  0  0  0  0  0  0  0  0  0
   11.8731  -18.3586   26.9932 O   0  0  0  0  0  0  0  0  0  0  0  0
    9.8432  -17.8387   26.2130 O   0  0  0  0  0  0  0  0  0  0  0  0
  2  3  1  0
  2  1  1  6
  2  7  1  0
  3  4  1  0
  4  5  1  0
  5  6  2  0
  7 16  1  0
  8  7  2  0
  9  5  1  0
 11 10  1  0
 12 11  2  0
 13 11  1  0
 14 13  1  0
 15 14  1  1
 16 15  1  0
 17 19  1  0
 17 15  1  0
 18 17  2  0
 20 19  1  0
 20 26  1  0
 21 22  1  0
 20 21  1  1
 22 23  1  0
 24 23  1  0
 24 25  1  0
 26 27  1  0
 28 26  2  0
M  END
$$$$
