EQK.pdb
     RDKit          3D

 28 27  0  0  1  0  0  0  0  0999 V2000
    8.3354  -17.6570   18.2928 N   0  0  0  0  0  0  0  0  0  0  0  0
    9.0761  -18.2452   19.3970 C   0  0  1  0  0  0  0  0  0  0  0  0
   10.4502  -17.6626   19.3816 C   0  0  0  0  0  0  0  0  0  0  0  0
   11.4207  -18.5857   18.7041 C   0  0  0  0  0  0  0  0  0  0  0  0
   12.7758  -18.0438   18.5747 C   0  0  0  0  0  0  0  0  0  0  0  0
   13.1406  -16.9214   18.9995 O   0  0  0  0  0  0  0  0  0  0  0  0
    8.3847  -17.9543   20.7007 C   0  0  0  0  0  0  0  0  0  0  0  0
    7.5664  -17.0276   20.7254 O   0  0  0  0  0  0  0  0  0  0  0  0
   13.7820  -18.7866   17.9393 O   0  0  0  0  0  0  0  0  0  0  0  0
    6.3054  -22.2925   24.4460 N   0  0  0  0  0  0  0  0  0  0  0  0
    6.1552  -21.1257   25.2687 C   0  0  0  0  0  0  0  0  0  0  0  0
    5.4788  -21.2815   26.3119 O   0  0  0  0  0  0  0  0  0  0  0  0
    6.7831  -19.8451   24.8576 C   0  0  0  0  0  0  0  0  0  0  0  0
    7.4532  -19.8664   23.5423 C   0  0  0  0  0  0  0  0  0  0  0  0
    7.9839  -18.5204   23.1239 C   0  0  2  0  0  0  0  0  0  0  0  0
    8.6847  -18.7291   21.8248 N   0  0  0  0  0  0  0  0  0  0  0  0
    8.9744  -18.0131   24.1033 C   0  0  0  0  0  0  0  0  0  0  0  0
   10.1449  -18.5480   24.1522 O   0  0  0  0  0  0  0  0  0  0  0  0
    8.7648  -16.9710   25.0108 N   0  0  0  0  0  0  0  0  0  0  0  0
    9.7726  -16.5844   26.0062 C   0  0  1  0  0  0  0  0  0  0  0  0
    9.1771  -15.5092   26.9031 C   0  0  0  0  0  0  0  0  0  0  0  0
   10.1409  -15.1321   27.9610 C   0  0  0  0  0  0  0  0  0  0  0  0
    9.6822  -14.0094   28.8675 C   0  0  0  0  0  0  0  0  0  0  0  0
   10.6599  -13.5808   29.8956 C   0  0  0  0  0  0  0  0  0  0  0  0
   10.2334  -12.5538   30.7936 N   0  0  0  0  0  0  0  0  0  0  0  0
   10.2771  -17.7434   26.7286 C   0  0  0  0  0  0  0  0  0  0  0  0
   11.6562  -17.8644   26.9940 O   0  0  0  0  0  0  0  0  0  0  0  0
    9.5822  -18.6839   27.1570 O   0  0  0  0  0  0  0  0  0  0  0  0
  2  3  1  0
  2  1  1  6
  2  7  1  0
  3  4  1  0
  4  5  1  0
  5  6  2  0
  7 16  1  0
  8  7  2  0
  9  5  1  0
 11 10  1  0
 12 11  2  0
 13 11  1  0
 14 13  1  0
 15 14  1  1
 16 15  1  0
 17 19  1  0
 17 15  1  0
 18 17  2  0
 20 19  1  0
 20 26  1  0
 21 22  1  0
 20 21  1  1
 22 23  1  0
 24 23  1  0
 24 25  1  0
 26 27  1  0
 28 26  2  0
M  END
$$$$
