EQK.pdb
     RDKit          3D

 28 27  0  0  1  0  0  0  0  0999 V2000
    9.2134  -13.6301   17.3007 N   0  0  0  0  0  0  0  0  0  0  0  0
    9.2411  -15.0824   17.2360 C   0  0  1  0  0  0  0  0  0  0  0  0
    9.0323  -15.4761   15.8116 C   0  0  0  0  0  0  0  0  0  0  0  0
    8.0140  -14.5932   15.1508 C   0  0  0  0  0  0  0  0  0  0  0  0
    7.6880  -14.9765   13.7748 C   0  0  0  0  0  0  0  0  0  0  0  0
    7.9688  -14.2979   12.7580 O   0  0  0  0  0  0  0  0  0  0  0  0
   10.5567  -15.6010   17.7485 C   0  0  0  0  0  0  0  0  0  0  0  0
   10.7588  -16.8196   17.6897 O   0  0  0  0  0  0  0  0  0  0  0  0
    7.0132  -16.1777   13.5111 O   0  0  0  0  0  0  0  0  0  0  0  0
   16.7965  -12.7162   17.7711 N   0  0  0  0  0  0  0  0  0  0  0  0
   16.2767  -14.0541   17.7951 C   0  0  0  0  0  0  0  0  0  0  0  0
   16.7897  -14.8496   16.9741 O   0  0  0  0  0  0  0  0  0  0  0  0
   15.2006  -14.4124   18.7525 C   0  0  0  0  0  0  0  0  0  0  0  0
   13.8268  -14.1387   18.2865 C   0  0  0  0  0  0  0  0  0  0  0  0
   12.8256  -15.1618   18.7548 C   0  0  2  0  0  0  0  0  0  0  0  0
   11.4940  -14.7026   18.2663 N   0  0  0  0  0  0  0  0  0  0  0  0
   12.7771  -15.2175   20.2353 C   0  0  0  0  0  0  0  0  0  0  0  0
   12.3548  -14.1933   20.8921 O   0  0  0  0  0  0  0  0  0  0  0  0
   13.1510  -16.3093   21.0237 N   0  0  0  0  0  0  0  0  0  0  0  0
   13.1344  -16.2584   22.4910 C   0  0  1  0  0  0  0  0  0  0  0  0
   12.4483  -17.5136   23.0095 C   0  0  0  0  0  0  0  0  0  0  0  0
   12.4911  -17.5477   24.4885 C   0  0  0  0  0  0  0  0  0  0  0  0
   12.0002  -18.8389   25.1087 C   0  0  0  0  0  0  0  0  0  0  0  0
   12.0227  -18.8831   26.5899 C   0  0  0  0  0  0  0  0  0  0  0  0
   11.4154  -20.0221   27.2040 N   0  0  0  0  0  0  0  0  0  0  0  0
   14.4708  -16.0504   23.0302 C   0  0  0  0  0  0  0  0  0  0  0  0
   14.6527  -15.2521   24.1775 O   0  0  0  0  0  0  0  0  0  0  0  0
   15.5200  -16.5283   22.5594 O   0  0  0  0  0  0  0  0  0  0  0  0
  2  3  1  0
  2  1  1  6
  2  7  1  0
  3  4  1  0
  4  5  1  0
  5  6  2  0
  7 16  1  0
  8  7  2  0
  9  5  1  0
 11 10  1  0
 12 11  2  0
 13 11  1  0
 14 13  1  0
 15 14  1  1
 16 15  1  0
 17 19  1  0
 17 15  1  0
 18 17  2  0
 20 19  1  0
 20 26  1  0
 21 22  1  0
 20 21  1  1
 22 23  1  0
 24 23  1  0
 24 25  1  0
 26 27  1  0
 28 26  2  0
M  END
$$$$
