EQK.pdb
     RDKit          3D

 28 27  0  0  1  0  0  0  0  0999 V2000
   11.1892  -17.2378   18.5690 N   0  0  0  0  0  0  0  0  0  0  0  0
   12.0449  -16.2789   19.2491 C   0  0  1  0  0  0  0  0  0  0  0  0
   12.5723  -15.3341   18.2210 C   0  0  0  0  0  0  0  0  0  0  0  0
   13.5645  -14.3813   18.8215 C   0  0  0  0  0  0  0  0  0  0  0  0
   14.8744  -14.3843   18.1651 C   0  0  0  0  0  0  0  0  0  0  0  0
   15.8212  -15.1515   18.4621 O   0  0  0  0  0  0  0  0  0  0  0  0
   11.2655  -15.5430   20.3043 C   0  0  0  0  0  0  0  0  0  0  0  0
   11.8978  -14.8510   21.1108 O   0  0  0  0  0  0  0  0  0  0  0  0
   15.1504  -13.4873   17.1224 O   0  0  0  0  0  0  0  0  0  0  0  0
    8.1755  -12.3065   20.2453 N   0  0  0  0  0  0  0  0  0  0  0  0
    7.9468  -13.2645   19.2010 C   0  0  0  0  0  0  0  0  0  0  0  0
    8.2741  -12.8983   18.0483 O   0  0  0  0  0  0  0  0  0  0  0  0
    7.3570  -14.5871   19.5269 C   0  0  0  0  0  0  0  0  0  0  0  0
    7.6156  -15.0710   20.8974 C   0  0  0  0  0  0  0  0  0  0  0  0
    9.0505  -14.9065   21.3248 C   0  0  2  0  0  0  0  0  0  0  0  0
    9.8734  -15.6631   20.3384 N   0  0  0  0  0  0  0  0  0  0  0  0
    9.2766  -15.5015   22.6636 C   0  0  0  0  0  0  0  0  0  0  0  0
    9.4871  -16.7681   22.7641 O   0  0  0  0  0  0  0  0  0  0  0  0
    9.2914  -14.8042   23.8747 N   0  0  0  0  0  0  0  0  0  0  0  0
    9.3885  -15.4871   25.1709 C   0  0  1  0  0  0  0  0  0  0  0  0
    9.6449  -14.4436   26.2480 C   0  0  0  0  0  0  0  0  0  0  0  0
    9.8002  -15.0958   27.5674 C   0  0  0  0  0  0  0  0  0  0  0  0
   10.1070  -14.1517   28.7107 C   0  0  0  0  0  0  0  0  0  0  0  0
   10.3209  -14.7952   30.0285 C   0  0  0  0  0  0  0  0  0  0  0  0
   10.5655  -13.9220   31.1334 N   0  0  0  0  0  0  0  0  0  0  0  0
    8.2204  -16.3195   25.4211 C   0  0  0  0  0  0  0  0  0  0  0  0
    8.3490  -17.5120   26.1615 O   0  0  0  0  0  0  0  0  0  0  0  0
    7.0639  -16.0744   25.0296 O   0  0  0  0  0  0  0  0  0  0  0  0
  2  3  1  0
  2  1  1  6
  2  7  1  0
  3  4  1  0
  4  5  1  0
  5  6  2  0
  7 16  1  0
  8  7  2  0
  9  5  1  0
 11 10  1  0
 12 11  2  0
 13 11  1  0
 14 13  1  0
 15 14  1  6
 16 15  1  0
 17 19  1  0
 17 15  1  0
 18 17  2  0
 20 19  1  0
 20 26  1  0
 21 22  1  0
 20 21  1  1
 22 23  1  0
 24 23  1  0
 24 25  1  0
 26 27  1  0
 28 26  2  0
M  END
$$$$
