EQK.pdb
     RDKit          3D

 28 27  0  0  1  0  0  0  0  0999 V2000
   11.2780  -16.7105   14.9434 N   0  0  0  0  0  0  0  0  0  0  0  0
   11.2825  -16.1992   16.3045 C   0  0  1  0  0  0  0  0  0  0  0  0
    9.9430  -16.4823   16.8988 C   0  0  0  0  0  0  0  0  0  0  0  0
    9.6493  -17.9543   16.8922 C   0  0  0  0  0  0  0  0  0  0  0  0
    8.3319  -18.3071   17.4274 C   0  0  0  0  0  0  0  0  0  0  0  0
    7.8487  -19.4647   17.4324 O   0  0  0  0  0  0  0  0  0  0  0  0
   12.3738  -16.8569   17.1036 C   0  0  0  0  0  0  0  0  0  0  0  0
   12.3400  -18.0874   17.2226 O   0  0  0  0  0  0  0  0  0  0  0  0
    7.5040  -17.3229   17.9877 O   0  0  0  0  0  0  0  0  0  0  0  0
   15.9740  -15.9472   14.7619 N   0  0  0  0  0  0  0  0  0  0  0  0
   15.8214  -17.1858   15.4715 C   0  0  0  0  0  0  0  0  0  0  0  0
   15.2845  -18.1168   14.8273 O   0  0  0  0  0  0  0  0  0  0  0  0
   16.2882  -17.2958   16.8762 C   0  0  0  0  0  0  0  0  0  0  0  0
   15.7644  -16.2666   17.7958 C   0  0  0  0  0  0  0  0  0  0  0  0
   14.4817  -16.6723   18.4731 C   0  0  2  0  0  0  0  0  0  0  0  0
   13.3755  -16.0685   17.6769 N   0  0  0  0  0  0  0  0  0  0  0  0
   14.4110  -16.1223   19.8479 C   0  0  0  0  0  0  0  0  0  0  0  0
   14.3803  -14.8459   20.0164 O   0  0  0  0  0  0  0  0  0  0  0  0
   14.3668  -16.8730   21.0260 N   0  0  0  0  0  0  0  0  0  0  0  0
   14.3466  -16.2465   22.3539 C   0  0  1  0  0  0  0  0  0  0  0  0
   13.7026  -17.2153   23.3346 C   0  0  0  0  0  0  0  0  0  0  0  0
   12.2337  -17.0356   23.3432 C   0  0  0  0  0  0  0  0  0  0  0  0
   11.4818  -17.9921   24.2446 C   0  0  0  0  0  0  0  0  0  0  0  0
   10.0060  -17.8578   24.2263 C   0  0  0  0  0  0  0  0  0  0  0  0
    9.2672  -18.8278   24.9723 N   0  0  0  0  0  0  0  0  0  0  0  0
   15.6745  -15.8003   22.7505 C   0  0  0  0  0  0  0  0  0  0  0  0
   16.8067  -16.2202   22.0235 O   0  0  0  0  0  0  0  0  0  0  0  0
   15.9249  -15.0496   23.7121 O   0  0  0  0  0  0  0  0  0  0  0  0
  2  3  1  0
  2  1  1  6
  2  7  1  0
  3  4  1  0
  4  5  1  0
  5  6  2  0
  7 16  1  0
  8  7  2  0
  9  5  1  0
 11 10  1  0
 12 11  2  0
 13 11  1  0
 14 13  1  0
 15 14  1  6
 16 15  1  0
 17 19  1  0
 17 15  1  0
 18 17  2  0
 20 19  1  0
 20 26  1  0
 21 22  1  0
 20 21  1  1
 22 23  1  0
 24 23  1  0
 24 25  1  0
 26 27  1  0
 28 26  2  0
M  END
$$$$
