EQK.pdb
     RDKit          3D

 28 27  0  0  1  0  0  0  0  0999 V2000
   10.3530  -17.2016   18.4462 N   0  0  0  0  0  0  0  0  0  0  0  0
   10.4231  -18.3024   19.3935 C   0  0  1  0  0  0  0  0  0  0  0  0
   11.8645  -18.6293   19.6017 C   0  0  0  0  0  0  0  0  0  0  0  0
   12.6189  -17.4394   20.1192 C   0  0  0  0  0  0  0  0  0  0  0  0
   14.0267  -17.7064   20.4252 C   0  0  0  0  0  0  0  0  0  0  0  0
   14.9318  -17.8409   19.5673 O   0  0  0  0  0  0  0  0  0  0  0  0
    9.7682  -17.9147   20.6908 C   0  0  0  0  0  0  0  0  0  0  0  0
    9.6992  -16.7108   20.9649 O   0  0  0  0  0  0  0  0  0  0  0  0
   14.4549  -17.8319   21.7551 O   0  0  0  0  0  0  0  0  0  0  0  0
    6.3620  -22.1227   24.0801 N   0  0  0  0  0  0  0  0  0  0  0  0
    6.3329  -20.9391   24.8918 C   0  0  0  0  0  0  0  0  0  0  0  0
    5.6454  -21.0152   25.9366 O   0  0  0  0  0  0  0  0  0  0  0  0
    7.0881  -19.7333   24.4687 C   0  0  0  0  0  0  0  0  0  0  0  0
    7.8209  -19.8648   23.1939 C   0  0  0  0  0  0  0  0  0  0  0  0
    8.4609  -18.5789   22.7409 C   0  0  2  0  0  0  0  0  0  0  0  0
    9.2664  -18.9123   21.5316 N   0  0  0  0  0  0  0  0  0  0  0  0
    9.3828  -18.0522   23.7755 C   0  0  0  0  0  0  0  0  0  0  0  0
   10.5602  -18.5611   23.8900 O   0  0  0  0  0  0  0  0  0  0  0  0
    9.0990  -17.0172   24.6709 N   0  0  0  0  0  0  0  0  0  0  0  0
   10.0195  -16.6416   25.7514 C   0  0  1  0  0  0  0  0  0  0  0  0
    9.4242  -15.4605   26.5035 C   0  0  0  0  0  0  0  0  0  0  0  0
   10.3117  -15.0629   27.6191 C   0  0  0  0  0  0  0  0  0  0  0  0
    9.8286  -13.8739   28.4226 C   0  0  0  0  0  0  0  0  0  0  0  0
   10.6822  -13.4928   29.5726 C   0  0  0  0  0  0  0  0  0  0  0  0
   10.2375  -12.3847   30.3584 N   0  0  0  0  0  0  0  0  0  0  0  0
   10.3367  -17.7821   26.5989 C   0  0  0  0  0  0  0  0  0  0  0  0
   11.6697  -18.0228   26.9887 O   0  0  0  0  0  0  0  0  0  0  0  0
    9.5118  -18.6064   27.0361 O   0  0  0  0  0  0  0  0  0  0  0  0
  2  3  1  0
  2  1  1  6
  2  7  1  0
  3  4  1  0
  4  5  1  0
  5  6  2  0
  7 16  1  0
  8  7  2  0
  9  5  1  0
 11 10  1  0
 12 11  2  0
 13 11  1  0
 14 13  1  0
 15 14  1  1
 16 15  1  0
 17 19  1  0
 17 15  1  0
 18 17  2  0
 20 19  1  0
 20 26  1  0
 21 22  1  0
 20 21  1  1
 22 23  1  0
 24 23  1  0
 24 25  1  0
 26 27  1  0
 28 26  2  0
M  END
$$$$
