EQK.pdb
     RDKit          3D

 28 27  0  0  1  0  0  0  0  0999 V2000
   10.8295  -14.2960   18.1171 N   0  0  0  0  0  0  0  0  0  0  0  0
   11.4444  -15.0382   19.2058 C   0  0  1  0  0  0  0  0  0  0  0  0
   12.6194  -14.2512   19.6832 C   0  0  0  0  0  0  0  0  0  0  0  0
   13.7240  -14.2597   18.6670 C   0  0  0  0  0  0  0  0  0  0  0  0
   14.9346  -14.9620   19.1005 C   0  0  0  0  0  0  0  0  0  0  0  0
   15.3567  -14.9973   20.2812 O   0  0  0  0  0  0  0  0  0  0  0  0
   10.4528  -15.2489   20.3170 C   0  0  0  0  0  0  0  0  0  0  0  0
    9.5815  -14.3873   20.4836 O   0  0  0  0  0  0  0  0  0  0  0  0
   15.7210  -15.6636   18.1746 O   0  0  0  0  0  0  0  0  0  0  0  0
    7.7919  -20.0117   23.6064 N   0  0  0  0  0  0  0  0  0  0  0  0
    6.9522  -19.1185   22.8596 C   0  0  0  0  0  0  0  0  0  0  0  0
    5.7191  -19.3039   22.9824 O   0  0  0  0  0  0  0  0  0  0  0  0
    7.5632  -18.0633   22.0131 C   0  0  0  0  0  0  0  0  0  0  0  0
    9.0389  -18.0255   22.0217 C   0  0  0  0  0  0  0  0  0  0  0  0
    9.5968  -16.6428   22.2346 C   0  0  2  0  0  0  0  0  0  0  0  0
   10.5465  -16.3942   21.1127 N   0  0  0  0  0  0  0  0  0  0  0  0
   10.3572  -16.5675   23.5049 C   0  0  0  0  0  0  0  0  0  0  0  0
   11.5294  -17.0969   23.5713 O   0  0  0  0  0  0  0  0  0  0  0  0
    9.9208  -15.9537   24.6823 N   0  0  0  0  0  0  0  0  0  0  0  0
   10.6170  -16.1309   25.9628 C   0  0  1  0  0  0  0  0  0  0  0  0
   10.0067  -15.1777   26.9797 C   0  0  0  0  0  0  0  0  0  0  0  0
   10.6092  -15.3965   28.3137 C   0  0  0  0  0  0  0  0  0  0  0  0
   10.0443  -14.5261   29.4164 C   0  0  0  0  0  0  0  0  0  0  0  0
   10.6738  -14.6955   30.7474 C   0  0  0  0  0  0  0  0  0  0  0  0
   10.2112  -13.8308   31.7873 N   0  0  0  0  0  0  0  0  0  0  0  0
   10.6105  -17.5251   26.3821 C   0  0  0  0  0  0  0  0  0  0  0  0
   11.7905  -18.1205   26.8719 O   0  0  0  0  0  0  0  0  0  0  0  0
    9.6220  -18.2820   26.3513 O   0  0  0  0  0  0  0  0  0  0  0  0
  2  3  1  0
  2  1  1  6
  2  7  1  0
  3  4  1  0
  4  5  1  0
  5  6  2  0
  7 16  1  0
  8  7  2  0
  9  5  1  0
 11 10  1  0
 12 11  2  0
 13 11  1  0
 14 13  1  0
 15 14  1  6
 16 15  1  0
 17 19  1  0
 17 15  1  0
 18 17  2  0
 20 19  1  0
 20 26  1  0
 21 22  1  0
 20 21  1  1
 22 23  1  0
 24 23  1  0
 24 25  1  0
 26 27  1  0
 28 26  2  0
M  END
$$$$
