HDI.pdb
     RDKit          3D

 27 27  0  0  1  0  0  0  0  0999 V2000
    9.8255  -14.6484   19.1276 N   0  0  0  0  0  0  0  0  0  0  0  0
    8.4849  -14.4942   19.7583 C   0  0  1  0  0  0  0  0  0  0  0  0
    7.5295  -15.0379   18.7743 C   0  0  0  0  0  0  0  0  0  0  0  0
    7.5280  -14.4921   17.4268 C   0  0  0  0  0  0  0  0  0  0  0  0
    8.3719  -13.6442   16.7828 C   0  0  0  0  0  0  0  0  0  0  0  0
    7.9289  -13.5183   15.5103 N   0  0  0  0  0  0  0  0  0  0  0  0
    6.8424  -14.2655   15.3631 C   0  0  0  0  0  0  0  0  0  0  0  0
    6.5716  -14.8746   16.5189 N   0  0  0  0  0  0  0  0  0  0  0  0
    8.5454  -15.2425   21.0522 C   0  0  0  0  0  0  0  0  0  0  0  0
    7.5566  -15.3554   21.7777 O   0  0  0  0  0  0  0  0  0  0  0  0
    9.7504  -15.8572   21.5013 N   0  0  0  0  0  0  0  0  0  0  0  0
    9.8215  -16.5841   22.7254 C   0  0  1  0  0  0  0  0  0  0  0  0
   10.9517  -17.5814   22.7718 C   0  0  0  0  0  0  0  0  0  0  0  0
   10.8717  -18.5791   21.6876 C   0  0  0  0  0  0  0  0  0  0  0  0
    9.8077  -19.2354   21.5450 O   0  0  0  0  0  0  0  0  0  0  0  0
    9.8146  -15.6943   23.9200 C   0  0  0  0  0  0  0  0  0  0  0  0
   10.7261  -14.8374   24.0077 O   0  0  0  0  0  0  0  0  0  0  0  0
   11.8939  -18.8571   20.7964 O   0  0  0  0  0  0  0  0  0  0  0  0
    7.1732  -11.6469   26.7830 C   0  0  0  0  0  0  0  0  0  0  0  0
    8.3031  -12.6679   26.7001 C   0  0  0  0  0  0  0  0  0  0  0  0
    7.8355  -13.9332   26.0586 C   0  0  2  0  0  0  0  0  0  0  0  0
    6.4611  -14.3493   26.4880 C   0  0  0  0  0  0  0  0  0  0  0  0
    8.8856  -14.9913   26.1661 C   0  0  2  0  0  0  0  0  0  0  0  0
    8.8425  -15.7746   24.9381 N   0  0  0  0  0  0  0  0  0  0  0  0
    8.7698  -15.8612   27.3583 C   0  0  0  0  0  0  0  0  0  0  0  0
    8.9489  -15.4789   28.5346 O   0  0  0  0  0  0  0  0  0  0  0  0
    8.4399  -17.1949   27.1637 O   0  0  0  0  0  0  0  0  0  0  0  0
  2  9  1  0
  2  1  1  6
  3  2  1  0
  4  3  1  0
  4  8  1  0
  5  6  1  0
  5  4  2  0
  6  7  1  0
  7  8  2  0
  9 11  1  0
 10  9  2  0
 11 12  1  0
 12 16  1  0
 12 13  1  6
 14 13  1  0
 14 15  2  0
 16 17  2  0
 16 24  1  0
 18 14  1  0
 20 19  1  0
 21 20  1  0
 21 22  1  1
 23 21  1  0
 23 24  1  6
 25 23  1  0
 25 27  1  0
 26 25  2  0
M  END
$$$$
