HDI.pdb
     RDKit          3D

 27 27  0  0  1  0  0  0  0  0999 V2000
    6.0207  -16.9632   19.4504 N   0  0  0  0  0  0  0  0  0  0  0  0
    6.9471  -16.1515   20.2882 C   0  0  1  0  0  0  0  0  0  0  0  0
    6.5639  -14.7485   20.0406 C   0  0  0  0  0  0  0  0  0  0  0  0
    7.4271  -13.9248   19.2101 C   0  0  0  0  0  0  0  0  0  0  0  0
    7.5919  -13.8409   17.8641 C   0  0  0  0  0  0  0  0  0  0  0  0
    8.4881  -12.8555   17.6248 N   0  0  0  0  0  0  0  0  0  0  0  0
    8.8706  -12.3386   18.7855 C   0  0  0  0  0  0  0  0  0  0  0  0
    8.2383  -12.9719   19.7751 N   0  0  0  0  0  0  0  0  0  0  0  0
    6.7491  -16.6159   21.6964 C   0  0  0  0  0  0  0  0  0  0  0  0
    5.6241  -16.8096   22.1585 O   0  0  0  0  0  0  0  0  0  0  0  0
    7.8544  -16.8540   22.5643 N   0  0  0  0  0  0  0  0  0  0  0  0
    7.6831  -17.1499   23.9481 C   0  0  1  0  0  0  0  0  0  0  0  0
    7.8835  -18.6063   24.2844 C   0  0  0  0  0  0  0  0  0  0  0  0
    7.7529  -18.8773   25.7289 C   0  0  0  0  0  0  0  0  0  0  0  0
    6.7916  -18.3635   26.3576 O   0  0  0  0  0  0  0  0  0  0  0  0
    8.4905  -16.2591   24.8276 C   0  0  0  0  0  0  0  0  0  0  0  0
    9.7361  -16.2792   24.6834 O   0  0  0  0  0  0  0  0  0  0  0  0
    8.6204  -19.6675   26.4635 O   0  0  0  0  0  0  0  0  0  0  0  0
    6.1940  -11.6957   26.2248 C   0  0  0  0  0  0  0  0  0  0  0  0
    7.2165  -12.7599   25.8399 C   0  0  0  0  0  0  0  0  0  0  0  0
    7.8150  -13.3913   27.0541 C   0  0  2  0  0  0  0  0  0  0  0  0
    8.4247  -12.4042   28.0029 C   0  0  0  0  0  0  0  0  0  0  0  0
    8.6980  -14.5332   26.6663 C   0  0  2  0  0  0  0  0  0  0  0  0
    7.9217  -15.4093   25.7983 N   0  0  0  0  0  0  0  0  0  0  0  0
    9.2761  -15.2844   27.8034 C   0  0  0  0  0  0  0  0  0  0  0  0
    8.7774  -16.3192   28.2957 O   0  0  0  0  0  0  0  0  0  0  0  0
   10.4532  -14.8126   28.3665 O   0  0  0  0  0  0  0  0  0  0  0  0
  2  9  1  0
  2  1  1  6
  3  2  1  0
  4  3  1  0
  4  8  1  0
  5  6  1  0
  5  4  2  0
  6  7  1  0
  7  8  2  0
  9 11  1  0
 10  9  2  0
 11 12  1  0
 12 16  1  0
 12 13  1  6
 14 13  1  0
 14 15  2  0
 16 17  2  0
 16 24  1  0
 18 14  1  0
 20 19  1  0
 21 20  1  0
 21 22  1  6
 23 21  1  0
 23 24  1  6
 25 23  1  0
 25 27  1  0
 26 25  2  0
M  END
$$$$
