HDI.pdb
     RDKit          3D

 27 27  0  0  1  0  0  0  0  0999 V2000
    9.9517  -14.8085   19.7338 N   0  0  0  0  0  0  0  0  0  0  0  0
    8.6513  -14.4259   20.3515 C   0  0  1  0  0  0  0  0  0  0  0  0
    7.6259  -14.8048   19.3607 C   0  0  0  0  0  0  0  0  0  0  0  0
    7.7522  -14.3085   18.0001 C   0  0  0  0  0  0  0  0  0  0  0  0
    8.2706  -13.1611   17.4897 C   0  0  0  0  0  0  0  0  0  0  0  0
    8.1871  -13.2416   16.1414 N   0  0  0  0  0  0  0  0  0  0  0  0
    7.6346  -14.4042   15.8190 C   0  0  0  0  0  0  0  0  0  0  0  0
    7.3573  -15.0803   16.9353 N   0  0  0  0  0  0  0  0  0  0  0  0
    8.5731  -15.1669   21.6487 C   0  0  0  0  0  0  0  0  0  0  0  0
    7.5756  -15.1020   22.3683 O   0  0  0  0  0  0  0  0  0  0  0  0
    9.6498  -15.9802   22.1078 N   0  0  0  0  0  0  0  0  0  0  0  0
    9.6341  -16.6096   23.3867 C   0  0  1  0  0  0  0  0  0  0  0  0
   10.5480  -17.8052   23.4836 C   0  0  0  0  0  0  0  0  0  0  0  0
   10.2901  -18.8025   22.4272 C   0  0  0  0  0  0  0  0  0  0  0  0
    9.1914  -19.4157   22.4277 O   0  0  0  0  0  0  0  0  0  0  0  0
    9.8573  -15.6463   24.5008 C   0  0  0  0  0  0  0  0  0  0  0  0
   10.9211  -14.9823   24.4865 O   0  0  0  0  0  0  0  0  0  0  0  0
   11.1776  -19.1246   21.4147 O   0  0  0  0  0  0  0  0  0  0  0  0
    6.2092  -12.4113   25.7533 C   0  0  0  0  0  0  0  0  0  0  0  0
    7.5305  -13.1569   25.5970 C   0  0  0  0  0  0  0  0  0  0  0  0
    7.9696  -13.7468   26.8971 C   0  0  2  0  0  0  0  0  0  0  0  0
    8.0585  -12.7453   28.0088 C   0  0  0  0  0  0  0  0  0  0  0  0
    9.1860  -14.5928   26.7013 C   0  0  2  0  0  0  0  0  0  0  0  0
    8.9377  -15.4540   25.5522 N   0  0  0  0  0  0  0  0  0  0  0  0
    9.5875  -15.3856   27.8853 C   0  0  0  0  0  0  0  0  0  0  0  0
    9.2179  -16.5578   28.1118 O   0  0  0  0  0  0  0  0  0  0  0  0
   10.4326  -14.7922   28.8122 O   0  0  0  0  0  0  0  0  0  0  0  0
  2  9  1  0
  2  1  1  6
  3  2  1  0
  4  3  1  0
  4  8  1  0
  5  6  1  0
  5  4  2  0
  6  7  1  0
  7  8  2  0
  9 11  1  0
 10  9  2  0
 11 12  1  0
 12 16  1  0
 12 13  1  6
 14 13  1  0
 14 15  2  0
 16 17  2  0
 16 24  1  0
 18 14  1  0
 20 19  1  0
 21 20  1  0
 21 22  1  1
 23 21  1  0
 23 24  1  6
 25 23  1  0
 25 27  1  0
 26 25  2  0
M  END
$$$$
