HDI.pdb
     RDKit          3D

 27 27  0  0  1  0  0  0  0  0999 V2000
    9.8401  -15.1640   19.2868 N   0  0  0  0  0  0  0  0  0  0  0  0
    8.5215  -14.6547   19.7568 C   0  0  1  0  0  0  0  0  0  0  0  0
    7.5569  -15.0610   18.7171 C   0  0  0  0  0  0  0  0  0  0  0  0
    7.6622  -14.4652   17.3953 C   0  0  0  0  0  0  0  0  0  0  0  0
    8.5935  -13.6536   16.8297 C   0  0  0  0  0  0  0  0  0  0  0  0
    8.2268  -13.4486   15.5432 N   0  0  0  0  0  0  0  0  0  0  0  0
    7.1017  -14.1127   15.3116 C   0  0  0  0  0  0  0  0  0  0  0  0
    6.7308  -14.7455   16.4261 N   0  0  0  0  0  0  0  0  0  0  0  0
    8.2920  -15.2720   21.1000 C   0  0  0  0  0  0  0  0  0  0  0  0
    7.2587  -15.0631   21.7366 O   0  0  0  0  0  0  0  0  0  0  0  0
    9.2597  -16.1288   21.7010 N   0  0  0  0  0  0  0  0  0  0  0  0
    9.0754  -16.6901   22.9982 C   0  0  1  0  0  0  0  0  0  0  0  0
    9.7749  -18.0122   23.1900 C   0  0  0  0  0  0  0  0  0  0  0  0
   11.0357  -18.1017   22.4288 C   0  0  0  0  0  0  0  0  0  0  0  0
   11.3949  -17.1169   21.7329 O   0  0  0  0  0  0  0  0  0  0  0  0
    9.3957  -15.7272   24.0887 C   0  0  0  0  0  0  0  0  0  0  0  0
   10.4604  -15.0723   23.9873 O   0  0  0  0  0  0  0  0  0  0  0  0
   11.8726  -19.2045   22.4182 O   0  0  0  0  0  0  0  0  0  0  0  0
    6.1577  -12.2324   25.5288 C   0  0  0  0  0  0  0  0  0  0  0  0
    7.4019  -13.0908   25.3254 C   0  0  0  0  0  0  0  0  0  0  0  0
    7.8131  -13.7485   26.6019 C   0  0  2  0  0  0  0  0  0  0  0  0
    8.0287  -12.7845   27.7292 C   0  0  0  0  0  0  0  0  0  0  0  0
    8.9346  -14.7058   26.3573 C   0  0  2  0  0  0  0  0  0  0  0  0
    8.5656  -15.5256   25.2104 N   0  0  0  0  0  0  0  0  0  0  0  0
    9.2968  -15.5472   27.5202 C   0  0  0  0  0  0  0  0  0  0  0  0
    8.8532  -16.6968   27.7286 O   0  0  0  0  0  0  0  0  0  0  0  0
   10.1903  -15.0298   28.4472 O   0  0  0  0  0  0  0  0  0  0  0  0
  2  9  1  0
  2  1  1  6
  3  2  1  0
  4  3  1  0
  4  8  1  0
  5  6  1  0
  5  4  2  0
  6  7  1  0
  7  8  2  0
  9 11  1  0
 10  9  2  0
 11 12  1  0
 12 16  1  0
 12 13  1  6
 14 13  1  0
 14 15  2  0
 16 17  2  0
 16 24  1  0
 18 14  1  0
 20 19  1  0
 21 20  1  0
 21 22  1  1
 23 21  1  0
 23 24  1  6
 25 23  1  0
 25 27  1  0
 26 25  2  0
M  END
$$$$
