HDI.pdb
     RDKit          3D

 27 27  0  0  1  0  0  0  0  0999 V2000
    8.0853  -17.2009   19.6248 N   0  0  0  0  0  0  0  0  0  0  0  0
    8.7220  -16.0786   20.3691 C   0  0  1  0  0  0  0  0  0  0  0  0
    7.9087  -14.8905   20.0476 C   0  0  0  0  0  0  0  0  0  0  0  0
    8.0101  -14.3137   18.7170 C   0  0  0  0  0  0  0  0  0  0  0  0
    8.6630  -14.7132   17.5946 C   0  0  0  0  0  0  0  0  0  0  0  0
    8.3644  -13.8295   16.6141 N   0  0  0  0  0  0  0  0  0  0  0  0
    7.5490  -12.9067   17.1082 C   0  0  0  0  0  0  0  0  0  0  0  0
    7.3130  -13.1758   18.3936 N   0  0  0  0  0  0  0  0  0  0  0  0
    8.7085  -16.4755   21.8114 C   0  0  0  0  0  0  0  0  0  0  0  0
    7.6535  -16.6101   22.4324 O   0  0  0  0  0  0  0  0  0  0  0  0
    9.9164  -16.7151   22.5292 N   0  0  0  0  0  0  0  0  0  0  0  0
    9.9204  -17.0990   23.9019 C   0  0  1  0  0  0  0  0  0  0  0  0
   10.9194  -18.1817   24.2241 C   0  0  0  0  0  0  0  0  0  0  0  0
   10.8549  -19.3118   23.2777 C   0  0  0  0  0  0  0  0  0  0  0  0
   11.7941  -19.4680   22.4552 O   0  0  0  0  0  0  0  0  0  0  0  0
   10.0463  -15.9336   24.8212 C   0  0  0  0  0  0  0  0  0  0  0  0
   10.9669  -15.1133   24.5919 O   0  0  0  0  0  0  0  0  0  0  0  0
    9.8231  -20.2332   23.2205 O   0  0  0  0  0  0  0  0  0  0  0  0
    6.2930  -12.7924   25.9891 C   0  0  0  0  0  0  0  0  0  0  0  0
    7.6443  -13.4809   25.8276 C   0  0  0  0  0  0  0  0  0  0  0  0
    8.1644  -13.9554   27.1450 C   0  0  2  0  0  0  0  0  0  0  0  0
    8.2166  -12.8817   28.1895 C   0  0  0  0  0  0  0  0  0  0  0  0
    9.4311  -14.7265   26.9582 C   0  0  2  0  0  0  0  0  0  0  0  0
    9.1882  -15.7189   25.9191 N   0  0  0  0  0  0  0  0  0  0  0  0
    9.9590  -15.3596   28.1878 C   0  0  0  0  0  0  0  0  0  0  0  0
    9.8143  -16.5656   28.4820 O   0  0  0  0  0  0  0  0  0  0  0  0
   10.6643  -14.5649   29.0801 O   0  0  0  0  0  0  0  0  0  0  0  0
  2  9  1  0
  2  1  1  6
  3  2  1  0
  4  3  1  0
  4  8  1  0
  5  6  1  0
  5  4  2  0
  6  7  1  0
  7  8  2  0
  9 11  1  0
 10  9  2  0
 11 12  1  0
 12 16  1  0
 12 13  1  6
 14 13  1  0
 14 15  2  0
 16 17  2  0
 16 24  1  0
 18 14  1  0
 20 19  1  0
 21 20  1  0
 21 22  1  1
 23 21  1  0
 23 24  1  6
 25 23  1  0
 25 27  1  0
 26 25  2  0
M  END
$$$$
