HDI.pdb
     RDKit          3D

 27 27  0  0  1  0  0  0  0  0999 V2000
    9.5270  -15.6115   19.4257 N   0  0  0  0  0  0  0  0  0  0  0  0
    8.6019  -14.6723   20.1191 C   0  0  1  0  0  0  0  0  0  0  0  0
    7.3834  -14.6450   19.2877 C   0  0  0  0  0  0  0  0  0  0  0  0
    7.5055  -14.3008   17.8805 C   0  0  0  0  0  0  0  0  0  0  0  0
    8.0253  -13.2179   17.2458 C   0  0  0  0  0  0  0  0  0  0  0  0
    7.9359  -13.4450   15.9147 N   0  0  0  0  0  0  0  0  0  0  0  0
    7.3787  -14.6338   15.7234 C   0  0  0  0  0  0  0  0  0  0  0  0
    7.1040  -15.1830   16.9079 N   0  0  0  0  0  0  0  0  0  0  0  0
    8.4078  -15.2213   21.4971 C   0  0  0  0  0  0  0  0  0  0  0  0
    7.5449  -14.7733   22.2532 O   0  0  0  0  0  0  0  0  0  0  0  0
    9.2134  -16.2867   21.9946 N   0  0  0  0  0  0  0  0  0  0  0  0
    9.0547  -16.8072   23.3121 C   0  0  1  0  0  0  0  0  0  0  0  0
    9.6376  -18.1864   23.4916 C   0  0  0  0  0  0  0  0  0  0  0  0
    9.1900  -19.1307   22.4500 C   0  0  0  0  0  0  0  0  0  0  0  0
    7.9573  -19.2456   22.2253 O   0  0  0  0  0  0  0  0  0  0  0  0
    9.5280  -15.8616   24.3612 C   0  0  0  0  0  0  0  0  0  0  0  0
   10.7318  -15.5119   24.3237 O   0  0  0  0  0  0  0  0  0  0  0  0
   10.0341  -19.9167   21.6844 O   0  0  0  0  0  0  0  0  0  0  0  0
    6.2044  -12.2617   27.2612 C   0  0  0  0  0  0  0  0  0  0  0  0
    6.9409  -13.5467   26.8970 C   0  0  0  0  0  0  0  0  0  0  0  0
    8.3326  -13.2548   26.4396 C   0  0  2  0  0  0  0  0  0  0  0  0
    8.3909  -12.4695   25.1643 C   0  0  0  0  0  0  0  0  0  0  0  0
    9.1602  -14.4992   26.4615 C   0  0  2  0  0  0  0  0  0  0  0  0
    8.6928  -15.3527   25.3768 N   0  0  0  0  0  0  0  0  0  0  0  0
    9.1552  -15.2250   27.7517 C   0  0  0  0  0  0  0  0  0  0  0  0
    8.6358  -16.3474   27.9313 O   0  0  0  0  0  0  0  0  0  0  0  0
    9.7681  -14.6233   28.8415 O   0  0  0  0  0  0  0  0  0  0  0  0
  2  9  1  0
  2  1  1  6
  3  2  1  0
  4  3  1  0
  4  8  1  0
  5  6  1  0
  5  4  2  0
  6  7  1  0
  7  8  2  0
  9 11  1  0
 10  9  2  0
 11 12  1  0
 12 16  1  0
 12 13  1  6
 14 13  1  0
 14 15  2  0
 16 17  2  0
 16 24  1  0
 18 14  1  0
 20 19  1  0
 21 20  1  0
 21 22  1  6
 23 21  1  0
 23 24  1  6
 25 23  1  0
 25 27  1  0
 26 25  2  0
M  END
$$$$
