HDI.pdb
     RDKit          3D

 27 27  0  0  1  0  0  0  0  0999 V2000
    8.8975  -17.0289   19.1626 N   0  0  0  0  0  0  0  0  0  0  0  0
    8.9857  -15.9123   20.1446 C   0  0  1  0  0  0  0  0  0  0  0  0
    7.8793  -15.0011   19.7948 C   0  0  0  0  0  0  0  0  0  0  0  0
    7.9800  -14.2157   18.5756 C   0  0  0  0  0  0  0  0  0  0  0  0
    8.5470  -13.0103   18.3088 C   0  0  0  0  0  0  0  0  0  0  0  0
    8.4034  -12.7778   16.9833 N   0  0  0  0  0  0  0  0  0  0  0  0
    7.7674  -13.8069   16.4384 C   0  0  0  0  0  0  0  0  0  0  0  0
    7.4948  -14.7041   17.3876 N   0  0  0  0  0  0  0  0  0  0  0  0
    8.8766  -16.5394   21.4984 C   0  0  0  0  0  0  0  0  0  0  0  0
    8.0453  -17.4162   21.7368 O   0  0  0  0  0  0  0  0  0  0  0  0
    9.7304  -16.1490   22.5709 N   0  0  0  0  0  0  0  0  0  0  0  0
    9.6757  -16.7739   23.8509 C   0  0  1  0  0  0  0  0  0  0  0  0
   10.5235  -18.0167   23.9538 C   0  0  0  0  0  0  0  0  0  0  0  0
   10.5060  -18.6040   25.3073 C   0  0  0  0  0  0  0  0  0  0  0  0
    9.4178  -18.6415   25.9378 O   0  0  0  0  0  0  0  0  0  0  0  0
    9.9459  -15.8217   24.9640 C   0  0  0  0  0  0  0  0  0  0  0  0
   11.0736  -15.2736   24.9950 O   0  0  0  0  0  0  0  0  0  0  0  0
   11.6131  -19.1278   25.9527 O   0  0  0  0  0  0  0  0  0  0  0  0
    6.2282  -12.4692   26.1259 C   0  0  0  0  0  0  0  0  0  0  0  0
    7.5448  -13.2204   25.9569 C   0  0  0  0  0  0  0  0  0  0  0  0
    8.0114  -13.7829   27.2596 C   0  0  2  0  0  0  0  0  0  0  0  0
    8.0750  -12.7682   28.3609 C   0  0  0  0  0  0  0  0  0  0  0  0
    9.2535  -14.5908   27.0636 C   0  0  2  0  0  0  0  0  0  0  0  0
    9.0026  -15.5167   25.9666 N   0  0  0  0  0  0  0  0  0  0  0  0
    9.7239  -15.3080   28.2701 C   0  0  0  0  0  0  0  0  0  0  0  0
   10.2655  -14.7599   29.2541 O   0  0  0  0  0  0  0  0  0  0  0  0
    9.5549  -16.6843   28.3188 O   0  0  0  0  0  0  0  0  0  0  0  0
  2  9  1  0
  2  1  1  6
  3  2  1  0
  4  3  1  0
  4  8  1  0
  5  6  1  0
  5  4  2  0
  6  7  1  0
  7  8  2  0
  9 11  1  0
 10  9  2  0
 11 12  1  0
 12 16  1  0
 12 13  1  6
 14 13  1  0
 14 15  2  0
 16 17  2  0
 16 24  1  0
 18 14  1  0
 20 19  1  0
 21 20  1  0
 21 22  1  1
 23 21  1  0
 23 24  1  6
 25 23  1  0
 25 27  1  0
 26 25  2  0
M  END
$$$$
