HDI.pdb
     RDKit          3D

 27 27  0  0  1  0  0  0  0  0999 V2000
    6.6878  -17.0885   19.6747 N   0  0  0  0  0  0  0  0  0  0  0  0
    7.6933  -16.1944   20.3137 C   0  0  1  0  0  0  0  0  0  0  0  0
    7.2226  -14.8236   20.0384 C   0  0  0  0  0  0  0  0  0  0  0  0
    7.6105  -14.1896   18.7889 C   0  0  0  0  0  0  0  0  0  0  0  0
    7.1949  -13.0521   18.1732 C   0  0  0  0  0  0  0  0  0  0  0  0
    7.9397  -12.9004   17.0534 N   0  0  0  0  0  0  0  0  0  0  0  0
    8.7953  -13.9113   16.9726 C   0  0  0  0  0  0  0  0  0  0  0  0
    8.6186  -14.7177   18.0208 N   0  0  0  0  0  0  0  0  0  0  0  0
    7.7213  -16.5681   21.7620 C   0  0  0  0  0  0  0  0  0  0  0  0
    6.6848  -16.7793   22.3927 O   0  0  0  0  0  0  0  0  0  0  0  0
    8.9492  -16.6957   22.4746 N   0  0  0  0  0  0  0  0  0  0  0  0
    8.9939  -17.0726   23.8486 C   0  0  1  0  0  0  0  0  0  0  0  0
    9.7439  -18.3566   24.0993 C   0  0  0  0  0  0  0  0  0  0  0  0
    9.8693  -18.6682   25.5360 C   0  0  0  0  0  0  0  0  0  0  0  0
    8.8490  -18.5793   26.2669 O   0  0  0  0  0  0  0  0  0  0  0  0
    9.4693  -15.9690   24.7289 C   0  0  0  0  0  0  0  0  0  0  0  0
   10.6516  -15.5784   24.5790 O   0  0  0  0  0  0  0  0  0  0  0  0
   11.0432  -19.0584   26.1576 O   0  0  0  0  0  0  0  0  0  0  0  0
    6.0881  -12.2087   27.3046 C   0  0  0  0  0  0  0  0  0  0  0  0
    6.8906  -13.4839   27.0683 C   0  0  0  0  0  0  0  0  0  0  0  0
    8.2562  -13.1691   26.5515 C   0  0  2  0  0  0  0  0  0  0  0  0
    8.2488  -12.4973   25.2116 C   0  0  0  0  0  0  0  0  0  0  0  0
    9.1437  -14.3668   26.6601 C   0  0  2  0  0  0  0  0  0  0  0  0
    8.6588  -15.3564   25.7066 N   0  0  0  0  0  0  0  0  0  0  0  0
    9.2460  -14.9418   28.0204 C   0  0  0  0  0  0  0  0  0  0  0  0
    8.8127  -16.0672   28.3484 O   0  0  0  0  0  0  0  0  0  0  0  0
    9.8646  -14.1841   29.0045 O   0  0  0  0  0  0  0  0  0  0  0  0
  2  9  1  0
  2  1  1  6
  3  2  1  0
  4  3  1  0
  4  8  1  0
  5  6  1  0
  5  4  2  0
  6  7  1  0
  7  8  2  0
  9 11  1  0
 10  9  2  0
 11 12  1  0
 12 16  1  0
 12 13  1  6
 14 13  1  0
 14 15  2  0
 16 17  2  0
 16 24  1  0
 18 14  1  0
 20 19  1  0
 21 20  1  0
 21 22  1  6
 23 21  1  0
 23 24  1  6
 25 23  1  0
 25 27  1  0
 26 25  2  0
M  END
$$$$
