HDI.pdb
     RDKit          3D

 27 27  0  0  1  0  0  0  0  0999 V2000
    8.8926  -16.8620   18.6899 N   0  0  0  0  0  0  0  0  0  0  0  0
    8.7831  -15.6374   19.5309 C   0  0  1  0  0  0  0  0  0  0  0  0
    7.6449  -14.8840   18.9710 C   0  0  0  0  0  0  0  0  0  0  0  0
    7.8171  -14.2013   17.6990 C   0  0  0  0  0  0  0  0  0  0  0  0
    8.2812  -12.9648   17.3804 C   0  0  0  0  0  0  0  0  0  0  0  0
    8.2855  -12.8674   16.0306 N   0  0  0  0  0  0  0  0  0  0  0  0
    7.8391  -14.0084   15.5213 C   0  0  0  0  0  0  0  0  0  0  0  0
    7.5443  -14.8455   16.5176 N   0  0  0  0  0  0  0  0  0  0  0  0
    8.5887  -16.1137   20.9357 C   0  0  0  0  0  0  0  0  0  0  0  0
    7.4701  -16.3810   21.3760 O   0  0  0  0  0  0  0  0  0  0  0  0
    9.6902  -16.2785   21.8252 N   0  0  0  0  0  0  0  0  0  0  0  0
    9.5151  -16.6561   23.1885 C   0  0  1  0  0  0  0  0  0  0  0  0
   10.3387  -17.8521   23.5953 C   0  0  0  0  0  0  0  0  0  0  0  0
   10.2606  -18.9532   22.6163 C   0  0  0  0  0  0  0  0  0  0  0  0
    9.1729  -19.5721   22.4855 O   0  0  0  0  0  0  0  0  0  0  0  0
    9.6933  -15.5123   24.1260 C   0  0  0  0  0  0  0  0  0  0  0  0
   10.7187  -14.8041   23.9855 O   0  0  0  0  0  0  0  0  0  0  0  0
   11.3091  -19.3689   21.8134 O   0  0  0  0  0  0  0  0  0  0  0  0
    5.7332  -12.6019   26.9550 C   0  0  0  0  0  0  0  0  0  0  0  0
    6.7021  -13.7384   26.6458 C   0  0  0  0  0  0  0  0  0  0  0  0
    8.0306  -13.2074   26.2164 C   0  0  2  0  0  0  0  0  0  0  0  0
    7.9757  -12.4148   24.9454 C   0  0  0  0  0  0  0  0  0  0  0  0
    9.0602  -14.2903   26.2493 C   0  0  2  0  0  0  0  0  0  0  0  0
    8.7726  -15.1989   25.1469 N   0  0  0  0  0  0  0  0  0  0  0  0
    9.1508  -15.0213   27.5334 C   0  0  0  0  0  0  0  0  0  0  0  0
    8.7959  -16.2080   27.6998 O   0  0  0  0  0  0  0  0  0  0  0  0
    9.6645  -14.3484   28.6328 O   0  0  0  0  0  0  0  0  0  0  0  0
  2  9  1  0
  2  1  1  6
  3  2  1  0
  4  3  1  0
  4  8  1  0
  5  6  1  0
  5  4  2  0
  6  7  1  0
  7  8  2  0
  9 11  1  0
 10  9  2  0
 11 12  1  0
 12 16  1  0
 12 13  1  1
 14 13  1  0
 14 15  2  0
 16 17  2  0
 16 24  1  0
 18 14  1  0
 20 19  1  0
 21 20  1  0
 21 22  1  6
 23 21  1  0
 23 24  1  6
 25 23  1  0
 25 27  1  0
 26 25  2  0
M  END
$$$$
