HDI.pdb
     RDKit          3D

 27 27  0  0  1  0  0  0  0  0999 V2000
    7.7617  -17.2114   19.2473 N   0  0  0  0  0  0  0  0  0  0  0  0
    8.7092  -16.2338   19.8518 C   0  0  1  0  0  0  0  0  0  0  0  0
    8.0835  -14.9130   19.6501 C   0  0  0  0  0  0  0  0  0  0  0  0
    8.0901  -14.3333   18.3169 C   0  0  0  0  0  0  0  0  0  0  0  0
    8.5333  -14.7984   17.1198 C   0  0  0  0  0  0  0  0  0  0  0  0
    8.2333  -13.8667   16.1852 N   0  0  0  0  0  0  0  0  0  0  0  0
    7.6203  -12.8511   16.7798 C   0  0  0  0  0  0  0  0  0  0  0  0
    7.5173  -13.1071   18.0852 N   0  0  0  0  0  0  0  0  0  0  0  0
    8.8685  -16.6395   21.2829 C   0  0  0  0  0  0  0  0  0  0  0  0
    7.8940  -16.8819   21.9959 O   0  0  0  0  0  0  0  0  0  0  0  0
   10.1554  -16.7629   21.8831 N   0  0  0  0  0  0  0  0  0  0  0  0
   10.3241  -17.1468   23.2455 C   0  0  1  0  0  0  0  0  0  0  0  0
   11.5849  -17.9340   23.5003 C   0  0  0  0  0  0  0  0  0  0  0  0
   11.6387  -19.1855   22.7206 C   0  0  0  0  0  0  0  0  0  0  0  0
   12.5544  -19.3309   21.8700 O   0  0  0  0  0  0  0  0  0  0  0  0
   10.1850  -15.9988   24.1844 C   0  0  0  0  0  0  0  0  0  0  0  0
   11.0306  -15.0765   24.0991 O   0  0  0  0  0  0  0  0  0  0  0  0
   10.7445  -20.2343   22.8521 O   0  0  0  0  0  0  0  0  0  0  0  0
    6.6159  -12.0850   26.7492 C   0  0  0  0  0  0  0  0  0  0  0  0
    7.8530  -12.9497   26.9687 C   0  0  0  0  0  0  0  0  0  0  0  0
    7.8850  -14.0923   26.0072 C   0  0  2  0  0  0  0  0  0  0  0  0
    6.6069  -14.8741   25.9642 C   0  0  0  0  0  0  0  0  0  0  0  0
    9.1239  -14.9048   26.2043 C   0  0  2  0  0  0  0  0  0  0  0  0
    9.1598  -15.9082   25.1481 N   0  0  0  0  0  0  0  0  0  0  0  0
    9.2492  -15.5311   27.5398 C   0  0  0  0  0  0  0  0  0  0  0  0
    9.1073  -16.7520   27.7660 O   0  0  0  0  0  0  0  0  0  0  0  0
    9.5445  -14.7118   28.6199 O   0  0  0  0  0  0  0  0  0  0  0  0
  2  9  1  0
  2  1  1  6
  3  2  1  0
  4  3  1  0
  4  8  1  0
  5  6  1  0
  5  4  2  0
  6  7  1  0
  7  8  2  0
  9 11  1  0
 10  9  2  0
 11 12  1  0
 12 16  1  0
 12 13  1  6
 14 13  1  0
 14 15  2  0
 16 17  2  0
 16 24  1  0
 18 14  1  0
 20 19  1  0
 21 20  1  0
 21 22  1  1
 23 21  1  0
 23 24  1  6
 25 23  1  0
 25 27  1  0
 26 25  2  0
M  END
$$$$
