HDI.pdb
     RDKit          3D

 27 27  0  0  1  0  0  0  0  0999 V2000
    7.6292  -17.0936   19.8603 N   0  0  0  0  0  0  0  0  0  0  0  0
    8.5085  -16.0595   20.4738 C   0  0  1  0  0  0  0  0  0  0  0  0
    7.8044  -14.7798   20.2656 C   0  0  0  0  0  0  0  0  0  0  0  0
    7.8333  -14.1735   18.9446 C   0  0  0  0  0  0  0  0  0  0  0  0
    8.3179  -14.6049   17.7509 C   0  0  0  0  0  0  0  0  0  0  0  0
    8.0222  -13.6613   16.8270 N   0  0  0  0  0  0  0  0  0  0  0  0
    7.3716  -12.6713   17.4246 C   0  0  0  0  0  0  0  0  0  0  0  0
    7.2400  -12.9555   18.7216 N   0  0  0  0  0  0  0  0  0  0  0  0
    8.6787  -16.4550   21.9065 C   0  0  0  0  0  0  0  0  0  0  0  0
    7.7164  -16.5359   22.6709 O   0  0  0  0  0  0  0  0  0  0  0  0
    9.9622  -16.7553   22.4487 N   0  0  0  0  0  0  0  0  0  0  0  0
   10.1460  -17.0969   23.8203 C   0  0  1  0  0  0  0  0  0  0  0  0
   11.3522  -17.9667   24.0706 C   0  0  0  0  0  0  0  0  0  0  0  0
   11.3259  -19.2126   23.2807 C   0  0  0  0  0  0  0  0  0  0  0  0
   12.0362  -19.2889   22.2449 O   0  0  0  0  0  0  0  0  0  0  0  0
   10.1234  -15.9055   24.7142 C   0  0  0  0  0  0  0  0  0  0  0  0
   10.9441  -14.9879   24.4752 O   0  0  0  0  0  0  0  0  0  0  0  0
   10.5670  -20.3275   23.5936 O   0  0  0  0  0  0  0  0  0  0  0  0
    6.2103  -12.9938   25.9151 C   0  0  0  0  0  0  0  0  0  0  0  0
    7.5821  -13.6403   25.7531 C   0  0  0  0  0  0  0  0  0  0  0  0
    8.1181  -14.0962   27.0707 C   0  0  2  0  0  0  0  0  0  0  0  0
    8.1252  -13.0234   28.1173 C   0  0  0  0  0  0  0  0  0  0  0  0
    9.4150  -14.8156   26.8851 C   0  0  2  0  0  0  0  0  0  0  0  0
    9.2327  -15.7697   25.7988 N   0  0  0  0  0  0  0  0  0  0  0  0
    9.9334  -15.4833   28.1004 C   0  0  0  0  0  0  0  0  0  0  0  0
    9.7955  -16.6992   28.3543 O   0  0  0  0  0  0  0  0  0  0  0  0
   10.6213  -14.7117   29.0260 O   0  0  0  0  0  0  0  0  0  0  0  0
  2  9  1  0
  2  1  1  6
  3  2  1  0
  4  3  1  0
  4  8  1  0
  5  6  1  0
  5  4  2  0
  6  7  1  0
  7  8  2  0
  9 11  1  0
 10  9  2  0
 11 12  1  0
 12 16  1  0
 12 13  1  6
 14 13  1  0
 14 15  2  0
 16 17  2  0
 16 24  1  0
 18 14  1  0
 20 19  1  0
 21 20  1  0
 21 22  1  1
 23 21  1  0
 23 24  1  6
 25 23  1  0
 25 27  1  0
 26 25  2  0
M  END
$$$$
