HDI.pdb
     RDKit          3D

 27 27  0  0  1  0  0  0  0  0999 V2000
    9.4840  -16.5635   19.4577 N   0  0  0  0  0  0  0  0  0  0  0  0
    9.2141  -15.4299   20.3856 C   0  0  1  0  0  0  0  0  0  0  0  0
    7.9564  -14.8271   19.9046 C   0  0  0  0  0  0  0  0  0  0  0  0
    7.9604  -14.1249   18.6316 C   0  0  0  0  0  0  0  0  0  0  0  0
    8.7995  -13.1970   18.1019 C   0  0  0  0  0  0  0  0  0  0  0  0
    8.3665  -12.9255   16.8488 N   0  0  0  0  0  0  0  0  0  0  0  0
    7.2906  -13.6619   16.6025 C   0  0  0  0  0  0  0  0  0  0  0  0
    7.0169  -14.4072   17.6749 N   0  0  0  0  0  0  0  0  0  0  0  0
    9.1401  -16.0234   21.7568 C   0  0  0  0  0  0  0  0  0  0  0  0
    8.0613  -16.3113   22.2765 O   0  0  0  0  0  0  0  0  0  0  0  0
   10.3153  -16.2813   22.5211 N   0  0  0  0  0  0  0  0  0  0  0  0
   10.2599  -16.8073   23.8447 C   0  0  1  0  0  0  0  0  0  0  0  0
   11.2870  -17.8783   24.1133 C   0  0  0  0  0  0  0  0  0  0  0  0
   11.2677  -18.9490   23.0983 C   0  0  0  0  0  0  0  0  0  0  0  0
   10.2594  -19.6983   23.0265 O   0  0  0  0  0  0  0  0  0  0  0  0
   10.2817  -15.7414   24.8850 C   0  0  0  0  0  0  0  0  0  0  0  0
   11.2376  -14.9298   24.8611 O   0  0  0  0  0  0  0  0  0  0  0  0
   12.2906  -19.2010   22.2000 O   0  0  0  0  0  0  0  0  0  0  0  0
    6.6721  -12.4143   25.7872 C   0  0  0  0  0  0  0  0  0  0  0  0
    7.9584  -13.2337   25.7719 C   0  0  0  0  0  0  0  0  0  0  0  0
    8.1949  -13.8837   27.0959 C   0  0  2  0  0  0  0  0  0  0  0  0
    8.1334  -12.9296   28.2502 C   0  0  0  0  0  0  0  0  0  0  0  0
    9.4158  -14.7443   27.0434 C   0  0  2  0  0  0  0  0  0  0  0  0
    9.2893  -15.6098   25.8779 N   0  0  0  0  0  0  0  0  0  0  0  0
    9.6713  -15.5339   28.2692 C   0  0  0  0  0  0  0  0  0  0  0  0
   10.2279  -15.0887   29.2958 O   0  0  0  0  0  0  0  0  0  0  0  0
    9.2675  -16.8613   28.2866 O   0  0  0  0  0  0  0  0  0  0  0  0
  2  9  1  0
  2  1  1  6
  3  2  1  0
  4  3  1  0
  4  8  1  0
  5  6  1  0
  5  4  2  0
  6  7  1  0
  7  8  2  0
  9 11  1  0
 10  9  2  0
 11 12  1  0
 12 16  1  0
 12 13  1  1
 14 13  1  0
 14 15  2  0
 16 17  2  0
 16 24  1  0
 18 14  1  0
 20 19  1  0
 21 20  1  0
 21 22  1  1
 23 21  1  0
 23 24  1  6
 25 23  1  0
 25 27  1  0
 26 25  2  0
M  END
$$$$
