HDI.pdb
     RDKit          3D

 27 27  0  0  1  0  0  0  0  0999 V2000
    7.2739  -17.0145   19.3684 N   0  0  0  0  0  0  0  0  0  0  0  0
    8.2712  -16.1318   20.0356 C   0  0  1  0  0  0  0  0  0  0  0  0
    7.9181  -14.7624   19.6154 C   0  0  0  0  0  0  0  0  0  0  0  0
    8.1895  -14.3604   18.2449 C   0  0  0  0  0  0  0  0  0  0  0  0
    8.6608  -15.0421   17.1684 C   0  0  0  0  0  0  0  0  0  0  0  0
    8.6601  -14.1912   16.1160 N   0  0  0  0  0  0  0  0  0  0  0  0
    8.2014  -13.0142   16.5221 C   0  0  0  0  0  0  0  0  0  0  0  0
    7.9043  -13.0859   17.8209 N   0  0  0  0  0  0  0  0  0  0  0  0
    8.1393  -16.3904   21.5032 C   0  0  0  0  0  0  0  0  0  0  0  0
    7.0430  -16.3742   22.0640 O   0  0  0  0  0  0  0  0  0  0  0  0
    9.2773  -16.6667   22.3158 N   0  0  0  0  0  0  0  0  0  0  0  0
    9.1724  -16.8827   23.7209 C   0  0  1  0  0  0  0  0  0  0  0  0
   10.0078  -18.0349   24.2196 C   0  0  0  0  0  0  0  0  0  0  0  0
    9.8799  -19.2359   23.3722 C   0  0  0  0  0  0  0  0  0  0  0  0
    8.7292  -19.6667   23.1009 O   0  0  0  0  0  0  0  0  0  0  0  0
    9.4087  -15.6412   24.5093 C   0  0  0  0  0  0  0  0  0  0  0  0
   10.3836  -14.9241   24.1802 O   0  0  0  0  0  0  0  0  0  0  0  0
   10.9456  -19.9417   22.8405 O   0  0  0  0  0  0  0  0  0  0  0  0
    5.5674  -12.4307   27.1326 C   0  0  0  0  0  0  0  0  0  0  0  0
    6.5103  -13.5913   26.8326 C   0  0  0  0  0  0  0  0  0  0  0  0
    7.7873  -13.1020   26.2316 C   0  0  2  0  0  0  0  0  0  0  0  0
    7.6360  -12.6096   24.8241 C   0  0  0  0  0  0  0  0  0  0  0  0
    8.8796  -14.0996   26.4449 C   0  0  2  0  0  0  0  0  0  0  0  0
    8.5956  -15.2462   25.5914 N   0  0  0  0  0  0  0  0  0  0  0  0
    9.0727  -14.5168   27.8521 C   0  0  0  0  0  0  0  0  0  0  0  0
    9.3970  -13.7466   28.7814 O   0  0  0  0  0  0  0  0  0  0  0  0
    8.8821  -15.8542   28.1685 O   0  0  0  0  0  0  0  0  0  0  0  0
  2  9  1  0
  2  1  1  6
  3  2  1  0
  4  3  1  0
  4  8  1  0
  5  6  1  0
  5  4  2  0
  6  7  1  0
  7  8  2  0
  9 11  1  0
 10  9  2  0
 11 12  1  0
 12 16  1  0
 12 13  1  1
 14 13  1  0
 14 15  2  0
 16 17  2  0
 16 24  1  0
 18 14  1  0
 20 19  1  0
 21 20  1  0
 21 22  1  6
 23 21  1  0
 23 24  1  6
 25 23  1  0
 25 27  1  0
 26 25  2  0
M  END
$$$$
