LMR.pdb
     RDKit          3D

 28 27  0  0  1  0  0  0  0  0999 V2000
    7.8456  -11.9753   19.1162 C   0  0  0  0  0  0  0  0  0  0  0  0
    7.7646  -13.3924   19.5857 C   0  0  1  0  0  0  0  0  0  0  0  0
    7.8948  -14.3738   18.4455 C   0  0  0  0  0  0  0  0  0  0  0  0
    8.7780  -13.7328   20.6381 C   0  0  0  0  0  0  0  0  0  0  0  0
    8.6152  -15.1119   21.2300 C   0  0  2  0  0  0  0  0  0  0  0  0
    7.2128  -15.5212   21.2308 N   0  0  0  0  0  0  0  0  0  0  0  0
    8.9996  -14.9753   22.6770 C   0  0  0  0  0  0  0  0  0  0  0  0
   10.1606  -14.6578   23.0419 O   0  0  0  0  0  0  0  0  0  0  0  0
    6.2356  -12.3109   27.9805 C   0  0  0  0  0  0  0  0  0  0  0  0
    5.5963  -12.3451   26.2895 S   0  0  0  0  0  0  0  0  0  0  0  0
    6.8357  -13.0993   25.1964 C   0  0  0  0  0  0  0  0  0  0  0  0
    7.3372  -14.3468   25.8786 C   0  0  0  0  0  0  0  0  0  0  0  0
    8.4044  -15.0582   25.0666 C   0  0  2  0  0  0  0  0  0  0  0  0
    8.0433  -15.2052   23.6957 N   0  0  0  0  0  0  0  0  0  0  0  0
    8.6528  -16.3599   25.7084 C   0  0  0  0  0  0  0  0  0  0  0  0
    7.7618  -17.2543   25.8298 O   0  0  0  0  0  0  0  0  0  0  0  0
   11.3846  -18.8737   19.6998 N   0  0  0  0  0  0  0  0  0  0  0  0
   11.9620  -18.7715   20.9931 C   0  0  0  0  0  0  0  0  0  0  0  0
   13.2148  -18.5848   21.0872 N   0  0  0  0  0  0  0  0  0  0  0  0
   11.1319  -18.8806   22.1390 N   0  0  0  0  0  0  0  0  0  0  0  0
   11.6403  -18.7291   23.4624 C   0  0  0  0  0  0  0  0  0  0  0  0
   10.6185  -18.9691   24.5503 C   0  0  0  0  0  0  0  0  0  0  0  0
   11.1820  -18.6427   25.8990 C   0  0  0  0  0  0  0  0  0  0  0  0
   10.2368  -17.9547   26.8317 C   0  0  2  0  0  0  0  0  0  0  0  0
    9.9374  -16.6492   26.2205 N   0  0  0  0  0  0  0  0  0  0  0  0
   10.7535  -17.7033   28.1769 C   0  0  0  0  0  0  0  0  0  0  0  0
   11.0658  -16.5441   28.5798 O   0  0  0  0  0  0  0  0  0  0  0  0
   10.9177  -18.7470   29.0650 O   0  0  0  0  0  0  0  0  0  0  0  0
  2  1  1  6
  2  3  1  0
  4  2  1  0
  5  4  1  0
  5  6  1  1
  7  8  2  0
  7  5  1  0
  9 10  1  0
 10 11  1  0
 11 12  1  0
 13 12  1  1
 13 15  1  0
 13 14  1  0
 14  7  1  0
 15 16  2  0
 18 17  1  0
 18 20  1  0
 19 18  2  0
 20 21  1  0
 21 22  1  0
 22 23  1  0
 24 23  1  6
 24 26  1  0
 25 24  1  0
 25 15  1  0
 26 27  2  0
 26 28  1  0
M  END
$$$$
