LMR.pdb
     RDKit          3D

 28 27  0  0  1  0  0  0  0  0999 V2000
    8.5586  -12.0090   19.2425 C   0  0  0  0  0  0  0  0  0  0  0  0
    8.0794  -13.3765   19.6105 C   0  0  1  0  0  0  0  0  0  0  0  0
    7.2006  -13.9750   18.5383 C   0  0  0  0  0  0  0  0  0  0  0  0
    9.1898  -14.3362   19.9208 C   0  0  0  0  0  0  0  0  0  0  0  0
    8.7406  -15.5959   20.6207 C   0  0  2  0  0  0  0  0  0  0  0  0
    7.2854  -15.7218   20.5935 N   0  0  0  0  0  0  0  0  0  0  0  0
    9.1051  -15.4033   22.0665 C   0  0  0  0  0  0  0  0  0  0  0  0
   10.2974  -15.3320   22.4603 O   0  0  0  0  0  0  0  0  0  0  0  0
    6.3916  -11.3541   26.3454 C   0  0  0  0  0  0  0  0  0  0  0  0
    8.0098  -12.1111   26.6243 S   0  0  0  0  0  0  0  0  0  0  0  0
    7.8435  -13.9189   26.5617 C   0  0  0  0  0  0  0  0  0  0  0  0
    7.3942  -14.2811   25.1688 C   0  0  0  0  0  0  0  0  0  0  0  0
    8.4392  -15.0860   24.4175 C   0  0  2  0  0  0  0  0  0  0  0  0
    8.0929  -15.2937   23.0506 N   0  0  0  0  0  0  0  0  0  0  0  0
    8.6158  -16.3594   25.1355 C   0  0  0  0  0  0  0  0  0  0  0  0
    7.7122  -17.2466   25.2061 O   0  0  0  0  0  0  0  0  0  0  0  0
   15.9287  -20.4696   24.4771 N   0  0  0  0  0  0  0  0  0  0  0  0
   14.7744  -20.1188   23.7282 C   0  0  0  0  0  0  0  0  0  0  0  0
   14.8487  -20.1177   22.4603 N   0  0  0  0  0  0  0  0  0  0  0  0
   13.5764  -19.7799   24.4095 N   0  0  0  0  0  0  0  0  0  0  0  0
   13.4663  -19.8428   25.8295 C   0  0  0  0  0  0  0  0  0  0  0  0
   12.0696  -19.5997   26.3544 C   0  0  0  0  0  0  0  0  0  0  0  0
   11.5273  -18.2955   25.8566 C   0  0  0  0  0  0  0  0  0  0  0  0
   10.1432  -17.9667   26.3178 C   0  0  2  0  0  0  0  0  0  0  0  0
    9.8418  -16.6281   25.7840 N   0  0  0  0  0  0  0  0  0  0  0  0
    9.9602  -17.9141   27.7681 C   0  0  0  0  0  0  0  0  0  0  0  0
    9.8396  -16.8230   28.3992 O   0  0  0  0  0  0  0  0  0  0  0  0
    9.9120  -19.0798   28.5055 O   0  0  0  0  0  0  0  0  0  0  0  0
  2  1  1  6
  2  3  1  0
  4  2  1  0
  5  4  1  0
  5  6  1  1
  7  8  2  0
  7  5  1  0
  9 10  1  0
 10 11  1  0
 11 12  1  0
 13 12  1  1
 13 15  1  0
 13 14  1  0
 14  7  1  0
 15 16  2  0
 18 17  1  0
 18 20  1  0
 19 18  2  0
 20 21  1  0
 21 22  1  0
 22 23  1  0
 24 23  1  1
 24 26  1  0
 25 24  1  0
 25 15  1  0
 26 27  2  0
 26 28  1  0
M  END
$$$$
