LMR.pdb
     RDKit          3D

 28 27  0  0  1  0  0  0  0  0999 V2000
    7.3981  -12.0681   18.5816 C   0  0  0  0  0  0  0  0  0  0  0  0
    7.5557  -13.4884   19.0210 C   0  0  1  0  0  0  0  0  0  0  0  0
    8.1336  -14.3570   17.9293 C   0  0  0  0  0  0  0  0  0  0  0  0
    8.3902  -13.6428   20.2580 C   0  0  0  0  0  0  0  0  0  0  0  0
    8.4371  -15.0507   20.8003 C   0  0  2  0  0  0  0  0  0  0  0  0
    7.1060  -15.6524   20.8160 N   0  0  0  0  0  0  0  0  0  0  0  0
    8.8374  -14.9118   22.2428 C   0  0  0  0  0  0  0  0  0  0  0  0
   10.0086  -14.6185   22.5950 O   0  0  0  0  0  0  0  0  0  0  0  0
    7.0733  -11.6795   27.7308 C   0  0  0  0  0  0  0  0  0  0  0  0
    5.8864  -12.3609   26.5492 S   0  0  0  0  0  0  0  0  0  0  0  0
    6.7861  -13.0780   25.1434 C   0  0  0  0  0  0  0  0  0  0  0  0
    7.1841  -14.4793   25.5319 C   0  0  0  0  0  0  0  0  0  0  0  0
    8.2786  -15.0358   24.6394 C   0  0  2  0  0  0  0  0  0  0  0  0
    7.8852  -15.1114   23.2716 N   0  0  0  0  0  0  0  0  0  0  0  0
    8.6549  -16.3556   25.1731 C   0  0  0  0  0  0  0  0  0  0  0  0
    7.8613  -17.3446   25.1998 O   0  0  0  0  0  0  0  0  0  0  0  0
   15.8112  -19.8216   22.4203 N   0  0  0  0  0  0  0  0  0  0  0  0
   15.2489  -20.8963   23.1586 C   0  0  0  0  0  0  0  0  0  0  0  0
   15.6849  -22.0711   22.9511 N   0  0  0  0  0  0  0  0  0  0  0  0
   14.2212  -20.6335   24.1015 N   0  0  0  0  0  0  0  0  0  0  0  0
   13.6729  -19.3302   24.2840 C   0  0  0  0  0  0  0  0  0  0  0  0
   12.5047  -19.2776   25.2420 C   0  0  0  0  0  0  0  0  0  0  0  0
   11.7248  -18.0107   25.0703 C   0  0  0  0  0  0  0  0  0  0  0  0
   10.4894  -17.9081   25.9069 C   0  0  2  0  0  0  0  0  0  0  0  0
    9.9568  -16.5536   25.6847 N   0  0  0  0  0  0  0  0  0  0  0  0
   10.6903  -18.0718   27.3465 C   0  0  0  0  0  0  0  0  0  0  0  0
   10.5140  -17.1259   28.1697 O   0  0  0  0  0  0  0  0  0  0  0  0
   11.0859  -19.2907   27.8591 O   0  0  0  0  0  0  0  0  0  0  0  0
  2  1  1  6
  2  3  1  0
  4  2  1  0
  5  4  1  0
  5  6  1  1
  7  8  2  0
  7  5  1  0
  9 10  1  0
 10 11  1  0
 11 12  1  0
 13 12  1  1
 13 15  1  0
 13 14  1  0
 14  7  1  0
 15 16  2  0
 18 17  1  0
 18 20  1  0
 19 18  2  0
 20 21  1  0
 21 22  1  0
 22 23  1  0
 24 23  1  6
 24 26  1  0
 25 24  1  0
 25 15  1  0
 26 27  2  0
 26 28  1  0
M  END
$$$$
