LMR.pdb
     RDKit          3D

 28 27  0  0  1  0  0  0  0  0999 V2000
    8.7878  -12.0172   19.0239 C   0  0  0  0  0  0  0  0  0  0  0  0
    8.2081  -13.2394   19.6605 C   0  0  1  0  0  0  0  0  0  0  0  0
    6.8159  -13.5338   19.1550 C   0  0  0  0  0  0  0  0  0  0  0  0
    9.0571  -14.4641   19.4876 C   0  0  0  0  0  0  0  0  0  0  0  0
    8.5794  -15.6631   20.2703 C   0  0  2  0  0  0  0  0  0  0  0  0
    7.1250  -15.7854   20.2087 N   0  0  0  0  0  0  0  0  0  0  0  0
    8.9013  -15.3584   21.7069 C   0  0  0  0  0  0  0  0  0  0  0  0
   10.0737  -15.1398   22.1064 O   0  0  0  0  0  0  0  0  0  0  0  0
    6.9423  -12.1863   28.2703 C   0  0  0  0  0  0  0  0  0  0  0  0
    6.4384  -12.7890   26.6418 S   0  0  0  0  0  0  0  0  0  0  0  0
    7.3013  -14.3477   26.2873 C   0  0  0  0  0  0  0  0  0  0  0  0
    6.9511  -14.7445   24.8755 C   0  0  0  0  0  0  0  0  0  0  0  0
    8.1810  -15.0630   24.0447 C   0  0  2  0  0  0  0  0  0  0  0  0
    7.8696  -15.3070   22.6755 N   0  0  0  0  0  0  0  0  0  0  0  0
    8.8471  -16.2191   24.6676 C   0  0  0  0  0  0  0  0  0  0  0  0
    8.2997  -17.3579   24.7784 O   0  0  0  0  0  0  0  0  0  0  0  0
   14.7297  -14.3654   21.8554 N   0  0  0  0  0  0  0  0  0  0  0  0
   13.9855  -15.1723   20.9546 C   0  0  0  0  0  0  0  0  0  0  0  0
   13.8116  -14.7570   19.7670 N   0  0  0  0  0  0  0  0  0  0  0  0
   13.4580  -16.4122   21.4002 N   0  0  0  0  0  0  0  0  0  0  0  0
   13.4847  -16.7999   22.7719 C   0  0  0  0  0  0  0  0  0  0  0  0
   12.1194  -16.9092   23.4119 C   0  0  0  0  0  0  0  0  0  0  0  0
   12.2339  -17.1881   24.8789 C   0  0  0  0  0  0  0  0  0  0  0  0
   10.9343  -17.2474   25.6165 C   0  0  2  0  0  0  0  0  0  0  0  0
   10.1588  -16.0772   25.1728 N   0  0  0  0  0  0  0  0  0  0  0  0
   11.0358  -17.1817   27.0743 C   0  0  0  0  0  0  0  0  0  0  0  0
   10.6481  -16.1756   27.7383 O   0  0  0  0  0  0  0  0  0  0  0  0
   11.5686  -18.2398   27.7826 O   0  0  0  0  0  0  0  0  0  0  0  0
  2  1  1  6
  2  3  1  0
  4  2  1  0
  5  4  1  0
  5  6  1  1
  7  8  2  0
  7  5  1  0
  9 10  1  0
 10 11  1  0
 11 12  1  0
 13 12  1  1
 13 15  1  0
 13 14  1  0
 14  7  1  0
 15 16  2  0
 18 17  1  0
 18 20  1  0
 19 18  2  0
 20 21  1  0
 21 22  1  0
 22 23  1  0
 24 23  1  6
 24 26  1  0
 25 24  1  0
 25 15  1  0
 26 27  2  0
 26 28  1  0
M  END
$$$$
