LMR.pdb
     RDKit          3D

 28 27  0  0  1  0  0  0  0  0999 V2000
    8.3554  -11.7882   19.2222 C   0  0  0  0  0  0  0  0  0  0  0  0
    7.9790  -13.2041   19.5199 C   0  0  1  0  0  0  0  0  0  0  0  0
    7.0920  -13.7906   18.4477 C   0  0  0  0  0  0  0  0  0  0  0  0
    9.1596  -14.1073   19.7218 C   0  0  0  0  0  0  0  0  0  0  0  0
    8.8433  -15.3809   20.4677 C   0  0  2  0  0  0  0  0  0  0  0  0
    7.4129  -15.6742   20.4236 N   0  0  0  0  0  0  0  0  0  0  0  0
    9.1542  -15.0891   21.9095 C   0  0  0  0  0  0  0  0  0  0  0  0
   10.3223  -14.8650   22.3181 O   0  0  0  0  0  0  0  0  0  0  0  0
    7.0164  -11.2098   28.1005 C   0  0  0  0  0  0  0  0  0  0  0  0
    6.3683  -12.3308   26.8385 S   0  0  0  0  0  0  0  0  0  0  0  0
    7.7096  -13.4020   26.2440 C   0  0  0  0  0  0  0  0  0  0  0  0
    7.3140  -13.9014   24.8776 C   0  0  0  0  0  0  0  0  0  0  0  0
    8.4058  -14.7338   24.2300 C   0  0  2  0  0  0  0  0  0  0  0  0
    8.1165  -15.0570   22.8724 N   0  0  0  0  0  0  0  0  0  0  0  0
    8.5862  -15.9419   25.0524 C   0  0  0  0  0  0  0  0  0  0  0  0
    7.6836  -16.8203   25.2013 O   0  0  0  0  0  0  0  0  0  0  0  0
   14.3670  -20.6462   23.6027 N   0  0  0  0  0  0  0  0  0  0  0  0
   13.1908  -21.2539   23.0892 C   0  0  0  0  0  0  0  0  0  0  0  0
   13.2079  -22.4994   22.8410 N   0  0  0  0  0  0  0  0  0  0  0  0
   12.0350  -20.4608   22.8670 N   0  0  0  0  0  0  0  0  0  0  0  0
   11.8782  -19.1677   23.4466 C   0  0  0  0  0  0  0  0  0  0  0  0
   11.6537  -19.1816   24.9415 C   0  0  0  0  0  0  0  0  0  0  0  0
   11.5160  -17.7900   25.4777 C   0  0  0  0  0  0  0  0  0  0  0  0
   10.2177  -17.4989   26.1605 C   0  0  2  0  0  0  0  0  0  0  0  0
    9.8150  -16.1542   25.7164 N   0  0  0  0  0  0  0  0  0  0  0  0
   10.2664  -17.4840   27.6224 C   0  0  0  0  0  0  0  0  0  0  0  0
   10.2690  -18.5450   28.3135 O   0  0  0  0  0  0  0  0  0  0  0  0
   10.3128  -16.2850   28.3044 O   0  0  0  0  0  0  0  0  0  0  0  0
  2  1  1  6
  2  3  1  0
  4  2  1  0
  5  4  1  0
  5  6  1  1
  7  8  2  0
  7  5  1  0
  9 10  1  0
 10 11  1  0
 11 12  1  0
 13 12  1  1
 13 15  1  0
 13 14  1  0
 14  7  1  0
 15 16  2  0
 18 17  1  0
 18 20  1  0
 19 18  2  0
 20 21  1  0
 21 22  1  0
 22 23  1  0
 24 23  1  6
 24 26  1  0
 25 24  1  0
 25 15  1  0
 26 27  2  0
 26 28  1  0
M  END
$$$$
