LMR.pdb
     RDKit          3D

 28 27  0  0  1  0  0  0  0  0999 V2000
    7.3073  -11.9162   18.9014 C   0  0  0  0  0  0  0  0  0  0  0  0
    7.4827  -13.3361   19.3353 C   0  0  1  0  0  0  0  0  0  0  0  0
    8.0329  -14.2019   18.2273 C   0  0  0  0  0  0  0  0  0  0  0  0
    8.3523  -13.4879   20.5483 C   0  0  0  0  0  0  0  0  0  0  0  0
    8.4931  -14.9101   21.0339 C   0  0  2  0  0  0  0  0  0  0  0  0
    7.1924  -15.5710   21.1088 N   0  0  0  0  0  0  0  0  0  0  0  0
    8.9771  -14.8032   22.4533 C   0  0  0  0  0  0  0  0  0  0  0  0
   10.1572  -14.4793   22.7436 O   0  0  0  0  0  0  0  0  0  0  0  0
    7.1551  -11.7881   28.0945 C   0  0  0  0  0  0  0  0  0  0  0  0
    6.1168  -12.2586   26.6910 S   0  0  0  0  0  0  0  0  0  0  0  0
    7.1626  -12.9589   25.3812 C   0  0  0  0  0  0  0  0  0  0  0  0
    7.5414  -14.3549   25.8064 C   0  0  0  0  0  0  0  0  0  0  0  0
    8.5620  -14.9839   24.8754 C   0  0  2  0  0  0  0  0  0  0  0  0
    8.0977  -15.0700   23.5307 N   0  0  0  0  0  0  0  0  0  0  0  0
    8.9008  -16.3085   25.4220 C   0  0  0  0  0  0  0  0  0  0  0  0
    8.1008  -17.2924   25.4010 O   0  0  0  0  0  0  0  0  0  0  0  0
   14.5100  -19.5773   22.0162 N   0  0  0  0  0  0  0  0  0  0  0  0
   13.4070  -20.4625   21.8886 C   0  0  0  0  0  0  0  0  0  0  0  0
   13.5427  -21.5051   21.1761 N   0  0  0  0  0  0  0  0  0  0  0  0
   12.1900  -20.1621   22.5541 N   0  0  0  0  0  0  0  0  0  0  0  0
   12.0235  -18.9823   23.3370 C   0  0  0  0  0  0  0  0  0  0  0  0
   12.3401  -19.1622   24.8043 C   0  0  0  0  0  0  0  0  0  0  0  0
   12.0411  -17.9140   25.5760 C   0  0  0  0  0  0  0  0  0  0  0  0
   10.6936  -17.8761   26.2235 C   0  0  2  0  0  0  0  0  0  0  0  0
   10.1720  -16.5173   26.0021 N   0  0  0  0  0  0  0  0  0  0  0  0
   10.6824  -18.1229   27.6653 C   0  0  0  0  0  0  0  0  0  0  0  0
   10.9833  -17.2293   28.5105 O   0  0  0  0  0  0  0  0  0  0  0  0
   10.3345  -19.3653   28.1554 O   0  0  0  0  0  0  0  0  0  0  0  0
  2  1  1  6
  2  3  1  0
  4  2  1  0
  5  4  1  0
  5  6  1  1
  7  8  2  0
  7  5  1  0
  9 10  1  0
 10 11  1  0
 11 12  1  0
 13 12  1  1
 13 15  1  0
 13 14  1  0
 14  7  1  0
 15 16  2  0
 18 17  1  0
 18 20  1  0
 19 18  2  0
 20 21  1  0
 21 22  1  0
 22 23  1  0
 24 23  1  1
 24 26  1  0
 25 24  1  0
 25 15  1  0
 26 27  2  0
 26 28  1  0
M  END
$$$$
