LMR.pdb
     RDKit          3D

 28 27  0  0  1  0  0  0  0  0999 V2000
    7.8171  -11.5460   19.7176 C   0  0  0  0  0  0  0  0  0  0  0  0
    7.4628  -12.9866   19.9028 C   0  0  1  0  0  0  0  0  0  0  0  0
    6.5823  -13.4998   18.7885 C   0  0  0  0  0  0  0  0  0  0  0  0
    8.6575  -13.8848   20.0313 C   0  0  0  0  0  0  0  0  0  0  0  0
    8.3758  -15.1916   20.7322 C   0  0  2  0  0  0  0  0  0  0  0  0
    6.9494  -15.5058   20.7050 N   0  0  0  0  0  0  0  0  0  0  0  0
    8.7117  -14.9519   22.1779 C   0  0  0  0  0  0  0  0  0  0  0  0
    9.8820  -14.7097   22.5698 O   0  0  0  0  0  0  0  0  0  0  0  0
    7.0338  -11.3363   26.3696 C   0  0  0  0  0  0  0  0  0  0  0  0
    8.0960  -12.6622   26.9884 S   0  0  0  0  0  0  0  0  0  0  0  0
    7.2213  -14.2474   26.8419 C   0  0  0  0  0  0  0  0  0  0  0  0
    6.8499  -14.4236   25.3913 C   0  0  0  0  0  0  0  0  0  0  0  0
    8.0297  -14.8648   24.5440 C   0  0  2  0  0  0  0  0  0  0  0  0
    7.6965  -14.9923   23.1642 N   0  0  0  0  0  0  0  0  0  0  0  0
    8.5267  -16.1322   25.1052 C   0  0  0  0  0  0  0  0  0  0  0  0
    7.7769  -17.1278   25.3397 O   0  0  0  0  0  0  0  0  0  0  0  0
   13.2620  -18.7139   21.9170 N   0  0  0  0  0  0  0  0  0  0  0  0
   14.0856  -19.5790   22.6849 C   0  0  0  0  0  0  0  0  0  0  0  0
   15.3398  -19.5609   22.4855 N   0  0  0  0  0  0  0  0  0  0  0  0
   13.4916  -20.4362   23.6474 N   0  0  0  0  0  0  0  0  0  0  0  0
   12.3333  -20.0593   24.3882 C   0  0  0  0  0  0  0  0  0  0  0  0
   12.5594  -18.9190   25.3547 C   0  0  0  0  0  0  0  0  0  0  0  0
   11.7218  -17.7319   24.9915 C   0  0  0  0  0  0  0  0  0  0  0  0
   10.4690  -17.5707   25.7922 C   0  0  2  0  0  0  0  0  0  0  0  0
    9.9007  -16.2692   25.4042 N   0  0  0  0  0  0  0  0  0  0  0  0
   10.6487  -17.5578   27.2439 C   0  0  0  0  0  0  0  0  0  0  0  0
   10.7158  -16.4838   27.9113 O   0  0  0  0  0  0  0  0  0  0  0  0
   10.7516  -18.7438   27.9423 O   0  0  0  0  0  0  0  0  0  0  0  0
  2  1  1  6
  2  3  1  0
  4  2  1  0
  5  4  1  0
  5  6  1  1
  7  8  2  0
  7  5  1  0
  9 10  1  0
 10 11  1  0
 11 12  1  0
 13 12  1  1
 13 15  1  0
 13 14  1  0
 14  7  1  0
 15 16  2  0
 18 17  1  0
 18 20  1  0
 19 18  2  0
 20 21  1  0
 21 22  1  0
 22 23  1  0
 24 23  1  6
 24 26  1  0
 25 24  1  0
 25 15  1  0
 26 27  2  0
 26 28  1  0
M  END
$$$$
