LMR.pdb
     RDKit          3D

 28 27  0  0  1  0  0  0  0  0999 V2000
    7.1733  -12.0190   18.5679 C   0  0  0  0  0  0  0  0  0  0  0  0
    7.4769  -13.4601   18.8254 C   0  0  1  0  0  0  0  0  0  0  0  0
    7.3966  -14.2885   17.5655 C   0  0  0  0  0  0  0  0  0  0  0  0
    8.8128  -13.6841   19.4701 C   0  0  0  0  0  0  0  0  0  0  0  0
    8.9406  -15.0082   20.1836 C   0  0  2  0  0  0  0  0  0  0  0  0
    7.6745  -15.7370   20.1696 N   0  0  0  0  0  0  0  0  0  0  0  0
    9.1958  -14.6643   21.6247 C   0  0  0  0  0  0  0  0  0  0  0  0
   10.2654  -14.1290   22.0138 O   0  0  0  0  0  0  0  0  0  0  0  0
    6.3165  -12.4892   28.5048 C   0  0  0  0  0  0  0  0  0  0  0  0
    5.9838  -13.1253   26.8453 S   0  0  0  0  0  0  0  0  0  0  0  0
    7.5134  -13.8178   26.1521 C   0  0  0  0  0  0  0  0  0  0  0  0
    7.2205  -14.2196   24.7288 C   0  0  0  0  0  0  0  0  0  0  0  0
    8.4718  -14.6409   23.9798 C   0  0  2  0  0  0  0  0  0  0  0  0
    8.2165  -14.9393   22.6098 N   0  0  0  0  0  0  0  0  0  0  0  0
    9.0451  -15.7950   24.6923 C   0  0  0  0  0  0  0  0  0  0  0  0
    8.3695  -16.8216   25.0058 O   0  0  0  0  0  0  0  0  0  0  0  0
   12.5413  -17.0945   20.8250 N   0  0  0  0  0  0  0  0  0  0  0  0
   13.4295  -15.9895   20.7453 C   0  0  0  0  0  0  0  0  0  0  0  0
   13.4620  -15.3109   19.6721 N   0  0  0  0  0  0  0  0  0  0  0  0
   14.2530  -15.6738   21.8572 N   0  0  0  0  0  0  0  0  0  0  0  0
   14.0569  -16.2649   23.1397 C   0  0  0  0  0  0  0  0  0  0  0  0
   12.6151  -16.2981   23.5931 C   0  0  0  0  0  0  0  0  0  0  0  0
   12.4930  -16.9125   24.9534 C   0  0  0  0  0  0  0  0  0  0  0  0
   11.0975  -17.0108   25.4820 C   0  0  2  0  0  0  0  0  0  0  0  0
   10.4107  -15.7809   25.0539 N   0  0  0  0  0  0  0  0  0  0  0  0
   10.9817  -17.0962   26.9377 C   0  0  0  0  0  0  0  0  0  0  0  0
   11.2784  -18.1445   27.5831 O   0  0  0  0  0  0  0  0  0  0  0  0
   10.5365  -16.0108   27.6647 O   0  0  0  0  0  0  0  0  0  0  0  0
  2  1  1  6
  2  3  1  0
  4  2  1  0
  5  4  1  0
  5  6  1  1
  7  8  2  0
  7  5  1  0
  9 10  1  0
 10 11  1  0
 11 12  1  0
 13 12  1  1
 13 15  1  0
 13 14  1  0
 14  7  1  0
 15 16  2  0
 18 17  1  0
 18 20  1  0
 19 18  2  0
 20 21  1  0
 21 22  1  0
 22 23  1  0
 24 23  1  1
 24 26  1  0
 25 24  1  0
 25 15  1  0
 26 27  2  0
 26 28  1  0
M  END
$$$$
