LMR.pdb
     RDKit          3D

 28 27  0  0  1  0  0  0  0  0999 V2000
    7.9646  -11.5914   18.9702 C   0  0  0  0  0  0  0  0  0  0  0  0
    7.6560  -12.9685   19.4636 C   0  0  1  0  0  0  0  0  0  0  0  0
    6.8518  -13.7612   18.4611 C   0  0  0  0  0  0  0  0  0  0  0  0
    8.8758  -13.7563   19.8404 C   0  0  0  0  0  0  0  0  0  0  0  0
    8.5770  -15.0792   20.5030 C   0  0  2  0  0  0  0  0  0  0  0  0
    7.1368  -15.3006   20.6086 N   0  0  0  0  0  0  0  0  0  0  0  0
    9.0717  -14.9409   21.9159 C   0  0  0  0  0  0  0  0  0  0  0  0
   10.2925  -14.8317   22.1981 O   0  0  0  0  0  0  0  0  0  0  0  0
    6.2073  -11.5960   26.3776 C   0  0  0  0  0  0  0  0  0  0  0  0
    6.9557  -12.8005   27.4993 S   0  0  0  0  0  0  0  0  0  0  0  0
    8.1963  -13.7708   26.5942 C   0  0  0  0  0  0  0  0  0  0  0  0
    7.6366  -14.0481   25.2220 C   0  0  0  0  0  0  0  0  0  0  0  0
    8.6253  -14.7816   24.3339 C   0  0  2  0  0  0  0  0  0  0  0  0
    8.1563  -14.9290   22.9962 N   0  0  0  0  0  0  0  0  0  0  0  0
    8.9011  -16.0844   24.9625 C   0  0  0  0  0  0  0  0  0  0  0  0
    8.0260  -16.9943   25.0846 O   0  0  0  0  0  0  0  0  0  0  0  0
   14.4267  -20.9378   21.8786 N   0  0  0  0  0  0  0  0  0  0  0  0
   14.1719  -21.7219   23.0347 C   0  0  0  0  0  0  0  0  0  0  0  0
   14.4844  -22.9528   23.0163 N   0  0  0  0  0  0  0  0  0  0  0  0
   13.5784  -21.1159   24.1726 N   0  0  0  0  0  0  0  0  0  0  0  0
   13.1550  -19.7545   24.1741 C   0  0  0  0  0  0  0  0  0  0  0  0
   12.5162  -19.3054   25.4685 C   0  0  0  0  0  0  0  0  0  0  0  0
   11.9833  -17.9108   25.3498 C   0  0  0  0  0  0  0  0  0  0  0  0
   10.5880  -17.7200   25.8530 C   0  0  2  0  0  0  0  0  0  0  0  0
   10.1949  -16.3566   25.4604 N   0  0  0  0  0  0  0  0  0  0  0  0
   10.4230  -17.8260   27.3025 C   0  0  0  0  0  0  0  0  0  0  0  0
   10.2642  -16.8124   28.0448 O   0  0  0  0  0  0  0  0  0  0  0  0
   10.4351  -19.0627   27.9152 O   0  0  0  0  0  0  0  0  0  0  0  0
  2  1  1  6
  2  3  1  0
  4  2  1  0
  5  4  1  0
  5  6  1  1
  7  8  2  0
  7  5  1  0
  9 10  1  0
 10 11  1  0
 11 12  1  0
 13 12  1  1
 13 15  1  0
 13 14  1  0
 14  7  1  0
 15 16  2  0
 18 17  1  0
 18 20  1  0
 19 18  2  0
 20 21  1  0
 21 22  1  0
 22 23  1  0
 24 23  1  1
 24 26  1  0
 25 24  1  0
 25 15  1  0
 26 27  2  0
 26 28  1  0
M  END
$$$$
