LMR.pdb
     RDKit          3D

 28 27  0  0  1  0  0  0  0  0999 V2000
    7.5647  -12.2070   18.3089 C   0  0  0  0  0  0  0  0  0  0  0  0
    7.5331  -13.5647   18.9340 C   0  0  1  0  0  0  0  0  0  0  0  0
    7.7832  -14.6583   17.9233 C   0  0  0  0  0  0  0  0  0  0  0  0
    8.4994  -13.7228   20.0705 C   0  0  0  0  0  0  0  0  0  0  0  0
    8.3623  -15.0247   20.8220 C   0  0  2  0  0  0  0  0  0  0  0  0
    6.9572  -15.3607   21.0390 N   0  0  0  0  0  0  0  0  0  0  0  0
    8.9329  -14.7614   22.1878 C   0  0  0  0  0  0  0  0  0  0  0  0
   10.1179  -14.3788   22.3641 O   0  0  0  0  0  0  0  0  0  0  0  0
    6.5229  -12.3558   27.6597 C   0  0  0  0  0  0  0  0  0  0  0  0
    6.1680  -11.7687   25.9868 S   0  0  0  0  0  0  0  0  0  0  0  0
    7.2032  -12.6766   24.8019 C   0  0  0  0  0  0  0  0  0  0  0  0
    7.7571  -13.8813   25.5196 C   0  0  0  0  0  0  0  0  0  0  0  0
    8.6801  -14.7031   24.6381 C   0  0  2  0  0  0  0  0  0  0  0  0
    8.1341  -14.9404   23.3432 N   0  0  0  0  0  0  0  0  0  0  0  0
    8.9654  -15.9606   25.3492 C   0  0  0  0  0  0  0  0  0  0  0  0
    8.0974  -16.8677   25.5291 O   0  0  0  0  0  0  0  0  0  0  0  0
   14.6109  -14.6644   22.9557 N   0  0  0  0  0  0  0  0  0  0  0  0
   13.9805  -15.3687   21.8960 C   0  0  0  0  0  0  0  0  0  0  0  0
   13.8804  -14.8023   20.7636 N   0  0  0  0  0  0  0  0  0  0  0  0
   13.4811  -16.6769   22.1269 N   0  0  0  0  0  0  0  0  0  0  0  0
   13.3876  -17.2342   23.4358 C   0  0  0  0  0  0  0  0  0  0  0  0
   12.0102  -17.1420   24.0520 C   0  0  0  0  0  0  0  0  0  0  0  0
   11.9911  -17.7507   25.4202 C   0  0  0  0  0  0  0  0  0  0  0  0
   10.7220  -17.5508   26.1857 C   0  0  2  0  0  0  0  0  0  0  0  0
   10.2608  -16.1901   25.8641 N   0  0  0  0  0  0  0  0  0  0  0  0
   10.8449  -17.6421   27.6404 C   0  0  0  0  0  0  0  0  0  0  0  0
   11.0749  -18.7355   28.2361 O   0  0  0  0  0  0  0  0  0  0  0  0
   10.7113  -16.5122   28.4218 O   0  0  0  0  0  0  0  0  0  0  0  0
  2  1  1  6
  2  3  1  0
  4  2  1  0
  5  4  1  0
  5  6  1  1
  7  8  2  0
  7  5  1  0
  9 10  1  0
 10 11  1  0
 11 12  1  0
 13 12  1  1
 13 15  1  0
 13 14  1  0
 14  7  1  0
 15 16  2  0
 18 17  1  0
 18 20  1  0
 19 18  2  0
 20 21  1  0
 21 22  1  0
 22 23  1  0
 24 23  1  6
 24 26  1  0
 25 24  1  0
 25 15  1  0
 26 27  2  0
 26 28  1  0
M  END
$$$$
