KNR.pdb
     RDKit          3D

 29 28  0  0  1  0  0  0  0  0999 V2000
    7.8836  -17.4260   16.8848 N   0  0  0  0  0  0  0  0  0  0  0  0
    9.0057  -17.9321   17.6149 C   0  0  1  0  0  0  0  0  0  0  0  0
   10.2238  -18.2167   16.7534 C   0  0  0  0  0  0  0  0  0  0  0  0
    9.8219  -19.2020   15.7125 C   0  0  0  0  0  0  0  0  0  0  0  0
    9.8474  -20.6350   16.1074 C   0  0  0  0  0  0  0  0  0  0  0  0
    9.5034  -21.6247   15.0543 C   0  0  0  0  0  0  0  0  0  0  0  0
   10.3386  -21.6533   13.9033 N   0  0  0  0  0  0  0  0  0  0  0  0
    9.3409  -16.9729   18.6945 C   0  0  0  0  0  0  0  0  0  0  0  0
   10.5500  -16.7777   18.9581 O   0  0  0  0  0  0  0  0  0  0  0  0
    6.5060  -12.9838   19.0726 N   0  0  0  0  0  0  0  0  0  0  0  0
    7.7866  -13.3124   19.6058 C   0  0  0  0  0  0  0  0  0  0  0  0
    8.8436  -12.8293   19.1448 O   0  0  0  0  0  0  0  0  0  0  0  0
    7.8064  -14.2761   20.7595 C   0  0  0  0  0  0  0  0  0  0  0  0
    8.7940  -15.3957   20.4976 C   0  0  2  0  0  0  0  0  0  0  0  0
    8.3703  -16.2648   19.4446 N   0  0  0  0  0  0  0  0  0  0  0  0
    8.9373  -16.1407   21.7965 C   0  0  0  0  0  0  0  0  0  0  0  0
    7.9194  -16.6696   22.2971 O   0  0  0  0  0  0  0  0  0  0  0  0
   16.3906  -19.7550   22.6345 N   0  0  0  0  0  0  0  0  0  0  0  0
   15.3319  -20.0974   21.7523 C   0  0  0  0  0  0  0  0  0  0  0  0
   15.5589  -20.9256   20.8000 N   0  0  0  0  0  0  0  0  0  0  0  0
   14.0246  -19.5473   21.8948 N   0  0  0  0  0  0  0  0  0  0  0  0
   13.6832  -18.6345   22.9658 C   0  0  0  0  0  0  0  0  0  0  0  0
   12.2056  -18.2308   22.7792 C   0  0  0  0  0  0  0  0  0  0  0  0
   11.7514  -17.3828   23.9306 C   0  0  0  0  0  0  0  0  0  0  0  0
   10.3698  -16.9071   23.7501 C   0  0  2  0  0  0  0  0  0  0  0  0
   10.1646  -16.2617   22.4603 N   0  0  0  0  0  0  0  0  0  0  0  0
    9.8862  -16.0768   24.8456 C   0  0  0  0  0  0  0  0  0  0  0  0
    9.6190  -14.8312   24.6326 O   0  0  0  0  0  0  0  0  0  0  0  0
    9.6737  -16.5053   26.1378 O   0  0  0  0  0  0  0  0  0  0  0  0
  2  1  1  6
  2  3  1  0
  3  4  1  0
  4  5  1  0
  6  7  1  0
  6  5  1  0
  8  9  2  0
  8  2  1  0
 11 10  1  0
 11 13  1  0
 12 11  2  0
 14 13  1  1
 14 16  1  0
 14 15  1  0
 15  8  1  0
 16 26  1  0
 17 16  2  0
 19 20  2  0
 19 18  1  0
 21 22  1  0
 21 19  1  0
 22 23  1  0
 23 24  1  0
 25 24  1  1
 25 27  1  0
 26 25  1  0
 27 28  2  0
 27 29  1  0
M  END
$$$$
