KNR.pdb
     RDKit          3D

 29 28  0  0  1  0  0  0  0  0999 V2000
    8.4281  -15.3761   18.8438 N   0  0  0  0  0  0  0  0  0  0  0  0
    8.3497  -14.1017   19.4903 C   0  0  1  0  0  0  0  0  0  0  0  0
    7.3617  -13.1441   18.8471 C   0  0  0  0  0  0  0  0  0  0  0  0
    7.9446  -12.6935   17.5537 C   0  0  0  0  0  0  0  0  0  0  0  0
    7.6555  -13.5368   16.3639 C   0  0  0  0  0  0  0  0  0  0  0  0
    8.2704  -13.1136   15.0794 C   0  0  0  0  0  0  0  0  0  0  0  0
    7.9657  -13.8983   13.9329 N   0  0  0  0  0  0  0  0  0  0  0  0
    8.0175  -14.3143   20.9195 C   0  0  0  0  0  0  0  0  0  0  0  0
    7.1629  -13.5649   21.4461 O   0  0  0  0  0  0  0  0  0  0  0  0
    6.3962  -19.4945   21.4879 N   0  0  0  0  0  0  0  0  0  0  0  0
    6.1409  -18.1489   21.8833 C   0  0  0  0  0  0  0  0  0  0  0  0
    5.2599  -17.8568   22.7210 O   0  0  0  0  0  0  0  0  0  0  0  0
    6.9889  -17.0875   21.2394 C   0  0  0  0  0  0  0  0  0  0  0  0
    7.7920  -16.3431   22.2874 C   0  0  2  0  0  0  0  0  0  0  0  0
    8.6127  -15.3178   21.7227 N   0  0  0  0  0  0  0  0  0  0  0  0
    8.6218  -17.3797   22.9942 C   0  0  0  0  0  0  0  0  0  0  0  0
    8.1053  -18.4933   23.2384 O   0  0  0  0  0  0  0  0  0  0  0  0
   10.0675  -13.5870   29.9273 N   0  0  0  0  0  0  0  0  0  0  0  0
   10.5280  -14.9104   30.1573 C   0  0  0  0  0  0  0  0  0  0  0  0
   11.4134  -15.1125   31.0625 N   0  0  0  0  0  0  0  0  0  0  0  0
   10.0343  -16.0203   29.4114 N   0  0  0  0  0  0  0  0  0  0  0  0
    9.4080  -15.8628   28.1153 C   0  0  0  0  0  0  0  0  0  0  0  0
   10.1494  -16.7856   27.1255 C   0  0  0  0  0  0  0  0  0  0  0  0
    9.7532  -16.4575   25.7161 C   0  0  0  0  0  0  0  0  0  0  0  0
   10.4690  -17.2920   24.7367 C   0  0  2  0  0  0  0  0  0  0  0  0
    9.9454  -17.1418   23.3855 N   0  0  0  0  0  0  0  0  0  0  0  0
   10.5657  -18.6947   25.1191 C   0  0  0  0  0  0  0  0  0  0  0  0
   10.0713  -19.6029   24.3450 O   0  0  0  0  0  0  0  0  0  0  0  0
   11.1584  -19.1692   26.2688 O   0  0  0  0  0  0  0  0  0  0  0  0
  2  1  1  6
  2  3  1  0
  3  4  1  0
  4  5  1  0
  6  7  1  0
  6  5  1  0
  8  9  2  0
  8  2  1  0
 11 10  1  0
 11 13  1  0
 12 11  2  0
 14 13  1  6
 14 16  1  0
 14 15  1  0
 15  8  1  0
 16 26  1  0
 17 16  2  0
 19 20  2  0
 19 18  1  0
 21 22  1  0
 21 19  1  0
 22 23  1  0
 23 24  1  0
 25 24  1  1
 25 27  1  0
 26 25  1  0
 27 28  2  0
 27 29  1  0
M  END
$$$$
