KNR.pdb
     RDKit          3D

 29 28  0  0  1  0  0  0  0  0999 V2000
    8.9388  -18.2750   16.6241 N   0  0  0  0  0  0  0  0  0  0  0  0
    7.9167  -17.8529   17.5327 C   0  0  1  0  0  0  0  0  0  0  0  0
    7.1260  -18.9960   18.1449 C   0  0  0  0  0  0  0  0  0  0  0  0
    8.0977  -20.0350   18.5829 C   0  0  0  0  0  0  0  0  0  0  0  0
    7.5252  -21.2929   19.1308 C   0  0  0  0  0  0  0  0  0  0  0  0
    8.4920  -22.3370   19.5577 C   0  0  0  0  0  0  0  0  0  0  0  0
    7.9508  -23.4995   20.1731 N   0  0  0  0  0  0  0  0  0  0  0  0
    8.5370  -17.0200   18.5909 C   0  0  0  0  0  0  0  0  0  0  0  0
    9.7112  -17.2835   18.9389 O   0  0  0  0  0  0  0  0  0  0  0  0
    6.4980  -12.3511   19.2925 N   0  0  0  0  0  0  0  0  0  0  0  0
    7.7550  -12.9764   19.5399 C   0  0  0  0  0  0  0  0  0  0  0  0
    8.7706  -12.7231   18.8560 O   0  0  0  0  0  0  0  0  0  0  0  0
    7.8025  -13.9639   20.6725 C   0  0  0  0  0  0  0  0  0  0  0  0
    8.5536  -15.2125   20.2554 C   0  0  2  0  0  0  0  0  0  0  0  0
    7.8757  -15.9429   19.2303 N   0  0  0  0  0  0  0  0  0  0  0  0
    8.7146  -16.0407   21.5008 C   0  0  0  0  0  0  0  0  0  0  0  0
    7.7886  -16.8179   21.8250 O   0  0  0  0  0  0  0  0  0  0  0  0
   14.1469  -21.5292   25.3394 N   0  0  0  0  0  0  0  0  0  0  0  0
   13.6287  -21.2688   24.0433 C   0  0  0  0  0  0  0  0  0  0  0  0
   13.5699  -22.2267   23.1928 N   0  0  0  0  0  0  0  0  0  0  0  0
   13.1718  -19.9739   23.6606 N   0  0  0  0  0  0  0  0  0  0  0  0
   13.1416  -18.8607   24.5862 C   0  0  0  0  0  0  0  0  0  0  0  0
   11.6982  -18.3157   24.6110 C   0  0  0  0  0  0  0  0  0  0  0  0
   11.4751  -17.3886   23.4526 C   0  0  0  0  0  0  0  0  0  0  0  0
   10.1253  -16.8008   23.4726 C   0  0  2  0  0  0  0  0  0  0  0  0
    9.8592  -15.9714   22.3049 N   0  0  0  0  0  0  0  0  0  0  0  0
    9.8082  -16.0989   24.7095 C   0  0  0  0  0  0  0  0  0  0  0  0
    9.9138  -16.7165   25.8391 O   0  0  0  0  0  0  0  0  0  0  0  0
    9.3931  -14.7881   24.7992 O   0  0  0  0  0  0  0  0  0  0  0  0
  2  1  1  6
  2  3  1  0
  3  4  1  0
  4  5  1  0
  6  7  1  0
  6  5  1  0
  8  9  2  0
  8  2  1  0
 11 10  1  0
 11 13  1  0
 12 11  2  0
 14 13  1  1
 14 16  1  0
 14 15  1  0
 15  8  1  0
 16 26  1  0
 17 16  2  0
 19 20  2  0
 19 18  1  0
 21 22  1  0
 21 19  1  0
 22 23  1  0
 23 24  1  0
 25 24  1  1
 25 27  1  0
 26 25  1  0
 27 28  2  0
 27 29  1  0
M  END
$$$$
