KNR.pdb
     RDKit          3D

 29 28  0  0  1  0  0  0  0  0999 V2000
    6.3941  -19.1142   12.1449 N   0  0  0  0  0  0  0  0  0  0  0  0
    6.1975  -18.9313   13.5507 C   0  0  1  0  0  0  0  0  0  0  0  0
    4.7390  -18.8180   13.9594 C   0  0  0  0  0  0  0  0  0  0  0  0
    3.9120  -19.3262   12.8310 C   0  0  0  0  0  0  0  0  0  0  0  0
    2.4370  -19.2628   13.0057 C   0  0  0  0  0  0  0  0  0  0  0  0
    1.6083  -19.7721   11.8827 C   0  0  0  0  0  0  0  0  0  0  0  0
    0.1987  -19.6314   12.0103 N   0  0  0  0  0  0  0  0  0  0  0  0
    6.8576  -20.0463   14.2711 C   0  0  0  0  0  0  0  0  0  0  0  0
    6.5541  -21.2190   13.9518 O   0  0  0  0  0  0  0  0  0  0  0  0
   10.2203  -19.4217   18.1972 N   0  0  0  0  0  0  0  0  0  0  0  0
   10.1664  -19.4698   16.7735 C   0  0  0  0  0  0  0  0  0  0  0  0
   10.3312  -18.4521   16.0662 O   0  0  0  0  0  0  0  0  0  0  0  0
    9.8996  -20.8148   16.1568 C   0  0  0  0  0  0  0  0  0  0  0  0
    8.4151  -21.0012   15.9144 C   0  0  2  0  0  0  0  0  0  0  0  0
    7.8125  -19.8594   15.3004 N   0  0  0  0  0  0  0  0  0  0  0  0
    7.8032  -21.2851   17.2589 C   0  0  0  0  0  0  0  0  0  0  0  0
    7.3495  -20.3262   17.9231 O   0  0  0  0  0  0  0  0  0  0  0  0
    7.6693  -26.3085   23.0215 N   0  0  0  0  0  0  0  0  0  0  0  0
    6.2833  -26.6171   23.0392 C   0  0  0  0  0  0  0  0  0  0  0  0
    5.7280  -26.9215   24.1543 N   0  0  0  0  0  0  0  0  0  0  0  0
    5.4918  -26.5980   21.8539 N   0  0  0  0  0  0  0  0  0  0  0  0
    6.0560  -26.3036   20.5531 C   0  0  0  0  0  0  0  0  0  0  0  0
    6.3347  -24.7869   20.4997 C   0  0  0  0  0  0  0  0  0  0  0  0
    6.8156  -24.3968   19.1330 C   0  0  0  0  0  0  0  0  0  0  0  0
    7.0515  -22.9473   19.0275 C   0  0  2  0  0  0  0  0  0  0  0  0
    7.7246  -22.5791   17.7891 N   0  0  0  0  0  0  0  0  0  0  0  0
    7.7195  -22.3745   20.1890 C   0  0  0  0  0  0  0  0  0  0  0  0
    9.0055  -22.2542   20.1909 O   0  0  0  0  0  0  0  0  0  0  0  0
    7.0911  -21.9272   21.3307 O   0  0  0  0  0  0  0  0  0  0  0  0
  2  1  1  6
  2  3  1  0
  3  4  1  0
  4  5  1  0
  6  7  1  0
  6  5  1  0
  8  9  2  0
  8  2  1  0
 11 10  1  0
 11 13  1  0
 12 11  2  0
 14 13  1  1
 14 16  1  0
 14 15  1  0
 15  8  1  0
 16 26  1  0
 17 16  2  0
 19 20  2  0
 19 18  1  0
 21 22  1  0
 21 19  1  0
 22 23  1  0
 23 24  1  0
 25 24  1  1
 25 27  1  0
 26 25  1  0
 27 28  2  0
 27 29  1  0
M  END
$$$$
