KNR.pdb
     RDKit          3D

 29 28  0  0  1  0  0  0  0  0999 V2000
    5.9952  -15.7413   25.1854 N   0  0  0  0  0  0  0  0  0  0  0  0
    6.5192  -14.7117   24.3405 C   0  0  1  0  0  0  0  0  0  0  0  0
    7.1657  -13.5638   25.0962 C   0  0  0  0  0  0  0  0  0  0  0  0
    6.1247  -12.9512   25.9661 C   0  0  0  0  0  0  0  0  0  0  0  0
    6.5345  -11.7610   26.7570 C   0  0  0  0  0  0  0  0  0  0  0  0
    5.4783  -11.1001   27.5661 C   0  0  0  0  0  0  0  0  0  0  0  0
    5.8982  -10.0656   28.4474 N   0  0  0  0  0  0  0  0  0  0  0  0
    7.4813  -15.3209   23.3911 C   0  0  0  0  0  0  0  0  0  0  0  0
    7.9256  -16.4631   23.6505 O   0  0  0  0  0  0  0  0  0  0  0  0
    7.6489  -12.9960   18.9569 N   0  0  0  0  0  0  0  0  0  0  0  0
    7.9774  -14.3420   19.2921 C   0  0  0  0  0  0  0  0  0  0  0  0
    7.2815  -15.3105   18.9165 O   0  0  0  0  0  0  0  0  0  0  0  0
    9.2117  -14.5442   20.1263 C   0  0  0  0  0  0  0  0  0  0  0  0
    8.8835  -15.3407   21.3734 C   0  0  2  0  0  0  0  0  0  0  0  0
    7.9261  -14.6834   22.2071 N   0  0  0  0  0  0  0  0  0  0  0  0
   10.1873  -15.5454   22.0952 C   0  0  0  0  0  0  0  0  0  0  0  0
   10.6896  -14.5761   22.7073 O   0  0  0  0  0  0  0  0  0  0  0  0
   12.8362  -19.5104   28.0411 N   0  0  0  0  0  0  0  0  0  0  0  0
   11.4964  -19.3699   27.5921 C   0  0  0  0  0  0  0  0  0  0  0  0
   10.7133  -18.5664   28.2130 N   0  0  0  0  0  0  0  0  0  0  0  0
   10.9972  -20.0957   26.4714 N   0  0  0  0  0  0  0  0  0  0  0  0
   11.6269  -20.0347   25.1689 C   0  0  0  0  0  0  0  0  0  0  0  0
   11.5779  -18.5663   24.6971 C   0  0  0  0  0  0  0  0  0  0  0  0
   12.1510  -18.4472   23.3156 C   0  0  0  0  0  0  0  0  0  0  0  0
   12.0931  -17.0637   22.8152 C   0  0  2  0  0  0  0  0  0  0  0  0
   10.8537  -16.7772   22.1053 N   0  0  0  0  0  0  0  0  0  0  0  0
   13.2589  -16.6723   22.0335 C   0  0  0  0  0  0  0  0  0  0  0  0
   13.1605  -16.5661   20.7500 O   0  0  0  0  0  0  0  0  0  0  0  0
   14.5057  -16.3895   22.5473 O   0  0  0  0  0  0  0  0  0  0  0  0
  2  1  1  1
  2  3  1  0
  3  4  1  0
  4  5  1  0
  6  7  1  0
  6  5  1  0
  8  9  2  0
  8  2  1  0
 11 10  1  0
 11 13  1  0
 12 11  2  0
 14 13  1  6
 14 16  1  0
 14 15  1  0
 15  8  1  0
 16 26  1  0
 17 16  2  0
 19 20  2  0
 19 18  1  0
 21 22  1  0
 21 19  1  0
 22 23  1  0
 23 24  1  0
 25 24  1  6
 25 27  1  0
 26 25  1  0
 27 28  2  0
 27 29  1  0
M  END
$$$$
