KNR.pdb
     RDKit          3D

 29 28  0  0  1  0  0  0  0  0999 V2000
   10.0027  -14.6963   17.4907 N   0  0  0  0  0  0  0  0  0  0  0  0
    9.0390  -14.0800   18.3507 C   0  0  1  0  0  0  0  0  0  0  0  0
    7.7450  -13.6985   17.6528 C   0  0  0  0  0  0  0  0  0  0  0  0
    7.8428  -14.1520   16.2384 C   0  0  0  0  0  0  0  0  0  0  0  0
    6.8725  -13.5590   15.2809 C   0  0  0  0  0  0  0  0  0  0  0  0
    6.9692  -14.0071   13.8677 C   0  0  0  0  0  0  0  0  0  0  0  0
    6.0772  -13.4013   12.9401 N   0  0  0  0  0  0  0  0  0  0  0  0
    8.7703  -14.9891   19.4906 C   0  0  0  0  0  0  0  0  0  0  0  0
    7.9729  -14.6060   20.3776 O   0  0  0  0  0  0  0  0  0  0  0  0
    7.1757  -18.1580   19.0571 N   0  0  0  0  0  0  0  0  0  0  0  0
    8.1722  -19.0872   19.4765 C   0  0  0  0  0  0  0  0  0  0  0  0
    8.1940  -20.2691   19.0694 O   0  0  0  0  0  0  0  0  0  0  0  0
    9.2055  -18.5740   20.4405 C   0  0  0  0  0  0  0  0  0  0  0  0
    8.9790  -17.1028   20.7261 C   0  0  2  0  0  0  0  0  0  0  0  0
    9.3651  -16.2667   19.6327 N   0  0  0  0  0  0  0  0  0  0  0  0
    9.7762  -16.7882   21.9624 C   0  0  0  0  0  0  0  0  0  0  0  0
   11.0142  -16.6402   21.8531 O   0  0  0  0  0  0  0  0  0  0  0  0
   11.2955  -15.5630   29.2177 N   0  0  0  0  0  0  0  0  0  0  0  0
   10.2531  -14.6666   29.5728 C   0  0  0  0  0  0  0  0  0  0  0  0
   10.3798  -13.9526   30.6304 N   0  0  0  0  0  0  0  0  0  0  0  0
    9.0704  -14.5373   28.7876 N   0  0  0  0  0  0  0  0  0  0  0  0
    9.1000  -14.0685   27.4179 C   0  0  0  0  0  0  0  0  0  0  0  0
    9.8824  -15.1075   26.5877 C   0  0  0  0  0  0  0  0  0  0  0  0
    9.1180  -15.4591   25.3454 C   0  0  0  0  0  0  0  0  0  0  0  0
    9.8862  -16.3533   24.4633 C   0  0  2  0  0  0  0  0  0  0  0  0
    9.1827  -16.6560   23.2241 N   0  0  0  0  0  0  0  0  0  0  0  0
   10.3557  -17.5661   25.1207 C   0  0  0  0  0  0  0  0  0  0  0  0
   11.2336  -17.4817   26.0644 O   0  0  0  0  0  0  0  0  0  0  0  0
    9.9380  -18.8458   24.8268 O   0  0  0  0  0  0  0  0  0  0  0  0
  2  1  1  6
  2  3  1  0
  3  4  1  0
  4  5  1  0
  6  7  1  0
  6  5  1  0
  8  9  2  0
  8  2  1  0
 11 10  1  0
 11 13  1  0
 12 11  2  0
 14 13  1  6
 14 16  1  0
 14 15  1  0
 15  8  1  0
 16 26  1  0
 17 16  2  0
 19 20  2  0
 19 18  1  0
 21 22  1  0
 21 19  1  0
 22 23  1  0
 23 24  1  0
 25 24  1  1
 25 27  1  0
 26 25  1  0
 27 28  2  0
 27 29  1  0
M  END
$$$$
