KNR.pdb
     RDKit          3D

 29 28  0  0  1  0  0  0  0  0999 V2000
   13.4536  -22.4873   18.5505 N   0  0  0  0  0  0  0  0  0  0  0  0
   12.7379  -23.3616   19.4289 C   0  0  1  0  0  0  0  0  0  0  0  0
   12.3861  -24.7036   18.8107 C   0  0  0  0  0  0  0  0  0  0  0  0
   11.8495  -24.4466   17.4462 C   0  0  0  0  0  0  0  0  0  0  0  0
   10.6134  -23.6250   17.3611 C   0  0  0  0  0  0  0  0  0  0  0  0
   10.0041  -23.4717   16.0149 C   0  0  0  0  0  0  0  0  0  0  0  0
    8.8456  -22.6514   15.9246 N   0  0  0  0  0  0  0  0  0  0  0  0
   13.5344  -23.5479   20.6654 C   0  0  0  0  0  0  0  0  0  0  0  0
   13.0118  -24.1725   21.6173 O   0  0  0  0  0  0  0  0  0  0  0  0
   18.6033  -23.8902   23.4271 N   0  0  0  0  0  0  0  0  0  0  0  0
   17.5772  -22.9007   23.4173 C   0  0  0  0  0  0  0  0  0  0  0  0
   17.2435  -22.2772   24.4484 O   0  0  0  0  0  0  0  0  0  0  0  0
   16.9087  -22.6397   22.0961 C   0  0  0  0  0  0  0  0  0  0  0  0
   15.4917  -23.1775   22.1041 C   0  0  2  0  0  0  0  0  0  0  0  0
   14.8535  -23.0590   20.8304 N   0  0  0  0  0  0  0  0  0  0  0  0
   14.7539  -22.3995   23.1593 C   0  0  0  0  0  0  0  0  0  0  0  0
   14.1827  -21.3365   22.8274 O   0  0  0  0  0  0  0  0  0  0  0  0
    8.7673  -24.7183   28.0438 N   0  0  0  0  0  0  0  0  0  0  0  0
    9.4903  -25.5454   27.1441 C   0  0  0  0  0  0  0  0  0  0  0  0
    9.6711  -26.7794   27.4420 N   0  0  0  0  0  0  0  0  0  0  0  0
   10.0205  -25.0437   25.9197 N   0  0  0  0  0  0  0  0  0  0  0  0
    9.9440  -23.6427   25.5613 C   0  0  0  0  0  0  0  0  0  0  0  0
   11.2494  -22.9699   26.0348 C   0  0  0  0  0  0  0  0  0  0  0  0
   12.3686  -23.2878   25.0875 C   0  0  0  0  0  0  0  0  0  0  0  0
   13.5940  -22.5403   25.4155 C   0  0  2  0  0  0  0  0  0  0  0  0
   14.6852  -22.8227   24.4926 N   0  0  0  0  0  0  0  0  0  0  0  0
   14.0169  -22.6845   26.8025 C   0  0  0  0  0  0  0  0  0  0  0  0
   13.1990  -22.3785   27.7543 O   0  0  0  0  0  0  0  0  0  0  0  0
   15.2507  -23.1359   27.2176 O   0  0  0  0  0  0  0  0  0  0  0  0
  2  1  1  6
  2  3  1  0
  3  4  1  0
  4  5  1  0
  6  7  1  0
  6  5  1  0
  8  9  2  0
  8  2  1  0
 11 10  1  0
 11 13  1  0
 12 11  2  0
 14 13  1  6
 14 16  1  0
 14 15  1  0
 15  8  1  0
 16 26  1  0
 17 16  2  0
 19 20  2  0
 19 18  1  0
 21 22  1  0
 21 19  1  0
 22 23  1  0
 23 24  1  0
 25 24  1  6
 25 27  1  0
 26 25  1  0
 27 28  2  0
 27 29  1  0
M  END
$$$$
