KNR.pdb
     RDKit          3D

 29 28  0  0  1  0  0  0  0  0999 V2000
    4.1495  -19.7911   22.4257 N   0  0  0  0  0  0  0  0  0  0  0  0
    4.9137  -19.7075   23.6330 C   0  0  1  0  0  0  0  0  0  0  0  0
    5.7499  -20.9425   23.9198 C   0  0  0  0  0  0  0  0  0  0  0  0
    6.5253  -21.2600   22.6896 C   0  0  0  0  0  0  0  0  0  0  0  0
    7.2876  -22.5363   22.6942 C   0  0  0  0  0  0  0  0  0  0  0  0
    8.1698  -22.7922   21.5266 C   0  0  0  0  0  0  0  0  0  0  0  0
    8.9562  -23.9769   21.5640 N   0  0  0  0  0  0  0  0  0  0  0  0
    5.7701  -18.4989   23.5695 C   0  0  0  0  0  0  0  0  0  0  0  0
    6.0056  -17.9991   22.4452 O   0  0  0  0  0  0  0  0  0  0  0  0
    8.3004  -13.8631   26.7150 N   0  0  0  0  0  0  0  0  0  0  0  0
    7.6637  -14.4729   25.5947 C   0  0  0  0  0  0  0  0  0  0  0  0
    7.6342  -13.9301   24.4687 O   0  0  0  0  0  0  0  0  0  0  0  0
    7.0234  -15.8121   25.8331 C   0  0  0  0  0  0  0  0  0  0  0  0
    7.0286  -16.6357   24.5607 C   0  0  2  0  0  0  0  0  0  0  0  0
    6.3370  -17.8780   24.7094 N   0  0  0  0  0  0  0  0  0  0  0  0
    8.4747  -16.8543   24.2088 C   0  0  0  0  0  0  0  0  0  0  0  0
    9.1728  -17.5654   24.9661 O   0  0  0  0  0  0  0  0  0  0  0  0
    8.5006  -12.7763   18.0409 N   0  0  0  0  0  0  0  0  0  0  0  0
    8.1530  -13.3154   19.3078 C   0  0  0  0  0  0  0  0  0  0  0  0
    6.9763  -13.1049   19.7719 N   0  0  0  0  0  0  0  0  0  0  0  0
    9.0740  -14.0838   20.0780 N   0  0  0  0  0  0  0  0  0  0  0  0
   10.3977  -14.4156   19.5938 C   0  0  0  0  0  0  0  0  0  0  0  0
   11.1355  -15.1569   20.7283 C   0  0  0  0  0  0  0  0  0  0  0  0
   10.4273  -16.4385   21.0555 C   0  0  0  0  0  0  0  0  0  0  0  0
   10.3531  -16.6689   22.5078 C   0  0  2  0  0  0  0  0  0  0  0  0
    9.0624  -16.2921   23.0685 N   0  0  0  0  0  0  0  0  0  0  0  0
   11.4539  -16.0737   23.2543 C   0  0  0  0  0  0  0  0  0  0  0  0
   12.6713  -16.3774   22.9473 O   0  0  0  0  0  0  0  0  0  0  0  0
   11.3214  -15.1806   24.2951 O   0  0  0  0  0  0  0  0  0  0  0  0
  2  1  1  6
  2  3  1  0
  3  4  1  0
  4  5  1  0
  6  7  1  0
  6  5  1  0
  8  9  2  0
  8  2  1  0
 11 10  1  0
 11 13  1  0
 12 11  2  0
 14 13  1  1
 14 16  1  0
 14 15  1  0
 15  8  1  0
 16 26  1  0
 17 16  2  0
 19 20  2  0
 19 18  1  0
 21 22  1  0
 21 19  1  0
 22 23  1  0
 23 24  1  0
 25 24  1  6
 25 27  1  0
 26 25  1  0
 27 28  2  0
 27 29  1  0
M  END
$$$$
