KNR.pdb
     RDKit          3D

 29 28  0  0  1  0  0  0  0  0999 V2000
    9.9829  -18.5364   13.9914 N   0  0  0  0  0  0  0  0  0  0  0  0
    9.1469  -17.7414   14.8384 C   0  0  1  0  0  0  0  0  0  0  0  0
    7.7632  -17.4805   14.2691 C   0  0  0  0  0  0  0  0  0  0  0  0
    7.3137  -18.7233   13.5844 C   0  0  0  0  0  0  0  0  0  0  0  0
    5.9920  -18.6685   12.9060 C   0  0  0  0  0  0  0  0  0  0  0  0
    5.4942  -19.9345   12.3087 C   0  0  0  0  0  0  0  0  0  0  0  0
    4.1871  -19.9092   11.7485 N   0  0  0  0  0  0  0  0  0  0  0  0
    9.0520  -18.3992   16.1637 C   0  0  0  0  0  0  0  0  0  0  0  0
    8.0571  -18.1439   16.8809 O   0  0  0  0  0  0  0  0  0  0  0  0
    9.2345  -23.0187   19.1868 N   0  0  0  0  0  0  0  0  0  0  0  0
   10.1863  -21.9647   19.3107 C   0  0  0  0  0  0  0  0  0  0  0  0
   10.6845  -21.6435   20.4116 O   0  0  0  0  0  0  0  0  0  0  0  0
   10.5664  -21.2507   18.0434 C   0  0  0  0  0  0  0  0  0  0  0  0
    9.7983  -19.9502   17.9173 C   0  0  2  0  0  0  0  0  0  0  0  0
   10.0236  -19.3001   16.6641 N   0  0  0  0  0  0  0  0  0  0  0  0
   10.2420  -19.0881   19.0674 C   0  0  0  0  0  0  0  0  0  0  0  0
   11.3968  -18.6061   19.0416 O   0  0  0  0  0  0  0  0  0  0  0  0
    8.8662  -12.5881   20.9310 N   0  0  0  0  0  0  0  0  0  0  0  0
    7.9281  -12.7985   19.8860 C   0  0  0  0  0  0  0  0  0  0  0  0
    7.7842  -11.8946   18.9879 N   0  0  0  0  0  0  0  0  0  0  0  0
    7.1422  -13.9851   19.8064 N   0  0  0  0  0  0  0  0  0  0  0  0
    7.2055  -15.0226   20.8147 C   0  0  0  0  0  0  0  0  0  0  0  0
    8.4864  -15.8436   20.5571 C   0  0  0  0  0  0  0  0  0  0  0  0
    8.5798  -16.9774   21.5354 C   0  0  0  0  0  0  0  0  0  0  0  0
    9.7105  -17.8707   21.2334 C   0  0  2  0  0  0  0  0  0  0  0  0
    9.4109  -18.8084   20.1594 N   0  0  0  0  0  0  0  0  0  0  0  0
   10.2493  -18.5528   22.4029 C   0  0  0  0  0  0  0  0  0  0  0  0
    9.7395  -19.6794   22.7761 O   0  0  0  0  0  0  0  0  0  0  0  0
   11.2927  -18.0997   23.1805 O   0  0  0  0  0  0  0  0  0  0  0  0
  2  1  1  6
  2  3  1  0
  3  4  1  0
  4  5  1  0
  6  7  1  0
  6  5  1  0
  8  9  2  0
  8  2  1  0
 11 10  1  0
 11 13  1  0
 12 11  2  0
 14 13  1  6
 14 16  1  0
 14 15  1  0
 15  8  1  0
 16 26  1  0
 17 16  2  0
 19 20  2  0
 19 18  1  0
 21 22  1  0
 21 19  1  0
 22 23  1  0
 23 24  1  0
 25 24  1  1
 25 27  1  0
 26 25  1  0
 27 28  2  0
 27 29  1  0
M  END
$$$$
