KNR.pdb
     RDKit          3D

 29 28  0  0  1  0  0  0  0  0999 V2000
    8.4855  -16.7307   21.2280 N   0  0  0  0  0  0  0  0  0  0  0  0
    9.6444  -16.9093   22.0487 C   0  0  1  0  0  0  0  0  0  0  0  0
   10.9576  -16.7886   21.2952 C   0  0  0  0  0  0  0  0  0  0  0  0
   10.6745  -17.0193   19.8522 C   0  0  0  0  0  0  0  0  0  0  0  0
   11.2054  -18.2766   19.2626 C   0  0  0  0  0  0  0  0  0  0  0  0
   11.0287  -18.4549   17.7984 C   0  0  0  0  0  0  0  0  0  0  0  0
   11.4052  -19.7145   17.2554 N   0  0  0  0  0  0  0  0  0  0  0  0
    9.5900  -15.9349   23.1648 C   0  0  0  0  0  0  0  0  0  0  0  0
   10.6457  -15.7001   23.7971 O   0  0  0  0  0  0  0  0  0  0  0  0
    6.1529  -11.9466   26.4246 N   0  0  0  0  0  0  0  0  0  0  0  0
    7.3456  -12.5966   25.9918 C   0  0  0  0  0  0  0  0  0  0  0  0
    8.4484  -12.4039   26.5485 O   0  0  0  0  0  0  0  0  0  0  0  0
    7.2136  -13.5336   24.8235 C   0  0  0  0  0  0  0  0  0  0  0  0
    8.4304  -14.4320   24.7251 C   0  0  2  0  0  0  0  0  0  0  0  0
    8.4109  -15.2546   23.5560 N   0  0  0  0  0  0  0  0  0  0  0  0
    8.4398  -15.2640   25.9783 C   0  0  0  0  0  0  0  0  0  0  0  0
    7.3784  -15.8268   26.3294 O   0  0  0  0  0  0  0  0  0  0  0  0
   12.3753  -18.6327   31.4122 N   0  0  0  0  0  0  0  0  0  0  0  0
   12.1128  -19.9904   31.0899 C   0  0  0  0  0  0  0  0  0  0  0  0
   12.6996  -20.9134   31.7594 N   0  0  0  0  0  0  0  0  0  0  0  0
   11.2160  -20.3569   30.0442 N   0  0  0  0  0  0  0  0  0  0  0  0
   11.1627  -19.6416   28.7863 C   0  0  0  0  0  0  0  0  0  0  0  0
   10.4973  -18.2757   29.0560 C   0  0  0  0  0  0  0  0  0  0  0  0
   10.3382  -17.5151   27.7726 C   0  0  0  0  0  0  0  0  0  0  0  0
    9.6767  -16.2166   27.9828 C   0  0  2  0  0  0  0  0  0  0  0  0
    9.5898  -15.4289   26.7605 N   0  0  0  0  0  0  0  0  0  0  0  0
   10.2409  -15.4404   29.0794 C   0  0  0  0  0  0  0  0  0  0  0  0
   10.9138  -14.3682   28.8224 O   0  0  0  0  0  0  0  0  0  0  0  0
   10.1211  -15.7459   30.4176 O   0  0  0  0  0  0  0  0  0  0  0  0
  2  1  1  6
  2  3  1  0
  3  4  1  0
  4  5  1  0
  6  7  1  0
  6  5  1  0
  8  9  2  0
  8  2  1  0
 11 10  1  0
 11 13  1  0
 12 11  2  0
 14 13  1  1
 14 16  1  0
 14 15  1  0
 15  8  1  0
 16 26  1  0
 17 16  2  0
 19 20  2  0
 19 18  1  0
 21 22  1  0
 21 19  1  0
 22 23  1  0
 23 24  1  0
 25 24  1  6
 25 27  1  0
 26 25  1  0
 27 28  2  0
 27 29  1  0
M  END
$$$$
