KNR.pdb
     RDKit          3D

 29 28  0  0  1  0  0  0  0  0999 V2000
   11.1071  -18.0865   17.0477 N   0  0  0  0  0  0  0  0  0  0  0  0
    9.8846  -17.5899   17.6019 C   0  0  1  0  0  0  0  0  0  0  0  0
    8.6422  -18.0309   16.8478 C   0  0  0  0  0  0  0  0  0  0  0  0
    8.9505  -19.3285   16.1868 C   0  0  0  0  0  0  0  0  0  0  0  0
    7.9106  -19.8750   15.2759 C   0  0  0  0  0  0  0  0  0  0  0  0
    8.2343  -21.1460   14.5780 C   0  0  0  0  0  0  0  0  0  0  0  0
    7.2464  -21.6625   13.6945 N   0  0  0  0  0  0  0  0  0  0  0  0
    9.8069  -18.0011   19.0242 C   0  0  0  0  0  0  0  0  0  0  0  0
    8.7672  -17.7218   19.6648 O   0  0  0  0  0  0  0  0  0  0  0  0
   10.7193  -21.1956   19.4472 N   0  0  0  0  0  0  0  0  0  0  0  0
   11.6277  -21.2910   20.5417 C   0  0  0  0  0  0  0  0  0  0  0  0
   12.3813  -22.2764   20.6976 O   0  0  0  0  0  0  0  0  0  0  0  0
   11.6370  -20.1399   21.5089 C   0  0  0  0  0  0  0  0  0  0  0  0
   10.6607  -19.0683   21.0662 C   0  0  2  0  0  0  0  0  0  0  0  0
   10.8428  -18.6922   19.6991 N   0  0  0  0  0  0  0  0  0  0  0  0
   10.8755  -17.8990   21.9878 C   0  0  0  0  0  0  0  0  0  0  0  0
   12.0233  -17.4069   22.0706 O   0  0  0  0  0  0  0  0  0  0  0  0
    7.4985  -12.0010   21.3361 N   0  0  0  0  0  0  0  0  0  0  0  0
    7.9467  -12.7336   20.2053 C   0  0  0  0  0  0  0  0  0  0  0  0
    8.4120  -12.0955   19.1951 N   0  0  0  0  0  0  0  0  0  0  0  0
    7.8947  -14.1575   20.1610 N   0  0  0  0  0  0  0  0  0  0  0  0
    7.7873  -14.9642   21.3587 C   0  0  0  0  0  0  0  0  0  0  0  0
    8.8606  -14.4689   22.3505 C   0  0  0  0  0  0  0  0  0  0  0  0
    8.8311  -15.2972   23.6012 C   0  0  0  0  0  0  0  0  0  0  0  0
    9.9726  -16.2245   23.6721 C   0  0  2  0  0  0  0  0  0  0  0  0
    9.8400  -17.3459   22.7516 N   0  0  0  0  0  0  0  0  0  0  0  0
   10.2800  -16.6760   25.0230 C   0  0  0  0  0  0  0  0  0  0  0  0
   10.0716  -17.9089   25.3469 O   0  0  0  0  0  0  0  0  0  0  0  0
   10.7947  -15.8885   26.0297 O   0  0  0  0  0  0  0  0  0  0  0  0
  2  1  1  6
  2  3  1  0
  3  4  1  0
  4  5  1  0
  6  7  1  0
  6  5  1  0
  8  9  2  0
  8  2  1  0
 11 10  1  0
 11 13  1  0
 12 11  2  0
 14 13  1  1
 14 16  1  0
 14 15  1  0
 15  8  1  0
 16 26  1  0
 17 16  2  0
 19 20  2  0
 19 18  1  0
 21 22  1  0
 21 19  1  0
 22 23  1  0
 23 24  1  0
 25 24  1  1
 25 27  1  0
 26 25  1  0
 27 28  2  0
 27 29  1  0
M  END
$$$$
