KNR.pdb
     RDKit          3D

 29 28  0  0  1  0  0  0  0  0999 V2000
    4.4321  -22.7947   23.8290 N   0  0  0  0  0  0  0  0  0  0  0  0
    5.1754  -21.7806   23.1453 C   0  0  1  0  0  0  0  0  0  0  0  0
    4.4547  -21.1919   21.9449 C   0  0  0  0  0  0  0  0  0  0  0  0
    5.2527  -21.5204   20.7321 C   0  0  0  0  0  0  0  0  0  0  0  0
    6.1464  -20.4513   20.2139 C   0  0  0  0  0  0  0  0  0  0  0  0
    6.8687  -20.7392   18.9480 C   0  0  0  0  0  0  0  0  0  0  0  0
    7.6696  -19.6921   18.4138 N   0  0  0  0  0  0  0  0  0  0  0  0
    5.5305  -20.7172   24.1155 C   0  0  0  0  0  0  0  0  0  0  0  0
    4.8514  -19.6645   24.1144 O   0  0  0  0  0  0  0  0  0  0  0  0
    7.1788  -17.9313   28.2862 N   0  0  0  0  0  0  0  0  0  0  0  0
    8.0676  -18.9987   27.9654 C   0  0  0  0  0  0  0  0  0  0  0  0
    9.2796  -18.9707   28.2714 O   0  0  0  0  0  0  0  0  0  0  0  0
    7.4734  -20.1708   27.2350 C   0  0  0  0  0  0  0  0  0  0  0  0
    6.8838  -19.7264   25.9113 C   0  0  2  0  0  0  0  0  0  0  0  0
    6.5949  -20.8253   25.0437 N   0  0  0  0  0  0  0  0  0  0  0  0
    7.8911  -18.7943   25.2955 C   0  0  0  0  0  0  0  0  0  0  0  0
    8.9944  -19.2617   24.9340 O   0  0  0  0  0  0  0  0  0  0  0  0
    6.6674  -12.5101   19.3762 N   0  0  0  0  0  0  0  0  0  0  0  0
    8.0478  -12.7635   19.5919 C   0  0  0  0  0  0  0  0  0  0  0  0
    8.8920  -12.4182   18.6905 N   0  0  0  0  0  0  0  0  0  0  0  0
    8.5221  -13.3903   20.7811 N   0  0  0  0  0  0  0  0  0  0  0  0
    7.6254  -13.9727   21.7577 C   0  0  0  0  0  0  0  0  0  0  0  0
    8.4846  -14.4717   22.9383 C   0  0  0  0  0  0  0  0  0  0  0  0
    7.6685  -15.3554   23.8351 C   0  0  0  0  0  0  0  0  0  0  0  0
    8.4382  -16.5183   24.3073 C   0  0  2  0  0  0  0  0  0  0  0  0
    7.6369  -17.4290   25.1141 N   0  0  0  0  0  0  0  0  0  0  0  0
    9.6834  -16.1663   24.9772 C   0  0  0  0  0  0  0  0  0  0  0  0
    9.7207  -16.1106   26.2671 O   0  0  0  0  0  0  0  0  0  0  0  0
   10.8745  -15.8781   24.3473 O   0  0  0  0  0  0  0  0  0  0  0  0
  2  1  1  1
  2  3  1  0
  3  4  1  0
  4  5  1  0
  6  7  1  0
  6  5  1  0
  8  9  2  0
  8  2  1  0
 11 10  1  0
 11 13  1  0
 12 11  2  0
 14 13  1  1
 14 16  1  0
 14 15  1  0
 15  8  1  0
 16 26  1  0
 17 16  2  0
 19 20  2  0
 19 18  1  0
 21 22  1  0
 21 19  1  0
 22 23  1  0
 23 24  1  0
 25 24  1  1
 25 27  1  0
 26 25  1  0
 27 28  2  0
 27 29  1  0
M  END
$$$$
