KNR.pdb
     RDKit          3D

 29 28  0  0  1  0  0  0  0  0999 V2000
   12.3756  -16.2773   15.0846 N   0  0  0  0  0  0  0  0  0  0  0  0
   13.0790  -17.5230   15.0405 C   0  0  1  0  0  0  0  0  0  0  0  0
   13.0926  -18.1748   13.6687 C   0  0  0  0  0  0  0  0  0  0  0  0
   13.1399  -17.0887   12.6520 C   0  0  0  0  0  0  0  0  0  0  0  0
   12.5996  -17.4135   11.3056 C   0  0  0  0  0  0  0  0  0  0  0  0
   12.7272  -16.3630   10.2629 C   0  0  0  0  0  0  0  0  0  0  0  0
   12.1986  -16.6669    8.9778 N   0  0  0  0  0  0  0  0  0  0  0  0
   14.4613  -17.3049   15.5300 C   0  0  0  0  0  0  0  0  0  0  0  0
   15.2519  -18.2766   15.5222 O   0  0  0  0  0  0  0  0  0  0  0  0
   18.3569  -15.5391   14.3510 N   0  0  0  0  0  0  0  0  0  0  0  0
   17.4010  -14.5452   14.7126 C   0  0  0  0  0  0  0  0  0  0  0  0
   17.0007  -13.6806   13.9030 O   0  0  0  0  0  0  0  0  0  0  0  0
   16.8920  -14.5861   16.1266 C   0  0  0  0  0  0  0  0  0  0  0  0
   16.2965  -15.9451   16.4361 C   0  0  2  0  0  0  0  0  0  0  0  0
   14.9379  -16.0589   16.0059 N   0  0  0  0  0  0  0  0  0  0  0  0
   16.4151  -16.1257   17.9248 C   0  0  0  0  0  0  0  0  0  0  0  0
   15.4992  -15.6842   18.6547 O   0  0  0  0  0  0  0  0  0  0  0  0
   16.6198  -21.6385   23.6223 N   0  0  0  0  0  0  0  0  0  0  0  0
   16.7568  -22.1037   22.2877 C   0  0  0  0  0  0  0  0  0  0  0  0
   17.5095  -23.1156   22.0559 N   0  0  0  0  0  0  0  0  0  0  0  0
   16.0819  -21.4786   21.1988 N   0  0  0  0  0  0  0  0  0  0  0  0
   15.3925  -20.2132   21.3413 C   0  0  0  0  0  0  0  0  0  0  0  0
   16.4555  -19.0960   21.2875 C   0  0  0  0  0  0  0  0  0  0  0  0
   16.4654  -18.4559   19.9306 C   0  0  0  0  0  0  0  0  0  0  0  0
   17.5051  -17.4192   19.8207 C   0  0  2  0  0  0  0  0  0  0  0  0
   17.5095  -16.7677   18.5177 N   0  0  0  0  0  0  0  0  0  0  0  0
   18.8366  -17.8806   20.1915 C   0  0  0  0  0  0  0  0  0  0  0  0
   19.7154  -18.1006   19.2707 O   0  0  0  0  0  0  0  0  0  0  0  0
   19.2711  -18.1122   21.4783 O   0  0  0  0  0  0  0  0  0  0  0  0
  2  1  1  6
  2  3  1  0
  3  4  1  0
  4  5  1  0
  6  7  1  0
  6  5  1  0
  8  9  2  0
  8  2  1  0
 11 10  1  0
 11 13  1  0
 12 11  2  0
 14 13  1  1
 14 16  1  0
 14 15  1  0
 15  8  1  0
 16 26  1  0
 17 16  2  0
 19 20  2  0
 19 18  1  0
 21 22  1  0
 21 19  1  0
 22 23  1  0
 23 24  1  0
 25 24  1  6
 25 27  1  0
 26 25  1  0
 27 28  2  0
 27 29  1  0
M  END
$$$$
