KNR.pdb
     RDKit          3D

 29 28  0  0  1  0  0  0  0  0999 V2000
    7.7385  -12.4441   18.8540 N   0  0  0  0  0  0  0  0  0  0  0  0
    7.4690  -13.8469   18.9419 C   0  0  1  0  0  0  0  0  0  0  0  0
    8.2481  -14.6878   17.9455 C   0  0  0  0  0  0  0  0  0  0  0  0
    7.7216  -14.3834   16.5869 C   0  0  0  0  0  0  0  0  0  0  0  0
    8.0800  -15.3380   15.5051 C   0  0  0  0  0  0  0  0  0  0  0  0
    7.4751  -15.0934   14.1704 C   0  0  0  0  0  0  0  0  0  0  0  0
    7.8867  -15.9506   13.1125 N   0  0  0  0  0  0  0  0  0  0  0  0
    7.7384  -14.2958   20.3290 C   0  0  0  0  0  0  0  0  0  0  0  0
    8.6659  -13.7395   20.9612 O   0  0  0  0  0  0  0  0  0  0  0  0
    7.1099  -16.0328   25.2030 N   0  0  0  0  0  0  0  0  0  0  0  0
    6.8404  -17.0949   24.2911 C   0  0  0  0  0  0  0  0  0  0  0  0
    6.9632  -18.2966   24.6136 O   0  0  0  0  0  0  0  0  0  0  0  0
    6.3973  -16.6982   22.9103 C   0  0  0  0  0  0  0  0  0  0  0  0
    7.3812  -15.7208   22.2986 C   0  0  2  0  0  0  0  0  0  0  0  0
    7.0056  -15.3188   20.9792 N   0  0  0  0  0  0  0  0  0  0  0  0
    8.7162  -16.4142   22.2993 C   0  0  0  0  0  0  0  0  0  0  0  0
    8.8273  -17.4963   21.6803 O   0  0  0  0  0  0  0  0  0  0  0  0
   16.5288  -13.8295   19.6153 N   0  0  0  0  0  0  0  0  0  0  0  0
   16.7024  -15.0737   20.2773 C   0  0  0  0  0  0  0  0  0  0  0  0
   17.8399  -15.6617   20.2083 N   0  0  0  0  0  0  0  0  0  0  0  0
   15.6493  -15.6875   21.0162 N   0  0  0  0  0  0  0  0  0  0  0  0
   14.3432  -15.0770   21.1521 C   0  0  0  0  0  0  0  0  0  0  0  0
   13.4756  -16.0212   22.0104 C   0  0  0  0  0  0  0  0  0  0  0  0
   12.0868  -15.4695   22.1440 C   0  0  0  0  0  0  0  0  0  0  0  0
   11.1945  -16.3971   22.8590 C   0  0  2  0  0  0  0  0  0  0  0  0
    9.8322  -15.8921   22.9653 N   0  0  0  0  0  0  0  0  0  0  0  0
   11.7077  -16.8256   24.1537 C   0  0  0  0  0  0  0  0  0  0  0  0
   12.8513  -17.4222   24.2214 O   0  0  0  0  0  0  0  0  0  0  0  0
   11.0711  -16.6482   25.3627 O   0  0  0  0  0  0  0  0  0  0  0  0
  2  1  1  1
  2  3  1  0
  3  4  1  0
  4  5  1  0
  6  7  1  0
  6  5  1  0
  8  9  2  0
  8  2  1  0
 11 10  1  0
 11 13  1  0
 12 11  2  0
 14 13  1  6
 14 16  1  0
 14 15  1  0
 15  8  1  0
 16 26  1  0
 17 16  2  0
 19 20  2  0
 19 18  1  0
 21 22  1  0
 21 19  1  0
 22 23  1  0
 23 24  1  0
 25 24  1  1
 25 27  1  0
 26 25  1  0
 27 28  2  0
 27 29  1  0
M  END
$$$$
