KNR.pdb
     RDKit          3D

 29 28  0  0  1  0  0  0  0  0999 V2000
    8.1178  -15.6336   18.9868 N   0  0  0  0  0  0  0  0  0  0  0  0
    8.5217  -14.3079   19.3444 C   0  0  1  0  0  0  0  0  0  0  0  0
    7.8303  -13.2165   18.5460 C   0  0  0  0  0  0  0  0  0  0  0  0
    7.4617  -13.7886   17.2221 C   0  0  0  0  0  0  0  0  0  0  0  0
    8.3232  -13.4110   16.0709 C   0  0  0  0  0  0  0  0  0  0  0  0
    7.9117  -13.9139   14.7349 C   0  0  0  0  0  0  0  0  0  0  0  0
    8.7140  -13.5232   13.6273 N   0  0  0  0  0  0  0  0  0  0  0  0
    8.2935  -14.1180   20.7970 C   0  0  0  0  0  0  0  0  0  0  0  0
    8.7405  -13.0789   21.3352 O   0  0  0  0  0  0  0  0  0  0  0  0
    6.1815  -13.8536   25.6147 N   0  0  0  0  0  0  0  0  0  0  0  0
    6.3592  -15.1926   25.1590 C   0  0  0  0  0  0  0  0  0  0  0  0
    6.5360  -16.1464   25.9478 O   0  0  0  0  0  0  0  0  0  0  0  0
    6.3235  -15.4058   23.6712 C   0  0  0  0  0  0  0  0  0  0  0  0
    7.5849  -14.8649   23.0281 C   0  0  2  0  0  0  0  0  0  0  0  0
    7.5980  -15.0461   21.6101 N   0  0  0  0  0  0  0  0  0  0  0  0
    8.7314  -15.5867   23.6818 C   0  0  0  0  0  0  0  0  0  0  0  0
    9.0076  -16.7441   23.2936 O   0  0  0  0  0  0  0  0  0  0  0  0
   11.5030  -14.2423   32.0188 N   0  0  0  0  0  0  0  0  0  0  0  0
   11.5577  -15.5888   31.5711 C   0  0  0  0  0  0  0  0  0  0  0  0
   11.9758  -16.4954   32.3757 N   0  0  0  0  0  0  0  0  0  0  0  0
   11.1613  -15.9614   30.2535 N   0  0  0  0  0  0  0  0  0  0  0  0
   11.2725  -15.0566   29.1284 C   0  0  0  0  0  0  0  0  0  0  0  0
   10.8161  -15.8226   27.8690 C   0  0  0  0  0  0  0  0  0  0  0  0
   10.9538  -14.9515   26.6552 C   0  0  0  0  0  0  0  0  0  0  0  0
   10.5805  -15.6651   25.4227 C   0  0  2  0  0  0  0  0  0  0  0  0
    9.4956  -15.0101   24.7041 N   0  0  0  0  0  0  0  0  0  0  0  0
   10.3087  -17.0825   25.6236 C   0  0  0  0  0  0  0  0  0  0  0  0
    9.1207  -17.4635   25.9583 O   0  0  0  0  0  0  0  0  0  0  0  0
   11.2283  -18.0989   25.4837 O   0  0  0  0  0  0  0  0  0  0  0  0
  2  1  1  6
  2  3  1  0
  3  4  1  0
  4  5  1  0
  6  7  1  0
  6  5  1  0
  8  9  2  0
  8  2  1  0
 11 10  1  0
 11 13  1  0
 12 11  2  0
 14 13  1  1
 14 16  1  0
 14 15  1  0
 15  8  1  0
 16 26  1  0
 17 16  2  0
 19 20  2  0
 19 18  1  0
 21 22  1  0
 21 19  1  0
 22 23  1  0
 23 24  1  0
 25 24  1  1
 25 27  1  0
 26 25  1  0
 27 28  2  0
 27 29  1  0
M  END
$$$$
