QMF.pdb
     RDKit          3D

 29 29  0  0  1  0  0  0  0  0999 V2000
    9.8240  -15.2204   18.4278 N   0  0  0  0  0  0  0  0  0  0  0  0
    8.4434  -15.5377   18.4040 C   0  0  0  0  0  0  0  0  0  0  0  0
    7.7745  -15.4758   17.3427 O   0  0  0  0  0  0  0  0  0  0  0  0
    7.7601  -15.9511   19.6394 C   0  0  0  0  0  0  0  0  0  0  0  0
    8.6932  -15.8282   20.8529 C   0  0  0  0  0  0  0  0  0  0  0  0
    9.2279  -17.2248   21.0916 C   0  0  2  0  0  0  0  0  0  0  0  0
    8.3446  -18.1323   20.3836 N   0  0  0  0  0  0  0  0  0  0  0  0
    9.2716  -17.6016   22.4983 C   0  0  0  0  0  0  0  0  0  0  0  0
    8.2953  -18.1803   23.0268 O   0  0  0  0  0  0  0  0  0  0  0  0
   14.1042  -20.3501   27.8840 C   0  0  0  0  0  0  0  0  0  0  0  0
   13.8829  -19.5708   26.2655 S   0  0  0  0  0  0  0  0  0  0  0  0
   12.1932  -18.9411   26.1729 C   0  0  0  0  0  0  0  0  0  0  0  0
   11.9025  -18.3851   24.8214 C   0  0  0  0  0  0  0  0  0  0  0  0
   10.5668  -17.7380   24.6751 C   0  0  2  0  0  0  0  0  0  0  0  0
   10.4133  -17.3194   23.2820 N   0  0  0  0  0  0  0  0  0  0  0  0
   10.3923  -16.5439   25.5578 C   0  0  0  0  0  0  0  0  0  0  0  0
   10.9027  -15.4466   25.2178 O   0  0  0  0  0  0  0  0  0  0  0  0
    9.6697  -16.6347   26.7544 N   0  0  0  0  0  0  0  0  0  0  0  0
    9.7758  -15.5933   27.7391 C   0  0  1  0  0  0  0  0  0  0  0  0
    8.4023  -14.9691   28.0239 C   0  0  0  0  0  0  0  0  0  0  0  0
    7.9499  -14.1668   26.8685 C   0  0  0  0  0  0  0  0  0  0  0  0
    7.2887  -14.7320   25.8037 C   0  0  0  0  0  0  0  0  0  0  0  0
    6.9108  -13.8921   24.7690 C   0  0  0  0  0  0  0  0  0  0  0  0
    7.1666  -12.5507   24.7701 C   0  0  0  0  0  0  0  0  0  0  0  0
    7.8347  -12.0216   25.8618 C   0  0  0  0  0  0  0  0  0  0  0  0
    8.2283  -12.8026   26.9047 C   0  0  0  0  0  0  0  0  0  0  0  0
   10.3350  -16.0480   29.0222 C   0  0  0  0  0  0  0  0  0  0  0  0
   10.5954  -15.1067   30.0014 O   0  0  0  0  0  0  0  0  0  0  0  0
   10.5887  -17.2495   29.2732 O   0  0  0  0  0  0  0  0  0  0  0  0
  2  1  1  0
  2  3  2  0
  4  2  1  0
  5  6  1  0
  5  4  1  0
  6  8  1  0
  6  7  1  6
  8  9  2  0
  8 15  1  0
 11 10  1  0
 12 11  1  0
 14 13  1  6
 13 12  1  0
 14 16  1  0
 15 14  1  0
 16 17  2  0
 18 16  1  0
 18 19  1  0
 19 27  1  0
 19 20  1  1
 21 20  1  0
 22 21  2  0
 23 22  1  0
 24 25  1  0
 24 23  2  0
 25 26  2  0
 26 21  1  0
 27 28  1  0
 29 27  2  0
M  END
$$$$
