QMF.pdb
     RDKit          3D

 29 29  0  0  1  0  0  0  0  0999 V2000
    6.4547  -13.6201   19.4175 N   0  0  0  0  0  0  0  0  0  0  0  0
    7.7470  -13.1030   19.1539 C   0  0  0  0  0  0  0  0  0  0  0  0
    7.9069  -11.9678   18.6406 O   0  0  0  0  0  0  0  0  0  0  0  0
    8.9407  -13.8980   19.4814 C   0  0  0  0  0  0  0  0  0  0  0  0
    8.6179  -15.3993   19.4890 C   0  0  0  0  0  0  0  0  0  0  0  0
    9.6429  -16.0260   20.4109 C   0  0  2  0  0  0  0  0  0  0  0  0
    9.4712  -17.4628   20.3040 N   0  0  0  0  0  0  0  0  0  0  0  0
    9.4948  -15.6300   21.8051 C   0  0  0  0  0  0  0  0  0  0  0  0
    9.7492  -14.4560   22.1577 O   0  0  0  0  0  0  0  0  0  0  0  0
    6.0324  -12.6659   25.4601 C   0  0  0  0  0  0  0  0  0  0  0  0
    7.2862  -13.9704   25.4156 S   0  0  0  0  0  0  0  0  0  0  0  0
    6.5790  -15.3988   24.5674 C   0  0  0  0  0  0  0  0  0  0  0  0
    7.5154  -16.5575   24.5984 C   0  0  0  0  0  0  0  0  0  0  0  0
    8.9184  -16.2508   24.1961 C   0  0  2  0  0  0  0  0  0  0  0  0
    9.0636  -16.5635   22.7746 N   0  0  0  0  0  0  0  0  0  0  0  0
    9.9347  -17.0312   24.9664 C   0  0  0  0  0  0  0  0  0  0  0  0
   10.6409  -17.8820   24.3683 O   0  0  0  0  0  0  0  0  0  0  0  0
   10.1073  -16.8256   26.3413 N   0  0  0  0  0  0  0  0  0  0  0  0
   11.0287  -17.6442   27.0804 C   0  0  1  0  0  0  0  0  0  0  0  0
   11.4405  -16.9568   28.3901 C   0  0  0  0  0  0  0  0  0  0  0  0
   11.0334  -15.5364   28.3780 C   0  0  0  0  0  0  0  0  0  0  0  0
    9.7608  -15.1407   28.7162 C   0  0  0  0  0  0  0  0  0  0  0  0
    9.4806  -13.7850   28.6688 C   0  0  0  0  0  0  0  0  0  0  0  0
   10.4050  -12.8478   28.3055 C   0  0  0  0  0  0  0  0  0  0  0  0
   11.6750  -13.2886   27.9725 C   0  0  0  0  0  0  0  0  0  0  0  0
   12.0026  -14.6093   28.0025 C   0  0  0  0  0  0  0  0  0  0  0  0
   10.4963  -18.9732   27.4213 C   0  0  0  0  0  0  0  0  0  0  0  0
   11.3461  -19.8981   28.0000 O   0  0  0  0  0  0  0  0  0  0  0  0
    9.3073  -19.3107   27.2125 O   0  0  0  0  0  0  0  0  0  0  0  0
  2  1  1  0
  2  3  2  0
  4  2  1  0
  5  6  1  0
  5  4  1  0
  6  8  1  0
  6  7  1  1
  8  9  2  0
  8 15  1  0
 11 10  1  0
 12 11  1  0
 14 13  1  1
 13 12  1  0
 14 16  1  0
 15 14  1  0
 16 17  2  0
 18 16  1  0
 18 19  1  0
 19 27  1  0
 19 20  1  1
 21 20  1  0
 22 21  2  0
 23 22  1  0
 24 25  1  0
 24 23  2  0
 25 26  2  0
 26 21  1  0
 27 28  1  0
 29 27  2  0
M  END
$$$$
