QMF.pdb
     RDKit          3D

 29 29  0  0  1  0  0  0  0  0999 V2000
   15.2729  -17.3460   19.5136 N   0  0  0  0  0  0  0  0  0  0  0  0
   14.5698  -18.2988   18.7358 C   0  0  0  0  0  0  0  0  0  0  0  0
   15.1730  -19.1885   18.0861 O   0  0  0  0  0  0  0  0  0  0  0  0
   13.1004  -18.2617   18.6749 C   0  0  0  0  0  0  0  0  0  0  0  0
   12.5434  -17.1004   19.5112 C   0  0  0  0  0  0  0  0  0  0  0  0
   11.1128  -17.4833   19.8278 C   0  0  2  0  0  0  0  0  0  0  0  0
   10.3444  -17.2458   18.6201 N   0  0  0  0  0  0  0  0  0  0  0  0
   10.5311  -16.7173   20.9220 C   0  0  0  0  0  0  0  0  0  0  0  0
   11.1688  -15.7722   21.4393 O   0  0  0  0  0  0  0  0  0  0  0  0
    8.2604  -12.5229   20.2670 C   0  0  0  0  0  0  0  0  0  0  0  0
    7.1377  -13.3766   21.4012 S   0  0  0  0  0  0  0  0  0  0  0  0
    6.9936  -15.0933   20.8609 C   0  0  0  0  0  0  0  0  0  0  0  0
    7.1530  -16.0308   22.0082 C   0  0  0  0  0  0  0  0  0  0  0  0
    8.5588  -16.2597   22.4503 C   0  0  2  0  0  0  0  0  0  0  0  0
    9.2431  -17.0305   21.4124 N   0  0  0  0  0  0  0  0  0  0  0  0
    8.6544  -17.0038   23.7436 C   0  0  0  0  0  0  0  0  0  0  0  0
    9.1530  -18.1577   23.7550 O   0  0  0  0  0  0  0  0  0  0  0  0
    8.1963  -16.4314   24.9372 N   0  0  0  0  0  0  0  0  0  0  0  0
    8.1635  -17.2127   26.1429 C   0  0  1  0  0  0  0  0  0  0  0  0
    7.7553  -16.3472   27.3436 C   0  0  0  0  0  0  0  0  0  0  0  0
    8.6839  -15.2084   27.4988 C   0  0  0  0  0  0  0  0  0  0  0  0
    9.9002  -15.3408   28.1260 C   0  0  0  0  0  0  0  0  0  0  0  0
   10.6946  -14.2102   28.2224 C   0  0  0  0  0  0  0  0  0  0  0  0
   10.3195  -12.9944   27.7265 C   0  0  0  0  0  0  0  0  0  0  0  0
    9.0866  -12.9042   27.1019 C   0  0  0  0  0  0  0  0  0  0  0  0
    8.2675  -13.9845   26.9806 C   0  0  0  0  0  0  0  0  0  0  0  0
    7.2391  -18.3562   26.0812 C   0  0  0  0  0  0  0  0  0  0  0  0
    7.3161  -19.3236   27.0665 O   0  0  0  0  0  0  0  0  0  0  0  0
    6.3826  -18.4985   25.1772 O   0  0  0  0  0  0  0  0  0  0  0  0
  2  1  1  0
  2  3  2  0
  4  2  1  0
  5  6  1  0
  5  4  1  0
  6  8  1  0
  6  7  1  6
  8  9  2  0
  8 15  1  0
 11 10  1  0
 12 11  1  0
 14 13  1  6
 13 12  1  0
 14 16  1  0
 15 14  1  0
 16 17  2  0
 18 16  1  0
 18 19  1  0
 19 27  1  0
 19 20  1  1
 21 20  1  0
 22 21  2  0
 23 22  1  0
 24 25  1  0
 24 23  2  0
 25 26  2  0
 26 21  1  0
 27 28  1  0
 29 27  2  0
M  END
$$$$
