QMF.pdb
     RDKit          3D

 29 29  0  0  1  0  0  0  0  0999 V2000
    4.6279  -21.0037   22.2448 N   0  0  0  0  0  0  0  0  0  0  0  0
    5.9327  -21.4593   21.9334 C   0  0  0  0  0  0  0  0  0  0  0  0
    6.5531  -22.2419   22.6951 O   0  0  0  0  0  0  0  0  0  0  0  0
    6.5925  -21.0173   20.6951 C   0  0  0  0  0  0  0  0  0  0  0  0
    7.6469  -19.9397   20.9868 C   0  0  0  0  0  0  0  0  0  0  0  0
    6.8785  -18.6373   21.0686 C   0  0  2  0  0  0  0  0  0  0  0  0
    6.5169  -18.2847   19.7085 N   0  0  0  0  0  0  0  0  0  0  0  0
    7.6408  -17.5448   21.6584 C   0  0  0  0  0  0  0  0  0  0  0  0
    8.6247  -17.0631   21.0524 O   0  0  0  0  0  0  0  0  0  0  0  0
    6.9535  -11.2973   25.9835 C   0  0  0  0  0  0  0  0  0  0  0  0
    6.4070  -13.0225   25.9664 S   0  0  0  0  0  0  0  0  0  0  0  0
    7.6763  -14.0045   25.1391 C   0  0  0  0  0  0  0  0  0  0  0  0
    7.0657  -15.0998   24.3341 C   0  0  0  0  0  0  0  0  0  0  0  0
    8.0350  -15.9693   23.6070 C   0  0  2  0  0  0  0  0  0  0  0  0
    7.2805  -17.0164   22.9187 N   0  0  0  0  0  0  0  0  0  0  0  0
    9.0382  -16.6136   24.5092 C   0  0  0  0  0  0  0  0  0  0  0  0
    8.6398  -17.2675   25.5061 O   0  0  0  0  0  0  0  0  0  0  0  0
   10.4111  -16.4966   24.2567 N   0  0  0  0  0  0  0  0  0  0  0  0
   11.3313  -16.3320   25.3481 C   0  0  1  0  0  0  0  0  0  0  0  0
   11.3732  -14.8687   25.8111 C   0  0  0  0  0  0  0  0  0  0  0  0
   11.0697  -14.7747   27.2542 C   0  0  0  0  0  0  0  0  0  0  0  0
   11.7022  -15.5654   28.1844 C   0  0  0  0  0  0  0  0  0  0  0  0
   11.3420  -15.4011   29.5118 C   0  0  0  0  0  0  0  0  0  0  0  0
   10.4005  -14.5001   29.9198 C   0  0  0  0  0  0  0  0  0  0  0  0
    9.7874  -13.7231   28.9509 C   0  0  0  0  0  0  0  0  0  0  0  0
   10.1045  -13.8448   27.6329 C   0  0  0  0  0  0  0  0  0  0  0  0
   11.0126  -17.1628   26.5203 C   0  0  0  0  0  0  0  0  0  0  0  0
    9.6935  -17.2590   26.9244 O   0  0  0  0  0  0  0  0  0  0  0  0
   11.8794  -17.7895   27.1737 O   0  0  0  0  0  0  0  0  0  0  0  0
  2  1  1  0
  2  3  2  0
  4  2  1  0
  5  6  1  0
  5  4  1  0
  6  8  1  0
  6  7  1  6
  8  9  2  0
  8 15  1  0
 11 10  1  0
 12 11  1  0
 14 13  1  1
 13 12  1  0
 14 16  1  0
 15 14  1  0
 16 17  2  0
 18 16  1  0
 18 19  1  0
 19 27  1  0
 19 20  1  1
 21 20  1  0
 22 21  2  0
 23 22  1  0
 24 25  1  0
 24 23  2  0
 25 26  2  0
 26 21  1  0
 27 28  1  0
 29 27  2  0
M  END
$$$$
