QMF.pdb
     RDKit          3D

 29 29  0  0  1  0  0  0  0  0999 V2000
    9.2030  -19.3726   16.5002 N   0  0  0  0  0  0  0  0  0  0  0  0
    8.0455  -18.8275   17.1087 C   0  0  0  0  0  0  0  0  0  0  0  0
    7.0463  -18.4857   16.4287 O   0  0  0  0  0  0  0  0  0  0  0  0
    7.9933  -18.6499   18.5681 C   0  0  0  0  0  0  0  0  0  0  0  0
    9.2596  -19.2051   19.2364 C   0  0  0  0  0  0  0  0  0  0  0  0
    9.1000  -18.9043   20.7120 C   0  0  2  0  0  0  0  0  0  0  0  0
    7.6763  -18.7631   20.9535 N   0  0  0  0  0  0  0  0  0  0  0  0
    9.7793  -17.6877   21.1375 C   0  0  0  0  0  0  0  0  0  0  0  0
   11.0096  -17.5532   20.9485 O   0  0  0  0  0  0  0  0  0  0  0  0
    7.4606  -11.7582   21.2679 C   0  0  0  0  0  0  0  0  0  0  0  0
    7.6924  -12.8011   19.8070 S   0  0  0  0  0  0  0  0  0  0  0  0
    8.5219  -14.3181   20.3271 C   0  0  0  0  0  0  0  0  0  0  0  0
    8.8868  -14.2608   21.7706 C   0  0  0  0  0  0  0  0  0  0  0  0
    9.6787  -15.4210   22.2718 C   0  0  2  0  0  0  0  0  0  0  0  0
    9.0602  -16.6467   21.7674 N   0  0  0  0  0  0  0  0  0  0  0  0
    9.7383  -15.4913   23.7641 C   0  0  0  0  0  0  0  0  0  0  0  0
   10.5392  -14.7470   24.3844 O   0  0  0  0  0  0  0  0  0  0  0  0
    8.9149  -16.3739   24.4751 N   0  0  0  0  0  0  0  0  0  0  0  0
    9.0284  -16.4691   25.9045 C   0  0  1  0  0  0  0  0  0  0  0  0
    7.6705  -16.2235   26.5776 C   0  0  0  0  0  0  0  0  0  0  0  0
    7.2649  -14.8111   26.4221 C   0  0  0  0  0  0  0  0  0  0  0  0
    6.2499  -14.4341   25.5747 C   0  0  0  0  0  0  0  0  0  0  0  0
    5.9505  -13.0837   25.4993 C   0  0  0  0  0  0  0  0  0  0  0  0
    6.6143  -12.1343   26.2222 C   0  0  0  0  0  0  0  0  0  0  0  0
    7.6299  -12.5565   27.0640 C   0  0  0  0  0  0  0  0  0  0  0  0
    7.9642  -13.8711   27.1752 C   0  0  0  0  0  0  0  0  0  0  0  0
    9.5301  -17.7713   26.3721 C   0  0  0  0  0  0  0  0  0  0  0  0
    9.7421  -17.9512   27.7268 O   0  0  0  0  0  0  0  0  0  0  0  0
    9.7763  -18.7288   25.6017 O   0  0  0  0  0  0  0  0  0  0  0  0
  2  1  1  0
  2  3  2  0
  4  2  1  0
  5  6  1  0
  5  4  1  0
  6  8  1  0
  6  7  1  6
  8  9  2  0
  8 15  1  0
 11 10  1  0
 12 11  1  0
 14 13  1  1
 13 12  1  0
 14 16  1  0
 15 14  1  0
 16 17  2  0
 18 16  1  0
 18 19  1  0
 19 27  1  0
 19 20  1  1
 21 20  1  0
 22 21  2  0
 23 22  1  0
 24 25  1  0
 24 23  2  0
 25 26  2  0
 26 21  1  0
 27 28  1  0
 29 27  2  0
M  END
$$$$
