QMF.pdb
     RDKit          3D

 29 29  0  0  1  0  0  0  0  0999 V2000
    9.4435  -20.8678   17.4237 N   0  0  0  0  0  0  0  0  0  0  0  0
    8.3552  -20.0231   17.7541 C   0  0  0  0  0  0  0  0  0  0  0  0
    7.5381  -19.6351   16.8827 O   0  0  0  0  0  0  0  0  0  0  0  0
    8.1607  -19.5797   19.1433 C   0  0  0  0  0  0  0  0  0  0  0  0
    9.2620  -20.1350   20.0582 C   0  0  0  0  0  0  0  0  0  0  0  0
    8.9684  -19.5668   21.4309 C   0  0  2  0  0  0  0  0  0  0  0  0
    7.5274  -19.4212   21.5185 N   0  0  0  0  0  0  0  0  0  0  0  0
    9.5944  -18.2741   21.6748 C   0  0  0  0  0  0  0  0  0  0  0  0
   10.8418  -18.1670   21.6729 O   0  0  0  0  0  0  0  0  0  0  0  0
    6.7964  -12.6011   19.8075 C   0  0  0  0  0  0  0  0  0  0  0  0
    7.3423  -12.2621   21.4995 S   0  0  0  0  0  0  0  0  0  0  0  0
    8.7185  -13.3684   21.8767 C   0  0  0  0  0  0  0  0  0  0  0  0
    8.2850  -14.7936   21.8412 C   0  0  0  0  0  0  0  0  0  0  0  0
    9.3559  -15.7902   22.1311 C   0  0  2  0  0  0  0  0  0  0  0  0
    8.8040  -17.1277   21.9160 N   0  0  0  0  0  0  0  0  0  0  0  0
    9.8760  -15.7040   23.5302 C   0  0  0  0  0  0  0  0  0  0  0  0
   10.8889  -14.9987   23.7684 O   0  0  0  0  0  0  0  0  0  0  0  0
    9.2495  -16.3977   24.5735 N   0  0  0  0  0  0  0  0  0  0  0  0
    9.8763  -16.4737   25.8645 C   0  0  1  0  0  0  0  0  0  0  0  0
    9.9847  -15.0811   26.5017 C   0  0  0  0  0  0  0  0  0  0  0  0
    8.6820  -14.3857   26.4480 C   0  0  0  0  0  0  0  0  0  0  0  0
    7.5086  -15.0561   26.1950 C   0  0  0  0  0  0  0  0  0  0  0  0
    6.3420  -14.3100   26.1625 C   0  0  0  0  0  0  0  0  0  0  0  0
    6.3176  -12.9603   26.3688 C   0  0  0  0  0  0  0  0  0  0  0  0
    7.5215  -12.3236   26.6206 C   0  0  0  0  0  0  0  0  0  0  0  0
    8.6962  -13.0097   26.6634 C   0  0  0  0  0  0  0  0  0  0  0  0
    9.1681  -17.3463   26.8148 C   0  0  0  0  0  0  0  0  0  0  0  0
    8.0547  -18.0384   26.3746 O   0  0  0  0  0  0  0  0  0  0  0  0
    9.5241  -17.4939   28.0075 O   0  0  0  0  0  0  0  0  0  0  0  0
  2  1  1  0
  2  3  2  0
  4  2  1  0
  5  6  1  0
  5  4  1  0
  6  8  1  0
  6  7  1  6
  8  9  2  0
  8 15  1  0
 11 10  1  0
 12 11  1  0
 14 13  1  1
 13 12  1  0
 14 16  1  0
 15 14  1  0
 16 17  2  0
 18 16  1  0
 18 19  1  0
 19 27  1  0
 19 20  1  1
 21 20  1  0
 22 21  2  0
 23 22  1  0
 24 25  1  0
 24 23  2  0
 25 26  2  0
 26 21  1  0
 27 28  1  0
 29 27  2  0
M  END
$$$$
