QMF.pdb
     RDKit          3D

 29 29  0  0  1  0  0  0  0  0999 V2000
    8.9914  -11.6678   19.7991 N   0  0  0  0  0  0  0  0  0  0  0  0
    8.3174  -12.8465   19.3949 C   0  0  0  0  0  0  0  0  0  0  0  0
    8.4165  -13.2898   18.2239 O   0  0  0  0  0  0  0  0  0  0  0  0
    7.4780  -13.5819   20.3535 C   0  0  0  0  0  0  0  0  0  0  0  0
    7.0643  -14.9486   19.7885 C   0  0  0  0  0  0  0  0  0  0  0  0
    8.0804  -15.9318   20.3311 C   0  0  2  0  0  0  0  0  0  0  0  0
    7.8557  -17.1848   19.6349 N   0  0  0  0  0  0  0  0  0  0  0  0
    7.9683  -16.1563   21.7662 C   0  0  0  0  0  0  0  0  0  0  0  0
    6.8685  -16.4785   22.2702 O   0  0  0  0  0  0  0  0  0  0  0  0
   14.4803  -17.8539   22.2374 C   0  0  0  0  0  0  0  0  0  0  0  0
   12.9419  -18.6155   22.8111 S   0  0  0  0  0  0  0  0  0  0  0  0
   11.7419  -17.2996   23.1084 C   0  0  0  0  0  0  0  0  0  0  0  0
   10.3925  -17.8612   23.3984 C   0  0  0  0  0  0  0  0  0  0  0  0
    9.3541  -16.8578   23.7717 C   0  0  2  0  0  0  0  0  0  0  0  0
    9.0963  -16.0134   22.6055 N   0  0  0  0  0  0  0  0  0  0  0  0
    9.7634  -15.9861   24.9154 C   0  0  0  0  0  0  0  0  0  0  0  0
   10.5714  -15.0445   24.7140 O   0  0  0  0  0  0  0  0  0  0  0  0
    9.2584  -16.2068   26.2033 N   0  0  0  0  0  0  0  0  0  0  0  0
    9.7454  -15.4291   27.3094 C   0  0  1  0  0  0  0  0  0  0  0  0
    8.5857  -14.7505   28.0523 C   0  0  0  0  0  0  0  0  0  0  0  0
    7.9147  -13.7687   27.1754 C   0  0  0  0  0  0  0  0  0  0  0  0
    6.8169  -14.1005   26.4169 C   0  0  0  0  0  0  0  0  0  0  0  0
    6.2646  -13.1069   25.6253 C   0  0  0  0  0  0  0  0  0  0  0  0
    6.7621  -11.8363   25.5734 C   0  0  0  0  0  0  0  0  0  0  0  0
    7.8688  -11.5437   26.3531 C   0  0  0  0  0  0  0  0  0  0  0  0
    8.4498  -12.4831   27.1483 C   0  0  0  0  0  0  0  0  0  0  0  0
   10.5082  -16.2140   28.2932 C   0  0  0  0  0  0  0  0  0  0  0  0
   11.1655  -15.5435   29.3085 O   0  0  0  0  0  0  0  0  0  0  0  0
   10.5931  -17.4640   28.2570 O   0  0  0  0  0  0  0  0  0  0  0  0
  2  1  1  0
  2  3  2  0
  4  2  1  0
  5  6  1  0
  5  4  1  0
  6  8  1  0
  6  7  1  6
  8  9  2  0
  8 15  1  0
 11 10  1  0
 12 11  1  0
 14 13  1  6
 13 12  1  0
 14 16  1  0
 15 14  1  0
 16 17  2  0
 18 16  1  0
 18 19  1  0
 19 27  1  0
 19 20  1  1
 21 20  1  0
 22 21  2  0
 23 22  1  0
 24 25  1  0
 24 23  2  0
 25 26  2  0
 26 21  1  0
 27 28  1  0
 29 27  2  0
M  END
$$$$
