QMF.pdb
     RDKit          3D

 29 29  0  0  1  0  0  0  0  0999 V2000
    8.4073  -12.4899   17.0053 N   0  0  0  0  0  0  0  0  0  0  0  0
    8.4700  -13.7797   16.4227 C   0  0  0  0  0  0  0  0  0  0  0  0
    8.9190  -13.9541   15.2626 O   0  0  0  0  0  0  0  0  0  0  0  0
    8.0037  -14.9534   17.1771 C   0  0  0  0  0  0  0  0  0  0  0  0
    7.4959  -14.5481   18.5685 C   0  0  0  0  0  0  0  0  0  0  0  0
    8.2150  -15.4604   19.5402 C   0  0  2  0  0  0  0  0  0  0  0  0
    8.1387  -16.7985   18.9845 N   0  0  0  0  0  0  0  0  0  0  0  0
    7.6349  -15.4647   20.8766 C   0  0  0  0  0  0  0  0  0  0  0  0
    7.4798  -14.3903   21.5003 O   0  0  0  0  0  0  0  0  0  0  0  0
    4.5524  -20.6608   22.3259 C   0  0  0  0  0  0  0  0  0  0  0  0
    3.4583  -19.2309   22.1416 S   0  0  0  0  0  0  0  0  0  0  0  0
    4.4831  -17.7458   22.0757 C   0  0  0  0  0  0  0  0  0  0  0  0
    5.7351  -17.9239   22.8639 C   0  0  0  0  0  0  0  0  0  0  0  0
    6.6761  -16.7674   22.8307 C   0  0  2  0  0  0  0  0  0  0  0  0
    7.2413  -16.6783   21.4845 N   0  0  0  0  0  0  0  0  0  0  0  0
    7.7950  -16.8915   23.8146 C   0  0  0  0  0  0  0  0  0  0  0  0
    8.7500  -17.6703   23.5665 O   0  0  0  0  0  0  0  0  0  0  0  0
    7.7902  -16.1527   25.0048 N   0  0  0  0  0  0  0  0  0  0  0  0
    8.8902  -16.2620   25.9231 C   0  0  1  0  0  0  0  0  0  0  0  0
    9.3560  -14.8739   26.3850 C   0  0  0  0  0  0  0  0  0  0  0  0
    8.2261  -13.9217   26.3797 C   0  0  0  0  0  0  0  0  0  0  0  0
    7.8126  -13.2887   25.2313 C   0  0  0  0  0  0  0  0  0  0  0  0
    6.7457  -12.4115   25.3353 C   0  0  0  0  0  0  0  0  0  0  0  0
    6.1038  -12.1592   26.5139 C   0  0  0  0  0  0  0  0  0  0  0  0
    6.5516  -12.8177   27.6470 C   0  0  0  0  0  0  0  0  0  0  0  0
    7.5957  -13.6895   27.5998 C   0  0  0  0  0  0  0  0  0  0  0  0
    8.5801  -17.0524   27.1253 C   0  0  0  0  0  0  0  0  0  0  0  0
    7.3199  -17.6094   27.2442 O   0  0  0  0  0  0  0  0  0  0  0  0
    9.4032  -17.2466   28.0504 O   0  0  0  0  0  0  0  0  0  0  0  0
  2  1  1  0
  2  3  2  0
  4  2  1  0
  5  6  1  0
  5  4  1  0
  6  8  1  0
  6  7  1  6
  8  9  2  0
  8 15  1  0
 11 10  1  0
 12 11  1  0
 14 13  1  6
 13 12  1  0
 14 16  1  0
 15 14  1  0
 16 17  2  0
 18 16  1  0
 18 19  1  0
 19 27  1  0
 19 20  1  1
 21 20  1  0
 22 21  2  0
 23 22  1  0
 24 25  1  0
 24 23  2  0
 25 26  2  0
 26 21  1  0
 27 28  1  0
 29 27  2  0
M  END
$$$$
