QMF.pdb
     RDKit          3D

 29 29  0  0  1  0  0  0  0  0999 V2000
    8.1502  -12.0562   19.2116 N   0  0  0  0  0  0  0  0  0  0  0  0
    8.2993  -13.2579   18.4763 C   0  0  0  0  0  0  0  0  0  0  0  0
    8.6969  -13.2526   17.2849 O   0  0  0  0  0  0  0  0  0  0  0  0
    7.9865  -14.5508   19.1045 C   0  0  0  0  0  0  0  0  0  0  0  0
    7.5388  -14.3617   20.5612 C   0  0  0  0  0  0  0  0  0  0  0  0
    8.0777  -15.5649   21.3066 C   0  0  2  0  0  0  0  0  0  0  0  0
    6.9941  -16.5272   21.3764 N   0  0  0  0  0  0  0  0  0  0  0  0
    8.5334  -15.2604   22.6565 C   0  0  0  0  0  0  0  0  0  0  0  0
    9.5625  -14.5700   22.8341 O   0  0  0  0  0  0  0  0  0  0  0  0
    7.1079  -10.8076   26.4901 C   0  0  0  0  0  0  0  0  0  0  0  0
    7.7012  -12.5129   26.6147 S   0  0  0  0  0  0  0  0  0  0  0  0
    6.5380  -13.5768   25.7342 C   0  0  0  0  0  0  0  0  0  0  0  0
    6.9160  -15.0116   25.8709 C   0  0  0  0  0  0  0  0  0  0  0  0
    8.1667  -15.4089   25.1621 C   0  0  2  0  0  0  0  0  0  0  0  0
    7.8216  -15.7393   23.7796 N   0  0  0  0  0  0  0  0  0  0  0  0
    8.8451  -16.5876   25.7832 C   0  0  0  0  0  0  0  0  0  0  0  0
    8.3530  -17.7339   25.6283 O   0  0  0  0  0  0  0  0  0  0  0  0
   10.0180  -16.4289   26.5326 N   0  0  0  0  0  0  0  0  0  0  0  0
   10.6042  -17.5595   27.1984 C   0  0  1  0  0  0  0  0  0  0  0  0
   12.0489  -17.7813   26.7284 C   0  0  0  0  0  0  0  0  0  0  0  0
   12.0901  -17.9892   25.2660 C   0  0  0  0  0  0  0  0  0  0  0  0
   11.9108  -19.2300   24.7015 C   0  0  0  0  0  0  0  0  0  0  0  0
   11.9719  -19.3173   23.3204 C   0  0  0  0  0  0  0  0  0  0  0  0
   12.1992  -18.2365   22.5173 C   0  0  0  0  0  0  0  0  0  0  0  0
   12.3744  -17.0049   23.1261 C   0  0  0  0  0  0  0  0  0  0  0  0
   12.3239  -16.8642   24.4789 C   0  0  0  0  0  0  0  0  0  0  0  0
   10.6251  -17.4363   28.6648 C   0  0  0  0  0  0  0  0  0  0  0  0
   11.1588  -18.4729   29.4085 O   0  0  0  0  0  0  0  0  0  0  0  0
   10.1814  -16.4360   29.2760 O   0  0  0  0  0  0  0  0  0  0  0  0
  2  1  1  0
  2  3  2  0
  4  2  1  0
  5  6  1  0
  5  4  1  0
  6  8  1  0
  6  7  1  1
  8  9  2  0
  8 15  1  0
 11 10  1  0
 12 11  1  0
 14 13  1  1
 13 12  1  0
 14 16  1  0
 15 14  1  0
 16 17  2  0
 18 16  1  0
 18 19  1  0
 19 27  1  0
 19 20  1  6
 21 20  1  0
 22 21  2  0
 23 22  1  0
 24 25  1  0
 24 23  2  0
 25 26  2  0
 26 21  1  0
 27 28  1  0
 29 27  2  0
M  END
$$$$
