QMF.pdb
     RDKit          3D

 29 29  0  0  1  0  0  0  0  0999 V2000
    9.7441  -13.1090   19.7969 N   0  0  0  0  0  0  0  0  0  0  0  0
    8.5962  -13.1768   18.9693 C   0  0  0  0  0  0  0  0  0  0  0  0
    8.6833  -13.0917   17.7192 O   0  0  0  0  0  0  0  0  0  0  0  0
    7.2640  -13.3505   19.5684 C   0  0  0  0  0  0  0  0  0  0  0  0
    7.3725  -13.8143   21.0284 C   0  0  0  0  0  0  0  0  0  0  0  0
    7.5838  -15.3123   20.9595 C   0  0  2  0  0  0  0  0  0  0  0  0
    6.4060  -15.8669   20.3189 N   0  0  0  0  0  0  0  0  0  0  0  0
    7.7577  -15.9388   22.2633 C   0  0  0  0  0  0  0  0  0  0  0  0
    6.7718  -16.1165   23.0142 O   0  0  0  0  0  0  0  0  0  0  0  0
   11.6407  -20.2117   21.2066 C   0  0  0  0  0  0  0  0  0  0  0  0
   10.8641  -20.7888   22.7361 S   0  0  0  0  0  0  0  0  0  0  0  0
    9.6109  -19.5819   23.2185 C   0  0  0  0  0  0  0  0  0  0  0  0
   10.2283  -18.2587   23.5159 C   0  0  0  0  0  0  0  0  0  0  0  0
    9.2680  -17.1778   23.8814 C   0  0  2  0  0  0  0  0  0  0  0  0
    9.0379  -16.3526   22.6959 N   0  0  0  0  0  0  0  0  0  0  0  0
    9.7618  -16.3024   24.9883 C   0  0  0  0  0  0  0  0  0  0  0  0
   10.6006  -15.4014   24.7335 O   0  0  0  0  0  0  0  0  0  0  0  0
    9.3020  -16.4748   26.3002 N   0  0  0  0  0  0  0  0  0  0  0  0
    9.9077  -15.7402   27.3767 C   0  0  1  0  0  0  0  0  0  0  0  0
    8.8421  -15.0131   28.2091 C   0  0  0  0  0  0  0  0  0  0  0  0
    8.1164  -14.0321   27.3758 C   0  0  0  0  0  0  0  0  0  0  0  0
    6.9800  -14.3682   26.6785 C   0  0  0  0  0  0  0  0  0  0  0  0
    6.3776  -13.3750   25.9239 C   0  0  0  0  0  0  0  0  0  0  0  0
    6.8629  -12.1007   25.8502 C   0  0  0  0  0  0  0  0  0  0  0  0
    8.0097  -11.8039   26.5680 C   0  0  0  0  0  0  0  0  0  0  0  0
    8.6406  -12.7428   27.3249 C   0  0  0  0  0  0  0  0  0  0  0  0
   10.6964  -16.5784   28.2939 C   0  0  0  0  0  0  0  0  0  0  0  0
   11.4738  -15.9577   29.2546 O   0  0  0  0  0  0  0  0  0  0  0  0
   10.6997  -17.8310   28.2480 O   0  0  0  0  0  0  0  0  0  0  0  0
  2  1  1  0
  2  3  2  0
  4  2  1  0
  5  6  1  0
  5  4  1  0
  6  8  1  0
  6  7  1  1
  8  9  2  0
  8 15  1  0
 11 10  1  0
 12 11  1  0
 14 13  1  6
 13 12  1  0
 14 16  1  0
 15 14  1  0
 16 17  2  0
 18 16  1  0
 18 19  1  0
 19 27  1  0
 19 20  1  1
 21 20  1  0
 22 21  2  0
 23 22  1  0
 24 25  1  0
 24 23  2  0
 25 26  2  0
 26 21  1  0
 27 28  1  0
 29 27  2  0
M  END
$$$$
