QMF.pdb
     RDKit          3D

 29 29  0  0  1  0  0  0  0  0999 V2000
    8.7137  -12.3870   16.8392 N   0  0  0  0  0  0  0  0  0  0  0  0
    8.3724  -13.7620   16.8430 C   0  0  0  0  0  0  0  0  0  0  0  0
    8.3024  -14.4232   15.7774 O   0  0  0  0  0  0  0  0  0  0  0  0
    8.0904  -14.4486   18.1131 C   0  0  0  0  0  0  0  0  0  0  0  0
    9.3403  -14.4947   19.0041 C   0  0  0  0  0  0  0  0  0  0  0  0
    9.1210  -15.6617   19.9440 C   0  0  2  0  0  0  0  0  0  0  0  0
    7.7332  -16.0578   19.7943 N   0  0  0  0  0  0  0  0  0  0  0  0
    9.3782  -15.3427   21.3421 C   0  0  0  0  0  0  0  0  0  0  0  0
   10.4632  -14.8170   21.6798 O   0  0  0  0  0  0  0  0  0  0  0  0
    7.1686  -11.6993   26.0023 C   0  0  0  0  0  0  0  0  0  0  0  0
    5.9954  -13.0071   25.5675 S   0  0  0  0  0  0  0  0  0  0  0  0
    6.5745  -13.7982   24.0513 C   0  0  0  0  0  0  0  0  0  0  0  0
    7.2217  -15.1080   24.3444 C   0  0  0  0  0  0  0  0  0  0  0  0
    8.5759  -15.2945   23.7480 C   0  0  2  0  0  0  0  0  0  0  0  0
    8.4092  -15.6218   22.3322 N   0  0  0  0  0  0  0  0  0  0  0  0
    9.3621  -16.3839   24.4041 C   0  0  0  0  0  0  0  0  0  0  0  0
    9.2005  -17.5724   24.0281 O   0  0  0  0  0  0  0  0  0  0  0  0
   10.2727  -16.0955   25.4288 N   0  0  0  0  0  0  0  0  0  0  0  0
   11.0825  -17.1434   25.9869 C   0  0  1  0  0  0  0  0  0  0  0  0
   12.1174  -16.5711   26.9660 C   0  0  0  0  0  0  0  0  0  0  0  0
   11.4529  -15.7453   27.9956 C   0  0  0  0  0  0  0  0  0  0  0  0
   10.9775  -14.4844   27.7225 C   0  0  0  0  0  0  0  0  0  0  0  0
   10.3739  -13.7920   28.7593 C   0  0  0  0  0  0  0  0  0  0  0  0
   10.2376  -14.3074   30.0165 C   0  0  0  0  0  0  0  0  0  0  0  0
   10.7300  -15.5808   30.2493 C   0  0  0  0  0  0  0  0  0  0  0  0
   11.3318  -16.3039   29.2656 C   0  0  0  0  0  0  0  0  0  0  0  0
   10.3089  -18.1700   26.7035 C   0  0  0  0  0  0  0  0  0  0  0  0
   10.9808  -19.2593   27.2275 O   0  0  0  0  0  0  0  0  0  0  0  0
    9.0673  -18.1071   26.8631 O   0  0  0  0  0  0  0  0  0  0  0  0
  2  1  1  0
  2  3  2  0
  4  2  1  0
  5  6  1  0
  5  4  1  0
  6  8  1  0
  6  7  1  1
  8  9  2  0
  8 15  1  0
 11 10  1  0
 12 11  1  0
 14 13  1  1
 13 12  1  0
 14 16  1  0
 15 14  1  0
 16 17  2  0
 18 16  1  0
 18 19  1  0
 19 27  1  0
 19 20  1  1
 21 20  1  0
 22 21  2  0
 23 22  1  0
 24 25  1  0
 24 23  2  0
 25 26  2  0
 26 21  1  0
 27 28  1  0
 29 27  2  0
M  END
$$$$
