QMF.pdb
     RDKit          3D

 29 29  0  0  1  0  0  0  0  0999 V2000
   10.9624  -16.1855   15.5309 N   0  0  0  0  0  0  0  0  0  0  0  0
   10.3965  -17.4136   15.9539 C   0  0  0  0  0  0  0  0  0  0  0  0
    9.3352  -17.8553   15.4478 O   0  0  0  0  0  0  0  0  0  0  0  0
   11.0515  -18.2034   17.0081 C   0  0  0  0  0  0  0  0  0  0  0  0
   11.7419  -17.2907   18.0321 C   0  0  0  0  0  0  0  0  0  0  0  0
   11.2205  -17.7353   19.3825 C   0  0  2  0  0  0  0  0  0  0  0  0
   10.0380  -18.5359   19.1259 N   0  0  0  0  0  0  0  0  0  0  0  0
   10.8672  -16.6314   20.2652 C   0  0  0  0  0  0  0  0  0  0  0  0
   11.2459  -15.4675   20.0021 O   0  0  0  0  0  0  0  0  0  0  0  0
    7.6384  -12.3151   20.6690 C   0  0  0  0  0  0  0  0  0  0  0  0
    6.8030  -13.8705   20.2711 S   0  0  0  0  0  0  0  0  0  0  0  0
    7.6165  -15.1948   21.1900 C   0  0  0  0  0  0  0  0  0  0  0  0
    8.9614  -14.7668   21.6679 C   0  0  0  0  0  0  0  0  0  0  0  0
    9.7425  -15.8143   22.3870 C   0  0  2  0  0  0  0  0  0  0  0  0
   10.0949  -16.8597   21.4266 N   0  0  0  0  0  0  0  0  0  0  0  0
    8.9892  -16.4356   23.5192 C   0  0  0  0  0  0  0  0  0  0  0  0
    8.4457  -17.5572   23.3556 O   0  0  0  0  0  0  0  0  0  0  0  0
    8.8831  -15.7841   24.7548 N   0  0  0  0  0  0  0  0  0  0  0  0
    8.3595  -16.4854   25.8946 C   0  0  1  0  0  0  0  0  0  0  0  0
    8.2086  -15.5403   27.0952 C   0  0  0  0  0  0  0  0  0  0  0  0
    7.6132  -14.2565   26.6702 C   0  0  0  0  0  0  0  0  0  0  0  0
    8.3837  -13.2085   26.2246 C   0  0  0  0  0  0  0  0  0  0  0  0
    7.7271  -12.0467   25.8534 C   0  0  0  0  0  0  0  0  0  0  0  0
    6.3698  -11.9092   25.9134 C   0  0  0  0  0  0  0  0  0  0  0  0
    5.6307  -12.9887   26.3679 C   0  0  0  0  0  0  0  0  0  0  0  0
    6.2263  -14.1530   26.7450 C   0  0  0  0  0  0  0  0  0  0  0  0
    7.0505  -17.1129   25.6523 C   0  0  0  0  0  0  0  0  0  0  0  0
    6.4081  -16.8623   24.4535 O   0  0  0  0  0  0  0  0  0  0  0  0
    6.4861  -17.8653   26.4808 O   0  0  0  0  0  0  0  0  0  0  0  0
  2  1  1  0
  2  3  2  0
  4  2  1  0
  5  6  1  0
  5  4  1  0
  6  8  1  0
  6  7  1  6
  8  9  2  0
  8 15  1  0
 11 10  1  0
 12 11  1  0
 14 13  1  6
 13 12  1  0
 14 16  1  0
 15 14  1  0
 16 17  2  0
 18 16  1  0
 18 19  1  0
 19 27  1  0
 19 20  1  1
 21 20  1  0
 22 21  2  0
 23 22  1  0
 24 25  1  0
 24 23  2  0
 25 26  2  0
 26 21  1  0
 27 28  1  0
 29 27  2  0
M  END
$$$$
