QMF.pdb
     RDKit          3D

 29 29  0  0  1  0  0  0  0  0999 V2000
   10.4240  -17.1791   16.4592 N   0  0  0  0  0  0  0  0  0  0  0  0
   11.0185  -18.4045   16.8492 C   0  0  0  0  0  0  0  0  0  0  0  0
   11.9398  -18.9298   16.1763 O   0  0  0  0  0  0  0  0  0  0  0  0
   10.5605  -19.0923   18.0663 C   0  0  0  0  0  0  0  0  0  0  0  0
    9.4300  -18.3091   18.7495 C   0  0  0  0  0  0  0  0  0  0  0  0
    9.7005  -18.4265   20.2349 C   0  0  2  0  0  0  0  0  0  0  0  0
    8.5248  -19.0415   20.8219 N   0  0  0  0  0  0  0  0  0  0  0  0
    9.9461  -17.1472   20.8874 C   0  0  0  0  0  0  0  0  0  0  0  0
   11.0944  -16.6486   20.8858 O   0  0  0  0  0  0  0  0  0  0  0  0
    8.0386  -11.6059   19.7805 C   0  0  0  0  0  0  0  0  0  0  0  0
    7.1667  -13.1072   19.2693 S   0  0  0  0  0  0  0  0  0  0  0  0
    7.9156  -14.5095   20.1254 C   0  0  0  0  0  0  0  0  0  0  0  0
    8.3935  -14.1160   21.4808 C   0  0  0  0  0  0  0  0  0  0  0  0
    9.0719  -15.1965   22.2531 C   0  0  2  0  0  0  0  0  0  0  0  0
    8.8942  -16.4548   21.5288 N   0  0  0  0  0  0  0  0  0  0  0  0
    8.5308  -15.3581   23.6375 C   0  0  0  0  0  0  0  0  0  0  0  0
    7.6540  -14.5589   24.0533 O   0  0  0  0  0  0  0  0  0  0  0  0
    8.9884  -16.3857   24.4723 N   0  0  0  0  0  0  0  0  0  0  0  0
    9.3067  -16.1080   25.8459 C   0  0  1  0  0  0  0  0  0  0  0  0
    8.0337  -15.8162   26.6532 C   0  0  0  0  0  0  0  0  0  0  0  0
    7.6717  -14.3875   26.5482 C   0  0  0  0  0  0  0  0  0  0  0  0
    8.5528  -13.3864   26.8828 C   0  0  0  0  0  0  0  0  0  0  0  0
    8.1130  -12.0795   26.7518 C   0  0  0  0  0  0  0  0  0  0  0  0
    6.8612  -11.7577   26.3110 C   0  0  0  0  0  0  0  0  0  0  0  0
    6.0048  -12.7960   25.9843 C   0  0  0  0  0  0  0  0  0  0  0  0
    6.3870  -14.0977   26.0950 C   0  0  0  0  0  0  0  0  0  0  0  0
   10.0222  -17.2033   26.5199 C   0  0  0  0  0  0  0  0  0  0  0  0
   10.4588  -17.0089   27.8176 O   0  0  0  0  0  0  0  0  0  0  0  0
   10.2573  -18.3073   25.9750 O   0  0  0  0  0  0  0  0  0  0  0  0
  2  1  1  0
  2  3  2  0
  4  2  1  0
  5  6  1  0
  5  4  1  0
  6  8  1  0
  6  7  1  1
  8  9  2  0
  8 15  1  0
 11 10  1  0
 12 11  1  0
 14 13  1  6
 13 12  1  0
 14 16  1  0
 15 14  1  0
 16 17  2  0
 18 16  1  0
 18 19  1  0
 19 27  1  0
 19 20  1  1
 21 20  1  0
 22 21  2  0
 23 22  1  0
 24 25  1  0
 24 23  2  0
 25 26  2  0
 26 21  1  0
 27 28  1  0
 29 27  2  0
M  END
$$$$
