QMF.pdb
     RDKit          3D

 29 29  0  0  1  0  0  0  0  0999 V2000
   11.5090  -18.8186   16.8386 N   0  0  0  0  0  0  0  0  0  0  0  0
   10.1569  -18.5540   16.5083 C   0  0  0  0  0  0  0  0  0  0  0  0
    9.5984  -19.1148   15.5329 O   0  0  0  0  0  0  0  0  0  0  0  0
    9.3730  -17.6046   17.3133 C   0  0  0  0  0  0  0  0  0  0  0  0
   10.1852  -17.0985   18.5143 C   0  0  0  0  0  0  0  0  0  0  0  0
    9.2176  -17.0908   19.6793 C   0  0  2  0  0  0  0  0  0  0  0  0
    7.8941  -16.9004   19.1161 N   0  0  0  0  0  0  0  0  0  0  0  0
    9.4796  -16.0364   20.6499 C   0  0  0  0  0  0  0  0  0  0  0  0
   10.6243  -15.5388   20.7472 O   0  0  0  0  0  0  0  0  0  0  0  0
    6.6691  -11.3994   26.3223 C   0  0  0  0  0  0  0  0  0  0  0  0
    6.3079  -12.3665   24.8357 S   0  0  0  0  0  0  0  0  0  0  0  0
    7.7290  -13.4280   24.4985 C   0  0  0  0  0  0  0  0  0  0  0  0
    7.5549  -14.1636   23.2144 C   0  0  0  0  0  0  0  0  0  0  0  0
    8.6660  -15.0932   22.8597 C   0  0  2  0  0  0  0  0  0  0  0  0
    8.4478  -15.5631   21.4918 N   0  0  0  0  0  0  0  0  0  0  0  0
    8.7532  -16.2782   23.7671 C   0  0  0  0  0  0  0  0  0  0  0  0
    7.7037  -16.8997   24.0714 O   0  0  0  0  0  0  0  0  0  0  0  0
    9.9863  -16.7014   24.2795 N   0  0  0  0  0  0  0  0  0  0  0  0
   10.5103  -16.1040   25.4770 C   0  0  1  0  0  0  0  0  0  0  0  0
    9.4900  -16.1889   26.6211 C   0  0  0  0  0  0  0  0  0  0  0  0
   10.0469  -15.5962   27.8548 C   0  0  0  0  0  0  0  0  0  0  0  0
   10.6152  -16.3675   28.8410 C   0  0  0  0  0  0  0  0  0  0  0  0
   11.1044  -15.7135   29.9598 C   0  0  0  0  0  0  0  0  0  0  0  0
   11.0432  -14.3580   30.1138 C   0  0  0  0  0  0  0  0  0  0  0  0
   10.4630  -13.6181   29.0968 C   0  0  0  0  0  0  0  0  0  0  0  0
    9.9669  -14.2111   27.9767 C   0  0  0  0  0  0  0  0  0  0  0  0
   11.7611  -16.7211   25.9468 C   0  0  0  0  0  0  0  0  0  0  0  0
   12.8642  -15.9113   26.1467 O   0  0  0  0  0  0  0  0  0  0  0  0
   11.8778  -17.9480   26.1751 O   0  0  0  0  0  0  0  0  0  0  0  0
  2  1  1  0
  2  3  2  0
  4  2  1  0
  5  6  1  0
  5  4  1  0
  6  8  1  0
  6  7  1  6
  8  9  2  0
  8 15  1  0
 11 10  1  0
 12 11  1  0
 14 13  1  1
 13 12  1  0
 14 16  1  0
 15 14  1  0
 16 17  2  0
 18 16  1  0
 18 19  1  0
 19 27  1  0
 19 20  1  1
 21 20  1  0
 22 21  2  0
 23 22  1  0
 24 25  1  0
 24 23  2  0
 25 26  2  0
 26 21  1  0
 27 28  1  0
 29 27  2  0
M  END
$$$$
