ESS.pdb
     RDKit          3D

 22 21  0  0  1  0  0  0  0  0999 V2000
   10.0822  -17.0450   19.8451 N   0  0  0  0  0  0  0  0  0  0  0  0
   10.7035  -17.1833   21.1479 C   0  0  1  0  0  0  0  0  0  0  0  0
   12.1064  -16.6685   21.1402 C   0  0  0  0  0  0  0  0  0  0  0  0
   12.9878  -17.2288   20.0849 C   0  0  0  0  0  0  0  0  0  0  0  0
   13.8410  -18.3274   20.5586 C   0  0  0  0  0  0  0  0  0  0  0  0
   15.0802  -18.3485   20.4415 O   0  0  0  0  0  0  0  0  0  0  0  0
    9.9255  -16.4629   22.1953 C   0  0  0  0  0  0  0  0  0  0  0  0
    9.3638  -15.3816   21.8893 O   0  0  0  0  0  0  0  0  0  0  0  0
   13.2571  -19.4373   21.1864 O   0  0  0  0  0  0  0  0  0  0  0  0
    8.5988  -18.2749   25.7198 O   0  0  0  0  0  0  0  0  0  0  0  0
    7.9307  -17.2218   25.1007 C   0  0  0  0  0  0  0  0  0  0  0  0
    8.9271  -16.2532   24.4706 C   0  0  2  0  0  0  0  0  0  0  0  0
    9.7746  -16.9220   23.5319 N   0  0  0  0  0  0  0  0  0  0  0  0
    9.6639  -15.5599   25.5461 C   0  0  0  0  0  0  0  0  0  0  0  0
   10.8474  -15.9263   25.7626 O   0  0  0  0  0  0  0  0  0  0  0  0
    7.9239  -12.6162   27.2661 O   0  0  0  0  0  0  0  0  0  0  0  0
    9.1636  -12.6505   27.9177 C   0  0  0  0  0  0  0  0  0  0  0  0
    9.8728  -13.8955   27.4230 C   0  0  2  0  0  0  0  0  0  0  0  0
    9.1420  -14.5228   26.3444 N   0  0  0  0  0  0  0  0  0  0  0  0
   10.0642  -14.8852   28.4927 C   0  0  0  0  0  0  0  0  0  0  0  0
    9.5576  -16.0158   28.4016 O   0  0  0  0  0  0  0  0  0  0  0  0
   10.8103  -14.5548   29.6016 O   0  0  0  0  0  0  0  0  0  0  0  0
  2  1  1  6
  2  7  1  0
  3  4  1  0
  3  2  1  0
  5  4  1  0
  6  5  2  0
  7  8  2  0
  7 13  1  0
  9  5  1  0
 10 11  1  0
 12 14  1  0
 12 11  1  1
 13 12  1  0
 14 19  1  0
 15 14  2  0
 16 17  1  0
 18 17  1  1
 18 20  1  0
 19 18  1  0
 20 21  2  0
 20 22  1  0
M  END
$$$$
