ESS.pdb
     RDKit          3D

 22 21  0  0  1  0  0  0  0  0999 V2000
    8.4729  -17.5614   15.3753 N   0  0  0  0  0  0  0  0  0  0  0  0
    8.2742  -18.4619   16.4941 C   0  0  1  0  0  0  0  0  0  0  0  0
    9.2488  -19.5944   16.4621 C   0  0  0  0  0  0  0  0  0  0  0  0
   10.6709  -19.2207   16.6681 C   0  0  0  0  0  0  0  0  0  0  0  0
   11.5970  -20.3548   16.5438 C   0  0  0  0  0  0  0  0  0  0  0  0
   11.2464  -21.5130   16.2517 O   0  0  0  0  0  0  0  0  0  0  0  0
    8.4036  -17.7439   17.7937 C   0  0  0  0  0  0  0  0  0  0  0  0
    9.3666  -16.9522   17.9493 O   0  0  0  0  0  0  0  0  0  0  0  0
   12.9684  -20.1568   16.7611 O   0  0  0  0  0  0  0  0  0  0  0  0
    5.8136  -18.3565   21.0727 O   0  0  0  0  0  0  0  0  0  0  0  0
    6.3382  -17.0835   20.8655 C   0  0  0  0  0  0  0  0  0  0  0  0
    7.6563  -17.1664   20.1014 C   0  0  2  0  0  0  0  0  0  0  0  0
    7.5008  -17.8962   18.8808 N   0  0  0  0  0  0  0  0  0  0  0  0
    8.6923  -17.7202   20.9959 C   0  0  0  0  0  0  0  0  0  0  0  0
    8.9978  -18.9308   20.8438 O   0  0  0  0  0  0  0  0  0  0  0  0
   10.4037  -15.5180   23.9922 O   0  0  0  0  0  0  0  0  0  0  0  0
   11.2453  -16.5174   23.4869 C   0  0  0  0  0  0  0  0  0  0  0  0
   10.3407  -17.5789   22.8932 C   0  0  2  0  0  0  0  0  0  0  0  0
    9.3614  -16.9965   22.0029 N   0  0  0  0  0  0  0  0  0  0  0  0
    9.6314  -18.3438   23.9288 C   0  0  0  0  0  0  0  0  0  0  0  0
    8.4036  -18.2202   24.0719 O   0  0  0  0  0  0  0  0  0  0  0  0
   10.3344  -19.2021   24.7440 O   0  0  0  0  0  0  0  0  0  0  0  0
  2  1  1  6
  2  7  1  0
  3  4  1  0
  3  2  1  0
  5  4  1  0
  6  5  2  0
  7  8  2  0
  7 13  1  0
  9  5  1  0
 10 11  1  0
 12 14  1  0
 12 11  1  1
 13 12  1  0
 14 19  1  0
 15 14  2  0
 16 17  1  0
 18 17  1  1
 18 20  1  0
 19 18  1  0
 20 21  2  0
 20 22  1  0
M  END
$$$$
