ESS.pdb
     RDKit          3D

 22 21  0  0  1  0  0  0  0  0999 V2000
   11.6742  -15.4479   17.1934 N   0  0  0  0  0  0  0  0  0  0  0  0
   12.2140  -15.8477   18.4783 C   0  0  1  0  0  0  0  0  0  0  0  0
   13.2379  -14.8747   18.9661 C   0  0  0  0  0  0  0  0  0  0  0  0
   14.5842  -15.0013   18.3529 C   0  0  0  0  0  0  0  0  0  0  0  0
   15.5972  -14.1449   18.9850 C   0  0  0  0  0  0  0  0  0  0  0  0
   16.1442  -14.3988   20.0740 O   0  0  0  0  0  0  0  0  0  0  0  0
   11.1362  -15.9746   19.4999 C   0  0  0  0  0  0  0  0  0  0  0  0
   10.2298  -15.1051   19.5281 O   0  0  0  0  0  0  0  0  0  0  0  0
   15.9967  -12.9598   18.3502 O   0  0  0  0  0  0  0  0  0  0  0  0
   10.5164  -19.3902   21.8880 O   0  0  0  0  0  0  0  0  0  0  0  0
    9.4853  -18.5076   21.5772 C   0  0  0  0  0  0  0  0  0  0  0  0
   10.0228  -17.0868   21.4341 C   0  0  2  0  0  0  0  0  0  0  0  0
   11.0641  -17.0247   20.4550 N   0  0  0  0  0  0  0  0  0  0  0  0
   10.4298  -16.5942   22.7652 C   0  0  0  0  0  0  0  0  0  0  0  0
   11.6633  -16.5117   22.9967 O   0  0  0  0  0  0  0  0  0  0  0  0
    8.4445  -14.1355   25.2728 O   0  0  0  0  0  0  0  0  0  0  0  0
    8.8286  -15.3024   25.9461 C   0  0  0  0  0  0  0  0  0  0  0  0
    9.9616  -15.9075   25.1412 C   0  0  2  0  0  0  0  0  0  0  0  0
    9.5430  -16.2113   23.7909 N   0  0  0  0  0  0  0  0  0  0  0  0
   10.4810  -17.1378   25.7553 C   0  0  0  0  0  0  0  0  0  0  0  0
   10.4524  -18.2123   25.1324 O   0  0  0  0  0  0  0  0  0  0  0  0
   11.0021  -17.0967   27.0290 O   0  0  0  0  0  0  0  0  0  0  0  0
  2  1  1  6
  2  7  1  0
  3  4  1  0
  3  2  1  0
  5  4  1  0
  6  5  2  0
  7  8  2  0
  7 13  1  0
  9  5  1  0
 10 11  1  0
 12 14  1  0
 12 11  1  1
 13 12  1  0
 14 19  1  0
 15 14  2  0
 16 17  1  0
 18 17  1  1
 18 20  1  0
 19 18  1  0
 20 21  2  0
 20 22  1  0
M  END
$$$$
