ESS.pdb
     RDKit          3D

 22 21  0  0  1  0  0  0  0  0999 V2000
    9.9453  -15.7391   15.9447 N   0  0  0  0  0  0  0  0  0  0  0  0
   10.3856  -16.7136   16.9238 C   0  0  1  0  0  0  0  0  0  0  0  0
   11.6528  -17.3809   16.4971 C   0  0  0  0  0  0  0  0  0  0  0  0
   12.4603  -16.6400   15.4953 C   0  0  0  0  0  0  0  0  0  0  0  0
   12.9332  -17.4818   14.3878 C   0  0  0  0  0  0  0  0  0  0  0  0
   12.2754  -17.7121   13.3564 O   0  0  0  0  0  0  0  0  0  0  0  0
   10.5925  -16.0819   18.2578 C   0  0  0  0  0  0  0  0  0  0  0  0
   11.7003  -15.5416   18.5013 O   0  0  0  0  0  0  0  0  0  0  0  0
   14.1999  -18.0793   14.4633 O   0  0  0  0  0  0  0  0  0  0  0  0
    7.5943  -15.8148   21.2453 O   0  0  0  0  0  0  0  0  0  0  0  0
    8.5760  -14.8342   21.1298 C   0  0  0  0  0  0  0  0  0  0  0  0
    9.8565  -15.4258   20.5482 C   0  0  2  0  0  0  0  0  0  0  0  0
    9.6100  -16.0492   19.2843 N   0  0  0  0  0  0  0  0  0  0  0  0
   10.4617  -16.3290   21.5473 C   0  0  0  0  0  0  0  0  0  0  0  0
   10.2932  -17.5646   21.3839 O   0  0  0  0  0  0  0  0  0  0  0  0
   13.1548  -15.0201   24.1839 O   0  0  0  0  0  0  0  0  0  0  0  0
   13.1729  -16.4131   24.0360 C   0  0  0  0  0  0  0  0  0  0  0  0
   11.7666  -16.8201   23.6431 C   0  0  2  0  0  0  0  0  0  0  0  0
   11.2106  -15.9114   22.6653 N   0  0  0  0  0  0  0  0  0  0  0  0
   10.8613  -16.8696   24.8000 C   0  0  0  0  0  0  0  0  0  0  0  0
    9.8453  -16.1555   24.8347 O   0  0  0  0  0  0  0  0  0  0  0  0
   11.1431  -17.7137   25.8505 O   0  0  0  0  0  0  0  0  0  0  0  0
  2  1  1  6
  2  7  1  0
  3  4  1  0
  3  2  1  0
  5  4  1  0
  6  5  2  0
  7  8  2  0
  7 13  1  0
  9  5  1  0
 10 11  1  0
 12 14  1  0
 12 11  1  1
 13 12  1  0
 14 19  1  0
 15 14  2  0
 16 17  1  0
 18 17  1  1
 18 20  1  0
 19 18  1  0
 20 21  2  0
 20 22  1  0
M  END
$$$$
