ESS.pdb
     RDKit          3D

 22 21  0  0  1  0  0  0  0  0999 V2000
   -2.2861  -28.0940   26.3312 N   0  0  0  0  0  0  0  0  0  0  0  0
   -3.3940  -28.3028   27.2430 C   0  0  1  0  0  0  0  0  0  0  0  0
   -2.9272  -28.3741   28.6608 C   0  0  0  0  0  0  0  0  0  0  0  0
   -2.1781  -27.1885   29.1482 C   0  0  0  0  0  0  0  0  0  0  0  0
   -1.5435  -27.3958   30.4572 C   0  0  0  0  0  0  0  0  0  0  0  0
   -0.4473  -27.9632   30.6190 O   0  0  0  0  0  0  0  0  0  0  0  0
   -4.4076  -27.2173   27.1173 C   0  0  0  0  0  0  0  0  0  0  0  0
   -4.0282  -26.0827   26.7337 O   0  0  0  0  0  0  0  0  0  0  0  0
   -2.1842  -26.9391   31.6182 O   0  0  0  0  0  0  0  0  0  0  0  0
   -8.4205  -27.4145   28.4872 O   0  0  0  0  0  0  0  0  0  0  0  0
   -8.1715  -26.8869   27.2229 C   0  0  0  0  0  0  0  0  0  0  0  0
   -6.7456  -26.3507   27.1388 C   0  0  2  0  0  0  0  0  0  0  0  0
   -5.7896  -27.3812   27.4054 N   0  0  0  0  0  0  0  0  0  0  0  0
   -6.6220  -25.1814   28.0319 C   0  0  0  0  0  0  0  0  0  0  0  0
   -6.1490  -25.3807   29.1801 O   0  0  0  0  0  0  0  0  0  0  0  0
   -7.1873  -21.2830   26.7937 O   0  0  0  0  0  0  0  0  0  0  0  0
   -6.3186  -21.5200   27.8668 C   0  0  0  0  0  0  0  0  0  0  0  0
   -6.8558  -22.7383   28.5913 C   0  0  2  0  0  0  0  0  0  0  0  0
   -6.9929  -23.8645   27.6949 N   0  0  0  0  0  0  0  0  0  0  0  0
   -8.1606  -22.4795   29.2165 C   0  0  0  0  0  0  0  0  0  0  0  0
   -9.1678  -23.1100   28.8540 O   0  0  0  0  0  0  0  0  0  0  0  0
   -8.2647  -21.5322   30.2101 O   0  0  0  0  0  0  0  0  0  0  0  0
  2  1  1  6
  2  7  1  0
  3  4  1  0
  3  2  1  0
  5  4  1  0
  6  5  2  0
  7  8  2  0
  7 13  1  0
  9  5  1  0
 10 11  1  0
 12 14  1  0
 12 11  1  1
 13 12  1  0
 14 19  1  0
 15 14  2  0
 16 17  1  0
 18 17  1  6
 18 20  1  0
 19 18  1  0
 20 21  2  0
 20 22  1  0
M  END
$$$$
