ESS.pdb
     RDKit          3D

 22 21  0  0  1  0  0  0  0  0999 V2000
   12.0009  -18.1842   18.4069 N   0  0  0  0  0  0  0  0  0  0  0  0
   12.7590  -18.5224   19.5957 C   0  0  1  0  0  0  0  0  0  0  0  0
   14.2249  -18.5771   19.3103 C   0  0  0  0  0  0  0  0  0  0  0  0
   14.6012  -19.1862   18.0096 C   0  0  0  0  0  0  0  0  0  0  0  0
   16.0520  -19.2215   17.7789 C   0  0  0  0  0  0  0  0  0  0  0  0
   16.7837  -20.1812   18.0842 O   0  0  0  0  0  0  0  0  0  0  0  0
   12.5115  -17.5415   20.6901 C   0  0  0  0  0  0  0  0  0  0  0  0
   13.4519  -16.7879   21.0453 O   0  0  0  0  0  0  0  0  0  0  0  0
   16.6855  -18.1231   17.1795 O   0  0  0  0  0  0  0  0  0  0  0  0
    8.7721  -17.0680   22.5836 O   0  0  0  0  0  0  0  0  0  0  0  0
    9.6221  -15.9720   22.4614 C   0  0  0  0  0  0  0  0  0  0  0  0
   11.0768  -16.4280   22.3988 C   0  0  2  0  0  0  0  0  0  0  0  0
   11.2696  -17.3996   21.3665 N   0  0  0  0  0  0  0  0  0  0  0  0
   11.4885  -16.8953   23.7377 C   0  0  0  0  0  0  0  0  0  0  0  0
   11.9338  -18.0681   23.8270 O   0  0  0  0  0  0  0  0  0  0  0  0
   12.7424  -16.1468   28.2973 O   0  0  0  0  0  0  0  0  0  0  0  0
   12.3549  -15.5350   27.0981 C   0  0  0  0  0  0  0  0  0  0  0  0
   11.7806  -16.6321   26.2240 C   0  0  2  0  0  0  0  0  0  0  0  0
   11.4198  -16.1282   24.9176 N   0  0  0  0  0  0  0  0  0  0  0  0
   10.5935  -17.2553   26.8266 C   0  0  0  0  0  0  0  0  0  0  0  0
   10.7173  -18.1317   27.6983 O   0  0  0  0  0  0  0  0  0  0  0  0
    9.3376  -16.8635   26.4208 O   0  0  0  0  0  0  0  0  0  0  0  0
  2  1  1  6
  2  7  1  0
  3  4  1  0
  3  2  1  0
  5  4  1  0
  6  5  2  0
  7  8  2  0
  7 13  1  0
  9  5  1  0
 10 11  1  0
 12 14  1  0
 12 11  1  1
 13 12  1  0
 14 19  1  0
 15 14  2  0
 16 17  1  0
 18 17  1  1
 18 20  1  0
 19 18  1  0
 20 21  2  0
 20 22  1  0
M  END
$$$$
