ESS.pdb
     RDKit          3D

 22 21  0  0  1  0  0  0  0  0999 V2000
    9.0413  -17.2267   16.3139 N   0  0  0  0  0  0  0  0  0  0  0  0
    8.3284  -17.6385   17.5073 C   0  0  1  0  0  0  0  0  0  0  0  0
    8.4853  -19.1033   17.7580 C   0  0  0  0  0  0  0  0  0  0  0  0
    9.7663  -19.6974   17.2991 C   0  0  0  0  0  0  0  0  0  0  0  0
    9.8490  -21.1482   17.5173 C   0  0  0  0  0  0  0  0  0  0  0  0
    9.5198  -22.0007   16.6720 O   0  0  0  0  0  0  0  0  0  0  0  0
    8.8004  -16.8857   18.7040 C   0  0  0  0  0  0  0  0  0  0  0  0
   10.0363  -16.8085   18.9161 O   0  0  0  0  0  0  0  0  0  0  0  0
   10.3238  -21.6388   18.7425 O   0  0  0  0  0  0  0  0  0  0  0  0
    6.3317  -15.6694   21.8547 O   0  0  0  0  0  0  0  0  0  0  0  0
    7.3133  -14.7612   21.4669 C   0  0  0  0  0  0  0  0  0  0  0  0
    8.4415  -15.4760   20.7292 C   0  0  2  0  0  0  0  0  0  0  0  0
    7.9368  -16.2422   19.6315 N   0  0  0  0  0  0  0  0  0  0  0  0
    9.2180  -16.2717   21.7008 C   0  0  0  0  0  0  0  0  0  0  0  0
    9.0050  -17.5108   21.7320 O   0  0  0  0  0  0  0  0  0  0  0  0
   12.8896  -16.4141   22.3581 O   0  0  0  0  0  0  0  0  0  0  0  0
   12.3540  -16.1563   23.6266 C   0  0  0  0  0  0  0  0  0  0  0  0
   10.8911  -16.5481   23.5612 C   0  0  2  0  0  0  0  0  0  0  0  0
   10.1759  -15.7483   22.5918 N   0  0  0  0  0  0  0  0  0  0  0  0
   10.2225  -16.4097   24.8628 C   0  0  0  0  0  0  0  0  0  0  0  0
    9.2713  -15.6225   25.0008 O   0  0  0  0  0  0  0  0  0  0  0  0
   10.6548  -17.1583   25.9343 O   0  0  0  0  0  0  0  0  0  0  0  0
  2  1  1  6
  2  7  1  0
  3  4  1  0
  3  2  1  0
  5  4  1  0
  6  5  2  0
  7  8  2  0
  7 13  1  0
  9  5  1  0
 10 11  1  0
 12 14  1  0
 12 11  1  1
 13 12  1  0
 14 19  1  0
 15 14  2  0
 16 17  1  0
 18 17  1  1
 18 20  1  0
 19 18  1  0
 20 21  2  0
 20 22  1  0
M  END
$$$$
