ESS.pdb
     RDKit          3D

 22 21  0  0  1  0  0  0  0  0999 V2000
   11.0629  -19.3062   17.5944 N   0  0  0  0  0  0  0  0  0  0  0  0
   12.2452  -18.4911   17.3945 C   0  0  1  0  0  0  0  0  0  0  0  0
   12.1915  -17.7634   16.0903 C   0  0  0  0  0  0  0  0  0  0  0  0
   11.4155  -18.4324   15.0157 C   0  0  0  0  0  0  0  0  0  0  0  0
   11.4599  -17.7189   13.7320 C   0  0  0  0  0  0  0  0  0  0  0  0
   12.4779  -17.6231   13.0220 O   0  0  0  0  0  0  0  0  0  0  0  0
   12.4118  -17.5029   18.4977 C   0  0  0  0  0  0  0  0  0  0  0  0
   13.3622  -16.6840   18.4322 O   0  0  0  0  0  0  0  0  0  0  0  0
   10.3018  -17.0949   13.2454 O   0  0  0  0  0  0  0  0  0  0  0  0
   10.0614  -17.4744   22.0351 O   0  0  0  0  0  0  0  0  0  0  0  0
   10.5408  -16.2708   21.5250 C   0  0  0  0  0  0  0  0  0  0  0  0
   11.8027  -16.5046   20.7000 C   0  0  2  0  0  0  0  0  0  0  0  0
   11.5583  -17.4240   19.6315 N   0  0  0  0  0  0  0  0  0  0  0  0
   12.8933  -16.9218   21.6038 C   0  0  0  0  0  0  0  0  0  0  0  0
   13.1209  -18.1549   21.7013 O   0  0  0  0  0  0  0  0  0  0  0  0
   16.3364  -15.2188   22.2142 O   0  0  0  0  0  0  0  0  0  0  0  0
   15.7828  -15.4404   23.4819 C   0  0  0  0  0  0  0  0  0  0  0  0
   14.7021  -16.4876   23.2997 C   0  0  2  0  0  0  0  0  0  0  0  0
   13.6945  -16.0450   22.3619 N   0  0  0  0  0  0  0  0  0  0  0  0
   14.0408  -16.8266   24.5679 C   0  0  0  0  0  0  0  0  0  0  0  0
   14.6604  -17.4324   25.4581 O   0  0  0  0  0  0  0  0  0  0  0  0
   12.7263  -16.4694   24.7681 O   0  0  0  0  0  0  0  0  0  0  0  0
  2  1  1  1
  2  7  1  0
  3  4  1  0
  3  2  1  0
  5  4  1  0
  6  5  2  0
  7  8  2  0
  7 13  1  0
  9  5  1  0
 10 11  1  0
 12 14  1  0
 12 11  1  1
 13 12  1  0
 14 19  1  0
 15 14  2  0
 16 17  1  0
 18 17  1  1
 18 20  1  0
 19 18  1  0
 20 21  2  0
 20 22  1  0
M  END
$$$$
