ESS.pdb
     RDKit          3D

 22 21  0  0  1  0  0  0  0  0999 V2000
   13.4779  -16.5026   14.3357 N   0  0  0  0  0  0  0  0  0  0  0  0
   12.8728  -15.5910   15.2871 C   0  0  1  0  0  0  0  0  0  0  0  0
   11.3867  -15.5517   15.1352 C   0  0  0  0  0  0  0  0  0  0  0  0
   10.7099  -16.8732   15.1207 C   0  0  0  0  0  0  0  0  0  0  0  0
    9.2551  -16.7826   14.9345 C   0  0  0  0  0  0  0  0  0  0  0  0
    8.4418  -17.6131   15.3799 O   0  0  0  0  0  0  0  0  0  0  0  0
   13.2099  -15.9718   16.6880 C   0  0  0  0  0  0  0  0  0  0  0  0
   13.3660  -17.1887   16.9587 O   0  0  0  0  0  0  0  0  0  0  0  0
    8.7141  -15.7069   14.2153 O   0  0  0  0  0  0  0  0  0  0  0  0
   15.0496  -13.4108   19.2297 O   0  0  0  0  0  0  0  0  0  0  0  0
   15.1142  -14.7865   19.4349 C   0  0  0  0  0  0  0  0  0  0  0  0
   13.7920  -15.4463   19.0550 C   0  0  2  0  0  0  0  0  0  0  0  0
   13.3684  -15.0407   17.7501 N   0  0  0  0  0  0  0  0  0  0  0  0
   12.7997  -15.1706   20.1132 C   0  0  0  0  0  0  0  0  0  0  0  0
   11.9455  -14.2766   19.8833 O   0  0  0  0  0  0  0  0  0  0  0  0
    9.4066  -15.9588   22.7863 O   0  0  0  0  0  0  0  0  0  0  0  0
   10.3380  -16.0832   21.7473 C   0  0  0  0  0  0  0  0  0  0  0  0
   11.6728  -15.6420   22.3141 C   0  0  2  0  0  0  0  0  0  0  0  0
   12.7390  -15.8317   21.3560 N   0  0  0  0  0  0  0  0  0  0  0  0
   12.0185  -16.3677   23.5447 C   0  0  0  0  0  0  0  0  0  0  0  0
   11.2849  -16.2953   24.5447 O   0  0  0  0  0  0  0  0  0  0  0  0
   13.1628  -17.1320   23.5869 O   0  0  0  0  0  0  0  0  0  0  0  0
  2  1  1  6
  2  7  1  0
  3  4  1  0
  3  2  1  0
  5  4  1  0
  6  5  2  0
  7  8  2  0
  7 13  1  0
  9  5  1  0
 10 11  1  0
 12 14  1  0
 12 11  1  1
 13 12  1  0
 14 19  1  0
 15 14  2  0
 16 17  1  0
 18 17  1  6
 18 20  1  0
 19 18  1  0
 20 21  2  0
 20 22  1  0
M  END
$$$$
