IGD.pdb
     RDKit          3D

 21 20  0  0  1  0  0  0  0  0999 V2000
    7.5804  -11.1686   26.7747 C   0  0  0  0  0  0  0  0  0  0  0  0
    7.6486  -12.7013   26.7189 C   0  0  0  0  0  0  0  0  0  0  0  0
    6.6858  -13.1274   25.6616 C   0  0  2  0  0  0  0  0  0  0  0  0
    5.2861  -12.7597   26.1333 C   0  0  0  0  0  0  0  0  0  0  0  0
    6.7721  -14.5783   25.2803 C   0  0  2  0  0  0  0  0  0  0  0  0
    6.5435  -15.3398   26.5024 N   0  0  0  0  0  0  0  0  0  0  0  0
    8.0363  -14.9589   24.6257 C   0  0  0  0  0  0  0  0  0  0  0  0
    9.0595  -15.2121   25.3075 O   0  0  0  0  0  0  0  0  0  0  0  0
    8.1460  -15.0536   23.2120 N   0  0  0  0  0  0  0  0  0  0  0  0
    9.4128  -15.1067   22.5078 C   0  0  0  0  0  0  0  0  0  0  0  0
   10.0687  -16.4017   22.8600 C   0  0  0  0  0  0  0  0  0  0  0  0
    9.3943  -17.3880   23.3095 O   0  0  0  0  0  0  0  0  0  0  0  0
   11.4617  -16.6227   22.7221 N   0  0  0  0  0  0  0  0  0  0  0  0
   12.0526  -17.9114   23.0664 C   0  0  1  0  0  0  0  0  0  0  0  0
   13.4724  -17.9989   22.5651 C   0  0  0  0  0  0  0  0  0  0  0  0
   13.5379  -17.9049   21.1005 C   0  0  0  0  0  0  0  0  0  0  0  0
   14.6612  -18.0330   20.5244 O   0  0  0  0  0  0  0  0  0  0  0  0
   11.9775  -18.0242   24.5672 C   0  0  0  0  0  0  0  0  0  0  0  0
   11.9923  -16.8472   25.3431 O   0  0  0  0  0  0  0  0  0  0  0  0
   12.4511  -17.6807   20.2797 O   0  0  0  0  0  0  0  0  0  0  0  0
   11.9023  -19.1018   25.1742 O   0  0  0  0  0  0  0  0  0  0  0  0
  1  2  1  0
  3  5  1  0
  3  2  1  0
  3  4  1  1
  5  6  1  1
  7  5  1  0
  7  8  2  0
  9  7  1  0
 10  9  1  0
 11 10  1  0
 12 11  2  0
 13 11  1  0
 14 13  1  0
 14 15  1  1
 15 16  1  0
 16 17  2  0
 18 14  1  0
 19 18  1  0
 20 16  1  0
 21 18  2  0
M  END
$$$$
