IGD.pdb
     RDKit          3D

 21 20  0  0  1  0  0  0  0  0999 V2000
    7.8176  -11.7490   20.0007 C   0  0  0  0  0  0  0  0  0  0  0  0
    7.6486  -13.0616   20.7789 C   0  0  0  0  0  0  0  0  0  0  0  0
    8.2786  -14.1282   19.9471 C   0  0  2  0  0  0  0  0  0  0  0  0
    7.4318  -14.3003   18.6941 C   0  0  0  0  0  0  0  0  0  0  0  0
    8.4836  -15.4381   20.6542 C   0  0  2  0  0  0  0  0  0  0  0  0
    7.1607  -15.9012   21.0557 N   0  0  0  0  0  0  0  0  0  0  0  0
    9.4112  -15.3714   21.7973 C   0  0  0  0  0  0  0  0  0  0  0  0
   10.6404  -15.1931   21.6150 O   0  0  0  0  0  0  0  0  0  0  0  0
    8.9559  -15.5048   23.1369 N   0  0  0  0  0  0  0  0  0  0  0  0
    9.8014  -15.2922   24.2961 C   0  0  0  0  0  0  0  0  0  0  0  0
   10.6729  -16.4963   24.4434 C   0  0  0  0  0  0  0  0  0  0  0  0
   10.2030  -17.6766   24.3182 O   0  0  0  0  0  0  0  0  0  0  0  0
   12.0589  -16.4144   24.7278 N   0  0  0  0  0  0  0  0  0  0  0  0
   12.8546  -17.6210   24.9262 C   0  0  1  0  0  0  0  0  0  0  0  0
   14.3281  -17.3010   24.8899 C   0  0  0  0  0  0  0  0  0  0  0  0
   14.6825  -16.5080   23.7052 C   0  0  0  0  0  0  0  0  0  0  0  0
   14.0993  -16.7502   22.6046 O   0  0  0  0  0  0  0  0  0  0  0  0
   12.4348  -18.1910   26.2564 C   0  0  0  0  0  0  0  0  0  0  0  0
   12.8217  -19.5050   26.5903 O   0  0  0  0  0  0  0  0  0  0  0  0
   15.6227  -15.4977   23.6903 O   0  0  0  0  0  0  0  0  0  0  0  0
   11.7606  -17.5700   27.0901 O   0  0  0  0  0  0  0  0  0  0  0  0
  1  2  1  0
  3  5  1  0
  3  2  1  0
  3  4  1  6
  5  6  1  1
  7  5  1  0
  7  8  2  0
  9  7  1  0
 10  9  1  0
 11 10  1  0
 12 11  2  0
 13 11  1  0
 14 13  1  0
 14 15  1  1
 15 16  1  0
 16 17  2  0
 18 14  1  0
 19 18  1  0
 20 16  1  0
 21 18  2  0
M  END
$$$$
