IGD.pdb
     RDKit          3D

 21 20  0  0  1  0  0  0  0  0999 V2000
    6.7764  -10.8417   26.8134 C   0  0  0  0  0  0  0  0  0  0  0  0
    7.0270  -12.3365   27.0582 C   0  0  0  0  0  0  0  0  0  0  0  0
    6.9415  -13.0015   25.7251 C   0  0  2  0  0  0  0  0  0  0  0  0
    5.5312  -12.7928   25.1921 C   0  0  0  0  0  0  0  0  0  0  0  0
    7.3188  -14.4560   25.7226 C   0  0  2  0  0  0  0  0  0  0  0  0
    8.5519  -14.5632   26.4931 N   0  0  0  0  0  0  0  0  0  0  0  0
    7.4595  -15.0435   24.3785 C   0  0  0  0  0  0  0  0  0  0  0  0
    6.4713  -15.5531   23.7957 O   0  0  0  0  0  0  0  0  0  0  0  0
    8.7060  -15.0563   23.6962 N   0  0  0  0  0  0  0  0  0  0  0  0
    8.8737  -15.5470   22.3417 C   0  0  0  0  0  0  0  0  0  0  0  0
    9.1648  -17.0097   22.4265 C   0  0  0  0  0  0  0  0  0  0  0  0
    8.8347  -17.8089   21.4873 O   0  0  0  0  0  0  0  0  0  0  0  0
    9.8167  -17.6027   23.5363 N   0  0  0  0  0  0  0  0  0  0  0  0
   11.1777  -18.1148   23.4188 C   0  0  1  0  0  0  0  0  0  0  0  0
   12.0688  -17.1101   22.7322 C   0  0  0  0  0  0  0  0  0  0  0  0
   12.9306  -17.7464   21.7269 C   0  0  0  0  0  0  0  0  0  0  0  0
   12.7922  -18.9857   21.4923 O   0  0  0  0  0  0  0  0  0  0  0  0
   11.6408  -18.4121   24.8215 C   0  0  0  0  0  0  0  0  0  0  0  0
   12.0343  -17.3436   25.6528 O   0  0  0  0  0  0  0  0  0  0  0  0
   13.9041  -17.0909   21.0006 O   0  0  0  0  0  0  0  0  0  0  0  0
   11.6993  -19.5535   25.3004 O   0  0  0  0  0  0  0  0  0  0  0  0
  1  2  1  0
  3  5  1  0
  3  2  1  0
  3  4  1  1
  5  6  1  6
  7  5  1  0
  7  8  2  0
  9  7  1  0
 10  9  1  0
 11 10  1  0
 12 11  2  0
 13 11  1  0
 14 13  1  0
 14 15  1  1
 15 16  1  0
 16 17  2  0
 18 14  1  0
 19 18  1  0
 20 16  1  0
 21 18  2  0
M  END
$$$$
