IGD.pdb
     RDKit          3D

 21 20  0  0  1  0  0  0  0  0999 V2000
    7.0323  -12.0114   19.0766 C   0  0  0  0  0  0  0  0  0  0  0  0
    7.1312  -13.5106   19.3927 C   0  0  0  0  0  0  0  0  0  0  0  0
    7.7082  -13.6143   20.7648 C   0  0  2  0  0  0  0  0  0  0  0  0
    9.0308  -12.8611   20.7702 C   0  0  0  0  0  0  0  0  0  0  0  0
    7.8754  -15.0188   21.2721 C   0  0  2  0  0  0  0  0  0  0  0  0
    6.5414  -15.6063   21.3058 N   0  0  0  0  0  0  0  0  0  0  0  0
    8.5499  -15.1152   22.5788 C   0  0  0  0  0  0  0  0  0  0  0  0
    9.7789  -14.8819   22.6838 O   0  0  0  0  0  0  0  0  0  0  0  0
    7.8433  -15.4721   23.7591 N   0  0  0  0  0  0  0  0  0  0  0  0
    8.4410  -15.4776   25.0806 C   0  0  0  0  0  0  0  0  0  0  0  0
    9.2217  -16.7440   25.2154 C   0  0  0  0  0  0  0  0  0  0  0  0
    8.6419  -17.8801   25.2686 O   0  0  0  0  0  0  0  0  0  0  0  0
   10.6365  -16.7727   25.2924 N   0  0  0  0  0  0  0  0  0  0  0  0
   11.3513  -18.0334   25.4604 C   0  0  1  0  0  0  0  0  0  0  0  0
   12.8270  -17.8480   25.2099 C   0  0  0  0  0  0  0  0  0  0  0  0
   13.0920  -17.3932   23.8384 C   0  0  0  0  0  0  0  0  0  0  0  0
   13.7844  -16.3449   23.6599 O   0  0  0  0  0  0  0  0  0  0  0  0
   11.0726  -18.4937   26.8679 C   0  0  0  0  0  0  0  0  0  0  0  0
   10.8779  -19.8686   27.1120 O   0  0  0  0  0  0  0  0  0  0  0  0
   12.6363  -18.0270   22.7002 O   0  0  0  0  0  0  0  0  0  0  0  0
   11.0022  -17.7302   27.8413 O   0  0  0  0  0  0  0  0  0  0  0  0
  1  2  1  0
  3  5  1  0
  3  2  1  0
  3  4  1  6
  5  6  1  1
  7  5  1  0
  7  8  2  0
  9  7  1  0
 10  9  1  0
 11 10  1  0
 12 11  2  0
 13 11  1  0
 14 13  1  0
 14 15  1  1
 15 16  1  0
 16 17  2  0
 18 14  1  0
 19 18  1  0
 20 16  1  0
 21 18  2  0
M  END
$$$$
