IGD.pdb
     RDKit          3D

 21 20  0  0  1  0  0  0  0  0999 V2000
    7.1155  -11.2888   27.4202 C   0  0  0  0  0  0  0  0  0  0  0  0
    6.4635  -12.6318   27.0621 C   0  0  0  0  0  0  0  0  0  0  0  0
    7.2524  -13.1933   25.9269 C   0  0  2  0  0  0  0  0  0  0  0  0
    7.2405  -12.1683   24.8017 C   0  0  0  0  0  0  0  0  0  0  0  0
    6.7913  -14.5402   25.4460 C   0  0  2  0  0  0  0  0  0  0  0  0
    6.9876  -15.4637   26.5570 N   0  0  0  0  0  0  0  0  0  0  0  0
    7.4610  -15.0080   24.2195 C   0  0  0  0  0  0  0  0  0  0  0  0
    7.2565  -14.4367   23.1206 O   0  0  0  0  0  0  0  0  0  0  0  0
    8.3551  -16.1125   24.2322 N   0  0  0  0  0  0  0  0  0  0  0  0
    9.0747  -16.5751   23.0608 C   0  0  0  0  0  0  0  0  0  0  0  0
   10.5146  -16.6995   23.4382 C   0  0  0  0  0  0  0  0  0  0  0  0
   11.0030  -16.0483   24.4215 O   0  0  0  0  0  0  0  0  0  0  0  0
   11.4240  -17.5350   22.7430 N   0  0  0  0  0  0  0  0  0  0  0  0
   12.8196  -17.6301   23.1576 C   0  0  1  0  0  0  0  0  0  0  0  0
   13.4417  -18.9068   22.6498 C   0  0  0  0  0  0  0  0  0  0  0  0
   12.6589  -20.0861   23.0429 C   0  0  0  0  0  0  0  0  0  0  0  0
   12.3772  -20.2581   24.2681 O   0  0  0  0  0  0  0  0  0  0  0  0
   13.5093  -16.4093   22.6057 C   0  0  0  0  0  0  0  0  0  0  0  0
   14.7600  -16.0320   23.1360 O   0  0  0  0  0  0  0  0  0  0  0  0
   12.1955  -21.0473   22.1675 O   0  0  0  0  0  0  0  0  0  0  0  0
   13.0415  -15.7036   21.7011 O   0  0  0  0  0  0  0  0  0  0  0  0
  1  2  1  0
  3  5  1  0
  3  2  1  0
  3  4  1  6
  5  6  1  1
  7  5  1  0
  7  8  2  0
  9  7  1  0
 10  9  1  0
 11 10  1  0
 12 11  2  0
 13 11  1  0
 14 13  1  0
 14 15  1  6
 15 16  1  0
 16 17  2  0
 18 14  1  0
 19 18  1  0
 20 16  1  0
 21 18  2  0
M  END
$$$$
