IGD.pdb
     RDKit          3D

 21 20  0  0  1  0  0  0  0  0999 V2000
    7.2130  -11.9564   20.2355 C   0  0  0  0  0  0  0  0  0  0  0  0
    7.5049  -13.3380   20.8380 C   0  0  0  0  0  0  0  0  0  0  0  0
    8.3186  -14.0747   19.8272 C   0  0  2  0  0  0  0  0  0  0  0  0
    7.5015  -14.1586   18.5457 C   0  0  0  0  0  0  0  0  0  0  0  0
    8.7891  -15.4322   20.2670 C   0  0  2  0  0  0  0  0  0  0  0  0
    7.5921  -16.1956   20.5990 N   0  0  0  0  0  0  0  0  0  0  0  0
    9.7509  -15.4083   21.3833 C   0  0  0  0  0  0  0  0  0  0  0  0
   10.8914  -14.9050   21.2351 O   0  0  0  0  0  0  0  0  0  0  0  0
    9.4290  -15.9481   22.6578 N   0  0  0  0  0  0  0  0  0  0  0  0
   10.3403  -15.9385   23.7861 C   0  0  0  0  0  0  0  0  0  0  0  0
   11.5171  -16.7828   23.4204 C   0  0  0  0  0  0  0  0  0  0  0  0
   11.7140  -17.1639   22.2180 O   0  0  0  0  0  0  0  0  0  0  0  0
   12.4810  -17.2126   24.3662 N   0  0  0  0  0  0  0  0  0  0  0  0
   13.8689  -17.4312   23.9735 C   0  0  1  0  0  0  0  0  0  0  0  0
   14.4948  -16.1479   23.4873 C   0  0  0  0  0  0  0  0  0  0  0  0
   15.9199  -16.3225   23.1765 C   0  0  0  0  0  0  0  0  0  0  0  0
   16.2493  -16.9960   22.1527 O   0  0  0  0  0  0  0  0  0  0  0  0
   14.5725  -17.9752   25.1900 C   0  0  0  0  0  0  0  0  0  0  0  0
   14.2115  -17.4892   26.4632 O   0  0  0  0  0  0  0  0  0  0  0  0
   16.9555  -15.8033   23.9267 O   0  0  0  0  0  0  0  0  0  0  0  0
   15.4623  -18.8362   25.1437 O   0  0  0  0  0  0  0  0  0  0  0  0
  1  2  1  0
  3  5  1  0
  3  2  1  0
  3  4  1  6
  5  6  1  1
  7  5  1  0
  7  8  2  0
  9  7  1  0
 10  9  1  0
 11 10  1  0
 12 11  2  0
 13 11  1  0
 14 13  1  0
 14 15  1  1
 15 16  1  0
 16 17  2  0
 18 14  1  0
 19 18  1  0
 20 16  1  0
 21 18  2  0
M  END
$$$$
