IGD.pdb
     RDKit          3D

 21 20  0  0  1  0  0  0  0  0999 V2000
    6.8561  -11.2704   27.4432 C   0  0  0  0  0  0  0  0  0  0  0  0
    6.4340  -12.7159   27.1443 C   0  0  0  0  0  0  0  0  0  0  0  0
    7.0471  -13.0704   25.8309 C   0  0  2  0  0  0  0  0  0  0  0  0
    6.5021  -12.1043   24.7886 C   0  0  0  0  0  0  0  0  0  0  0  0
    6.8497  -14.4993   25.4100 C   0  0  2  0  0  0  0  0  0  0  0  0
    7.3946  -15.3237   26.4820 N   0  0  0  0  0  0  0  0  0  0  0  0
    7.4449  -14.8344   24.1042 C   0  0  0  0  0  0  0  0  0  0  0  0
    6.7250  -15.2302   23.1550 O   0  0  0  0  0  0  0  0  0  0  0  0
    8.8423  -14.7240   23.8704 N   0  0  0  0  0  0  0  0  0  0  0  0
    9.4567  -14.9288   22.5726 C   0  0  0  0  0  0  0  0  0  0  0  0
   10.1164  -16.2689   22.5943 C   0  0  0  0  0  0  0  0  0  0  0  0
   10.7883  -16.6955   21.5961 O   0  0  0  0  0  0  0  0  0  0  0  0
   10.0440  -17.1457   23.7053 N   0  0  0  0  0  0  0  0  0  0  0  0
   10.7118  -18.4425   23.6798 C   0  0  1  0  0  0  0  0  0  0  0  0
   11.0519  -18.8957   25.0776 C   0  0  0  0  0  0  0  0  0  0  0  0
   12.2809  -18.2596   25.5707 C   0  0  0  0  0  0  0  0  0  0  0  0
   12.9118  -17.4650   24.8088 O   0  0  0  0  0  0  0  0  0  0  0  0
    9.7646  -19.3932   22.9945 C   0  0  0  0  0  0  0  0  0  0  0  0
    8.3781  -19.1476   23.0664 O   0  0  0  0  0  0  0  0  0  0  0  0
   12.8200  -18.4625   26.8250 O   0  0  0  0  0  0  0  0  0  0  0  0
   10.1305  -20.3935   22.3614 O   0  0  0  0  0  0  0  0  0  0  0  0
  1  2  1  0
  3  5  1  0
  3  2  1  0
  3  4  1  6
  5  6  1  1
  7  5  1  0
  7  8  2  0
  9  7  1  0
 10  9  1  0
 11 10  1  0
 12 11  2  0
 13 11  1  0
 14 13  1  0
 14 15  1  1
 15 16  1  0
 16 17  2  0
 18 14  1  0
 19 18  1  0
 20 16  1  0
 21 18  2  0
M  END
$$$$
