IGD.pdb
     RDKit          3D

 21 20  0  0  1  0  0  0  0  0999 V2000
    7.4289  -11.8488   19.1288 C   0  0  0  0  0  0  0  0  0  0  0  0
    7.2795  -13.1424   19.9421 C   0  0  0  0  0  0  0  0  0  0  0  0
    8.5333  -13.9222   19.7266 C   0  0  2  0  0  0  0  0  0  0  0  0
    8.5786  -14.3324   18.2615 C   0  0  0  0  0  0  0  0  0  0  0  0
    8.6995  -15.1089   20.6333 C   0  0  2  0  0  0  0  0  0  0  0  0
    7.5902  -16.0089   20.3415 N   0  0  0  0  0  0  0  0  0  0  0  0
    8.7695  -14.7719   22.0662 C   0  0  0  0  0  0  0  0  0  0  0  0
    9.7354  -14.1127   22.5225 O   0  0  0  0  0  0  0  0  0  0  0  0
    7.7572  -15.1756   22.9783 N   0  0  0  0  0  0  0  0  0  0  0  0
    7.7128  -14.7532   24.3652 C   0  0  0  0  0  0  0  0  0  0  0  0
    8.8335  -15.4358   25.0789 C   0  0  0  0  0  0  0  0  0  0  0  0
    8.8851  -15.4731   26.3539 O   0  0  0  0  0  0  0  0  0  0  0  0
    9.8998  -16.0790   24.4024 N   0  0  0  0  0  0  0  0  0  0  0  0
   10.8337  -16.9375   25.1231 C   0  0  1  0  0  0  0  0  0  0  0  0
   10.3133  -18.3514   25.1940 C   0  0  0  0  0  0  0  0  0  0  0  0
   11.1858  -19.2110   26.0052 C   0  0  0  0  0  0  0  0  0  0  0  0
   12.0053  -19.9836   25.4207 O   0  0  0  0  0  0  0  0  0  0  0  0
   12.1427  -16.8559   24.3812 C   0  0  0  0  0  0  0  0  0  0  0  0
   12.1735  -16.2380   23.1143 O   0  0  0  0  0  0  0  0  0  0  0  0
   11.1854  -19.2498   27.3848 O   0  0  0  0  0  0  0  0  0  0  0  0
   13.2118  -17.3038   24.8190 O   0  0  0  0  0  0  0  0  0  0  0  0
  1  2  1  0
  3  5  1  0
  3  2  1  0
  3  4  1  6
  5  6  1  1
  7  5  1  0
  7  8  2  0
  9  7  1  0
 10  9  1  0
 11 10  1  0
 12 11  2  0
 13 11  1  0
 14 13  1  0
 14 15  1  6
 15 16  1  0
 16 17  2  0
 18 14  1  0
 19 18  1  0
 20 16  1  0
 21 18  2  0
M  END
$$$$
