IGD.pdb
     RDKit          3D

 21 20  0  0  1  0  0  0  0  0999 V2000
    6.2493  -11.5276   26.4071 C   0  0  0  0  0  0  0  0  0  0  0  0
    6.7861  -12.6335   27.3267 C   0  0  0  0  0  0  0  0  0  0  0  0
    7.3809  -13.6711   26.4345 C   0  0  2  0  0  0  0  0  0  0  0  0
    8.5429  -13.0308   25.6885 C   0  0  0  0  0  0  0  0  0  0  0  0
    6.4102  -14.3167   25.4864 C   0  0  2  0  0  0  0  0  0  0  0  0
    5.2832  -14.7674   26.2942 N   0  0  0  0  0  0  0  0  0  0  0  0
    6.9832  -15.4127   24.6851 C   0  0  0  0  0  0  0  0  0  0  0  0
    6.9553  -16.5954   25.1051 O   0  0  0  0  0  0  0  0  0  0  0  0
    7.5836  -15.1768   23.4188 N   0  0  0  0  0  0  0  0  0  0  0  0
    8.1665  -16.2227   22.6005 C   0  0  0  0  0  0  0  0  0  0  0  0
    9.2488  -16.8695   23.4016 C   0  0  0  0  0  0  0  0  0  0  0  0
    9.2164  -18.1150   23.6797 O   0  0  0  0  0  0  0  0  0  0  0  0
   10.3682  -16.1580   23.9007 N   0  0  0  0  0  0  0  0  0  0  0  0
   11.4705  -16.8583   24.5512 C   0  0  1  0  0  0  0  0  0  0  0  0
   12.7733  -16.1339   24.3211 C   0  0  0  0  0  0  0  0  0  0  0  0
   13.2208  -16.2510   22.9268 C   0  0  0  0  0  0  0  0  0  0  0  0
   13.0631  -17.3540   22.3197 O   0  0  0  0  0  0  0  0  0  0  0  0
   11.1192  -16.9339   26.0145 C   0  0  0  0  0  0  0  0  0  0  0  0
   10.0494  -16.1559   26.5022 O   0  0  0  0  0  0  0  0  0  0  0  0
   13.8155  -15.2352   22.2062 O   0  0  0  0  0  0  0  0  0  0  0  0
   11.7190  -17.6473   26.8311 O   0  0  0  0  0  0  0  0  0  0  0  0
  1  2  1  0
  3  5  1  0
  3  2  1  0
  3  4  1  6
  5  6  1  1
  7  5  1  0
  7  8  2  0
  9  7  1  0
 10  9  1  0
 11 10  1  0
 12 11  2  0
 13 11  1  0
 14 13  1  0
 14 15  1  1
 15 16  1  0
 16 17  2  0
 18 14  1  0
 19 18  1  0
 20 16  1  0
 21 18  2  0
M  END
$$$$
