IGD.pdb
     RDKit          3D

 21 20  0  0  1  0  0  0  0  0999 V2000
    6.5900  -11.0507   26.9786 C   0  0  0  0  0  0  0  0  0  0  0  0
    5.8605  -12.2729   26.4029 C   0  0  0  0  0  0  0  0  0  0  0  0
    6.8896  -13.0748   25.6788 C   0  0  2  0  0  0  0  0  0  0  0  0
    7.5390  -12.1689   24.6423 C   0  0  0  0  0  0  0  0  0  0  0  0
    6.3752  -14.3411   25.0545 C   0  0  2  0  0  0  0  0  0  0  0  0
    5.9476  -15.1983   26.1536 N   0  0  0  0  0  0  0  0  0  0  0  0
    7.3431  -15.0199   24.1747 C   0  0  0  0  0  0  0  0  0  0  0  0
    7.6733  -14.5135   23.0745 O   0  0  0  0  0  0  0  0  0  0  0  0
    7.9347  -16.2614   24.5330 N   0  0  0  0  0  0  0  0  0  0  0  0
    8.9360  -16.9345   23.7280 C   0  0  0  0  0  0  0  0  0  0  0  0
   10.2027  -16.9646   24.5191 C   0  0  0  0  0  0  0  0  0  0  0  0
   10.6188  -15.9342   25.1476 O   0  0  0  0  0  0  0  0  0  0  0  0
   11.0175  -18.1191   24.6257 N   0  0  0  0  0  0  0  0  0  0  0  0
   12.2513  -18.0950   25.4040 C   0  0  1  0  0  0  0  0  0  0  0  0
   12.4200  -19.3789   26.1774 C   0  0  0  0  0  0  0  0  0  0  0  0
   11.5489  -19.4191   27.3596 C   0  0  0  0  0  0  0  0  0  0  0  0
   10.5987  -20.2593   27.3965 O   0  0  0  0  0  0  0  0  0  0  0  0
   13.3700  -17.8808   24.4176 C   0  0  0  0  0  0  0  0  0  0  0  0
   14.6572  -17.5681   24.9005 O   0  0  0  0  0  0  0  0  0  0  0  0
   11.6811  -18.5959   28.4595 O   0  0  0  0  0  0  0  0  0  0  0  0
   13.2306  -17.9628   23.1891 O   0  0  0  0  0  0  0  0  0  0  0  0
  1  2  1  0
  3  5  1  0
  3  2  1  0
  3  4  1  6
  5  6  1  1
  7  5  1  0
  7  8  2  0
  9  7  1  0
 10  9  1  0
 11 10  1  0
 12 11  2  0
 13 11  1  0
 14 13  1  0
 14 15  1  6
 15 16  1  0
 16 17  2  0
 18 14  1  0
 19 18  1  0
 20 16  1  0
 21 18  2  0
M  END
$$$$
