IGD.pdb
     RDKit          3D

 21 20  0  0  1  0  0  0  0  0999 V2000
    7.3438  -11.9441   18.7927 C   0  0  0  0  0  0  0  0  0  0  0  0
    8.7751  -12.1597   19.3044 C   0  0  0  0  0  0  0  0  0  0  0  0
    8.8486  -13.5772   19.7646 C   0  0  2  0  0  0  0  0  0  0  0  0
    7.8114  -13.7627   20.8631 C   0  0  0  0  0  0  0  0  0  0  0  0
   10.2109  -14.0218   20.2165 C   0  0  2  0  0  0  0  0  0  0  0  0
   11.1383  -13.6530   19.1536 N   0  0  0  0  0  0  0  0  0  0  0  0
   10.3014  -15.4543   20.5503 C   0  0  0  0  0  0  0  0  0  0  0  0
   10.5026  -16.3093   19.6534 O   0  0  0  0  0  0  0  0  0  0  0  0
   10.1660  -15.9196   21.8862 N   0  0  0  0  0  0  0  0  0  0  0  0
   10.2527  -17.3180   22.2609 C   0  0  0  0  0  0  0  0  0  0  0  0
   11.6913  -17.6253   22.5207 C   0  0  0  0  0  0  0  0  0  0  0  0
   12.0770  -18.8074   22.8099 O   0  0  0  0  0  0  0  0  0  0  0  0
   12.7113  -16.6431   22.4652 N   0  0  0  0  0  0  0  0  0  0  0  0
   14.1086  -17.0023   22.6824 C   0  0  1  0  0  0  0  0  0  0  0  0
   15.0258  -15.9674   22.0802 C   0  0  0  0  0  0  0  0  0  0  0  0
   15.0114  -16.0176   20.6121 C   0  0  0  0  0  0  0  0  0  0  0  0
   14.4015  -15.1085   19.9705 O   0  0  0  0  0  0  0  0  0  0  0  0
   14.2897  -17.1155   24.1740 C   0  0  0  0  0  0  0  0  0  0  0  0
   15.3075  -17.9509   24.6780 O   0  0  0  0  0  0  0  0  0  0  0  0
   15.6200  -16.9981   19.8549 O   0  0  0  0  0  0  0  0  0  0  0  0
   13.5911  -16.5122   25.0006 O   0  0  0  0  0  0  0  0  0  0  0  0
  1  2  1  0
  3  5  1  0
  3  2  1  0
  3  4  1  1
  5  6  1  6
  7  5  1  0
  7  8  2  0
  9  7  1  0
 10  9  1  0
 11 10  1  0
 12 11  2  0
 13 11  1  0
 14 13  1  0
 14 15  1  1
 15 16  1  0
 16 17  2  0
 18 14  1  0
 19 18  1  0
 20 16  1  0
 21 18  2  0
M  END
$$$$
