IGD.pdb
     RDKit          3D

 21 20  0  0  1  0  0  0  0  0999 V2000
    5.9655  -10.6216   26.1935 C   0  0  0  0  0  0  0  0  0  0  0  0
    6.9865  -11.4516   25.4026 C   0  0  0  0  0  0  0  0  0  0  0  0
    6.7689  -12.8741   25.7973 C   0  0  2  0  0  0  0  0  0  0  0  0
    6.8459  -12.9513   27.3155 C   0  0  0  0  0  0  0  0  0  0  0  0
    7.7041  -13.8563   25.1505 C   0  0  2  0  0  0  0  0  0  0  0  0
    7.5867  -13.6510   23.7118 N   0  0  0  0  0  0  0  0  0  0  0  0
    7.4623  -15.2609   25.5252 C   0  0  0  0  0  0  0  0  0  0  0  0
    7.5904  -15.6371   26.7160 O   0  0  0  0  0  0  0  0  0  0  0  0
    7.0786  -16.2345   24.5638 N   0  0  0  0  0  0  0  0  0  0  0  0
    6.8616  -17.6330   24.8815 C   0  0  0  0  0  0  0  0  0  0  0  0
    8.2019  -18.2621   25.0789 C   0  0  0  0  0  0  0  0  0  0  0  0
    8.3249  -19.5177   25.2740 O   0  0  0  0  0  0  0  0  0  0  0  0
    9.4105  -17.5221   25.0638 N   0  0  0  0  0  0  0  0  0  0  0  0
   10.6989  -18.1901   25.2127 C   0  0  1  0  0  0  0  0  0  0  0  0
   11.8221  -17.2909   24.7604 C   0  0  0  0  0  0  0  0  0  0  0  0
   12.0584  -17.4024   23.3148 C   0  0  0  0  0  0  0  0  0  0  0  0
   11.3696  -18.2271   22.6397 O   0  0  0  0  0  0  0  0  0  0  0  0
   10.8211  -18.5542   26.6698 C   0  0  0  0  0  0  0  0  0  0  0  0
   10.5406  -17.5755   27.6452 O   0  0  0  0  0  0  0  0  0  0  0  0
   12.9929  -16.6673   22.6139 O   0  0  0  0  0  0  0  0  0  0  0  0
   11.1576  -19.6762   27.0737 O   0  0  0  0  0  0  0  0  0  0  0  0
  1  2  1  0
  3  5  1  0
  3  2  1  0
  3  4  1  1
  5  6  1  6
  7  5  1  0
  7  8  2  0
  9  7  1  0
 10  9  1  0
 11 10  1  0
 12 11  2  0
 13 11  1  0
 14 13  1  0
 14 15  1  1
 15 16  1  0
 16 17  2  0
 18 14  1  0
 19 18  1  0
 20 16  1  0
 21 18  2  0
M  END
$$$$
