IGD.pdb
     RDKit          3D

 21 20  0  0  1  0  0  0  0  0999 V2000
    7.6688  -11.8038   27.2960 C   0  0  0  0  0  0  0  0  0  0  0  0
    6.6390  -12.7981   26.7413 C   0  0  0  0  0  0  0  0  0  0  0  0
    7.3718  -13.6683   25.7757 C   0  0  2  0  0  0  0  0  0  0  0  0
    7.9636  -12.7704   24.6986 C   0  0  0  0  0  0  0  0  0  0  0  0
    6.5496  -14.7741   25.1765 C   0  0  2  0  0  0  0  0  0  0  0  0
    5.9202  -15.4705   26.2921 N   0  0  0  0  0  0  0  0  0  0  0  0
    7.3099  -15.6958   24.3139 C   0  0  0  0  0  0  0  0  0  0  0  0
    7.8185  -16.7420   24.7859 O   0  0  0  0  0  0  0  0  0  0  0  0
    7.4953  -15.4396   22.9284 N   0  0  0  0  0  0  0  0  0  0  0  0
    7.9388  -16.4432   21.9798 C   0  0  0  0  0  0  0  0  0  0  0  0
    9.3699  -16.7460   22.2821 C   0  0  0  0  0  0  0  0  0  0  0  0
   10.0684  -17.4904   21.5154 O   0  0  0  0  0  0  0  0  0  0  0  0
   10.0413  -16.2371   23.4217 N   0  0  0  0  0  0  0  0  0  0  0  0
   11.4293  -16.5946   23.6942 C   0  0  1  0  0  0  0  0  0  0  0  0
   12.3614  -15.4975   23.2442 C   0  0  0  0  0  0  0  0  0  0  0  0
   13.7697  -15.8684   23.4374 C   0  0  0  0  0  0  0  0  0  0  0  0
   14.1440  -17.0434   23.1382 O   0  0  0  0  0  0  0  0  0  0  0  0
   11.5204  -16.8372   25.1786 C   0  0  0  0  0  0  0  0  0  0  0  0
   12.2518  -17.9480   25.6464 O   0  0  0  0  0  0  0  0  0  0  0  0
   14.7425  -15.0235   23.9321 O   0  0  0  0  0  0  0  0  0  0  0  0
   10.9857  -16.1121   26.0293 O   0  0  0  0  0  0  0  0  0  0  0  0
  1  2  1  0
  3  5  1  0
  3  2  1  0
  3  4  1  6
  5  6  1  1
  7  5  1  0
  7  8  2  0
  9  7  1  0
 10  9  1  0
 11 10  1  0
 12 11  2  0
 13 11  1  0
 14 13  1  0
 14 15  1  1
 15 16  1  0
 16 17  2  0
 18 14  1  0
 19 18  1  0
 20 16  1  0
 21 18  2  0
M  END
$$$$
