IGD.pdb
     RDKit          3D

 21 20  0  0  1  0  0  0  0  0999 V2000
    7.9979  -12.1030   20.8369 C   0  0  0  0  0  0  0  0  0  0  0  0
    7.8253  -13.4616   20.1430 C   0  0  0  0  0  0  0  0  0  0  0  0
    9.1371  -13.7790   19.5067 C   0  0  2  0  0  0  0  0  0  0  0  0
    9.3860  -12.7464   18.4166 C   0  0  0  0  0  0  0  0  0  0  0  0
    9.2548  -15.1787   18.9730 C   0  0  2  0  0  0  0  0  0  0  0  0
    8.3433  -15.2650   17.8384 N   0  0  0  0  0  0  0  0  0  0  0  0
    8.9909  -16.2318   19.9694 C   0  0  0  0  0  0  0  0  0  0  0  0
    7.8399  -16.3891   20.4454 O   0  0  0  0  0  0  0  0  0  0  0  0
   10.0177  -17.1016   20.4262 N   0  0  0  0  0  0  0  0  0  0  0  0
    9.8182  -18.1098   21.4495 C   0  0  0  0  0  0  0  0  0  0  0  0
   10.9425  -17.9883   22.4254 C   0  0  0  0  0  0  0  0  0  0  0  0
   11.3358  -18.9882   23.1147 O   0  0  0  0  0  0  0  0  0  0  0  0
   11.6396  -16.7751   22.6509 N   0  0  0  0  0  0  0  0  0  0  0  0
   12.7510  -16.7149   23.5940 C   0  0  1  0  0  0  0  0  0  0  0  0
   13.6221  -15.5152   23.3169 C   0  0  0  0  0  0  0  0  0  0  0  0
   14.5251  -15.7503   22.1823 C   0  0  0  0  0  0  0  0  0  0  0  0
   14.6318  -16.9243   21.7127 O   0  0  0  0  0  0  0  0  0  0  0  0
   12.1370  -16.6593   24.9690 C   0  0  0  0  0  0  0  0  0  0  0  0
   12.8919  -17.1036   26.0736 O   0  0  0  0  0  0  0  0  0  0  0  0
   15.2876  -14.7752   21.5717 O   0  0  0  0  0  0  0  0  0  0  0  0
   10.9928  -16.2416   25.1961 O   0  0  0  0  0  0  0  0  0  0  0  0
  1  2  1  0
  3  5  1  0
  3  2  1  0
  3  4  1  6
  5  6  1  6
  7  5  1  0
  7  8  2  0
  9  7  1  0
 10  9  1  0
 11 10  1  0
 12 11  2  0
 13 11  1  0
 14 13  1  0
 14 15  1  6
 15 16  1  0
 16 17  2  0
 18 14  1  0
 19 18  1  0
 20 16  1  0
 21 18  2  0
M  END
$$$$
