IGD.pdb
     RDKit          3D

 21 20  0  0  1  0  0  0  0  0999 V2000
    6.6433  -11.2589   27.1029 C   0  0  0  0  0  0  0  0  0  0  0  0
    7.5739  -11.7264   25.9749 C   0  0  0  0  0  0  0  0  0  0  0  0
    6.9792  -12.9826   25.4320 C   0  0  2  0  0  0  0  0  0  0  0  0
    5.4826  -12.9438   25.7064 C   0  0  0  0  0  0  0  0  0  0  0  0
    7.5993  -14.2483   25.9531 C   0  0  2  0  0  0  0  0  0  0  0  0
    9.0316  -14.1383   25.7040 N   0  0  0  0  0  0  0  0  0  0  0  0
    7.0357  -15.4817   25.3761 C   0  0  0  0  0  0  0  0  0  0  0  0
    5.9920  -15.9922   25.8513 O   0  0  0  0  0  0  0  0  0  0  0  0
    7.6450  -16.1349   24.2708 N   0  0  0  0  0  0  0  0  0  0  0  0
    7.1113  -17.3346   23.6547 C   0  0  0  0  0  0  0  0  0  0  0  0
    7.6758  -18.5062   24.3894 C   0  0  0  0  0  0  0  0  0  0  0  0
    7.4077  -19.7038   24.0377 O   0  0  0  0  0  0  0  0  0  0  0  0
    8.5340  -18.3731   25.5093 N   0  0  0  0  0  0  0  0  0  0  0  0
    9.8644  -18.9718   25.5079 C   0  0  1  0  0  0  0  0  0  0  0  0
   10.7533  -18.2954   24.4943 C   0  0  0  0  0  0  0  0  0  0  0  0
   12.1371  -18.7821   24.5750 C   0  0  0  0  0  0  0  0  0  0  0  0
   12.3584  -20.0280   24.4812 O   0  0  0  0  0  0  0  0  0  0  0  0
   10.3963  -18.8249   26.9101 C   0  0  0  0  0  0  0  0  0  0  0  0
   10.0839  -17.6609   27.6417 O   0  0  0  0  0  0  0  0  0  0  0  0
   13.2430  -17.9755   24.7512 O   0  0  0  0  0  0  0  0  0  0  0  0
   11.1021  -19.6745   27.4717 O   0  0  0  0  0  0  0  0  0  0  0  0
  1  2  1  0
  3  5  1  0
  3  2  1  0
  3  4  1  1
  5  6  1  6
  7  5  1  0
  7  8  2  0
  9  7  1  0
 10  9  1  0
 11 10  1  0
 12 11  2  0
 13 11  1  0
 14 13  1  0
 14 15  1  6
 15 16  1  0
 16 17  2  0
 18 14  1  0
 19 18  1  0
 20 16  1  0
 21 18  2  0
M  END
$$$$
