IGD.pdb
     RDKit          3D

 21 20  0  0  1  0  0  0  0  0999 V2000
    5.7965  -10.6794   25.9452 C   0  0  0  0  0  0  0  0  0  0  0  0
    6.9752  -11.5036   25.4080 C   0  0  0  0  0  0  0  0  0  0  0  0
    6.6530  -12.9328   25.6909 C   0  0  2  0  0  0  0  0  0  0  0  0
    6.3667  -13.0578   27.1806 C   0  0  0  0  0  0  0  0  0  0  0  0
    7.7031  -13.9132   25.2506 C   0  0  2  0  0  0  0  0  0  0  0  0
    7.9653  -13.6322   23.8442 N   0  0  0  0  0  0  0  0  0  0  0  0
    7.3439  -15.3256   25.4696 C   0  0  0  0  0  0  0  0  0  0  0  0
    7.1235  -15.7581   26.6273 O   0  0  0  0  0  0  0  0  0  0  0  0
    7.2339  -16.2438   24.3906 N   0  0  0  0  0  0  0  0  0  0  0  0
    6.8883  -17.6423   24.5599 C   0  0  0  0  0  0  0  0  0  0  0  0
    8.1153  -18.3551   25.0264 C   0  0  0  0  0  0  0  0  0  0  0  0
    8.1100  -19.6121   25.2489 O   0  0  0  0  0  0  0  0  0  0  0  0
    9.3504  -17.6973   25.2509 N   0  0  0  0  0  0  0  0  0  0  0  0
   10.5395  -18.4494   25.6365 C   0  0  1  0  0  0  0  0  0  0  0  0
   11.7889  -17.7607   25.1473 C   0  0  0  0  0  0  0  0  0  0  0  0
   11.8927  -17.8003   23.6825 C   0  0  0  0  0  0  0  0  0  0  0  0
   11.1114  -18.5576   23.0297 O   0  0  0  0  0  0  0  0  0  0  0  0
   10.5057  -18.5536   27.1394 C   0  0  0  0  0  0  0  0  0  0  0  0
   11.4421  -19.3838   27.7886 O   0  0  0  0  0  0  0  0  0  0  0  0
   12.7944  -17.0649   22.9400 O   0  0  0  0  0  0  0  0  0  0  0  0
    9.6952  -17.9472   27.8540 O   0  0  0  0  0  0  0  0  0  0  0  0
  1  2  1  0
  3  5  1  0
  3  2  1  0
  3  4  1  1
  5  6  1  6
  7  5  1  0
  7  8  2  0
  9  7  1  0
 10  9  1  0
 11 10  1  0
 12 11  2  0
 13 11  1  0
 14 13  1  0
 14 15  1  1
 15 16  1  0
 16 17  2  0
 18 14  1  0
 19 18  1  0
 20 16  1  0
 21 18  2  0
M  END
$$$$
