KKF.pdb
     RDKit          3D

 30 30  0  0  1  0  0  0  0  0999 V2000
    7.5066  -21.1854   22.1515 N   0  0  0  0  0  0  0  0  0  0  0  0
    7.1527  -20.0328   22.9608 C   0  0  1  0  0  0  0  0  0  0  0  0
    7.1926  -20.4180   24.3979 C   0  0  0  0  0  0  0  0  0  0  0  0
    6.7741  -21.8470   24.6207 C   0  0  0  0  0  0  0  0  0  0  0  0
    5.2821  -21.9318   24.5835 C   0  0  0  0  0  0  0  0  0  0  0  0
    4.7825  -23.3513   24.7839 C   0  0  0  0  0  0  0  0  0  0  0  0
    3.3378  -23.3969   24.6950 N   0  0  0  0  0  0  0  0  0  0  0  0
    8.1132  -18.9124   22.6611 C   0  0  0  0  0  0  0  0  0  0  0  0
    9.3317  -19.1615   22.4781 O   0  0  0  0  0  0  0  0  0  0  0  0
    7.6133  -17.5916   22.5922 N   0  0  0  0  0  0  0  0  0  0  0  0
    8.4879  -16.4277   22.3041 C   0  0  1  0  0  0  0  0  0  0  0  0
    7.6803  -15.4203   21.5650 C   0  0  0  0  0  0  0  0  0  0  0  0
    8.3660  -14.2288   21.0250 C   0  0  0  0  0  0  0  0  0  0  0  0
    7.5519  -13.4417   20.0230 C   0  0  0  0  0  0  0  0  0  0  0  0
    8.3715  -12.2993   19.4480 C   0  0  0  0  0  0  0  0  0  0  0  0
    7.4741  -11.5626   18.5552 N   0  0  0  0  0  0  0  0  0  0  0  0
    9.0664  -15.9584   23.5891 C   0  0  0  0  0  0  0  0  0  0  0  0
   10.0811  -15.1678   23.5591 O   0  0  0  0  0  0  0  0  0  0  0  0
    8.6078  -16.2943   24.8718 N   0  0  0  0  0  0  0  0  0  0  0  0
    9.2970  -15.8645   26.0940 C   0  0  1  0  0  0  0  0  0  0  0  0
    8.4224  -15.1458   27.0561 C   0  0  0  0  0  0  0  0  0  0  0  0
    7.9064  -13.8621   26.5578 C   0  0  0  0  0  0  0  0  0  0  0  0
    8.6845  -12.7262   26.5024 C   0  0  0  0  0  0  0  0  0  0  0  0
    8.1443  -11.5446   26.0254 C   0  0  0  0  0  0  0  0  0  0  0  0
    6.8378  -11.4431   25.5927 C   0  0  0  0  0  0  0  0  0  0  0  0
    6.0646  -12.5834   25.6508 C   0  0  0  0  0  0  0  0  0  0  0  0
    6.6040  -13.7799   26.1316 C   0  0  0  0  0  0  0  0  0  0  0  0
    9.8936  -17.0595   26.7295 C   0  0  0  0  0  0  0  0  0  0  0  0
    9.7766  -18.1918   26.2195 O   0  0  0  0  0  0  0  0  0  0  0  0
   10.6043  -16.9300   27.9246 O   0  0  0  0  0  0  0  0  0  0  0  0
  2  1  1  6
  2  8  1  0
  3  2  1  0
  4  3  1  0
  4  5  1  0
  6  5  1  0
  6  7  1  0
  8  9  2  0
 10 11  1  0
 10  8  1  0
 11 17  1  0
 11 12  1  1
 13 12  1  0
 14 13  1  0
 15 14  1  0
 16 15  1  0
 17 18  2  0
 17 19  1  0
 19 20  1  0
 20 28  1  0
 20 21  1  1
 22 21  1  0
 23 22  2  0
 24 23  1  0
 25 26  1  0
 25 24  2  0
 26 27  2  0
 27 22  1  0
 28 29  2  0
 28 30  1  0
M  END
$$$$
