KKF.pdb
     RDKit          3D

 30 30  0  0  1  0  0  0  0  0999 V2000
    7.0351  -16.3528   20.0819 N   0  0  0  0  0  0  0  0  0  0  0  0
    7.7441  -15.4306   20.9513 C   0  0  1  0  0  0  0  0  0  0  0  0
    7.0454  -14.1166   20.9380 C   0  0  0  0  0  0  0  0  0  0  0  0
    7.7366  -13.1079   20.0595 C   0  0  0  0  0  0  0  0  0  0  0  0
    7.6965  -13.5835   18.6428 C   0  0  0  0  0  0  0  0  0  0  0  0
    8.4208  -12.6397   17.6996 C   0  0  0  0  0  0  0  0  0  0  0  0
    8.2600  -13.0732   16.3273 N   0  0  0  0  0  0  0  0  0  0  0  0
    7.8009  -16.0135   22.3386 C   0  0  0  0  0  0  0  0  0  0  0  0
    6.7838  -15.9791   23.0767 O   0  0  0  0  0  0  0  0  0  0  0  0
    9.0127  -16.5922   22.7813 N   0  0  0  0  0  0  0  0  0  0  0  0
    9.1092  -17.3535   24.0516 C   0  0  1  0  0  0  0  0  0  0  0  0
   10.0016  -18.5208   23.8187 C   0  0  0  0  0  0  0  0  0  0  0  0
   10.3578  -19.3740   24.9706 C   0  0  0  0  0  0  0  0  0  0  0  0
   11.3708  -20.4522   24.6580 C   0  0  0  0  0  0  0  0  0  0  0  0
   11.5657  -21.3658   25.8558 C   0  0  0  0  0  0  0  0  0  0  0  0
   12.5450  -22.3743   25.4444 N   0  0  0  0  0  0  0  0  0  0  0  0
    9.5534  -16.4174   25.1158 C   0  0  0  0  0  0  0  0  0  0  0  0
   10.6126  -15.7139   24.9189 O   0  0  0  0  0  0  0  0  0  0  0  0
    8.9192  -16.2108   26.3502 N   0  0  0  0  0  0  0  0  0  0  0  0
    9.5180  -15.4041   27.4199 C   0  0  1  0  0  0  0  0  0  0  0  0
    8.6247  -14.3367   27.9394 C   0  0  0  0  0  0  0  0  0  0  0  0
    8.2773  -13.3072   26.9486 C   0  0  0  0  0  0  0  0  0  0  0  0
    7.0661  -13.2951   26.2915 C   0  0  0  0  0  0  0  0  0  0  0  0
    6.7947  -12.3015   25.3670 C   0  0  0  0  0  0  0  0  0  0  0  0
    7.6942  -11.3002   25.0626 C   0  0  0  0  0  0  0  0  0  0  0  0
    8.9042  -11.3181   25.7237 C   0  0  0  0  0  0  0  0  0  0  0  0
    9.1847  -12.3187   26.6584 C   0  0  0  0  0  0  0  0  0  0  0  0
    9.9237  -16.3164   28.5112 C   0  0  0  0  0  0  0  0  0  0  0  0
   10.5209  -15.8937   29.5214 O   0  0  0  0  0  0  0  0  0  0  0  0
    9.6381  -17.6802   28.4199 O   0  0  0  0  0  0  0  0  0  0  0  0
  2  1  1  6
  2  8  1  0
  3  2  1  0
  4  3  1  0
  4  5  1  0
  6  5  1  0
  6  7  1  0
  8  9  2  0
 10 11  1  0
 10  8  1  0
 11 17  1  0
 11 12  1  6
 13 12  1  0
 14 13  1  0
 15 14  1  0
 16 15  1  0
 17 18  2  0
 17 19  1  0
 19 20  1  0
 20 28  1  0
 20 21  1  1
 22 21  1  0
 23 22  2  0
 24 23  1  0
 25 26  1  0
 25 24  2  0
 26 27  2  0
 27 22  1  0
 28 29  2  0
 28 30  1  0
M  END
$$$$
