KKF.pdb
     RDKit          3D

 30 30  0  0  1  0  0  0  0  0999 V2000
    5.2536  -16.0510   20.3340 N   0  0  0  0  0  0  0  0  0  0  0  0
    6.5357  -16.0842   21.0152 C   0  0  1  0  0  0  0  0  0  0  0  0
    7.1639  -14.7374   20.9333 C   0  0  0  0  0  0  0  0  0  0  0  0
    7.7709  -14.4685   19.5819 C   0  0  0  0  0  0  0  0  0  0  0  0
    8.3256  -13.0806   19.5617 C   0  0  0  0  0  0  0  0  0  0  0  0
    8.9643  -12.7369   18.2279 C   0  0  0  0  0  0  0  0  0  0  0  0
    9.2976  -11.3287   18.1740 N   0  0  0  0  0  0  0  0  0  0  0  0
    6.3185  -16.5078   22.4439 C   0  0  0  0  0  0  0  0  0  0  0  0
    5.4425  -15.9374   23.1421 O   0  0  0  0  0  0  0  0  0  0  0  0
    7.1160  -17.5501   22.9702 N   0  0  0  0  0  0  0  0  0  0  0  0
    7.0030  -17.9989   24.3803 C   0  0  1  0  0  0  0  0  0  0  0  0
    7.1231  -19.4817   24.3995 C   0  0  0  0  0  0  0  0  0  0  0  0
    7.1398  -20.1686   25.7069 C   0  0  0  0  0  0  0  0  0  0  0  0
    7.3352  -21.6655   25.6221 C   0  0  0  0  0  0  0  0  0  0  0  0
    7.1969  -22.3011   26.9948 C   0  0  0  0  0  0  0  0  0  0  0  0
    7.3937  -23.7394   26.8000 N   0  0  0  0  0  0  0  0  0  0  0  0
    8.0217  -17.2693   25.1778 C   0  0  0  0  0  0  0  0  0  0  0  0
    9.2298  -17.2154   24.7384 O   0  0  0  0  0  0  0  0  0  0  0  0
    7.7985  -16.6100   26.3961 N   0  0  0  0  0  0  0  0  0  0  0  0
    8.8657  -15.9132   27.1234 C   0  0  1  0  0  0  0  0  0  0  0  0
    8.4094  -14.6914   27.8348 C   0  0  0  0  0  0  0  0  0  0  0  0
    7.7437  -13.7049   26.9710 C   0  0  0  0  0  0  0  0  0  0  0  0
    8.2896  -13.2813   25.7787 C   0  0  0  0  0  0  0  0  0  0  0  0
    7.6182  -12.3488   25.0073 C   0  0  0  0  0  0  0  0  0  0  0  0
    6.4036  -11.8092   25.3787 C   0  0  0  0  0  0  0  0  0  0  0  0
    5.8629  -12.2373   26.5728 C   0  0  0  0  0  0  0  0  0  0  0  0
    6.5357  -13.1788   27.3566 C   0  0  0  0  0  0  0  0  0  0  0  0
    9.4739  -16.8692   28.0742 C   0  0  0  0  0  0  0  0  0  0  0  0
   10.4780  -16.5633   28.7482 O   0  0  0  0  0  0  0  0  0  0  0  0
    8.9220  -18.1425   28.2289 O   0  0  0  0  0  0  0  0  0  0  0  0
  2  1  1  6
  2  8  1  0
  3  2  1  0
  4  3  1  0
  4  5  1  0
  6  5  1  0
  6  7  1  0
  8  9  2  0
 10 11  1  0
 10  8  1  0
 11 17  1  0
 11 12  1  6
 13 12  1  0
 14 13  1  0
 15 14  1  0
 16 15  1  0
 17 18  2  0
 17 19  1  0
 19 20  1  0
 20 28  1  0
 20 21  1  1
 22 21  1  0
 23 22  2  0
 24 23  1  0
 25 26  1  0
 25 24  2  0
 26 27  2  0
 27 22  1  0
 28 29  2  0
 28 30  1  0
M  END
$$$$
