KKF.pdb
     RDKit          3D

 30 30  0  0  1  0  0  0  0  0999 V2000
    6.1077  -16.5464   20.9502 N   0  0  0  0  0  0  0  0  0  0  0  0
    7.4535  -16.1493   21.3246 C   0  0  1  0  0  0  0  0  0  0  0  0
    7.5335  -14.6633   21.3437 C   0  0  0  0  0  0  0  0  0  0  0  0
    7.5960  -14.0740   19.9596 C   0  0  0  0  0  0  0  0  0  0  0  0
    8.4439  -12.8432   19.9892 C   0  0  0  0  0  0  0  0  0  0  0  0
    8.5195  -12.1654   18.6328 C   0  0  0  0  0  0  0  0  0  0  0  0
    9.2255  -10.9051   18.7352 N   0  0  0  0  0  0  0  0  0  0  0  0
    7.7794  -16.7387   22.6714 C   0  0  0  0  0  0  0  0  0  0  0  0
    6.8730  -16.8822   23.5305 O   0  0  0  0  0  0  0  0  0  0  0  0
    9.1144  -17.1206   22.9387 N   0  0  0  0  0  0  0  0  0  0  0  0
    9.5231  -17.7169   24.2348 C   0  0  1  0  0  0  0  0  0  0  0  0
   10.5786  -18.7289   23.9602 C   0  0  0  0  0  0  0  0  0  0  0  0
   11.0902  -19.5344   25.0876 C   0  0  0  0  0  0  0  0  0  0  0  0
   10.1518  -20.6262   25.5500 C   0  0  0  0  0  0  0  0  0  0  0  0
   10.7213  -21.3420   26.7628 C   0  0  0  0  0  0  0  0  0  0  0  0
    9.7223  -22.3391   27.1541 N   0  0  0  0  0  0  0  0  0  0  0  0
    9.9242  -16.6121   25.1429 C   0  0  0  0  0  0  0  0  0  0  0  0
   10.7149  -15.7003   24.6969 O   0  0  0  0  0  0  0  0  0  0  0  0
    9.5175  -16.4511   26.4760 N   0  0  0  0  0  0  0  0  0  0  0  0
   10.0444  -15.3876   27.3390 C   0  0  1  0  0  0  0  0  0  0  0  0
    8.9923  -14.5861   28.0156 C   0  0  0  0  0  0  0  0  0  0  0  0
    8.0947  -13.8717   27.0957 C   0  0  0  0  0  0  0  0  0  0  0  0
    8.5661  -13.0499   26.0951 C   0  0  0  0  0  0  0  0  0  0  0  0
    7.6736  -12.4012   25.2596 C   0  0  0  0  0  0  0  0  0  0  0  0
    6.3056  -12.5380   25.3796 C   0  0  0  0  0  0  0  0  0  0  0  0
    5.8404  -13.3617   26.3827 C   0  0  0  0  0  0  0  0  0  0  0  0
    6.7364  -14.0198   27.2299 C   0  0  0  0  0  0  0  0  0  0  0  0
   10.9440  -16.0080   28.3358 C   0  0  0  0  0  0  0  0  0  0  0  0
   11.5475  -15.3187   29.1823 O   0  0  0  0  0  0  0  0  0  0  0  0
   11.1294  -17.3920   28.3391 O   0  0  0  0  0  0  0  0  0  0  0  0
  2  1  1  1
  2  8  1  0
  3  2  1  0
  4  3  1  0
  4  5  1  0
  6  5  1  0
  6  7  1  0
  8  9  2  0
 10 11  1  0
 10  8  1  0
 11 17  1  0
 11 12  1  6
 13 12  1  0
 14 13  1  0
 15 14  1  0
 16 15  1  0
 17 18  2  0
 17 19  1  0
 19 20  1  0
 20 28  1  0
 20 21  1  1
 22 21  1  0
 23 22  2  0
 24 23  1  0
 25 26  1  0
 25 24  2  0
 26 27  2  0
 27 22  1  0
 28 29  2  0
 28 30  1  0
M  END
$$$$
