KKF.pdb
     RDKit          3D

 30 30  0  0  1  0  0  0  0  0999 V2000
    7.7340  -19.5464   20.1878 N   0  0  0  0  0  0  0  0  0  0  0  0
    8.7159  -19.4217   21.2504 C   0  0  1  0  0  0  0  0  0  0  0  0
    9.8579  -20.3326   20.9652 C   0  0  0  0  0  0  0  0  0  0  0  0
    9.5655  -21.2829   19.8345 C   0  0  0  0  0  0  0  0  0  0  0  0
   10.7021  -22.2439   19.6962 C   0  0  0  0  0  0  0  0  0  0  0  0
   10.4455  -23.2859   18.6222 C   0  0  0  0  0  0  0  0  0  0  0  0
   11.5872  -24.1666   18.4881 N   0  0  0  0  0  0  0  0  0  0  0  0
    9.1614  -17.9859   21.3374 C   0  0  0  0  0  0  0  0  0  0  0  0
   10.3543  -17.6816   21.0833 O   0  0  0  0  0  0  0  0  0  0  0  0
    8.2138  -17.0038   21.7075 N   0  0  0  0  0  0  0  0  0  0  0  0
    8.5673  -15.5674   21.8266 C   0  0  1  0  0  0  0  0  0  0  0  0
    7.3798  -14.7688   21.4197 C   0  0  0  0  0  0  0  0  0  0  0  0
    7.5322  -13.3069   21.2744 C   0  0  0  0  0  0  0  0  0  0  0  0
    7.4026  -12.8048   19.8540 C   0  0  0  0  0  0  0  0  0  0  0  0
    8.7130  -12.2008   19.3791 C   0  0  0  0  0  0  0  0  0  0  0  0
    8.4827  -11.7585   18.0019 N   0  0  0  0  0  0  0  0  0  0  0  0
    9.0505  -15.3262   23.2102 C   0  0  0  0  0  0  0  0  0  0  0  0
    9.7378  -14.2652   23.4498 O   0  0  0  0  0  0  0  0  0  0  0  0
    8.8278  -16.1573   24.3185 N   0  0  0  0  0  0  0  0  0  0  0  0
    9.3526  -15.8496   25.6539 C   0  0  1  0  0  0  0  0  0  0  0  0
    8.2999  -15.5596   26.6612 C   0  0  0  0  0  0  0  0  0  0  0  0
    7.7251  -14.2099   26.5599 C   0  0  0  0  0  0  0  0  0  0  0  0
    8.4795  -13.0715   26.7438 C   0  0  0  0  0  0  0  0  0  0  0  0
    7.8838  -11.8267   26.6380 C   0  0  0  0  0  0  0  0  0  0  0  0
    6.5438  -11.6632   26.3516 C   0  0  0  0  0  0  0  0  0  0  0  0
    5.7946  -12.8063   26.1688 C   0  0  0  0  0  0  0  0  0  0  0  0
    6.3900  -14.0665   26.2743 C   0  0  0  0  0  0  0  0  0  0  0  0
   10.1893  -16.9879   26.0923 C   0  0  0  0  0  0  0  0  0  0  0  0
   10.3819  -17.9738   25.3528 O   0  0  0  0  0  0  0  0  0  0  0  0
   10.7806  -16.9698   27.3572 O   0  0  0  0  0  0  0  0  0  0  0  0
  2  1  1  6
  2  8  1  0
  3  2  1  0
  4  3  1  0
  4  5  1  0
  6  5  1  0
  6  7  1  0
  8  9  2  0
 10 11  1  0
 10  8  1  0
 11 17  1  0
 11 12  1  1
 13 12  1  0
 14 13  1  0
 15 14  1  0
 16 15  1  0
 17 18  2  0
 17 19  1  0
 19 20  1  0
 20 28  1  0
 20 21  1  1
 22 21  1  0
 23 22  2  0
 24 23  1  0
 25 26  1  0
 25 24  2  0
 26 27  2  0
 27 22  1  0
 28 29  2  0
 28 30  1  0
M  END
$$$$
