KKF.pdb
     RDKit          3D

 30 30  0  0  1  0  0  0  0  0999 V2000
    7.6258  -16.1971   18.9701 N   0  0  0  0  0  0  0  0  0  0  0  0
    8.6947  -16.3497   19.9411 C   0  0  1  0  0  0  0  0  0  0  0  0
    9.6537  -15.2218   19.7885 C   0  0  0  0  0  0  0  0  0  0  0  0
   11.0324  -15.6888   19.4036 C   0  0  0  0  0  0  0  0  0  0  0  0
   11.9150  -14.4987   19.2057 C   0  0  0  0  0  0  0  0  0  0  0  0
   13.3085  -14.8875   18.7452 C   0  0  0  0  0  0  0  0  0  0  0  0
   14.1119  -13.7061   18.5094 N   0  0  0  0  0  0  0  0  0  0  0  0
    8.0975  -16.3855   21.3230 C   0  0  0  0  0  0  0  0  0  0  0  0
    7.0626  -15.7189   21.5776 O   0  0  0  0  0  0  0  0  0  0  0  0
    8.7244  -17.1785   22.3117 N   0  0  0  0  0  0  0  0  0  0  0  0
    8.2020  -17.2759   23.6974 C   0  0  1  0  0  0  0  0  0  0  0  0
    7.7987  -18.6879   23.9361 C   0  0  0  0  0  0  0  0  0  0  0  0
    7.3238  -19.0651   25.2828 C   0  0  0  0  0  0  0  0  0  0  0  0
    7.0346  -20.5397   25.4514 C   0  0  0  0  0  0  0  0  0  0  0  0
    6.5448  -20.8306   26.8596 C   0  0  0  0  0  0  0  0  0  0  0  0
    6.4349  -22.2876   26.9602 N   0  0  0  0  0  0  0  0  0  0  0  0
    9.2411  -16.7484   24.6184 C   0  0  0  0  0  0  0  0  0  0  0  0
   10.2206  -17.5139   24.9502 O   0  0  0  0  0  0  0  0  0  0  0  0
    9.2698  -15.4631   25.1802 N   0  0  0  0  0  0  0  0  0  0  0  0
    9.2413  -15.2344   26.6295 C   0  0  1  0  0  0  0  0  0  0  0  0
    7.8933  -14.9042   27.1593 C   0  0  0  0  0  0  0  0  0  0  0  0
    7.3867  -13.5891   26.7394 C   0  0  0  0  0  0  0  0  0  0  0  0
    6.1702  -13.0984   27.1614 C   0  0  0  0  0  0  0  0  0  0  0  0
    5.7438  -11.8537   26.7318 C   0  0  0  0  0  0  0  0  0  0  0  0
    6.4905  -11.0614   25.8839 C   0  0  0  0  0  0  0  0  0  0  0  0
    7.7067  -11.5583   25.4653 C   0  0  0  0  0  0  0  0  0  0  0  0
    8.1433  -12.8145   25.8953 C   0  0  0  0  0  0  0  0  0  0  0  0
    9.7784  -16.4408   27.2957 C   0  0  0  0  0  0  0  0  0  0  0  0
    9.9226  -16.4879   28.5338 O   0  0  0  0  0  0  0  0  0  0  0  0
   10.1345  -17.5557   26.5339 O   0  0  0  0  0  0  0  0  0  0  0  0
  2  1  1  6
  2  8  1  0
  3  2  1  0
  4  3  1  0
  4  5  1  0
  6  5  1  0
  6  7  1  0
  8  9  2  0
 10 11  1  0
 10  8  1  0
 11 17  1  0
 11 12  1  1
 13 12  1  0
 14 13  1  0
 15 14  1  0
 16 15  1  0
 17 18  2  0
 17 19  1  0
 19 20  1  0
 20 28  1  0
 20 21  1  1
 22 21  1  0
 23 22  2  0
 24 23  1  0
 25 26  1  0
 25 24  2  0
 26 27  2  0
 27 22  1  0
 28 29  2  0
 28 30  1  0
M  END
$$$$
