KKF.pdb
     RDKit          3D

 30 30  0  0  1  0  0  0  0  0999 V2000
   10.2777  -19.0277   19.5297 N   0  0  0  0  0  0  0  0  0  0  0  0
   11.5121  -18.3372   19.8588 C   0  0  1  0  0  0  0  0  0  0  0  0
   12.1993  -17.9443   18.5984 C   0  0  0  0  0  0  0  0  0  0  0  0
   12.8291  -19.1189   17.8980 C   0  0  0  0  0  0  0  0  0  0  0  0
   12.4890  -19.0616   16.4435 C   0  0  0  0  0  0  0  0  0  0  0  0
   13.0755  -20.2291   15.6702 C   0  0  0  0  0  0  0  0  0  0  0  0
   12.6363  -20.1946   14.2908 N   0  0  0  0  0  0  0  0  0  0  0  0
   11.1885  -17.1378   20.7099 C   0  0  0  0  0  0  0  0  0  0  0  0
   12.1163  -16.4259   21.1712 O   0  0  0  0  0  0  0  0  0  0  0  0
    9.8315  -16.8392   20.9719 N   0  0  0  0  0  0  0  0  0  0  0  0
    9.4163  -15.6144   21.6999 C   0  0  1  0  0  0  0  0  0  0  0  0
    8.3287  -14.9649   20.9196 C   0  0  0  0  0  0  0  0  0  0  0  0
    8.6622  -14.3710   19.6090 C   0  0  0  0  0  0  0  0  0  0  0  0
    7.4623  -13.9342   18.7993 C   0  0  0  0  0  0  0  0  0  0  0  0
    7.9031  -13.2825   17.4999 C   0  0  0  0  0  0  0  0  0  0  0  0
    6.6752  -12.9283   16.7842 N   0  0  0  0  0  0  0  0  0  0  0  0
    9.0564  -16.0041   23.0872 C   0  0  0  0  0  0  0  0  0  0  0  0
    8.2210  -16.9667   23.2629 O   0  0  0  0  0  0  0  0  0  0  0  0
    9.5482  -15.4171   24.2629 N   0  0  0  0  0  0  0  0  0  0  0  0
    8.8629  -15.5434   25.5544 C   0  0  1  0  0  0  0  0  0  0  0  0
    7.4744  -15.0152   25.5522 C   0  0  0  0  0  0  0  0  0  0  0  0
    7.3517  -13.6420   26.0636 C   0  0  0  0  0  0  0  0  0  0  0  0
    8.0947  -12.5975   25.5578 C   0  0  0  0  0  0  0  0  0  0  0  0
    7.9383  -11.3254   26.0800 C   0  0  0  0  0  0  0  0  0  0  0  0
    7.0571  -11.0427   27.1037 C   0  0  0  0  0  0  0  0  0  0  0  0
    6.3167  -12.0922   27.6054 C   0  0  0  0  0  0  0  0  0  0  0  0
    6.4699  -13.3794   27.0826 C   0  0  0  0  0  0  0  0  0  0  0  0
    8.8735  -16.9706   25.9426 C   0  0  0  0  0  0  0  0  0  0  0  0
    9.2531  -17.8555   25.1497 O   0  0  0  0  0  0  0  0  0  0  0  0
    8.4522  -17.3472   27.2196 O   0  0  0  0  0  0  0  0  0  0  0  0
  2  1  1  6
  2  8  1  0
  3  2  1  0
  4  3  1  0
  4  5  1  0
  6  5  1  0
  6  7  1  0
  8  9  2  0
 10 11  1  0
 10  8  1  0
 11 17  1  0
 11 12  1  6
 13 12  1  0
 14 13  1  0
 15 14  1  0
 16 15  1  0
 17 18  2  0
 17 19  1  0
 19 20  1  0
 20 28  1  0
 20 21  1  6
 22 21  1  0
 23 22  2  0
 24 23  1  0
 25 26  1  0
 25 24  2  0
 26 27  2  0
 27 22  1  0
 28 29  2  0
 28 30  1  0
M  END
$$$$
