KKF.pdb
     RDKit          3D

 30 30  0  0  1  0  0  0  0  0999 V2000
    7.2613  -19.4930   20.2809 N   0  0  0  0  0  0  0  0  0  0  0  0
    6.7143  -18.4498   21.1302 C   0  0  1  0  0  0  0  0  0  0  0  0
    6.2521  -19.0568   22.4081 C   0  0  0  0  0  0  0  0  0  0  0  0
    6.3403  -20.5598   22.3944 C   0  0  0  0  0  0  0  0  0  0  0  0
    5.9046  -21.0880   23.7232 C   0  0  0  0  0  0  0  0  0  0  0  0
    6.1145  -22.5869   23.8422 C   0  0  0  0  0  0  0  0  0  0  0  0
    5.6810  -23.0574   25.1413 N   0  0  0  0  0  0  0  0  0  0  0  0
    7.7738  -17.4057   21.3646 C   0  0  0  0  0  0  0  0  0  0  0  0
    8.9896  -17.7193   21.3029 O   0  0  0  0  0  0  0  0  0  0  0  0
    7.3686  -16.0818   21.6520 N   0  0  0  0  0  0  0  0  0  0  0  0
    8.3441  -14.9880   21.8853 C   0  0  1  0  0  0  0  0  0  0  0  0
    7.7046  -13.7092   21.4736 C   0  0  0  0  0  0  0  0  0  0  0  0
    7.2849  -13.5545   20.0660 C   0  0  0  0  0  0  0  0  0  0  0  0
    8.4213  -13.5891   19.0693 C   0  0  0  0  0  0  0  0  0  0  0  0
    7.9071  -13.3312   17.6634 C   0  0  0  0  0  0  0  0  0  0  0  0
    9.0681  -13.4436   16.7775 N   0  0  0  0  0  0  0  0  0  0  0  0
    8.7768  -15.0530   23.3047 C   0  0  0  0  0  0  0  0  0  0  0  0
    9.7753  -14.3342   23.6810 O   0  0  0  0  0  0  0  0  0  0  0  0
    8.1922  -15.8377   24.3102 N   0  0  0  0  0  0  0  0  0  0  0  0
    8.6193  -15.7700   25.7125 C   0  0  1  0  0  0  0  0  0  0  0  0
    7.5548  -15.3150   26.6436 C   0  0  0  0  0  0  0  0  0  0  0  0
    7.2985  -13.8675   26.6040 C   0  0  0  0  0  0  0  0  0  0  0  0
    6.0556  -13.3463   26.3171 C   0  0  0  0  0  0  0  0  0  0  0  0
    5.8737  -11.9745   26.2922 C   0  0  0  0  0  0  0  0  0  0  0  0
    6.8954  -11.0821   26.5452 C   0  0  0  0  0  0  0  0  0  0  0  0
    8.1366  -11.6101   26.8315 C   0  0  0  0  0  0  0  0  0  0  0  0
    8.3271  -12.9945   26.8584 C   0  0  0  0  0  0  0  0  0  0  0  0
    9.1154  -17.1065   26.1068 C   0  0  0  0  0  0  0  0  0  0  0  0
    9.0647  -18.0746   25.3218 O   0  0  0  0  0  0  0  0  0  0  0  0
    9.6536  -17.3007   27.3806 O   0  0  0  0  0  0  0  0  0  0  0  0
  2  1  1  6
  2  8  1  0
  3  2  1  0
  4  3  1  0
  4  5  1  0
  6  5  1  0
  6  7  1  0
  8  9  2  0
 10 11  1  0
 10  8  1  0
 11 17  1  0
 11 12  1  1
 13 12  1  0
 14 13  1  0
 15 14  1  0
 16 15  1  0
 17 18  2  0
 17 19  1  0
 19 20  1  0
 20 28  1  0
 20 21  1  1
 22 21  1  0
 23 22  2  0
 24 23  1  0
 25 26  1  0
 25 24  2  0
 26 27  2  0
 27 22  1  0
 28 29  2  0
 28 30  1  0
M  END
$$$$
