KKF.pdb
     RDKit          3D

 30 30  0  0  1  0  0  0  0  0999 V2000
    7.9533  -19.9641   19.6863 N   0  0  0  0  0  0  0  0  0  0  0  0
    7.4342  -19.3966   20.9181 C   0  0  1  0  0  0  0  0  0  0  0  0
    7.3882  -20.4583   21.9601 C   0  0  0  0  0  0  0  0  0  0  0  0
    6.9553  -21.7891   21.4046 C   0  0  0  0  0  0  0  0  0  0  0  0
    6.8378  -22.7723   22.5245 C   0  0  0  0  0  0  0  0  0  0  0  0
    6.4258  -24.1502   22.0380 C   0  0  0  0  0  0  0  0  0  0  0  0
    5.1112  -24.1012   21.4326 N   0  0  0  0  0  0  0  0  0  0  0  0
    8.3150  -18.2488   21.3358 C   0  0  0  0  0  0  0  0  0  0  0  0
    9.5649  -18.3524   21.2506 O   0  0  0  0  0  0  0  0  0  0  0  0
    7.7053  -17.0683   21.8197 N   0  0  0  0  0  0  0  0  0  0  0  0
    8.4958  -15.8920   22.2601 C   0  0  1  0  0  0  0  0  0  0  0  0
    8.0007  -14.7031   21.5152 C   0  0  0  0  0  0  0  0  0  0  0  0
    8.2127  -14.6505   20.0545 C   0  0  0  0  0  0  0  0  0  0  0  0
    7.7090  -13.3856   19.3967 C   0  0  0  0  0  0  0  0  0  0  0  0
    7.9180  -13.4455   17.8933 C   0  0  0  0  0  0  0  0  0  0  0  0
    7.3085  -12.2303   17.3481 N   0  0  0  0  0  0  0  0  0  0  0  0
    8.3978  -15.8001   23.7393 C   0  0  0  0  0  0  0  0  0  0  0  0
    7.3246  -16.2144   24.3155 O   0  0  0  0  0  0  0  0  0  0  0  0
    9.3831  -15.2962   24.6017 N   0  0  0  0  0  0  0  0  0  0  0  0
    9.1825  -15.1873   26.0513 C   0  0  1  0  0  0  0  0  0  0  0  0
    7.7657  -14.9826   26.4483 C   0  0  0  0  0  0  0  0  0  0  0  0
    7.2874  -13.6019   26.2826 C   0  0  0  0  0  0  0  0  0  0  0  0
    8.1430  -12.5491   26.0411 C   0  0  0  0  0  0  0  0  0  0  0  0
    7.6359  -11.2696   25.8955 C   0  0  0  0  0  0  0  0  0  0  0  0
    6.2878  -10.9876   25.9816 C   0  0  0  0  0  0  0  0  0  0  0  0
    5.4370  -12.0455   26.2235 C   0  0  0  0  0  0  0  0  0  0  0  0
    5.9427  -13.3401   26.3716 C   0  0  0  0  0  0  0  0  0  0  0  0
    9.7261  -16.4091   26.6835 C   0  0  0  0  0  0  0  0  0  0  0  0
    9.7570  -16.5386   27.9237 O   0  0  0  0  0  0  0  0  0  0  0  0
   10.2172  -17.4451   25.8863 O   0  0  0  0  0  0  0  0  0  0  0  0
  2  1  1  6
  2  8  1  0
  3  2  1  0
  4  3  1  0
  4  5  1  0
  6  5  1  0
  6  7  1  0
  8  9  2  0
 10 11  1  0
 10  8  1  0
 11 17  1  0
 11 12  1  6
 13 12  1  0
 14 13  1  0
 15 14  1  0
 16 15  1  0
 17 18  2  0
 17 19  1  0
 19 20  1  0
 20 28  1  0
 20 21  1  6
 22 21  1  0
 23 22  2  0
 24 23  1  0
 25 26  1  0
 25 24  2  0
 26 27  2  0
 27 22  1  0
 28 29  2  0
 28 30  1  0
M  END
$$$$
