KKF.pdb
     RDKit          3D

 30 30  0  0  1  0  0  0  0  0999 V2000
    7.4806  -20.6946   19.9924 N   0  0  0  0  0  0  0  0  0  0  0  0
    7.4129  -19.2903   20.3562 C   0  0  1  0  0  0  0  0  0  0  0  0
    6.2759  -19.0863   21.2946 C   0  0  0  0  0  0  0  0  0  0  0  0
    5.7344  -20.3848   21.8309 C   0  0  0  0  0  0  0  0  0  0  0  0
    4.6224  -20.0941   22.7867 C   0  0  0  0  0  0  0  0  0  0  0  0
    4.1063  -21.3498   23.4662 C   0  0  0  0  0  0  0  0  0  0  0  0
    3.0013  -21.0316   24.3465 N   0  0  0  0  0  0  0  0  0  0  0  0
    8.7231  -18.8832   20.9769 C   0  0  0  0  0  0  0  0  0  0  0  0
    9.2859  -19.6389   21.8090 O   0  0  0  0  0  0  0  0  0  0  0  0
    9.2941  -17.6448   20.6030 N   0  0  0  0  0  0  0  0  0  0  0  0
   10.5861  -17.1690   21.1571 C   0  0  1  0  0  0  0  0  0  0  0  0
   11.2122  -16.2700   20.1505 C   0  0  0  0  0  0  0  0  0  0  0  0
   12.5064  -15.6392   20.4801 C   0  0  0  0  0  0  0  0  0  0  0  0
   13.0616  -14.7497   19.3907 C   0  0  0  0  0  0  0  0  0  0  0  0
   14.4377  -14.2322   19.7729 C   0  0  0  0  0  0  0  0  0  0  0  0
   14.8752  -13.3802   18.6647 N   0  0  0  0  0  0  0  0  0  0  0  0
   10.3186  -16.5508   22.4808 C   0  0  0  0  0  0  0  0  0  0  0  0
    9.4895  -15.5692   22.5495 O   0  0  0  0  0  0  0  0  0  0  0  0
   10.8901  -16.9373   23.7025 N   0  0  0  0  0  0  0  0  0  0  0  0
   10.8412  -16.0903   24.8998 C   0  0  1  0  0  0  0  0  0  0  0  0
    9.6141  -16.2747   25.7167 C   0  0  0  0  0  0  0  0  0  0  0  0
    9.6023  -15.5029   26.9683 C   0  0  0  0  0  0  0  0  0  0  0  0
   10.1547  -15.9829   28.1359 C   0  0  0  0  0  0  0  0  0  0  0  0
   10.1127  -15.2122   29.2847 C   0  0  0  0  0  0  0  0  0  0  0  0
    9.5334  -13.9603   29.3221 C   0  0  0  0  0  0  0  0  0  0  0  0
    8.9825  -13.4859   28.1504 C   0  0  0  0  0  0  0  0  0  0  0  0
    9.0215  -14.2591   26.9867 C   0  0  0  0  0  0  0  0  0  0  0  0
   12.0482  -16.3677   25.7086 C   0  0  0  0  0  0  0  0  0  0  0  0
   12.4986  -17.5250   25.8253 O   0  0  0  0  0  0  0  0  0  0  0  0
   12.7051  -15.3212   26.3592 O   0  0  0  0  0  0  0  0  0  0  0  0
  2  1  1  1
  2  8  1  0
  3  2  1  0
  4  3  1  0
  4  5  1  0
  6  5  1  0
  6  7  1  0
  8  9  2  0
 10 11  1  0
 10  8  1  0
 11 17  1  0
 11 12  1  6
 13 12  1  0
 14 13  1  0
 15 14  1  0
 16 15  1  0
 17 18  2  0
 17 19  1  0
 19 20  1  0
 20 28  1  0
 20 21  1  1
 22 21  1  0
 23 22  2  0
 24 23  1  0
 25 26  1  0
 25 24  2  0
 26 27  2  0
 27 22  1  0
 28 29  2  0
 28 30  1  0
M  END
$$$$
