KKF.pdb
     RDKit          3D

 30 30  0  0  1  0  0  0  0  0999 V2000
    8.7287  -15.5499   19.9038 N   0  0  0  0  0  0  0  0  0  0  0  0
    8.1504  -14.4949   20.7171 C   0  0  1  0  0  0  0  0  0  0  0  0
    7.0218  -13.8720   19.9732 C   0  0  0  0  0  0  0  0  0  0  0  0
    7.4776  -13.1692   18.7220 C   0  0  0  0  0  0  0  0  0  0  0  0
    7.0411  -13.9589   17.5302 C   0  0  0  0  0  0  0  0  0  0  0  0
    7.5048  -13.3343   16.2264 C   0  0  0  0  0  0  0  0  0  0  0  0
    7.0759  -14.1368   15.0998 N   0  0  0  0  0  0  0  0  0  0  0  0
    7.6932  -15.0827   22.0260 C   0  0  0  0  0  0  0  0  0  0  0  0
    7.0529  -14.3742   22.8434 O   0  0  0  0  0  0  0  0  0  0  0  0
    8.0001  -16.4344   22.3056 N   0  0  0  0  0  0  0  0  0  0  0  0
    7.4944  -17.1271   23.5168 C   0  0  1  0  0  0  0  0  0  0  0  0
    7.5921  -18.5926   23.2799 C   0  0  0  0  0  0  0  0  0  0  0  0
    7.3261  -19.5064   24.4094 C   0  0  0  0  0  0  0  0  0  0  0  0
    7.5164  -20.9708   24.0847 C   0  0  0  0  0  0  0  0  0  0  0  0
    7.0625  -21.8390   25.2455 C   0  0  0  0  0  0  0  0  0  0  0  0
    7.0954  -23.2201   24.7591 N   0  0  0  0  0  0  0  0  0  0  0  0
    8.2562  -16.6212   24.6872 C   0  0  0  0  0  0  0  0  0  0  0  0
    9.5419  -16.6442   24.6460 O   0  0  0  0  0  0  0  0  0  0  0  0
    7.7050  -16.1027   25.8687 N   0  0  0  0  0  0  0  0  0  0  0  0
    8.5252  -15.7462   27.0322 C   0  0  1  0  0  0  0  0  0  0  0  0
    8.1496  -14.4525   27.6585 C   0  0  0  0  0  0  0  0  0  0  0  0
    8.0499  -13.3317   26.7118 C   0  0  0  0  0  0  0  0  0  0  0  0
    9.0667  -13.0112   25.8386 C   0  0  0  0  0  0  0  0  0  0  0  0
    8.9175  -11.9436   24.9707 C   0  0  0  0  0  0  0  0  0  0  0  0
    7.7779  -11.1662   24.9337 C   0  0  0  0  0  0  0  0  0  0  0  0
    6.7643  -11.4921   25.8100 C   0  0  0  0  0  0  0  0  0  0  0  0
    6.9086  -12.5691   26.6892 C   0  0  0  0  0  0  0  0  0  0  0  0
    8.4283  -16.8456   28.0169 C   0  0  0  0  0  0  0  0  0  0  0  0
    7.6701  -17.8183   27.8304 O   0  0  0  0  0  0  0  0  0  0  0  0
    9.1963  -16.8049   29.1825 O   0  0  0  0  0  0  0  0  0  0  0  0
  2  1  1  6
  2  8  1  0
  3  2  1  0
  4  3  1  0
  4  5  1  0
  6  5  1  0
  6  7  1  0
  8  9  2  0
 10 11  1  0
 10  8  1  0
 11 17  1  0
 11 12  1  6
 13 12  1  0
 14 13  1  0
 15 14  1  0
 16 15  1  0
 17 18  2  0
 17 19  1  0
 19 20  1  0
 20 28  1  0
 20 21  1  1
 22 21  1  0
 23 22  2  0
 24 23  1  0
 25 26  1  0
 25 24  2  0
 26 27  2  0
 27 22  1  0
 28 29  2  0
 28 30  1  0
M  END
$$$$
