KKF.pdb
     RDKit          3D

 30 30  0  0  1  0  0  0  0  0999 V2000
    7.1644  -16.9858   20.2637 N   0  0  0  0  0  0  0  0  0  0  0  0
    8.0151  -16.1813   21.1229 C   0  0  1  0  0  0  0  0  0  0  0  0
    7.5423  -14.7705   21.0905 C   0  0  0  0  0  0  0  0  0  0  0  0
    8.2519  -13.9513   20.0453 C   0  0  0  0  0  0  0  0  0  0  0  0
    7.6831  -12.5689   20.0372 C   0  0  0  0  0  0  0  0  0  0  0  0
    8.2651  -11.7151   18.9250 C   0  0  0  0  0  0  0  0  0  0  0  0
    8.4522  -12.5047   17.7255 N   0  0  0  0  0  0  0  0  0  0  0  0
    7.9743  -16.7470   22.5179 C   0  0  0  0  0  0  0  0  0  0  0  0
    7.0796  -17.5707   22.8360 O   0  0  0  0  0  0  0  0  0  0  0  0
    8.9564  -16.3314   23.4465 N   0  0  0  0  0  0  0  0  0  0  0  0
    9.6223  -17.2805   24.3729 C   0  0  1  0  0  0  0  0  0  0  0  0
   10.1535  -18.4115   23.5654 C   0  0  0  0  0  0  0  0  0  0  0  0
    9.3962  -19.6794   23.5480 C   0  0  0  0  0  0  0  0  0  0  0  0
   10.2052  -20.8829   23.1197 C   0  0  0  0  0  0  0  0  0  0  0  0
    9.3761  -22.1509   23.2300 C   0  0  0  0  0  0  0  0  0  0  0  0
   10.2800  -23.2582   22.9105 N   0  0  0  0  0  0  0  0  0  0  0  0
   10.6366  -16.5262   25.1528 C   0  0  0  0  0  0  0  0  0  0  0  0
   11.8253  -17.0083   25.2521 O   0  0  0  0  0  0  0  0  0  0  0  0
   10.4299  -15.3045   25.8111 N   0  0  0  0  0  0  0  0  0  0  0  0
   10.0163  -15.2254   27.2168 C   0  0  1  0  0  0  0  0  0  0  0  0
    8.5462  -15.1255   27.4060 C   0  0  0  0  0  0  0  0  0  0  0  0
    7.9691  -13.8441   26.9732 C   0  0  0  0  0  0  0  0  0  0  0  0
    8.5861  -12.6369   27.2195 C   0  0  0  0  0  0  0  0  0  0  0  0
    7.9948  -11.4616   26.7897 C   0  0  0  0  0  0  0  0  0  0  0  0
    6.7928  -11.4358   26.1123 C   0  0  0  0  0  0  0  0  0  0  0  0
    6.1806  -12.6472   25.8692 C   0  0  0  0  0  0  0  0  0  0  0  0
    6.7723  -13.8378   26.3005 C   0  0  0  0  0  0  0  0  0  0  0  0
   10.5494  -16.4124   27.9201 C   0  0  0  0  0  0  0  0  0  0  0  0
   10.7167  -16.4130   29.1562 O   0  0  0  0  0  0  0  0  0  0  0  0
   10.8756  -17.5613   27.1965 O   0  0  0  0  0  0  0  0  0  0  0  0
  2  1  1  6
  2  8  1  0
  3  2  1  0
  4  3  1  0
  4  5  1  0
  6  5  1  0
  6  7  1  0
  8  9  2  0
 10 11  1  0
 10  8  1  0
 11 17  1  0
 11 12  1  6
 13 12  1  0
 14 13  1  0
 15 14  1  0
 16 15  1  0
 17 18  2  0
 17 19  1  0
 19 20  1  0
 20 28  1  0
 20 21  1  6
 22 21  1  0
 23 22  2  0
 24 23  1  0
 25 26  1  0
 25 24  2  0
 26 27  2  0
 27 22  1  0
 28 29  2  0
 28 30  1  0
M  END
$$$$
