KKF.pdb
     RDKit          3D

 30 30  0  0  1  0  0  0  0  0999 V2000
    7.7345  -17.4190   19.0135 N   0  0  0  0  0  0  0  0  0  0  0  0
    7.9164  -18.5229   19.9393 C   0  0  1  0  0  0  0  0  0  0  0  0
    9.2642  -19.1175   19.7269 C   0  0  0  0  0  0  0  0  0  0  0  0
   10.2856  -18.0911   19.3142 C   0  0  0  0  0  0  0  0  0  0  0  0
   11.0524  -18.6082   18.1398 C   0  0  0  0  0  0  0  0  0  0  0  0
   12.4374  -17.9939   18.0428 C   0  0  0  0  0  0  0  0  0  0  0  0
   13.1598  -18.5487   16.9170 N   0  0  0  0  0  0  0  0  0  0  0  0
    7.7522  -18.0121   21.3463 C   0  0  0  0  0  0  0  0  0  0  0  0
    7.6160  -16.7800   21.5556 O   0  0  0  0  0  0  0  0  0  0  0  0
    7.7553  -18.9437   22.4101 N   0  0  0  0  0  0  0  0  0  0  0  0
    7.4953  -18.5424   23.8150 C   0  0  1  0  0  0  0  0  0  0  0  0
    7.2650  -19.7794   24.6089 C   0  0  0  0  0  0  0  0  0  0  0  0
    7.1176  -19.6573   26.0735 C   0  0  0  0  0  0  0  0  0  0  0  0
    6.8464  -20.9643   26.7838 C   0  0  0  0  0  0  0  0  0  0  0  0
    6.4828  -20.7169   28.2377 C   0  0  0  0  0  0  0  0  0  0  0  0
    6.3100  -22.0383   28.8454 N   0  0  0  0  0  0  0  0  0  0  0  0
    8.6300  -17.6987   24.2696 C   0  0  0  0  0  0  0  0  0  0  0  0
    9.8192  -17.9985   23.8804 O   0  0  0  0  0  0  0  0  0  0  0  0
    8.5394  -16.5730   25.1021 N   0  0  0  0  0  0  0  0  0  0  0  0
    9.7153  -15.7939   25.5069 C   0  0  1  0  0  0  0  0  0  0  0  0
    9.6631  -14.3682   25.0927 C   0  0  0  0  0  0  0  0  0  0  0  0
    8.4795  -13.6431   25.5781 C   0  0  0  0  0  0  0  0  0  0  0  0
    8.4335  -13.0571   26.8245 C   0  0  0  0  0  0  0  0  0  0  0  0
    7.2911  -12.3885   27.2288 C   0  0  0  0  0  0  0  0  0  0  0  0
    6.1710  -12.2760   26.4307 C   0  0  0  0  0  0  0  0  0  0  0  0
    6.2236  -12.8646   25.1848 C   0  0  0  0  0  0  0  0  0  0  0  0
    7.3741  -13.5413   24.7703 C   0  0  0  0  0  0  0  0  0  0  0  0
    9.8548  -15.9018   26.9754 C   0  0  0  0  0  0  0  0  0  0  0  0
   10.8251  -15.3953   27.5736 O   0  0  0  0  0  0  0  0  0  0  0  0
    8.8872  -16.5819   27.7179 O   0  0  0  0  0  0  0  0  0  0  0  0
  2  1  1  6
  2  8  1  0
  3  2  1  0
  4  3  1  0
  4  5  1  0
  6  5  1  0
  6  7  1  0
  8  9  2  0
 10 11  1  0
 10  8  1  0
 11 17  1  0
 11 12  1  1
 13 12  1  0
 14 13  1  0
 15 14  1  0
 16 15  1  0
 17 18  2  0
 17 19  1  0
 19 20  1  0
 20 28  1  0
 20 21  1  1
 22 21  1  0
 23 22  2  0
 24 23  1  0
 25 26  1  0
 25 24  2  0
 26 27  2  0
 27 22  1  0
 28 29  2  0
 28 30  1  0
M  END
$$$$
