FFY.pdb
     RDKit          3D

 35 37  0  0  1  0  0  0  0  0999 V2000
    7.4351  -12.5591   21.6406 N   0  0  0  0  0  0  0  0  0  0  0  0
    7.9074  -13.9246   21.7250 C   0  0  1  0  0  0  0  0  0  0  0  0
    8.8666  -14.1514   20.5775 C   0  0  0  0  0  0  0  0  0  0  0  0
    8.1017  -13.9996   19.3138 C   0  0  0  0  0  0  0  0  0  0  0  0
    8.3043  -12.9008   18.5067 C   0  0  0  0  0  0  0  0  0  0  0  0
    7.5829  -12.7698   17.3276 C   0  0  0  0  0  0  0  0  0  0  0  0
    6.6607  -13.7471   16.9677 C   0  0  0  0  0  0  0  0  0  0  0  0
    6.4498  -14.8486   17.7654 C   0  0  0  0  0  0  0  0  0  0  0  0
    7.1717  -14.9613   18.9269 C   0  0  0  0  0  0  0  0  0  0  0  0
    8.6218  -14.1591   23.0016 C   0  0  0  0  0  0  0  0  0  0  0  0
    9.5604  -13.4320   23.3575 O   0  0  0  0  0  0  0  0  0  0  0  0
    8.2153  -15.2468   23.8342 N   0  0  0  0  0  0  0  0  0  0  0  0
    8.9157  -15.5456   25.0945 C   0  0  1  0  0  0  0  0  0  0  0  0
    7.9506  -15.5362   26.2414 C   0  0  0  0  0  0  0  0  0  0  0  0
    7.3457  -14.2275   26.4736 C   0  0  0  0  0  0  0  0  0  0  0  0
    6.0399  -14.0208   26.0222 C   0  0  0  0  0  0  0  0  0  0  0  0
    5.4238  -12.8088   26.2326 C   0  0  0  0  0  0  0  0  0  0  0  0
    6.0831  -11.7906   26.8871 C   0  0  0  0  0  0  0  0  0  0  0  0
    7.3666  -11.9989   27.3291 C   0  0  0  0  0  0  0  0  0  0  0  0
    7.9818  -13.2132   27.1176 C   0  0  0  0  0  0  0  0  0  0  0  0
    9.5152  -16.8843   24.9592 C   0  0  0  0  0  0  0  0  0  0  0  0
    8.8716  -17.8844   24.5493 O   0  0  0  0  0  0  0  0  0  0  0  0
   14.9788  -15.7266   18.8343 O   0  0  0  0  0  0  0  0  0  0  0  0
   14.1394  -15.7617   19.9390 C   0  0  0  0  0  0  0  0  0  0  0  0
   14.1895  -16.8602   20.7713 C   0  0  0  0  0  0  0  0  0  0  0  0
   13.3671  -16.9125   21.8683 C   0  0  0  0  0  0  0  0  0  0  0  0
   12.4831  -15.8855   22.1637 C   0  0  0  0  0  0  0  0  0  0  0  0
   11.6004  -15.9361   23.3275 C   0  0  0  0  0  0  0  0  0  0  0  0
   11.8586  -17.1209   24.2338 C   0  0  2  0  0  0  0  0  0  0  0  0
   10.8748  -17.0813   25.2990 N   0  0  0  0  0  0  0  0  0  0  0  0
   13.1945  -17.1359   24.8368 C   0  0  0  0  0  0  0  0  0  0  0  0
   13.5031  -16.2647   25.8571 O   0  0  0  0  0  0  0  0  0  0  0  0
   12.4493  -14.7988   21.3199 C   0  0  0  0  0  0  0  0  0  0  0  0
   13.2743  -14.7191   20.1972 C   0  0  0  0  0  0  0  0  0  0  0  0
   14.0687  -17.9347   24.4368 O   0  0  0  0  0  0  0  0  0  0  0  0
  2  1  1  1
  2  3  1  0
  3  4  1  0
  4  9  1  0
  4  5  2  0
  5  6  1  0
  6  7  2  0
  8  7  1  0
  9  8  2  0
 10 12  1  0
 10  2  1  0
 11 10  2  0
 13 12  1  0
 13 21  1  0
 13 14  1  1
 15 20  1  0
 15 14  1  0
 16 15  2  0
 17 18  2  0
 17 16  1  0
 18 19  1  0
 19 20  2  0
 21 22  2  0
 23 24  1  0
 24 25  2  0
 24 34  1  0
 25 26  1  0
 26 27  2  0
 27 28  1  0
 29 31  1  0
 29 28  1  6
 30 21  1  0
 30 29  1  0
 31 32  1  0
 33 27  1  0
 34 33  2  0
 35 31  2  0
M  END
$$$$
