FFY.pdb
     RDKit          3D

 35 37  0  0  1  0  0  0  0  0999 V2000
    8.1896  -15.9766   19.4174 N   0  0  0  0  0  0  0  0  0  0  0  0
    7.5316  -16.3786   20.6423 C   0  0  1  0  0  0  0  0  0  0  0  0
    7.6084  -17.8867   20.7322 C   0  0  0  0  0  0  0  0  0  0  0  0
    6.4952  -18.4438   19.9225 C   0  0  0  0  0  0  0  0  0  0  0  0
    6.7242  -18.8847   18.6368 C   0  0  0  0  0  0  0  0  0  0  0  0
    5.6754  -19.4034   17.8893 C   0  0  0  0  0  0  0  0  0  0  0  0
    4.4005  -19.4752   18.4416 C   0  0  0  0  0  0  0  0  0  0  0  0
    4.1597  -19.0382   19.7242 C   0  0  0  0  0  0  0  0  0  0  0  0
    5.2083  -18.5286   20.4478 C   0  0  0  0  0  0  0  0  0  0  0  0
    8.2080  -15.7921   21.8228 C   0  0  0  0  0  0  0  0  0  0  0  0
    9.4262  -15.5637   21.8199 O   0  0  0  0  0  0  0  0  0  0  0  0
    7.4343  -15.4862   22.9844 N   0  0  0  0  0  0  0  0  0  0  0  0
    8.0479  -14.8557   24.1651 C   0  0  1  0  0  0  0  0  0  0  0  0
    6.9917  -14.2533   25.0418 C   0  0  0  0  0  0  0  0  0  0  0  0
    7.5114  -13.7658   26.3165 C   0  0  0  0  0  0  0  0  0  0  0  0
    7.7897  -12.4016   26.4310 C   0  0  0  0  0  0  0  0  0  0  0  0
    8.2660  -11.8947   27.6180 C   0  0  0  0  0  0  0  0  0  0  0  0
    8.4730  -12.7212   28.7015 C   0  0  0  0  0  0  0  0  0  0  0  0
    8.1976  -14.0615   28.5838 C   0  0  0  0  0  0  0  0  0  0  0  0
    7.7206  -14.5673   27.3945 C   0  0  0  0  0  0  0  0  0  0  0  0
    8.7670  -15.9083   24.9034 C   0  0  0  0  0  0  0  0  0  0  0  0
    8.2091  -16.9566   25.3182 O   0  0  0  0  0  0  0  0  0  0  0  0
   11.5881  -18.3420   19.6848 O   0  0  0  0  0  0  0  0  0  0  0  0
   11.7373  -18.0059   21.0231 C   0  0  0  0  0  0  0  0  0  0  0  0
   11.4223  -18.9484   21.9793 C   0  0  0  0  0  0  0  0  0  0  0  0
   11.5636  -18.6342   23.3073 C   0  0  0  0  0  0  0  0  0  0  0  0
   12.0168  -17.3886   23.7155 C   0  0  0  0  0  0  0  0  0  0  0  0
   12.1651  -17.0446   25.1282 C   0  0  0  0  0  0  0  0  0  0  0  0
   10.8473  -16.8367   25.8436 C   0  0  2  0  0  0  0  0  0  0  0  0
   10.1484  -15.7578   25.1714 N   0  0  0  0  0  0  0  0  0  0  0  0
   10.9817  -16.4897   27.2613 C   0  0  0  0  0  0  0  0  0  0  0  0
   10.6520  -15.2267   27.6990 O   0  0  0  0  0  0  0  0  0  0  0  0
   12.3253  -16.4630   22.7448 C   0  0  0  0  0  0  0  0  0  0  0  0
   12.1912  -16.7554   21.3868 C   0  0  0  0  0  0  0  0  0  0  0  0
   11.3952  -17.3293   28.0897 O   0  0  0  0  0  0  0  0  0  0  0  0
  2  1  1  6
  2  3  1  0
  3  4  1  0
  4  9  1  0
  4  5  2  0
  5  6  1  0
  6  7  2  0
  8  7  1  0
  9  8  2  0
 10 12  1  0
 10  2  1  0
 11 10  2  0
 13 12  1  0
 13 21  1  0
 13 14  1  1
 15 20  1  0
 15 14  1  0
 16 15  2  0
 17 18  2  0
 17 16  1  0
 18 19  1  0
 19 20  2  0
 21 22  2  0
 23 24  1  0
 24 25  2  0
 24 34  1  0
 25 26  1  0
 26 27  2  0
 27 28  1  0
 29 31  1  0
 29 28  1  6
 30 21  1  0
 30 29  1  0
 31 32  1  0
 33 27  1  0
 34 33  2  0
 35 31  2  0
M  END
$$$$
