FFY.pdb
     RDKit          3D

 35 37  0  0  1  0  0  0  0  0999 V2000
   10.2264  -17.4375   20.5036 N   0  0  0  0  0  0  0  0  0  0  0  0
    9.2828  -16.4224   20.9210 C   0  0  1  0  0  0  0  0  0  0  0  0
    8.0682  -16.5272   20.0253 C   0  0  0  0  0  0  0  0  0  0  0  0
    7.8437  -15.1935   19.4123 C   0  0  0  0  0  0  0  0  0  0  0  0
    8.1358  -14.9823   18.0819 C   0  0  0  0  0  0  0  0  0  0  0  0
    7.9219  -13.7308   17.5199 C   0  0  0  0  0  0  0  0  0  0  0  0
    7.4146  -12.6980   18.3017 C   0  0  0  0  0  0  0  0  0  0  0  0
    7.1192  -12.8969   19.6311 C   0  0  0  0  0  0  0  0  0  0  0  0
    7.3370  -14.1401   20.1694 C   0  0  0  0  0  0  0  0  0  0  0  0
    8.8635  -16.6359   22.3258 C   0  0  0  0  0  0  0  0  0  0  0  0
    9.3886  -17.5111   23.0289 O   0  0  0  0  0  0  0  0  0  0  0  0
    7.8325  -15.8127   22.8745 N   0  0  0  0  0  0  0  0  0  0  0  0
    8.0229  -15.1000   24.1489 C   0  0  1  0  0  0  0  0  0  0  0  0
    7.1476  -13.8842   24.2013 C   0  0  0  0  0  0  0  0  0  0  0  0
    7.0876  -13.2753   25.5273 C   0  0  0  0  0  0  0  0  0  0  0  0
    8.2232  -12.6078   25.9929 C   0  0  0  0  0  0  0  0  0  0  0  0
    8.2074  -12.0055   27.2297 C   0  0  0  0  0  0  0  0  0  0  0  0
    7.0786  -12.0531   28.0192 C   0  0  0  0  0  0  0  0  0  0  0  0
    5.9649  -12.7103   27.5569 C   0  0  0  0  0  0  0  0  0  0  0  0
    5.9825  -13.3127   26.3181 C   0  0  0  0  0  0  0  0  0  0  0  0
    7.6527  -16.0270   25.2322 C   0  0  0  0  0  0  0  0  0  0  0  0
    6.4677  -16.3895   25.4480 O   0  0  0  0  0  0  0  0  0  0  0  0
   10.4646  -21.7163   22.9203 O   0  0  0  0  0  0  0  0  0  0  0  0
    9.7125  -20.9501   23.7998 C   0  0  0  0  0  0  0  0  0  0  0  0
   10.3703  -20.0926   24.6565 C   0  0  0  0  0  0  0  0  0  0  0  0
    9.6435  -19.3272   25.5331 C   0  0  0  0  0  0  0  0  0  0  0  0
    8.2590  -19.3931   25.5806 C   0  0  0  0  0  0  0  0  0  0  0  0
    7.4782  -18.5848   26.5149 C   0  0  0  0  0  0  0  0  0  0  0  0
    8.2654  -17.4554   27.1447 C   0  0  2  0  0  0  0  0  0  0  0  0
    8.6566  -16.5477   26.0830 N   0  0  0  0  0  0  0  0  0  0  0  0
    9.4733  -17.8876   27.8536 C   0  0  0  0  0  0  0  0  0  0  0  0
   10.7048  -17.3921   27.4885 O   0  0  0  0  0  0  0  0  0  0  0  0
    7.6229  -20.2555   24.7171 C   0  0  0  0  0  0  0  0  0  0  0  0
    8.3368  -21.0457   23.8152 C   0  0  0  0  0  0  0  0  0  0  0  0
    9.4048  -18.7076   28.7946 O   0  0  0  0  0  0  0  0  0  0  0  0
  2  1  1  6
  2  3  1  0
  3  4  1  0
  4  9  1  0
  4  5  2  0
  5  6  1  0
  6  7  2  0
  8  7  1  0
  9  8  2  0
 10 12  1  0
 10  2  1  0
 11 10  2  0
 13 12  1  0
 13 21  1  0
 13 14  1  6
 15 20  1  0
 15 14  1  0
 16 15  2  0
 17 18  2  0
 17 16  1  0
 18 19  1  0
 19 20  2  0
 21 22  2  0
 23 24  1  0
 24 25  2  0
 24 34  1  0
 25 26  1  0
 26 27  2  0
 27 28  1  0
 29 31  1  0
 29 28  1  6
 30 21  1  0
 30 29  1  0
 31 32  1  0
 33 27  1  0
 34 33  2  0
 35 31  2  0
M  END
$$$$
