FFY.pdb
     RDKit          3D

 35 37  0  0  1  0  0  0  0  0999 V2000
    7.2360  -18.7698   19.6718 N   0  0  0  0  0  0  0  0  0  0  0  0
    8.0254  -18.4120   20.8310 C   0  0  1  0  0  0  0  0  0  0  0  0
    9.4473  -18.8607   20.5758 C   0  0  0  0  0  0  0  0  0  0  0  0
    9.4169  -20.3194   20.2993 C   0  0  0  0  0  0  0  0  0  0  0  0
    8.2248  -21.0100   20.3423 C   0  0  0  0  0  0  0  0  0  0  0  0
    8.2090  -22.3737   20.0821 C   0  0  0  0  0  0  0  0  0  0  0  0
    9.3951  -23.0349   19.7798 C   0  0  0  0  0  0  0  0  0  0  0  0
   10.5913  -22.3560   19.7339 C   0  0  0  0  0  0  0  0  0  0  0  0
   10.5877  -21.0087   19.9937 C   0  0  0  0  0  0  0  0  0  0  0  0
    8.0156  -16.9461   21.0454 C   0  0  0  0  0  0  0  0  0  0  0  0
    7.2900  -16.2012   20.3709 O   0  0  0  0  0  0  0  0  0  0  0  0
    8.8619  -16.3866   22.0515 N   0  0  0  0  0  0  0  0  0  0  0  0
    8.5353  -15.1035   22.6959 C   0  0  1  0  0  0  0  0  0  0  0  0
    7.1699  -15.1628   23.3117 C   0  0  0  0  0  0  0  0  0  0  0  0
    6.8144  -13.9484   24.0407 C   0  0  0  0  0  0  0  0  0  0  0  0
    6.3268  -14.0858   25.3426 C   0  0  0  0  0  0  0  0  0  0  0  0
    5.9938  -12.9686   26.0732 C   0  0  0  0  0  0  0  0  0  0  0  0
    6.1363  -11.7085   25.5330 C   0  0  0  0  0  0  0  0  0  0  0  0
    6.6162  -11.5788   24.2528 C   0  0  0  0  0  0  0  0  0  0  0  0
    6.9493  -12.6987   23.5228 C   0  0  0  0  0  0  0  0  0  0  0  0
    9.5438  -14.8666   23.7431 C   0  0  0  0  0  0  0  0  0  0  0  0
    9.6567  -13.7702   24.3493 O   0  0  0  0  0  0  0  0  0  0  0  0
   11.5029  -16.0577   31.7970 O   0  0  0  0  0  0  0  0  0  0  0  0
   11.0981  -15.9742   30.4721 C   0  0  0  0  0  0  0  0  0  0  0  0
   10.8499  -17.1428   29.7831 C   0  0  0  0  0  0  0  0  0  0  0  0
   10.4488  -17.0801   28.4725 C   0  0  0  0  0  0  0  0  0  0  0  0
   10.2857  -15.8675   27.8194 C   0  0  0  0  0  0  0  0  0  0  0  0
    9.8637  -15.7925   26.4222 C   0  0  0  0  0  0  0  0  0  0  0  0
   11.0078  -15.8978   25.4364 C   0  0  2  0  0  0  0  0  0  0  0  0
   10.4385  -15.9027   24.1022 N   0  0  0  0  0  0  0  0  0  0  0  0
   11.8281  -17.1021   25.5948 C   0  0  0  0  0  0  0  0  0  0  0  0
   11.3591  -18.3212   25.1601 O   0  0  0  0  0  0  0  0  0  0  0  0
   10.5389  -14.7137   28.5257 C   0  0  0  0  0  0  0  0  0  0  0  0
   10.9479  -14.7478   29.8594 C   0  0  0  0  0  0  0  0  0  0  0  0
   12.9591  -17.0415   26.1236 O   0  0  0  0  0  0  0  0  0  0  0  0
  2  1  1  6
  2  3  1  0
  3  4  1  0
  4  9  1  0
  4  5  2  0
  5  6  1  0
  6  7  2  0
  8  7  1  0
  9  8  2  0
 10 12  1  0
 10  2  1  0
 11 10  2  0
 13 12  1  0
 13 21  1  0
 13 14  1  1
 15 20  1  0
 15 14  1  0
 16 15  2  0
 17 18  2  0
 17 16  1  0
 18 19  1  0
 19 20  2  0
 21 22  2  0
 23 24  1  0
 24 25  2  0
 24 34  1  0
 25 26  1  0
 26 27  2  0
 27 28  1  0
 29 31  1  0
 29 28  1  1
 30 21  1  0
 30 29  1  0
 31 32  1  0
 33 27  1  0
 34 33  2  0
 35 31  2  0
M  END
$$$$
