FFY.pdb
     RDKit          3D

 35 37  0  0  1  0  0  0  0  0999 V2000
    7.7403  -17.8844   21.6743 N   0  0  0  0  0  0  0  0  0  0  0  0
    8.2000  -16.5279   21.4658 C   0  0  1  0  0  0  0  0  0  0  0  0
    7.0127  -15.7031   21.0205 C   0  0  0  0  0  0  0  0  0  0  0  0
    7.5069  -14.3417   20.6929 C   0  0  0  0  0  0  0  0  0  0  0  0
    7.4378  -13.3333   21.6299 C   0  0  0  0  0  0  0  0  0  0  0  0
    7.9029  -12.0643   21.3119 C   0  0  0  0  0  0  0  0  0  0  0  0
    8.4356  -11.8179   20.0506 C   0  0  0  0  0  0  0  0  0  0  0  0
    8.5098  -12.8167   19.1068 C   0  0  0  0  0  0  0  0  0  0  0  0
    8.0454  -14.0645   19.4389 C   0  0  0  0  0  0  0  0  0  0  0  0
    8.7401  -15.9540   22.7203 C   0  0  0  0  0  0  0  0  0  0  0  0
    9.5233  -14.9935   22.7045 O   0  0  0  0  0  0  0  0  0  0  0  0
    8.3460  -16.5240   23.9698 N   0  0  0  0  0  0  0  0  0  0  0  0
    8.7585  -15.9198   25.2477 C   0  0  1  0  0  0  0  0  0  0  0  0
    7.5553  -15.5585   26.0653 C   0  0  0  0  0  0  0  0  0  0  0  0
    7.3208  -14.1190   26.1389 C   0  0  0  0  0  0  0  0  0  0  0  0
    8.4320  -13.2727   26.1124 C   0  0  0  0  0  0  0  0  0  0  0  0
    8.2585  -11.9089   26.1636 C   0  0  0  0  0  0  0  0  0  0  0  0
    6.9945  -11.3646   26.2412 C   0  0  0  0  0  0  0  0  0  0  0  0
    5.9054  -12.2008   26.2668 C   0  0  0  0  0  0  0  0  0  0  0  0
    6.0811  -13.5662   26.2153 C   0  0  0  0  0  0  0  0  0  0  0  0
    9.5677  -16.9187   25.9670 C   0  0  0  0  0  0  0  0  0  0  0  0
    9.9638  -16.7557   27.1497 O   0  0  0  0  0  0  0  0  0  0  0  0
   12.3604  -20.4070   20.0397 O   0  0  0  0  0  0  0  0  0  0  0  0
   11.8921  -20.4098   21.3461 C   0  0  0  0  0  0  0  0  0  0  0  0
   12.7749  -20.7076   22.3629 C   0  0  0  0  0  0  0  0  0  0  0  0
   12.3301  -20.7152   23.6608 C   0  0  0  0  0  0  0  0  0  0  0  0
   11.0105  -20.4301   23.9787 C   0  0  0  0  0  0  0  0  0  0  0  0
   10.5279  -20.4411   25.3582 C   0  0  0  0  0  0  0  0  0  0  0  0
   10.6858  -19.1126   26.0668 C   0  0  2  0  0  0  0  0  0  0  0  0
    9.9295  -18.1248   25.3210 N   0  0  0  0  0  0  0  0  0  0  0  0
   12.0726  -18.6504   26.1743 C   0  0  0  0  0  0  0  0  0  0  0  0
   13.0122  -19.4242   26.8175 O   0  0  0  0  0  0  0  0  0  0  0  0
   10.1466  -20.1358   22.9487 C   0  0  0  0  0  0  0  0  0  0  0  0
   10.5716  -20.1207   21.6196 C   0  0  0  0  0  0  0  0  0  0  0  0
   12.4217  -17.5537   25.6869 O   0  0  0  0  0  0  0  0  0  0  0  0
  2  1  1  1
  2  3  1  0
  3  4  1  0
  4  9  1  0
  4  5  2  0
  5  6  1  0
  6  7  2  0
  8  7  1  0
  9  8  2  0
 10 12  1  0
 10  2  1  0
 11 10  2  0
 13 12  1  0
 13 21  1  0
 13 14  1  1
 15 20  1  0
 15 14  1  0
 16 15  2  0
 17 18  2  0
 17 16  1  0
 18 19  1  0
 19 20  2  0
 21 22  2  0
 23 24  1  0
 24 25  2  0
 24 34  1  0
 25 26  1  0
 26 27  2  0
 27 28  1  0
 29 31  1  0
 29 28  1  6
 30 21  1  0
 30 29  1  0
 31 32  1  0
 33 27  1  0
 34 33  2  0
 35 31  2  0
M  END
$$$$
