FFY.pdb
     RDKit          3D

 35 37  0  0  1  0  0  0  0  0999 V2000
    9.0073  -17.9646   20.2296 N   0  0  0  0  0  0  0  0  0  0  0  0
    9.1098  -16.5565   19.9106 C   0  0  1  0  0  0  0  0  0  0  0  0
    7.8228  -16.1437   19.2312 C   0  0  0  0  0  0  0  0  0  0  0  0
    7.8301  -14.6635   19.1129 C   0  0  0  0  0  0  0  0  0  0  0  0
    8.6549  -14.0436   18.1991 C   0  0  0  0  0  0  0  0  0  0  0  0
    8.6532  -12.6589   18.0977 C   0  0  0  0  0  0  0  0  0  0  0  0
    7.8198  -11.9055   18.9183 C   0  0  0  0  0  0  0  0  0  0  0  0
    6.9918  -12.5132   19.8344 C   0  0  0  0  0  0  0  0  0  0  0  0
    7.0070  -13.8826   19.9205 C   0  0  0  0  0  0  0  0  0  0  0  0
    9.2852  -15.7474   21.1392 C   0  0  0  0  0  0  0  0  0  0  0  0
   10.0536  -14.7753   21.1662 O   0  0  0  0  0  0  0  0  0  0  0  0
    8.5508  -16.1005   22.3129 N   0  0  0  0  0  0  0  0  0  0  0  0
    8.5963  -15.2617   23.5222 C   0  0  1  0  0  0  0  0  0  0  0  0
    7.2107  -14.8630   23.9319 C   0  0  0  0  0  0  0  0  0  0  0  0
    7.1907  -13.8277   24.9617 C   0  0  0  0  0  0  0  0  0  0  0  0
    6.5484  -14.1170   26.1681 C   0  0  0  0  0  0  0  0  0  0  0  0
    6.5180  -13.1778   27.1729 C   0  0  0  0  0  0  0  0  0  0  0  0
    7.1169  -11.9481   27.0026 C   0  0  0  0  0  0  0  0  0  0  0  0
    7.7472  -11.6687   25.8148 C   0  0  0  0  0  0  0  0  0  0  0  0
    7.7767  -12.6105   24.8099 C   0  0  0  0  0  0  0  0  0  0  0  0
    9.2206  -16.0613   24.5903 C   0  0  0  0  0  0  0  0  0  0  0  0
    9.0669  -17.3056   24.6927 O   0  0  0  0  0  0  0  0  0  0  0  0
   13.9156  -17.9949   31.7843 O   0  0  0  0  0  0  0  0  0  0  0  0
   13.2731  -17.3328   30.7475 C   0  0  0  0  0  0  0  0  0  0  0  0
   13.9135  -17.2349   29.5300 C   0  0  0  0  0  0  0  0  0  0  0  0
   13.2939  -16.5841   28.4931 C   0  0  0  0  0  0  0  0  0  0  0  0
   12.0354  -16.0195   28.6376 C   0  0  0  0  0  0  0  0  0  0  0  0
   11.3710  -15.3203   27.5395 C   0  0  0  0  0  0  0  0  0  0  0  0
   10.7315  -16.2478   26.5283 C   0  0  2  0  0  0  0  0  0  0  0  0
   10.0347  -15.4254   25.5576 N   0  0  0  0  0  0  0  0  0  0  0  0
    9.7742  -17.1964   27.1047 C   0  0  0  0  0  0  0  0  0  0  0  0
    8.5733  -16.7485   27.6074 O   0  0  0  0  0  0  0  0  0  0  0  0
   11.4145  -16.1287   29.8610 C   0  0  0  0  0  0  0  0  0  0  0  0
   12.0211  -16.7850   30.9327 C   0  0  0  0  0  0  0  0  0  0  0  0
   10.0312  -18.4188   27.1486 O   0  0  0  0  0  0  0  0  0  0  0  0
  2  1  1  1
  2  3  1  0
  3  4  1  0
  4  9  1  0
  4  5  2  0
  5  6  1  0
  6  7  2  0
  8  7  1  0
  9  8  2  0
 10 12  1  0
 10  2  1  0
 11 10  2  0
 13 12  1  0
 13 21  1  0
 13 14  1  1
 15 20  1  0
 15 14  1  0
 16 15  2  0
 17 18  2  0
 17 16  1  0
 18 19  1  0
 19 20  2  0
 21 22  2  0
 23 24  1  0
 24 25  2  0
 24 34  1  0
 25 26  1  0
 26 27  2  0
 27 28  1  0
 29 31  1  0
 29 28  1  1
 30 21  1  0
 30 29  1  0
 31 32  1  0
 33 27  1  0
 34 33  2  0
 35 31  2  0
M  END
$$$$
