FFY.pdb
     RDKit          3D

 35 37  0  0  1  0  0  0  0  0999 V2000
    5.6567  -17.9351   24.0591 N   0  0  0  0  0  0  0  0  0  0  0  0
    6.5806  -16.8428   24.2793 C   0  0  1  0  0  0  0  0  0  0  0  0
    6.9155  -16.8137   25.7542 C   0  0  0  0  0  0  0  0  0  0  0  0
    7.2884  -15.4197   26.1044 C   0  0  0  0  0  0  0  0  0  0  0  0
    8.6074  -15.0890   26.3297 C   0  0  0  0  0  0  0  0  0  0  0  0
    8.9438  -13.7823   26.6567 C   0  0  0  0  0  0  0  0  0  0  0  0
    7.9489  -12.8149   26.7551 C   0  0  0  0  0  0  0  0  0  0  0  0
    6.6286  -13.1331   26.5323 C   0  0  0  0  0  0  0  0  0  0  0  0
    6.3149  -14.4295   26.2103 C   0  0  0  0  0  0  0  0  0  0  0  0
    7.8291  -17.0426   23.5072 C   0  0  0  0  0  0  0  0  0  0  0  0
    8.0838  -18.1268   22.9635 O   0  0  0  0  0  0  0  0  0  0  0  0
    8.7536  -15.9593   23.3911 N   0  0  0  0  0  0  0  0  0  0  0  0
    9.9054  -16.0343   22.4768 C   0  0  1  0  0  0  0  0  0  0  0  0
   10.2594  -14.6680   21.9720 C   0  0  0  0  0  0  0  0  0  0  0  0
    9.1486  -13.9960   21.3035 C   0  0  0  0  0  0  0  0  0  0  0  0
    9.1086  -12.6001   21.3435 C   0  0  0  0  0  0  0  0  0  0  0  0
    8.0893  -11.9235   20.7142 C   0  0  0  0  0  0  0  0  0  0  0  0
    7.1017  -12.6102   20.0411 C   0  0  0  0  0  0  0  0  0  0  0  0
    7.1456  -13.9823   20.0045 C   0  0  0  0  0  0  0  0  0  0  0  0
    8.1672  -14.6581   20.6351 C   0  0  0  0  0  0  0  0  0  0  0  0
   11.0366  -16.5926   23.2375 C   0  0  0  0  0  0  0  0  0  0  0  0
   12.2300  -16.5110   22.8484 O   0  0  0  0  0  0  0  0  0  0  0  0
    9.5581  -12.9035   28.6697 O   0  0  0  0  0  0  0  0  0  0  0  0
   10.0312  -14.1177   28.1920 C   0  0  0  0  0  0  0  0  0  0  0  0
   10.9813  -14.1085   27.1924 C   0  0  0  0  0  0  0  0  0  0  0  0
   11.4609  -15.2991   26.7077 C   0  0  0  0  0  0  0  0  0  0  0  0
   11.0136  -16.5168   27.1983 C   0  0  0  0  0  0  0  0  0  0  0  0
   11.5158  -17.7892   26.6836 C   0  0  0  0  0  0  0  0  0  0  0  0
   11.9335  -17.7331   25.2296 C   0  0  2  0  0  0  0  0  0  0  0  0
   10.7972  -17.2556   24.4647 N   0  0  0  0  0  0  0  0  0  0  0  0
   12.3562  -19.0227   24.6760 C   0  0  0  0  0  0  0  0  0  0  0  0
   13.4453  -19.6790   25.2037 O   0  0  0  0  0  0  0  0  0  0  0  0
   10.0652  -16.5029   28.1955 C   0  0  0  0  0  0  0  0  0  0  0  0
    9.5599  -15.3070   28.7073 C   0  0  0  0  0  0  0  0  0  0  0  0
   11.7386  -19.5435   23.7222 O   0  0  0  0  0  0  0  0  0  0  0  0
  2  1  1  1
  2  3  1  0
  3  4  1  0
  4  9  1  0
  4  5  2  0
  5  6  1  0
  6  7  2  0
  8  7  1  0
  9  8  2  0
 10 12  1  0
 10  2  1  0
 11 10  2  0
 13 12  1  0
 13 21  1  0
 13 14  1  1
 15 20  1  0
 15 14  1  0
 16 15  2  0
 17 18  2  0
 17 16  1  0
 18 19  1  0
 19 20  2  0
 21 22  2  0
 23 24  1  0
 24 25  2  0
 24 34  1  0
 25 26  1  0
 26 27  2  0
 27 28  1  0
 29 31  1  0
 29 28  1  1
 30 21  1  0
 30 29  1  0
 31 32  1  0
 33 27  1  0
 34 33  2  0
 35 31  2  0
M  END
$$$$
