FFY.pdb
     RDKit          3D

 35 37  0  0  1  0  0  0  0  0999 V2000
    7.4456  -17.4015   20.5556 N   0  0  0  0  0  0  0  0  0  0  0  0
    8.7788  -17.0078   20.9589 C   0  0  1  0  0  0  0  0  0  0  0  0
    9.4196  -16.2905   19.7913 C   0  0  0  0  0  0  0  0  0  0  0  0
    8.7006  -15.0050   19.6024 C   0  0  0  0  0  0  0  0  0  0  0  0
    7.5759  -14.7221   20.3472 C   0  0  0  0  0  0  0  0  0  0  0  0
    6.9119  -13.5169   20.1616 C   0  0  0  0  0  0  0  0  0  0  0  0
    7.3850  -12.6025   19.2259 C   0  0  0  0  0  0  0  0  0  0  0  0
    8.5070  -12.8738   18.4765 C   0  0  0  0  0  0  0  0  0  0  0  0
    9.1501  -14.0698   18.6736 C   0  0  0  0  0  0  0  0  0  0  0  0
    8.7302  -16.0882   22.1194 C   0  0  0  0  0  0  0  0  0  0  0  0
    9.1882  -14.9386   22.0501 O   0  0  0  0  0  0  0  0  0  0  0  0
    8.1422  -16.5422   23.3399 N   0  0  0  0  0  0  0  0  0  0  0  0
    8.0964  -15.6789   24.5319 C   0  0  1  0  0  0  0  0  0  0  0  0
    7.2362  -14.4789   24.2731 C   0  0  0  0  0  0  0  0  0  0  0  0
    7.1427  -13.5799   25.4201 C   0  0  0  0  0  0  0  0  0  0  0  0
    5.9065  -13.4618   26.0599 C   0  0  0  0  0  0  0  0  0  0  0  0
    5.7751  -12.6385   27.1543 C   0  0  0  0  0  0  0  0  0  0  0  0
    6.8544  -11.9251   27.6296 C   0  0  0  0  0  0  0  0  0  0  0  0
    8.0675  -12.0448   26.9972 C   0  0  0  0  0  0  0  0  0  0  0  0
    8.1973  -12.8698   25.9015 C   0  0  0  0  0  0  0  0  0  0  0  0
    7.5233  -16.4747   25.6310 C   0  0  0  0  0  0  0  0  0  0  0  0
    6.3053  -16.7835   25.6898 O   0  0  0  0  0  0  0  0  0  0  0  0
   14.0566  -21.3202   23.7521 O   0  0  0  0  0  0  0  0  0  0  0  0
   13.0760  -20.4087   24.1180 C   0  0  0  0  0  0  0  0  0  0  0  0
   12.9371  -19.2552   23.3751 C   0  0  0  0  0  0  0  0  0  0  0  0
   11.9732  -18.3424   23.7217 C   0  0  0  0  0  0  0  0  0  0  0  0
   11.1312  -18.5499   24.8041 C   0  0  0  0  0  0  0  0  0  0  0  0
   10.1054  -17.5801   25.1827 C   0  0  0  0  0  0  0  0  0  0  0  0
    9.3105  -17.9842   26.4061 C   0  0  2  0  0  0  0  0  0  0  0  0
    8.3589  -16.9244   26.6809 N   0  0  0  0  0  0  0  0  0  0  0  0
   10.1236  -18.1998   27.6064 C   0  0  0  0  0  0  0  0  0  0  0  0
   10.3367  -19.4755   28.0781 O   0  0  0  0  0  0  0  0  0  0  0  0
   11.2872  -19.7076   25.5318 C   0  0  0  0  0  0  0  0  0  0  0  0
   12.2590  -20.6532   25.2019 C   0  0  0  0  0  0  0  0  0  0  0  0
   10.6330  -17.2352   28.2166 O   0  0  0  0  0  0  0  0  0  0  0  0
  2  1  1  6
  2  3  1  0
  3  4  1  0
  4  9  1  0
  4  5  2  0
  5  6  1  0
  6  7  2  0
  8  7  1  0
  9  8  2  0
 10 12  1  0
 10  2  1  0
 11 10  2  0
 13 12  1  0
 13 21  1  0
 13 14  1  6
 15 20  1  0
 15 14  1  0
 16 15  2  0
 17 18  2  0
 17 16  1  0
 18 19  1  0
 19 20  2  0
 21 22  2  0
 23 24  1  0
 24 25  2  0
 24 34  1  0
 25 26  1  0
 26 27  2  0
 27 28  1  0
 29 31  1  0
 29 28  1  6
 30 21  1  0
 30 29  1  0
 31 32  1  0
 33 27  1  0
 34 33  2  0
 35 31  2  0
M  END
$$$$
