FFY.pdb
     RDKit          3D

 35 37  0  0  1  0  0  0  0  0999 V2000
    8.3807  -15.8652   21.9507 N   0  0  0  0  0  0  0  0  0  0  0  0
    8.7922  -14.5705   22.4501 C   0  0  1  0  0  0  0  0  0  0  0  0
    7.6657  -13.5961   22.1856 C   0  0  0  0  0  0  0  0  0  0  0  0
    7.5217  -13.4623   20.7137 C   0  0  0  0  0  0  0  0  0  0  0  0
    8.2272  -12.4944   20.0317 C   0  0  0  0  0  0  0  0  0  0  0  0
    8.0842  -12.3788   18.6555 C   0  0  0  0  0  0  0  0  0  0  0  0
    7.2304  -13.2396   17.9732 C   0  0  0  0  0  0  0  0  0  0  0  0
    6.5208  -14.2099   18.6434 C   0  0  0  0  0  0  0  0  0  0  0  0
    6.6748  -14.3092   20.0032 C   0  0  0  0  0  0  0  0  0  0  0  0
    9.0489  -14.6235   23.9083 C   0  0  0  0  0  0  0  0  0  0  0  0
    9.0272  -13.5979   24.6039 O   0  0  0  0  0  0  0  0  0  0  0  0
    9.3265  -15.8854   24.5182 N   0  0  0  0  0  0  0  0  0  0  0  0
    9.5570  -15.9974   25.9682 C   0  0  1  0  0  0  0  0  0  0  0  0
    8.2999  -15.6823   26.7213 C   0  0  0  0  0  0  0  0  0  0  0  0
    7.9919  -14.2552   26.7553 C   0  0  0  0  0  0  0  0  0  0  0  0
    6.6906  -13.8587   26.4373 C   0  0  0  0  0  0  0  0  0  0  0  0
    6.3506  -12.5261   26.4712 C   0  0  0  0  0  0  0  0  0  0  0  0
    7.2836  -11.5722   26.8171 C   0  0  0  0  0  0  0  0  0  0  0  0
    8.5614  -11.9672   27.1290 C   0  0  0  0  0  0  0  0  0  0  0  0
    8.9000  -13.3021   27.0946 C   0  0  0  0  0  0  0  0  0  0  0  0
    9.9679  -17.3850   26.2435 C   0  0  0  0  0  0  0  0  0  0  0  0
    9.6145  -18.0116   27.2754 O   0  0  0  0  0  0  0  0  0  0  0  0
   12.4192  -17.9421   19.5202 O   0  0  0  0  0  0  0  0  0  0  0  0
   12.0234  -18.5203   20.7182 C   0  0  0  0  0  0  0  0  0  0  0  0
   10.6972  -18.4333   21.0865 C   0  0  0  0  0  0  0  0  0  0  0  0
   10.2873  -18.9990   22.2673 C   0  0  0  0  0  0  0  0  0  0  0  0
   11.1750  -19.6588   23.1040 C   0  0  0  0  0  0  0  0  0  0  0  0
   10.7471  -20.2595   24.3658 C   0  0  0  0  0  0  0  0  0  0  0  0
   11.1375  -19.4520   25.5854 C   0  0  2  0  0  0  0  0  0  0  0  0
   10.7975  -18.0666   25.3217 N   0  0  0  0  0  0  0  0  0  0  0  0
   12.5621  -19.5236   25.9223 C   0  0  0  0  0  0  0  0  0  0  0  0
   13.3054  -18.3704   26.0358 O   0  0  0  0  0  0  0  0  0  0  0  0
   12.4937  -19.7338   22.7173 C   0  0  0  0  0  0  0  0  0  0  0  0
   12.9383  -19.1677   21.5218 C   0  0  0  0  0  0  0  0  0  0  0  0
   13.1210  -20.6257   26.1106 O   0  0  0  0  0  0  0  0  0  0  0  0
  2  1  1  1
  2  3  1  0
  3  4  1  0
  4  9  1  0
  4  5  2  0
  5  6  1  0
  6  7  2  0
  8  7  1  0
  9  8  2  0
 10 12  1  0
 10  2  1  0
 11 10  2  0
 13 12  1  0
 13 21  1  0
 13 14  1  1
 15 20  1  0
 15 14  1  0
 16 15  2  0
 17 18  2  0
 17 16  1  0
 18 19  1  0
 19 20  2  0
 21 22  2  0
 23 24  1  0
 24 25  2  0
 24 34  1  0
 25 26  1  0
 26 27  2  0
 27 28  1  0
 29 31  1  0
 29 28  1  6
 30 21  1  0
 30 29  1  0
 31 32  1  0
 33 27  1  0
 34 33  2  0
 35 31  2  0
M  END
$$$$
