FFY.pdb
     RDKit          3D

 35 37  0  0  1  0  0  0  0  0999 V2000
    7.4868  -17.9982   21.3989 N   0  0  0  0  0  0  0  0  0  0  0  0
    7.8703  -16.6025   21.4004 C   0  0  1  0  0  0  0  0  0  0  0  0
    6.6778  -15.7972   20.9338 C   0  0  0  0  0  0  0  0  0  0  0  0
    7.1336  -14.4005   20.7180 C   0  0  0  0  0  0  0  0  0  0  0  0
    7.8397  -14.0678   19.5821 C   0  0  0  0  0  0  0  0  0  0  0  0
    8.2608  -12.7586   19.3914 C   0  0  0  0  0  0  0  0  0  0  0  0
    7.9680  -11.7908   20.3469 C   0  0  0  0  0  0  0  0  0  0  0  0
    7.2637  -12.1110   21.4851 C   0  0  0  0  0  0  0  0  0  0  0  0
    6.8557  -13.4098   21.6565 C   0  0  0  0  0  0  0  0  0  0  0  0
    8.2459  -16.1589   22.7631 C   0  0  0  0  0  0  0  0  0  0  0  0
    9.1273  -15.3062   22.9430 O   0  0  0  0  0  0  0  0  0  0  0  0
    7.5747  -16.7297   23.8880 N   0  0  0  0  0  0  0  0  0  0  0  0
    7.9822  -16.4044   25.2650 C   0  0  1  0  0  0  0  0  0  0  0  0
    6.8458  -15.7695   26.0082 C   0  0  0  0  0  0  0  0  0  0  0  0
    6.9944  -14.3249   26.1619 C   0  0  0  0  0  0  0  0  0  0  0  0
    5.8554  -13.5302   26.0110 C   0  0  0  0  0  0  0  0  0  0  0  0
    5.9446  -12.1657   26.1624 C   0  0  0  0  0  0  0  0  0  0  0  0
    7.1509  -11.5702   26.4627 C   0  0  0  0  0  0  0  0  0  0  0  0
    8.2676  -12.3559   26.6101 C   0  0  0  0  0  0  0  0  0  0  0  0
    8.1763  -13.7221   26.4583 C   0  0  0  0  0  0  0  0  0  0  0  0
    8.3634  -17.6666   25.9219 C   0  0  0  0  0  0  0  0  0  0  0  0
    7.6328  -18.6905   25.9136 O   0  0  0  0  0  0  0  0  0  0  0  0
   13.1307  -24.4199   24.7218 O   0  0  0  0  0  0  0  0  0  0  0  0
   12.4606  -23.2114   24.8514 C   0  0  0  0  0  0  0  0  0  0  0  0
   12.7238  -22.2100   23.9404 C   0  0  0  0  0  0  0  0  0  0  0  0
   12.0709  -21.0085   24.0525 C   0  0  0  0  0  0  0  0  0  0  0  0
   11.1495  -20.7732   25.0621 C   0  0  0  0  0  0  0  0  0  0  0  0
   10.4538  -19.4944   25.1912 C   0  0  0  0  0  0  0  0  0  0  0  0
   10.2884  -19.0357   26.6244 C   0  0  2  0  0  0  0  0  0  0  0  0
    9.6023  -17.7579   26.5999 N   0  0  0  0  0  0  0  0  0  0  0  0
   11.5503  -18.8705   27.3515 C   0  0  0  0  0  0  0  0  0  0  0  0
   12.4560  -17.9116   26.9571 O   0  0  0  0  0  0  0  0  0  0  0  0
   10.9022  -21.7861   25.9604 C   0  0  0  0  0  0  0  0  0  0  0  0
   11.5515  -23.0180   25.8702 C   0  0  0  0  0  0  0  0  0  0  0  0
   11.8222  -19.5928   28.3347 O   0  0  0  0  0  0  0  0  0  0  0  0
  2  1  1  1
  2  3  1  0
  3  4  1  0
  4  9  1  0
  4  5  2  0
  5  6  1  0
  6  7  2  0
  8  7  1  0
  9  8  2  0
 10 12  1  0
 10  2  1  0
 11 10  2  0
 13 12  1  0
 13 21  1  0
 13 14  1  1
 15 20  1  0
 15 14  1  0
 16 15  2  0
 17 18  2  0
 17 16  1  0
 18 19  1  0
 19 20  2  0
 21 22  2  0
 23 24  1  0
 24 25  2  0
 24 34  1  0
 25 26  1  0
 26 27  2  0
 27 28  1  0
 29 31  1  0
 29 28  1  6
 30 21  1  0
 30 29  1  0
 31 32  1  0
 33 27  1  0
 34 33  2  0
 35 31  2  0
M  END
$$$$
