FFY.pdb
     RDKit          3D

 35 37  0  0  1  0  0  0  0  0999 V2000
    9.5010  -16.6794   18.8217 N   0  0  0  0  0  0  0  0  0  0  0  0
    8.4126  -16.7650   19.7719 C   0  0  1  0  0  0  0  0  0  0  0  0
    8.1596  -18.2301   20.0509 C   0  0  0  0  0  0  0  0  0  0  0  0
    7.4551  -18.7980   18.8736 C   0  0  0  0  0  0  0  0  0  0  0  0
    6.0833  -18.9322   18.8828 C   0  0  0  0  0  0  0  0  0  0  0  0
    5.4357  -19.4648   17.7762 C   0  0  0  0  0  0  0  0  0  0  0  0
    6.1741  -19.8597   16.6652 C   0  0  0  0  0  0  0  0  0  0  0  0
    7.5441  -19.7306   16.6443 C   0  0  0  0  0  0  0  0  0  0  0  0
    8.1669  -19.2022   17.7469 C   0  0  0  0  0  0  0  0  0  0  0  0
    8.7650  -16.0882   21.0419 C   0  0  0  0  0  0  0  0  0  0  0  0
    9.8992  -16.1874   21.5316 O   0  0  0  0  0  0  0  0  0  0  0  0
    7.7725  -15.3070   21.7100 N   0  0  0  0  0  0  0  0  0  0  0  0
    8.0744  -14.6053   22.9688 C   0  0  1  0  0  0  0  0  0  0  0  0
    6.9145  -13.7486   23.3785 C   0  0  0  0  0  0  0  0  0  0  0  0
    7.1187  -13.0782   24.6597 C   0  0  0  0  0  0  0  0  0  0  0  0
    6.4957  -13.6183   25.7875 C   0  0  0  0  0  0  0  0  0  0  0  0
    6.6723  -13.0295   27.0183 C   0  0  0  0  0  0  0  0  0  0  0  0
    7.4608  -11.9070   27.1527 C   0  0  0  0  0  0  0  0  0  0  0  0
    8.0711  -11.3800   26.0410 C   0  0  0  0  0  0  0  0  0  0  0  0
    7.8933  -11.9711   24.8094 C   0  0  0  0  0  0  0  0  0  0  0  0
    8.3234  -15.6307   23.9966 C   0  0  0  0  0  0  0  0  0  0  0  0
    7.6420  -16.6837   24.0923 O   0  0  0  0  0  0  0  0  0  0  0  0
   12.2031  -22.3085   27.2508 O   0  0  0  0  0  0  0  0  0  0  0  0
   11.7190  -21.1705   26.6208 C   0  0  0  0  0  0  0  0  0  0  0  0
   10.7366  -20.4352   27.2502 C   0  0  0  0  0  0  0  0  0  0  0  0
   10.2458  -19.3072   26.6427 C   0  0  0  0  0  0  0  0  0  0  0  0
   10.7134  -18.8849   25.4072 C   0  0  0  0  0  0  0  0  0  0  0  0
   10.1921  -17.6873   24.7514 C   0  0  0  0  0  0  0  0  0  0  0  0
    9.8083  -16.5857   25.7162 C   0  0  2  0  0  0  0  0  0  0  0  0
    9.3704  -15.4473   24.9309 N   0  0  0  0  0  0  0  0  0  0  0  0
   10.8974  -16.1509   26.5954 C   0  0  0  0  0  0  0  0  0  0  0  0
   11.9348  -15.3987   26.0923 O   0  0  0  0  0  0  0  0  0  0  0  0
   11.6937  -19.6335   24.7968 C   0  0  0  0  0  0  0  0  0  0  0  0
   12.2112  -20.7850   25.3915 C   0  0  0  0  0  0  0  0  0  0  0  0
   10.9015  -16.4544   27.8080 O   0  0  0  0  0  0  0  0  0  0  0  0
  2  1  1  6
  2  3  1  0
  3  4  1  0
  4  9  1  0
  4  5  2  0
  5  6  1  0
  6  7  2  0
  8  7  1  0
  9  8  2  0
 10 12  1  0
 10  2  1  0
 11 10  2  0
 13 12  1  0
 13 21  1  0
 13 14  1  1
 15 20  1  0
 15 14  1  0
 16 15  2  0
 17 18  2  0
 17 16  1  0
 18 19  1  0
 19 20  2  0
 21 22  2  0
 23 24  1  0
 24 25  2  0
 24 34  1  0
 25 26  1  0
 26 27  2  0
 27 28  1  0
 29 31  1  0
 29 28  1  6
 30 21  1  0
 30 29  1  0
 31 32  1  0
 33 27  1  0
 34 33  2  0
 35 31  2  0
M  END
$$$$
