YEC.pdb
     RDKit          3D

 28 28  0  0  1  0  0  0  0  0999 V2000
    7.3330  -12.2074   17.0034 O   0  0  0  0  0  0  0  0  0  0  0  0
    7.5405  -12.8361   18.2276 C   0  0  0  0  0  0  0  0  0  0  0  0
    8.7816  -12.8236   18.8481 C   0  0  0  0  0  0  0  0  0  0  0  0
    8.9651  -13.4537   20.0625 C   0  0  0  0  0  0  0  0  0  0  0  0
    7.8939  -14.0938   20.6450 C   0  0  0  0  0  0  0  0  0  0  0  0
    8.0733  -14.7769   21.9513 C   0  0  0  0  0  0  0  0  0  0  0  0
    8.9190  -16.0001   21.7876 C   0  0  2  0  0  0  0  0  0  0  0  0
    8.2457  -16.9741   20.9777 N   0  0  0  0  0  0  0  0  0  0  0  0
    9.2672  -16.5138   23.1319 C   0  0  0  0  0  0  0  0  0  0  0  0
    8.3419  -17.0207   23.8171 O   0  0  0  0  0  0  0  0  0  0  0  0
    6.6716  -14.0951   20.0142 C   0  0  0  0  0  0  0  0  0  0  0  0
    6.4678  -13.4694   18.7972 C   0  0  0  0  0  0  0  0  0  0  0  0
   10.5842  -16.4384   23.6263 N   0  0  0  0  0  0  0  0  0  0  0  0
   10.8890  -16.9235   24.9439 C   0  0  1  0  0  0  0  0  0  0  0  0
   12.2079  -17.6915   24.8619 C   0  0  0  0  0  0  0  0  0  0  0  0
   12.3019  -18.4071   23.5151 C   0  0  0  0  0  0  0  0  0  0  0  0
   13.5845  -19.1451   23.4049 C   0  0  0  0  0  0  0  0  0  0  0  0
   13.8569  -19.7647   22.3404 O   0  0  0  0  0  0  0  0  0  0  0  0
   10.9894  -15.7731   25.8510 C   0  0  0  0  0  0  0  0  0  0  0  0
   11.8266  -14.8323   25.7131 O   0  0  0  0  0  0  0  0  0  0  0  0
   14.5121  -19.1879   24.4290 O   0  0  0  0  0  0  0  0  0  0  0  0
   10.1069  -15.6560   26.9833 N   0  0  0  0  0  0  0  0  0  0  0  0
   10.2877  -14.6444   27.9770 C   0  0  1  0  0  0  0  0  0  0  0  0
    8.9951  -13.8543   28.0747 C   0  0  0  0  0  0  0  0  0  0  0  0
    8.5753  -13.2861   26.4073 S   0  0  0  0  0  0  0  0  0  0  0  0
   10.7158  -15.1813   29.2780 C   0  0  0  0  0  0  0  0  0  0  0  0
   10.9102  -16.5372   29.4975 O   0  0  0  0  0  0  0  0  0  0  0  0
   10.9202  -14.4037   30.2437 O   0  0  0  0  0  0  0  0  0  0  0  0
  2  1  1  0
  2 12  2  0
  3  2  1  0
  4  3  2  0
  4  5  1  0
  5 11  2  0
  6  7  1  0
  6  5  1  0
  7  8  1  6
  9 13  1  0
  9  7  1  0
 10  9  2  0
 11 12  1  0
 14 19  1  0
 14 13  1  0
 14 15  1  6
 16 15  1  0
 16 17  1  0
 17 18  2  0
 19 22  1  0
 20 19  2  0
 21 17  1  0
 22 23  1  0
 23 26  1  0
 23 24  1  1
 25 24  1  0
 26 28  2  0
 26 27  1  0
M  END
$$$$
