YEC.pdb
     RDKit          3D

 28 28  0  0  1  0  0  0  0  0999 V2000
    7.3928  -13.2101   15.6969 O   0  0  0  0  0  0  0  0  0  0  0  0
    7.4664  -13.6536   17.0141 C   0  0  0  0  0  0  0  0  0  0  0  0
    7.0607  -14.9312   17.3728 C   0  0  0  0  0  0  0  0  0  0  0  0
    7.1424  -15.3505   18.6854 C   0  0  0  0  0  0  0  0  0  0  0  0
    7.6337  -14.4773   19.6302 C   0  0  0  0  0  0  0  0  0  0  0  0
    7.7287  -14.9116   21.0472 C   0  0  0  0  0  0  0  0  0  0  0  0
    9.1602  -15.0997   21.4394 C   0  0  2  0  0  0  0  0  0  0  0  0
    9.8372  -15.9363   20.4908 N   0  0  0  0  0  0  0  0  0  0  0  0
    9.2025  -15.6428   22.8161 C   0  0  0  0  0  0  0  0  0  0  0  0
    8.4910  -15.0766   23.6855 O   0  0  0  0  0  0  0  0  0  0  0  0
    8.0309  -13.2150   19.2549 C   0  0  0  0  0  0  0  0  0  0  0  0
    7.9567  -12.7763   17.9448 C   0  0  0  0  0  0  0  0  0  0  0  0
   10.0084  -16.7515   23.1417 N   0  0  0  0  0  0  0  0  0  0  0  0
    9.9806  -17.2984   24.4700 C   0  0  1  0  0  0  0  0  0  0  0  0
   10.7354  -18.6269   24.4405 C   0  0  0  0  0  0  0  0  0  0  0  0
   12.1700  -18.3916   23.9700 C   0  0  0  0  0  0  0  0  0  0  0  0
   12.9334  -19.6640   23.9668 C   0  0  0  0  0  0  0  0  0  0  0  0
   13.4292  -20.0901   22.8879 O   0  0  0  0  0  0  0  0  0  0  0  0
   10.6141  -16.3372   25.3816 C   0  0  0  0  0  0  0  0  0  0  0  0
   11.6723  -15.6953   25.1115 O   0  0  0  0  0  0  0  0  0  0  0  0
   13.1318  -20.4190   25.1078 O   0  0  0  0  0  0  0  0  0  0  0  0
   10.0399  -16.0691   26.6752 N   0  0  0  0  0  0  0  0  0  0  0  0
   10.6885  -15.2203   27.6251 C   0  0  1  0  0  0  0  0  0  0  0  0
   10.1443  -13.8154   27.4388 C   0  0  0  0  0  0  0  0  0  0  0  0
    8.3513  -13.8878   27.6822 S   0  0  0  0  0  0  0  0  0  0  0  0
   10.5534  -15.6941   29.0113 C   0  0  0  0  0  0  0  0  0  0  0  0
   11.0965  -15.0104   30.0892 O   0  0  0  0  0  0  0  0  0  0  0  0
    9.9271  -16.7558   29.2556 O   0  0  0  0  0  0  0  0  0  0  0  0
  2  1  1  0
  2 12  2  0
  3  2  1  0
  4  3  2  0
  4  5  1  0
  5 11  2  0
  6  7  1  0
  6  5  1  0
  7  8  1  6
  9 13  1  0
  9  7  1  0
 10  9  2  0
 11 12  1  0
 14 19  1  0
 14 13  1  0
 14 15  1  6
 16 15  1  0
 16 17  1  0
 17 18  2  0
 19 22  1  0
 20 19  2  0
 21 17  1  0
 22 23  1  0
 23 26  1  0
 23 24  1  1
 25 24  1  0
 26 28  2  0
 26 27  1  0
M  END
$$$$
