YEC.pdb
     RDKit          3D

 28 28  0  0  1  0  0  0  0  0999 V2000
    9.4002  -12.1092   19.8595 O   0  0  0  0  0  0  0  0  0  0  0  0
    8.4651  -13.0527   20.2748 C   0  0  0  0  0  0  0  0  0  0  0  0
    7.8139  -13.8764   19.3676 C   0  0  0  0  0  0  0  0  0  0  0  0
    6.8899  -14.8056   19.8016 C   0  0  0  0  0  0  0  0  0  0  0  0
    6.6275  -14.8986   21.1503 C   0  0  0  0  0  0  0  0  0  0  0  0
    5.6363  -15.8926   21.6349 C   0  0  0  0  0  0  0  0  0  0  0  0
    6.2551  -17.2529   21.7065 C   0  0  2  0  0  0  0  0  0  0  0  0
    5.2553  -18.2488   21.9646 N   0  0  0  0  0  0  0  0  0  0  0  0
    7.3211  -17.2304   22.7338 C   0  0  0  0  0  0  0  0  0  0  0  0
    6.9770  -17.4050   23.9312 O   0  0  0  0  0  0  0  0  0  0  0  0
    7.2833  -14.0732   22.0338 C   0  0  0  0  0  0  0  0  0  0  0  0
    8.2125  -13.1360   21.6185 C   0  0  0  0  0  0  0  0  0  0  0  0
    8.6700  -17.0215   22.3851 N   0  0  0  0  0  0  0  0  0  0  0  0
    9.7022  -17.1728   23.3730 C   0  0  1  0  0  0  0  0  0  0  0  0
   11.0044  -17.4897   22.6384 C   0  0  0  0  0  0  0  0  0  0  0  0
   12.1514  -17.5818   23.6438 C   0  0  0  0  0  0  0  0  0  0  0  0
   13.4159  -17.9503   22.9605 C   0  0  0  0  0  0  0  0  0  0  0  0
   14.5160  -17.5436   23.4248 O   0  0  0  0  0  0  0  0  0  0  0  0
    9.8027  -15.9220   24.1355 C   0  0  0  0  0  0  0  0  0  0  0  0
    9.6700  -14.7692   23.6273 O   0  0  0  0  0  0  0  0  0  0  0  0
   13.4486  -18.7310   21.8200 O   0  0  0  0  0  0  0  0  0  0  0  0
   10.0671  -15.9482   25.5512 N   0  0  0  0  0  0  0  0  0  0  0  0
    9.9392  -14.7782   26.3625 C   0  0  1  0  0  0  0  0  0  0  0  0
    8.5581  -14.1959   26.1219 C   0  0  0  0  0  0  0  0  0  0  0  0
    8.4041  -12.7133   27.1503 S   0  0  0  0  0  0  0  0  0  0  0  0
   10.1999  -15.0314   27.7880 C   0  0  0  0  0  0  0  0  0  0  0  0
   10.4725  -16.2985   28.2826 O   0  0  0  0  0  0  0  0  0  0  0  0
   10.1809  -14.0812   28.6101 O   0  0  0  0  0  0  0  0  0  0  0  0
  2  1  1  0
  2 12  2  0
  3  2  1  0
  4  3  2  0
  4  5  1  0
  5 11  2  0
  6  7  1  0
  6  5  1  0
  7  8  1  1
  9 13  1  0
  9  7  1  0
 10  9  2  0
 11 12  1  0
 14 19  1  0
 14 13  1  0
 14 15  1  6
 16 15  1  0
 16 17  1  0
 17 18  2  0
 19 22  1  0
 20 19  2  0
 21 17  1  0
 22 23  1  0
 23 26  1  0
 23 24  1  1
 25 24  1  0
 26 28  2  0
 26 27  1  0
M  END
$$$$
