YEC.pdb
     RDKit          3D

 28 28  0  0  1  0  0  0  0  0999 V2000
    8.3898  -11.7291   18.2146 O   0  0  0  0  0  0  0  0  0  0  0  0
    8.2096  -12.6488   19.2436 C   0  0  0  0  0  0  0  0  0  0  0  0
    9.2880  -13.1957   19.9245 C   0  0  0  0  0  0  0  0  0  0  0  0
    9.0863  -14.1064   20.9421 C   0  0  0  0  0  0  0  0  0  0  0  0
    7.7959  -14.4607   21.2675 C   0  0  0  0  0  0  0  0  0  0  0  0
    7.5603  -15.4391   22.3597 C   0  0  0  0  0  0  0  0  0  0  0  0
    7.7092  -16.8370   21.8476 C   0  0  2  0  0  0  0  0  0  0  0  0
    6.4295  -17.4789   21.7545 N   0  0  0  0  0  0  0  0  0  0  0  0
    8.6519  -17.5622   22.7293 C   0  0  0  0  0  0  0  0  0  0  0  0
    8.1679  -18.1841   23.7100 O   0  0  0  0  0  0  0  0  0  0  0  0
    6.7402  -13.9076   20.5809 C   0  0  0  0  0  0  0  0  0  0  0  0
    6.9219  -12.9935   19.5583 C   0  0  0  0  0  0  0  0  0  0  0  0
   10.0386  -17.5570   22.4808 N   0  0  0  0  0  0  0  0  0  0  0  0
   10.9223  -18.3335   23.3057 C   0  0  1  0  0  0  0  0  0  0  0  0
   12.2963  -18.3391   22.6364 C   0  0  0  0  0  0  0  0  0  0  0  0
   12.3126  -19.3680   21.5068 C   0  0  0  0  0  0  0  0  0  0  0  0
   13.6227  -19.3573   20.8101 C   0  0  0  0  0  0  0  0  0  0  0  0
   14.4159  -20.3265   20.9607 O   0  0  0  0  0  0  0  0  0  0  0  0
   10.9733  -17.7194   24.6385 C   0  0  0  0  0  0  0  0  0  0  0  0
   10.9667  -16.4693   24.8440 O   0  0  0  0  0  0  0  0  0  0  0  0
   14.0240  -18.3195   19.9898 O   0  0  0  0  0  0  0  0  0  0  0  0
   11.0355  -18.5412   25.8199 N   0  0  0  0  0  0  0  0  0  0  0  0
   11.0911  -17.9724   27.1302 C   0  0  1  0  0  0  0  0  0  0  0  0
    9.8265  -17.1583   27.3363 C   0  0  0  0  0  0  0  0  0  0  0  0
    8.4333  -18.3146   27.3752 S   0  0  0  0  0  0  0  0  0  0  0  0
   11.2906  -18.9750   28.1881 C   0  0  0  0  0  0  0  0  0  0  0  0
   11.3098  -20.3379   27.9297 O   0  0  0  0  0  0  0  0  0  0  0  0
   11.4521  -18.6097   29.3795 O   0  0  0  0  0  0  0  0  0  0  0  0
  2  1  1  0
  2 12  2  0
  3  2  1  0
  4  3  2  0
  4  5  1  0
  5 11  2  0
  6  7  1  0
  6  5  1  0
  7  8  1  1
  9 13  1  0
  9  7  1  0
 10  9  2  0
 11 12  1  0
 14 19  1  0
 14 13  1  0
 14 15  1  6
 16 15  1  0
 16 17  1  0
 17 18  2  0
 19 22  1  0
 20 19  2  0
 21 17  1  0
 22 23  1  0
 23 26  1  0
 23 24  1  1
 25 24  1  0
 26 28  2  0
 26 27  1  0
M  END
$$$$
