YEC.pdb
     RDKit          3D

 28 28  0  0  1  0  0  0  0  0999 V2000
   10.7155  -19.2422   30.0383 O   0  0  0  0  0  0  0  0  0  0  0  0
    9.6588  -19.4530   29.1574 C   0  0  0  0  0  0  0  0  0  0  0  0
    8.8162  -20.5481   29.2845 C   0  0  0  0  0  0  0  0  0  0  0  0
    7.7740  -20.7377   28.3994 C   0  0  0  0  0  0  0  0  0  0  0  0
    7.5875  -19.8201   27.3896 C   0  0  0  0  0  0  0  0  0  0  0  0
    6.4712  -20.0084   26.4284 C   0  0  0  0  0  0  0  0  0  0  0  0
    6.7616  -21.1540   25.5110 C   0  0  2  0  0  0  0  0  0  0  0  0
    7.0536  -22.3405   26.2627 N   0  0  0  0  0  0  0  0  0  0  0  0
    7.8656  -20.7624   24.6055 C   0  0  0  0  0  0  0  0  0  0  0  0
    9.0409  -20.9951   24.9889 O   0  0  0  0  0  0  0  0  0  0  0  0
    8.4334  -18.7410   27.2803 C   0  0  0  0  0  0  0  0  0  0  0  0
    9.4832  -18.5337   28.1572 C   0  0  0  0  0  0  0  0  0  0  0  0
    7.6110  -20.1523   23.3614 N   0  0  0  0  0  0  0  0  0  0  0  0
    8.7018  -19.7854   22.5012 C   0  0  1  0  0  0  0  0  0  0  0  0
    8.1595  -19.7012   21.0748 C   0  0  0  0  0  0  0  0  0  0  0  0
    9.3133  -19.4700   20.1000 C   0  0  0  0  0  0  0  0  0  0  0  0
    8.8040  -19.3240   18.7140 C   0  0  0  0  0  0  0  0  0  0  0  0
    7.6400  -18.8774   18.5221 O   0  0  0  0  0  0  0  0  0  0  0  0
    9.2361  -18.4945   22.9530 C   0  0  0  0  0  0  0  0  0  0  0  0
    8.5467  -17.4359   23.0481 O   0  0  0  0  0  0  0  0  0  0  0  0
    9.5553  -19.6590   17.6029 O   0  0  0  0  0  0  0  0  0  0  0  0
   10.6222  -18.3665   23.3235 N   0  0  0  0  0  0  0  0  0  0  0  0
   11.2079  -17.0966   23.6194 C   0  0  1  0  0  0  0  0  0  0  0  0
   11.1775  -16.9117   25.1259 C   0  0  0  0  0  0  0  0  0  0  0  0
    9.4674  -16.5464   25.5965 S   0  0  0  0  0  0  0  0  0  0  0  0
   12.5607  -16.9398   23.0629 C   0  0  0  0  0  0  0  0  0  0  0  0
   13.3151  -15.7906   23.2495 O   0  0  0  0  0  0  0  0  0  0  0  0
   13.0758  -17.8670   22.3891 O   0  0  0  0  0  0  0  0  0  0  0  0
  2  1  1  0
  2 12  2  0
  3  2  1  0
  4  3  2  0
  4  5  1  0
  5 11  2  0
  6  7  1  0
  6  5  1  0
  7  8  1  1
  9 13  1  0
  9  7  1  0
 10  9  2  0
 11 12  1  0
 14 19  1  0
 14 13  1  0
 14 15  1  6
 16 15  1  0
 16 17  1  0
 17 18  2  0
 19 22  1  0
 20 19  2  0
 21 17  1  0
 22 23  1  0
 23 26  1  0
 23 24  1  1
 25 24  1  0
 26 28  2  0
 26 27  1  0
M  END
$$$$
