YEC.pdb
     RDKit          3D

 28 28  0  0  1  0  0  0  0  0999 V2000
    7.3486  -12.9890   15.9400 O   0  0  0  0  0  0  0  0  0  0  0  0
    7.4414  -13.4629   17.2453 C   0  0  0  0  0  0  0  0  0  0  0  0
    7.9557  -12.6775   18.2671 C   0  0  0  0  0  0  0  0  0  0  0  0
    8.0386  -13.1678   19.5548 C   0  0  0  0  0  0  0  0  0  0  0  0
    7.6016  -14.4496   19.8048 C   0  0  0  0  0  0  0  0  0  0  0  0
    7.6834  -14.9933   21.1843 C   0  0  0  0  0  0  0  0  0  0  0  0
    9.1122  -15.1323   21.6055 C   0  0  2  0  0  0  0  0  0  0  0  0
    9.8605  -15.8570   20.6190 N   0  0  0  0  0  0  0  0  0  0  0  0
    9.1485  -15.7746   22.9390 C   0  0  0  0  0  0  0  0  0  0  0  0
    8.4502  -15.2601   23.8502 O   0  0  0  0  0  0  0  0  0  0  0  0
    7.0950  -15.2125   18.7786 C   0  0  0  0  0  0  0  0  0  0  0  0
    7.0037  -14.7391   17.4817 C   0  0  0  0  0  0  0  0  0  0  0  0
    9.9347  -16.9186   23.1799 N   0  0  0  0  0  0  0  0  0  0  0  0
   10.0391  -17.4555   24.5084 C   0  0  1  0  0  0  0  0  0  0  0  0
   10.8373  -18.7560   24.4217 C   0  0  0  0  0  0  0  0  0  0  0  0
   10.3410  -19.5847   23.2376 C   0  0  0  0  0  0  0  0  0  0  0  0
   11.4469  -20.3921   22.6660 C   0  0  0  0  0  0  0  0  0  0  0  0
   12.2649  -20.9628   23.4382 O   0  0  0  0  0  0  0  0  0  0  0  0
   10.7113  -16.4648   25.3586 C   0  0  0  0  0  0  0  0  0  0  0  0
   11.3420  -15.4602   24.9139 O   0  0  0  0  0  0  0  0  0  0  0  0
   11.6282  -20.5528   21.3049 O   0  0  0  0  0  0  0  0  0  0  0  0
   10.6839  -16.5939   26.7930 N   0  0  0  0  0  0  0  0  0  0  0  0
   10.6455  -15.4511   27.6509 C   0  0  1  0  0  0  0  0  0  0  0  0
    9.4125  -14.6421   27.2904 C   0  0  0  0  0  0  0  0  0  0  0  0
    9.3734  -13.1936   28.3766 S   0  0  0  0  0  0  0  0  0  0  0  0
   10.6896  -15.7985   29.0797 C   0  0  0  0  0  0  0  0  0  0  0  0
   10.4062  -17.0740   29.5460 O   0  0  0  0  0  0  0  0  0  0  0  0
   10.9927  -14.9254   29.9310 O   0  0  0  0  0  0  0  0  0  0  0  0
  2  1  1  0
  2 12  2  0
  3  2  1  0
  4  3  2  0
  4  5  1  0
  5 11  2  0
  6  7  1  0
  6  5  1  0
  7  8  1  6
  9 13  1  0
  9  7  1  0
 10  9  2  0
 11 12  1  0
 14 19  1  0
 14 13  1  0
 14 15  1  6
 16 15  1  0
 16 17  1  0
 17 18  2  0
 19 22  1  0
 20 19  2  0
 21 17  1  0
 22 23  1  0
 23 26  1  0
 23 24  1  1
 25 24  1  0
 26 28  2  0
 26 27  1  0
M  END
$$$$
