YEC.pdb
     RDKit          3D

 28 28  0  0  1  0  0  0  0  0999 V2000
    7.4280  -12.2862   17.4477 O   0  0  0  0  0  0  0  0  0  0  0  0
    7.5882  -12.8853   18.6937 C   0  0  0  0  0  0  0  0  0  0  0  0
    8.8411  -13.0335   19.2714 C   0  0  0  0  0  0  0  0  0  0  0  0
    8.9770  -13.6307   20.5084 C   0  0  0  0  0  0  0  0  0  0  0  0
    7.8464  -14.0758   21.1567 C   0  0  0  0  0  0  0  0  0  0  0  0
    7.9739  -14.7208   22.4883 C   0  0  0  0  0  0  0  0  0  0  0  0
    8.3817  -16.1522   22.3367 C   0  0  2  0  0  0  0  0  0  0  0  0
    7.2427  -16.9723   22.0392 N   0  0  0  0  0  0  0  0  0  0  0  0
    9.0853  -16.5732   23.5695 C   0  0  0  0  0  0  0  0  0  0  0  0
    8.3869  -17.0406   24.5056 O   0  0  0  0  0  0  0  0  0  0  0  0
    6.6132  -13.9198   20.5676 C   0  0  0  0  0  0  0  0  0  0  0  0
    6.4566  -13.3239   19.3287 C   0  0  0  0  0  0  0  0  0  0  0  0
   10.4839  -16.4553   23.6911 N   0  0  0  0  0  0  0  0  0  0  0  0
   11.1545  -16.9819   24.8475 C   0  0  1  0  0  0  0  0  0  0  0  0
   12.5543  -17.4164   24.4143 C   0  0  0  0  0  0  0  0  0  0  0  0
   12.4464  -18.4912   23.3335 C   0  0  0  0  0  0  0  0  0  0  0  0
   13.7952  -18.9285   22.8962 C   0  0  0  0  0  0  0  0  0  0  0  0
   13.9054  -19.7522   21.9471 O   0  0  0  0  0  0  0  0  0  0  0  0
   11.2079  -15.9316   25.8722 C   0  0  0  0  0  0  0  0  0  0  0  0
   11.9583  -14.9131   25.8053 O   0  0  0  0  0  0  0  0  0  0  0  0
   14.9575  -18.4699   23.4877 O   0  0  0  0  0  0  0  0  0  0  0  0
   10.3777  -16.0133   27.0466 N   0  0  0  0  0  0  0  0  0  0  0  0
   10.6005  -15.1784   28.1853 C   0  0  1  0  0  0  0  0  0  0  0  0
    9.3676  -14.3130   28.3740 C   0  0  0  0  0  0  0  0  0  0  0  0
    9.0037  -13.5272   26.7834 S   0  0  0  0  0  0  0  0  0  0  0  0
   10.9448  -15.9352   29.3989 C   0  0  0  0  0  0  0  0  0  0  0  0
   11.2674  -15.3157   30.5975 O   0  0  0  0  0  0  0  0  0  0  0  0
   10.9544  -17.1916   29.3760 O   0  0  0  0  0  0  0  0  0  0  0  0
  2  1  1  0
  2 12  2  0
  3  2  1  0
  4  3  2  0
  4  5  1  0
  5 11  2  0
  6  7  1  0
  6  5  1  0
  7  8  1  1
  9 13  1  0
  9  7  1  0
 10  9  2  0
 11 12  1  0
 14 19  1  0
 14 13  1  0
 14 15  1  6
 16 15  1  0
 16 17  1  0
 17 18  2  0
 19 22  1  0
 20 19  2  0
 21 17  1  0
 22 23  1  0
 23 26  1  0
 23 24  1  1
 25 24  1  0
 26 28  2  0
 26 27  1  0
M  END
$$$$
