YEC.pdb
     RDKit          3D

 28 28  0  0  1  0  0  0  0  0999 V2000
    7.3952  -12.4509   17.0425 O   0  0  0  0  0  0  0  0  0  0  0  0
    7.6529  -12.9833   18.3023 C   0  0  0  0  0  0  0  0  0  0  0  0
    6.6249  -13.3179   19.1723 C   0  0  0  0  0  0  0  0  0  0  0  0
    6.9033  -13.8447   20.4175 C   0  0  0  0  0  0  0  0  0  0  0  0
    8.2191  -14.0315   20.7785 C   0  0  0  0  0  0  0  0  0  0  0  0
    8.5370  -14.5972   22.1143 C   0  0  0  0  0  0  0  0  0  0  0  0
    8.7598  -16.0733   22.0150 C   0  0  2  0  0  0  0  0  0  0  0  0
    7.5447  -16.7434   21.6508 N   0  0  0  0  0  0  0  0  0  0  0  0
    9.3154  -16.5519   23.3012 C   0  0  0  0  0  0  0  0  0  0  0  0
    8.5066  -16.7552   24.2431 O   0  0  0  0  0  0  0  0  0  0  0  0
    9.2240  -13.6937   19.9021 C   0  0  0  0  0  0  0  0  0  0  0  0
    8.9653  -13.1645   18.6502 C   0  0  0  0  0  0  0  0  0  0  0  0
   10.6972  -16.7718   23.4656 N   0  0  0  0  0  0  0  0  0  0  0  0
   11.2007  -17.3070   24.7002 C   0  0  1  0  0  0  0  0  0  0  0  0
   12.5212  -18.0136   24.3952 C   0  0  0  0  0  0  0  0  0  0  0  0
   13.0518  -18.6796   25.6640 C   0  0  0  0  0  0  0  0  0  0  0  0
   14.3600  -19.3297   25.4040 C   0  0  0  0  0  0  0  0  0  0  0  0
   15.4267  -18.7045   25.6543 O   0  0  0  0  0  0  0  0  0  0  0  0
   11.3868  -16.1989   25.6455 C   0  0  0  0  0  0  0  0  0  0  0  0
   11.8210  -15.0543   25.3196 O   0  0  0  0  0  0  0  0  0  0  0  0
   14.4697  -20.6092   24.8920 O   0  0  0  0  0  0  0  0  0  0  0  0
   11.0723  -16.3680   27.0410 N   0  0  0  0  0  0  0  0  0  0  0  0
   11.2540  -15.3117   27.9868 C   0  0  1  0  0  0  0  0  0  0  0  0
   10.4239  -14.1277   27.5245 C   0  0  0  0  0  0  0  0  0  0  0  0
    8.6836  -14.5336   27.8178 S   0  0  0  0  0  0  0  0  0  0  0  0
   10.9402  -15.7110   29.3674 C   0  0  0  0  0  0  0  0  0  0  0  0
   11.0694  -14.8435   30.4422 O   0  0  0  0  0  0  0  0  0  0  0  0
   10.5378  -16.8765   29.6098 O   0  0  0  0  0  0  0  0  0  0  0  0
  2  1  1  0
  2 12  2  0
  3  2  1  0
  4  3  2  0
  4  5  1  0
  5 11  2  0
  6  7  1  0
  6  5  1  0
  7  8  1  1
  9 13  1  0
  9  7  1  0
 10  9  2  0
 11 12  1  0
 14 19  1  0
 14 13  1  0
 14 15  1  6
 16 15  1  0
 16 17  1  0
 17 18  2  0
 19 22  1  0
 20 19  2  0
 21 17  1  0
 22 23  1  0
 23 26  1  0
 23 24  1  6
 25 24  1  0
 26 28  2  0
 26 27  1  0
M  END
$$$$
