IWT.pdb
     RDKit          3D

 30 31  0  0  1  0  0  0  0  0999 V2000
   27.5238  -24.9464  -20.5075 C   0  0  0  0  0  0  0  0  0  0  0  0
   28.0050  -24.5054  -19.1635 C   0  0  0  0  0  0  0  0  0  0  0  0
   26.8994  -24.3994  -18.1346 C   0  0  2  0  0  0  0  0  0  0  0  0
   25.9128  -23.3584  -18.6119 C   0  0  0  0  0  0  0  0  0  0  0  0
   27.5567  -24.0267  -16.8252 C   0  0  2  0  0  0  0  0  0  0  0  0
   28.2623  -25.2414  -16.3846 N   0  0  0  0  0  0  0  0  0  0  0  0
   26.6050  -23.6720  -15.7742 C   0  0  0  0  0  0  0  0  0  0  0  0
   25.9827  -24.6076  -15.1961 O   0  0  0  0  0  0  0  0  0  0  0  0
   26.3040  -22.3540  -15.3287 N   0  0  0  0  0  0  0  0  0  0  0  0
   25.3035  -22.1190  -14.3068 C   0  0  1  0  0  0  0  0  0  0  0  0
   25.6685  -20.8877  -13.4769 C   0  0  0  0  0  0  0  0  0  0  0  0
   24.8398  -20.8368  -12.2464 C   0  0  0  0  0  0  0  0  0  0  0  0
   25.1416  -21.3555  -11.0060 C   0  0  0  0  0  0  0  0  0  0  0  0
   24.1233  -21.1000  -10.1466 N   0  0  0  0  0  0  0  0  0  0  0  0
   23.1783  -20.4307  -10.8077 C   0  0  0  0  0  0  0  0  0  0  0  0
   21.9492  -19.9406  -10.3834 C   0  0  0  0  0  0  0  0  0  0  0  0
   21.1356  -19.2672  -11.2802 C   0  0  0  0  0  0  0  0  0  0  0  0
   21.5335  -19.0822  -12.5774 C   0  0  0  0  0  0  0  0  0  0  0  0
   22.7577  -19.5781  -12.9739 C   0  0  0  0  0  0  0  0  0  0  0  0
   23.5994  -20.2529  -12.1201 C   0  0  0  0  0  0  0  0  0  0  0  0
   23.9514  -22.0002  -14.8777 C   0  0  0  0  0  0  0  0  0  0  0  0
   23.7601  -21.2156  -15.8448 O   0  0  0  0  0  0  0  0  0  0  0  0
   21.7206  -24.1875  -16.7524 C   0  0  0  0  0  0  0  0  0  0  0  0
   21.0014  -23.8679  -15.4856 C   0  0  1  0  0  0  0  0  0  0  0  0
   21.1410  -24.9192  -14.5937 O   0  0  0  0  0  0  0  0  0  0  0  0
   21.4888  -22.5594  -14.8971 C   0  0  2  0  0  0  0  0  0  0  0  0
   22.8321  -22.7362  -14.3866 N   0  0  0  0  0  0  0  0  0  0  0  0
   20.5833  -22.2223  -13.7630 C   0  0  0  0  0  0  0  0  0  0  0  0
   19.2872  -21.7821  -13.9197 O   0  0  0  0  0  0  0  0  0  0  0  0
   20.9947  -22.3343  -12.5578 O   0  0  0  0  0  0  0  0  0  0  0  0
  2  1  1  0
  2  3  1  0
  3  4  1  6
  5  3  1  0
  5  6  1  1
  7  5  1  0
  7  8  2  0
  9  7  1  0
 10  9  1  0
 10 11  1  6
 12 11  1  0
 13 12  2  0
 14 13  1  0
 15 14  1  0
 15 20  2  0
 16 15  1  0
 17 16  2  0
 17 18  1  0
 18 19  2  0
 19 20  1  0
 20 12  1  0
 21 10  1  0
 22 21  2  0
 24 23  1  6
 24 25  1  0
 24 26  1  0
 26 27  1  1
 26 28  1  0
 27 21  1  0
 28 29  1  0
 30 28  2  0
M  END
$$$$
