IWT.pdb
     RDKit          3D

 30 31  0  0  1  0  0  0  0  0999 V2000
   26.5447  -18.5643  -16.1798 C   0  0  0  0  0  0  0  0  0  0  0  0
   26.9510  -19.6861  -15.2805 C   0  0  0  0  0  0  0  0  0  0  0  0
   28.1009  -19.3327  -14.3613 C   0  0  2  0  0  0  0  0  0  0  0  0
   29.2937  -18.9755  -15.2184 C   0  0  0  0  0  0  0  0  0  0  0  0
   28.3483  -20.5416  -13.4879 C   0  0  2  0  0  0  0  0  0  0  0  0
   28.3326  -21.6935  -14.4046 N   0  0  0  0  0  0  0  0  0  0  0  0
   27.3030  -20.7657  -12.4912 C   0  0  0  0  0  0  0  0  0  0  0  0
   26.4958  -21.7191  -12.6812 O   0  0  0  0  0  0  0  0  0  0  0  0
   27.1000  -20.0032  -11.3064 N   0  0  0  0  0  0  0  0  0  0  0  0
   25.9443  -20.2265  -10.4609 C   0  0  1  0  0  0  0  0  0  0  0  0
   25.9860  -19.2993   -9.2457 C   0  0  0  0  0  0  0  0  0  0  0  0
   26.1815  -20.0910   -8.0054 C   0  0  0  0  0  0  0  0  0  0  0  0
   25.6121  -21.3033   -7.6817 C   0  0  0  0  0  0  0  0  0  0  0  0
   26.0445  -21.6961   -6.4572 N   0  0  0  0  0  0  0  0  0  0  0  0
   26.8764  -20.7643   -5.9906 C   0  0  0  0  0  0  0  0  0  0  0  0
   27.5795  -20.6935   -4.7942 C   0  0  0  0  0  0  0  0  0  0  0  0
   28.3925  -19.6001   -4.5428 C   0  0  0  0  0  0  0  0  0  0  0  0
   28.5073  -18.5923   -5.4628 C   0  0  0  0  0  0  0  0  0  0  0  0
   27.7993  -18.6858   -6.6426 C   0  0  0  0  0  0  0  0  0  0  0  0
   26.9800  -19.7513   -6.9364 C   0  0  0  0  0  0  0  0  0  0  0  0
   24.6820  -20.0801  -11.2048 C   0  0  0  0  0  0  0  0  0  0  0  0
   24.4793  -19.0289  -11.8692 O   0  0  0  0  0  0  0  0  0  0  0  0
   20.9432  -22.1244  -13.5557 C   0  0  0  0  0  0  0  0  0  0  0  0
   22.2711  -22.1427  -12.8770 C   0  0  1  0  0  0  0  0  0  0  0  0
   23.2778  -22.2100  -13.8268 O   0  0  0  0  0  0  0  0  0  0  0  0
   22.4340  -20.9433  -11.9654 C   0  0  2  0  0  0  0  0  0  0  0  0
   23.6632  -21.0789  -11.2125 N   0  0  0  0  0  0  0  0  0  0  0  0
   21.2850  -20.9520  -11.0167 C   0  0  0  0  0  0  0  0  0  0  0  0
   19.9962  -20.6156  -11.3684 O   0  0  0  0  0  0  0  0  0  0  0  0
   21.4634  -21.2851   -9.7954 O   0  0  0  0  0  0  0  0  0  0  0  0
  2  1  1  0
  2  3  1  0
  3  4  1  6
  5  3  1  0
  5  6  1  6
  7  5  1  0
  7  8  2  0
  9  7  1  0
 10  9  1  0
 10 11  1  1
 12 11  1  0
 13 12  2  0
 14 13  1  0
 15 14  1  0
 15 20  2  0
 16 15  1  0
 17 16  2  0
 17 18  1  0
 18 19  2  0
 19 20  1  0
 20 12  1  0
 21 10  1  0
 22 21  2  0
 24 23  1  6
 24 25  1  0
 24 26  1  0
 26 27  1  1
 26 28  1  0
 27 21  1  0
 28 29  1  0
 30 28  2  0
M  END
$$$$
