IWT.pdb
     RDKit          3D

 30 31  0  0  1  0  0  0  0  0999 V2000
   23.9170  -19.7608  -15.3462 C   0  0  0  0  0  0  0  0  0  0  0  0
   24.8585  -19.8986  -14.1943 C   0  0  0  0  0  0  0  0  0  0  0  0
   24.2029  -20.4474  -12.9449 C   0  0  2  0  0  0  0  0  0  0  0  0
   22.9874  -19.6012  -12.6427 C   0  0  0  0  0  0  0  0  0  0  0  0
   25.2417  -20.3934  -11.8478 C   0  0  2  0  0  0  0  0  0  0  0  0
   26.3589  -21.2228  -12.3289 N   0  0  0  0  0  0  0  0  0  0  0  0
   24.7866  -20.9689  -10.5838 C   0  0  0  0  0  0  0  0  0  0  0  0
   24.4463  -22.1859  -10.5737 O   0  0  0  0  0  0  0  0  0  0  0  0
   24.6868  -20.2830   -9.3405 N   0  0  0  0  0  0  0  0  0  0  0  0
   24.1656  -20.9435   -8.1604 C   0  0  1  0  0  0  0  0  0  0  0  0
   24.7234  -20.2915   -6.8947 C   0  0  0  0  0  0  0  0  0  0  0  0
   26.2040  -20.2172   -6.9681 C   0  0  0  0  0  0  0  0  0  0  0  0
   27.0062  -20.4627   -8.0613 C   0  0  0  0  0  0  0  0  0  0  0  0
   28.3073  -20.2873   -7.7187 N   0  0  0  0  0  0  0  0  0  0  0  0
   28.3558  -19.9357   -6.4334 C   0  0  0  0  0  0  0  0  0  0  0  0
   29.4391  -19.6445   -5.6133 C   0  0  0  0  0  0  0  0  0  0  0  0
   29.2207  -19.2992   -4.2894 C   0  0  0  0  0  0  0  0  0  0  0  0
   27.9485  -19.2434   -3.7857 C   0  0  0  0  0  0  0  0  0  0  0  0
   26.8902  -19.5368   -4.6197 C   0  0  0  0  0  0  0  0  0  0  0  0
   27.0575  -19.8844   -5.9404 C   0  0  0  0  0  0  0  0  0  0  0  0
   22.6933  -20.9669   -8.1482 C   0  0  0  0  0  0  0  0  0  0  0  0
   22.0601  -19.9278   -8.4748 O   0  0  0  0  0  0  0  0  0  0  0  0
   20.1544  -22.6650  -10.0960 C   0  0  0  0  0  0  0  0  0  0  0  0
   19.9353  -23.1208   -8.6930 C   0  0  1  0  0  0  0  0  0  0  0  0
   20.4891  -24.3794   -8.5211 O   0  0  0  0  0  0  0  0  0  0  0  0
   20.4910  -22.1190   -7.7012 C   0  0  2  0  0  0  0  0  0  0  0  0
   21.9367  -22.1194   -7.7809 N   0  0  0  0  0  0  0  0  0  0  0  0
   20.0837  -22.5728   -6.3418 C   0  0  0  0  0  0  0  0  0  0  0  0
   18.7755  -22.6432   -5.9155 O   0  0  0  0  0  0  0  0  0  0  0  0
   20.9697  -22.9263   -5.4907 O   0  0  0  0  0  0  0  0  0  0  0  0
  2  1  1  0
  2  3  1  0
  3  4  1  1
  5  3  1  0
  5  6  1  6
  7  5  1  0
  7  8  2  0
  9  7  1  0
 10  9  1  0
 10 11  1  1
 12 11  1  0
 13 12  2  0
 14 13  1  0
 15 14  1  0
 15 20  2  0
 16 15  1  0
 17 16  2  0
 17 18  1  0
 18 19  2  0
 19 20  1  0
 20 12  1  0
 21 10  1  0
 22 21  2  0
 24 23  1  6
 24 25  1  0
 24 26  1  0
 26 27  1  1
 26 28  1  0
 27 21  1  0
 28 29  1  0
 30 28  2  0
M  END
$$$$
