IWT.pdb
     RDKit          3D

 30 31  0  0  1  0  0  0  0  0999 V2000
   26.9779  -21.4849  -18.4147 C   0  0  0  0  0  0  0  0  0  0  0  0
   27.3210  -21.9823  -17.0482 C   0  0  0  0  0  0  0  0  0  0  0  0
   26.1956  -21.8177  -16.0490 C   0  0  2  0  0  0  0  0  0  0  0  0
   25.8212  -20.3540  -16.0012 C   0  0  0  0  0  0  0  0  0  0  0  0
   26.7096  -22.3344  -14.7245 C   0  0  2  0  0  0  0  0  0  0  0  0
   26.8812  -23.7845  -14.9129 N   0  0  0  0  0  0  0  0  0  0  0  0
   25.7700  -22.1482  -13.6206 C   0  0  0  0  0  0  0  0  0  0  0  0
   24.8836  -23.0304  -13.4399 O   0  0  0  0  0  0  0  0  0  0  0  0
   25.7537  -21.0523  -12.7123 N   0  0  0  0  0  0  0  0  0  0  0  0
   24.7270  -20.9372  -11.6958 C   0  0  1  0  0  0  0  0  0  0  0  0
   25.2328  -20.1009  -10.5199 C   0  0  0  0  0  0  0  0  0  0  0  0
   26.5425  -20.6183  -10.0507 C   0  0  0  0  0  0  0  0  0  0  0  0
   27.3778  -21.5042  -10.6957 C   0  0  0  0  0  0  0  0  0  0  0  0
   28.4799  -21.7251   -9.9358 N   0  0  0  0  0  0  0  0  0  0  0  0
   28.3690  -21.0019   -8.8210 C   0  0  0  0  0  0  0  0  0  0  0  0
   29.2228  -20.8783   -7.7317 C   0  0  0  0  0  0  0  0  0  0  0  0
   28.8728  -20.0471   -6.6799 C   0  0  0  0  0  0  0  0  0  0  0  0
   27.6950  -19.3490   -6.7069 C   0  0  0  0  0  0  0  0  0  0  0  0
   26.8648  -19.4887   -7.7992 C   0  0  0  0  0  0  0  0  0  0  0  0
   27.1695  -20.3016   -8.8666 C   0  0  0  0  0  0  0  0  0  0  0  0
   23.4717  -20.3936  -12.2408 C   0  0  0  0  0  0  0  0  0  0  0  0
   23.4121  -19.1720  -12.5435 O   0  0  0  0  0  0  0  0  0  0  0  0
   21.6856  -21.5464  -15.3224 C   0  0  0  0  0  0  0  0  0  0  0  0
   20.6991  -21.5996  -14.2052 C   0  0  1  0  0  0  0  0  0  0  0  0
   20.5538  -22.9089  -13.7751 O   0  0  0  0  0  0  0  0  0  0  0  0
   21.1049  -20.6756  -13.0749 C   0  0  2  0  0  0  0  0  0  0  0  0
   22.3045  -21.1878  -12.4464 N   0  0  0  0  0  0  0  0  0  0  0  0
   19.9973  -20.6860  -12.0784 C   0  0  0  0  0  0  0  0  0  0  0  0
   18.7663  -20.1056  -12.2923 O   0  0  0  0  0  0  0  0  0  0  0  0
   20.1581  -21.2565  -10.9457 O   0  0  0  0  0  0  0  0  0  0  0  0
  2  1  1  0
  2  3  1  0
  3  4  1  1
  5  3  1  0
  5  6  1  6
  7  5  1  0
  7  8  2  0
  9  7  1  0
 10  9  1  0
 10 11  1  1
 12 11  1  0
 13 12  2  0
 14 13  1  0
 15 14  1  0
 15 20  2  0
 16 15  1  0
 17 16  2  0
 17 18  1  0
 18 19  2  0
 19 20  1  0
 20 12  1  0
 21 10  1  0
 22 21  2  0
 24 23  1  6
 24 25  1  0
 24 26  1  0
 26 27  1  1
 26 28  1  0
 27 21  1  0
 28 29  1  0
 30 28  2  0
M  END
$$$$
