IWT.pdb
     RDKit          3D

 30 31  0  0  1  0  0  0  0  0999 V2000
   29.1706  -18.6589  -15.7895 C   0  0  0  0  0  0  0  0  0  0  0  0
   29.3525  -19.1818  -14.4018 C   0  0  0  0  0  0  0  0  0  0  0  0
   28.0832  -19.7492  -13.8025 C   0  0  2  0  0  0  0  0  0  0  0  0
   27.0154  -18.6814  -13.8684 C   0  0  0  0  0  0  0  0  0  0  0  0
   28.4154  -20.1589  -12.3857 C   0  0  2  0  0  0  0  0  0  0  0  0
   29.3870  -21.2573  -12.5161 N   0  0  0  0  0  0  0  0  0  0  0  0
   27.2685  -20.6795  -11.6443 C   0  0  0  0  0  0  0  0  0  0  0  0
   27.0584  -21.9253  -11.6731 O   0  0  0  0  0  0  0  0  0  0  0  0
   26.3480  -19.9093  -10.8790 N   0  0  0  0  0  0  0  0  0  0  0  0
   25.1638  -20.5137  -10.3020 C   0  0  1  0  0  0  0  0  0  0  0  0
   24.8371  -19.8662   -8.9558 C   0  0  0  0  0  0  0  0  0  0  0  0
   26.0840  -19.6325   -8.1851 C   0  0  0  0  0  0  0  0  0  0  0  0
   27.0244  -18.6452   -8.3844 C   0  0  0  0  0  0  0  0  0  0  0  0
   28.0178  -18.7726   -7.4692 N   0  0  0  0  0  0  0  0  0  0  0  0
   27.7351  -19.8170   -6.6900 C   0  0  0  0  0  0  0  0  0  0  0  0
   28.4277  -20.3601   -5.6148 C   0  0  0  0  0  0  0  0  0  0  0  0
   27.9137  -21.4674   -4.9596 C   0  0  0  0  0  0  0  0  0  0  0  0
   26.7315  -22.0281   -5.3635 C   0  0  0  0  0  0  0  0  0  0  0  0
   26.0630  -21.4708   -6.4333 C   0  0  0  0  0  0  0  0  0  0  0  0
   26.5339  -20.3722   -7.1146 C   0  0  0  0  0  0  0  0  0  0  0  0
   24.0134  -20.4547  -11.2193 C   0  0  0  0  0  0  0  0  0  0  0  0
   23.7583  -19.3745  -11.8154 O   0  0  0  0  0  0  0  0  0  0  0  0
   23.2562  -22.8952  -14.1650 C   0  0  0  0  0  0  0  0  0  0  0  0
   22.0937  -22.8354  -13.2327 C   0  0  1  0  0  0  0  0  0  0  0  0
   22.1067  -23.9441  -12.4015 O   0  0  0  0  0  0  0  0  0  0  0  0
   22.0915  -21.5400  -12.4464 C   0  0  2  0  0  0  0  0  0  0  0  0
   23.1616  -21.5712  -11.4715 N   0  0  0  0  0  0  0  0  0  0  0  0
   20.7883  -21.4630  -11.7284 C   0  0  0  0  0  0  0  0  0  0  0  0
   19.5703  -21.3347  -12.3594 O   0  0  0  0  0  0  0  0  0  0  0  0
   20.7546  -21.5151  -10.4515 O   0  0  0  0  0  0  0  0  0  0  0  0
  2  1  1  0
  2  3  1  0
  3  4  1  1
  5  3  1  0
  5  6  1  6
  7  5  1  0
  7  8  2  0
  9  7  1  0
 10  9  1  0
 10 11  1  1
 12 11  1  0
 13 12  2  0
 14 13  1  0
 15 14  1  0
 15 20  2  0
 16 15  1  0
 17 16  2  0
 17 18  1  0
 18 19  2  0
 19 20  1  0
 20 12  1  0
 21 10  1  0
 22 21  2  0
 24 23  1  6
 24 25  1  0
 24 26  1  0
 26 27  1  1
 26 28  1  0
 27 21  1  0
 28 29  1  0
 30 28  2  0
M  END
$$$$
