IWT.pdb
     RDKit          3D

 30 31  0  0  1  0  0  0  0  0999 V2000
   27.9317  -22.8136  -20.4478 C   0  0  0  0  0  0  0  0  0  0  0  0
   28.6260  -22.8098  -19.1249 C   0  0  0  0  0  0  0  0  0  0  0  0
   27.6770  -22.7189  -17.9487 C   0  0  2  0  0  0  0  0  0  0  0  0
   26.8375  -21.4734  -18.1187 C   0  0  0  0  0  0  0  0  0  0  0  0
   28.5306  -22.6843  -16.7015 C   0  0  2  0  0  0  0  0  0  0  0  0
   29.0894  -24.0404  -16.5749 N   0  0  0  0  0  0  0  0  0  0  0  0
   27.7722  -22.4116  -15.4822 C   0  0  0  0  0  0  0  0  0  0  0  0
   26.8172  -23.1862  -15.1910 O   0  0  0  0  0  0  0  0  0  0  0  0
   28.0064  -21.3412  -14.5735 N   0  0  0  0  0  0  0  0  0  0  0  0
   27.1469  -21.1316  -13.4256 C   0  0  1  0  0  0  0  0  0  0  0  0
   27.8139  -20.1862  -12.4259 C   0  0  0  0  0  0  0  0  0  0  0  0
   27.0544  -20.1720  -11.1508 C   0  0  0  0  0  0  0  0  0  0  0  0
   25.7096  -19.9289  -10.9744 C   0  0  0  0  0  0  0  0  0  0  0  0
   25.4028  -20.0070   -9.6551 N   0  0  0  0  0  0  0  0  0  0  0  0
   26.5188  -20.2943   -8.9843 C   0  0  0  0  0  0  0  0  0  0  0  0
   26.7373  -20.4791   -7.6245 C   0  0  0  0  0  0  0  0  0  0  0  0
   28.0127  -20.7748   -7.1712 C   0  0  0  0  0  0  0  0  0  0  0  0
   29.0558  -20.8857   -8.0516 C   0  0  0  0  0  0  0  0  0  0  0  0
   28.8132  -20.6978   -9.3961 C   0  0  0  0  0  0  0  0  0  0  0  0
   27.5646  -20.4028   -9.8930 C   0  0  0  0  0  0  0  0  0  0  0  0
   25.8139  -20.6444  -13.8181 C   0  0  0  0  0  0  0  0  0  0  0  0
   25.7154  -19.5395  -14.4153 O   0  0  0  0  0  0  0  0  0  0  0  0
   23.5257  -21.7246  -16.3213 C   0  0  0  0  0  0  0  0  0  0  0  0
   22.7732  -21.8624  -15.0411 C   0  0  1  0  0  0  0  0  0  0  0  0
   22.8157  -23.1808  -14.6164 O   0  0  0  0  0  0  0  0  0  0  0  0
   23.3086  -20.9125  -13.9889 C   0  0  2  0  0  0  0  0  0  0  0  0
   24.6125  -21.3674  -13.5538 N   0  0  0  0  0  0  0  0  0  0  0  0
   22.3707  -20.9625  -12.8323 C   0  0  0  0  0  0  0  0  0  0  0  0
   21.0804  -20.4809  -12.8685 O   0  0  0  0  0  0  0  0  0  0  0  0
   22.7464  -21.4744  -11.7227 O   0  0  0  0  0  0  0  0  0  0  0  0
  2  1  1  0
  2  3  1  0
  3  4  1  6
  5  3  1  0
  5  6  1  1
  7  5  1  0
  7  8  2  0
  9  7  1  0
 10  9  1  0
 10 11  1  1
 12 11  1  0
 13 12  2  0
 14 13  1  0
 15 14  1  0
 15 20  2  0
 16 15  1  0
 17 16  2  0
 17 18  1  0
 18 19  2  0
 19 20  1  0
 20 12  1  0
 21 10  1  0
 22 21  2  0
 24 23  1  6
 24 25  1  0
 24 26  1  0
 26 27  1  1
 26 28  1  0
 27 21  1  0
 28 29  1  0
 30 28  2  0
M  END
$$$$
