IWT.pdb
     RDKit          3D

 30 31  0  0  1  0  0  0  0  0999 V2000
   28.3344  -17.7115  -17.2182 C   0  0  0  0  0  0  0  0  0  0  0  0
   28.7061  -18.5907  -16.0688 C   0  0  0  0  0  0  0  0  0  0  0  0
   27.5094  -19.1591  -15.3359 C   0  0  2  0  0  0  0  0  0  0  0  0
   26.6767  -18.0033  -14.8303 C   0  0  0  0  0  0  0  0  0  0  0  0
   28.0517  -20.0227  -14.2198 C   0  0  2  0  0  0  0  0  0  0  0  0
   28.7553  -21.1285  -14.8905 N   0  0  0  0  0  0  0  0  0  0  0  0
   27.0112  -20.6150  -13.3816 C   0  0  0  0  0  0  0  0  0  0  0  0
   26.4165  -21.6439  -13.8113 O   0  0  0  0  0  0  0  0  0  0  0  0
   26.5936  -20.1400  -12.1064 N   0  0  0  0  0  0  0  0  0  0  0  0
   25.5375  -20.8042  -11.3688 C   0  0  1  0  0  0  0  0  0  0  0  0
   25.6179  -20.4464   -9.8843 C   0  0  0  0  0  0  0  0  0  0  0  0
   26.9847  -20.7090   -9.3687 C   0  0  0  0  0  0  0  0  0  0  0  0
   27.9843  -21.4436   -9.9687 C   0  0  0  0  0  0  0  0  0  0  0  0
   29.0852  -21.4458   -9.1756 N   0  0  0  0  0  0  0  0  0  0  0  0
   28.8133  -20.7305   -8.0836 C   0  0  0  0  0  0  0  0  0  0  0  0
   29.5984  -20.4316   -6.9768 C   0  0  0  0  0  0  0  0  0  0  0  0
   29.0739  -19.6545   -5.9566 C   0  0  0  0  0  0  0  0  0  0  0  0
   27.7912  -19.1809   -6.0318 C   0  0  0  0  0  0  0  0  0  0  0  0
   27.0323  -19.4915   -7.1406 C   0  0  0  0  0  0  0  0  0  0  0  0
   27.5094  -20.2590   -8.1779 C   0  0  0  0  0  0  0  0  0  0  0  0
   24.2066  -20.5031  -11.9223 C   0  0  0  0  0  0  0  0  0  0  0  0
   23.8906  -19.3036  -12.1431 O   0  0  0  0  0  0  0  0  0  0  0  0
   20.3207  -22.1255  -14.4762 C   0  0  0  0  0  0  0  0  0  0  0  0
   21.6794  -22.3046  -13.8879 C   0  0  1  0  0  0  0  0  0  0  0  0
   22.6244  -22.3356  -14.9010 O   0  0  0  0  0  0  0  0  0  0  0  0
   21.9791  -21.2239  -12.8689 C   0  0  2  0  0  0  0  0  0  0  0  0
   23.2439  -21.5115  -12.2254 N   0  0  0  0  0  0  0  0  0  0  0  0
   20.8968  -21.2710  -11.8459 C   0  0  0  0  0  0  0  0  0  0  0  0
   19.6914  -20.6161  -11.9726 O   0  0  0  0  0  0  0  0  0  0  0  0
   21.0566  -21.9474  -10.7730 O   0  0  0  0  0  0  0  0  0  0  0  0
  2  1  1  0
  2  3  1  0
  3  4  1  1
  5  3  1  0
  5  6  1  6
  7  5  1  0
  7  8  2  0
  9  7  1  0
 10  9  1  0
 10 11  1  1
 12 11  1  0
 13 12  2  0
 14 13  1  0
 15 14  1  0
 15 20  2  0
 16 15  1  0
 17 16  2  0
 17 18  1  0
 18 19  2  0
 19 20  1  0
 20 12  1  0
 21 10  1  0
 22 21  2  0
 24 23  1  6
 24 25  1  0
 24 26  1  0
 26 27  1  1
 26 28  1  0
 27 21  1  0
 28 29  1  0
 30 28  2  0
M  END
$$$$
