IWT.pdb
     RDKit          3D

 30 31  0  0  1  0  0  0  0  0999 V2000
   26.9415  -35.8074  -15.2934 C   0  0  0  0  0  0  0  0  0  0  0  0
   27.8976  -34.7222  -14.9185 C   0  0  0  0  0  0  0  0  0  0  0  0
   28.1029  -33.6976  -16.0141 C   0  0  2  0  0  0  0  0  0  0  0  0
   28.6179  -34.4180  -17.2392 C   0  0  0  0  0  0  0  0  0  0  0  0
   29.0824  -32.6778  -15.4793 C   0  0  2  0  0  0  0  0  0  0  0  0
   28.3148  -31.8676  -14.5191 N   0  0  0  0  0  0  0  0  0  0  0  0
   29.5955  -31.7685  -16.5020 C   0  0  0  0  0  0  0  0  0  0  0  0
   28.9481  -30.7081  -16.7328 O   0  0  0  0  0  0  0  0  0  0  0  0
   30.7731  -31.9617  -17.2780 N   0  0  0  0  0  0  0  0  0  0  0  0
   31.2214  -30.9572  -18.2217 C   0  0  1  0  0  0  0  0  0  0  0  0
   32.7481  -30.9500  -18.3072 C   0  0  0  0  0  0  0  0  0  0  0  0
   33.2040  -29.8687  -19.2161 C   0  0  0  0  0  0  0  0  0  0  0  0
   32.7711  -28.5610  -19.2525 C   0  0  0  0  0  0  0  0  0  0  0  0
   33.4341  -27.8898  -20.2276 N   0  0  0  0  0  0  0  0  0  0  0  0
   34.2800  -28.7368  -20.8150 C   0  0  0  0  0  0  0  0  0  0  0  0
   35.1773  -28.5445  -21.8584 C   0  0  0  0  0  0  0  0  0  0  0  0
   35.9576  -29.6038  -22.2929 C   0  0  0  0  0  0  0  0  0  0  0  0
   35.8505  -30.8348  -21.7025 C   0  0  0  0  0  0  0  0  0  0  0  0
   34.9526  -31.0002  -20.6690 C   0  0  0  0  0  0  0  0  0  0  0  0
   34.1572  -29.9787  -20.2035 C   0  0  0  0  0  0  0  0  0  0  0  0
   30.6102  -31.1379  -19.5491 C   0  0  0  0  0  0  0  0  0  0  0  0
   30.6141  -32.2822  -20.0762 O   0  0  0  0  0  0  0  0  0  0  0  0
   27.0083  -30.5813  -20.6731 C   0  0  0  0  0  0  0  0  0  0  0  0
   27.9202  -29.6801  -21.4349 C   0  0  1  0  0  0  0  0  0  0  0  0
   27.9320  -28.4254  -20.8469 O   0  0  0  0  0  0  0  0  0  0  0  0
   29.3123  -30.2704  -21.5341 C   0  0  2  0  0  0  0  0  0  0  0  0
   30.0063  -30.0711  -20.2791 N   0  0  0  0  0  0  0  0  0  0  0  0
   30.0313  -29.5252  -22.6054 C   0  0  0  0  0  0  0  0  0  0  0  0
   30.5732  -28.2698  -22.4366 O   0  0  0  0  0  0  0  0  0  0  0  0
   30.1753  -30.0460  -23.7640 O   0  0  0  0  0  0  0  0  0  0  0  0
  2  1  1  0
  2  3  1  0
  3  4  1  6
  5  3  1  0
  5  6  1  1
  7  5  1  0
  7  8  2  0
  9  7  1  0
 10  9  1  0
 10 11  1  6
 12 11  1  0
 13 12  2  0
 14 13  1  0
 15 14  1  0
 15 20  2  0
 16 15  1  0
 17 16  2  0
 17 18  1  0
 18 19  2  0
 19 20  1  0
 20 12  1  0
 21 10  1  0
 22 21  2  0
 24 23  1  1
 24 25  1  0
 24 26  1  0
 26 27  1  1
 26 28  1  0
 27 21  1  0
 28 29  1  0
 30 28  2  0
M  END
$$$$
