IWT.pdb
     RDKit          3D

 30 31  0  0  1  0  0  0  0  0999 V2000
   27.8501  -15.8761  -19.9448 C   0  0  0  0  0  0  0  0  0  0  0  0
   26.5659  -15.9304  -19.1831 C   0  0  0  0  0  0  0  0  0  0  0  0
   26.3926  -17.2070  -18.3879 C   0  0  2  0  0  0  0  0  0  0  0  0
   25.6152  -18.1866  -19.2370 C   0  0  0  0  0  0  0  0  0  0  0  0
   25.6690  -16.8326  -17.1145 C   0  0  2  0  0  0  0  0  0  0  0  0
   26.5480  -15.8647  -16.4378 N   0  0  0  0  0  0  0  0  0  0  0  0
   25.4758  -17.9566  -16.2004 C   0  0  0  0  0  0  0  0  0  0  0  0
   24.6182  -18.8320  -16.5085 O   0  0  0  0  0  0  0  0  0  0  0  0
   26.1700  -18.1673  -14.9757 N   0  0  0  0  0  0  0  0  0  0  0  0
   25.8039  -19.2495  -14.0839 C   0  0  1  0  0  0  0  0  0  0  0  0
   26.7495  -19.2933  -12.8830 C   0  0  0  0  0  0  0  0  0  0  0  0
   26.3850  -20.4187  -11.9864 C   0  0  0  0  0  0  0  0  0  0  0  0
   26.2863  -21.7546  -12.3093 C   0  0  0  0  0  0  0  0  0  0  0  0
   25.9276  -22.4628  -11.2090 N   0  0  0  0  0  0  0  0  0  0  0  0
   25.7947  -21.6119  -10.1910 C   0  0  0  0  0  0  0  0  0  0  0  0
   25.4459  -21.8328   -8.8642 C   0  0  0  0  0  0  0  0  0  0  0  0
   25.3765  -20.7616   -7.9883 C   0  0  0  0  0  0  0  0  0  0  0  0
   25.6486  -19.4909   -8.4203 C   0  0  0  0  0  0  0  0  0  0  0  0
   25.9924  -19.2977   -9.7418 C   0  0  0  0  0  0  0  0  0  0  0  0
   26.0743  -20.3296  -10.6480 C   0  0  0  0  0  0  0  0  0  0  0  0
   24.3977  -19.1586  -13.6569 C   0  0  0  0  0  0  0  0  0  0  0  0
   23.9752  -18.0803  -13.1607 O   0  0  0  0  0  0  0  0  0  0  0  0
   21.1481  -18.7897  -15.0130 C   0  0  0  0  0  0  0  0  0  0  0  0
   21.1350  -20.1325  -14.3643 C   0  0  1  0  0  0  0  0  0  0  0  0
   21.3673  -21.1115  -15.3171 O   0  0  0  0  0  0  0  0  0  0  0  0
   22.1369  -20.1996  -13.2295 C   0  0  2  0  0  0  0  0  0  0  0  0
   23.4767  -20.2416  -13.7770 N   0  0  0  0  0  0  0  0  0  0  0  0
   21.8795  -21.4668  -12.4892 C   0  0  0  0  0  0  0  0  0  0  0  0
   20.7814  -21.6763  -11.6840 O   0  0  0  0  0  0  0  0  0  0  0  0
   22.7018  -22.4415  -12.5795 O   0  0  0  0  0  0  0  0  0  0  0  0
  2  1  1  0
  2  3  1  0
  3  4  1  6
  5  3  1  0
  5  6  1  1
  7  5  1  0
  7  8  2  0
  9  7  1  0
 10  9  1  0
 10 11  1  1
 12 11  1  0
 13 12  2  0
 14 13  1  0
 15 14  1  0
 15 20  2  0
 16 15  1  0
 17 16  2  0
 17 18  1  0
 18 19  2  0
 19 20  1  0
 20 12  1  0
 21 10  1  0
 22 21  2  0
 24 23  1  6
 24 25  1  0
 24 26  1  0
 26 27  1  6
 26 28  1  0
 27 21  1  0
 28 29  1  0
 30 28  2  0
M  END
$$$$
