IWT.pdb
     RDKit          3D

 30 31  0  0  1  0  0  0  0  0999 V2000
   30.7839  -23.7413  -17.9904 C   0  0  0  0  0  0  0  0  0  0  0  0
   29.4756  -23.0215  -18.0397 C   0  0  0  0  0  0  0  0  0  0  0  0
   28.7374  -23.0257  -16.7179 C   0  0  2  0  0  0  0  0  0  0  0  0
   28.4898  -24.4638  -16.3237 C   0  0  0  0  0  0  0  0  0  0  0  0
   27.4585  -22.2481  -16.9304 C   0  0  2  0  0  0  0  0  0  0  0  0
   27.8831  -20.9305  -17.4315 N   0  0  0  0  0  0  0  0  0  0  0  0
   26.7016  -22.0216  -15.7008 C   0  0  0  0  0  0  0  0  0  0  0  0
   26.1354  -23.0138  -15.1606 O   0  0  0  0  0  0  0  0  0  0  0  0
   26.5358  -20.7723  -15.0389 N   0  0  0  0  0  0  0  0  0  0  0  0
   25.7322  -20.6618  -13.8379 C   0  0  1  0  0  0  0  0  0  0  0  0
   26.2993  -19.5827  -12.9147 C   0  0  0  0  0  0  0  0  0  0  0  0
   27.2882  -20.1771  -11.9810 C   0  0  0  0  0  0  0  0  0  0  0  0
   28.5625  -20.6143  -12.2704 C   0  0  0  0  0  0  0  0  0  0  0  0
   29.1461  -21.0923  -11.1427 N   0  0  0  0  0  0  0  0  0  0  0  0
   28.2757  -20.9712  -10.1398 C   0  0  0  0  0  0  0  0  0  0  0  0
   28.3866  -21.3107   -8.7970 C   0  0  0  0  0  0  0  0  0  0  0  0
   27.3202  -21.0795   -7.9432 C   0  0  0  0  0  0  0  0  0  0  0  0
   26.1616  -20.5204   -8.4127 C   0  0  0  0  0  0  0  0  0  0  0  0
   26.0762  -20.1924   -9.7494 C   0  0  0  0  0  0  0  0  0  0  0  0
   27.1080  -20.4030  -10.6348 C   0  0  0  0  0  0  0  0  0  0  0  0
   24.3138  -20.4138  -14.1458 C   0  0  0  0  0  0  0  0  0  0  0  0
   24.0080  -19.4480  -14.8949 O   0  0  0  0  0  0  0  0  0  0  0  0
   21.7375  -22.5645  -15.7809 C   0  0  0  0  0  0  0  0  0  0  0  0
   21.1987  -22.2049  -14.4375 C   0  0  1  0  0  0  0  0  0  0  0  0
   21.3532  -23.2765  -13.5725 O   0  0  0  0  0  0  0  0  0  0  0  0
   21.8577  -20.9490  -13.9041 C   0  0  2  0  0  0  0  0  0  0  0  0
   23.2540  -21.2201  -13.6336 N   0  0  0  0  0  0  0  0  0  0  0  0
   21.1775  -20.6044  -12.6240 C   0  0  0  0  0  0  0  0  0  0  0  0
   19.8660  -20.1912  -12.5383 O   0  0  0  0  0  0  0  0  0  0  0  0
   21.8131  -20.6835  -11.5177 O   0  0  0  0  0  0  0  0  0  0  0  0
  2  1  1  0
  2  3  1  0
  3  4  1  6
  5  3  1  0
  5  6  1  1
  7  5  1  0
  7  8  2  0
  9  7  1  0
 10  9  1  0
 10 11  1  1
 12 11  1  0
 13 12  2  0
 14 13  1  0
 15 14  1  0
 15 20  2  0
 16 15  1  0
 17 16  2  0
 17 18  1  0
 18 19  2  0
 19 20  1  0
 20 12  1  0
 21 10  1  0
 22 21  2  0
 24 23  1  6
 24 25  1  0
 24 26  1  0
 26 27  1  1
 26 28  1  0
 27 21  1  0
 28 29  1  0
 30 28  2  0
M  END
$$$$
