IWT.pdb
     RDKit          3D

 30 31  0  0  1  0  0  0  0  0999 V2000
   24.9444  -18.9893  -16.1373 C   0  0  0  0  0  0  0  0  0  0  0  0
   25.6202  -20.1553  -15.4923 C   0  0  0  0  0  0  0  0  0  0  0  0
   27.0752  -19.8989  -15.1619 C   0  0  2  0  0  0  0  0  0  0  0  0
   27.8193  -19.6807  -16.4594 C   0  0  0  0  0  0  0  0  0  0  0  0
   27.5687  -21.1077  -14.3998 C   0  0  2  0  0  0  0  0  0  0  0  0
   27.1292  -22.2707  -15.1883 N   0  0  0  0  0  0  0  0  0  0  0  0
   26.9807  -21.2386  -13.0682 C   0  0  0  0  0  0  0  0  0  0  0  0
   26.0811  -22.1098  -12.8992 O   0  0  0  0  0  0  0  0  0  0  0  0
   27.3267  -20.4688  -11.9219 N   0  0  0  0  0  0  0  0  0  0  0  0
   26.6255  -20.6401  -10.6651 C   0  0  1  0  0  0  0  0  0  0  0  0
   27.4784  -20.1260   -9.5048 C   0  0  0  0  0  0  0  0  0  0  0  0
   26.8018  -20.4005   -8.2124 C   0  0  0  0  0  0  0  0  0  0  0  0
   25.5891  -21.0236   -8.0126 C   0  0  0  0  0  0  0  0  0  0  0  0
   25.3214  -21.0812   -6.6837 N   0  0  0  0  0  0  0  0  0  0  0  0
   26.3334  -20.5102   -6.0297 C   0  0  0  0  0  0  0  0  0  0  0  0
   26.5402  -20.3173   -4.6693 C   0  0  0  0  0  0  0  0  0  0  0  0
   27.6947  -19.6855   -4.2362 C   0  0  0  0  0  0  0  0  0  0  0  0
   28.6301  -19.2514   -5.1372 C   0  0  0  0  0  0  0  0  0  0  0  0
   28.4017  -19.4545   -6.4820 C   0  0  0  0  0  0  0  0  0  0  0  0
   27.2711  -20.0766   -6.9593 C   0  0  0  0  0  0  0  0  0  0  0  0
   25.3002  -19.9987  -10.6827 C   0  0  0  0  0  0  0  0  0  0  0  0
   25.2085  -18.7880  -11.0190 O   0  0  0  0  0  0  0  0  0  0  0  0
   22.8726  -21.7043  -12.6997 C   0  0  0  0  0  0  0  0  0  0  0  0
   22.6410  -20.3098  -12.2245 C   0  0  1  0  0  0  0  0  0  0  0  0
   21.3977  -19.8729  -12.6530 O   0  0  0  0  0  0  0  0  0  0  0  0
   22.7845  -20.2160  -10.7189 C   0  0  2  0  0  0  0  0  0  0  0  0
   24.0990  -20.6853  -10.3341 N   0  0  0  0  0  0  0  0  0  0  0  0
   21.7582  -21.1161  -10.1218 C   0  0  0  0  0  0  0  0  0  0  0  0
   20.4011  -20.8915  -10.1993 O   0  0  0  0  0  0  0  0  0  0  0  0
   22.1163  -22.1694   -9.4920 O   0  0  0  0  0  0  0  0  0  0  0  0
  2  1  1  0
  2  3  1  0
  3  4  1  6
  5  3  1  0
  5  6  1  6
  7  5  1  0
  7  8  2  0
  9  7  1  0
 10  9  1  0
 10 11  1  1
 12 11  1  0
 13 12  2  0
 14 13  1  0
 15 14  1  0
 15 20  2  0
 16 15  1  0
 17 16  2  0
 17 18  1  0
 18 19  2  0
 19 20  1  0
 20 12  1  0
 21 10  1  0
 22 21  2  0
 24 23  1  1
 24 25  1  0
 24 26  1  0
 26 27  1  6
 26 28  1  0
 27 21  1  0
 28 29  1  0
 30 28  2  0
M  END
$$$$
