IWT.pdb
     RDKit          3D

 30 31  0  0  1  0  0  0  0  0999 V2000
   15.3663  -12.8301  -20.6255 C   0  0  0  0  0  0  0  0  0  0  0  0
   14.6939  -12.8610  -19.2916 C   0  0  0  0  0  0  0  0  0  0  0  0
   15.1022  -11.7183  -18.3864 C   0  0  2  0  0  0  0  0  0  0  0  0
   15.0459  -10.4397  -19.1907 C   0  0  0  0  0  0  0  0  0  0  0  0
   16.4932  -12.0344  -17.8857 C   0  0  2  0  0  0  0  0  0  0  0  0
   16.3749  -13.3334  -17.2029 N   0  0  0  0  0  0  0  0  0  0  0  0
   16.9937  -11.0728  -16.9055 C   0  0  0  0  0  0  0  0  0  0  0  0
   16.3665  -10.9554  -15.8148 O   0  0  0  0  0  0  0  0  0  0  0  0
   18.1379  -10.2401  -17.0598 N   0  0  0  0  0  0  0  0  0  0  0  0
   18.5213   -9.2956  -16.0295 C   0  0  1  0  0  0  0  0  0  0  0  0
   19.9562   -9.5596  -15.5719 C   0  0  0  0  0  0  0  0  0  0  0  0
   20.3195   -8.6344  -14.4696 C   0  0  0  0  0  0  0  0  0  0  0  0
   19.9355   -8.7072  -13.1482 C   0  0  0  0  0  0  0  0  0  0  0  0
   20.4788   -7.6722  -12.4594 N   0  0  0  0  0  0  0  0  0  0  0  0
   21.2005   -6.9400  -13.3084 C   0  0  0  0  0  0  0  0  0  0  0  0
   21.9477   -5.7867  -13.1026 C   0  0  0  0  0  0  0  0  0  0  0  0
   22.6181   -5.2074  -14.1678 C   0  0  0  0  0  0  0  0  0  0  0  0
   22.5491   -5.7623  -15.4179 C   0  0  0  0  0  0  0  0  0  0  0  0
   21.8009   -6.9069  -15.5964 C   0  0  0  0  0  0  0  0  0  0  0  0
   21.1185   -7.5176  -14.5697 C   0  0  0  0  0  0  0  0  0  0  0  0
   18.3458   -7.9012  -16.4688 C   0  0  0  0  0  0  0  0  0  0  0  0
   18.8063   -7.5471  -17.5867 O   0  0  0  0  0  0  0  0  0  0  0  0
   15.1674   -5.8649  -17.0380 C   0  0  0  0  0  0  0  0  0  0  0  0
   15.9927   -5.2066  -15.9847 C   0  0  1  0  0  0  0  0  0  0  0  0
   15.5086   -5.5498  -14.7325 O   0  0  0  0  0  0  0  0  0  0  0  0
   17.4580   -5.5600  -16.1401 C   0  0  2  0  0  0  0  0  0  0  0  0
   17.6730   -6.9174  -15.6844 N   0  0  0  0  0  0  0  0  0  0  0  0
   18.2299   -4.6313  -15.2673 C   0  0  0  0  0  0  0  0  0  0  0  0
   18.4388   -3.3007  -15.5568 O   0  0  0  0  0  0  0  0  0  0  0  0
   18.7454   -5.0546  -14.1767 O   0  0  0  0  0  0  0  0  0  0  0  0
  2  1  1  0
  2  3  1  0
  3  4  1  6
  5  3  1  0
  5  6  1  1
  7  5  1  0
  7  8  2  0
  9  7  1  0
 10  9  1  0
 10 11  1  6
 12 11  1  0
 13 12  2  0
 14 13  1  0
 15 14  1  0
 15 20  2  0
 16 15  1  0
 17 16  2  0
 17 18  1  0
 18 19  2  0
 19 20  1  0
 20 12  1  0
 21 10  1  0
 22 21  2  0
 24 23  1  6
 24 25  1  0
 24 26  1  0
 26 27  1  1
 26 28  1  0
 27 21  1  0
 28 29  1  0
 30 28  2  0
M  END
$$$$
