DIG.pdb
     RDKit          3D

 21 20  0  0  1  0  0  0  0  0999 V2000
   10.3021  -17.2332   15.9922 N   0  0  0  0  0  0  0  0  0  0  0  0
    9.2624  -17.3045   16.9982 C   0  0  1  0  0  0  0  0  0  0  0  0
    9.0490  -18.7470   17.3934 C   0  0  0  0  0  0  0  0  0  0  0  0
    8.5328  -19.5297   16.2434 C   0  0  0  0  0  0  0  0  0  0  0  0
    8.3069  -19.0078   15.1224 O   0  0  0  0  0  0  0  0  0  0  0  0
    9.6308  -16.4548   18.1496 C   0  0  0  0  0  0  0  0  0  0  0  0
   10.8641  -16.2121   18.3955 O   0  0  0  0  0  0  0  0  0  0  0  0
    8.2789  -20.8940   16.3774 O   0  0  0  0  0  0  0  0  0  0  0  0
    6.6914  -12.1705   19.4739 C   0  0  0  0  0  0  0  0  0  0  0  0
    7.9416  -13.0273   19.1906 C   0  0  0  0  0  0  0  0  0  0  0  0
    8.1092  -13.9580   20.3518 C   0  0  2  0  0  0  0  0  0  0  0  0
    8.3506  -13.1182   21.5929 C   0  0  0  0  0  0  0  0  0  0  0  0
    9.1415  -15.0302   20.1819 C   0  0  2  0  0  0  0  0  0  0  0  0
    8.7013  -15.8685   19.0315 N   0  0  0  0  0  0  0  0  0  0  0  0
    9.3564  -15.8905   21.3595 C   0  0  0  0  0  0  0  0  0  0  0  0
    8.5031  -16.8151   21.5901 O   0  0  0  0  0  0  0  0  0  0  0  0
   10.4236  -15.8054   22.2749 N   0  0  0  0  0  0  0  0  0  0  0  0
   10.6183  -16.7694   23.3484 C   0  0  0  0  0  0  0  0  0  0  0  0
   12.0665  -17.0173   23.5213 C   0  0  0  0  0  0  0  0  0  0  0  0
   12.7948  -17.3363   22.5315 O   0  0  0  0  0  0  0  0  0  0  0  0
   12.7067  -16.9195   24.7474 O   0  0  0  0  0  0  0  0  0  0  0  0
  2  1  1  6
  3  2  1  0
  4  3  1  0
  5  4  2  0
  6  7  2  0
  6  2  1  0
  8  4  1  0
  9 10  1  0
 10 11  1  0
 11 13  1  0
 11 12  1  1
 13 14  1  6
 14  6  1  0
 15 13  1  0
 16 15  2  0
 17 15  1  0
 18 17  1  0
 19 21  1  0
 19 18  1  0
 20 19  2  0
M  END
$$$$
