DIG.pdb
     RDKit          3D

 21 20  0  0  1  0  0  0  0  0999 V2000
   12.6896  -15.4914   15.8205 N   0  0  0  0  0  0  0  0  0  0  0  0
   11.6135  -16.1645   16.5183 C   0  0  1  0  0  0  0  0  0  0  0  0
   11.9242  -17.6403   16.6091 C   0  0  0  0  0  0  0  0  0  0  0  0
   12.0257  -18.2340   15.2531 C   0  0  0  0  0  0  0  0  0  0  0  0
   12.9815  -18.9769   14.9144 O   0  0  0  0  0  0  0  0  0  0  0  0
   11.4248  -15.5470   17.8474 C   0  0  0  0  0  0  0  0  0  0  0  0
   12.4282  -15.0497   18.4688 O   0  0  0  0  0  0  0  0  0  0  0  0
   11.0433  -17.9788   14.2972 O   0  0  0  0  0  0  0  0  0  0  0  0
    7.4703  -12.1262   18.9360 C   0  0  0  0  0  0  0  0  0  0  0  0
    8.8686  -12.7752   18.9048 C   0  0  0  0  0  0  0  0  0  0  0  0
    8.8179  -13.9726   19.8028 C   0  0  2  0  0  0  0  0  0  0  0  0
    8.3913  -13.5046   21.1823 C   0  0  0  0  0  0  0  0  0  0  0  0
   10.0616  -14.8065   19.8454 C   0  0  2  0  0  0  0  0  0  0  0  0
   10.1851  -15.4578   18.5111 N   0  0  0  0  0  0  0  0  0  0  0  0
   10.0929  -15.8383   20.8977 C   0  0  0  0  0  0  0  0  0  0  0  0
    9.1909  -16.7450   20.8752 O   0  0  0  0  0  0  0  0  0  0  0  0
   11.0300  -15.9383   21.9446 N   0  0  0  0  0  0  0  0  0  0  0  0
   10.9360  -16.9460   22.9912 C   0  0  0  0  0  0  0  0  0  0  0  0
   12.1418  -16.8726   23.8452 C   0  0  0  0  0  0  0  0  0  0  0  0
   13.1388  -16.1645   23.5038 O   0  0  0  0  0  0  0  0  0  0  0  0
   12.2579  -17.5570   25.0456 O   0  0  0  0  0  0  0  0  0  0  0  0
  2  1  1  1
  3  2  1  0
  4  3  1  0
  5  4  2  0
  6  7  2  0
  6  2  1  0
  8  4  1  0
  9 10  1  0
 10 11  1  0
 11 13  1  0
 11 12  1  1
 13 14  1  6
 14  6  1  0
 15 13  1  0
 16 15  2  0
 17 15  1  0
 18 17  1  0
 19 21  1  0
 19 18  1  0
 20 19  2  0
M  END
$$$$
