DIG.pdb
     RDKit          3D

 21 20  0  0  1  0  0  0  0  0999 V2000
    8.0852  -15.3382   21.0047 N   0  0  0  0  0  0  0  0  0  0  0  0
    7.9086  -16.1057   22.2203 C   0  0  1  0  0  0  0  0  0  0  0  0
    8.4780  -17.4911   22.0225 C   0  0  0  0  0  0  0  0  0  0  0  0
    7.8424  -18.1522   20.8561 C   0  0  0  0  0  0  0  0  0  0  0  0
    6.5951  -18.2566   20.7398 O   0  0  0  0  0  0  0  0  0  0  0  0
    8.5416  -15.3938   23.3499 C   0  0  0  0  0  0  0  0  0  0  0  0
    9.6992  -14.8657   23.2037 O   0  0  0  0  0  0  0  0  0  0  0  0
    8.6276  -18.6870   19.8357 O   0  0  0  0  0  0  0  0  0  0  0  0
    5.9577  -11.7796   25.9306 C   0  0  0  0  0  0  0  0  0  0  0  0
    7.1229  -12.5260   25.2505 C   0  0  0  0  0  0  0  0  0  0  0  0
    7.6578  -13.5075   26.2472 C   0  0  2  0  0  0  0  0  0  0  0  0
    8.2097  -12.7244   27.4245 C   0  0  0  0  0  0  0  0  0  0  0  0
    8.6429  -14.5028   25.7152 C   0  0  2  0  0  0  0  0  0  0  0  0
    7.9535  -15.2434   24.6214 N   0  0  0  0  0  0  0  0  0  0  0  0
    9.1635  -15.4644   26.7038 C   0  0  0  0  0  0  0  0  0  0  0  0
    8.3259  -16.2291   27.2951 O   0  0  0  0  0  0  0  0  0  0  0  0
   10.5118  -15.6386   27.0725 N   0  0  0  0  0  0  0  0  0  0  0  0
   10.9320  -16.5871   28.0940 C   0  0  0  0  0  0  0  0  0  0  0  0
   11.3342  -17.8538   27.4440 C   0  0  0  0  0  0  0  0  0  0  0  0
   10.4739  -18.5967   26.8784 O   0  0  0  0  0  0  0  0  0  0  0  0
   12.6464  -18.3008   27.4118 O   0  0  0  0  0  0  0  0  0  0  0  0
  2  1  1  6
  3  2  1  0
  4  3  1  0
  5  4  2  0
  6  7  2  0
  6  2  1  0
  8  4  1  0
  9 10  1  0
 10 11  1  0
 11 13  1  0
 11 12  1  1
 13 14  1  6
 14  6  1  0
 15 13  1  0
 16 15  2  0
 17 15  1  0
 18 17  1  0
 19 21  1  0
 19 18  1  0
 20 19  2  0
M  END
$$$$
