DIG.pdb
     RDKit          3D

 21 20  0  0  1  0  0  0  0  0999 V2000
    8.8132  -14.4935   20.5314 N   0  0  0  0  0  0  0  0  0  0  0  0
    8.0684  -15.3724   21.4093 C   0  0  1  0  0  0  0  0  0  0  0  0
    8.2877  -16.8054   20.9836 C   0  0  0  0  0  0  0  0  0  0  0  0
    7.7684  -17.0248   19.6112 C   0  0  0  0  0  0  0  0  0  0  0  0
    6.5389  -17.0208   19.3491 O   0  0  0  0  0  0  0  0  0  0  0  0
    8.4762  -15.1331   22.8092 C   0  0  0  0  0  0  0  0  0  0  0  0
    9.7159  -14.9913   23.0979 O   0  0  0  0  0  0  0  0  0  0  0  0
    8.6480  -17.2462   18.5525 O   0  0  0  0  0  0  0  0  0  0  0  0
    6.1672  -11.5255   25.7522 C   0  0  0  0  0  0  0  0  0  0  0  0
    7.2263  -12.4386   25.1026 C   0  0  0  0  0  0  0  0  0  0  0  0
    7.2202  -13.7290   25.8626 C   0  0  2  0  0  0  0  0  0  0  0  0
    7.5836  -13.4240   27.3044 C   0  0  0  0  0  0  0  0  0  0  0  0
    8.0597  -14.8274   25.2855 C   0  0  2  0  0  0  0  0  0  0  0  0
    7.5790  -15.0452   23.8921 N   0  0  0  0  0  0  0  0  0  0  0  0
    8.0198  -16.1040   26.0213 C   0  0  0  0  0  0  0  0  0  0  0  0
    6.8962  -16.7087   26.1123 O   0  0  0  0  0  0  0  0  0  0  0  0
    9.1080  -16.7454   26.6446 N   0  0  0  0  0  0  0  0  0  0  0  0
    8.9885  -18.0404   27.2991 C   0  0  0  0  0  0  0  0  0  0  0  0
   10.1459  -18.2380   28.1990 C   0  0  0  0  0  0  0  0  0  0  0  0
   11.0860  -17.3860   28.2467 O   0  0  0  0  0  0  0  0  0  0  0  0
   10.2754  -19.3412   29.0292 O   0  0  0  0  0  0  0  0  0  0  0  0
  2  1  1  6
  3  2  1  0
  4  3  1  0
  5  4  2  0
  6  7  2  0
  6  2  1  0
  8  4  1  0
  9 10  1  0
 10 11  1  0
 11 13  1  0
 11 12  1  1
 13 14  1  6
 14  6  1  0
 15 13  1  0
 16 15  2  0
 17 15  1  0
 18 17  1  0
 19 21  1  0
 19 18  1  0
 20 19  2  0
M  END
$$$$
