DIG.pdb
     RDKit          3D

 21 20  0  0  1  0  0  0  0  0999 V2000
    7.1864  -16.3712   21.4111 N   0  0  0  0  0  0  0  0  0  0  0  0
    6.8035  -16.5813   22.7921 C   0  0  1  0  0  0  0  0  0  0  0  0
    6.8614  -18.0579   23.1066 C   0  0  0  0  0  0  0  0  0  0  0  0
    5.8077  -18.7894   22.3610 C   0  0  0  0  0  0  0  0  0  0  0  0
    4.8354  -18.2028   21.8218 O   0  0  0  0  0  0  0  0  0  0  0  0
    7.6806  -15.7838   23.6743 C   0  0  0  0  0  0  0  0  0  0  0  0
    8.8905  -15.5473   23.3271 O   0  0  0  0  0  0  0  0  0  0  0  0
    5.8681  -20.1767   22.2354 O   0  0  0  0  0  0  0  0  0  0  0  0
    5.7584  -11.5736   26.2230 C   0  0  0  0  0  0  0  0  0  0  0  0
    6.7558  -12.4253   25.4122 C   0  0  0  0  0  0  0  0  0  0  0  0
    7.4286  -13.3521   26.3770 C   0  0  2  0  0  0  0  0  0  0  0  0
    8.2578  -12.5120   27.3313 C   0  0  0  0  0  0  0  0  0  0  0  0
    8.2222  -14.4649   25.7638 C   0  0  2  0  0  0  0  0  0  0  0  0
    7.2793  -15.2428   24.9118 N   0  0  0  0  0  0  0  0  0  0  0  0
    8.8783  -15.3732   26.7215 C   0  0  0  0  0  0  0  0  0  0  0  0
    8.1373  -16.0149   27.5434 O   0  0  0  0  0  0  0  0  0  0  0  0
   10.2611  -15.6192   26.8294 N   0  0  0  0  0  0  0  0  0  0  0  0
   10.8327  -16.4526   27.8775 C   0  0  0  0  0  0  0  0  0  0  0  0
   11.1489  -17.7856   27.3191 C   0  0  0  0  0  0  0  0  0  0  0  0
   10.5326  -18.2276   26.3010 O   0  0  0  0  0  0  0  0  0  0  0  0
   12.1167  -18.6188   27.8597 O   0  0  0  0  0  0  0  0  0  0  0  0
  2  1  1  6
  3  2  1  0
  4  3  1  0
  5  4  2  0
  6  7  2  0
  6  2  1  0
  8  4  1  0
  9 10  1  0
 10 11  1  0
 11 13  1  0
 11 12  1  6
 13 14  1  1
 14  6  1  0
 15 13  1  0
 16 15  2  0
 17 15  1  0
 18 17  1  0
 19 21  1  0
 19 18  1  0
 20 19  2  0
M  END
$$$$
