DIG.pdb
     RDKit          3D

 21 20  0  0  1  0  0  0  0  0999 V2000
    7.4948  -15.1258   20.8476 N   0  0  0  0  0  0  0  0  0  0  0  0
    6.9440  -15.6886   22.0633 C   0  0  1  0  0  0  0  0  0  0  0  0
    6.9811  -17.1964   21.9763 C   0  0  0  0  0  0  0  0  0  0  0  0
    6.3823  -17.6579   20.6997 C   0  0  0  0  0  0  0  0  0  0  0  0
    6.8119  -18.6641   20.0806 O   0  0  0  0  0  0  0  0  0  0  0  0
    7.6928  -15.1741   23.2287 C   0  0  0  0  0  0  0  0  0  0  0  0
    8.9613  -15.0145   23.1529 O   0  0  0  0  0  0  0  0  0  0  0  0
    5.3041  -16.9739   20.1397 O   0  0  0  0  0  0  0  0  0  0  0  0
    5.6084  -11.2768   26.1622 C   0  0  0  0  0  0  0  0  0  0  0  0
    6.6666  -12.0817   25.3812 C   0  0  0  0  0  0  0  0  0  0  0  0
    7.0700  -13.2346   26.2478 C   0  0  2  0  0  0  0  0  0  0  0  0
    7.7260  -12.6738   27.4964 C   0  0  0  0  0  0  0  0  0  0  0  0
    7.9117  -14.2822   25.5857 C   0  0  2  0  0  0  0  0  0  0  0  0
    7.1029  -14.8325   24.4619 N   0  0  0  0  0  0  0  0  0  0  0  0
    8.3476  -15.3859   26.4603 C   0  0  0  0  0  0  0  0  0  0  0  0
    9.1578  -15.1127   27.4116 O   0  0  0  0  0  0  0  0  0  0  0  0
    7.9575  -16.7358   26.3622 N   0  0  0  0  0  0  0  0  0  0  0  0
    8.1617  -17.6941   27.4391 C   0  0  0  0  0  0  0  0  0  0  0  0
    9.3508  -18.5200   27.1348 C   0  0  0  0  0  0  0  0  0  0  0  0
   10.0381  -18.3104   26.0881 O   0  0  0  0  0  0  0  0  0  0  0  0
    9.7811  -19.5525   27.9544 O   0  0  0  0  0  0  0  0  0  0  0  0
  2  1  1  6
  3  2  1  0
  4  3  1  0
  5  4  2  0
  6  7  2  0
  6  2  1  0
  8  4  1  0
  9 10  1  0
 10 11  1  0
 11 13  1  0
 11 12  1  1
 13 14  1  6
 14  6  1  0
 15 13  1  0
 16 15  2  0
 17 15  1  0
 18 17  1  0
 19 21  1  0
 19 18  1  0
 20 19  2  0
M  END
$$$$
