DIG.pdb
     RDKit          3D

 21 20  0  0  1  0  0  0  0  0999 V2000
    7.7728  -16.8062   22.7561 N   0  0  0  0  0  0  0  0  0  0  0  0
    9.1247  -16.2933   22.6698 C   0  0  1  0  0  0  0  0  0  0  0  0
    9.3035  -15.5781   21.3510 C   0  0  0  0  0  0  0  0  0  0  0  0
    9.1265  -16.5221   20.2201 C   0  0  0  0  0  0  0  0  0  0  0  0
    8.5846  -16.1811   19.1383 O   0  0  0  0  0  0  0  0  0  0  0  0
    9.3939  -15.4145   23.8268 C   0  0  0  0  0  0  0  0  0  0  0  0
   10.4793  -14.7364   23.8748 O   0  0  0  0  0  0  0  0  0  0  0  0
    9.5655  -17.8410   20.3284 O   0  0  0  0  0  0  0  0  0  0  0  0
    5.8996  -12.0563   25.5778 C   0  0  0  0  0  0  0  0  0  0  0  0
    7.2444  -12.6957   25.1772 C   0  0  0  0  0  0  0  0  0  0  0  0
    7.7108  -13.5075   26.3460 C   0  0  2  0  0  0  0  0  0  0  0  0
    7.9545  -12.5596   27.5062 C   0  0  0  0  0  0  0  0  0  0  0  0
    8.8834  -14.4035   26.0887 C   0  0  2  0  0  0  0  0  0  0  0  0
    8.5214  -15.2564   24.9219 N   0  0  0  0  0  0  0  0  0  0  0  0
    9.2793  -15.2636   27.2185 C   0  0  0  0  0  0  0  0  0  0  0  0
    8.5138  -16.2417   27.5243 O   0  0  0  0  0  0  0  0  0  0  0  0
   10.4350  -15.1244   28.0118 N   0  0  0  0  0  0  0  0  0  0  0  0
   10.6824  -15.9406   29.1917 C   0  0  0  0  0  0  0  0  0  0  0  0
   11.5047  -17.1096   28.8095 C   0  0  0  0  0  0  0  0  0  0  0  0
   11.7654  -17.3512   27.5907 O   0  0  0  0  0  0  0  0  0  0  0  0
   12.0314  -17.9960   29.7367 O   0  0  0  0  0  0  0  0  0  0  0  0
  2  1  1  1
  3  2  1  0
  4  3  1  0
  5  4  2  0
  6  7  2  0
  6  2  1  0
  8  4  1  0
  9 10  1  0
 10 11  1  0
 11 13  1  0
 11 12  1  1
 13 14  1  6
 14  6  1  0
 15 13  1  0
 16 15  2  0
 17 15  1  0
 18 17  1  0
 19 21  1  0
 19 18  1  0
 20 19  2  0
M  END
$$$$
