DIG.pdb
     RDKit          3D

 21 20  0  0  1  0  0  0  0  0999 V2000
    8.4002  -15.3427   20.9494 N   0  0  0  0  0  0  0  0  0  0  0  0
    7.5774  -15.7656   22.0639 C   0  0  1  0  0  0  0  0  0  0  0  0
    7.4479  -17.2707   22.0454 C   0  0  0  0  0  0  0  0  0  0  0  0
    6.8556  -17.7253   20.7632 C   0  0  0  0  0  0  0  0  0  0  0  0
    5.9373  -17.0911   20.1846 O   0  0  0  0  0  0  0  0  0  0  0  0
    8.1621  -15.2672   23.3261 C   0  0  0  0  0  0  0  0  0  0  0  0
    9.4309  -15.1281   23.4310 O   0  0  0  0  0  0  0  0  0  0  0  0
    7.3107  -18.8929   20.1520 O   0  0  0  0  0  0  0  0  0  0  0  0
    5.7131  -11.4280   26.1531 C   0  0  0  0  0  0  0  0  0  0  0  0
    6.8500  -12.2080   25.4627 C   0  0  0  0  0  0  0  0  0  0  0  0
    7.1337  -13.4116   26.3075 C   0  0  2  0  0  0  0  0  0  0  0  0
    7.6075  -12.9280   27.6660 C   0  0  0  0  0  0  0  0  0  0  0  0
    8.0633  -14.4220   25.7083 C   0  0  2  0  0  0  0  0  0  0  0  0
    7.4094  -14.9198   24.4655 N   0  0  0  0  0  0  0  0  0  0  0  0
    8.3962  -15.5653   26.5770 C   0  0  0  0  0  0  0  0  0  0  0  0
    9.0951  -15.3391   27.6242 O   0  0  0  0  0  0  0  0  0  0  0  0
    8.0169  -16.9071   26.3769 N   0  0  0  0  0  0  0  0  0  0  0  0
    8.1225  -17.9184   27.4189 C   0  0  0  0  0  0  0  0  0  0  0  0
    9.4609  -18.5453   27.3528 C   0  0  0  0  0  0  0  0  0  0  0  0
   10.2950  -18.2058   26.4580 O   0  0  0  0  0  0  0  0  0  0  0  0
    9.8806  -19.5217   28.2436 O   0  0  0  0  0  0  0  0  0  0  0  0
  2  1  1  6
  3  2  1  0
  4  3  1  0
  5  4  2  0
  6  7  2  0
  6  2  1  0
  8  4  1  0
  9 10  1  0
 10 11  1  0
 11 13  1  0
 11 12  1  1
 13 14  1  6
 14  6  1  0
 15 13  1  0
 16 15  2  0
 17 15  1  0
 18 17  1  0
 19 21  1  0
 19 18  1  0
 20 19  2  0
M  END
$$$$
