DIG.pdb
     RDKit          3D

 21 20  0  0  1  0  0  0  0  0999 V2000
    7.2946  -15.1862   20.5138 N   0  0  0  0  0  0  0  0  0  0  0  0
    7.0381  -15.7245   21.8338 C   0  0  1  0  0  0  0  0  0  0  0  0
    7.2751  -17.2166   21.8187 C   0  0  0  0  0  0  0  0  0  0  0  0
    6.9234  -17.7849   20.4940 C   0  0  0  0  0  0  0  0  0  0  0  0
    6.3338  -17.1137   19.6096 O   0  0  0  0  0  0  0  0  0  0  0  0
    7.8880  -15.0304   22.8235 C   0  0  0  0  0  0  0  0  0  0  0  0
    9.0369  -14.5831   22.4767 O   0  0  0  0  0  0  0  0  0  0  0  0
    7.2441  -19.1066   20.1871 O   0  0  0  0  0  0  0  0  0  0  0  0
    5.5863  -12.0424   26.7343 C   0  0  0  0  0  0  0  0  0  0  0  0
    6.5519  -12.3970   25.5856 C   0  0  0  0  0  0  0  0  0  0  0  0
    7.5102  -13.4182   26.1161 C   0  0  2  0  0  0  0  0  0  0  0  0
    8.2901  -12.7817   27.2521 C   0  0  0  0  0  0  0  0  0  0  0  0
    8.4064  -14.0582   25.1005 C   0  0  2  0  0  0  0  0  0  0  0  0
    7.5236  -14.8128   24.1671 N   0  0  0  0  0  0  0  0  0  0  0  0
    9.4302  -14.9670   25.6470 C   0  0  0  0  0  0  0  0  0  0  0  0
   10.4504  -14.4471   26.2172 O   0  0  0  0  0  0  0  0  0  0  0  0
    9.4044  -16.3749   25.6121 N   0  0  0  0  0  0  0  0  0  0  0  0
   10.4745  -17.1954   26.1611 C   0  0  0  0  0  0  0  0  0  0  0  0
   10.0765  -17.6787   27.5014 C   0  0  0  0  0  0  0  0  0  0  0  0
   10.9502  -17.9419   28.3842 O   0  0  0  0  0  0  0  0  0  0  0  0
    8.7539  -17.8711   27.8711 O   0  0  0  0  0  0  0  0  0  0  0  0
  2  1  1  6
  3  2  1  0
  4  3  1  0
  5  4  2  0
  6  7  2  0
  6  2  1  0
  8  4  1  0
  9 10  1  0
 10 11  1  0
 11 13  1  0
 11 12  1  1
 13 14  1  6
 14  6  1  0
 15 13  1  0
 16 15  2  0
 17 15  1  0
 18 17  1  0
 19 21  1  0
 19 18  1  0
 20 19  2  0
M  END
$$$$
