DIG.pdb
     RDKit          3D

 21 20  0  0  1  0  0  0  0  0999 V2000
   10.6353  -18.1157   17.1404 N   0  0  0  0  0  0  0  0  0  0  0  0
    9.4739  -17.8490   17.9640 C   0  0  1  0  0  0  0  0  0  0  0  0
    9.0045  -19.1381   18.5966 C   0  0  0  0  0  0  0  0  0  0  0  0
    8.9827  -20.2312   17.5935 C   0  0  0  0  0  0  0  0  0  0  0  0
    8.3053  -20.1605   16.5370 O   0  0  0  0  0  0  0  0  0  0  0  0
    9.8077  -16.8185   18.9690 C   0  0  0  0  0  0  0  0  0  0  0  0
   11.0014  -16.3603   19.0417 O   0  0  0  0  0  0  0  0  0  0  0  0
    9.7284  -21.3910   17.7995 O   0  0  0  0  0  0  0  0  0  0  0  0
    6.6430  -12.6117   19.7978 C   0  0  0  0  0  0  0  0  0  0  0  0
    7.9683  -13.3839   19.6398 C   0  0  0  0  0  0  0  0  0  0  0  0
    8.1367  -14.2244   20.8678 C   0  0  2  0  0  0  0  0  0  0  0  0
    8.2079  -13.2940   22.0649 C   0  0  0  0  0  0  0  0  0  0  0  0
    9.2739  -15.1991   20.8375 C   0  0  2  0  0  0  0  0  0  0  0  0
    8.8854  -16.2793   19.8877 N   0  0  0  0  0  0  0  0  0  0  0  0
    9.6272  -15.7959   22.1383 C   0  0  0  0  0  0  0  0  0  0  0  0
   10.1317  -15.0316   23.0313 O   0  0  0  0  0  0  0  0  0  0  0  0
    9.4624  -17.1436   22.5134 N   0  0  0  0  0  0  0  0  0  0  0  0
    9.6151  -17.6024   23.8867 C   0  0  0  0  0  0  0  0  0  0  0  0
   11.0246  -17.9895   24.1151 C   0  0  0  0  0  0  0  0  0  0  0  0
   11.8765  -17.9286   23.1757 O   0  0  0  0  0  0  0  0  0  0  0  0
   11.4949  -18.4335   25.3417 O   0  0  0  0  0  0  0  0  0  0  0  0
  2  1  1  1
  3  2  1  0
  4  3  1  0
  5  4  2  0
  6  7  2  0
  6  2  1  0
  8  4  1  0
  9 10  1  0
 10 11  1  0
 11 13  1  0
 11 12  1  1
 13 14  1  6
 14  6  1  0
 15 13  1  0
 16 15  2  0
 17 15  1  0
 18 17  1  0
 19 21  1  0
 19 18  1  0
 20 19  2  0
M  END
$$$$
