RKN.pdb
     RDKit          3D

 29 28  0  0  1  0  0  0  0  0999 V2000
    7.2928  -11.3329   19.2263 N   0  0  0  0  0  0  0  0  0  0  0  0
    7.5805  -12.6380   18.7667 C   0  0  0  0  0  0  0  0  0  0  0  0
    8.1785  -12.7936   17.6336 N   0  0  0  0  0  0  0  0  0  0  0  0
    7.2409  -13.8268   19.4992 N   0  0  0  0  0  0  0  0  0  0  0  0
    7.5001  -15.1358   19.0239 C   0  0  0  0  0  0  0  0  0  0  0  0
    8.5583  -15.8561   19.7683 C   0  0  0  0  0  0  0  0  0  0  0  0
    8.5435  -15.6755   21.2294 C   0  0  0  0  0  0  0  0  0  0  0  0
    9.5585  -16.4224   22.0294 C   0  0  2  0  0  0  0  0  0  0  0  0
    9.7452  -17.7522   21.4654 N   0  0  0  0  0  0  0  0  0  0  0  0
    9.0669  -16.5957   23.4407 C   0  0  0  0  0  0  0  0  0  0  0  0
    8.6400  -15.6019   24.0477 O   0  0  0  0  0  0  0  0  0  0  0  0
    8.4382  -13.7122   17.2418 N   0  0  0  0  0  0  0  0  0  0  0  0
    9.0975  -17.8637   24.0450 C   0  0  1  0  0  0  0  0  0  0  0  0
    8.6125  -17.9894   25.4241 C   0  0  0  0  0  0  0  0  0  0  0  0
    8.2834  -19.4503   25.6866 C   0  0  0  0  0  0  0  0  0  0  0  0
    7.7748  -19.6679   27.0493 C   0  0  0  0  0  0  0  0  0  0  0  0
    7.4495  -21.1364   27.2687 C   0  0  0  0  0  0  0  0  0  0  0  0
    6.8845  -21.3178   28.6453 N   0  0  0  0  0  0  0  0  0  0  0  0
    6.5757  -22.7408   28.7937 C   0  0  0  0  0  0  0  0  0  0  0  0
    9.6178  -17.5276   26.3806 O   0  0  0  0  0  0  0  0  0  0  0  0
   10.7850  -17.9847   26.3117 N   0  0  0  0  0  0  0  0  0  0  0  0
    9.9057  -13.7045   26.6445 C   0  0  0  0  0  0  0  0  0  0  0  0
    9.3228  -13.8239   27.9285 O   0  0  0  0  0  0  0  0  0  0  0  0
    8.3647  -13.0961   28.2280 C   0  0  0  0  0  0  0  0  0  0  0  0
    9.8648  -14.8021   28.8695 C   0  0  2  0  0  0  0  0  0  0  0  0
   10.3031  -16.1096   28.2826 N   0  0  0  0  0  0  0  0  0  0  0  0
    9.2483  -16.5661   27.3725 C   0  0  0  0  0  0  0  0  0  0  0  0
   10.4441  -17.2013   29.2811 O   0  0  0  0  0  0  0  0  0  0  0  0
   11.4480  -17.1777   30.2213 O   0  0  0  0  0  0  0  0  0  0  0  0
  2  1  1  0
  3  2  2  0
  4  2  1  0
  5  4  1  0
  6  5  1  0
  7  6  1  0
  8  7  1  0
  8  9  1  6
 10  8  1  0
 10 11  2  0
 12 10  1  0
 13 12  1  0
 13 14  1  1
 15 14  1  0
 16 17  1  0
 16 15  1  0
 18 17  1  0
 19 13  1  0
 20 19  2  0
 22 23  2  0
 22 21  1  0
 24 22  1  0
 25 24  1  6
 25 26  1  0
 26 19  1  0
 27 28  1  0
 27 25  1  0
 29 27  2  0
M  END
$$$$
