RKN.pdb
     RDKit          3D

 29 28  0  0  1  0  0  0  0  0999 V2000
   13.2820  -18.7615   18.0071 N   0  0  0  0  0  0  0  0  0  0  0  0
   12.3731  -19.2665   17.0500 C   0  0  0  0  0  0  0  0  0  0  0  0
   12.7592  -19.4193   15.8280 N   0  0  0  0  0  0  0  0  0  0  0  0
   11.0174  -19.6276   17.3608 N   0  0  0  0  0  0  0  0  0  0  0  0
   10.2079  -18.9060   18.2722 C   0  0  0  0  0  0  0  0  0  0  0  0
   10.5686  -17.4763   18.4078 C   0  0  0  0  0  0  0  0  0  0  0  0
    9.6494  -16.6627   19.2209 C   0  0  0  0  0  0  0  0  0  0  0  0
    9.1402  -17.2563   20.4923 C   0  0  2  0  0  0  0  0  0  0  0  0
    7.6871  -17.3438   20.4449 N   0  0  0  0  0  0  0  0  0  0  0  0
    9.5011  -16.3658   21.6500 C   0  0  0  0  0  0  0  0  0  0  0  0
   10.6989  -16.1259   21.8645 O   0  0  0  0  0  0  0  0  0  0  0  0
   12.1400  -19.7322   15.0641 N   0  0  0  0  0  0  0  0  0  0  0  0
    8.4906  -15.8249   22.4624 C   0  0  1  0  0  0  0  0  0  0  0  0
    8.8863  -15.0927   23.6708 C   0  0  0  0  0  0  0  0  0  0  0  0
    7.6650  -14.3702   24.2166 C   0  0  0  0  0  0  0  0  0  0  0  0
    7.9819  -13.5673   25.4074 C   0  0  0  0  0  0  0  0  0  0  0  0
    6.7494  -12.8197   25.8897 C   0  0  0  0  0  0  0  0  0  0  0  0
    7.1153  -11.9724   27.0708 N   0  0  0  0  0  0  0  0  0  0  0  0
    5.9281  -11.1888   27.4157 C   0  0  0  0  0  0  0  0  0  0  0  0
    9.4208  -16.0000   24.6857 O   0  0  0  0  0  0  0  0  0  0  0  0
    8.7366  -16.9895   25.0446 N   0  0  0  0  0  0  0  0  0  0  0  0
   13.8211  -15.7732   23.9575 C   0  0  0  0  0  0  0  0  0  0  0  0
   13.2171  -16.8926   24.5779 O   0  0  0  0  0  0  0  0  0  0  0  0
   13.0988  -17.9482   23.9382 C   0  0  0  0  0  0  0  0  0  0  0  0
   12.7478  -16.7765   25.9571 C   0  0  2  0  0  0  0  0  0  0  0  0
   11.2615  -16.7545   26.1487 N   0  0  0  0  0  0  0  0  0  0  0  0
   10.7104  -15.7393   25.2460 C   0  0  0  0  0  0  0  0  0  0  0  0
   10.8352  -16.3287   27.5071 O   0  0  0  0  0  0  0  0  0  0  0  0
   11.1654  -17.0685   28.6190 O   0  0  0  0  0  0  0  0  0  0  0  0
  2  1  1  0
  3  2  2  0
  4  2  1  0
  5  4  1  0
  6  5  1  0
  7  6  1  0
  8  7  1  0
  8  9  1  6
 10  8  1  0
 10 11  2  0
 12 10  1  0
 13 12  1  0
 13 14  1  1
 15 14  1  0
 16 17  1  0
 16 15  1  0
 18 17  1  0
 19 13  1  0
 20 19  2  0
 22 23  2  0
 22 21  1  0
 24 22  1  0
 25 24  1  6
 25 26  1  0
 26 19  1  0
 27 28  1  0
 27 25  1  0
 29 27  2  0
M  END
$$$$
