RKN.pdb
     RDKit          3D

 29 28  0  0  1  0  0  0  0  0999 V2000
    7.3260  -18.5390   14.5797 N   0  0  0  0  0  0  0  0  0  0  0  0
    6.6982  -18.5289   15.8458 C   0  0  0  0  0  0  0  0  0  0  0  0
    5.9119  -19.4992   16.1712 N   0  0  0  0  0  0  0  0  0  0  0  0
    6.8859  -17.4827   16.8129 N   0  0  0  0  0  0  0  0  0  0  0  0
    7.8795  -16.4800   16.6935 C   0  0  0  0  0  0  0  0  0  0  0  0
    9.0409  -16.6627   17.5938 C   0  0  0  0  0  0  0  0  0  0  0  0
    8.9582  -15.9657   18.8881 C   0  0  0  0  0  0  0  0  0  0  0  0
    8.9041  -16.8030   20.1226 C   0  0  2  0  0  0  0  0  0  0  0  0
    7.5599  -17.3371   20.2941 N   0  0  0  0  0  0  0  0  0  0  0  0
    9.2094  -15.9543   21.3268 C   0  0  0  0  0  0  0  0  0  0  0  0
   10.3563  -15.5010   21.4590 O   0  0  0  0  0  0  0  0  0  0  0  0
    5.5064  -19.6199   17.1124 N   0  0  0  0  0  0  0  0  0  0  0  0
    8.2054  -15.6899   22.2732 C   0  0  2  0  0  0  0  0  0  0  0  0
    8.5792  -14.9899   23.5074 C   0  0  0  0  0  0  0  0  0  0  0  0
    7.3452  -14.2924   24.0571 C   0  0  0  0  0  0  0  0  0  0  0  0
    7.6416  -13.5150   25.2698 C   0  0  0  0  0  0  0  0  0  0  0  0
    6.3860  -12.8296   25.7838 C   0  0  0  0  0  0  0  0  0  0  0  0
    6.7331  -11.9908   26.9766 N   0  0  0  0  0  0  0  0  0  0  0  0
    5.4963  -11.3416   27.4139 C   0  0  0  0  0  0  0  0  0  0  0  0
    9.1071  -15.9220   24.5031 O   0  0  0  0  0  0  0  0  0  0  0  0
    8.4456  -16.9490   24.7926 N   0  0  0  0  0  0  0  0  0  0  0  0
   13.5431  -16.1073   23.6546 C   0  0  0  0  0  0  0  0  0  0  0  0
   12.8702  -17.0691   24.4451 O   0  0  0  0  0  0  0  0  0  0  0  0
   12.6849  -18.2062   23.9869 C   0  0  0  0  0  0  0  0  0  0  0  0
   12.4104  -16.6980   25.7819 C   0  0  2  0  0  0  0  0  0  0  0  0
   10.9261  -16.6844   25.9890 N   0  0  0  0  0  0  0  0  0  0  0  0
   10.3646  -15.6424   25.1239 C   0  0  0  0  0  0  0  0  0  0  0  0
   10.5130  -16.3018   27.3642 O   0  0  0  0  0  0  0  0  0  0  0  0
    9.7134  -15.2044   27.5856 O   0  0  0  0  0  0  0  0  0  0  0  0
  2  1  1  0
  3  2  2  0
  4  2  1  0
  5  4  1  0
  6  5  1  0
  7  6  1  0
  8  7  1  0
  8  9  1  1
 10  8  1  0
 10 11  2  0
 12 10  1  0
 13 12  1  0
 13 14  1  6
 15 14  1  0
 16 17  1  0
 16 15  1  0
 18 17  1  0
 19 13  1  0
 20 19  2  0
 22 23  2  0
 22 21  1  0
 24 22  1  0
 25 24  1  6
 25 26  1  0
 26 19  1  0
 27 28  1  0
 27 25  1  0
 29 27  2  0
M  END
$$$$
