RKN.pdb
     RDKit          3D

 29 28  0  0  1  0  0  0  0  0999 V2000
    7.8809  -14.1814   13.0373 N   0  0  0  0  0  0  0  0  0  0  0  0
    8.3026  -14.0811   14.3825 C   0  0  0  0  0  0  0  0  0  0  0  0
    9.3160  -14.7729   14.7823 N   0  0  0  0  0  0  0  0  0  0  0  0
    7.6584  -13.2384   15.3520 N   0  0  0  0  0  0  0  0  0  0  0  0
    8.0857  -13.1317   16.6984 C   0  0  0  0  0  0  0  0  0  0  0  0
    7.9853  -14.3908   17.4713 C   0  0  0  0  0  0  0  0  0  0  0  0
    8.4487  -14.3190   18.8670 C   0  0  0  0  0  0  0  0  0  0  0  0
    8.3666  -15.5627   19.6882 C   0  0  2  0  0  0  0  0  0  0  0  0
    7.0072  -16.0844   19.6532 N   0  0  0  0  0  0  0  0  0  0  0  0
    8.6920  -15.2476   21.1229 C   0  0  0  0  0  0  0  0  0  0  0  0
    9.8208  -14.8109   21.3942 O   0  0  0  0  0  0  0  0  0  0  0  0
    9.6509  -14.7911   15.7582 N   0  0  0  0  0  0  0  0  0  0  0  0
    7.7266  -15.4492   22.1234 C   0  0  1  0  0  0  0  0  0  0  0  0
    8.0647  -15.0777   23.5020 C   0  0  0  0  0  0  0  0  0  0  0  0
    6.7766  -14.7557   24.2428 C   0  0  0  0  0  0  0  0  0  0  0  0
    7.0218  -14.3767   25.6425 C   0  0  0  0  0  0  0  0  0  0  0  0
    6.9064  -12.8709   25.8150 C   0  0  0  0  0  0  0  0  0  0  0  0
    7.1120  -12.5210   27.2580 N   0  0  0  0  0  0  0  0  0  0  0  0
    7.0046  -11.0649   27.3615 C   0  0  0  0  0  0  0  0  0  0  0  0
    8.7705  -16.1628   24.1825 O   0  0  0  0  0  0  0  0  0  0  0  0
    8.2628  -17.3109   24.1955 N   0  0  0  0  0  0  0  0  0  0  0  0
   14.3219  -18.1158   24.9986 C   0  0  0  0  0  0  0  0  0  0  0  0
   13.1301  -17.7900   25.6887 O   0  0  0  0  0  0  0  0  0  0  0  0
   12.8878  -18.3427   26.7719 C   0  0  0  0  0  0  0  0  0  0  0  0
   12.2145  -16.8104   25.1073 C   0  0  1  0  0  0  0  0  0  0  0  0
   10.7553  -17.0385   25.3623 N   0  0  0  0  0  0  0  0  0  0  0  0
   10.0227  -15.8913   24.8175 C   0  0  0  0  0  0  0  0  0  0  0  0
   10.3934  -17.0727   26.8032 O   0  0  0  0  0  0  0  0  0  0  0  0
   10.0205  -18.2478   27.4135 O   0  0  0  0  0  0  0  0  0  0  0  0
  2  1  1  0
  3  2  2  0
  4  2  1  0
  5  4  1  0
  6  5  1  0
  7  6  1  0
  8  7  1  0
  8  9  1  1
 10  8  1  0
 10 11  2  0
 12 10  1  0
 13 12  1  0
 13 14  1  1
 15 14  1  0
 16 17  1  0
 16 15  1  0
 18 17  1  0
 19 13  1  0
 20 19  2  0
 22 23  2  0
 22 21  1  0
 24 22  1  0
 25 24  1  6
 25 26  1  0
 26 19  1  0
 27 28  1  0
 27 25  1  0
 29 27  2  0
M  END
$$$$
