RKN.pdb
     RDKit          3D

 29 28  0  0  1  0  0  0  0  0999 V2000
    8.4169  -12.6190   17.9876 N   0  0  0  0  0  0  0  0  0  0  0  0
    8.9353  -13.2039   19.1651 C   0  0  0  0  0  0  0  0  0  0  0  0
   10.1947  -13.4765   19.2360 N   0  0  0  0  0  0  0  0  0  0  0  0
    8.1290  -13.5201   20.3117 N   0  0  0  0  0  0  0  0  0  0  0  0
    6.7163  -13.6167   20.2685 C   0  0  0  0  0  0  0  0  0  0  0  0
    6.1595  -14.7544   21.0356 C   0  0  0  0  0  0  0  0  0  0  0  0
    6.7330  -16.0739   20.7228 C   0  0  0  0  0  0  0  0  0  0  0  0
    6.2275  -17.2483   21.4929 C   0  0  2  0  0  0  0  0  0  0  0  0
    4.7753  -17.3083   21.3983 N   0  0  0  0  0  0  0  0  0  0  0  0
    6.5788  -17.0923   22.9475 C   0  0  0  0  0  0  0  0  0  0  0  0
    5.8942  -16.3292   23.6457 O   0  0  0  0  0  0  0  0  0  0  0  0
   10.6447  -13.9062   20.0592 N   0  0  0  0  0  0  0  0  0  0  0  0
    7.6628  -17.8031   23.4890 C   0  0  2  0  0  0  0  0  0  0  0  0
    8.0531  -17.5269   24.8763 C   0  0  0  0  0  0  0  0  0  0  0  0
    8.4676  -18.8361   25.5287 C   0  0  0  0  0  0  0  0  0  0  0  0
    7.3237  -19.7350   25.7440 C   0  0  0  0  0  0  0  0  0  0  0  0
    7.7871  -21.0538   26.3410 C   0  0  0  0  0  0  0  0  0  0  0  0
    6.5975  -21.9341   26.5795 N   0  0  0  0  0  0  0  0  0  0  0  0
    7.1025  -23.1877   27.1416 C   0  0  0  0  0  0  0  0  0  0  0  0
    9.1595  -16.5722   24.9327 O   0  0  0  0  0  0  0  0  0  0  0  0
   10.2798  -16.9046   24.4738 N   0  0  0  0  0  0  0  0  0  0  0  0
   11.0137  -14.2354   29.0842 C   0  0  0  0  0  0  0  0  0  0  0  0
    9.6464  -14.5983   29.1244 O   0  0  0  0  0  0  0  0  0  0  0  0
    9.0541  -14.6051   30.2136 C   0  0  0  0  0  0  0  0  0  0  0  0
    8.9668  -14.9561   27.8810 C   0  0  2  0  0  0  0  0  0  0  0  0
    9.7982  -14.9015   26.6352 N   0  0  0  0  0  0  0  0  0  0  0  0
    8.9400  -15.2821   25.5092 C   0  0  0  0  0  0  0  0  0  0  0  0
   10.9146  -15.8821   26.6123 O   0  0  0  0  0  0  0  0  0  0  0  0
   12.2244  -15.4681   26.6859 O   0  0  0  0  0  0  0  0  0  0  0  0
  2  1  1  0
  3  2  2  0
  4  2  1  0
  5  4  1  0
  6  5  1  0
  7  6  1  0
  8  7  1  0
  8  9  1  1
 10  8  1  0
 10 11  2  0
 12 10  1  0
 13 12  1  0
 13 14  1  6
 15 14  1  0
 16 17  1  0
 16 15  1  0
 18 17  1  0
 19 13  1  0
 20 19  2  0
 22 23  2  0
 22 21  1  0
 24 22  1  0
 25 24  1  6
 25 26  1  0
 26 19  1  0
 27 28  1  0
 27 25  1  0
 29 27  2  0
M  END
$$$$
