RKN.pdb
     RDKit          3D

 29 28  0  0  1  0  0  0  0  0999 V2000
    8.9206  -14.0211   15.0129 N   0  0  0  0  0  0  0  0  0  0  0  0
    7.5870  -13.5544   15.0443 C   0  0  0  0  0  0  0  0  0  0  0  0
    6.8509  -13.6673   13.9903 N   0  0  0  0  0  0  0  0  0  0  0  0
    6.9884  -12.9494   16.2022 N   0  0  0  0  0  0  0  0  0  0  0  0
    7.5664  -12.9993   17.4945 C   0  0  0  0  0  0  0  0  0  0  0  0
    8.2925  -14.2557   17.7893 C   0  0  0  0  0  0  0  0  0  0  0  0
    9.0016  -14.2929   19.0791 C   0  0  0  0  0  0  0  0  0  0  0  0
    9.6613  -15.5737   19.4694 C   0  0  2  0  0  0  0  0  0  0  0  0
    8.6477  -16.5683   19.7932 N   0  0  0  0  0  0  0  0  0  0  0  0
   10.4952  -15.3611   20.7035 C   0  0  0  0  0  0  0  0  0  0  0  0
   11.3731  -14.4852   20.6839 O   0  0  0  0  0  0  0  0  0  0  0  0
    5.9100  -13.2536   13.8989 N   0  0  0  0  0  0  0  0  0  0  0  0
   10.2722  -16.1468   21.8466 C   0  0  1  0  0  0  0  0  0  0  0  0
   11.2331  -16.0563   22.9517 C   0  0  0  0  0  0  0  0  0  0  0  0
   10.7150  -16.8952   24.1091 C   0  0  0  0  0  0  0  0  0  0  0  0
   11.6235  -16.8661   25.2653 C   0  0  0  0  0  0  0  0  0  0  0  0
   11.1161  -17.7845   26.3651 C   0  0  0  0  0  0  0  0  0  0  0  0
   12.1156  -17.8183   27.4817 N   0  0  0  0  0  0  0  0  0  0  0  0
   11.6053  -18.7591   28.4802 C   0  0  0  0  0  0  0  0  0  0  0  0
   12.5530  -16.5357   22.5433 O   0  0  0  0  0  0  0  0  0  0  0  0
   12.6723  -17.7078   22.1097 N   0  0  0  0  0  0  0  0  0  0  0  0
   14.2856  -13.3277   19.9123 C   0  0  0  0  0  0  0  0  0  0  0  0
   14.7981  -14.6396   20.0493 O   0  0  0  0  0  0  0  0  0  0  0  0
   14.6235  -15.4562   19.1328 C   0  0  0  0  0  0  0  0  0  0  0  0
   15.5203  -14.9993   21.2680 C   0  0  2  0  0  0  0  0  0  0  0  0
   14.9417  -16.1255   22.0698 N   0  0  0  0  0  0  0  0  0  0  0  0
   13.6776  -15.6585   22.6472 C   0  0  0  0  0  0  0  0  0  0  0  0
   15.7708  -16.5221   23.2376 O   0  0  0  0  0  0  0  0  0  0  0  0
   17.0123  -17.0893   23.0666 O   0  0  0  0  0  0  0  0  0  0  0  0
  2  1  1  0
  3  2  2  0
  4  2  1  0
  5  4  1  0
  6  5  1  0
  7  6  1  0
  8  7  1  0
  8  9  1  1
 10  8  1  0
 10 11  2  0
 12 10  1  0
 13 12  1  0
 13 14  1  1
 15 14  1  0
 16 17  1  0
 16 15  1  0
 18 17  1  0
 19 13  1  0
 20 19  2  0
 22 23  2  0
 22 21  1  0
 24 22  1  0
 25 24  1  6
 25 26  1  0
 26 19  1  0
 27 28  1  0
 27 25  1  0
 29 27  2  0
M  END
$$$$
