RKN.pdb
     RDKit          3D

 29 28  0  0  1  0  0  0  0  0999 V2000
    8.8090  -14.7861   15.6549 N   0  0  0  0  0  0  0  0  0  0  0  0
    7.6129  -14.0841   15.9264 C   0  0  0  0  0  0  0  0  0  0  0  0
    6.5467  -14.3653   15.2558 N   0  0  0  0  0  0  0  0  0  0  0  0
    7.5093  -13.0552   16.9243 N   0  0  0  0  0  0  0  0  0  0  0  0
    8.0747  -13.1649   18.2185 C   0  0  0  0  0  0  0  0  0  0  0  0
    7.1888  -13.8038   19.2185 C   0  0  0  0  0  0  0  0  0  0  0  0
    7.8003  -14.0720   20.5307 C   0  0  0  0  0  0  0  0  0  0  0  0
    8.4567  -15.3977   20.7303 C   0  0  2  0  0  0  0  0  0  0  0  0
    7.4580  -16.3864   21.1129 N   0  0  0  0  0  0  0  0  0  0  0  0
    9.4551  -15.3073   21.8522 C   0  0  0  0  0  0  0  0  0  0  0  0
   10.3558  -14.4578   21.7792 O   0  0  0  0  0  0  0  0  0  0  0  0
    5.6258  -13.9345   15.4326 N   0  0  0  0  0  0  0  0  0  0  0  0
    9.3559  -16.1746   22.9529 C   0  0  2  0  0  0  0  0  0  0  0  0
   10.4373  -16.1670   23.9447 C   0  0  0  0  0  0  0  0  0  0  0  0
   10.0455  -17.0869   25.0901 C   0  0  0  0  0  0  0  0  0  0  0  0
   11.0677  -17.1229   26.1468 C   0  0  0  0  0  0  0  0  0  0  0  0
   10.6678  -18.0979   27.2422 C   0  0  0  0  0  0  0  0  0  0  0  0
   11.7449  -18.1407   28.2839 N   0  0  0  0  0  0  0  0  0  0  0  0
   11.3301  -19.1261   29.2836 C   0  0  0  0  0  0  0  0  0  0  0  0
   11.6971  -16.6182   23.3547 O   0  0  0  0  0  0  0  0  0  0  0  0
   11.6914  -17.6040   22.5774 N   0  0  0  0  0  0  0  0  0  0  0  0
   16.1412  -14.2936   20.5030 C   0  0  0  0  0  0  0  0  0  0  0  0
   15.2588  -15.3528   20.8230 O   0  0  0  0  0  0  0  0  0  0  0  0
   15.3730  -16.4355   20.2297 C   0  0  0  0  0  0  0  0  0  0  0  0
   14.2349  -15.1438   21.8447 C   0  0  2  0  0  0  0  0  0  0  0  0
   14.0862  -16.2339   22.8625 N   0  0  0  0  0  0  0  0  0  0  0  0
   12.9064  -15.9262   23.6765 C   0  0  0  0  0  0  0  0  0  0  0  0
   15.2094  -16.3102   23.8325 O   0  0  0  0  0  0  0  0  0  0  0  0
   16.3926  -16.9287   23.5009 O   0  0  0  0  0  0  0  0  0  0  0  0
  2  1  1  0
  3  2  2  0
  4  2  1  0
  5  4  1  0
  6  5  1  0
  7  6  1  0
  8  7  1  0
  8  9  1  1
 10  8  1  0
 10 11  2  0
 12 10  1  0
 13 12  1  0
 13 14  1  1
 15 14  1  0
 16 17  1  0
 16 15  1  0
 18 17  1  0
 19 13  1  0
 20 19  2  0
 22 23  2  0
 22 21  1  0
 24 22  1  0
 25 24  1  6
 25 26  1  0
 26 19  1  0
 27 28  1  0
 27 25  1  0
 29 27  2  0
M  END
$$$$
