RKN.pdb
     RDKit          3D

 29 28  0  0  1  0  0  0  0  0999 V2000
   10.5020  -13.6043   20.1246 N   0  0  0  0  0  0  0  0  0  0  0  0
   10.0462  -12.8082   19.0494 C   0  0  0  0  0  0  0  0  0  0  0  0
   10.8924  -12.3815   18.1734 N   0  0  0  0  0  0  0  0  0  0  0  0
    8.6697  -12.4374   18.8685 N   0  0  0  0  0  0  0  0  0  0  0  0
    7.6633  -12.6811   19.8351 C   0  0  0  0  0  0  0  0  0  0  0  0
    7.1876  -14.0827   19.8797 C   0  0  0  0  0  0  0  0  0  0  0  0
    7.5387  -14.8352   21.0956 C   0  0  0  0  0  0  0  0  0  0  0  0
    7.0140  -16.2267   21.2238 C   0  0  2  0  0  0  0  0  0  0  0  0
    5.5591  -16.1984   21.2844 N   0  0  0  0  0  0  0  0  0  0  0  0
    7.5071  -16.8403   22.5060 C   0  0  0  0  0  0  0  0  0  0  0  0
    6.7994  -16.7469   23.5202 O   0  0  0  0  0  0  0  0  0  0  0  0
   10.6402  -11.7735   17.3788 N   0  0  0  0  0  0  0  0  0  0  0  0
    8.7460  -17.5019   22.5378 C   0  0  2  0  0  0  0  0  0  0  0  0
    9.1797  -18.1072   23.8021 C   0  0  0  0  0  0  0  0  0  0  0  0
   10.1001  -19.2750   23.4852 C   0  0  0  0  0  0  0  0  0  0  0  0
   10.5722  -19.9548   24.7009 C   0  0  0  0  0  0  0  0  0  0  0  0
   11.4954  -21.1079   24.3425 C   0  0  0  0  0  0  0  0  0  0  0  0
   11.9737  -21.7682   25.6004 N   0  0  0  0  0  0  0  0  0  0  0  0
   12.9163  -22.8137   25.1995 C   0  0  0  0  0  0  0  0  0  0  0  0
    9.8820  -17.1348   24.6387 O   0  0  0  0  0  0  0  0  0  0  0  0
   10.6915  -16.3378   24.1042 N   0  0  0  0  0  0  0  0  0  0  0  0
    9.8216  -13.3031   28.7307 C   0  0  0  0  0  0  0  0  0  0  0  0
    9.9632  -14.7024   28.8880 O   0  0  0  0  0  0  0  0  0  0  0  0
   10.5692  -15.1418   29.8764 C   0  0  0  0  0  0  0  0  0  0  0  0
    9.3918  -15.5945   27.8812 C   0  0  1  0  0  0  0  0  0  0  0  0
   10.3374  -16.0991   26.8337 N   0  0  0  0  0  0  0  0  0  0  0  0
    9.6307  -17.1139   26.0463 C   0  0  0  0  0  0  0  0  0  0  0  0
   11.5259  -16.8021   27.3830 O   0  0  0  0  0  0  0  0  0  0  0  0
   12.7293  -16.1521   27.5312 O   0  0  0  0  0  0  0  0  0  0  0  0
  2  1  1  0
  3  2  2  0
  4  2  1  0
  5  4  1  0
  6  5  1  0
  7  6  1  0
  8  7  1  0
  8  9  1  1
 10  8  1  0
 10 11  2  0
 12 10  1  0
 13 12  1  0
 13 14  1  6
 15 14  1  0
 16 17  1  0
 16 15  1  0
 18 17  1  0
 19 13  1  0
 20 19  2  0
 22 23  2  0
 22 21  1  0
 24 22  1  0
 25 24  1  6
 25 26  1  0
 26 19  1  0
 27 28  1  0
 27 25  1  0
 29 27  2  0
M  END
$$$$
