RKN.pdb
     RDKit          3D

 29 28  0  0  1  0  0  0  0  0999 V2000
    8.0562  -12.9434   20.4821 N   0  0  0  0  0  0  0  0  0  0  0  0
    8.0759  -12.8715   19.0708 C   0  0  0  0  0  0  0  0  0  0  0  0
    7.8322  -11.7451   18.4901 N   0  0  0  0  0  0  0  0  0  0  0  0
    8.3568  -13.9993   18.2257 N   0  0  0  0  0  0  0  0  0  0  0  0
    8.3449  -15.3394   18.6848 C   0  0  0  0  0  0  0  0  0  0  0  0
    9.0899  -15.5583   19.9457 C   0  0  0  0  0  0  0  0  0  0  0  0
    9.1365  -16.9502   20.4235 C   0  0  0  0  0  0  0  0  0  0  0  0
    9.8631  -17.2200   21.6991 C   0  0  2  0  0  0  0  0  0  0  0  0
    9.7640  -18.6349   22.0298 N   0  0  0  0  0  0  0  0  0  0  0  0
    9.2242  -16.4484   22.8217 C   0  0  0  0  0  0  0  0  0  0  0  0
    9.1175  -15.2176   22.7115 O   0  0  0  0  0  0  0  0  0  0  0  0
    7.7740  -11.6264   17.4667 N   0  0  0  0  0  0  0  0  0  0  0  0
    8.7631  -17.1226   23.9647 C   0  0  1  0  0  0  0  0  0  0  0  0
    8.0459  -16.3509   24.9860 C   0  0  0  0  0  0  0  0  0  0  0  0
    6.9439  -17.2250   25.5632 C   0  0  0  0  0  0  0  0  0  0  0  0
    7.3725  -18.6225   25.7257 C   0  0  0  0  0  0  0  0  0  0  0  0
    6.2204  -19.4786   26.2259 C   0  0  0  0  0  0  0  0  0  0  0  0
    6.7000  -20.8843   26.4282 N   0  0  0  0  0  0  0  0  0  0  0  0
    5.5613  -21.6533   26.9325 C   0  0  0  0  0  0  0  0  0  0  0  0
    8.9488  -15.9216   26.0533 O   0  0  0  0  0  0  0  0  0  0  0  0
    8.5699  -15.0348   26.8570 N   0  0  0  0  0  0  0  0  0  0  0  0
   10.3466  -13.8859   28.8790 C   0  0  0  0  0  0  0  0  0  0  0  0
   10.1079  -15.1837   29.3904 O   0  0  0  0  0  0  0  0  0  0  0  0
    9.6816  -15.3090   30.5479 C   0  0  0  0  0  0  0  0  0  0  0  0
   10.3700  -16.3440   28.5412 C   0  0  2  0  0  0  0  0  0  0  0  0
   11.0982  -16.0728   27.2597 N   0  0  0  0  0  0  0  0  0  0  0  0
   10.2427  -16.5217   26.1569 C   0  0  0  0  0  0  0  0  0  0  0  0
   12.3567  -16.8481   27.1059 O   0  0  0  0  0  0  0  0  0  0  0  0
   13.5841  -16.2476   27.2653 O   0  0  0  0  0  0  0  0  0  0  0  0
  2  1  1  0
  3  2  2  0
  4  2  1  0
  5  4  1  0
  6  5  1  0
  7  6  1  0
  8  7  1  0
  8  9  1  1
 10  8  1  0
 10 11  2  0
 12 10  1  0
 13 12  1  0
 13 14  1  1
 15 14  1  0
 16 17  1  0
 16 15  1  0
 18 17  1  0
 19 13  1  0
 20 19  2  0
 22 23  2  0
 22 21  1  0
 24 22  1  0
 25 24  1  6
 25 26  1  0
 26 19  1  0
 27 28  1  0
 27 25  1  0
 29 27  2  0
M  END
$$$$
