RKN.pdb
     RDKit          3D

 29 28  0  0  1  0  0  0  0  0999 V2000
    8.8053  -13.8523   15.5878 N   0  0  0  0  0  0  0  0  0  0  0  0
    7.6928  -13.1729   16.1339 C   0  0  0  0  0  0  0  0  0  0  0  0
    6.8102  -12.6632   15.3423 N   0  0  0  0  0  0  0  0  0  0  0  0
    7.4803  -13.0117   17.5459 N   0  0  0  0  0  0  0  0  0  0  0  0
    8.3152  -13.5937   18.5313 C   0  0  0  0  0  0  0  0  0  0  0  0
    7.7773  -14.8372   19.1289 C   0  0  0  0  0  0  0  0  0  0  0  0
    7.7805  -14.8889   20.6003 C   0  0  0  0  0  0  0  0  0  0  0  0
    8.9577  -15.5186   21.2680 C   0  0  2  0  0  0  0  0  0  0  0  0
    9.3958  -16.6758   20.4998 N   0  0  0  0  0  0  0  0  0  0  0  0
    8.5656  -16.0073   22.6359 C   0  0  0  0  0  0  0  0  0  0  0  0
    8.0664  -15.2004   23.4347 O   0  0  0  0  0  0  0  0  0  0  0  0
    5.9833  -12.1371   15.6653 N   0  0  0  0  0  0  0  0  0  0  0  0
    8.7672  -17.3527   22.9862 C   0  0  1  0  0  0  0  0  0  0  0  0
    8.5208  -17.7547   24.3757 C   0  0  0  0  0  0  0  0  0  0  0  0
    8.6134  -19.2698   24.4615 C   0  0  0  0  0  0  0  0  0  0  0  0
    7.3054  -19.9165   24.2774 C   0  0  0  0  0  0  0  0  0  0  0  0
    7.4493  -21.4293   24.3113 C   0  0  0  0  0  0  0  0  0  0  0  0
    6.1078  -22.0592   24.0863 N   0  0  0  0  0  0  0  0  0  0  0  0
    6.2947  -23.5068   24.1942 C   0  0  0  0  0  0  0  0  0  0  0  0
    9.4946  -17.1460   25.2813 O   0  0  0  0  0  0  0  0  0  0  0  0
   10.6707  -16.9617   24.8825 N   0  0  0  0  0  0  0  0  0  0  0  0
   10.6670  -13.0658   29.0416 C   0  0  0  0  0  0  0  0  0  0  0  0
   10.2129  -14.3892   29.2543 O   0  0  0  0  0  0  0  0  0  0  0  0
   10.5036  -14.9657   30.3128 C   0  0  0  0  0  0  0  0  0  0  0  0
    9.4127  -15.0433   28.2209 C   0  0  1  0  0  0  0  0  0  0  0  0
   10.0915  -16.1384   27.4553 N   0  0  0  0  0  0  0  0  0  0  0  0
    9.0850  -16.7748   26.6001 C   0  0  0  0  0  0  0  0  0  0  0  0
   10.6150  -17.2359   28.3096 O   0  0  0  0  0  0  0  0  0  0  0  0
   11.8394  -17.1315   28.9279 O   0  0  0  0  0  0  0  0  0  0  0  0
  2  1  1  0
  3  2  2  0
  4  2  1  0
  5  4  1  0
  6  5  1  0
  7  6  1  0
  8  7  1  0
  8  9  1  6
 10  8  1  0
 10 11  2  0
 12 10  1  0
 13 12  1  0
 13 14  1  1
 15 14  1  0
 16 17  1  0
 16 15  1  0
 18 17  1  0
 19 13  1  0
 20 19  2  0
 22 23  2  0
 22 21  1  0
 24 22  1  0
 25 24  1  6
 25 26  1  0
 26 19  1  0
 27 28  1  0
 27 25  1  0
 29 27  2  0
M  END
$$$$
