EHS.pdb
     RDKit          3D

 26 26  0  0  1  0  0  0  0  0999 V2000
    9.9170  -19.0466   17.8009 N   0  0  0  0  0  0  0  0  0  0  0  0
   10.9354  -18.0296   17.8260 C   0  0  1  0  0  0  0  0  0  0  0  0
   10.7649  -17.2328   16.5593 C   0  0  0  0  0  0  0  0  0  0  0  0
    9.8941  -17.8336   15.5244 C   0  0  0  0  0  0  0  0  0  0  0  0
    9.7560  -16.9929   14.3304 C   0  0  0  0  0  0  0  0  0  0  0  0
    8.7025  -16.8423   13.6685 O   0  0  0  0  0  0  0  0  0  0  0  0
   10.9072  -17.1606   18.9862 C   0  0  0  0  0  0  0  0  0  0  0  0
   11.7647  -16.2492   19.0949 O   0  0  0  0  0  0  0  0  0  0  0  0
   10.8718  -16.2736   13.8463 O   0  0  0  0  0  0  0  0  0  0  0  0
    9.9597  -17.2532   20.0498 N   0  0  0  0  0  0  0  0  0  0  0  0
    9.9724  -16.3928   21.2106 C   0  0  1  0  0  0  0  0  0  0  0  0
    8.6164  -15.7727   21.4657 C   0  0  0  0  0  0  0  0  0  0  0  0
    8.2062  -14.8197   20.4276 C   0  0  0  0  0  0  0  0  0  0  0  0
    7.5412  -15.0938   19.2544 C   0  0  0  0  0  0  0  0  0  0  0  0
    7.3491  -13.9304   18.5684 N   0  0  0  0  0  0  0  0  0  0  0  0
    7.8886  -12.9454   19.3072 C   0  0  0  0  0  0  0  0  0  0  0  0
    8.4033  -13.4891   20.4266 N   0  0  0  0  0  0  0  0  0  0  0  0
   10.4945  -17.1602   22.3686 C   0  0  0  0  0  0  0  0  0  0  0  0
   10.0145  -18.2881   22.6685 O   0  0  0  0  0  0  0  0  0  0  0  0
   13.7402  -15.7873   24.2672 O   0  0  0  0  0  0  0  0  0  0  0  0
   13.5343  -17.1407   24.4174 C   0  0  0  0  0  0  0  0  0  0  0  0
   12.0367  -17.4779   24.3319 C   0  0  2  0  0  0  0  0  0  0  0  0
   11.5521  -16.6858   23.2028 N   0  0  0  0  0  0  0  0  0  0  0  0
   11.4299  -16.9849   25.5676 C   0  0  0  0  0  0  0  0  0  0  0  0
   11.6844  -17.5691   26.7988 O   0  0  0  0  0  0  0  0  0  0  0  0
   10.6513  -16.0024   25.5309 O   0  0  0  0  0  0  0  0  0  0  0  0
  2  1  1  1
  2  7  1  0
  3  2  1  0
  4  3  1  0
  4  5  1  0
  5  6  2  0
  7  8  2  0
  9  5  1  0
 10  7  1  0
 10 11  1  0
 11 12  1  1
 12 13  1  0
 13 17  1  0
 13 14  2  0
 14 15  1  0
 16 15  1  0
 17 16  2  0
 18 11  1  0
 18 19  2  0
 20 21  1  0
 22 21  1  1
 22 23  1  0
 23 18  1  0
 24 22  1  0
 24 25  1  0
 26 24  2  0
M  END
$$$$
