EHS.pdb
     RDKit          3D

 26 26  0  0  1  0  0  0  0  0999 V2000
   14.7342  -13.6879   17.4391 N   0  0  0  0  0  0  0  0  0  0  0  0
   14.0656  -14.9190   17.7693 C   0  0  1  0  0  0  0  0  0  0  0  0
   15.1356  -15.9779   17.8201 C   0  0  0  0  0  0  0  0  0  0  0  0
   16.0363  -16.0502   16.6481 C   0  0  0  0  0  0  0  0  0  0  0  0
   17.0322  -17.1218   16.7536 C   0  0  0  0  0  0  0  0  0  0  0  0
   18.1030  -17.0542   17.4012 O   0  0  0  0  0  0  0  0  0  0  0  0
   13.3090  -14.8947   19.0058 C   0  0  0  0  0  0  0  0  0  0  0  0
   13.7635  -14.2674   19.9945 O   0  0  0  0  0  0  0  0  0  0  0  0
   16.8139  -18.3499   16.0898 O   0  0  0  0  0  0  0  0  0  0  0  0
   12.0523  -15.5422   19.2041 N   0  0  0  0  0  0  0  0  0  0  0  0
   11.2952  -15.4617   20.4322 C   0  0  1  0  0  0  0  0  0  0  0  0
    9.8080  -15.5867   20.1849 C   0  0  0  0  0  0  0  0  0  0  0  0
    9.2214  -14.4026   19.5462 C   0  0  0  0  0  0  0  0  0  0  0  0
    9.8394  -13.2027   19.2781 C   0  0  0  0  0  0  0  0  0  0  0  0
    8.9460  -12.3655   18.6763 N   0  0  0  0  0  0  0  0  0  0  0  0
    7.7867  -13.0380   18.5720 C   0  0  0  0  0  0  0  0  0  0  0  0
    7.9604  -14.2653   19.0985 N   0  0  0  0  0  0  0  0  0  0  0  0
   11.8193  -16.4727   21.3838 C   0  0  0  0  0  0  0  0  0  0  0  0
   12.0827  -17.6466   21.0028 O   0  0  0  0  0  0  0  0  0  0  0  0
   13.9300  -15.4777   24.2676 O   0  0  0  0  0  0  0  0  0  0  0  0
   13.8095  -16.8486   24.2157 C   0  0  0  0  0  0  0  0  0  0  0  0
   12.4198  -17.2555   23.6991 C   0  0  2  0  0  0  0  0  0  0  0  0
   12.0567  -16.1922   22.7638 N   0  0  0  0  0  0  0  0  0  0  0  0
   11.5214  -17.2163   24.8522 C   0  0  0  0  0  0  0  0  0  0  0  0
   11.6959  -18.0421   25.9519 O   0  0  0  0  0  0  0  0  0  0  0  0
   10.5562  -16.4156   24.8635 O   0  0  0  0  0  0  0  0  0  0  0  0
  2  1  1  1
  2  7  1  0
  3  2  1  0
  4  3  1  0
  4  5  1  0
  5  6  2  0
  7  8  2  0
  9  5  1  0
 10  7  1  0
 10 11  1  0
 11 12  1  6
 12 13  1  0
 13 17  1  0
 13 14  2  0
 14 15  1  0
 16 15  1  0
 17 16  2  0
 18 11  1  0
 18 19  2  0
 20 21  1  0
 22 21  1  1
 22 23  1  0
 23 18  1  0
 24 22  1  0
 24 25  1  0
 26 24  2  0
M  END
$$$$
