EHS.pdb
     RDKit          3D

 26 26  0  0  1  0  0  0  0  0999 V2000
   14.2575  -13.9767   16.9943 N   0  0  0  0  0  0  0  0  0  0  0  0
   13.8613  -15.0581   17.8576 C   0  0  1  0  0  0  0  0  0  0  0  0
   15.1197  -15.5432   18.5283 C   0  0  0  0  0  0  0  0  0  0  0  0
   15.5863  -14.7507   19.6879 C   0  0  0  0  0  0  0  0  0  0  0  0
   16.8075  -15.2880   20.2973 C   0  0  0  0  0  0  0  0  0  0  0  0
   16.8602  -15.9187   21.3790 O   0  0  0  0  0  0  0  0  0  0  0  0
   12.8528  -14.7198   18.8428 C   0  0  0  0  0  0  0  0  0  0  0  0
   12.9791  -13.6684   19.5183 O   0  0  0  0  0  0  0  0  0  0  0  0
   18.0516  -15.1066   19.6522 O   0  0  0  0  0  0  0  0  0  0  0  0
   11.6918  -15.5023   19.1209 N   0  0  0  0  0  0  0  0  0  0  0  0
   10.6684  -15.1097   20.0625 C   0  0  1  0  0  0  0  0  0  0  0  0
    9.2898  -15.5279   19.6013 C   0  0  0  0  0  0  0  0  0  0  0  0
    8.8391  -14.8228   18.3955 C   0  0  0  0  0  0  0  0  0  0  0  0
    8.6690  -13.4670   18.2324 C   0  0  0  0  0  0  0  0  0  0  0  0
    8.2376  -13.2214   16.9617 N   0  0  0  0  0  0  0  0  0  0  0  0
    8.1410  -14.4110   16.3431 C   0  0  0  0  0  0  0  0  0  0  0  0
    8.5053  -15.3717   17.2137 N   0  0  0  0  0  0  0  0  0  0  0  0
   11.0245  -15.6375   21.4030 C   0  0  0  0  0  0  0  0  0  0  0  0
   11.8040  -16.6224   21.5258 O   0  0  0  0  0  0  0  0  0  0  0  0
    8.7047  -14.6866   24.4513 O   0  0  0  0  0  0  0  0  0  0  0  0
    9.9864  -14.8798   24.9163 C   0  0  0  0  0  0  0  0  0  0  0  0
   10.8152  -15.6952   23.9103 C   0  0  2  0  0  0  0  0  0  0  0  0
   10.5217  -15.0793   22.6174 N   0  0  0  0  0  0  0  0  0  0  0  0
   10.2762  -17.0543   23.9349 C   0  0  0  0  0  0  0  0  0  0  0  0
    9.5218  -17.5679   22.8914 O   0  0  0  0  0  0  0  0  0  0  0  0
   10.4939  -17.7934   24.9245 O   0  0  0  0  0  0  0  0  0  0  0  0
  2  1  1  1
  2  7  1  0
  3  2  1  0
  4  3  1  0
  4  5  1  0
  5  6  2  0
  7  8  2  0
  9  5  1  0
 10  7  1  0
 10 11  1  0
 11 12  1  6
 12 13  1  0
 13 17  1  0
 13 14  2  0
 14 15  1  0
 16 15  1  0
 17 16  2  0
 18 11  1  0
 18 19  2  0
 20 21  1  0
 22 21  1  1
 22 23  1  0
 23 18  1  0
 24 22  1  0
 24 25  1  0
 26 24  2  0
M  END
$$$$
