EHS.pdb
     RDKit          3D

 26 26  0  0  1  0  0  0  0  0999 V2000
   11.3722  -17.6493   16.4004 N   0  0  0  0  0  0  0  0  0  0  0  0
   10.8675  -18.2882   17.5874 C   0  0  1  0  0  0  0  0  0  0  0  0
   11.6582  -19.5600   17.7487 C   0  0  0  0  0  0  0  0  0  0  0  0
   13.1266  -19.4354   17.6125 C   0  0  0  0  0  0  0  0  0  0  0  0
   13.8289  -20.7137   17.7675 C   0  0  0  0  0  0  0  0  0  0  0  0
   13.8349  -21.6434   16.9272 O   0  0  0  0  0  0  0  0  0  0  0  0
   10.9354  -17.4858   18.7931 C   0  0  0  0  0  0  0  0  0  0  0  0
   12.0024  -16.8863   19.0755 O   0  0  0  0  0  0  0  0  0  0  0  0
   14.5735  -20.9669   18.9415 O   0  0  0  0  0  0  0  0  0  0  0  0
    9.8610  -17.3121   19.7168 N   0  0  0  0  0  0  0  0  0  0  0  0
    9.9568  -16.5095   20.9145 C   0  0  1  0  0  0  0  0  0  0  0  0
    8.6258  -15.8948   21.2873 C   0  0  0  0  0  0  0  0  0  0  0  0
    8.2278  -14.7883   20.4091 C   0  0  0  0  0  0  0  0  0  0  0  0
    8.9436  -14.2484   19.3651 C   0  0  0  0  0  0  0  0  0  0  0  0
    8.2202  -13.2366   18.8046 N   0  0  0  0  0  0  0  0  0  0  0  0
    7.0687  -13.1494   19.4927 C   0  0  0  0  0  0  0  0  0  0  0  0
    7.0804  -14.0880   20.4583 N   0  0  0  0  0  0  0  0  0  0  0  0
   10.5461  -17.3355   21.9974 C   0  0  0  0  0  0  0  0  0  0  0  0
   10.1671  -18.5245   22.1852 O   0  0  0  0  0  0  0  0  0  0  0  0
   13.8011  -15.9816   23.8423 O   0  0  0  0  0  0  0  0  0  0  0  0
   13.6350  -17.3470   23.9095 C   0  0  0  0  0  0  0  0  0  0  0  0
   12.1425  -17.7164   23.9054 C   0  0  2  0  0  0  0  0  0  0  0  0
   11.5597  -16.8527   22.8800 N   0  0  0  0  0  0  0  0  0  0  0  0
   11.6181  -17.3365   25.2165 C   0  0  0  0  0  0  0  0  0  0  0  0
   12.0550  -17.9357   26.3878 O   0  0  0  0  0  0  0  0  0  0  0  0
   10.7441  -16.4412   25.3027 O   0  0  0  0  0  0  0  0  0  0  0  0
  2  1  1  6
  2  7  1  0
  3  2  1  0
  4  3  1  0
  4  5  1  0
  5  6  2  0
  7  8  2  0
  9  5  1  0
 10  7  1  0
 10 11  1  0
 11 12  1  1
 12 13  1  0
 13 17  1  0
 13 14  2  0
 14 15  1  0
 16 15  1  0
 17 16  2  0
 18 11  1  0
 18 19  2  0
 20 21  1  0
 22 21  1  1
 22 23  1  0
 23 18  1  0
 24 22  1  0
 24 25  1  0
 26 24  2  0
M  END
$$$$
