EHS.pdb
     RDKit          3D

 26 26  0  0  1  0  0  0  0  0999 V2000
   13.8756  -13.9900   17.0281 N   0  0  0  0  0  0  0  0  0  0  0  0
   13.5295  -15.1092   17.8645 C   0  0  1  0  0  0  0  0  0  0  0  0
   14.8322  -15.7009   18.3351 C   0  0  0  0  0  0  0  0  0  0  0  0
   15.8000  -14.7532   18.9315 C   0  0  0  0  0  0  0  0  0  0  0  0
   17.0614  -15.3905   19.3238 C   0  0  0  0  0  0  0  0  0  0  0  0
   17.2780  -15.9520   20.4231 O   0  0  0  0  0  0  0  0  0  0  0  0
   12.6734  -14.7926   18.9910 C   0  0  0  0  0  0  0  0  0  0  0  0
   12.8219  -13.6987   19.5901 O   0  0  0  0  0  0  0  0  0  0  0  0
   18.1519  -15.3992   18.4252 O   0  0  0  0  0  0  0  0  0  0  0  0
   11.6433  -15.6429   19.4947 N   0  0  0  0  0  0  0  0  0  0  0  0
   10.7618  -15.2765   20.5794 C   0  0  1  0  0  0  0  0  0  0  0  0
    9.3227  -15.6331   20.2792 C   0  0  0  0  0  0  0  0  0  0  0  0
    8.7053  -14.7658   19.2689 C   0  0  0  0  0  0  0  0  0  0  0  0
    8.3285  -15.1063   17.9900 C   0  0  0  0  0  0  0  0  0  0  0  0
    7.7933  -14.0117   17.3763 N   0  0  0  0  0  0  0  0  0  0  0  0
    7.8374  -13.0033   18.2641 C   0  0  0  0  0  0  0  0  0  0  0  0
    8.3884  -13.4654   19.4027 N   0  0  0  0  0  0  0  0  0  0  0  0
   11.2686  -15.8863   21.8338 C   0  0  0  0  0  0  0  0  0  0  0  0
   12.1504  -16.7887   21.8059 O   0  0  0  0  0  0  0  0  0  0  0  0
    9.2962  -15.1580   25.2144 O   0  0  0  0  0  0  0  0  0  0  0  0
   10.6231  -15.4045   25.4883 C   0  0  0  0  0  0  0  0  0  0  0  0
   11.2851  -16.1747   24.3339 C   0  0  2  0  0  0  0  0  0  0  0  0
   10.8044  -15.5018   23.1284 N   0  0  0  0  0  0  0  0  0  0  0  0
   10.7465  -17.5334   24.3798 C   0  0  0  0  0  0  0  0  0  0  0  0
   11.1884  -18.4716   25.2998 O   0  0  0  0  0  0  0  0  0  0  0  0
    9.8551  -17.8783   23.5678 O   0  0  0  0  0  0  0  0  0  0  0  0
  2  1  1  1
  2  7  1  0
  3  2  1  0
  4  3  1  0
  4  5  1  0
  5  6  2  0
  7  8  2  0
  9  5  1  0
 10  7  1  0
 10 11  1  0
 11 12  1  6
 12 13  1  0
 13 17  1  0
 13 14  2  0
 14 15  1  0
 16 15  1  0
 17 16  2  0
 18 11  1  0
 18 19  2  0
 20 21  1  0
 22 21  1  1
 22 23  1  0
 23 18  1  0
 24 22  1  0
 24 25  1  0
 26 24  2  0
M  END
$$$$
