EHS.pdb
     RDKit          3D

 26 26  0  0  1  0  0  0  0  0999 V2000
    9.5004  -17.0529   16.5033 N   0  0  0  0  0  0  0  0  0  0  0  0
    9.3439  -17.7347   17.7612 C   0  0  1  0  0  0  0  0  0  0  0  0
   10.1110  -19.0251   17.6382 C   0  0  0  0  0  0  0  0  0  0  0  0
    9.9919  -19.9643   18.7758 C   0  0  0  0  0  0  0  0  0  0  0  0
   10.8239  -21.1623   18.6216 C   0  0  0  0  0  0  0  0  0  0  0  0
   10.3925  -22.3294   18.4715 O   0  0  0  0  0  0  0  0  0  0  0  0
    9.7813  -16.9869   18.9238 C   0  0  0  0  0  0  0  0  0  0  0  0
   10.8122  -16.2735   18.8460 O   0  0  0  0  0  0  0  0  0  0  0  0
   12.2320  -21.0450   18.6367 O   0  0  0  0  0  0  0  0  0  0  0  0
    9.1217  -16.9908   20.1897 N   0  0  0  0  0  0  0  0  0  0  0  0
    9.5001  -16.1372   21.2923 C   0  0  1  0  0  0  0  0  0  0  0  0
    8.4516  -15.0837   21.5733 C   0  0  0  0  0  0  0  0  0  0  0  0
    8.2321  -14.1648   20.4501 C   0  0  0  0  0  0  0  0  0  0  0  0
    8.9434  -13.0262   20.1481 C   0  0  0  0  0  0  0  0  0  0  0  0
    8.4199  -12.4585   19.0234 N   0  0  0  0  0  0  0  0  0  0  0  0
    7.3955  -13.2359   18.6317 C   0  0  0  0  0  0  0  0  0  0  0  0
    7.2883  -14.2625   19.4966 N   0  0  0  0  0  0  0  0  0  0  0  0
    9.8099  -16.9861   22.4695 C   0  0  0  0  0  0  0  0  0  0  0  0
    9.0293  -17.9120   22.8245 O   0  0  0  0  0  0  0  0  0  0  0  0
   13.4220  -16.6238   24.2173 O   0  0  0  0  0  0  0  0  0  0  0  0
   12.8320  -17.8643   24.3143 C   0  0  0  0  0  0  0  0  0  0  0  0
   11.3002  -17.7390   24.3526 C   0  0  2  0  0  0  0  0  0  0  0  0
   10.9858  -16.8176   23.2620 N   0  0  0  0  0  0  0  0  0  0  0  0
   10.9678  -17.1110   25.6306 C   0  0  0  0  0  0  0  0  0  0  0  0
   10.3646  -15.8650   25.7058 O   0  0  0  0  0  0  0  0  0  0  0  0
   11.2299  -17.7048   26.7038 O   0  0  0  0  0  0  0  0  0  0  0  0
  2  1  1  6
  2  7  1  0
  3  2  1  0
  4  3  1  0
  4  5  1  0
  5  6  2  0
  7  8  2  0
  9  5  1  0
 10  7  1  0
 10 11  1  0
 11 12  1  1
 12 13  1  0
 13 17  1  0
 13 14  2  0
 14 15  1  0
 16 15  1  0
 17 16  2  0
 18 11  1  0
 18 19  2  0
 20 21  1  0
 22 21  1  1
 22 23  1  0
 23 18  1  0
 24 22  1  0
 24 25  1  0
 26 24  2  0
M  END
$$$$
