EHS.pdb
     RDKit          3D

 26 26  0  0  1  0  0  0  0  0999 V2000
    9.9189  -18.7606   19.2968 N   0  0  0  0  0  0  0  0  0  0  0  0
   11.0294  -17.9622   19.7455 C   0  0  1  0  0  0  0  0  0  0  0  0
   11.5763  -17.2769   18.5208 C   0  0  0  0  0  0  0  0  0  0  0  0
   10.6770  -17.2270   17.3464 C   0  0  0  0  0  0  0  0  0  0  0  0
   11.3395  -17.6195   16.0980 C   0  0  0  0  0  0  0  0  0  0  0  0
   11.3451  -16.9491   15.0392 O   0  0  0  0  0  0  0  0  0  0  0  0
   10.7125  -16.9935   20.7767 C   0  0  0  0  0  0  0  0  0  0  0  0
   11.6232  -16.2589   21.2334 O   0  0  0  0  0  0  0  0  0  0  0  0
   12.0420  -18.8438   16.0318 O   0  0  0  0  0  0  0  0  0  0  0  0
    9.4143  -16.7955   21.3362 N   0  0  0  0  0  0  0  0  0  0  0  0
    9.1268  -15.8263   22.3687 C   0  0  1  0  0  0  0  0  0  0  0  0
    7.9040  -14.9991   22.0385 C   0  0  0  0  0  0  0  0  0  0  0  0
    8.0357  -14.2349   20.7924 C   0  0  0  0  0  0  0  0  0  0  0  0
    7.3828  -14.4556   19.6014 C   0  0  0  0  0  0  0  0  0  0  0  0
    7.7860  -13.5221   18.6920 N   0  0  0  0  0  0  0  0  0  0  0  0
    8.6790  -12.7309   19.3114 C   0  0  0  0  0  0  0  0  0  0  0  0
    8.8244  -13.1667   20.5773 N   0  0  0  0  0  0  0  0  0  0  0  0
    9.0251  -16.5310   23.6707 C   0  0  0  0  0  0  0  0  0  0  0  0
    8.1197  -17.3858   23.8763 O   0  0  0  0  0  0  0  0  0  0  0  0
   11.5487  -18.4632   25.1064 O   0  0  0  0  0  0  0  0  0  0  0  0
   10.2699  -18.4749   25.6173 C   0  0  0  0  0  0  0  0  0  0  0  0
    9.8217  -17.0548   25.9998 C   0  0  2  0  0  0  0  0  0  0  0  0
    9.9247  -16.2960   24.7546 N   0  0  0  0  0  0  0  0  0  0  0  0
   10.8064  -16.5535   26.9576 C   0  0  0  0  0  0  0  0  0  0  0  0
   10.9069  -17.0578   28.2449 O   0  0  0  0  0  0  0  0  0  0  0  0
   11.5938  -15.6374   26.6201 O   0  0  0  0  0  0  0  0  0  0  0  0
  2  1  1  6
  2  7  1  0
  3  2  1  0
  4  3  1  0
  4  5  1  0
  5  6  2  0
  7  8  2  0
  9  5  1  0
 10  7  1  0
 10 11  1  0
 11 12  1  6
 12 13  1  0
 13 17  1  0
 13 14  2  0
 14 15  1  0
 16 15  1  0
 17 16  2  0
 18 11  1  0
 18 19  2  0
 20 21  1  0
 22 21  1  6
 22 23  1  0
 23 18  1  0
 24 22  1  0
 24 25  1  0
 26 24  2  0
M  END
$$$$
