EHS.pdb
     RDKit          3D

 26 26  0  0  1  0  0  0  0  0999 V2000
   11.3406  -18.6234   15.4100 N   0  0  0  0  0  0  0  0  0  0  0  0
   10.2057  -18.7241   16.2895 C   0  0  1  0  0  0  0  0  0  0  0  0
   10.2524  -20.1093   16.8792 C   0  0  0  0  0  0  0  0  0  0  0  0
   11.5904  -20.6047   17.2723 C   0  0  0  0  0  0  0  0  0  0  0  0
   11.5533  -21.9379   17.8826 C   0  0  0  0  0  0  0  0  0  0  0  0
   11.4086  -23.0158   17.2599 O   0  0  0  0  0  0  0  0  0  0  0  0
   10.1491  -17.7227   17.3365 C   0  0  0  0  0  0  0  0  0  0  0  0
   11.1600  -17.0137   17.5669 O   0  0  0  0  0  0  0  0  0  0  0  0
   11.6873  -22.0722   19.2829 O   0  0  0  0  0  0  0  0  0  0  0  0
    9.0083  -17.4639   18.1546 N   0  0  0  0  0  0  0  0  0  0  0  0
    8.9576  -16.4176   19.1499 C   0  0  1  0  0  0  0  0  0  0  0  0
    7.5469  -15.9170   19.3679 C   0  0  0  0  0  0  0  0  0  0  0  0
    7.4724  -14.7507   20.2558 C   0  0  0  0  0  0  0  0  0  0  0  0
    6.9834  -14.7065   21.5413 C   0  0  0  0  0  0  0  0  0  0  0  0
    7.0943  -13.4327   22.0171 N   0  0  0  0  0  0  0  0  0  0  0  0
    7.6458  -12.6947   21.0382 C   0  0  0  0  0  0  0  0  0  0  0  0
    7.8709  -13.4961   19.9795 N   0  0  0  0  0  0  0  0  0  0  0  0
    9.6054  -16.9077   20.3919 C   0  0  0  0  0  0  0  0  0  0  0  0
    9.6746  -18.1424   20.6433 O   0  0  0  0  0  0  0  0  0  0  0  0
   13.2152  -16.5828   23.2386 O   0  0  0  0  0  0  0  0  0  0  0  0
   12.3808  -16.1308   22.2406 C   0  0  0  0  0  0  0  0  0  0  0  0
   10.9294  -16.5640   22.5044 C   0  0  2  0  0  0  0  0  0  0  0  0
   10.1821  -16.0355   21.3645 N   0  0  0  0  0  0  0  0  0  0  0  0
   10.5070  -15.8763   23.7238 C   0  0  0  0  0  0  0  0  0  0  0  0
   10.9520  -16.2601   24.9793 O   0  0  0  0  0  0  0  0  0  0  0  0
    9.7166  -14.9053   23.6498 O   0  0  0  0  0  0  0  0  0  0  0  0
  2  1  1  1
  2  7  1  0
  3  2  1  0
  4  3  1  0
  4  5  1  0
  5  6  2  0
  7  8  2  0
  9  5  1  0
 10  7  1  0
 10 11  1  0
 11 12  1  1
 12 13  1  0
 13 17  1  0
 13 14  2  0
 14 15  1  0
 16 15  1  0
 17 16  2  0
 18 11  1  0
 18 19  2  0
 20 21  1  0
 22 21  1  6
 22 23  1  0
 23 18  1  0
 24 22  1  0
 24 25  1  0
 26 24  2  0
M  END
$$$$
