EHS.pdb
     RDKit          3D

 26 26  0  0  1  0  0  0  0  0999 V2000
    9.3592  -18.8584   17.5285 N   0  0  0  0  0  0  0  0  0  0  0  0
   10.6320  -18.1885   17.5842 C   0  0  1  0  0  0  0  0  0  0  0  0
   10.7838  -17.4647   16.2721 C   0  0  0  0  0  0  0  0  0  0  0  0
    9.5387  -16.9345   15.6732 C   0  0  0  0  0  0  0  0  0  0  0  0
    9.7593  -16.2646   14.3871 C   0  0  0  0  0  0  0  0  0  0  0  0
    8.9237  -15.5439   13.7931 O   0  0  0  0  0  0  0  0  0  0  0  0
   10.7963  -17.2734   18.6967 C   0  0  0  0  0  0  0  0  0  0  0  0
   11.8838  -16.6603   18.8353 O   0  0  0  0  0  0  0  0  0  0  0  0
   10.9978  -16.4121   13.7229 O   0  0  0  0  0  0  0  0  0  0  0  0
    9.7982  -16.9996   19.6798 N   0  0  0  0  0  0  0  0  0  0  0  0
   10.0015  -16.1116   20.8014 C   0  0  1  0  0  0  0  0  0  0  0  0
    8.7902  -15.2423   21.0570 C   0  0  0  0  0  0  0  0  0  0  0  0
    8.4574  -14.3601   19.9322 C   0  0  0  0  0  0  0  0  0  0  0  0
    9.1540  -13.2547   19.5001 C   0  0  0  0  0  0  0  0  0  0  0  0
    8.5109  -12.7145   18.4251 N   0  0  0  0  0  0  0  0  0  0  0  0
    7.4275  -13.4756   18.1926 C   0  0  0  0  0  0  0  0  0  0  0  0
    7.4020  -14.4657   19.1051 N   0  0  0  0  0  0  0  0  0  0  0  0
   10.4063  -16.9163   21.9807 C   0  0  0  0  0  0  0  0  0  0  0  0
    9.7809  -17.9664   22.2947 O   0  0  0  0  0  0  0  0  0  0  0  0
   13.9867  -16.2489   23.5166 O   0  0  0  0  0  0  0  0  0  0  0  0
   13.4718  -17.5041   23.7526 C   0  0  0  0  0  0  0  0  0  0  0  0
   11.9427  -17.4480   23.9019 C   0  0  2  0  0  0  0  0  0  0  0  0
   11.5065  -16.5657   22.8210 N   0  0  0  0  0  0  0  0  0  0  0  0
   11.6753  -16.8084   25.1894 C   0  0  0  0  0  0  0  0  0  0  0  0
   12.0003  -17.4116   26.3945 O   0  0  0  0  0  0  0  0  0  0  0  0
   11.1350  -15.6771   25.2231 O   0  0  0  0  0  0  0  0  0  0  0  0
  2  1  1  6
  2  7  1  0
  3  2  1  0
  4  3  1  0
  4  5  1  0
  5  6  2  0
  7  8  2  0
  9  5  1  0
 10  7  1  0
 10 11  1  0
 11 12  1  1
 12 13  1  0
 13 17  1  0
 13 14  2  0
 14 15  1  0
 16 15  1  0
 17 16  2  0
 18 11  1  0
 18 19  2  0
 20 21  1  0
 22 21  1  6
 22 23  1  0
 23 18  1  0
 24 22  1  0
 24 25  1  0
 26 24  2  0
M  END
$$$$
