EHS.pdb
     RDKit          3D

 26 26  0  0  1  0  0  0  0  0999 V2000
   11.4584  -14.7139   16.5848 N   0  0  0  0  0  0  0  0  0  0  0  0
   12.1448  -15.9534   16.8383 C   0  0  1  0  0  0  0  0  0  0  0  0
   12.7750  -16.3598   15.5320 C   0  0  0  0  0  0  0  0  0  0  0  0
   11.9997  -16.0485   14.3105 C   0  0  0  0  0  0  0  0  0  0  0  0
   12.6553  -16.5071   13.0811 C   0  0  0  0  0  0  0  0  0  0  0  0
   13.5661  -15.8962   12.4748 O   0  0  0  0  0  0  0  0  0  0  0  0
   13.1385  -15.9008   17.8927 C   0  0  0  0  0  0  0  0  0  0  0  0
   13.8446  -16.9132   18.1256 O   0  0  0  0  0  0  0  0  0  0  0  0
   12.2644  -17.7308   12.4924 O   0  0  0  0  0  0  0  0  0  0  0  0
   13.3928  -14.7625   18.7156 N   0  0  0  0  0  0  0  0  0  0  0  0
   14.4324  -14.7153   19.7180 C   0  0  1  0  0  0  0  0  0  0  0  0
   15.3024  -13.4868   19.5682 C   0  0  0  0  0  0  0  0  0  0  0  0
   16.3624  -13.6414   18.5649 C   0  0  0  0  0  0  0  0  0  0  0  0
   17.0602  -14.7858   18.2531 C   0  0  0  0  0  0  0  0  0  0  0  0
   17.9581  -14.5053   17.2651 N   0  0  0  0  0  0  0  0  0  0  0  0
   17.8194  -13.2019   16.9670 C   0  0  0  0  0  0  0  0  0  0  0  0
   16.8556  -12.6877   17.7547 N   0  0  0  0  0  0  0  0  0  0  0  0
   13.8087  -14.8333   21.0594 C   0  0  0  0  0  0  0  0  0  0  0  0
   13.0467  -13.9299   21.5018 O   0  0  0  0  0  0  0  0  0  0  0  0
   12.1972  -17.7949   22.1441 O   0  0  0  0  0  0  0  0  0  0  0  0
   12.0411  -16.7083   22.9756 C   0  0  0  0  0  0  0  0  0  0  0  0
   13.3920  -16.0227   23.2378 C   0  0  2  0  0  0  0  0  0  0  0  0
   14.0227  -15.9520   21.9208 N   0  0  0  0  0  0  0  0  0  0  0  0
   14.1564  -16.9279   24.0949 C   0  0  0  0  0  0  0  0  0  0  0  0
   13.8439  -17.1176   25.4321 O   0  0  0  0  0  0  0  0  0  0  0  0
   15.1297  -17.5613   23.6213 O   0  0  0  0  0  0  0  0  0  0  0  0
  2  1  1  6
  2  7  1  0
  3  2  1  0
  4  3  1  0
  4  5  1  0
  5  6  2  0
  7  8  2  0
  9  5  1  0
 10  7  1  0
 10 11  1  0
 11 12  1  1
 12 13  1  0
 13 17  1  0
 13 14  2  0
 14 15  1  0
 16 15  1  0
 17 16  2  0
 18 11  1  0
 18 19  2  0
 20 21  1  0
 22 21  1  6
 22 23  1  0
 23 18  1  0
 24 22  1  0
 24 25  1  0
 26 24  2  0
M  END
$$$$
