EHS.pdb
     RDKit          3D

 26 26  0  0  1  0  0  0  0  0999 V2000
    9.8744  -18.7317   18.5897 N   0  0  0  0  0  0  0  0  0  0  0  0
   11.0779  -18.0766   19.0305 C   0  0  1  0  0  0  0  0  0  0  0  0
   11.6593  -17.4033   17.8150 C   0  0  0  0  0  0  0  0  0  0  0  0
   11.2076  -17.9223   16.5047 C   0  0  0  0  0  0  0  0  0  0  0  0
   11.8911  -17.2921   15.3702 C   0  0  0  0  0  0  0  0  0  0  0  0
   11.3658  -17.0298   14.2630 O   0  0  0  0  0  0  0  0  0  0  0  0
   10.8990  -17.1235   20.1083 C   0  0  0  0  0  0  0  0  0  0  0  0
   11.8824  -16.4509   20.5062 O   0  0  0  0  0  0  0  0  0  0  0  0
   13.2528  -16.9322   15.4838 O   0  0  0  0  0  0  0  0  0  0  0  0
    9.6633  -16.8748   20.7783 N   0  0  0  0  0  0  0  0  0  0  0  0
    9.5212  -15.9484   21.8781 C   0  0  1  0  0  0  0  0  0  0  0  0
    8.2406  -15.1494   21.7782 C   0  0  0  0  0  0  0  0  0  0  0  0
    8.1184  -14.3976   20.5236 C   0  0  0  0  0  0  0  0  0  0  0  0
    8.5340  -13.1095   20.2751 C   0  0  0  0  0  0  0  0  0  0  0  0
    8.2351  -12.7857   18.9840 N   0  0  0  0  0  0  0  0  0  0  0  0
    7.6408  -13.8604   18.4373 C   0  0  0  0  0  0  0  0  0  0  0  0
    7.5740  -14.8282   19.3714 N   0  0  0  0  0  0  0  0  0  0  0  0
    9.6483  -16.6972   23.1530 C   0  0  0  0  0  0  0  0  0  0  0  0
    9.0792  -17.8127   23.3093 O   0  0  0  0  0  0  0  0  0  0  0  0
   12.4755  -17.9687   26.6429 O   0  0  0  0  0  0  0  0  0  0  0  0
   12.1256  -17.2698   25.5090 C   0  0  0  0  0  0  0  0  0  0  0  0
   10.6060  -17.0427   25.4546 C   0  0  2  0  0  0  0  0  0  0  0  0
   10.4066  -16.2180   24.2642 N   0  0  0  0  0  0  0  0  0  0  0  0
   10.2600  -16.2686   26.6460 C   0  0  0  0  0  0  0  0  0  0  0  0
   10.2719  -16.8240   27.9160 O   0  0  0  0  0  0  0  0  0  0  0  0
    9.9396  -15.0613   26.5335 O   0  0  0  0  0  0  0  0  0  0  0  0
  2  1  1  6
  2  7  1  0
  3  2  1  0
  4  3  1  0
  4  5  1  0
  5  6  2  0
  7  8  2  0
  9  5  1  0
 10  7  1  0
 10 11  1  0
 11 12  1  1
 12 13  1  0
 13 17  1  0
 13 14  2  0
 14 15  1  0
 16 15  1  0
 17 16  2  0
 18 11  1  0
 18 19  2  0
 20 21  1  0
 22 21  1  1
 22 23  1  0
 23 18  1  0
 24 22  1  0
 24 25  1  0
 26 24  2  0
M  END
$$$$
