SCQ.pdb
     RDKit          3D

 22 21  0  0  1  0  0  0  0  0999 V2000
   18.8830  -13.0356  -17.1197 O   0  0  0  0  0  0  0  0  0  0  0  0
   18.9964  -11.7122  -16.7744 C   0  0  0  0  0  0  0  0  0  0  0  0
   17.6788  -11.1031  -16.3640 C   0  0  2  0  0  0  0  0  0  0  0  0
   16.8384  -10.9464  -17.5093 N   0  0  0  0  0  0  0  0  0  0  0  0
   17.7938   -9.8473  -15.6300 C   0  0  0  0  0  0  0  0  0  0  0  0
   17.9486   -8.7839  -16.2836 O   0  0  0  0  0  0  0  0  0  0  0  0
   17.7471   -9.7041  -14.2217 N   0  0  0  0  0  0  0  0  0  0  0  0
   18.0202   -8.4901  -13.5076 C   0  0  1  0  0  0  0  0  0  0  0  0
   17.6416   -8.5499  -12.0548 C   0  0  0  0  0  0  0  0  0  0  0  0
   18.1551   -6.9670  -11.2983 S   0  0  0  0  0  0  0  0  0  0  0  0
   19.4637   -8.1384  -13.5829 C   0  0  0  0  0  0  0  0  0  0  0  0
   20.3724   -9.0229  -13.4918 O   0  0  0  0  0  0  0  0  0  0  0  0
   22.7968   -8.4835  -17.7519 N   0  0  0  0  0  0  0  0  0  0  0  0
   23.5466   -7.5741  -16.9131 C   0  0  0  0  0  0  0  0  0  0  0  0
   24.7662   -7.3545  -17.2313 O   0  0  0  0  0  0  0  0  0  0  0  0
   23.0007   -6.9268  -15.7516 C   0  0  0  0  0  0  0  0  0  0  0  0
   21.6622   -7.0541  -15.2370 C   0  0  0  0  0  0  0  0  0  0  0  0
   21.2005   -6.3575  -14.0269 C   0  0  2  0  0  0  0  0  0  0  0  0
   19.7924   -6.7749  -13.7607 N   0  0  0  0  0  0  0  0  0  0  0  0
   21.2934   -4.9011  -13.9470 C   0  0  0  0  0  0  0  0  0  0  0  0
   22.3847   -4.1441  -13.6908 O   0  0  0  0  0  0  0  0  0  0  0  0
   20.2110   -4.2044  -14.1375 O   0  0  0  0  0  0  0  0  0  0  0  0
  1  2  1  0
  2  3  1  0
  3  4  1  6
  5  3  1  0
  5  7  1  0
  6  5  2  0
  8  7  1  0
  8 11  1  0
  9 10  1  0
  8  9  1  1
 11 12  2  0
 11 19  1  0
 13 14  1  0
 14 15  2  0
 16 14  1  0
 16 17  1  0
 18 17  1  6
 18 20  1  0
 19 18  1  0
 20 22  2  0
 20 21  1  0
M  END
$$$$
