SCQ.pdb
     RDKit          3D

 22 21  0  0  1  0  0  0  0  0999 V2000
   16.4987   -9.6456  -17.5234 O   0  0  0  0  0  0  0  0  0  0  0  0
   16.6058   -9.5170  -16.1613 C   0  0  0  0  0  0  0  0  0  0  0  0
   17.9495   -9.9606  -15.6388 C   0  0  2  0  0  0  0  0  0  0  0  0
   18.0964  -11.3716  -15.8123 N   0  0  0  0  0  0  0  0  0  0  0  0
   18.2193   -9.5776  -14.2569 C   0  0  0  0  0  0  0  0  0  0  0  0
   17.8187  -10.3354  -13.3365 O   0  0  0  0  0  0  0  0  0  0  0  0
   18.9038   -8.4098  -13.8400 N   0  0  0  0  0  0  0  0  0  0  0  0
   19.0852   -8.0041  -12.4759 C   0  0  1  0  0  0  0  0  0  0  0  0
   20.2441   -7.0687  -12.2767 C   0  0  0  0  0  0  0  0  0  0  0  0
   21.7709   -8.0368  -12.5469 S   0  0  0  0  0  0  0  0  0  0  0  0
   17.8670   -7.3300  -11.9518 C   0  0  0  0  0  0  0  0  0  0  0  0
   17.2425   -6.4558  -12.6316 O   0  0  0  0  0  0  0  0  0  0  0  0
   12.3008   -8.4552   -7.2764 N   0  0  0  0  0  0  0  0  0  0  0  0
   13.0491   -8.6312   -8.5019 C   0  0  0  0  0  0  0  0  0  0  0  0
   12.8050   -9.6810   -9.1915 O   0  0  0  0  0  0  0  0  0  0  0  0
   14.0459   -7.7062   -8.9675 C   0  0  0  0  0  0  0  0  0  0  0  0
   15.3056   -8.0280   -9.5857 C   0  0  0  0  0  0  0  0  0  0  0  0
   16.2667   -7.0046  -10.0235 C   0  0  2  0  0  0  0  0  0  0  0  0
   17.4244   -7.6985  -10.6607 N   0  0  0  0  0  0  0  0  0  0  0  0
   16.7646   -6.0188   -9.0663 C   0  0  0  0  0  0  0  0  0  0  0  0
   16.1811   -4.8635   -8.6733 O   0  0  0  0  0  0  0  0  0  0  0  0
   17.9140   -6.2398   -8.4976 O   0  0  0  0  0  0  0  0  0  0  0  0
  1  2  1  0
  2  3  1  0
  3  4  1  1
  5  3  1  0
  5  7  1  0
  6  5  2  0
  8  7  1  0
  8 11  1  0
  9 10  1  0
  8  9  1  6
 11 12  2  0
 11 19  1  0
 13 14  1  0
 14 15  2  0
 16 14  1  0
 16 17  1  0
 18 17  1  1
 18 20  1  0
 19 18  1  0
 20 22  2  0
 20 21  1  0
M  END
$$$$
