SCQ.pdb
     RDKit          3D

 22 21  0  0  1  0  0  0  0  0999 V2000
   17.2169  -12.7076  -15.6101 O   0  0  0  0  0  0  0  0  0  0  0  0
   18.1610  -11.8374  -15.1255 C   0  0  0  0  0  0  0  0  0  0  0  0
   19.4156  -11.8147  -15.9627 C   0  0  2  0  0  0  0  0  0  0  0  0
   19.9692  -13.1299  -16.0438 N   0  0  0  0  0  0  0  0  0  0  0  0
   20.4222  -10.8552  -15.5208 C   0  0  0  0  0  0  0  0  0  0  0  0
   21.0514  -11.0943  -14.4583 O   0  0  0  0  0  0  0  0  0  0  0  0
   20.7688   -9.6536  -16.1855 N   0  0  0  0  0  0  0  0  0  0  0  0
   21.7616   -8.7205  -15.7361 C   0  0  1  0  0  0  0  0  0  0  0  0
   23.0245   -8.7491  -16.5498 C   0  0  0  0  0  0  0  0  0  0  0  0
   22.5316   -8.7631  -18.3100 S   0  0  0  0  0  0  0  0  0  0  0  0
   21.2388   -7.3280  -15.7648 C   0  0  0  0  0  0  0  0  0  0  0  0
   20.3448   -6.9671  -16.5935 O   0  0  0  0  0  0  0  0  0  0  0  0
   16.7597   -4.9794  -14.0922 N   0  0  0  0  0  0  0  0  0  0  0  0
   17.6168   -3.8141  -14.1035 C   0  0  0  0  0  0  0  0  0  0  0  0
   17.0672   -2.6805  -13.8801 O   0  0  0  0  0  0  0  0  0  0  0  0
   19.0298   -3.8660  -14.3625 C   0  0  0  0  0  0  0  0  0  0  0  0
   19.8187   -5.0392  -14.6345 C   0  0  0  0  0  0  0  0  0  0  0  0
   21.2825   -5.0050  -14.7714 C   0  0  2  0  0  0  0  0  0  0  0  0
   21.7754   -6.4126  -14.8306 N   0  0  0  0  0  0  0  0  0  0  0  0
   22.0850   -4.2548  -13.8074 C   0  0  0  0  0  0  0  0  0  0  0  0
   22.1367   -2.9159  -13.6222 O   0  0  0  0  0  0  0  0  0  0  0  0
   22.8658   -4.9204  -13.0070 O   0  0  0  0  0  0  0  0  0  0  0  0
  1  2  1  0
  2  3  1  0
  3  4  1  1
  5  3  1  0
  5  7  1  0
  6  5  2  0
  8  7  1  0
  8 11  1  0
  9 10  1  0
  8  9  1  6
 11 12  2  0
 11 19  1  0
 13 14  1  0
 14 15  2  0
 16 14  1  0
 16 17  1  0
 18 17  1  1
 18 20  1  0
 19 18  1  0
 20 22  2  0
 20 21  1  0
M  END
$$$$
