SCQ.pdb
     RDKit          3D

 22 21  0  0  1  0  0  0  0  0999 V2000
   20.7094  -12.4824  -19.1004 O   0  0  0  0  0  0  0  0  0  0  0  0
   20.2164  -11.3878  -18.4355 C   0  0  0  0  0  0  0  0  0  0  0  0
   20.4942  -11.4333  -16.9536 C   0  0  2  0  0  0  0  0  0  0  0  0
   19.8986  -12.6008  -16.3834 N   0  0  0  0  0  0  0  0  0  0  0  0
   20.0897  -10.2363  -16.2238 C   0  0  0  0  0  0  0  0  0  0  0  0
   18.9599   -9.7399  -16.4671 O   0  0  0  0  0  0  0  0  0  0  0  0
   20.8613   -9.5626  -15.2457 N   0  0  0  0  0  0  0  0  0  0  0  0
   20.4937   -8.3287  -14.6128 C   0  0  1  0  0  0  0  0  0  0  0  0
   20.1051   -8.4864  -13.1699 C   0  0  0  0  0  0  0  0  0  0  0  0
   21.3427   -9.5863  -12.3954 S   0  0  0  0  0  0  0  0  0  0  0  0
   21.6068   -7.3436  -14.6743 C   0  0  0  0  0  0  0  0  0  0  0  0
   22.7960   -7.6959  -14.9535 O   0  0  0  0  0  0  0  0  0  0  0  0
   24.0814   -5.2343  -18.8271 N   0  0  0  0  0  0  0  0  0  0  0  0
   24.4882   -4.2893  -17.8102 C   0  0  0  0  0  0  0  0  0  0  0  0
   25.4152   -3.4622  -18.1165 O   0  0  0  0  0  0  0  0  0  0  0  0
   23.9203   -4.2441  -16.4905 C   0  0  0  0  0  0  0  0  0  0  0  0
   22.9006   -5.1082  -15.9556 C   0  0  0  0  0  0  0  0  0  0  0  0
   22.3065   -4.9160  -14.6242 C   0  0  2  0  0  0  0  0  0  0  0  0
   21.2933   -5.9908  -14.4094 N   0  0  0  0  0  0  0  0  0  0  0  0
   21.7203   -3.6249  -14.2697 C   0  0  0  0  0  0  0  0  0  0  0  0
   22.3476   -2.5171  -13.8129 O   0  0  0  0  0  0  0  0  0  0  0  0
   20.4329   -3.4798  -14.3916 O   0  0  0  0  0  0  0  0  0  0  0  0
  1  2  1  0
  2  3  1  0
  3  4  1  1
  5  3  1  0
  5  7  1  0
  6  5  2  0
  8  7  1  0
  8 11  1  0
  9 10  1  0
  8  9  1  1
 11 12  2  0
 11 19  1  0
 13 14  1  0
 14 15  2  0
 16 14  1  0
 16 17  1  0
 18 17  1  6
 18 20  1  0
 19 18  1  0
 20 22  2  0
 20 21  1  0
M  END
$$$$
