SCQ.pdb
     RDKit          3D

 22 21  0  0  1  0  0  0  0  0999 V2000
   15.8520  -11.7115  -15.3445 O   0  0  0  0  0  0  0  0  0  0  0  0
   17.0874  -11.3016  -14.9095 C   0  0  0  0  0  0  0  0  0  0  0  0
   18.1550  -11.4519  -15.9645 C   0  0  2  0  0  0  0  0  0  0  0  0
   18.3889  -12.8376  -16.2249 N   0  0  0  0  0  0  0  0  0  0  0  0
   19.4056  -10.7629  -15.6641 C   0  0  0  0  0  0  0  0  0  0  0  0
   20.4694  -11.4337  -15.6458 O   0  0  0  0  0  0  0  0  0  0  0  0
   19.5433   -9.3812  -15.3847 N   0  0  0  0  0  0  0  0  0  0  0  0
   20.7924   -8.6886  -15.2497 C   0  0  1  0  0  0  0  0  0  0  0  0
   21.6836   -8.8176  -16.4526 C   0  0  0  0  0  0  0  0  0  0  0  0
   23.2575   -7.9797  -16.0499 S   0  0  0  0  0  0  0  0  0  0  0  0
   20.5755   -7.2376  -15.0034 C   0  0  0  0  0  0  0  0  0  0  0  0
   19.9806   -6.4980  -15.8492 O   0  0  0  0  0  0  0  0  0  0  0  0
   19.3953   -5.6435   -9.0932 N   0  0  0  0  0  0  0  0  0  0  0  0
   18.5591   -5.7980  -10.2634 C   0  0  0  0  0  0  0  0  0  0  0  0
   17.3310   -6.1003  -10.0700 O   0  0  0  0  0  0  0  0  0  0  0  0
   19.0364   -5.6442  -11.6105 C   0  0  0  0  0  0  0  0  0  0  0  0
   20.3554   -5.2397  -12.0220 C   0  0  0  0  0  0  0  0  0  0  0  0
   20.8046   -5.2803  -13.4217 C   0  0  2  0  0  0  0  0  0  0  0  0
   21.0581   -6.7055  -13.7857 N   0  0  0  0  0  0  0  0  0  0  0  0
   21.9433   -4.4667  -13.8431 C   0  0  0  0  0  0  0  0  0  0  0  0
   22.0150   -3.1208  -13.9562 O   0  0  0  0  0  0  0  0  0  0  0  0
   23.0488   -5.0744  -14.1621 O   0  0  0  0  0  0  0  0  0  0  0  0
  1  2  1  0
  2  3  1  0
  3  4  1  1
  5  3  1  0
  5  7  1  0
  6  5  2  0
  8  7  1  0
  8 11  1  0
  9 10  1  0
  8  9  1  6
 11 12  2  0
 11 19  1  0
 13 14  1  0
 14 15  2  0
 16 14  1  0
 16 17  1  0
 18 17  1  1
 18 20  1  0
 19 18  1  0
 20 22  2  0
 20 21  1  0
M  END
$$$$
