SCQ.pdb
     RDKit          3D

 22 21  0  0  1  0  0  0  0  0999 V2000
   19.1250  -16.5800  -18.1703 O   0  0  0  0  0  0  0  0  0  0  0  0
   19.4647  -15.8034  -17.0910 C   0  0  0  0  0  0  0  0  0  0  0  0
   20.7197  -16.2801  -16.4032 C   0  0  2  0  0  0  0  0  0  0  0  0
   20.3987  -17.3107  -15.4664 N   0  0  0  0  0  0  0  0  0  0  0  0
   21.4999  -15.2248  -15.7655 C   0  0  0  0  0  0  0  0  0  0  0  0
   21.0029  -14.6274  -14.7765 O   0  0  0  0  0  0  0  0  0  0  0  0
   22.7914  -14.7970  -16.1589 N   0  0  0  0  0  0  0  0  0  0  0  0
   23.4968  -13.6817  -15.5961 C   0  0  1  0  0  0  0  0  0  0  0  0
   24.9592  -13.6603  -15.9407 C   0  0  0  0  0  0  0  0  0  0  0  0
   25.7124  -12.2796  -15.0092 S   0  0  0  0  0  0  0  0  0  0  0  0
   22.9084  -12.3927  -16.0492 C   0  0  0  0  0  0  0  0  0  0  0  0
   22.5767  -12.1992  -17.2612 O   0  0  0  0  0  0  0  0  0  0  0  0
   17.7638  -10.5129  -16.6794 N   0  0  0  0  0  0  0  0  0  0  0  0
   18.4055   -9.2805  -16.2769 C   0  0  0  0  0  0  0  0  0  0  0  0
   17.6790   -8.2281  -16.2356 O   0  0  0  0  0  0  0  0  0  0  0  0
   19.7992   -9.1802  -15.9398 C   0  0  0  0  0  0  0  0  0  0  0  0
   20.7409  -10.2621  -15.8153 C   0  0  0  0  0  0  0  0  0  0  0  0
   22.1507  -10.0578  -15.4499 C   0  0  2  0  0  0  0  0  0  0  0  0
   22.7293  -11.3822  -15.0769 N   0  0  0  0  0  0  0  0  0  0  0  0
   22.5008   -9.0749  -14.4264 C   0  0  0  0  0  0  0  0  0  0  0  0
   22.9920   -9.2960  -13.1857 O   0  0  0  0  0  0  0  0  0  0  0  0
   22.3315   -7.8142  -14.7010 O   0  0  0  0  0  0  0  0  0  0  0  0
  1  2  1  0
  2  3  1  0
  3  4  1  1
  5  3  1  0
  5  7  1  0
  6  5  2  0
  8  7  1  0
  8 11  1  0
  9 10  1  0
  8  9  1  6
 11 12  2  0
 11 19  1  0
 13 14  1  0
 14 15  2  0
 16 14  1  0
 16 17  1  0
 18 17  1  1
 18 20  1  0
 19 18  1  0
 20 22  2  0
 20 21  1  0
M  END
$$$$
