SCQ.pdb
     RDKit          3D

 22 21  0  0  1  0  0  0  0  0999 V2000
   16.4380  -13.0562  -12.2761 O   0  0  0  0  0  0  0  0  0  0  0  0
   16.2390  -11.6990  -12.2326 C   0  0  0  0  0  0  0  0  0  0  0  0
   15.0376  -11.3134  -11.4058 C   0  0  2  0  0  0  0  0  0  0  0  0
   13.8399  -11.7258  -12.0676 N   0  0  0  0  0  0  0  0  0  0  0  0
   14.9736   -9.8992  -11.0521 C   0  0  0  0  0  0  0  0  0  0  0  0
   14.4308   -9.1038  -11.8612 O   0  0  0  0  0  0  0  0  0  0  0  0
   15.4738   -9.3203   -9.8602 N   0  0  0  0  0  0  0  0  0  0  0  0
   15.4082   -7.9254   -9.5314 C   0  0  1  0  0  0  0  0  0  0  0  0
   15.0008   -7.6622   -8.1092 C   0  0  0  0  0  0  0  0  0  0  0  0
   13.3316   -8.3731   -7.8862 S   0  0  0  0  0  0  0  0  0  0  0  0
   16.7205   -7.2611   -9.7542 C   0  0  0  0  0  0  0  0  0  0  0  0
   17.8186   -7.8837   -9.6034 O   0  0  0  0  0  0  0  0  0  0  0  0
   21.4033   -6.6217  -10.6482 N   0  0  0  0  0  0  0  0  0  0  0  0
   21.1150   -5.7989  -11.8025 C   0  0  0  0  0  0  0  0  0  0  0  0
   22.1086   -5.2518  -12.3946 O   0  0  0  0  0  0  0  0  0  0  0  0
   19.7878   -5.5597  -12.3000 C   0  0  0  0  0  0  0  0  0  0  0  0
   18.5470   -5.9404  -11.6772 C   0  0  0  0  0  0  0  0  0  0  0  0
   17.9620   -5.2070  -10.5446 C   0  0  2  0  0  0  0  0  0  0  0  0
   16.7036   -5.9019  -10.1429 N   0  0  0  0  0  0  0  0  0  0  0  0
   17.7027   -3.7736  -10.6636 C   0  0  0  0  0  0  0  0  0  0  0  0
   18.4871   -2.7447  -10.2690 O   0  0  0  0  0  0  0  0  0  0  0  0
   16.5846   -3.3942  -11.2106 O   0  0  0  0  0  0  0  0  0  0  0  0
  1  2  1  0
  2  3  1  0
  3  4  1  6
  5  3  1  0
  5  7  1  0
  6  5  2  0
  8  7  1  0
  8 11  1  0
  9 10  1  0
  8  9  1  1
 11 12  2  0
 11 19  1  0
 13 14  1  0
 14 15  2  0
 16 14  1  0
 16 17  1  0
 18 17  1  6
 18 20  1  0
 19 18  1  0
 20 22  2  0
 20 21  1  0
M  END
$$$$
