SCQ.pdb
     RDKit          3D

 22 21  0  0  1  0  0  0  0  0999 V2000
   17.7720   -9.4185  -16.8939 O   0  0  0  0  0  0  0  0  0  0  0  0
   17.7511   -9.1751  -15.5434 C   0  0  0  0  0  0  0  0  0  0  0  0
   19.1332   -9.0257  -14.9577 C   0  0  2  0  0  0  0  0  0  0  0  0
   19.8568  -10.2497  -15.1021 N   0  0  0  0  0  0  0  0  0  0  0  0
   19.1584   -8.5693  -13.5720 C   0  0  0  0  0  0  0  0  0  0  0  0
   18.7310   -9.3444  -12.6785 O   0  0  0  0  0  0  0  0  0  0  0  0
   19.6275   -7.3105  -13.1233 N   0  0  0  0  0  0  0  0  0  0  0  0
   19.5237   -6.8247  -11.7774 C   0  0  1  0  0  0  0  0  0  0  0  0
   20.5349   -5.7652  -11.4418 C   0  0  0  0  0  0  0  0  0  0  0  0
   22.1775   -6.5672  -11.4455 S   0  0  0  0  0  0  0  0  0  0  0  0
   18.1735   -6.2575  -11.5162 C   0  0  0  0  0  0  0  0  0  0  0  0
   17.5530   -5.5783  -12.3937 O   0  0  0  0  0  0  0  0  0  0  0  0
   13.7988   -9.5017   -8.1332 N   0  0  0  0  0  0  0  0  0  0  0  0
   13.3260   -8.1479   -8.3237 C   0  0  0  0  0  0  0  0  0  0  0  0
   12.1387   -7.8811   -7.9283 O   0  0  0  0  0  0  0  0  0  0  0  0
   14.1074   -7.1092   -8.9374 C   0  0  0  0  0  0  0  0  0  0  0  0
   15.4931   -7.1791   -9.3216 C   0  0  0  0  0  0  0  0  0  0  0  0
   16.2102   -6.0531   -9.9385 C   0  0  2  0  0  0  0  0  0  0  0  0
   17.5997   -6.5022  -10.2475 N   0  0  0  0  0  0  0  0  0  0  0  0
   16.2630   -4.7629   -9.2539 C   0  0  0  0  0  0  0  0  0  0  0  0
   15.3205   -3.7934   -9.2199 O   0  0  0  0  0  0  0  0  0  0  0  0
   17.3369   -4.4671   -8.5813 O   0  0  0  0  0  0  0  0  0  0  0  0
  1  2  1  0
  2  3  1  0
  3  4  1  1
  5  3  1  0
  5  7  1  0
  6  5  2  0
  8  7  1  0
  8 11  1  0
  9 10  1  0
  8  9  1  6
 11 12  2  0
 11 19  1  0
 13 14  1  0
 14 15  2  0
 16 14  1  0
 16 17  1  0
 18 17  1  1
 18 20  1  0
 19 18  1  0
 20 22  2  0
 20 21  1  0
M  END
$$$$
