SCQ.pdb
     RDKit          3D

 22 21  0  0  1  0  0  0  0  0999 V2000
   23.8785  -12.8964  -20.5973 O   0  0  0  0  0  0  0  0  0  0  0  0
   24.1570  -14.1691  -20.1659 C   0  0  0  0  0  0  0  0  0  0  0  0
   25.3422  -14.2213  -19.2342 C   0  0  2  0  0  0  0  0  0  0  0  0
   25.5506  -15.5631  -18.7881 N   0  0  0  0  0  0  0  0  0  0  0  0
   25.2639  -13.3049  -18.1015 C   0  0  0  0  0  0  0  0  0  0  0  0
   24.6641  -13.6858  -17.0637 O   0  0  0  0  0  0  0  0  0  0  0  0
   25.8094  -11.9987  -18.0540 N   0  0  0  0  0  0  0  0  0  0  0  0
   25.6746  -11.0893  -16.9526 C   0  0  1  0  0  0  0  0  0  0  0  0
   26.9371  -10.3386  -16.6358 C   0  0  0  0  0  0  0  0  0  0  0  0
   26.6968   -9.5421  -15.0082 S   0  0  0  0  0  0  0  0  0  0  0  0
   24.6079  -10.0862  -17.2147 C   0  0  0  0  0  0  0  0  0  0  0  0
   24.4839   -9.5234  -18.3479 O   0  0  0  0  0  0  0  0  0  0  0  0
   19.8553  -11.7831  -18.1099 N   0  0  0  0  0  0  0  0  0  0  0  0
   19.5364  -10.3725  -18.0757 C   0  0  0  0  0  0  0  0  0  0  0  0
   18.5726   -9.9719  -18.8159 O   0  0  0  0  0  0  0  0  0  0  0  0
   20.2464   -9.4135  -17.2743 C   0  0  0  0  0  0  0  0  0  0  0  0
   21.3440   -9.6744  -16.3800 C   0  0  0  0  0  0  0  0  0  0  0  0
   22.5696   -8.8618  -16.3591 C   0  0  2  0  0  0  0  0  0  0  0  0
   23.7294   -9.7780  -16.1507 N   0  0  0  0  0  0  0  0  0  0  0  0
   22.6771   -7.7328  -15.4372 C   0  0  0  0  0  0  0  0  0  0  0  0
   22.1278   -6.5022  -15.5521 O   0  0  0  0  0  0  0  0  0  0  0  0
   23.3847   -7.8869  -14.3560 O   0  0  0  0  0  0  0  0  0  0  0  0
  1  2  1  0
  2  3  1  0
  3  4  1  1
  5  3  1  0
  5  7  1  0
  6  5  2  0
  8  7  1  0
  8 11  1  0
  9 10  1  0
  8  9  1  6
 11 12  2  0
 11 19  1  0
 13 14  1  0
 14 15  2  0
 16 14  1  0
 16 17  1  0
 18 17  1  1
 18 20  1  0
 19 18  1  0
 20 22  2  0
 20 21  1  0
M  END
$$$$
