SCQ.pdb
     RDKit          3D

 22 21  0  0  1  0  0  0  0  0999 V2000
   24.4529  -20.9174   -8.3872 O   0  0  0  0  0  0  0  0  0  0  0  0
   25.3562  -20.2514   -9.1771 C   0  0  0  0  0  0  0  0  0  0  0  0
   25.2519  -20.6362  -10.6319 C   0  0  2  0  0  0  0  0  0  0  0  0
   25.2621  -22.0597  -10.7597 N   0  0  0  0  0  0  0  0  0  0  0  0
   26.2625  -20.0313  -11.4931 C   0  0  0  0  0  0  0  0  0  0  0  0
   26.4638  -18.7932  -11.4015 O   0  0  0  0  0  0  0  0  0  0  0  0
   27.0579  -20.7165  -12.4438 N   0  0  0  0  0  0  0  0  0  0  0  0
   27.9807  -20.0931  -13.3483 C   0  0  1  0  0  0  0  0  0  0  0  0
   29.3916  -20.5893  -13.2032 C   0  0  0  0  0  0  0  0  0  0  0  0
   29.8222  -20.4791  -11.4302 S   0  0  0  0  0  0  0  0  0  0  0  0
   27.5710  -20.3073  -14.7623 C   0  0  0  0  0  0  0  0  0  0  0  0
   27.3356  -21.4694  -15.2209 O   0  0  0  0  0  0  0  0  0  0  0  0
   24.2420  -19.8057  -14.3104 N   0  0  0  0  0  0  0  0  0  0  0  0
   23.7527  -20.1025  -15.6390 C   0  0  0  0  0  0  0  0  0  0  0  0
   22.7283  -20.8638  -15.7294 O   0  0  0  0  0  0  0  0  0  0  0  0
   24.3595  -19.6027  -16.8424 C   0  0  0  0  0  0  0  0  0  0  0  0
   25.5165  -18.7516  -16.9410 C   0  0  0  0  0  0  0  0  0  0  0  0
   26.8922  -19.2710  -16.9647 C   0  0  2  0  0  0  0  0  0  0  0  0
   27.4517  -19.1638  -15.5851 N   0  0  0  0  0  0  0  0  0  0  0  0
   27.8574  -18.7278  -17.9184 C   0  0  0  0  0  0  0  0  0  0  0  0
   28.0196  -19.0506  -19.2218 O   0  0  0  0  0  0  0  0  0  0  0  0
   28.6877  -17.8168  -17.5016 O   0  0  0  0  0  0  0  0  0  0  0  0
  1  2  1  0
  2  3  1  0
  3  4  1  1
  5  3  1  0
  5  7  1  0
  6  5  2  0
  8  7  1  0
  8 11  1  0
  9 10  1  0
  8  9  1  6
 11 12  2  0
 11 19  1  0
 13 14  1  0
 14 15  2  0
 16 14  1  0
 16 17  1  0
 18 17  1  1
 18 20  1  0
 19 18  1  0
 20 22  2  0
 20 21  1  0
M  END
$$$$
