SCQ.pdb
     RDKit          3D

 22 21  0  0  1  0  0  0  0  0999 V2000
   16.9413  -10.6608  -15.8180 O   0  0  0  0  0  0  0  0  0  0  0  0
   17.3827   -9.4011  -15.4992 C   0  0  0  0  0  0  0  0  0  0  0  0
   17.9552   -9.3204  -14.1059 C   0  0  2  0  0  0  0  0  0  0  0  0
   16.9340   -9.5954  -13.1446 N   0  0  0  0  0  0  0  0  0  0  0  0
   18.6303   -8.0637  -13.7996 C   0  0  0  0  0  0  0  0  0  0  0  0
   17.9284   -7.0668  -13.4906 O   0  0  0  0  0  0  0  0  0  0  0  0
   20.0304   -7.8505  -13.8159 N   0  0  0  0  0  0  0  0  0  0  0  0
   20.6691   -6.5673  -13.7549 C   0  0  1  0  0  0  0  0  0  0  0  0
   22.1214   -6.6369  -13.3755 C   0  0  0  0  0  0  0  0  0  0  0  0
   22.7243   -4.9171  -13.2332 S   0  0  0  0  0  0  0  0  0  0  0  0
   20.5781   -5.8618  -15.0614 C   0  0  0  0  0  0  0  0  0  0  0  0
   20.9493   -6.4127  -16.1454 O   0  0  0  0  0  0  0  0  0  0  0  0
   16.5911   -2.1918  -19.7444 N   0  0  0  0  0  0  0  0  0  0  0  0
   16.9068   -2.8894  -18.5170 C   0  0  0  0  0  0  0  0  0  0  0  0
   15.9346   -3.4262  -17.8817 O   0  0  0  0  0  0  0  0  0  0  0  0
   18.2356   -2.9953  -17.9791 C   0  0  0  0  0  0  0  0  0  0  0  0
   18.6382   -3.7155  -16.7993 C   0  0  0  0  0  0  0  0  0  0  0  0
   20.0239   -3.7344  -16.3073 C   0  0  2  0  0  0  0  0  0  0  0  0
   20.0602   -4.5464  -15.0554 N   0  0  0  0  0  0  0  0  0  0  0  0
   20.7330   -2.4759  -16.0847 C   0  0  0  0  0  0  0  0  0  0  0  0
   20.9648   -1.8409  -14.9132 O   0  0  0  0  0  0  0  0  0  0  0  0
   21.2173   -1.8516  -17.1186 O   0  0  0  0  0  0  0  0  0  0  0  0
  1  2  1  0
  2  3  1  0
  3  4  1  1
  5  3  1  0
  5  7  1  0
  6  5  2  0
  8  7  1  0
  8 11  1  0
  9 10  1  0
  8  9  1  6
 11 12  2  0
 11 19  1  0
 13 14  1  0
 14 15  2  0
 16 14  1  0
 16 17  1  0
 18 17  1  1
 18 20  1  0
 19 18  1  0
 20 22  2  0
 20 21  1  0
M  END
$$$$
