SCQ.pdb
     RDKit          3D

 22 21  0  0  1  0  0  0  0  0999 V2000
   26.7157  -18.6837  -15.1302 O   0  0  0  0  0  0  0  0  0  0  0  0
   27.8508  -19.0550  -14.4541 C   0  0  0  0  0  0  0  0  0  0  0  0
   27.9055  -20.5371  -14.1789 C   0  0  2  0  0  0  0  0  0  0  0  0
   28.0950  -21.2516  -15.4021 N   0  0  0  0  0  0  0  0  0  0  0  0
   26.7578  -21.0605  -13.4455 C   0  0  0  0  0  0  0  0  0  0  0  0
   25.9609  -21.8251  -14.0473 O   0  0  0  0  0  0  0  0  0  0  0  0
   26.4452  -20.7863  -12.0916 N   0  0  0  0  0  0  0  0  0  0  0  0
   25.1834  -21.0595  -11.4659 C   0  0  1  0  0  0  0  0  0  0  0  0
   25.1639  -20.7532   -9.9949 C   0  0  0  0  0  0  0  0  0  0  0  0
   26.7926  -21.2381   -9.3216 S   0  0  0  0  0  0  0  0  0  0  0  0
   24.0900  -20.2777  -12.1032 C   0  0  0  0  0  0  0  0  0  0  0  0
   24.3323  -19.3163  -12.8989 O   0  0  0  0  0  0  0  0  0  0  0  0
   22.6945  -22.6784  -16.6636 N   0  0  0  0  0  0  0  0  0  0  0  0
   21.5101  -21.8794  -16.4368 C   0  0  0  0  0  0  0  0  0  0  0  0
   20.6671  -21.7964  -17.3958 O   0  0  0  0  0  0  0  0  0  0  0  0
   21.2455  -21.1754  -15.2118 C   0  0  0  0  0  0  0  0  0  0  0  0
   22.0605  -21.1643  -14.0251 C   0  0  0  0  0  0  0  0  0  0  0  0
   21.6658  -20.4707  -12.7898 C   0  0  2  0  0  0  0  0  0  0  0  0
   22.7609  -20.6445  -11.7906 N   0  0  0  0  0  0  0  0  0  0  0  0
   20.3851  -20.7832  -12.1587 C   0  0  0  0  0  0  0  0  0  0  0  0
   19.1980  -20.1543  -12.3159 O   0  0  0  0  0  0  0  0  0  0  0  0
   20.3361  -21.7856  -11.3303 O   0  0  0  0  0  0  0  0  0  0  0  0
  1  2  1  0
  2  3  1  0
  3  4  1  6
  5  3  1  0
  5  7  1  0
  6  5  2  0
  8  7  1  0
  8 11  1  0
  9 10  1  0
  8  9  1  1
 11 12  2  0
 11 19  1  0
 13 14  1  0
 14 15  2  0
 16 14  1  0
 16 17  1  0
 18 17  1  6
 18 20  1  0
 19 18  1  0
 20 22  2  0
 20 21  1  0
M  END
$$$$
