CKG.pdb
     RDKit          3D

 20 19  0  0  1  0  0  0  0  0999 V2000
   24.4034  -16.3670  -19.2485 N   0  0  0  0  0  0  0  0  0  0  0  0
   23.7086  -16.3184  -17.9983 C   0  0  1  0  0  0  0  0  0  0  0  0
   22.4604  -15.4424  -18.0942 C   0  0  0  0  0  0  0  0  0  0  0  0
   22.9048  -13.7054  -17.9445 S   0  0  0  0  0  0  0  0  0  0  0  0
   23.2987  -17.6795  -17.5352 C   0  0  0  0  0  0  0  0  0  0  0  0
   22.8321  -18.4775  -18.3862 O   0  0  0  0  0  0  0  0  0  0  0  0
   23.4178  -18.0936  -16.1847 N   0  0  0  0  0  0  0  0  0  0  0  0
   23.0329  -19.4636  -15.8308 C   0  0  1  0  0  0  0  0  0  0  0  0
   24.2119  -20.1919  -15.2575 C   0  0  0  0  0  0  0  0  0  0  0  0
   25.2369  -20.5243  -16.2881 C   0  0  0  0  0  0  0  0  0  0  0  0
   26.3531  -21.3871  -15.6906 C   0  0  0  0  0  0  0  0  0  0  0  0
   27.3921  -21.5670  -16.7758 C   0  0  0  0  0  0  0  0  0  0  0  0
   28.5978  -22.1717  -16.2573 N   0  0  0  0  0  0  0  0  0  0  0  0
   21.9125  -19.4682  -14.8894 C   0  0  0  0  0  0  0  0  0  0  0  0
   21.9130  -18.7228  -13.8957 O   0  0  0  0  0  0  0  0  0  0  0  0
   20.7616  -20.3099  -15.0389 N   0  0  0  0  0  0  0  0  0  0  0  0
   19.7234  -20.3098  -14.0381 C   0  0  0  0  0  0  0  0  0  0  0  0
   19.7702  -21.4684  -13.1427 C   0  0  0  0  0  0  0  0  0  0  0  0
   18.7344  -21.6281  -12.2314 O   0  0  0  0  0  0  0  0  0  0  0  0
   20.6872  -22.3262  -13.1466 O   0  0  0  0  0  0  0  0  0  0  0  0
  2  3  1  0
  2  1  1  6
  4  3  1  0
  5  2  1  0
  6  5  2  0
  7  5  1  0
  8  9  1  1
  8  7  1  0
 10  9  1  0
 11 12  1  0
 11 10  1  0
 13 12  1  0
 14  8  1  0
 14 15  2  0
 16 14  1  0
 17 18  1  0
 17 16  1  0
 18 19  1  0
 20 18  2  0
M  END
$$$$
