CKG.pdb
     RDKit          3D

 20 19  0  0  1  0  0  0  0  0999 V2000
   26.8159  -20.7648  -10.9432 N   0  0  0  0  0  0  0  0  0  0  0  0
   25.4625  -21.2214  -11.0336 C   0  0  1  0  0  0  0  0  0  0  0  0
   24.5799  -20.5423   -9.9874 C   0  0  0  0  0  0  0  0  0  0  0  0
   25.1041  -21.0102   -8.3311 S   0  0  0  0  0  0  0  0  0  0  0  0
   24.8775  -20.9665  -12.3856 C   0  0  0  0  0  0  0  0  0  0  0  0
   25.0196  -19.8224  -12.8847 O   0  0  0  0  0  0  0  0  0  0  0  0
   24.1769  -21.9611  -13.1132 N   0  0  0  0  0  0  0  0  0  0  0  0
   23.6846  -21.6369  -14.4558 C   0  0  1  0  0  0  0  0  0  0  0  0
   23.9961  -22.7615  -15.3979 C   0  0  0  0  0  0  0  0  0  0  0  0
   25.2730  -22.5516  -16.1388 C   0  0  0  0  0  0  0  0  0  0  0  0
   26.1649  -23.7945  -16.0539 C   0  0  0  0  0  0  0  0  0  0  0  0
   27.4095  -23.4926  -16.8596 C   0  0  0  0  0  0  0  0  0  0  0  0
   28.3402  -24.5976  -16.8274 N   0  0  0  0  0  0  0  0  0  0  0  0
   22.2478  -21.3597  -14.4361 C   0  0  0  0  0  0  0  0  0  0  0  0
   21.4774  -22.0418  -13.7401 O   0  0  0  0  0  0  0  0  0  0  0  0
   21.6378  -20.3092  -15.1975 N   0  0  0  0  0  0  0  0  0  0  0  0
   20.2094  -20.1155  -15.1584 C   0  0  0  0  0  0  0  0  0  0  0  0
   19.7344  -19.4938  -13.9197 C   0  0  0  0  0  0  0  0  0  0  0  0
   19.9969  -20.1468  -12.7224 O   0  0  0  0  0  0  0  0  0  0  0  0
   19.1051  -18.4084  -13.8717 O   0  0  0  0  0  0  0  0  0  0  0  0
  2  3  1  0
  2  1  1  6
  4  3  1  0
  5  2  1  0
  6  5  2  0
  7  5  1  0
  8  9  1  6
  8  7  1  0
 10  9  1  0
 11 12  1  0
 11 10  1  0
 13 12  1  0
 14  8  1  0
 14 15  2  0
 16 14  1  0
 17 18  1  0
 17 16  1  0
 18 19  1  0
 20 18  2  0
M  END
$$$$
