CKG.pdb
     RDKit          3D

 20 19  0  0  1  0  0  0  0  0999 V2000
   15.9552   -9.9634  -10.3365 N   0  0  0  0  0  0  0  0  0  0  0  0
   16.1042   -9.0295  -11.4106 C   0  0  1  0  0  0  0  0  0  0  0  0
   15.5953   -7.6448  -11.0126 C   0  0  0  0  0  0  0  0  0  0  0  0
   13.8020   -7.6575  -10.8683 S   0  0  0  0  0  0  0  0  0  0  0  0
   17.5286   -8.9042  -11.8467 C   0  0  0  0  0  0  0  0  0  0  0  0
   18.4116   -8.8020  -10.9588 O   0  0  0  0  0  0  0  0  0  0  0  0
   17.9105   -8.8972  -13.2119 N   0  0  0  0  0  0  0  0  0  0  0  0
   19.3363   -8.8162  -13.5447 C   0  0  1  0  0  0  0  0  0  0  0  0
   19.5616   -9.3088  -14.9432 C   0  0  0  0  0  0  0  0  0  0  0  0
   19.3995  -10.7862  -15.0638 C   0  0  0  0  0  0  0  0  0  0  0  0
   19.5266  -11.2328  -16.5238 C   0  0  0  0  0  0  0  0  0  0  0  0
   19.3208  -12.7317  -16.5397 C   0  0  0  0  0  0  0  0  0  0  0  0
   19.3805  -13.2586  -17.8840 N   0  0  0  0  0  0  0  0  0  0  0  0
   19.8355   -7.4494  -13.3895 C   0  0  0  0  0  0  0  0  0  0  0  0
   19.0962   -6.4738  -13.6016 O   0  0  0  0  0  0  0  0  0  0  0  0
   21.1782   -7.1416  -12.9921 N   0  0  0  0  0  0  0  0  0  0  0  0
   21.6114   -5.7701  -12.8883 C   0  0  0  0  0  0  0  0  0  0  0  0
   22.0234   -5.1856  -14.1670 C   0  0  0  0  0  0  0  0  0  0  0  0
   22.4361   -3.8595  -14.1727 O   0  0  0  0  0  0  0  0  0  0  0  0
   22.0271   -5.8072  -15.2579 O   0  0  0  0  0  0  0  0  0  0  0  0
  2  3  1  0
  2  1  1  1
  4  3  1  0
  5  2  1  0
  6  5  2  0
  7  5  1  0
  8  9  1  6
  8  7  1  0
 10  9  1  0
 11 12  1  0
 11 10  1  0
 13 12  1  0
 14  8  1  0
 14 15  2  0
 16 14  1  0
 17 18  1  0
 17 16  1  0
 18 19  1  0
 20 18  2  0
M  END
$$$$
