CKG.pdb
     RDKit          3D

 20 19  0  0  1  0  0  0  0  0999 V2000
   25.7888  -11.1950  -17.6460 N   0  0  0  0  0  0  0  0  0  0  0  0
   25.3089  -10.6537  -16.4111 C   0  0  1  0  0  0  0  0  0  0  0  0
   26.3508   -9.7403  -15.7669 C   0  0  0  0  0  0  0  0  0  0  0  0
   27.7510  -10.7071  -15.1823 S   0  0  0  0  0  0  0  0  0  0  0  0
   24.0459   -9.8757  -16.5971 C   0  0  0  0  0  0  0  0  0  0  0  0
   23.9120   -9.2105  -17.6545 O   0  0  0  0  0  0  0  0  0  0  0  0
   23.0080   -9.8643  -15.6316 N   0  0  0  0  0  0  0  0  0  0  0  0
   21.7940   -9.0907  -15.9107 C   0  0  1  0  0  0  0  0  0  0  0  0
   20.5852   -9.9631  -15.7470 C   0  0  0  0  0  0  0  0  0  0  0  0
   20.4458  -10.9615  -16.8456 C   0  0  0  0  0  0  0  0  0  0  0  0
   19.1709  -11.7930  -16.6703 C   0  0  0  0  0  0  0  0  0  0  0  0
   19.0851  -12.7153  -17.8667 C   0  0  0  0  0  0  0  0  0  0  0  0
   17.9899  -13.6490  -17.7359 N   0  0  0  0  0  0  0  0  0  0  0  0
   21.7077   -7.9164  -15.0416 C   0  0  0  0  0  0  0  0  0  0  0  0
   22.1472   -7.9503  -13.8803 O   0  0  0  0  0  0  0  0  0  0  0  0
   21.1254   -6.6727  -15.4536 N   0  0  0  0  0  0  0  0  0  0  0  0
   20.9733   -5.5916  -14.5116 C   0  0  0  0  0  0  0  0  0  0  0  0
   22.1187   -4.6788  -14.4746 C   0  0  0  0  0  0  0  0  0  0  0  0
   22.0627   -3.6004  -13.6013 O   0  0  0  0  0  0  0  0  0  0  0  0
   23.1476   -4.8094  -15.1822 O   0  0  0  0  0  0  0  0  0  0  0  0
  2  3  1  0
  2  1  1  6
  4  3  1  0
  5  2  1  0
  6  5  2  0
  7  5  1  0
  8  9  1  1
  8  7  1  0
 10  9  1  0
 11 12  1  0
 11 10  1  0
 13 12  1  0
 14  8  1  0
 14 15  2  0
 16 14  1  0
 17 18  1  0
 17 16  1  0
 18 19  1  0
 20 18  2  0
M  END
$$$$
