CKG.pdb
     RDKit          3D

 20 19  0  0  1  0  0  0  0  0999 V2000
   26.0271  -12.8608  -17.8976 N   0  0  0  0  0  0  0  0  0  0  0  0
   25.3528  -12.8495  -16.6353 C   0  0  1  0  0  0  0  0  0  0  0  0
   26.3447  -12.7144  -15.4809 C   0  0  0  0  0  0  0  0  0  0  0  0
   27.5198  -14.0765  -15.5061 S   0  0  0  0  0  0  0  0  0  0  0  0
   24.3621  -11.7338  -16.5427 C   0  0  0  0  0  0  0  0  0  0  0  0
   24.6722  -10.6250  -17.0455 O   0  0  0  0  0  0  0  0  0  0  0  0
   23.1004  -11.8843  -15.9141 N   0  0  0  0  0  0  0  0  0  0  0  0
   22.1241  -10.7957  -16.0229 C   0  0  1  0  0  0  0  0  0  0  0  0
   20.7334  -11.3453  -15.9085 C   0  0  0  0  0  0  0  0  0  0  0  0
   20.3739  -12.2371  -17.0481 C   0  0  0  0  0  0  0  0  0  0  0  0
   19.6732  -13.5052  -16.5499 C   0  0  0  0  0  0  0  0  0  0  0  0
   19.2992  -14.3065  -17.7778 C   0  0  0  0  0  0  0  0  0  0  0  0
   18.7647  -15.6008  -17.4209 N   0  0  0  0  0  0  0  0  0  0  0  0
   22.3627   -9.7720  -15.0047 C   0  0  0  0  0  0  0  0  0  0  0  0
   22.8760  -10.0677  -13.9128 O   0  0  0  0  0  0  0  0  0  0  0  0
   22.0311   -8.3889  -15.1854 N   0  0  0  0  0  0  0  0  0  0  0  0
   22.2861   -7.4349  -14.1347 C   0  0  0  0  0  0  0  0  0  0  0  0
   21.9959   -6.0502  -14.5151 C   0  0  0  0  0  0  0  0  0  0  0  0
   22.2630   -5.0515  -13.5875 O   0  0  0  0  0  0  0  0  0  0  0  0
   21.5212   -5.7087  -15.6262 O   0  0  0  0  0  0  0  0  0  0  0  0
  2  3  1  0
  2  1  1  6
  4  3  1  0
  5  2  1  0
  6  5  2  0
  7  5  1  0
  8  9  1  1
  8  7  1  0
 10  9  1  0
 11 12  1  0
 11 10  1  0
 13 12  1  0
 14  8  1  0
 14 15  2  0
 16 14  1  0
 17 18  1  0
 17 16  1  0
 18 19  1  0
 20 18  2  0
M  END
$$$$
