CKG.pdb
     RDKit          3D

 20 19  0  0  1  0  0  0  0  0999 V2000
   25.4325  -14.3064  -17.7859 N   0  0  0  0  0  0  0  0  0  0  0  0
   24.6255  -14.2481  -16.6054 C   0  0  1  0  0  0  0  0  0  0  0  0
   25.4909  -14.1990  -15.3471 C   0  0  0  0  0  0  0  0  0  0  0  0
   26.4585  -15.7084  -15.1969 S   0  0  0  0  0  0  0  0  0  0  0  0
   23.7217  -13.0572  -16.6065 C   0  0  0  0  0  0  0  0  0  0  0  0
   24.1778  -11.9697  -17.0398 O   0  0  0  0  0  0  0  0  0  0  0  0
   22.3841  -13.1145  -16.1405 N   0  0  0  0  0  0  0  0  0  0  0  0
   21.5184  -11.9474  -16.3371 C   0  0  1  0  0  0  0  0  0  0  0  0
   20.0857  -12.3834  -16.4160 C   0  0  0  0  0  0  0  0  0  0  0  0
   19.1642  -11.2642  -16.7647 C   0  0  0  0  0  0  0  0  0  0  0  0
   17.7080  -11.7401  -16.7820 C   0  0  0  0  0  0  0  0  0  0  0  0
   16.8737  -10.5706  -17.2570 C   0  0  0  0  0  0  0  0  0  0  0  0
   15.4861  -10.9417  -17.4150 N   0  0  0  0  0  0  0  0  0  0  0  0
   21.7044  -10.9685  -15.2653 C   0  0  0  0  0  0  0  0  0  0  0  0
   21.9780  -11.3338  -14.1100 O   0  0  0  0  0  0  0  0  0  0  0  0
   21.5880   -9.5532  -15.4623 N   0  0  0  0  0  0  0  0  0  0  0  0
   21.8437   -8.6423  -14.3741 C   0  0  0  0  0  0  0  0  0  0  0  0
   21.6491   -7.2341  -14.7284 C   0  0  0  0  0  0  0  0  0  0  0  0
   21.8771   -6.2790  -13.7461 O   0  0  0  0  0  0  0  0  0  0  0  0
   21.2895   -6.8356  -15.8635 O   0  0  0  0  0  0  0  0  0  0  0  0
  2  3  1  0
  2  1  1  6
  4  3  1  0
  5  2  1  0
  6  5  2  0
  7  5  1  0
  8  9  1  1
  8  7  1  0
 10  9  1  0
 11 12  1  0
 11 10  1  0
 13 12  1  0
 14  8  1  0
 14 15  2  0
 16 14  1  0
 17 18  1  0
 17 16  1  0
 18 19  1  0
 20 18  2  0
M  END
$$$$
