CKG.pdb
     RDKit          3D

 20 19  0  0  1  0  0  0  0  0999 V2000
   24.3151  -11.2825  -15.6674 N   0  0  0  0  0  0  0  0  0  0  0  0
   24.3979  -11.0335  -17.0743 C   0  0  1  0  0  0  0  0  0  0  0  0
   24.0693  -12.2911  -17.8777 C   0  0  0  0  0  0  0  0  0  0  0  0
   24.9790  -13.7010  -17.2282 S   0  0  0  0  0  0  0  0  0  0  0  0
   23.4713   -9.9413  -17.5025 C   0  0  0  0  0  0  0  0  0  0  0  0
   23.4819   -9.5972  -18.7108 O   0  0  0  0  0  0  0  0  0  0  0  0
   22.5923   -9.2898  -16.6012 N   0  0  0  0  0  0  0  0  0  0  0  0
   21.7024   -8.2442  -17.1159 C   0  0  1  0  0  0  0  0  0  0  0  0
   20.2753   -8.6002  -16.8228 C   0  0  0  0  0  0  0  0  0  0  0  0
   19.7889   -9.7438  -17.6467 C   0  0  0  0  0  0  0  0  0  0  0  0
   18.4097  -10.2124  -17.1716 C   0  0  0  0  0  0  0  0  0  0  0  0
   18.0028  -11.3547  -18.0766 C   0  0  0  0  0  0  0  0  0  0  0  0
   16.7790  -11.9762  -17.6244 N   0  0  0  0  0  0  0  0  0  0  0  0
   22.0391   -6.9394  -16.5453 C   0  0  0  0  0  0  0  0  0  0  0  0
   21.4385   -5.9132  -16.9049 O   0  0  0  0  0  0  0  0  0  0  0  0
   23.0594   -6.7521  -15.5557 N   0  0  0  0  0  0  0  0  0  0  0  0
   23.2930   -5.4476  -14.9874 C   0  0  0  0  0  0  0  0  0  0  0  0
   22.3320   -5.0803  -13.9444 C   0  0  0  0  0  0  0  0  0  0  0  0
   21.2223   -4.3327  -14.3170 O   0  0  0  0  0  0  0  0  0  0  0  0
   22.4476   -5.3982  -12.7353 O   0  0  0  0  0  0  0  0  0  0  0  0
  2  3  1  0
  2  1  1  1
  4  3  1  0
  5  2  1  0
  6  5  2  0
  7  5  1  0
  8  9  1  1
  8  7  1  0
 10  9  1  0
 11 12  1  0
 11 10  1  0
 13 12  1  0
 14  8  1  0
 14 15  2  0
 16 14  1  0
 17 18  1  0
 17 16  1  0
 18 19  1  0
 20 18  2  0
M  END
$$$$
