CKG.pdb
     RDKit          3D

 20 19  0  0  1  0  0  0  0  0999 V2000
   25.3303  -14.7228  -15.7191 N   0  0  0  0  0  0  0  0  0  0  0  0
   23.9839  -14.6108  -16.1913 C   0  0  1  0  0  0  0  0  0  0  0  0
   23.0019  -15.2626  -15.2189 C   0  0  0  0  0  0  0  0  0  0  0  0
   23.5126  -16.9487  -14.8539 S   0  0  0  0  0  0  0  0  0  0  0  0
   23.5796  -13.1853  -16.3896 C   0  0  0  0  0  0  0  0  0  0  0  0
   24.2156  -12.2986  -15.7668 O   0  0  0  0  0  0  0  0  0  0  0  0
   22.5158  -12.8064  -17.2465 N   0  0  0  0  0  0  0  0  0  0  0  0
   22.3018  -11.3811  -17.5170 C   0  0  1  0  0  0  0  0  0  0  0  0
   21.4817  -11.2164  -18.7618 C   0  0  0  0  0  0  0  0  0  0  0  0
   22.2683  -11.4658  -20.0037 C   0  0  0  0  0  0  0  0  0  0  0  0
   21.8063  -12.7530  -20.6943 C   0  0  0  0  0  0  0  0  0  0  0  0
   22.6235  -12.8847  -21.9609 C   0  0  0  0  0  0  0  0  0  0  0  0
   22.3372  -14.1236  -22.6475 N   0  0  0  0  0  0  0  0  0  0  0  0
   21.6578  -10.7214  -16.3805 C   0  0  0  0  0  0  0  0  0  0  0  0
   20.8450  -11.3322  -15.6668 O   0  0  0  0  0  0  0  0  0  0  0  0
   21.9094   -9.3580  -16.0152 N   0  0  0  0  0  0  0  0  0  0  0  0
   21.4140   -8.8348  -14.7661 C   0  0  0  0  0  0  0  0  0  0  0  0
   21.7375   -7.4221  -14.5512 C   0  0  0  0  0  0  0  0  0  0  0  0
   22.5390   -6.7883  -15.4917 O   0  0  0  0  0  0  0  0  0  0  0  0
   21.3362   -6.7480  -13.5708 O   0  0  0  0  0  0  0  0  0  0  0  0
  2  3  1  0
  2  1  1  1
  4  3  1  0
  5  2  1  0
  6  5  2  0
  7  5  1  0
  8  9  1  6
  8  7  1  0
 10  9  1  0
 11 12  1  0
 11 10  1  0
 13 12  1  0
 14  8  1  0
 14 15  2  0
 16 14  1  0
 17 18  1  0
 17 16  1  0
 18 19  1  0
 20 18  2  0
M  END
$$$$
