CKG.pdb
     RDKit          3D

 20 19  0  0  1  0  0  0  0  0999 V2000
   18.2340  -12.2901  -16.6620 N   0  0  0  0  0  0  0  0  0  0  0  0
   18.8388  -11.0783  -17.1247 C   0  0  1  0  0  0  0  0  0  0  0  0
   17.8961   -9.8887  -16.9486 C   0  0  0  0  0  0  0  0  0  0  0  0
   16.5667   -9.9625  -18.1587 S   0  0  0  0  0  0  0  0  0  0  0  0
   20.1154  -10.7825  -16.4052 C   0  0  0  0  0  0  0  0  0  0  0  0
   20.1428  -10.9444  -15.1596 O   0  0  0  0  0  0  0  0  0  0  0  0
   21.2810  -10.3313  -17.0741 N   0  0  0  0  0  0  0  0  0  0  0  0
   22.4939  -10.0841  -16.2880 C   0  0  1  0  0  0  0  0  0  0  0  0
   23.6602  -10.7867  -16.9166 C   0  0  0  0  0  0  0  0  0  0  0  0
   24.8839  -10.7400  -16.0658 C   0  0  0  0  0  0  0  0  0  0  0  0
   26.0463  -11.4767  -16.7391 C   0  0  0  0  0  0  0  0  0  0  0  0
   27.2308  -11.3671  -15.8041 C   0  0  0  0  0  0  0  0  0  0  0  0
   28.3777  -12.0796  -16.3191 N   0  0  0  0  0  0  0  0  0  0  0  0
   22.7573   -8.6498  -16.1650 C   0  0  0  0  0  0  0  0  0  0  0  0
   23.2787   -8.0161  -17.0975 O   0  0  0  0  0  0  0  0  0  0  0  0
   22.4421   -7.8889  -14.9914 N   0  0  0  0  0  0  0  0  0  0  0  0
   22.7295   -6.4768  -14.9393 C   0  0  0  0  0  0  0  0  0  0  0  0
   22.1563   -5.8032  -13.7714 C   0  0  0  0  0  0  0  0  0  0  0  0
   21.3730   -6.5560  -12.9061 O   0  0  0  0  0  0  0  0  0  0  0  0
   22.3280   -4.5887  -13.5029 O   0  0  0  0  0  0  0  0  0  0  0  0
  2  3  1  0
  2  1  1  1
  4  3  1  0
  5  2  1  0
  6  5  2  0
  7  5  1  0
  8  9  1  6
  8  7  1  0
 10  9  1  0
 11 12  1  0
 11 10  1  0
 13 12  1  0
 14  8  1  0
 14 15  2  0
 16 14  1  0
 17 18  1  0
 17 16  1  0
 18 19  1  0
 20 18  2  0
M  END
$$$$
