CKG.pdb
     RDKit          3D

 20 19  0  0  1  0  0  0  0  0999 V2000
   26.9756  -10.3943  -18.2592 N   0  0  0  0  0  0  0  0  0  0  0  0
   26.0887  -10.3038  -17.1396 C   0  0  1  0  0  0  0  0  0  0  0  0
   26.8639  -10.1372  -15.8335 C   0  0  0  0  0  0  0  0  0  0  0  0
   27.7002  -11.6714  -15.4049 S   0  0  0  0  0  0  0  0  0  0  0  0
   25.1354   -9.1602  -17.2748 C   0  0  0  0  0  0  0  0  0  0  0  0
   25.5217   -8.1394  -17.8972 O   0  0  0  0  0  0  0  0  0  0  0  0
   23.8267   -9.1897  -16.7306 N   0  0  0  0  0  0  0  0  0  0  0  0
   22.8895   -8.1208  -17.0901 C   0  0  1  0  0  0  0  0  0  0  0  0
   21.5282   -8.6992  -17.3384 C   0  0  0  0  0  0  0  0  0  0  0  0
   20.5496   -7.6789  -17.8125 C   0  0  0  0  0  0  0  0  0  0  0  0
   19.1736   -8.3098  -18.0493 C   0  0  0  0  0  0  0  0  0  0  0  0
   18.2816   -7.2160  -18.5946 C   0  0  0  0  0  0  0  0  0  0  0  0
   16.9990   -7.7378  -19.0081 N   0  0  0  0  0  0  0  0  0  0  0  0
   22.8352   -7.0963  -16.0466 C   0  0  0  0  0  0  0  0  0  0  0  0
   22.5978   -7.4020  -14.8662 O   0  0  0  0  0  0  0  0  0  0  0  0
   23.0461   -5.7012  -16.3007 N   0  0  0  0  0  0  0  0  0  0  0  0
   23.1770   -4.7724  -15.2055 C   0  0  0  0  0  0  0  0  0  0  0  0
   21.8970   -4.2446  -14.7263 C   0  0  0  0  0  0  0  0  0  0  0  0
   20.7360   -4.7019  -15.3361 O   0  0  0  0  0  0  0  0  0  0  0  0
   21.7828   -3.4053  -13.7995 O   0  0  0  0  0  0  0  0  0  0  0  0
  2  3  1  0
  2  1  1  6
  4  3  1  0
  5  2  1  0
  6  5  2  0
  7  5  1  0
  8  9  1  1
  8  7  1  0
 10  9  1  0
 11 12  1  0
 11 10  1  0
 13 12  1  0
 14  8  1  0
 14 15  2  0
 16 14  1  0
 17 18  1  0
 17 16  1  0
 18 19  1  0
 20 18  2  0
M  END
$$$$
