CKG.pdb
     RDKit          3D

 20 19  0  0  1  0  0  0  0  0999 V2000
   28.7227  -20.8683  -16.9582 N   0  0  0  0  0  0  0  0  0  0  0  0
   27.9314  -19.8556  -16.3286 C   0  0  1  0  0  0  0  0  0  0  0  0
   27.3143  -18.9149  -17.3626 C   0  0  0  0  0  0  0  0  0  0  0  0
   28.5370  -17.7224  -17.9285 S   0  0  0  0  0  0  0  0  0  0  0  0
   26.8308  -20.4410  -15.5033 C   0  0  0  0  0  0  0  0  0  0  0  0
   26.1895  -21.4120  -15.9770 O   0  0  0  0  0  0  0  0  0  0  0  0
   26.4918  -19.9426  -14.2203 N   0  0  0  0  0  0  0  0  0  0  0  0
   25.3933  -20.5773  -13.4851 C   0  0  1  0  0  0  0  0  0  0  0  0
   25.5746  -20.3615  -12.0121 C   0  0  0  0  0  0  0  0  0  0  0  0
   24.4917  -20.9908  -11.2029 C   0  0  0  0  0  0  0  0  0  0  0  0
   24.7276  -20.7671   -9.7057 C   0  0  0  0  0  0  0  0  0  0  0  0
   23.5552  -21.3928   -8.9823 C   0  0  0  0  0  0  0  0  0  0  0  0
   23.6560  -21.2058   -7.5529 N   0  0  0  0  0  0  0  0  0  0  0  0
   24.0972  -20.0627  -13.9290 C   0  0  0  0  0  0  0  0  0  0  0  0
   23.8863  -18.8403  -13.9946 O   0  0  0  0  0  0  0  0  0  0  0  0
   23.0035  -20.9072  -14.3111 N   0  0  0  0  0  0  0  0  0  0  0  0
   21.7597  -20.3312  -14.7591 C   0  0  0  0  0  0  0  0  0  0  0  0
   20.6865  -20.4037  -13.7644 C   0  0  0  0  0  0  0  0  0  0  0  0
   19.4309  -19.9341  -14.1274 O   0  0  0  0  0  0  0  0  0  0  0  0
   20.8296  -20.8634  -12.6048 O   0  0  0  0  0  0  0  0  0  0  0  0
  2  3  1  0
  2  1  1  6
  4  3  1  0
  5  2  1  0
  6  5  2  0
  7  5  1  0
  8  9  1  1
  8  7  1  0
 10  9  1  0
 11 12  1  0
 11 10  1  0
 13 12  1  0
 14  8  1  0
 14 15  2  0
 16 14  1  0
 17 18  1  0
 17 16  1  0
 18 19  1  0
 20 18  2  0
M  END
$$$$
