CKG.pdb
     RDKit          3D

 20 19  0  0  1  0  0  0  0  0999 V2000
   28.7169  -20.5683  -16.7305 N   0  0  0  0  0  0  0  0  0  0  0  0
   28.1230  -19.6508  -15.8065 C   0  0  1  0  0  0  0  0  0  0  0  0
   27.4562  -18.4860  -16.5369 C   0  0  0  0  0  0  0  0  0  0  0  0
   28.6949  -17.2983  -17.0776 S   0  0  0  0  0  0  0  0  0  0  0  0
   27.1013  -20.3150  -14.9405 C   0  0  0  0  0  0  0  0  0  0  0  0
   26.5573  -21.3641  -15.3669 O   0  0  0  0  0  0  0  0  0  0  0  0
   26.7312  -19.8061  -13.6702 N   0  0  0  0  0  0  0  0  0  0  0  0
   25.6851  -20.4984  -12.9109 C   0  0  1  0  0  0  0  0  0  0  0  0
   25.8486  -20.2182  -11.4466 C   0  0  0  0  0  0  0  0  0  0  0  0
   24.8710  -20.9681  -10.6069 C   0  0  0  0  0  0  0  0  0  0  0  0
   25.0718  -20.6531   -9.1210 C   0  0  0  0  0  0  0  0  0  0  0  0
   24.0671  -21.4897   -8.3593 C   0  0  0  0  0  0  0  0  0  0  0  0
   24.1515  -21.2504   -6.9366 N   0  0  0  0  0  0  0  0  0  0  0  0
   24.3531  -20.1018  -13.3693 C   0  0  0  0  0  0  0  0  0  0  0  0
   23.3319  -20.5673  -12.8367 O   0  0  0  0  0  0  0  0  0  0  0  0
   24.1324  -19.1720  -14.4380 N   0  0  0  0  0  0  0  0  0  0  0  0
   22.7934  -18.7632  -14.7836 C   0  0  0  0  0  0  0  0  0  0  0  0
   22.1692  -19.6023  -15.8096 C   0  0  0  0  0  0  0  0  0  0  0  0
   20.8910  -19.2655  -16.2358 O   0  0  0  0  0  0  0  0  0  0  0  0
   22.7162  -20.6065  -16.3281 O   0  0  0  0  0  0  0  0  0  0  0  0
  2  3  1  0
  2  1  1  6
  4  3  1  0
  5  2  1  0
  6  5  2  0
  7  5  1  0
  8  9  1  1
  8  7  1  0
 10  9  1  0
 11 12  1  0
 11 10  1  0
 13 12  1  0
 14  8  1  0
 14 15  2  0
 16 14  1  0
 17 18  1  0
 17 16  1  0
 18 19  1  0
 20 18  2  0
M  END
$$$$
