LMI.pdb
     RDKit          3D

 25 24  0  0  1  0  0  0  0  0999 V2000
   28.8029  -17.2152  -15.1199 C   0  0  0  0  0  0  0  0  0  0  0  0
   27.5338  -17.7375  -15.7408 C   0  0  2  0  0  0  0  0  0  0  0  0
   26.6983  -16.6029  -16.2797 C   0  0  0  0  0  0  0  0  0  0  0  0
   26.7791  -18.6305  -14.8117 C   0  0  0  0  0  0  0  0  0  0  0  0
   27.6268  -19.7534  -14.2564 C   0  0  2  0  0  0  0  0  0  0  0  0
   28.1347  -20.6282  -15.2558 N   0  0  0  0  0  0  0  0  0  0  0  0
   26.8734  -20.3950  -13.1791 C   0  0  0  0  0  0  0  0  0  0  0  0
   26.2060  -21.4316  -13.4878 O   0  0  0  0  0  0  0  0  0  0  0  0
   27.7288  -20.0845   -6.5624 C   0  0  0  0  0  0  0  0  0  0  0  0
   25.9528  -20.3601   -6.7373 S   0  0  0  0  0  0  0  0  0  0  0  0
   25.5098  -20.8563   -8.3993 C   0  0  0  0  0  0  0  0  0  0  0  0
   26.3263  -20.2298   -9.4765 C   0  0  0  0  0  0  0  0  0  0  0  0
   25.9259  -20.6485  -10.8778 C   0  0  2  0  0  0  0  0  0  0  0  0
   26.8192  -19.9753  -11.8449 N   0  0  0  0  0  0  0  0  0  0  0  0
   24.5535  -20.3353  -11.2532 C   0  0  0  0  0  0  0  0  0  0  0  0
   24.1678  -19.1336  -11.4684 O   0  0  0  0  0  0  0  0  0  0  0  0
   20.0717  -21.8806  -14.8679 C   0  0  0  0  0  0  0  0  0  0  0  0
   20.4508  -21.3507  -13.4981 C   0  0  0  0  0  0  0  0  0  0  0  0
   21.8913  -21.6579  -13.1694 C   0  0  2  0  0  0  0  0  0  0  0  0
   22.1406  -23.1192  -12.9726 C   0  0  0  0  0  0  0  0  0  0  0  0
   22.1614  -20.9980  -11.7896 C   0  0  2  0  0  0  0  0  0  0  0  0
   23.5239  -21.3268  -11.4235 N   0  0  0  0  0  0  0  0  0  0  0  0
   21.1515  -21.4726  -10.8294 C   0  0  0  0  0  0  0  0  0  0  0  0
   19.8715  -20.9475  -10.7750 O   0  0  0  0  0  0  0  0  0  0  0  0
   21.4439  -22.3844  -10.0245 O   0  0  0  0  0  0  0  0  0  0  0  0
  2  1  1  1
  3  2  1  0
  4  2  1  0
  4  5  1  0
  5  6  1  6
  7  8  2  0
  7  5  1  0
 10 11  1  0
 10  9  1  0
 11 12  1  0
 13 12  1  1
 13 14  1  0
 14  7  1  0
 15 16  2  0
 15 13  1  0
 18 19  1  0
 18 17  1  0
 19 21  1  0
 19 20  1  1
 21 22  1  1
 22 15  1  0
 23 21  1  0
 24 23  1  0
 25 23  2  0
M  END
$$$$
