LMI.pdb
     RDKit          3D

 25 24  0  0  1  0  0  0  0  0999 V2000
   24.0202  -15.6744  -15.7606 C   0  0  0  0  0  0  0  0  0  0  0  0
   25.2467  -16.3804  -16.2764 C   0  0  2  0  0  0  0  0  0  0  0  0
   25.2305  -16.4436  -17.7836 C   0  0  0  0  0  0  0  0  0  0  0  0
   25.4379  -17.7160  -15.6364 C   0  0  0  0  0  0  0  0  0  0  0  0
   25.3892  -17.6572  -14.1258 C   0  0  2  0  0  0  0  0  0  0  0  0
   26.3358  -16.7581  -13.5624 N   0  0  0  0  0  0  0  0  0  0  0  0
   25.4427  -19.0290  -13.6205 C   0  0  0  0  0  0  0  0  0  0  0  0
   25.6998  -19.9403  -14.4683 O   0  0  0  0  0  0  0  0  0  0  0  0
   25.6197  -20.0576   -7.2749 C   0  0  0  0  0  0  0  0  0  0  0  0
   27.1891  -20.3137   -8.1305 S   0  0  0  0  0  0  0  0  0  0  0  0
   26.9871  -20.3518   -9.9088 C   0  0  0  0  0  0  0  0  0  0  0  0
   25.6678  -20.8622  -10.3766 C   0  0  0  0  0  0  0  0  0  0  0  0
   25.4906  -20.8272  -11.8821 C   0  0  2  0  0  0  0  0  0  0  0  0
   25.2380  -19.4301  -12.2952 N   0  0  0  0  0  0  0  0  0  0  0  0
   24.4013  -21.6441  -12.4002 C   0  0  0  0  0  0  0  0  0  0  0  0
   23.1781  -21.4077  -12.1050 O   0  0  0  0  0  0  0  0  0  0  0  0
   22.7243  -21.9883  -16.9948 C   0  0  0  0  0  0  0  0  0  0  0  0
   22.8705  -22.2099  -15.5014 C   0  0  0  0  0  0  0  0  0  0  0  0
   23.3837  -23.5965  -15.1992 C   0  0  2  0  0  0  0  0  0  0  0  0
   22.4074  -24.6676  -15.5674 C   0  0  0  0  0  0  0  0  0  0  0  0
   23.5222  -23.6700  -13.6540 C   0  0  2  0  0  0  0  0  0  0  0  0
   24.5912  -22.7658  -13.2822 N   0  0  0  0  0  0  0  0  0  0  0  0
   23.7579  -25.0696  -13.2635 C   0  0  0  0  0  0  0  0  0  0  0  0
   22.7320  -25.9919  -13.1444 O   0  0  0  0  0  0  0  0  0  0  0  0
   24.9231  -25.4576  -13.0264 O   0  0  0  0  0  0  0  0  0  0  0  0
  2  1  1  1
  3  2  1  0
  4  2  1  0
  4  5  1  0
  5  6  1  1
  7  8  2  0
  7  5  1  0
 10 11  1  0
 10  9  1  0
 11 12  1  0
 13 12  1  1
 13 14  1  0
 14  7  1  0
 15 16  2  0
 15 13  1  0
 18 19  1  0
 18 17  1  0
 19 21  1  0
 19 20  1  1
 21 22  1  6
 22 15  1  0
 23 21  1  0
 24 23  1  0
 25 23  2  0
M  END
$$$$
