LMI.pdb
     RDKit          3D

 25 24  0  0  1  0  0  0  0  0999 V2000
   24.9104  -17.7566  -17.7110 C   0  0  0  0  0  0  0  0  0  0  0  0
   24.7467  -19.2489  -17.8348 C   0  0  2  0  0  0  0  0  0  0  0  0
   23.3679  -19.5933  -18.3407 C   0  0  0  0  0  0  0  0  0  0  0  0
   25.1013  -19.9604  -16.5706 C   0  0  0  0  0  0  0  0  0  0  0  0
   26.4575  -19.5625  -16.0317 C   0  0  2  0  0  0  0  0  0  0  0  0
   27.5064  -19.6940  -16.9828 N   0  0  0  0  0  0  0  0  0  0  0  0
   26.6617  -20.2652  -14.7650 C   0  0  0  0  0  0  0  0  0  0  0  0
   25.6820  -20.9444  -14.3243 O   0  0  0  0  0  0  0  0  0  0  0  0
   32.3675  -20.9684  -11.5445 C   0  0  0  0  0  0  0  0  0  0  0  0
   31.2439  -21.7984  -10.4003 S   0  0  0  0  0  0  0  0  0  0  0  0
   29.5382  -21.6844  -10.9313 C   0  0  0  0  0  0  0  0  0  0  0  0
   29.3448  -21.1076  -12.2913 C   0  0  0  0  0  0  0  0  0  0  0  0
   27.8926  -20.9874  -12.7105 C   0  0  2  0  0  0  0  0  0  0  0  0
   27.8312  -20.2593  -13.9960 N   0  0  0  0  0  0  0  0  0  0  0  0
   27.0277  -20.2910  -11.7674 C   0  0  0  0  0  0  0  0  0  0  0  0
   27.0400  -19.0159  -11.6517 O   0  0  0  0  0  0  0  0  0  0  0  0
   22.0512  -20.4359  -11.7953 C   0  0  0  0  0  0  0  0  0  0  0  0
   23.4818  -20.0868  -11.4315 C   0  0  0  0  0  0  0  0  0  0  0  0
   23.8489  -20.6223  -10.0693 C   0  0  2  0  0  0  0  0  0  0  0  0
   23.1168  -19.9352   -8.9612 C   0  0  0  0  0  0  0  0  0  0  0  0
   25.3470  -20.2678   -9.8638 C   0  0  2  0  0  0  0  0  0  0  0  0
   26.0898  -20.9549  -10.9005 N   0  0  0  0  0  0  0  0  0  0  0  0
   25.7411  -20.6418   -8.4957 C   0  0  0  0  0  0  0  0  0  0  0  0
   25.8216  -19.7198   -7.4659 O   0  0  0  0  0  0  0  0  0  0  0  0
   26.0173  -21.8338   -8.2359 O   0  0  0  0  0  0  0  0  0  0  0  0
  2  1  1  1
  3  2  1  0
  4  2  1  0
  4  5  1  0
  5  6  1  6
  7  8  2  0
  7  5  1  0
 10 11  1  0
 10  9  1  0
 11 12  1  0
 13 12  1  1
 13 14  1  0
 14  7  1  0
 15 16  2  0
 15 13  1  0
 18 19  1  0
 18 17  1  0
 19 21  1  0
 19 20  1  1
 21 22  1  6
 22 15  1  0
 23 21  1  0
 24 23  1  0
 25 23  2  0
M  END
$$$$
