LMI.pdb
     RDKit          3D

 25 24  0  0  1  0  0  0  0  0999 V2000
   19.9640  -17.9425  -20.9669 C   0  0  0  0  0  0  0  0  0  0  0  0
   20.8524  -18.5634  -19.9209 C   0  0  2  0  0  0  0  0  0  0  0  0
   20.1625  -19.7318  -19.2615 C   0  0  0  0  0  0  0  0  0  0  0  0
   21.3597  -17.5551  -18.9432 C   0  0  0  0  0  0  0  0  0  0  0  0
   22.0257  -16.3719  -19.6099 C   0  0  2  0  0  0  0  0  0  0  0  0
   23.0908  -16.7361  -20.4788 N   0  0  0  0  0  0  0  0  0  0  0  0
   22.3634  -15.4009  -18.5693 C   0  0  0  0  0  0  0  0  0  0  0  0
   21.4345  -15.0821  -17.7625 O   0  0  0  0  0  0  0  0  0  0  0  0
   27.6911  -17.1204  -15.2720 C   0  0  0  0  0  0  0  0  0  0  0  0
   27.3143  -15.4332  -15.7934 S   0  0  0  0  0  0  0  0  0  0  0  0
   25.5884  -15.2320  -16.2239 C   0  0  0  0  0  0  0  0  0  0  0  0
   25.2410  -13.9063  -16.8082 C   0  0  0  0  0  0  0  0  0  0  0  0
   23.8100  -13.8035  -17.2990 C   0  0  2  0  0  0  0  0  0  0  0  0
   23.6096  -14.7923  -18.3799 N   0  0  0  0  0  0  0  0  0  0  0  0
   23.4216  -12.4986  -17.8176 C   0  0  0  0  0  0  0  0  0  0  0  0
   23.4658  -11.4424  -17.0953 O   0  0  0  0  0  0  0  0  0  0  0  0
   24.9451  -10.9626  -22.6660 C   0  0  0  0  0  0  0  0  0  0  0  0
   24.4489  -10.9839  -21.2328 C   0  0  0  0  0  0  0  0  0  0  0  0
   22.9418  -10.9347  -21.1722 C   0  0  2  0  0  0  0  0  0  0  0  0
   22.3839   -9.6474  -21.6895 C   0  0  0  0  0  0  0  0  0  0  0  0
   22.5766  -10.9723  -19.6630 C   0  0  2  0  0  0  0  0  0  0  0  0
   22.9693  -12.2751  -19.1657 N   0  0  0  0  0  0  0  0  0  0  0  0
   21.1415  -10.6810  -19.5134 C   0  0  0  0  0  0  0  0  0  0  0  0
   20.6710   -9.4397  -19.1200 O   0  0  0  0  0  0  0  0  0  0  0  0
   20.3010  -11.5777  -19.7462 O   0  0  0  0  0  0  0  0  0  0  0  0
  2  1  1  6
  3  2  1  0
  4  2  1  0
  4  5  1  0
  5  6  1  1
  7  8  2  0
  7  5  1  0
 10 11  1  0
 10  9  1  0
 11 12  1  0
 13 12  1  6
 13 14  1  0
 14  7  1  0
 15 16  2  0
 15 13  1  0
 18 19  1  0
 18 17  1  0
 19 21  1  0
 19 20  1  1
 21 22  1  6
 22 15  1  0
 23 21  1  0
 24 23  1  0
 25 23  2  0
M  END
$$$$
