LMI.pdb
     RDKit          3D

 25 24  0  0  1  0  0  0  0  0999 V2000
   19.4705  -11.9398  -21.5617 C   0  0  0  0  0  0  0  0  0  0  0  0
   18.0363  -11.9001  -21.1030 C   0  0  2  0  0  0  0  0  0  0  0  0
   17.1207  -11.5429  -22.2474 C   0  0  0  0  0  0  0  0  0  0  0  0
   17.8517  -11.0218  -19.9093 C   0  0  0  0  0  0  0  0  0  0  0  0
   18.2967  -11.6780  -18.6212 C   0  0  2  0  0  0  0  0  0  0  0  0
   17.5377  -12.8312  -18.2806 N   0  0  0  0  0  0  0  0  0  0  0  0
   18.3689  -10.6423  -17.5907 C   0  0  0  0  0  0  0  0  0  0  0  0
   17.2983  -10.3977  -16.9509 O   0  0  0  0  0  0  0  0  0  0  0  0
   23.2703   -9.7424  -13.4526 C   0  0  0  0  0  0  0  0  0  0  0  0
   21.8239   -8.9748  -12.6915 S   0  0  0  0  0  0  0  0  0  0  0  0
   20.6063   -8.4815  -13.9076 C   0  0  0  0  0  0  0  0  0  0  0  0
   20.5563   -9.3393  -15.1247 C   0  0  0  0  0  0  0  0  0  0  0  0
   19.4679   -8.9540  -16.1076 C   0  0  2  0  0  0  0  0  0  0  0  0
   19.5030   -9.8985  -17.2447 N   0  0  0  0  0  0  0  0  0  0  0  0
   19.5679   -7.6059  -16.6507 C   0  0  0  0  0  0  0  0  0  0  0  0
   20.4550   -7.2894  -17.5180 O   0  0  0  0  0  0  0  0  0  0  0  0
   15.8653   -5.0578  -19.0492 C   0  0  0  0  0  0  0  0  0  0  0  0
   17.2245   -5.4193  -18.4811 C   0  0  0  0  0  0  0  0  0  0  0  0
   17.5193   -4.6398  -17.2230 C   0  0  2  0  0  0  0  0  0  0  0  0
   17.7109   -3.1791  -17.4792 C   0  0  0  0  0  0  0  0  0  0  0  0
   18.8920   -5.1588  -16.7144 C   0  0  2  0  0  0  0  0  0  0  0  0
   18.6917   -6.5259  -16.2791 N   0  0  0  0  0  0  0  0  0  0  0  0
   19.3790   -4.2581  -15.6569 C   0  0  0  0  0  0  0  0  0  0  0  0
   18.9457   -4.3478  -14.3449 O   0  0  0  0  0  0  0  0  0  0  0  0
   20.2164   -3.3720  -15.9365 O   0  0  0  0  0  0  0  0  0  0  0  0
  2  1  1  6
  3  2  1  0
  4  2  1  0
  4  5  1  0
  5  6  1  1
  7  8  2  0
  7  5  1  0
 10 11  1  0
 10  9  1  0
 11 12  1  0
 13 12  1  1
 13 14  1  0
 14  7  1  0
 15 16  2  0
 15 13  1  0
 18 19  1  0
 18 17  1  0
 19 21  1  0
 19 20  1  6
 21 22  1  1
 22 15  1  0
 23 21  1  0
 24 23  1  0
 25 23  2  0
M  END
$$$$
