LMI.pdb
     RDKit          3D

 25 24  0  0  1  0  0  0  0  0999 V2000
   24.2685  -17.8609  -15.5916 C   0  0  0  0  0  0  0  0  0  0  0  0
   23.9928  -19.3354  -15.7295 C   0  0  2  0  0  0  0  0  0  0  0  0
   22.8294  -19.5750  -16.6594 C   0  0  0  0  0  0  0  0  0  0  0  0
   23.8304  -20.0037  -14.4040 C   0  0  0  0  0  0  0  0  0  0  0  0
   24.9732  -19.7161  -13.4558 C   0  0  2  0  0  0  0  0  0  0  0  0
   26.2549  -19.9541  -14.0237 N   0  0  0  0  0  0  0  0  0  0  0  0
   24.7003  -20.4123  -12.1985 C   0  0  0  0  0  0  0  0  0  0  0  0
   23.7837  -21.2926  -12.2205 O   0  0  0  0  0  0  0  0  0  0  0  0
   27.1783  -20.0214   -5.5851 C   0  0  0  0  0  0  0  0  0  0  0  0
   27.5659  -19.1383   -7.1117 S   0  0  0  0  0  0  0  0  0  0  0  0
   26.3303  -19.4103   -8.3782 C   0  0  0  0  0  0  0  0  0  0  0  0
   26.1359  -20.8359   -8.7649 C   0  0  0  0  0  0  0  0  0  0  0  0
   25.0549  -21.0515   -9.8062 C   0  0  2  0  0  0  0  0  0  0  0  0
   25.3521  -20.2003  -10.9781 N   0  0  0  0  0  0  0  0  0  0  0  0
   23.6994  -20.7435   -9.3698 C   0  0  0  0  0  0  0  0  0  0  0  0
   23.2600  -19.5419   -9.3220 O   0  0  0  0  0  0  0  0  0  0  0  0
   19.6610  -22.1191  -11.7430 C   0  0  0  0  0  0  0  0  0  0  0  0
   20.5609  -21.4646  -10.7122 C   0  0  0  0  0  0  0  0  0  0  0  0
   20.3856  -22.0929   -9.3514 C   0  0  2  0  0  0  0  0  0  0  0  0
   19.0562  -21.7858   -8.7395 C   0  0  0  0  0  0  0  0  0  0  0  0
   21.4364  -21.4129   -8.4318 C   0  0  2  0  0  0  0  0  0  0  0  0
   22.7418  -21.7403   -8.9679 N   0  0  0  0  0  0  0  0  0  0  0  0
   21.2246  -21.8697   -7.0486 C   0  0  0  0  0  0  0  0  0  0  0  0
   20.3219  -21.2605   -6.1935 O   0  0  0  0  0  0  0  0  0  0  0  0
   21.8768  -22.8439   -6.6124 O   0  0  0  0  0  0  0  0  0  0  0  0
  2  1  1  1
  3  2  1  0
  4  2  1  0
  4  5  1  0
  5  6  1  6
  7  8  2  0
  7  5  1  0
 10 11  1  0
 10  9  1  0
 11 12  1  0
 13 12  1  1
 13 14  1  0
 14  7  1  0
 15 16  2  0
 15 13  1  0
 18 19  1  0
 18 17  1  0
 19 21  1  0
 19 20  1  1
 21 22  1  6
 22 15  1  0
 23 21  1  0
 24 23  1  0
 25 23  2  0
M  END
$$$$
