LMI.pdb
     RDKit          3D

 25 24  0  0  1  0  0  0  0  0999 V2000
   23.0798  -19.1039  -13.4315 C   0  0  0  0  0  0  0  0  0  0  0  0
   22.4317  -20.1629  -12.5787 C   0  0  2  0  0  0  0  0  0  0  0  0
   21.1122  -19.6746  -12.0344 C   0  0  0  0  0  0  0  0  0  0  0  0
   23.3511  -20.6709  -11.5172 C   0  0  0  0  0  0  0  0  0  0  0  0
   24.7231  -21.0244  -12.0467 C   0  0  2  0  0  0  0  0  0  0  0  0
   24.7025  -22.0383  -13.0434 N   0  0  0  0  0  0  0  0  0  0  0  0
   25.5944  -21.2831  -10.9004 C   0  0  0  0  0  0  0  0  0  0  0  0
   25.2125  -22.1788  -10.0836 O   0  0  0  0  0  0  0  0  0  0  0  0
   32.2537  -22.2560  -10.0192 C   0  0  0  0  0  0  0  0  0  0  0  0
   31.1306  -22.2712  -11.4331 S   0  0  0  0  0  0  0  0  0  0  0  0
   29.4147  -22.1886  -10.9299 C   0  0  0  0  0  0  0  0  0  0  0  0
   29.0999  -21.1020   -9.9604 C   0  0  0  0  0  0  0  0  0  0  0  0
   27.6561  -21.0866   -9.4973 C   0  0  2  0  0  0  0  0  0  0  0  0
   26.8050  -20.6388  -10.6205 N   0  0  0  0  0  0  0  0  0  0  0  0
   27.3761  -20.2209   -8.3595 C   0  0  0  0  0  0  0  0  0  0  0  0
   26.8226  -19.0750   -8.5004 O   0  0  0  0  0  0  0  0  0  0  0  0
   27.4989  -22.1357   -3.1056 C   0  0  0  0  0  0  0  0  0  0  0  0
   27.1446  -21.2794   -4.3065 C   0  0  0  0  0  0  0  0  0  0  0  0
   28.2734  -20.3451   -4.6674 C   0  0  2  0  0  0  0  0  0  0  0  0
   28.5061  -19.2919   -3.6316 C   0  0  0  0  0  0  0  0  0  0  0  0
   27.8050  -19.5853   -5.9385 C   0  0  2  0  0  0  0  0  0  0  0  0
   27.6801  -20.5677   -6.9958 N   0  0  0  0  0  0  0  0  0  0  0  0
   28.7658  -18.5090   -6.2305 C   0  0  0  0  0  0  0  0  0  0  0  0
   29.9788  -18.7435   -6.8555 O   0  0  0  0  0  0  0  0  0  0  0  0
   28.4921  -17.3317   -5.9086 O   0  0  0  0  0  0  0  0  0  0  0  0
  2  1  1  1
  3  2  1  0
  4  2  1  0
  4  5  1  0
  5  6  1  6
  7  8  2  0
  7  5  1  0
 10 11  1  0
 10  9  1  0
 11 12  1  0
 13 12  1  6
 13 14  1  0
 14  7  1  0
 15 16  2  0
 15 13  1  0
 18 19  1  0
 18 17  1  0
 19 21  1  0
 19 20  1  1
 21 22  1  6
 22 15  1  0
 23 21  1  0
 24 23  1  0
 25 23  2  0
M  END
$$$$
