LMI.pdb
     RDKit          3D

 25 24  0  0  1  0  0  0  0  0999 V2000
   27.0519  -18.3909  -18.8860 C   0  0  0  0  0  0  0  0  0  0  0  0
   27.3578  -19.8625  -18.7869 C   0  0  2  0  0  0  0  0  0  0  0  0
   27.0711  -20.5554  -20.0957 C   0  0  0  0  0  0  0  0  0  0  0  0
   26.6739  -20.5020  -17.6235 C   0  0  0  0  0  0  0  0  0  0  0  0
   26.9397  -19.7859  -16.3180 C   0  0  2  0  0  0  0  0  0  0  0  0
   28.3226  -19.5966  -16.0464 N   0  0  0  0  0  0  0  0  0  0  0  0
   26.1773  -20.4642  -15.2699 C   0  0  0  0  0  0  0  0  0  0  0  0
   25.2619  -21.2584  -15.6527 O   0  0  0  0  0  0  0  0  0  0  0  0
   25.8859  -19.8368   -8.1541 C   0  0  0  0  0  0  0  0  0  0  0  0
   26.0379  -21.4995   -8.8417 S   0  0  0  0  0  0  0  0  0  0  0  0
   25.3297  -21.6164  -10.4816 C   0  0  0  0  0  0  0  0  0  0  0  0
   26.1322  -20.9674  -11.5561 C   0  0  0  0  0  0  0  0  0  0  0  0
   25.5052  -21.0554  -12.9339 C   0  0  2  0  0  0  0  0  0  0  0  0
   26.3613  -20.3206  -13.8897 N   0  0  0  0  0  0  0  0  0  0  0  0
   24.1577  -20.5121  -13.0409 C   0  0  0  0  0  0  0  0  0  0  0  0
   23.9275  -19.2543  -12.9753 O   0  0  0  0  0  0  0  0  0  0  0  0
   21.1873  -20.8356  -16.9908 C   0  0  0  0  0  0  0  0  0  0  0  0
   21.7477  -20.5122  -15.6189 C   0  0  0  0  0  0  0  0  0  0  0  0
   20.9483  -21.1804  -14.5272 C   0  0  2  0  0  0  0  0  0  0  0  0
   19.5510  -20.6568  -14.4305 C   0  0  0  0  0  0  0  0  0  0  0  0
   21.6372  -20.7826  -13.1932 C   0  0  2  0  0  0  0  0  0  0  0  0
   22.9820  -21.3196  -13.2357 N   0  0  0  0  0  0  0  0  0  0  0  0
   20.8267  -21.2839  -12.0713 C   0  0  0  0  0  0  0  0  0  0  0  0
   20.0494  -20.4512  -11.2841 O   0  0  0  0  0  0  0  0  0  0  0  0
   20.8286  -22.5060  -11.8047 O   0  0  0  0  0  0  0  0  0  0  0  0
  2  1  1  6
  3  2  1  0
  4  2  1  0
  4  5  1  0
  5  6  1  1
  7  8  2  0
  7  5  1  0
 10 11  1  0
 10  9  1  0
 11 12  1  0
 13 12  1  1
 13 14  1  0
 14  7  1  0
 15 16  2  0
 15 13  1  0
 18 19  1  0
 18 17  1  0
 19 21  1  0
 19 20  1  1
 21 22  1  6
 22 15  1  0
 23 21  1  0
 24 23  1  0
 25 23  2  0
M  END
$$$$
