LMI.pdb
     RDKit          3D

 25 24  0  0  1  0  0  0  0  0999 V2000
   27.8333  -17.5803  -17.9181 C   0  0  0  0  0  0  0  0  0  0  0  0
   28.6992  -18.5157  -17.1154 C   0  0  2  0  0  0  0  0  0  0  0  0
   29.6109  -19.3062  -18.0208 C   0  0  0  0  0  0  0  0  0  0  0  0
   27.8962  -19.3766  -16.1967 C   0  0  0  0  0  0  0  0  0  0  0  0
   26.9979  -18.5790  -15.2777 C   0  0  2  0  0  0  0  0  0  0  0  0
   27.6376  -17.4473  -14.7012 N   0  0  0  0  0  0  0  0  0  0  0  0
   26.3850  -19.5091  -14.3295 C   0  0  0  0  0  0  0  0  0  0  0  0
   25.8031  -20.5260  -14.8221 O   0  0  0  0  0  0  0  0  0  0  0  0
   27.5176  -20.5046   -7.7506 C   0  0  0  0  0  0  0  0  0  0  0  0
   25.7451  -20.7707   -7.9694 S   0  0  0  0  0  0  0  0  0  0  0  0
   25.3095  -21.0187   -9.6879 C   0  0  0  0  0  0  0  0  0  0  0  0
   26.0061  -20.1145  -10.6455 C   0  0  0  0  0  0  0  0  0  0  0  0
   25.6213  -20.3358  -12.0954 C   0  0  2  0  0  0  0  0  0  0  0  0
   26.3797  -19.3842  -12.9354 N   0  0  0  0  0  0  0  0  0  0  0  0
   24.2071  -20.1612  -12.3981 C   0  0  0  0  0  0  0  0  0  0  0  0
   23.6674  -19.0021  -12.4670 O   0  0  0  0  0  0  0  0  0  0  0  0
   22.1571  -21.8854  -16.6414 C   0  0  0  0  0  0  0  0  0  0  0  0
   22.3849  -21.2067  -15.3041 C   0  0  0  0  0  0  0  0  0  0  0  0
   21.5627  -21.8497  -14.2143 C   0  0  2  0  0  0  0  0  0  0  0  0
   20.0916  -21.6839  -14.4254 C   0  0  0  0  0  0  0  0  0  0  0  0
   21.8902  -21.0629  -12.9158 C   0  0  2  0  0  0  0  0  0  0  0  0
   23.3022  -21.2514  -12.6524 N   0  0  0  0  0  0  0  0  0  0  0  0
   21.0101  -21.5391  -11.8362 C   0  0  0  0  0  0  0  0  0  0  0  0
   19.9495  -20.7900  -11.3554 O   0  0  0  0  0  0  0  0  0  0  0  0
   21.2137  -22.6611  -11.3220 O   0  0  0  0  0  0  0  0  0  0  0  0
  2  1  1  6
  3  2  1  0
  4  2  1  0
  4  5  1  0
  5  6  1  1
  7  8  2  0
  7  5  1  0
 10 11  1  0
 10  9  1  0
 11 12  1  0
 13 12  1  1
 13 14  1  0
 14  7  1  0
 15 16  2  0
 15 13  1  0
 18 19  1  0
 18 17  1  0
 19 21  1  0
 19 20  1  6
 21 22  1  1
 22 15  1  0
 23 21  1  0
 24 23  1  0
 25 23  2  0
M  END
$$$$
