LMI.pdb
     RDKit          3D

 25 24  0  0  1  0  0  0  0  0999 V2000
   28.4259  -17.4612  -15.4157 C   0  0  0  0  0  0  0  0  0  0  0  0
   27.5141  -18.2875  -16.2846 C   0  0  2  0  0  0  0  0  0  0  0  0
   26.6734  -17.4007  -17.1691 C   0  0  0  0  0  0  0  0  0  0  0  0
   26.7042  -19.2569  -15.4879 C   0  0  0  0  0  0  0  0  0  0  0  0
   27.5532  -20.1658  -14.6273 C   0  0  2  0  0  0  0  0  0  0  0  0
   28.3805  -21.0466  -15.3770 N   0  0  0  0  0  0  0  0  0  0  0  0
   26.6759  -20.8049  -13.6466 C   0  0  0  0  0  0  0  0  0  0  0  0
   26.1421  -21.9061  -13.9899 O   0  0  0  0  0  0  0  0  0  0  0  0
   26.3042  -19.5435   -7.2550 C   0  0  0  0  0  0  0  0  0  0  0  0
   27.2929  -20.9148   -7.8895 S   0  0  0  0  0  0  0  0  0  0  0  0
   26.8721  -21.3206   -9.5815 C   0  0  0  0  0  0  0  0  0  0  0  0
   25.6229  -20.6833  -10.0844 C   0  0  0  0  0  0  0  0  0  0  0  0
   25.3293  -20.9671  -11.5447 C   0  0  2  0  0  0  0  0  0  0  0  0
   26.3706  -20.3186  -12.3701 N   0  0  0  0  0  0  0  0  0  0  0  0
   24.0343  -20.5005  -12.0218 C   0  0  0  0  0  0  0  0  0  0  0  0
   23.8420  -19.2866  -12.3805 O   0  0  0  0  0  0  0  0  0  0  0  0
   20.8053  -20.6420  -16.5329 C   0  0  0  0  0  0  0  0  0  0  0  0
   20.6424  -20.6667  -15.0250 C   0  0  0  0  0  0  0  0  0  0  0  0
   21.9102  -21.1186  -14.3426 C   0  0  2  0  0  0  0  0  0  0  0  0
   22.1796  -22.5775  -14.5303 C   0  0  0  0  0  0  0  0  0  0  0  0
   21.6625  -20.9314  -12.8208 C   0  0  2  0  0  0  0  0  0  0  0  0
   22.8739  -21.3439  -12.1417 N   0  0  0  0  0  0  0  0  0  0  0  0
   20.4677  -21.6999  -12.4352 C   0  0  0  0  0  0  0  0  0  0  0  0
   20.5449  -22.9564  -11.8587 O   0  0  0  0  0  0  0  0  0  0  0  0
   19.3312  -21.2145  -12.6285 O   0  0  0  0  0  0  0  0  0  0  0  0
  2  1  1  1
  3  2  1  0
  4  2  1  0
  4  5  1  0
  5  6  1  6
  7  8  2  0
  7  5  1  0
 10 11  1  0
 10  9  1  0
 11 12  1  0
 13 12  1  1
 13 14  1  0
 14  7  1  0
 15 16  2  0
 15 13  1  0
 18 19  1  0
 18 17  1  0
 19 21  1  0
 19 20  1  1
 21 22  1  1
 22 15  1  0
 23 21  1  0
 24 23  1  0
 25 23  2  0
M  END
$$$$
