LMI.pdb
     RDKit          3D

 25 24  0  0  1  0  0  0  0  0999 V2000
   15.1072  -13.6152  -17.4692 C   0  0  0  0  0  0  0  0  0  0  0  0
   15.8634  -13.9866  -16.2205 C   0  0  2  0  0  0  0  0  0  0  0  0
   14.9630  -13.9175  -15.0122 C   0  0  0  0  0  0  0  0  0  0  0  0
   17.1163  -13.1892  -16.0636 C   0  0  0  0  0  0  0  0  0  0  0  0
   17.9923  -13.2205  -17.2962 C   0  0  2  0  0  0  0  0  0  0  0  0
   18.6501  -14.4658  -17.4929 N   0  0  0  0  0  0  0  0  0  0  0  0
   18.8627  -12.0454  -17.2592 C   0  0  0  0  0  0  0  0  0  0  0  0
   19.9836  -12.1831  -16.6763 O   0  0  0  0  0  0  0  0  0  0  0  0
   17.4330   -8.4037  -22.0410 C   0  0  0  0  0  0  0  0  0  0  0  0
   19.1550   -8.0833  -21.6019 S   0  0  0  0  0  0  0  0  0  0  0  0
   19.7167   -9.1385  -20.2694 C   0  0  0  0  0  0  0  0  0  0  0  0
   19.2535   -8.7316  -18.9131 C   0  0  0  0  0  0  0  0  0  0  0  0
   19.6014   -9.7218  -17.8187 C   0  0  2  0  0  0  0  0  0  0  0  0
   18.5771  -10.7880  -17.8040 N   0  0  0  0  0  0  0  0  0  0  0  0
   19.6768   -9.1641  -16.4750 C   0  0  0  0  0  0  0  0  0  0  0  0
   18.7176   -9.2872  -15.6359 O   0  0  0  0  0  0  0  0  0  0  0  0
   21.8547   -9.9178  -11.4046 C   0  0  0  0  0  0  0  0  0  0  0  0
   21.4080   -8.7991  -12.3264 C   0  0  0  0  0  0  0  0  0  0  0  0
   21.3481   -9.2608  -13.7619 C   0  0  2  0  0  0  0  0  0  0  0  0
   22.6839   -9.6719  -14.2935 C   0  0  0  0  0  0  0  0  0  0  0  0
   20.9335   -8.0147  -14.5911 C   0  0  2  0  0  0  0  0  0  0  0  0
   20.8165   -8.4444  -15.9697 N   0  0  0  0  0  0  0  0  0  0  0  0
   21.9264   -6.9491  -14.3775 C   0  0  0  0  0  0  0  0  0  0  0  0
   21.8977   -6.1158  -13.2721 O   0  0  0  0  0  0  0  0  0  0  0  0
   22.8376   -6.7757  -15.2167 O   0  0  0  0  0  0  0  0  0  0  0  0
  2  1  1  6
  3  2  1  0
  4  2  1  0
  4  5  1  0
  5  6  1  1
  7  8  2  0
  7  5  1  0
 10 11  1  0
 10  9  1  0
 11 12  1  0
 13 12  1  6
 13 14  1  0
 14  7  1  0
 15 16  2  0
 15 13  1  0
 18 19  1  0
 18 17  1  0
 19 21  1  0
 19 20  1  6
 21 22  1  6
 22 15  1  0
 23 21  1  0
 24 23  1  0
 25 23  2  0
M  END
$$$$
