LMI.pdb
     RDKit          3D

 25 24  0  0  1  0  0  0  0  0999 V2000
   28.1641  -17.7152  -16.5338 C   0  0  0  0  0  0  0  0  0  0  0  0
   27.2681  -16.7269  -15.8341 C   0  0  2  0  0  0  0  0  0  0  0  0
   28.0099  -15.4447  -15.5488 C   0  0  0  0  0  0  0  0  0  0  0  0
   26.6233  -17.3128  -14.6213 C   0  0  0  0  0  0  0  0  0  0  0  0
   25.8974  -18.6084  -14.9082 C   0  0  2  0  0  0  0  0  0  0  0  0
   24.8838  -18.4833  -15.8977 N   0  0  0  0  0  0  0  0  0  0  0  0
   25.4662  -19.1747  -13.6303 C   0  0  0  0  0  0  0  0  0  0  0  0
   24.4693  -18.6221  -13.0680 O   0  0  0  0  0  0  0  0  0  0  0  0
   24.3417  -25.0845  -13.4781 C   0  0  0  0  0  0  0  0  0  0  0  0
   23.0513  -23.8215  -13.4759 S   0  0  0  0  0  0  0  0  0  0  0  0
   23.6906  -22.2077  -13.0382 C   0  0  0  0  0  0  0  0  0  0  0  0
   24.8789  -22.2295  -12.1399 C   0  0  0  0  0  0  0  0  0  0  0  0
   25.4044  -20.8541  -11.7773 C   0  0  2  0  0  0  0  0  0  0  0  0
   26.0470  -20.2646  -12.9713 N   0  0  0  0  0  0  0  0  0  0  0  0
   26.3772  -20.8249  -10.6932 C   0  0  0  0  0  0  0  0  0  0  0  0
   27.5420  -21.3423  -10.8145 O   0  0  0  0  0  0  0  0  0  0  0  0
   29.2516  -19.3849   -5.7243 C   0  0  0  0  0  0  0  0  0  0  0  0
   28.2158  -20.2998   -6.3494 C   0  0  0  0  0  0  0  0  0  0  0  0
   27.5952  -19.6720   -7.5734 C   0  0  2  0  0  0  0  0  0  0  0  0
   26.7198  -18.5053   -7.2442 C   0  0  0  0  0  0  0  0  0  0  0  0
   26.6491  -20.7499   -8.1694 C   0  0  2  0  0  0  0  0  0  0  0  0
   26.1304  -20.2162   -9.4123 N   0  0  0  0  0  0  0  0  0  0  0  0
   25.6115  -21.0736   -7.1766 C   0  0  0  0  0  0  0  0  0  0  0  0
   25.8805  -21.7989   -6.0283 O   0  0  0  0  0  0  0  0  0  0  0  0
   24.4365  -20.6865   -7.3616 O   0  0  0  0  0  0  0  0  0  0  0  0
  2  1  1  1
  3  2  1  0
  4  2  1  0
  4  5  1  0
  5  6  1  6
  7  8  2  0
  7  5  1  0
 10 11  1  0
 10  9  1  0
 11 12  1  0
 13 12  1  6
 13 14  1  0
 14  7  1  0
 15 16  2  0
 15 13  1  0
 18 19  1  0
 18 17  1  0
 19 21  1  0
 19 20  1  1
 21 22  1  6
 22 15  1  0
 23 21  1  0
 24 23  1  0
 25 23  2  0
M  END
$$$$
