LHK.pdb
     RDKit          3D

 28 28  0  0  1  0  0  0  0  0999 V2000
    6.9338  -12.7533   18.5039 C   0  0  0  0  0  0  0  0  0  0  0  0
    7.8135  -12.8383   19.7142 C   0  0  1  0  0  0  0  0  0  0  0  0
    7.3583  -11.9296   20.8284 C   0  0  0  0  0  0  0  0  0  0  0  0
    8.0426  -14.2436   20.1642 C   0  0  0  0  0  0  0  0  0  0  0  0
    9.0395  -14.9212   19.2568 C   0  0  2  0  0  0  0  0  0  0  0  0
    8.3910  -15.8944   18.4044 N   0  0  0  0  0  0  0  0  0  0  0  0
   10.0975  -15.6273   20.0183 C   0  0  0  0  0  0  0  0  0  0  0  0
    9.8626  -16.7199   20.5362 O   0  0  0  0  0  0  0  0  0  0  0  0
   11.4160  -15.0676   20.1757 N   0  0  0  0  0  0  0  0  0  0  0  0
   12.4013  -15.6136   21.0776 C   0  0  1  0  0  0  0  0  0  0  0  0
   13.6642  -14.7737   20.8548 C   0  0  0  0  0  0  0  0  0  0  0  0
   14.2848  -15.0650   19.5333 C   0  0  0  0  0  0  0  0  0  0  0  0
   14.0521  -16.1025   18.6545 C   0  0  0  0  0  0  0  0  0  0  0  0
   14.8366  -15.9850   17.5646 N   0  0  0  0  0  0  0  0  0  0  0  0
   15.5666  -14.8860   17.7365 C   0  0  0  0  0  0  0  0  0  0  0  0
   15.2498  -14.3275   18.9030 N   0  0  0  0  0  0  0  0  0  0  0  0
   11.9630  -15.6621   22.4703 C   0  0  0  0  0  0  0  0  0  0  0  0
   11.1101  -14.8313   22.8764 O   0  0  0  0  0  0  0  0  0  0  0  0
   12.4315  -16.5926   23.4235 N   0  0  0  0  0  0  0  0  0  0  0  0
   11.4806  -17.2164   24.3471 C   0  0  1  0  0  0  0  0  0  0  0  0
   10.3947  -17.9199   23.5624 C   0  0  0  0  0  0  0  0  0  0  0  0
    9.0201  -17.6424   24.0969 C   0  0  0  0  0  0  0  0  0  0  0  0
    7.9458  -18.3386   23.2729 C   0  0  0  0  0  0  0  0  0  0  0  0
    6.5793  -17.9925   23.7936 C   0  0  0  0  0  0  0  0  0  0  0  0
    5.5710  -18.6915   22.9862 N   0  0  0  0  0  0  0  0  0  0  0  0
   12.2570  -18.0693   25.2367 C   0  0  0  0  0  0  0  0  0  0  0  0
   13.5746  -18.4254   24.9609 O   0  0  0  0  0  0  0  0  0  0  0  0
   11.7457  -18.5123   26.2936 O   0  0  0  0  0  0  0  0  0  0  0  0
  2  1  1  6
  2  3  1  0
  4  5  1  0
  4  2  1  0
  5  6  1  1
  7  5  1  0
  7  8  2  0
  9  7  1  0
 10  9  1  0
 11 12  1  0
 10 11  1  1
 12 16  1  0
 12 13  2  0
 13 14  1  0
 15 14  1  0
 16 15  2  0
 17 10  1  0
 18 17  2  0
 19 17  1  0
 20 21  1  6
 20 19  1  0
 21 22  1  0
 22 23  1  0
 23 24  1  0
 24 25  1  0
 26 20  1  0
 27 26  1  0
 28 26  2  0
M  END
$$$$
