LHK.pdb
     RDKit          3D

 28 28  0  0  1  0  0  0  0  0999 V2000
    6.8572  -12.4980   18.9827 C   0  0  0  0  0  0  0  0  0  0  0  0
    8.2440  -13.0629   19.0408 C   0  0  1  0  0  0  0  0  0  0  0  0
    9.2894  -12.0105   19.3128 C   0  0  0  0  0  0  0  0  0  0  0  0
    8.3503  -14.2403   19.9532 C   0  0  0  0  0  0  0  0  0  0  0  0
    9.7871  -14.6903   20.0515 C   0  0  2  0  0  0  0  0  0  0  0  0
   10.3004  -15.0819   18.7563 N   0  0  0  0  0  0  0  0  0  0  0  0
    9.9486  -15.8464   20.9654 C   0  0  0  0  0  0  0  0  0  0  0  0
    9.4686  -15.8106   22.0992 O   0  0  0  0  0  0  0  0  0  0  0  0
   10.6616  -17.0325   20.5641 N   0  0  0  0  0  0  0  0  0  0  0  0
   10.9161  -18.1385   21.4555 C   0  0  1  0  0  0  0  0  0  0  0  0
   11.7391  -19.1386   20.6356 C   0  0  0  0  0  0  0  0  0  0  0  0
   12.0049  -20.3847   21.4057 C   0  0  0  0  0  0  0  0  0  0  0  0
   11.6532  -20.7205   22.6966 C   0  0  0  0  0  0  0  0  0  0  0  0
   12.0954  -21.9569   23.0017 N   0  0  0  0  0  0  0  0  0  0  0  0
   12.7246  -22.4141   21.9222 C   0  0  0  0  0  0  0  0  0  0  0  0
   12.6793  -21.4904   20.9642 N   0  0  0  0  0  0  0  0  0  0  0  0
   11.5457  -17.7480   22.7145 C   0  0  0  0  0  0  0  0  0  0  0  0
   12.4754  -16.9006   22.7008 O   0  0  0  0  0  0  0  0  0  0  0  0
   11.1844  -18.2582   23.9806 N   0  0  0  0  0  0  0  0  0  0  0  0
   11.6112  -17.5498   25.1898 C   0  0  1  0  0  0  0  0  0  0  0  0
   10.5118  -16.6166   25.6487 C   0  0  0  0  0  0  0  0  0  0  0  0
   10.8417  -15.9205   26.9367 C   0  0  0  0  0  0  0  0  0  0  0  0
    9.6890  -15.0485   27.4151 C   0  0  0  0  0  0  0  0  0  0  0  0
   10.0956  -14.2620   28.6293 C   0  0  0  0  0  0  0  0  0  0  0  0
    8.9644  -13.4290   29.0579 N   0  0  0  0  0  0  0  0  0  0  0  0
   12.0071  -18.5666   26.1548 C   0  0  0  0  0  0  0  0  0  0  0  0
   11.4411  -19.8388   26.1670 O   0  0  0  0  0  0  0  0  0  0  0  0
   12.8850  -18.3142   27.0151 O   0  0  0  0  0  0  0  0  0  0  0  0
  2  1  1  1
  2  3  1  0
  4  5  1  0
  4  2  1  0
  5  6  1  6
  7  5  1  0
  7  8  2  0
  9  7  1  0
 10  9  1  0
 11 12  1  0
 10 11  1  6
 12 16  1  0
 12 13  2  0
 13 14  1  0
 15 14  1  0
 16 15  2  0
 17 10  1  0
 18 17  2  0
 19 17  1  0
 20 21  1  1
 20 19  1  0
 21 22  1  0
 22 23  1  0
 23 24  1  0
 24 25  1  0
 26 20  1  0
 27 26  1  0
 28 26  2  0
M  END
$$$$
