LHK.pdb
     RDKit          3D

 28 28  0  0  1  0  0  0  0  0999 V2000
    5.2426  -12.3608   27.3499 C   0  0  0  0  0  0  0  0  0  0  0  0
    6.1793  -12.3373   26.1804 C   0  0  1  0  0  0  0  0  0  0  0  0
    7.0830  -11.1299   26.1838 C   0  0  0  0  0  0  0  0  0  0  0  0
    6.9221  -13.6214   26.0093 C   0  0  0  0  0  0  0  0  0  0  0  0
    8.0370  -13.4445   25.0083 C   0  0  2  0  0  0  0  0  0  0  0  0
    7.6223  -12.5977   23.9104 N   0  0  0  0  0  0  0  0  0  0  0  0
    8.4816  -14.7369   24.4338 C   0  0  0  0  0  0  0  0  0  0  0  0
    8.0639  -15.7977   24.9002 O   0  0  0  0  0  0  0  0  0  0  0  0
    9.4031  -14.7945   23.3276 N   0  0  0  0  0  0  0  0  0  0  0  0
    9.8953  -16.0337   22.7757 C   0  0  1  0  0  0  0  0  0  0  0  0
   10.2402  -15.7184   21.3157 C   0  0  0  0  0  0  0  0  0  0  0  0
    9.0574  -15.1949   20.5785 C   0  0  0  0  0  0  0  0  0  0  0  0
    7.8447  -15.7946   20.3091 C   0  0  0  0  0  0  0  0  0  0  0  0
    7.0496  -14.9615   19.6083 N   0  0  0  0  0  0  0  0  0  0  0  0
    7.7394  -13.8382   19.4272 C   0  0  0  0  0  0  0  0  0  0  0  0
    8.9358  -13.9616   19.9985 N   0  0  0  0  0  0  0  0  0  0  0  0
   11.0017  -16.6169   23.5307 C   0  0  0  0  0  0  0  0  0  0  0  0
   11.9498  -15.8784   23.9026 O   0  0  0  0  0  0  0  0  0  0  0  0
   11.0948  -17.9800   23.8874 N   0  0  0  0  0  0  0  0  0  0  0  0
   12.2636  -18.4491   24.6359 C   0  0  1  0  0  0  0  0  0  0  0  0
   11.9510  -19.7781   25.2887 C   0  0  0  0  0  0  0  0  0  0  0  0
   11.0722  -19.6384   26.4972 C   0  0  0  0  0  0  0  0  0  0  0  0
   10.6089  -20.9932   27.0145 C   0  0  0  0  0  0  0  0  0  0  0  0
    9.7590  -20.8230   28.2420 C   0  0  0  0  0  0  0  0  0  0  0  0
    9.3604  -22.1486   28.7328 N   0  0  0  0  0  0  0  0  0  0  0  0
   13.3823  -18.4621   23.7032 C   0  0  0  0  0  0  0  0  0  0  0  0
   13.2082  -18.6732   22.3379 O   0  0  0  0  0  0  0  0  0  0  0  0
   14.5529  -18.2802   24.1172 O   0  0  0  0  0  0  0  0  0  0  0  0
  2  1  1  1
  2  3  1  0
  4  5  1  0
  4  2  1  0
  5  6  1  6
  7  5  1  0
  7  8  2  0
  9  7  1  0
 10  9  1  0
 11 12  1  0
 10 11  1  6
 12 16  1  0
 12 13  2  0
 13 14  1  0
 15 14  1  0
 16 15  2  0
 17 10  1  0
 18 17  2  0
 19 17  1  0
 20 21  1  6
 20 19  1  0
 21 22  1  0
 22 23  1  0
 23 24  1  0
 24 25  1  0
 26 20  1  0
 27 26  1  0
 28 26  2  0
M  END
$$$$
