LHK.pdb
     RDKit          3D

 28 28  0  0  1  0  0  0  0  0999 V2000
    7.3227  -11.8968   27.8602 C   0  0  0  0  0  0  0  0  0  0  0  0
    6.4724  -12.8583   27.0868 C   0  0  1  0  0  0  0  0  0  0  0  0
    5.2405  -12.2090   26.5078 C   0  0  0  0  0  0  0  0  0  0  0  0
    7.2514  -13.6356   26.0774 C   0  0  0  0  0  0  0  0  0  0  0  0
    6.3299  -14.5418   25.2990 C   0  0  2  0  0  0  0  0  0  0  0  0
    5.8860  -15.6550   26.1101 N   0  0  0  0  0  0  0  0  0  0  0  0
    6.9849  -15.1003   24.0919 C   0  0  0  0  0  0  0  0  0  0  0  0
    7.3891  -16.2638   24.0897 O   0  0  0  0  0  0  0  0  0  0  0  0
    7.1678  -14.3127   22.8991 N   0  0  0  0  0  0  0  0  0  0  0  0
    7.8414  -14.8084   21.7232 C   0  0  1  0  0  0  0  0  0  0  0  0
    7.7817  -13.6612   20.7082 C   0  0  0  0  0  0  0  0  0  0  0  0
    8.1591  -14.1221   19.3438 C   0  0  0  0  0  0  0  0  0  0  0  0
    8.5783  -15.3634   18.9122 C   0  0  0  0  0  0  0  0  0  0  0  0
    8.8176  -15.3477   17.5857 N   0  0  0  0  0  0  0  0  0  0  0  0
    8.5565  -14.1127   17.1654 C   0  0  0  0  0  0  0  0  0  0  0  0
    8.1636  -13.3717   18.1996 N   0  0  0  0  0  0  0  0  0  0  0  0
    9.1932  -15.2987   21.9808 C   0  0  0  0  0  0  0  0  0  0  0  0
    9.9790  -14.6018   22.6732 O   0  0  0  0  0  0  0  0  0  0  0  0
    9.7027  -16.5259   21.5031 N   0  0  0  0  0  0  0  0  0  0  0  0
   11.0563  -16.9388   21.8821 C   0  0  1  0  0  0  0  0  0  0  0  0
   11.0101  -18.3070   22.5270 C   0  0  0  0  0  0  0  0  0  0  0  0
   11.9994  -18.4549   23.6456 C   0  0  0  0  0  0  0  0  0  0  0  0
   11.9280  -19.8372   24.2796 C   0  0  0  0  0  0  0  0  0  0  0  0
   12.8805  -19.9325   25.4380 C   0  0  0  0  0  0  0  0  0  0  0  0
   12.7982  -21.2817   26.0124 N   0  0  0  0  0  0  0  0  0  0  0  0
   11.8759  -16.8443   20.6817 C   0  0  0  0  0  0  0  0  0  0  0  0
   11.3537  -17.0537   19.4079 O   0  0  0  0  0  0  0  0  0  0  0  0
   13.0965  -16.5667   20.7696 O   0  0  0  0  0  0  0  0  0  0  0  0
  2  1  1  6
  2  3  1  0
  4  5  1  0
  4  2  1  0
  5  6  1  1
  7  5  1  0
  7  8  2  0
  9  7  1  0
 10  9  1  0
 11 12  1  0
 10 11  1  6
 12 16  1  0
 12 13  2  0
 13 14  1  0
 15 14  1  0
 16 15  2  0
 17 10  1  0
 18 17  2  0
 19 17  1  0
 20 21  1  6
 20 19  1  0
 21 22  1  0
 22 23  1  0
 23 24  1  0
 24 25  1  0
 26 20  1  0
 27 26  1  0
 28 26  2  0
M  END
$$$$
