LHK.pdb
     RDKit          3D

 28 28  0  0  1  0  0  0  0  0999 V2000
    6.8293  -11.9982   19.6290 C   0  0  0  0  0  0  0  0  0  0  0  0
    7.3101  -13.4157   19.7016 C   0  0  1  0  0  0  0  0  0  0  0  0
    8.5102  -13.6681   18.8239 C   0  0  0  0  0  0  0  0  0  0  0  0
    7.5037  -13.8889   21.1047 C   0  0  0  0  0  0  0  0  0  0  0  0
    7.8662  -15.3534   21.1112 C   0  0  2  0  0  0  0  0  0  0  0  0
    6.8476  -16.1454   20.4557 N   0  0  0  0  0  0  0  0  0  0  0  0
    8.0284  -15.8822   22.4866 C   0  0  0  0  0  0  0  0  0  0  0  0
    8.8314  -15.3585   23.2601 O   0  0  0  0  0  0  0  0  0  0  0  0
    7.2640  -17.0092   22.9576 N   0  0  0  0  0  0  0  0  0  0  0  0
    7.4380  -17.5869   24.2685 C   0  0  1  0  0  0  0  0  0  0  0  0
    6.3387  -18.6481   24.3928 C   0  0  0  0  0  0  0  0  0  0  0  0
    6.4773  -19.4297   25.6523 C   0  0  0  0  0  0  0  0  0  0  0  0
    7.2949  -19.2156   26.7425 C   0  0  0  0  0  0  0  0  0  0  0  0
    7.1014  -20.1704   27.6743 N   0  0  0  0  0  0  0  0  0  0  0  0
    6.1711  -20.9906   27.1927 C   0  0  0  0  0  0  0  0  0  0  0  0
    5.7898  -20.5633   25.9906 N   0  0  0  0  0  0  0  0  0  0  0  0
    8.7838  -18.1001   24.5126 C   0  0  0  0  0  0  0  0  0  0  0  0
    9.3344  -18.8223   23.6421 O   0  0  0  0  0  0  0  0  0  0  0  0
    9.5377  -17.8429   25.6786 N   0  0  0  0  0  0  0  0  0  0  0  0
   10.8828  -18.4095   25.8046 C   0  0  1  0  0  0  0  0  0  0  0  0
   11.8650  -17.5711   25.0157 C   0  0  0  0  0  0  0  0  0  0  0  0
   13.2806  -18.0489   25.1575 C   0  0  0  0  0  0  0  0  0  0  0  0
   14.2438  -17.2032   24.3359 C   0  0  0  0  0  0  0  0  0  0  0  0
   15.6446  -17.7325   24.4620 C   0  0  0  0  0  0  0  0  0  0  0  0
   16.5158  -16.9997   23.5341 N   0  0  0  0  0  0  0  0  0  0  0  0
   11.1615  -18.5172   27.2303 C   0  0  0  0  0  0  0  0  0  0  0  0
   10.3676  -17.8958   28.1908 O   0  0  0  0  0  0  0  0  0  0  0  0
   12.1437  -19.1856   27.6339 O   0  0  0  0  0  0  0  0  0  0  0  0
  2  1  1  1
  2  3  1  0
  4  5  1  0
  4  2  1  0
  5  6  1  1
  7  5  1  0
  7  8  2  0
  9  7  1  0
 10  9  1  0
 11 12  1  0
 10 11  1  6
 12 16  1  0
 12 13  2  0
 13 14  1  0
 15 14  1  0
 16 15  2  0
 17 10  1  0
 18 17  2  0
 19 17  1  0
 20 21  1  6
 20 19  1  0
 21 22  1  0
 22 23  1  0
 23 24  1  0
 24 25  1  0
 26 20  1  0
 27 26  1  0
 28 26  2  0
M  END
$$$$
