LHK.pdb
     RDKit          3D

 28 28  0  0  1  0  0  0  0  0999 V2000
    7.1036  -11.8748   18.7381 C   0  0  0  0  0  0  0  0  0  0  0  0
    7.8748  -13.0651   19.2218 C   0  0  1  0  0  0  0  0  0  0  0  0
    9.3258  -12.7495   19.4853 C   0  0  0  0  0  0  0  0  0  0  0  0
    7.2111  -13.7572   20.3665 C   0  0  0  0  0  0  0  0  0  0  0  0
    8.0788  -14.8882   20.8605 C   0  0  2  0  0  0  0  0  0  0  0  0
    8.3383  -15.8449   19.8061 N   0  0  0  0  0  0  0  0  0  0  0  0
    7.4525  -15.6215   21.9864 C   0  0  0  0  0  0  0  0  0  0  0  0
    6.9924  -15.0037   22.9476 O   0  0  0  0  0  0  0  0  0  0  0  0
    7.3624  -17.0597   21.9940 N   0  0  0  0  0  0  0  0  0  0  0  0
    6.8603  -17.8118   23.1186 C   0  0  1  0  0  0  0  0  0  0  0  0
    6.3507  -19.1316   22.5283 C   0  0  0  0  0  0  0  0  0  0  0  0
    5.0886  -18.9340   21.7639 C   0  0  0  0  0  0  0  0  0  0  0  0
    4.0426  -18.0637   21.9903 C   0  0  0  0  0  0  0  0  0  0  0  0
    3.0898  -18.2131   21.0484 N   0  0  0  0  0  0  0  0  0  0  0  0
    3.5144  -19.1673   20.2242 C   0  0  0  0  0  0  0  0  0  0  0  0
    4.7020  -19.6061   20.6364 N   0  0  0  0  0  0  0  0  0  0  0  0
    7.8334  -17.9834   24.1947 C   0  0  0  0  0  0  0  0  0  0  0  0
    9.0212  -18.2831   23.9083 O   0  0  0  0  0  0  0  0  0  0  0  0
    7.5405  -17.8349   25.5680 N   0  0  0  0  0  0  0  0  0  0  0  0
    8.6283  -17.9049   26.5468 C   0  0  1  0  0  0  0  0  0  0  0  0
    8.7364  -16.5876   27.2837 C   0  0  0  0  0  0  0  0  0  0  0  0
    9.8337  -16.5838   28.3074 C   0  0  0  0  0  0  0  0  0  0  0  0
    9.9530  -15.2323   28.9982 C   0  0  0  0  0  0  0  0  0  0  0  0
   11.1085  -15.2346   29.9589 C   0  0  0  0  0  0  0  0  0  0  0  0
   11.2433  -13.8947   30.5449 N   0  0  0  0  0  0  0  0  0  0  0  0
    8.3651  -19.0667   27.3850 C   0  0  0  0  0  0  0  0  0  0  0  0
    9.3396  -19.6236   28.2091 O   0  0  0  0  0  0  0  0  0  0  0  0
    7.2310  -19.6037   27.3834 O   0  0  0  0  0  0  0  0  0  0  0  0
  2  1  1  1
  2  3  1  0
  4  5  1  0
  4  2  1  0
  5  6  1  6
  7  5  1  0
  7  8  2  0
  9  7  1  0
 10  9  1  0
 11 12  1  0
 10 11  1  6
 12 16  1  0
 12 13  2  0
 13 14  1  0
 15 14  1  0
 16 15  2  0
 17 10  1  0
 18 17  2  0
 19 17  1  0
 20 21  1  1
 20 19  1  0
 21 22  1  0
 22 23  1  0
 23 24  1  0
 24 25  1  0
 26 20  1  0
 27 26  1  0
 28 26  2  0
M  END
$$$$
