LHK.pdb
     RDKit          3D

 28 28  0  0  1  0  0  0  0  0999 V2000
    7.3795  -12.0800   19.6674 C   0  0  0  0  0  0  0  0  0  0  0  0
    7.8622  -13.4536   20.0224 C   0  0  1  0  0  0  0  0  0  0  0  0
    8.7877  -14.0315   18.9813 C   0  0  0  0  0  0  0  0  0  0  0  0
    8.4197  -13.5303   21.4057 C   0  0  0  0  0  0  0  0  0  0  0  0
    8.7213  -14.9648   21.7628 C   0  0  2  0  0  0  0  0  0  0  0  0
    7.5817  -15.8177   21.5017 N   0  0  0  0  0  0  0  0  0  0  0  0
    9.0788  -15.1206   23.1931 C   0  0  0  0  0  0  0  0  0  0  0  0
   10.0428  -14.5122   23.6597 O   0  0  0  0  0  0  0  0  0  0  0  0
    8.3222  -15.9760   24.0719 N   0  0  0  0  0  0  0  0  0  0  0  0
    8.6390  -16.1482   25.4692 C   0  0  1  0  0  0  0  0  0  0  0  0
    7.3347  -15.8554   26.2194 C   0  0  0  0  0  0  0  0  0  0  0  0
    7.0834  -14.3916   26.3222 C   0  0  0  0  0  0  0  0  0  0  0  0
    7.8770  -13.3907   26.8430 C   0  0  0  0  0  0  0  0  0  0  0  0
    7.2633  -12.1953   26.7355 N   0  0  0  0  0  0  0  0  0  0  0  0
    6.0885  -12.4205   26.1530 C   0  0  0  0  0  0  0  0  0  0  0  0
    5.9667  -13.7223   25.9009 N   0  0  0  0  0  0  0  0  0  0  0  0
    9.2222  -17.4497   25.7854 C   0  0  0  0  0  0  0  0  0  0  0  0
    8.6772  -18.4927   25.3408 O   0  0  0  0  0  0  0  0  0  0  0  0
   10.3809  -17.6366   26.5705 N   0  0  0  0  0  0  0  0  0  0  0  0
   10.9015  -18.9910   26.7731 C   0  0  1  0  0  0  0  0  0  0  0  0
   12.2102  -19.1504   26.0303 C   0  0  0  0  0  0  0  0  0  0  0  0
   12.8170  -20.5112   26.2095 C   0  0  0  0  0  0  0  0  0  0  0  0
   14.1398  -20.6387   25.4666 C   0  0  0  0  0  0  0  0  0  0  0  0
   14.7540  -21.9871   25.7172 C   0  0  0  0  0  0  0  0  0  0  0  0
   16.0447  -22.0594   25.0203 N   0  0  0  0  0  0  0  0  0  0  0  0
   10.9734  -19.2025   28.2124 C   0  0  0  0  0  0  0  0  0  0  0  0
   11.0623  -20.4744   28.7723 O   0  0  0  0  0  0  0  0  0  0  0  0
   10.9561  -18.2234   28.9971 O   0  0  0  0  0  0  0  0  0  0  0  0
  2  1  1  6
  2  3  1  0
  4  5  1  0
  4  2  1  0
  5  6  1  1
  7  5  1  0
  7  8  2  0
  9  7  1  0
 10  9  1  0
 11 12  1  0
 10 11  1  1
 12 16  1  0
 12 13  2  0
 13 14  1  0
 15 14  1  0
 16 15  2  0
 17 10  1  0
 18 17  2  0
 19 17  1  0
 20 21  1  1
 20 19  1  0
 21 22  1  0
 22 23  1  0
 23 24  1  0
 24 25  1  0
 26 20  1  0
 27 26  1  0
 28 26  2  0
M  END
$$$$
