LHK.pdb
     RDKit          3D

 28 28  0  0  1  0  0  0  0  0999 V2000
    5.4588  -11.6464   26.9907 C   0  0  0  0  0  0  0  0  0  0  0  0
    6.6343  -12.5428   26.7448 C   0  0  1  0  0  0  0  0  0  0  0  0
    7.7332  -12.3518   27.7599 C   0  0  0  0  0  0  0  0  0  0  0  0
    6.2434  -13.9734   26.5704 C   0  0  0  0  0  0  0  0  0  0  0  0
    7.4163  -14.7710   26.0563 C   0  0  2  0  0  0  0  0  0  0  0  0
    8.6676  -14.1054   26.3487 N   0  0  0  0  0  0  0  0  0  0  0  0
    7.3510  -14.9775   24.5897 C   0  0  0  0  0  0  0  0  0  0  0  0
    6.4206  -15.6158   24.0955 O   0  0  0  0  0  0  0  0  0  0  0  0
    8.3584  -14.4467   23.7067 N   0  0  0  0  0  0  0  0  0  0  0  0
    8.4835  -14.8436   22.3249 C   0  0  1  0  0  0  0  0  0  0  0  0
    8.4987  -13.5346   21.5271 C   0  0  0  0  0  0  0  0  0  0  0  0
    8.4267  -13.7898   20.0622 C   0  0  0  0  0  0  0  0  0  0  0  0
    7.5272  -13.3255   19.1251 C   0  0  0  0  0  0  0  0  0  0  0  0
    7.8288  -13.8038   17.9014 N   0  0  0  0  0  0  0  0  0  0  0  0
    8.9089  -14.5671   18.0456 C   0  0  0  0  0  0  0  0  0  0  0  0
    9.2767  -14.5688   19.3253 N   0  0  0  0  0  0  0  0  0  0  0  0
    9.6310  -15.7085   22.0616 C   0  0  0  0  0  0  0  0  0  0  0  0
   10.7118  -15.4993   22.6704 O   0  0  0  0  0  0  0  0  0  0  0  0
    9.6244  -16.7908   21.1548 N   0  0  0  0  0  0  0  0  0  0  0  0
   10.7359  -17.7451   21.1660 C   0  0  1  0  0  0  0  0  0  0  0  0
   10.1961  -19.1551   21.2682 C   0  0  0  0  0  0  0  0  0  0  0  0
   11.2604  -20.1981   21.0904 C   0  0  0  0  0  0  0  0  0  0  0  0
   10.7059  -21.6038   21.2760 C   0  0  0  0  0  0  0  0  0  0  0  0
   11.7972  -22.6238   21.1120 C   0  0  0  0  0  0  0  0  0  0  0  0
   11.2533  -23.9552   21.4093 N   0  0  0  0  0  0  0  0  0  0  0  0
   11.5376  -17.4703   19.9813 C   0  0  0  0  0  0  0  0  0  0  0  0
   10.9679  -17.0654   18.7770 O   0  0  0  0  0  0  0  0  0  0  0  0
   12.7856  -17.5952   20.0194 O   0  0  0  0  0  0  0  0  0  0  0  0
  2  1  1  1
  2  3  1  0
  4  5  1  0
  4  2  1  0
  5  6  1  6
  7  5  1  0
  7  8  2  0
  9  7  1  0
 10  9  1  0
 11 12  1  0
 10 11  1  6
 12 16  1  0
 12 13  2  0
 13 14  1  0
 15 14  1  0
 16 15  2  0
 17 10  1  0
 18 17  2  0
 19 17  1  0
 20 21  1  6
 20 19  1  0
 21 22  1  0
 22 23  1  0
 23 24  1  0
 24 25  1  0
 26 20  1  0
 27 26  1  0
 28 26  2  0
M  END
$$$$
