LHK.pdb
     RDKit          3D

 28 28  0  0  1  0  0  0  0  0999 V2000
    6.0342  -11.8343   27.4267 C   0  0  0  0  0  0  0  0  0  0  0  0
    6.7482  -12.3057   26.1963 C   0  0  1  0  0  0  0  0  0  0  0  0
    8.0657  -11.6034   25.9839 C   0  0  0  0  0  0  0  0  0  0  0  0
    6.8624  -13.7931   26.1289 C   0  0  0  0  0  0  0  0  0  0  0  0
    7.6376  -14.1970   24.8992 C   0  0  2  0  0  0  0  0  0  0  0  0
    6.9929  -13.7173   23.6957 N   0  0  0  0  0  0  0  0  0  0  0  0
    7.7689  -15.6689   24.7806 C   0  0  0  0  0  0  0  0  0  0  0  0
    6.9781  -16.4099   25.3662 O   0  0  0  0  0  0  0  0  0  0  0  0
    8.8101  -16.2729   23.9885 N   0  0  0  0  0  0  0  0  0  0  0  0
    9.0253  -17.6984   23.9248 C   0  0  1  0  0  0  0  0  0  0  0  0
    9.3620  -17.9922   22.4584 C   0  0  0  0  0  0  0  0  0  0  0  0
    9.5021  -19.4543   22.2150 C   0  0  0  0  0  0  0  0  0  0  0  0
    9.3770  -20.5140   23.0892 C   0  0  0  0  0  0  0  0  0  0  0  0
    9.5843  -21.6825   22.4497 N   0  0  0  0  0  0  0  0  0  0  0  0
    9.8401  -21.3819   21.1791 C   0  0  0  0  0  0  0  0  0  0  0  0
    9.7948  -20.0603   21.0236 N   0  0  0  0  0  0  0  0  0  0  0  0
   10.0272  -18.1862   24.8694 C   0  0  0  0  0  0  0  0  0  0  0  0
   10.9991  -17.4470   25.1720 O   0  0  0  0  0  0  0  0  0  0  0  0
    9.9912  -19.4550   25.4882 N   0  0  0  0  0  0  0  0  0  0  0  0
   11.1250  -19.8869   26.3093 C   0  0  1  0  0  0  0  0  0  0  0  0
   12.4218  -19.5341   25.6138 C   0  0  0  0  0  0  0  0  0  0  0  0
   13.6244  -19.7462   26.4861 C   0  0  0  0  0  0  0  0  0  0  0  0
   14.4229  -20.9685   26.0545 C   0  0  0  0  0  0  0  0  0  0  0  0
   15.6179  -21.1557   26.9462 C   0  0  0  0  0  0  0  0  0  0  0  0
   16.2155  -22.4690   26.6721 N   0  0  0  0  0  0  0  0  0  0  0  0
   10.9424  -19.2894   27.6252 C   0  0  0  0  0  0  0  0  0  0  0  0
   10.0589  -18.2360   27.8461 O   0  0  0  0  0  0  0  0  0  0  0  0
   11.5907  -19.7188   28.6101 O   0  0  0  0  0  0  0  0  0  0  0  0
  2  1  1  1
  2  3  1  0
  4  5  1  0
  4  2  1  0
  5  6  1  6
  7  5  1  0
  7  8  2  0
  9  7  1  0
 10  9  1  0
 11 12  1  0
 10 11  1  6
 12 16  1  0
 12 13  2  0
 13 14  1  0
 15 14  1  0
 16 15  2  0
 17 10  1  0
 18 17  2  0
 19 17  1  0
 20 21  1  6
 20 19  1  0
 21 22  1  0
 22 23  1  0
 23 24  1  0
 24 25  1  0
 26 20  1  0
 27 26  1  0
 28 26  2  0
M  END
$$$$
