LHK.pdb
     RDKit          3D

 28 28  0  0  1  0  0  0  0  0999 V2000
    6.7695  -13.0442   17.2479 C   0  0  0  0  0  0  0  0  0  0  0  0
    8.0236  -13.5369   17.9038 C   0  0  1  0  0  0  0  0  0  0  0  0
    8.9729  -12.4193   18.2562 C   0  0  0  0  0  0  0  0  0  0  0  0
    7.7536  -14.4560   19.0494 C   0  0  0  0  0  0  0  0  0  0  0  0
    9.0227  -14.6981   19.8285 C   0  0  2  0  0  0  0  0  0  0  0  0
   10.0164  -15.3624   19.0127 N   0  0  0  0  0  0  0  0  0  0  0  0
    8.7904  -15.5406   21.0260 C   0  0  0  0  0  0  0  0  0  0  0  0
    7.8181  -15.3293   21.7521 O   0  0  0  0  0  0  0  0  0  0  0  0
    9.6807  -16.6184   21.3754 N   0  0  0  0  0  0  0  0  0  0  0  0
    9.5638  -17.3712   22.6010 C   0  0  1  0  0  0  0  0  0  0  0  0
   10.5643  -18.5247   22.4650 C   0  0  0  0  0  0  0  0  0  0  0  0
   10.0200  -19.6192   21.6152 C   0  0  0  0  0  0  0  0  0  0  0  0
    8.7748  -19.7568   21.0377 C   0  0  0  0  0  0  0  0  0  0  0  0
    8.7002  -20.9089   20.3417 N   0  0  0  0  0  0  0  0  0  0  0  0
    9.8815  -21.5079   20.4677 C   0  0  0  0  0  0  0  0  0  0  0  0
   10.6775  -20.7531   21.2225 N   0  0  0  0  0  0  0  0  0  0  0  0
    9.7502  -16.5674   23.8066 C   0  0  0  0  0  0  0  0  0  0  0  0
   10.8014  -15.8888   23.9373 O   0  0  0  0  0  0  0  0  0  0  0  0
    8.8196  -16.4877   24.8656 N   0  0  0  0  0  0  0  0  0  0  0  0
    8.9262  -15.3950   25.8357 C   0  0  1  0  0  0  0  0  0  0  0  0
    7.7077  -14.5032   25.7348 C   0  0  0  0  0  0  0  0  0  0  0  0
    7.7423  -13.3615   26.7081 C   0  0  0  0  0  0  0  0  0  0  0  0
    6.4813  -12.5126   26.6231 C   0  0  0  0  0  0  0  0  0  0  0  0
    6.5914  -11.3181   27.5282 C   0  0  0  0  0  0  0  0  0  0  0  0
    5.3520  -10.5355   27.4368 N   0  0  0  0  0  0  0  0  0  0  0  0
    9.1410  -16.0096   27.1387 C   0  0  0  0  0  0  0  0  0  0  0  0
    9.7203  -15.3178   28.1993 O   0  0  0  0  0  0  0  0  0  0  0  0
    8.8025  -17.2011   27.3394 O   0  0  0  0  0  0  0  0  0  0  0  0
  2  1  1  1
  2  3  1  0
  4  5  1  0
  4  2  1  0
  5  6  1  6
  7  5  1  0
  7  8  2  0
  9  7  1  0
 10  9  1  0
 11 12  1  0
 10 11  1  6
 12 16  1  0
 12 13  2  0
 13 14  1  0
 15 14  1  0
 16 15  2  0
 17 10  1  0
 18 17  2  0
 19 17  1  0
 20 21  1  1
 20 19  1  0
 21 22  1  0
 22 23  1  0
 23 24  1  0
 24 25  1  0
 26 20  1  0
 27 26  1  0
 28 26  2  0
M  END
$$$$
