LHK.pdb
     RDKit          3D

 28 28  0  0  1  0  0  0  0  0999 V2000
    6.9775  -11.4843   27.7685 C   0  0  0  0  0  0  0  0  0  0  0  0
    6.3403  -12.3791   26.7492 C   0  0  1  0  0  0  0  0  0  0  0  0
    5.7284  -11.6120   25.6040 C   0  0  0  0  0  0  0  0  0  0  0  0
    7.2459  -13.4774   26.2980 C   0  0  0  0  0  0  0  0  0  0  0  0
    6.6255  -14.2151   25.1373 C   0  0  2  0  0  0  0  0  0  0  0  0
    5.4482  -14.9463   25.5537 N   0  0  0  0  0  0  0  0  0  0  0  0
    7.5643  -15.1873   24.5279 C   0  0  0  0  0  0  0  0  0  0  0  0
    7.6127  -16.3454   24.9448 O   0  0  0  0  0  0  0  0  0  0  0  0
    8.4383  -14.8158   23.4442 N   0  0  0  0  0  0  0  0  0  0  0  0
    9.3748  -15.7311   22.8379 C   0  0  1  0  0  0  0  0  0  0  0  0
    9.8550  -15.0325   21.5606 C   0  0  0  0  0  0  0  0  0  0  0  0
    8.7351  -14.8210   20.6027 C   0  0  0  0  0  0  0  0  0  0  0  0
    7.5878  -15.5604   20.4036 C   0  0  0  0  0  0  0  0  0  0  0  0
    6.8346  -15.0129   19.4288 N   0  0  0  0  0  0  0  0  0  0  0  0
    7.4865  -13.9338   19.0036 C   0  0  0  0  0  0  0  0  0  0  0  0
    8.6189  -13.8061   19.6922 N   0  0  0  0  0  0  0  0  0  0  0  0
   10.4575  -16.1424   23.7282 C   0  0  0  0  0  0  0  0  0  0  0  0
   11.1203  -15.2639   24.3378 O   0  0  0  0  0  0  0  0  0  0  0  0
   10.8297  -17.4834   23.9672 N   0  0  0  0  0  0  0  0  0  0  0  0
   11.7470  -17.7898   25.0676 C   0  0  1  0  0  0  0  0  0  0  0  0
   11.1931  -18.9334   25.8895 C   0  0  0  0  0  0  0  0  0  0  0  0
   12.1541  -19.4133   26.9375 C   0  0  0  0  0  0  0  0  0  0  0  0
   11.5504  -20.5230   27.7872 C   0  0  0  0  0  0  0  0  0  0  0  0
   12.5304  -20.9746   28.8332 C   0  0  0  0  0  0  0  0  0  0  0  0
   11.8475  -21.8801   29.7663 N   0  0  0  0  0  0  0  0  0  0  0  0
   13.0541  -18.0287   24.4709 C   0  0  0  0  0  0  0  0  0  0  0  0
   13.2006  -18.5102   23.1725 O   0  0  0  0  0  0  0  0  0  0  0  0
   14.0996  -17.8018   25.1266 O   0  0  0  0  0  0  0  0  0  0  0  0
  2  1  1  1
  2  3  1  0
  4  5  1  0
  4  2  1  0
  5  6  1  1
  7  5  1  0
  7  8  2  0
  9  7  1  0
 10  9  1  0
 11 12  1  0
 10 11  1  6
 12 16  1  0
 12 13  2  0
 13 14  1  0
 15 14  1  0
 16 15  2  0
 17 10  1  0
 18 17  2  0
 19 17  1  0
 20 21  1  6
 20 19  1  0
 21 22  1  0
 22 23  1  0
 23 24  1  0
 24 25  1  0
 26 20  1  0
 27 26  1  0
 28 26  2  0
M  END
$$$$
