LHK.pdb
     RDKit          3D

 28 28  0  0  1  0  0  0  0  0999 V2000
    6.9453  -12.9549   18.4045 C   0  0  0  0  0  0  0  0  0  0  0  0
    8.3286  -13.4407   18.7146 C   0  0  1  0  0  0  0  0  0  0  0  0
    9.2790  -12.3170   19.0441 C   0  0  0  0  0  0  0  0  0  0  0  0
    8.3424  -14.5337   19.7320 C   0  0  0  0  0  0  0  0  0  0  0  0
    9.7643  -14.8880   20.0911 C   0  0  2  0  0  0  0  0  0  0  0  0
   10.4732  -15.4217   18.9479 N   0  0  0  0  0  0  0  0  0  0  0  0
    9.8314  -15.9002   21.1721 C   0  0  0  0  0  0  0  0  0  0  0  0
    9.1209  -15.7858   22.1718 O   0  0  0  0  0  0  0  0  0  0  0  0
   10.7164  -17.0345   21.0909 N   0  0  0  0  0  0  0  0  0  0  0  0
   10.8808  -17.9842   22.1649 C   0  0  1  0  0  0  0  0  0  0  0  0
   11.9176  -18.9933   21.6583 C   0  0  0  0  0  0  0  0  0  0  0  0
   12.1239  -20.0978   22.6350 C   0  0  0  0  0  0  0  0  0  0  0  0
   11.2149  -20.7443   23.4465 C   0  0  0  0  0  0  0  0  0  0  0  0
   11.8279  -21.6927   24.1827 N   0  0  0  0  0  0  0  0  0  0  0  0
   13.1160  -21.6596   23.8514 C   0  0  0  0  0  0  0  0  0  0  0  0
   13.3080  -20.7160   22.9318 N   0  0  0  0  0  0  0  0  0  0  0  0
   11.2292  -17.3723   23.4448 C   0  0  0  0  0  0  0  0  0  0  0  0
   12.1503  -16.5165   23.4873 O   0  0  0  0  0  0  0  0  0  0  0  0
   10.5975  -17.6712   24.6717 N   0  0  0  0  0  0  0  0  0  0  0  0
   10.8684  -16.8338   25.8429 C   0  0  1  0  0  0  0  0  0  0  0  0
    9.8213  -15.7460   25.9449 C   0  0  0  0  0  0  0  0  0  0  0  0
    9.9931  -14.8880   27.1641 C   0  0  0  0  0  0  0  0  0  0  0  0
    8.9495  -13.7810   27.2234 C   0  0  0  0  0  0  0  0  0  0  0  0
    9.2208  -12.8665   28.3846 C   0  0  0  0  0  0  0  0  0  0  0  0
    8.1446  -11.8705   28.4678 N   0  0  0  0  0  0  0  0  0  0  0  0
   10.9498  -17.7285   26.9894 C   0  0  0  0  0  0  0  0  0  0  0  0
   11.7251  -17.4333   28.1078 O   0  0  0  0  0  0  0  0  0  0  0  0
   10.3103  -18.8081   26.9956 O   0  0  0  0  0  0  0  0  0  0  0  0
  2  1  1  1
  2  3  1  0
  4  5  1  0
  4  2  1  0
  5  6  1  6
  7  5  1  0
  7  8  2  0
  9  7  1  0
 10  9  1  0
 11 12  1  0
 10 11  1  6
 12 16  1  0
 12 13  2  0
 13 14  1  0
 15 14  1  0
 16 15  2  0
 17 10  1  0
 18 17  2  0
 19 17  1  0
 20 21  1  1
 20 19  1  0
 21 22  1  0
 22 23  1  0
 23 24  1  0
 24 25  1  0
 26 20  1  0
 27 26  1  0
 28 26  2  0
M  END
$$$$
