SVF.pdb
     RDKit          3D

 25 25  0  0  1  0  0  0  0  0999 V2000
   10.1967  -15.4381   19.0327 O   0  0  0  0  0  0  0  0  0  0  0  0
    9.3666  -16.3427   18.3785 C   0  0  0  0  0  0  0  0  0  0  0  0
    7.9388  -15.8846   18.5833 C   0  0  2  0  0  0  0  0  0  0  0  0
    7.6811  -14.6192   17.9329 N   0  0  0  0  0  0  0  0  0  0  0  0
    7.6126  -15.7604   20.0235 C   0  0  0  0  0  0  0  0  0  0  0  0
    7.7034  -14.6497   20.6309 O   0  0  0  0  0  0  0  0  0  0  0  0
    7.0617  -19.2951   22.3648 C   0  0  0  0  0  0  0  0  0  0  0  0
    6.1256  -18.1260   22.5353 C   0  0  1  0  0  0  0  0  0  0  0  0
    5.6642  -18.0686   23.9560 C   0  0  0  0  0  0  0  0  0  0  0  0
    6.7931  -16.8086   22.1219 C   0  0  2  0  0  0  0  0  0  0  0  0
    7.1912  -16.8861   20.7516 N   0  0  0  0  0  0  0  0  0  0  0  0
    7.9869  -16.6768   23.0329 C   0  0  0  0  0  0  0  0  0  0  0  0
    9.1387  -16.9578   22.6121 O   0  0  0  0  0  0  0  0  0  0  0  0
    7.8666  -16.2424   24.3670 N   0  0  0  0  0  0  0  0  0  0  0  0
    9.0071  -16.0193   25.2445 C   0  0  1  0  0  0  0  0  0  0  0  0
    9.2961  -14.5459   25.4101 C   0  0  0  0  0  0  0  0  0  0  0  0
    8.1899  -13.7812   25.9686 C   0  0  0  0  0  0  0  0  0  0  0  0
    7.1722  -13.3197   25.1689 C   0  0  0  0  0  0  0  0  0  0  0  0
    6.1059  -12.5914   25.6593 C   0  0  0  0  0  0  0  0  0  0  0  0
    6.0668  -12.3195   27.0076 C   0  0  0  0  0  0  0  0  0  0  0  0
    7.0814  -12.7764   27.8223 C   0  0  0  0  0  0  0  0  0  0  0  0
    8.1482  -13.5084   27.3134 C   0  0  0  0  0  0  0  0  0  0  0  0
    8.7478  -16.6863   26.5441 C   0  0  0  0  0  0  0  0  0  0  0  0
    7.6269  -17.2000   26.7971 O   0  0  0  0  0  0  0  0  0  0  0  0
    9.7103  -16.7819   27.5423 O   0  0  0  0  0  0  0  0  0  0  0  0
  2  1  1  0
  3  2  1  0
  3  4  1  6
  5  3  1  0
  5  6  2  0
  8  7  1  1
  8 10  1  0
  9  8  1  0
 10 12  1  0
 10 11  1  6
 11  5  1  0
 12 14  1  0
 13 12  2  0
 14 15  1  0
 15 23  1  0
 15 16  1  1
 17 16  1  0
 17 22  2  0
 18 17  1  0
 19 18  2  0
 19 20  1  0
 20 21  2  0
 21 22  1  0
 23 24  2  0
 23 25  1  0
M  END
$$$$
