SVF.pdb
     RDKit          3D

 25 25  0  0  1  0  0  0  0  0999 V2000
    7.9776  -20.6176   21.3485 O   0  0  0  0  0  0  0  0  0  0  0  0
    8.5831  -19.4043   21.6594 C   0  0  0  0  0  0  0  0  0  0  0  0
    8.4495  -18.5029   20.4511 C   0  0  2  0  0  0  0  0  0  0  0  0
    9.1365  -19.0421   19.2989 N   0  0  0  0  0  0  0  0  0  0  0  0
    8.9715  -17.1444   20.7302 C   0  0  0  0  0  0  0  0  0  0  0  0
   10.2169  -16.8996   20.7318 O   0  0  0  0  0  0  0  0  0  0  0  0
    7.8406  -12.3759   21.5175 C   0  0  0  0  0  0  0  0  0  0  0  0
    7.4517  -13.7541   21.0469 C   0  0  1  0  0  0  0  0  0  0  0  0
    7.1886  -13.7153   19.5759 C   0  0  0  0  0  0  0  0  0  0  0  0
    8.5339  -14.7874   21.3833 C   0  0  2  0  0  0  0  0  0  0  0  0
    8.0841  -16.0891   21.0018 N   0  0  0  0  0  0  0  0  0  0  0  0
    8.7156  -14.6858   22.8763 C   0  0  0  0  0  0  0  0  0  0  0  0
    8.5849  -13.5771   23.4561 O   0  0  0  0  0  0  0  0  0  0  0  0
    9.0330  -15.8049   23.6700 N   0  0  0  0  0  0  0  0  0  0  0  0
    8.9450  -15.8090   25.1235 C   0  0  1  0  0  0  0  0  0  0  0  0
    7.5296  -15.5649   25.5914 C   0  0  0  0  0  0  0  0  0  0  0  0
    7.2430  -14.1761   25.9224 C   0  0  0  0  0  0  0  0  0  0  0  0
    5.9781  -13.6594   25.7772 C   0  0  0  0  0  0  0  0  0  0  0  0
    5.6653  -12.3485   26.0798 C   0  0  0  0  0  0  0  0  0  0  0  0
    6.6679  -11.5297   26.5463 C   0  0  0  0  0  0  0  0  0  0  0  0
    7.9424  -12.0347   26.6970 C   0  0  0  0  0  0  0  0  0  0  0  0
    8.2413  -13.3568   26.3880 C   0  0  0  0  0  0  0  0  0  0  0  0
    9.4866  -17.0935   25.6314 C   0  0  0  0  0  0  0  0  0  0  0  0
    9.6389  -17.2903   26.8653 O   0  0  0  0  0  0  0  0  0  0  0  0
    9.8516  -18.1377   24.7899 O   0  0  0  0  0  0  0  0  0  0  0  0
  2  1  1  0
  3  2  1  0
  3  4  1  6
  5  3  1  0
  5  6  2  0
  8  7  1  6
  8 10  1  0
  9  8  1  0
 10 12  1  0
 10 11  1  1
 11  5  1  0
 12 14  1  0
 13 12  2  0
 14 15  1  0
 15 23  1  0
 15 16  1  6
 17 16  1  0
 17 22  2  0
 18 17  1  0
 19 18  2  0
 19 20  1  0
 20 21  2  0
 21 22  1  0
 23 24  2  0
 23 25  1  0
M  END
$$$$
