SVF.pdb
     RDKit          3D

 25 25  0  0  1  0  0  0  0  0999 V2000
    7.1803  -18.7942   22.4728 O   0  0  0  0  0  0  0  0  0  0  0  0
    6.2114  -18.9937   21.4947 C   0  0  0  0  0  0  0  0  0  0  0  0
    6.7827  -18.5107   20.1791 C   0  0  2  0  0  0  0  0  0  0  0  0
    7.4091  -19.5829   19.4385 N   0  0  0  0  0  0  0  0  0  0  0  0
    7.7717  -17.4265   20.3851 C   0  0  0  0  0  0  0  0  0  0  0  0
    9.0098  -17.6738   20.5143 O   0  0  0  0  0  0  0  0  0  0  0  0
    6.3534  -13.5056   21.2272 C   0  0  0  0  0  0  0  0  0  0  0  0
    7.5341  -13.6786   20.3063 C   0  0  1  0  0  0  0  0  0  0  0  0
    8.4572  -12.5136   20.4661 C   0  0  0  0  0  0  0  0  0  0  0  0
    8.2662  -14.9991   20.5756 C   0  0  2  0  0  0  0  0  0  0  0  0
    7.3496  -16.0873   20.4419 N   0  0  0  0  0  0  0  0  0  0  0  0
    8.7727  -14.8795   21.9904 C   0  0  0  0  0  0  0  0  0  0  0  0
    9.6856  -14.0600   22.2691 O   0  0  0  0  0  0  0  0  0  0  0  0
    8.2562  -15.6640   23.0395 N   0  0  0  0  0  0  0  0  0  0  0  0
    8.5976  -15.4569   24.4399 C   0  0  1  0  0  0  0  0  0  0  0  0
    7.3605  -15.3656   25.3019 C   0  0  0  0  0  0  0  0  0  0  0  0
    7.0707  -14.0236   25.7872 C   0  0  0  0  0  0  0  0  0  0  0  0
    5.7776  -13.6122   26.0040 C   0  0  0  0  0  0  0  0  0  0  0  0
    5.4607  -12.3487   26.4634 C   0  0  0  0  0  0  0  0  0  0  0  0
    6.4886  -11.4686   26.7128 C   0  0  0  0  0  0  0  0  0  0  0  0
    7.7913  -11.8678   26.4997 C   0  0  0  0  0  0  0  0  0  0  0  0
    8.0940  -13.1433   26.0369 C   0  0  0  0  0  0  0  0  0  0  0  0
    9.5030  -16.5477   24.8775 C   0  0  0  0  0  0  0  0  0  0  0  0
    9.9667  -16.5754   26.0473 O   0  0  0  0  0  0  0  0  0  0  0  0
    9.8864  -17.5859   24.0366 O   0  0  0  0  0  0  0  0  0  0  0  0
  2  1  1  0
  3  2  1  0
  3  4  1  1
  5  3  1  0
  5  6  2  0
  8  7  1  1
  8 10  1  0
  9  8  1  0
 10 12  1  0
 10 11  1  1
 11  5  1  0
 12 14  1  0
 13 12  2  0
 14 15  1  0
 15 23  1  0
 15 16  1  1
 17 16  1  0
 17 22  2  0
 18 17  1  0
 19 18  2  0
 19 20  1  0
 20 21  2  0
 21 22  1  0
 23 24  2  0
 23 25  1  0
M  END
$$$$
