SVF.pdb
     RDKit          3D

 25 25  0  0  1  0  0  0  0  0999 V2000
   10.3782  -12.5913   18.2383 O   0  0  0  0  0  0  0  0  0  0  0  0
    9.3250  -12.6747   19.1434 C   0  0  0  0  0  0  0  0  0  0  0  0
    8.5180  -13.9066   18.7945 C   0  0  2  0  0  0  0  0  0  0  0  0
    7.5452  -13.6371   17.7594 N   0  0  0  0  0  0  0  0  0  0  0  0
    7.8181  -14.4484   19.9831 C   0  0  0  0  0  0  0  0  0  0  0  0
    6.7329  -13.9411   20.4024 O   0  0  0  0  0  0  0  0  0  0  0  0
    6.2812  -17.6191   20.5741 C   0  0  0  0  0  0  0  0  0  0  0  0
    7.3319  -17.5148   21.6498 C   0  0  1  0  0  0  0  0  0  0  0  0
    8.5021  -18.3677   21.2785 C   0  0  0  0  0  0  0  0  0  0  0  0
    7.7627  -16.0600   21.8734 C   0  0  2  0  0  0  0  0  0  0  0  0
    8.3516  -15.5486   20.6759 N   0  0  0  0  0  0  0  0  0  0  0  0
    8.7675  -16.1217   22.9954 C   0  0  0  0  0  0  0  0  0  0  0  0
    9.9868  -15.9138   22.7657 O   0  0  0  0  0  0  0  0  0  0  0  0
    8.3922  -16.4090   24.3219 N   0  0  0  0  0  0  0  0  0  0  0  0
    9.2237  -16.0990   25.4764 C   0  0  1  0  0  0  0  0  0  0  0  0
    9.5110  -14.6189   25.5682 C   0  0  0  0  0  0  0  0  0  0  0  0
    8.3585  -13.8107   25.9414 C   0  0  0  0  0  0  0  0  0  0  0  0
    7.3795  -13.5072   25.0262 C   0  0  0  0  0  0  0  0  0  0  0  0
    6.2716  -12.7443   25.3399 C   0  0  0  0  0  0  0  0  0  0  0  0
    6.1487  -12.2706   26.6260 C   0  0  0  0  0  0  0  0  0  0  0  0
    7.1237  -12.5674   27.5551 C   0  0  0  0  0  0  0  0  0  0  0  0
    8.2332  -13.3368   27.2237 C   0  0  0  0  0  0  0  0  0  0  0  0
    8.5574  -16.6146   26.6976 C   0  0  0  0  0  0  0  0  0  0  0  0
    9.1224  -16.5509   27.8205 O   0  0  0  0  0  0  0  0  0  0  0  0
    7.2918  -17.1886   26.6749 O   0  0  0  0  0  0  0  0  0  0  0  0
  2  1  1  0
  3  2  1  0
  3  4  1  6
  5  3  1  0
  5  6  2  0
  8  7  1  6
  8 10  1  0
  9  8  1  0
 10 12  1  0
 10 11  1  6
 11  5  1  0
 12 14  1  0
 13 12  2  0
 14 15  1  0
 15 23  1  0
 15 16  1  1
 17 16  1  0
 17 22  2  0
 18 17  1  0
 19 18  2  0
 19 20  1  0
 20 21  2  0
 21 22  1  0
 23 24  2  0
 23 25  1  0
M  END
$$$$
