SVF.pdb
     RDKit          3D

 25 25  0  0  1  0  0  0  0  0999 V2000
    6.1012  -18.4801   23.4571 O   0  0  0  0  0  0  0  0  0  0  0  0
    5.0937  -18.3229   22.5107 C   0  0  0  0  0  0  0  0  0  0  0  0
    5.7565  -18.1437   21.1620 C   0  0  2  0  0  0  0  0  0  0  0  0
    6.1515  -19.4088   20.5841 N   0  0  0  0  0  0  0  0  0  0  0  0
    6.9466  -17.2659   21.2572 C   0  0  0  0  0  0  0  0  0  0  0  0
    8.1099  -17.7422   21.4322 O   0  0  0  0  0  0  0  0  0  0  0  0
    6.4033  -12.9875   21.5303 C   0  0  0  0  0  0  0  0  0  0  0  0
    7.5187  -13.6001   20.7225 C   0  0  1  0  0  0  0  0  0  0  0  0
    8.6896  -12.6707   20.7171 C   0  0  0  0  0  0  0  0  0  0  0  0
    7.9147  -14.9776   21.2681 C   0  0  2  0  0  0  0  0  0  0  0  0
    6.8055  -15.8715   21.1541 N   0  0  0  0  0  0  0  0  0  0  0  0
    8.2760  -14.7334   22.7111 C   0  0  0  0  0  0  0  0  0  0  0  0
    7.9807  -13.6415   23.2617 O   0  0  0  0  0  0  0  0  0  0  0  0
    8.9459  -15.6973   23.4889 N   0  0  0  0  0  0  0  0  0  0  0  0
    9.2437  -15.5216   24.9034 C   0  0  1  0  0  0  0  0  0  0  0  0
    7.9805  -15.4472   25.7283 C   0  0  0  0  0  0  0  0  0  0  0  0
    7.5664  -14.0917   26.0623 C   0  0  0  0  0  0  0  0  0  0  0  0
    6.2436  -13.7226   26.0144 C   0  0  0  0  0  0  0  0  0  0  0  0
    5.8101  -12.4480   26.3234 C   0  0  0  0  0  0  0  0  0  0  0  0
    6.7480  -11.5120   26.6944 C   0  0  0  0  0  0  0  0  0  0  0  0
    8.0792  -11.8683   26.7468 C   0  0  0  0  0  0  0  0  0  0  0  0
    8.4999  -13.1557   26.4328 C   0  0  0  0  0  0  0  0  0  0  0  0
   10.1340  -16.6233   25.3448 C   0  0  0  0  0  0  0  0  0  0  0  0
   10.5891  -16.6586   26.5178 O   0  0  0  0  0  0  0  0  0  0  0  0
   10.5120  -17.6636   24.5042 O   0  0  0  0  0  0  0  0  0  0  0  0
  2  1  1  0
  3  2  1  0
  3  4  1  1
  5  3  1  0
  5  6  2  0
  8  7  1  1
  8 10  1  0
  9  8  1  0
 10 12  1  0
 10 11  1  1
 11  5  1  0
 12 14  1  0
 13 12  2  0
 14 15  1  0
 15 23  1  0
 15 16  1  1
 17 16  1  0
 17 22  2  0
 18 17  1  0
 19 18  2  0
 19 20  1  0
 20 21  2  0
 21 22  1  0
 23 24  2  0
 23 25  1  0
M  END
$$$$
