SVF.pdb
     RDKit          3D

 25 25  0  0  1  0  0  0  0  0999 V2000
    9.3888  -12.0779   20.2749 O   0  0  0  0  0  0  0  0  0  0  0  0
    9.5983  -13.2183   19.5061 C   0  0  0  0  0  0  0  0  0  0  0  0
    8.2499  -13.8617   19.2648 C   0  0  2  0  0  0  0  0  0  0  0  0
    7.2923  -12.9199   18.7295 N   0  0  0  0  0  0  0  0  0  0  0  0
    7.7016  -14.4503   20.5095 C   0  0  0  0  0  0  0  0  0  0  0  0
    6.7232  -13.9195   21.1192 O   0  0  0  0  0  0  0  0  0  0  0  0
    6.7787  -18.1824   20.7650 C   0  0  0  0  0  0  0  0  0  0  0  0
    7.7038  -17.8160   21.8973 C   0  0  1  0  0  0  0  0  0  0  0  0
    9.0839  -18.2943   21.5790 C   0  0  0  0  0  0  0  0  0  0  0  0
    7.6945  -16.3055   22.1622 C   0  0  2  0  0  0  0  0  0  0  0  0
    8.2636  -15.6225   21.0433 N   0  0  0  0  0  0  0  0  0  0  0  0
    8.5349  -16.1243   23.4005 C   0  0  0  0  0  0  0  0  0  0  0  0
    9.7635  -15.8728   23.3007 O   0  0  0  0  0  0  0  0  0  0  0  0
    7.9920  -16.2269   24.6957 N   0  0  0  0  0  0  0  0  0  0  0  0
    8.7731  -16.0409   25.9105 C   0  0  1  0  0  0  0  0  0  0  0  0
    7.9534  -15.3896   26.9994 C   0  0  0  0  0  0  0  0  0  0  0  0
    7.4512  -14.0666   26.6560 C   0  0  0  0  0  0  0  0  0  0  0  0
    8.2738  -12.9663   26.6865 C   0  0  0  0  0  0  0  0  0  0  0  0
    7.8366  -11.6953   26.3682 C   0  0  0  0  0  0  0  0  0  0  0  0
    6.5195  -11.5303   26.0056 C   0  0  0  0  0  0  0  0  0  0  0  0
    5.6824  -12.6257   25.9706 C   0  0  0  0  0  0  0  0  0  0  0  0
    6.1377  -13.8989   26.2939 C   0  0  0  0  0  0  0  0  0  0  0  0
    9.3191  -17.3541   26.3333 C   0  0  0  0  0  0  0  0  0  0  0  0
    8.8838  -18.4267   25.8391 O   0  0  0  0  0  0  0  0  0  0  0  0
   10.3260  -17.4759   27.2836 O   0  0  0  0  0  0  0  0  0  0  0  0
  2  1  1  0
  3  2  1  0
  3  4  1  1
  5  3  1  0
  5  6  2  0
  8  7  1  6
  8 10  1  0
  9  8  1  0
 10 12  1  0
 10 11  1  6
 11  5  1  0
 12 14  1  0
 13 12  2  0
 14 15  1  0
 15 23  1  0
 15 16  1  1
 17 16  1  0
 17 22  2  0
 18 17  1  0
 19 18  2  0
 19 20  1  0
 20 21  2  0
 21 22  1  0
 23 24  2  0
 23 25  1  0
M  END
$$$$
