SVF.pdb
     RDKit          3D

 25 25  0  0  1  0  0  0  0  0999 V2000
    6.3829  -18.5846   23.4318 O   0  0  0  0  0  0  0  0  0  0  0  0
    5.2752  -18.2119   22.6771 C   0  0  0  0  0  0  0  0  0  0  0  0
    5.7126  -18.1327   21.2304 C   0  0  2  0  0  0  0  0  0  0  0  0
    5.9424  -19.4435   20.6652 N   0  0  0  0  0  0  0  0  0  0  0  0
    6.9443  -17.3222   21.0820 C   0  0  0  0  0  0  0  0  0  0  0  0
    8.0830  -17.8652   20.9432 O   0  0  0  0  0  0  0  0  0  0  0  0
    6.6743  -13.1329   21.7663 C   0  0  0  0  0  0  0  0  0  0  0  0
    7.5908  -13.6449   20.6847 C   0  0  1  0  0  0  0  0  0  0  0  0
    8.7757  -12.7401   20.5751 C   0  0  0  0  0  0  0  0  0  0  0  0
    8.0275  -15.0896   20.9575 C   0  0  2  0  0  0  0  0  0  0  0  0
    6.8714  -15.9188   21.0925 N   0  0  0  0  0  0  0  0  0  0  0  0
    8.8070  -15.0217   22.2460 C   0  0  0  0  0  0  0  0  0  0  0  0
    9.9208  -14.4379   22.2822 O   0  0  0  0  0  0  0  0  0  0  0  0
    8.3316  -15.5971   23.4401 N   0  0  0  0  0  0  0  0  0  0  0  0
    9.0415  -15.5149   24.7088 C   0  0  1  0  0  0  0  0  0  0  0  0
    8.0830  -15.4163   25.8722 C   0  0  0  0  0  0  0  0  0  0  0  0
    7.5703  -14.0741   26.1091 C   0  0  0  0  0  0  0  0  0  0  0  0
    6.2243  -13.8069   26.0386 C   0  0  0  0  0  0  0  0  0  0  0  0
    5.6982  -12.5484   26.2565 C   0  0  0  0  0  0  0  0  0  0  0  0
    6.5644  -11.5223   26.5566 C   0  0  0  0  0  0  0  0  0  0  0  0
    7.9180  -11.7759   26.6307 C   0  0  0  0  0  0  0  0  0  0  0  0
    8.4321  -13.0484   26.4088 C   0  0  0  0  0  0  0  0  0  0  0  0
    9.9445  -16.6860   24.8280 C   0  0  0  0  0  0  0  0  0  0  0  0
    9.8488  -17.6616   24.0383 O   0  0  0  0  0  0  0  0  0  0  0  0
   10.9326  -16.7743   25.8015 O   0  0  0  0  0  0  0  0  0  0  0  0
  2  1  1  0
  3  2  1  0
  3  4  1  1
  5  3  1  0
  5  6  2  0
  8  7  1  1
  8 10  1  0
  9  8  1  0
 10 12  1  0
 10 11  1  1
 11  5  1  0
 12 14  1  0
 13 12  2  0
 14 15  1  0
 15 23  1  0
 15 16  1  1
 17 16  1  0
 17 22  2  0
 18 17  1  0
 19 18  2  0
 19 20  1  0
 20 21  2  0
 21 22  1  0
 23 24  2  0
 23 25  1  0
M  END
$$$$
