SVF.pdb
     RDKit          3D

 25 25  0  0  1  0  0  0  0  0999 V2000
   12.4926  -14.0532   19.4974 O   0  0  0  0  0  0  0  0  0  0  0  0
   11.3468  -14.0108   20.2853 C   0  0  0  0  0  0  0  0  0  0  0  0
   10.2177  -14.6227   19.4847 C   0  0  2  0  0  0  0  0  0  0  0  0
    9.6547  -13.6817   18.5423 N   0  0  0  0  0  0  0  0  0  0  0  0
    9.1382  -15.1228   20.3681 C   0  0  0  0  0  0  0  0  0  0  0  0
    8.1801  -14.3749   20.7337 O   0  0  0  0  0  0  0  0  0  0  0  0
    6.9846  -19.1812   22.2146 C   0  0  0  0  0  0  0  0  0  0  0  0
    7.9983  -18.5181   21.3176 C   0  0  1  0  0  0  0  0  0  0  0  0
    7.6336  -18.7733   19.8905 C   0  0  0  0  0  0  0  0  0  0  0  0
    8.0956  -17.0134   21.5979 C   0  0  2  0  0  0  0  0  0  0  0  0
    9.1571  -16.4525   20.8227 N   0  0  0  0  0  0  0  0  0  0  0  0
    8.3824  -16.9123   23.0744 C   0  0  0  0  0  0  0  0  0  0  0  0
    9.5484  -17.1008   23.5073 O   0  0  0  0  0  0  0  0  0  0  0  0
    7.3778  -16.6089   24.0134 N   0  0  0  0  0  0  0  0  0  0  0  0
    7.6268  -16.4821   25.4425 C   0  0  1  0  0  0  0  0  0  0  0  0
    6.5364  -15.6898   26.1245 C   0  0  0  0  0  0  0  0  0  0  0  0
    6.8995  -14.3114   26.4225 C   0  0  0  0  0  0  0  0  0  0  0  0
    6.1692  -13.2616   25.9196 C   0  0  0  0  0  0  0  0  0  0  0  0
    6.4803  -11.9410   26.1784 C   0  0  0  0  0  0  0  0  0  0  0  0
    7.5696  -11.6714   26.9747 C   0  0  0  0  0  0  0  0  0  0  0  0
    8.3118  -12.7151   27.4863 C   0  0  0  0  0  0  0  0  0  0  0  0
    7.9857  -14.0394   27.2166 C   0  0  0  0  0  0  0  0  0  0  0  0
    7.7769  -17.8389   26.0236 C   0  0  0  0  0  0  0  0  0  0  0  0
    7.0840  -18.8034   25.6064 O   0  0  0  0  0  0  0  0  0  0  0  0
    8.6759  -18.1210   27.0454 O   0  0  0  0  0  0  0  0  0  0  0  0
  2  1  1  0
  3  2  1  0
  3  4  1  6
  5  3  1  0
  5  6  2  0
  8  7  1  1
  8 10  1  0
  9  8  1  0
 10 12  1  0
 10 11  1  6
 11  5  1  0
 12 14  1  0
 13 12  2  0
 14 15  1  0
 15 23  1  0
 15 16  1  1
 17 16  1  0
 17 22  2  0
 18 17  1  0
 19 18  2  0
 19 20  1  0
 20 21  2  0
 21 22  1  0
 23 24  2  0
 23 25  1  0
M  END
$$$$
