SVF.pdb
     RDKit          3D

 25 25  0  0  1  0  0  0  0  0999 V2000
   12.6849  -18.7249   21.0325 O   0  0  0  0  0  0  0  0  0  0  0  0
   11.5549  -18.9734   20.2600 C   0  0  0  0  0  0  0  0  0  0  0  0
   11.1742  -17.6784   19.5758 C   0  0  2  0  0  0  0  0  0  0  0  0
   12.2795  -17.1182   18.8308 N   0  0  0  0  0  0  0  0  0  0  0  0
   10.6933  -16.6726   20.5521 C   0  0  0  0  0  0  0  0  0  0  0  0
   11.4834  -15.8338   21.0841 O   0  0  0  0  0  0  0  0  0  0  0  0
    6.6696  -14.6242   22.6323 C   0  0  0  0  0  0  0  0  0  0  0  0
    7.2997  -15.5114   21.5893 C   0  0  1  0  0  0  0  0  0  0  0  0
    7.0105  -14.9563   20.2317 C   0  0  0  0  0  0  0  0  0  0  0  0
    8.8103  -15.6538   21.8130 C   0  0  2  0  0  0  0  0  0  0  0  0
    9.3351  -16.6298   20.9106 N   0  0  0  0  0  0  0  0  0  0  0  0
    8.9491  -16.1011   23.2458 C   0  0  0  0  0  0  0  0  0  0  0  0
    8.9371  -17.3265   23.5306 O   0  0  0  0  0  0  0  0  0  0  0  0
    9.0952  -15.1854   24.3055 N   0  0  0  0  0  0  0  0  0  0  0  0
    9.4140  -15.5811   25.6701 C   0  0  1  0  0  0  0  0  0  0  0  0
    9.5225  -14.3814   26.5816 C   0  0  0  0  0  0  0  0  0  0  0  0
    8.3896  -13.4698   26.5033 C   0  0  0  0  0  0  0  0  0  0  0  0
    7.3202  -13.5933   27.3573 C   0  0  0  0  0  0  0  0  0  0  0  0
    6.2272  -12.7497   27.3156 C   0  0  0  0  0  0  0  0  0  0  0  0
    6.2147  -11.7443   26.3762 C   0  0  0  0  0  0  0  0  0  0  0  0
    7.2813  -11.6084   25.5126 C   0  0  0  0  0  0  0  0  0  0  0  0
    8.3743  -12.4658   25.5672 C   0  0  0  0  0  0  0  0  0  0  0  0
    8.3903  -16.5471   26.1392 C   0  0  0  0  0  0  0  0  0  0  0  0
    8.5508  -17.1947   27.2066 O   0  0  0  0  0  0  0  0  0  0  0  0
    7.2138  -16.7904   25.4403 O   0  0  0  0  0  0  0  0  0  0  0  0
  2  1  1  0
  3  2  1  0
  3  4  1  1
  5  3  1  0
  5  6  2  0
  8  7  1  1
  8 10  1  0
  9  8  1  0
 10 12  1  0
 10 11  1  6
 11  5  1  0
 12 14  1  0
 13 12  2  0
 14 15  1  0
 15 23  1  0
 15 16  1  1
 17 16  1  0
 17 22  2  0
 18 17  1  0
 19 18  2  0
 19 20  1  0
 20 21  2  0
 21 22  1  0
 23 24  2  0
 23 25  1  0
M  END
$$$$
