SVF.pdb
     RDKit          3D

 25 25  0  0  1  0  0  0  0  0999 V2000
   12.0464  -19.3977   19.3431 O   0  0  0  0  0  0  0  0  0  0  0  0
   11.7708  -18.4456   20.3193 C   0  0  0  0  0  0  0  0  0  0  0  0
   11.0953  -17.2746   19.6390 C   0  0  2  0  0  0  0  0  0  0  0  0
   11.9758  -16.6170   18.6995 N   0  0  0  0  0  0  0  0  0  0  0  0
   10.6157  -16.2793   20.6266 C   0  0  0  0  0  0  0  0  0  0  0  0
   11.3721  -15.3565   21.0593 O   0  0  0  0  0  0  0  0  0  0  0  0
    7.1175  -14.3654   20.5803 C   0  0  0  0  0  0  0  0  0  0  0  0
    7.3150  -15.1638   21.8434 C   0  0  1  0  0  0  0  0  0  0  0  0
    6.5402  -16.4385   21.7456 C   0  0  0  0  0  0  0  0  0  0  0  0
    8.8004  -15.4437   22.1031 C   0  0  2  0  0  0  0  0  0  0  0  0
    9.2967  -16.3410   21.1077 N   0  0  0  0  0  0  0  0  0  0  0  0
    8.8429  -16.0682   23.4744 C   0  0  0  0  0  0  0  0  0  0  0  0
    8.9472  -17.3157   23.5991 O   0  0  0  0  0  0  0  0  0  0  0  0
    8.7691  -15.2978   24.6508 N   0  0  0  0  0  0  0  0  0  0  0  0
    8.9013  -15.8594   25.9877 C   0  0  1  0  0  0  0  0  0  0  0  0
    8.9726  -14.7753   27.0373 C   0  0  0  0  0  0  0  0  0  0  0  0
    7.9690  -13.7315   26.8842 C   0  0  0  0  0  0  0  0  0  0  0  0
    6.7267  -13.8530   27.4589 C   0  0  0  0  0  0  0  0  0  0  0  0
    5.7476  -12.8863   27.3375 C   0  0  0  0  0  0  0  0  0  0  0  0
    6.0346  -11.7552   26.6083 C   0  0  0  0  0  0  0  0  0  0  0  0
    7.2773  -11.6197   26.0259 C   0  0  0  0  0  0  0  0  0  0  0  0
    8.2524  -12.6019   26.1573 C   0  0  0  0  0  0  0  0  0  0  0  0
    7.7743  -16.7942   26.2271 C   0  0  0  0  0  0  0  0  0  0  0  0
    7.7629  -17.5522   27.2319 O   0  0  0  0  0  0  0  0  0  0  0  0
    6.6832  -16.8869   25.3712 O   0  0  0  0  0  0  0  0  0  0  0  0
  2  1  1  0
  3  2  1  0
  3  4  1  6
  5  3  1  0
  5  6  2  0
  8  7  1  6
  8 10  1  0
  9  8  1  0
 10 12  1  0
 10 11  1  6
 11  5  1  0
 12 14  1  0
 13 12  2  0
 14 15  1  0
 15 23  1  0
 15 16  1  1
 17 16  1  0
 17 22  2  0
 18 17  1  0
 19 18  2  0
 19 20  1  0
 20 21  2  0
 21 22  1  0
 23 24  2  0
 23 25  1  0
M  END
$$$$
