SVF.pdb
     RDKit          3D

 25 25  0  0  1  0  0  0  0  0999 V2000
    5.8368  -20.7614   23.2125 O   0  0  0  0  0  0  0  0  0  0  0  0
    6.3177  -19.4560   23.2159 C   0  0  0  0  0  0  0  0  0  0  0  0
    6.5535  -19.0512   21.7769 C   0  0  2  0  0  0  0  0  0  0  0  0
    6.9673  -20.1725   20.9634 N   0  0  0  0  0  0  0  0  0  0  0  0
    7.5744  -17.9817   21.6769 C   0  0  0  0  0  0  0  0  0  0  0  0
    8.7775  -18.2400   21.3659 O   0  0  0  0  0  0  0  0  0  0  0  0
    8.4031  -13.0772   21.8680 C   0  0  0  0  0  0  0  0  0  0  0  0
    7.4389  -14.2345   21.9214 C   0  0  1  0  0  0  0  0  0  0  0  0
    6.4723  -14.1219   20.7866 C   0  0  0  0  0  0  0  0  0  0  0  0
    8.1749  -15.5795   21.8832 C   0  0  2  0  0  0  0  0  0  0  0  0
    7.2229  -16.6444   21.9282 N   0  0  0  0  0  0  0  0  0  0  0  0
    9.0518  -15.5759   23.1093 C   0  0  0  0  0  0  0  0  0  0  0  0
   10.2229  -15.1203   23.0489 O   0  0  0  0  0  0  0  0  0  0  0  0
    8.6070  -16.0724   24.3497 N   0  0  0  0  0  0  0  0  0  0  0  0
    9.4290  -16.0826   25.5517 C   0  0  1  0  0  0  0  0  0  0  0  0
    9.6419  -14.6861   26.0866 C   0  0  0  0  0  0  0  0  0  0  0  0
    8.4103  -13.9591   26.3604 C   0  0  0  0  0  0  0  0  0  0  0  0
    8.4306  -12.7523   27.0173 C   0  0  0  0  0  0  0  0  0  0  0  0
    7.2855  -12.0319   27.2961 C   0  0  0  0  0  0  0  0  0  0  0  0
    6.0753  -12.5503   26.8961 C   0  0  0  0  0  0  0  0  0  0  0  0
    6.0397  -13.7605   26.2357 C   0  0  0  0  0  0  0  0  0  0  0  0
    7.2013  -14.4737   25.9625 C   0  0  0  0  0  0  0  0  0  0  0  0
    8.7970  -16.9739   26.5553 C   0  0  0  0  0  0  0  0  0  0  0  0
    7.7194  -17.5734   26.3028 O   0  0  0  0  0  0  0  0  0  0  0  0
    9.3474  -17.1961   27.8121 O   0  0  0  0  0  0  0  0  0  0  0  0
  2  1  1  0
  3  2  1  0
  3  4  1  6
  5  3  1  0
  5  6  2  0
  8  7  1  6
  8 10  1  0
  9  8  1  0
 10 12  1  0
 10 11  1  1
 11  5  1  0
 12 14  1  0
 13 12  2  0
 14 15  1  0
 15 23  1  0
 15 16  1  1
 17 16  1  0
 17 22  2  0
 18 17  1  0
 19 18  2  0
 19 20  1  0
 20 21  2  0
 21 22  1  0
 23 24  2  0
 23 25  1  0
M  END
$$$$
