SVF.pdb
     RDKit          3D

 25 25  0  0  1  0  0  0  0  0999 V2000
    9.1388  -19.5420   20.4602 O   0  0  0  0  0  0  0  0  0  0  0  0
    8.2089  -18.8925   19.6548 C   0  0  0  0  0  0  0  0  0  0  0  0
    8.9299  -17.7745   18.9331 C   0  0  2  0  0  0  0  0  0  0  0  0
   10.0706  -18.2614   18.1900 N   0  0  0  0  0  0  0  0  0  0  0  0
    9.3828  -16.7259   19.8773 C   0  0  0  0  0  0  0  0  0  0  0  0
   10.5639  -16.7167   20.3417 O   0  0  0  0  0  0  0  0  0  0  0  0
    7.9766  -12.8284   19.9382 C   0  0  0  0  0  0  0  0  0  0  0  0
    7.8534  -13.5833   21.2371 C   0  0  1  0  0  0  0  0  0  0  0  0
    6.4436  -14.0527   21.4013 C   0  0  0  0  0  0  0  0  0  0  0  0
    8.8338  -14.7613   21.2958 C   0  0  2  0  0  0  0  0  0  0  0  0
    8.4998  -15.7095   20.2801 N   0  0  0  0  0  0  0  0  0  0  0  0
    8.6535  -15.3468   22.6731 C   0  0  0  0  0  0  0  0  0  0  0  0
    7.7956  -16.2453   22.8719 O   0  0  0  0  0  0  0  0  0  0  0  0
    9.4218  -14.9219   23.7741 N   0  0  0  0  0  0  0  0  0  0  0  0
    9.0849  -15.2332   25.1561 C   0  0  1  0  0  0  0  0  0  0  0  0
    7.6150  -15.0161   25.4282 C   0  0  0  0  0  0  0  0  0  0  0  0
    7.2804  -13.6616   25.8454 C   0  0  0  0  0  0  0  0  0  0  0  0
    8.2212  -12.6603   25.8228 C   0  0  0  0  0  0  0  0  0  0  0  0
    7.9442  -11.3637   26.2102 C   0  0  0  0  0  0  0  0  0  0  0  0
    6.6696  -11.0683   26.6360 C   0  0  0  0  0  0  0  0  0  0  0  0
    5.7151  -12.0633   26.6638 C   0  0  0  0  0  0  0  0  0  0  0  0
    6.0095  -13.3639   26.2707 C   0  0  0  0  0  0  0  0  0  0  0  0
    9.5066  -16.6252   25.4489 C   0  0  0  0  0  0  0  0  0  0  0  0
    9.3002  -17.1412   26.5783 O   0  0  0  0  0  0  0  0  0  0  0  0
   10.1436  -17.4283   24.5102 O   0  0  0  0  0  0  0  0  0  0  0  0
  2  1  1  0
  3  2  1  0
  3  4  1  1
  5  3  1  0
  5  6  2  0
  8  7  1  6
  8 10  1  0
  9  8  1  0
 10 12  1  0
 10 11  1  6
 11  5  1  0
 12 14  1  0
 13 12  2  0
 14 15  1  0
 15 23  1  0
 15 16  1  6
 17 16  1  0
 17 22  2  0
 18 17  1  0
 19 18  2  0
 19 20  1  0
 20 21  2  0
 21 22  1  0
 23 24  2  0
 23 25  1  0
M  END
$$$$
