SVF.pdb
     RDKit          3D

 25 25  0  0  1  0  0  0  0  0999 V2000
    7.1677  -18.6071   23.1748 O   0  0  0  0  0  0  0  0  0  0  0  0
    6.3298  -19.3015   22.3082 C   0  0  0  0  0  0  0  0  0  0  0  0
    6.2872  -18.5377   21.0023 C   0  0  2  0  0  0  0  0  0  0  0  0
    6.4350  -19.4136   19.8615 N   0  0  0  0  0  0  0  0  0  0  0  0
    7.3418  -17.4978   20.9501 C   0  0  0  0  0  0  0  0  0  0  0  0
    8.5502  -17.7907   20.6957 O   0  0  0  0  0  0  0  0  0  0  0  0
    6.2684  -13.5177   22.0427 C   0  0  0  0  0  0  0  0  0  0  0  0
    7.2905  -13.7571   20.9610 C   0  0  1  0  0  0  0  0  0  0  0  0
    8.2791  -12.6358   20.9618 C   0  0  0  0  0  0  0  0  0  0  0  0
    7.9935  -15.1080   21.1433 C   0  0  2  0  0  0  0  0  0  0  0  0
    7.0172  -16.1508   21.1848 N   0  0  0  0  0  0  0  0  0  0  0  0
    8.7254  -14.9896   22.4558 C   0  0  0  0  0  0  0  0  0  0  0  0
    9.7437  -14.2569   22.5491 O   0  0  0  0  0  0  0  0  0  0  0  0
    8.3091  -15.6801   23.6103 N   0  0  0  0  0  0  0  0  0  0  0  0
    8.9892  -15.5805   24.8941 C   0  0  1  0  0  0  0  0  0  0  0  0
    8.0155  -15.2989   26.0141 C   0  0  0  0  0  0  0  0  0  0  0  0
    7.6052  -13.9050   26.1099 C   0  0  0  0  0  0  0  0  0  0  0  0
    8.5309  -12.9037   26.2791 C   0  0  0  0  0  0  0  0  0  0  0  0
    8.1830  -11.5704   26.3745 C   0  0  0  0  0  0  0  0  0  0  0  0
    6.8503  -11.2368   26.2959 C   0  0  0  0  0  0  0  0  0  0  0  0
    5.9101  -12.2313   26.1261 C   0  0  0  0  0  0  0  0  0  0  0  0
    6.2764  -13.5691   26.0319 C   0  0  0  0  0  0  0  0  0  0  0  0
    9.7592  -16.8275   25.1249 C   0  0  0  0  0  0  0  0  0  0  0  0
   10.4335  -16.9880   26.1757 O   0  0  0  0  0  0  0  0  0  0  0  0
    9.7817  -17.8743   24.2109 O   0  0  0  0  0  0  0  0  0  0  0  0
  2  1  1  0
  3  2  1  0
  3  4  1  6
  5  3  1  0
  5  6  2  0
  8  7  1  1
  8 10  1  0
  9  8  1  0
 10 12  1  0
 10 11  1  1
 11  5  1  0
 12 14  1  0
 13 12  2  0
 14 15  1  0
 15 23  1  0
 15 16  1  1
 17 16  1  0
 17 22  2  0
 18 17  1  0
 19 18  2  0
 19 20  1  0
 20 21  2  0
 21 22  1  0
 23 24  2  0
 23 25  1  0
M  END
$$$$
