ENH.pdb
     RDKit          3D

 28 28  0  0  1  0  0  0  0  0999 V2000
   26.3865   -9.1013  -17.7063 N   0  0  0  0  0  0  0  0  0  0  0  0
   25.2002   -8.4172  -18.2605 C   0  0  1  0  0  0  0  0  0  0  0  0
   24.7168   -9.2772  -19.3787 C   0  0  0  0  0  0  0  0  0  0  0  0
   24.1590  -10.6014  -19.0005 C   0  0  0  0  0  0  0  0  0  0  0  0
   23.7651  -11.3991  -20.1679 C   0  0  0  0  0  0  0  0  0  0  0  0
   24.5266  -12.2077  -20.7197 O   0  0  0  0  0  0  0  0  0  0  0  0
   24.2194   -8.3217  -17.1461 C   0  0  0  0  0  0  0  0  0  0  0  0
   24.0616   -9.3023  -16.3795 O   0  0  0  0  0  0  0  0  0  0  0  0
   22.4654  -11.2420  -20.6885 O   0  0  0  0  0  0  0  0  0  0  0  0
   22.0615   -5.2475  -13.0875 N   0  0  0  0  0  0  0  0  0  0  0  0
   21.6028   -5.2114  -14.4210 C   0  0  0  0  0  0  0  0  0  0  0  0
   20.4064   -4.9485  -14.6761 O   0  0  0  0  0  0  0  0  0  0  0  0
   22.5274   -5.4832  -15.5384 C   0  0  0  0  0  0  0  0  0  0  0  0
   22.5435   -6.9657  -15.8345 C   0  0  2  0  0  0  0  0  0  0  0  0
   23.4649   -7.1661  -16.9263 N   0  0  0  0  0  0  0  0  0  0  0  0
   21.2155   -7.5231  -16.0723 C   0  0  0  0  0  0  0  0  0  0  0  0
   20.6404   -7.2909  -17.1647 O   0  0  0  0  0  0  0  0  0  0  0  0
   20.5663   -8.3204  -15.0929 N   0  0  0  0  0  0  0  0  0  0  0  0
   19.2175   -8.8573  -15.2559 C   0  0  1  0  0  0  0  0  0  0  0  0
   19.1401  -10.2226  -14.5820 C   0  0  0  0  0  0  0  0  0  0  0  0
   17.8109  -10.8523  -14.7677 C   0  0  0  0  0  0  0  0  0  0  0  0
   17.1273  -11.0583  -15.9640 C   0  0  0  0  0  0  0  0  0  0  0  0
   15.9492  -11.6608  -15.7266 N   0  0  0  0  0  0  0  0  0  0  0  0
   15.8842  -11.8363  -14.3927 C   0  0  0  0  0  0  0  0  0  0  0  0
   16.9976  -11.3537  -13.8119 N   0  0  0  0  0  0  0  0  0  0  0  0
   18.1920   -7.9232  -14.7926 C   0  0  0  0  0  0  0  0  0  0  0  0
   17.1914   -7.7003  -15.5151 O   0  0  0  0  0  0  0  0  0  0  0  0
   18.2753   -7.2670  -13.5809 O   0  0  0  0  0  0  0  0  0  0  0  0
  2  1  1  1
  2  3  1  0
  4  3  1  0
  5  6  2  0
  5  4  1  0
  7 15  1  0
  7  2  1  0
  8  7  2  0
  9  5  1  0
 11 10  1  0
 12 11  2  0
 14 13  1  6
 13 11  1  0
 14 15  1  0
 16 14  1  0
 17 16  2  0
 18 16  1  0
 19 20  1  1
 19 18  1  0
 20 21  1  0
 21 22  2  0
 22 23  1  0
 24 23  1  0
 25 21  1  0
 25 24  2  0
 26 19  1  0
 27 26  2  0
 28 26  1  0
M  END
$$$$
