ENH.pdb
     RDKit          3D

 28 28  0  0  1  0  0  0  0  0999 V2000
   25.9418  -19.9841  -15.4650 N   0  0  0  0  0  0  0  0  0  0  0  0
   24.8150  -20.9275  -15.6157 C   0  0  1  0  0  0  0  0  0  0  0  0
   25.3328  -22.2566  -15.1810 C   0  0  0  0  0  0  0  0  0  0  0  0
   25.4302  -23.3035  -16.2308 C   0  0  0  0  0  0  0  0  0  0  0  0
   25.1530  -24.6478  -15.7108 C   0  0  0  0  0  0  0  0  0  0  0  0
   25.2254  -25.6693  -16.4104 O   0  0  0  0  0  0  0  0  0  0  0  0
   23.7294  -20.4196  -14.7346 C   0  0  0  0  0  0  0  0  0  0  0  0
   23.7778  -20.6514  -13.5024 O   0  0  0  0  0  0  0  0  0  0  0  0
   24.7873  -24.7885  -14.3575 O   0  0  0  0  0  0  0  0  0  0  0  0
   19.7911  -17.7426  -12.9682 N   0  0  0  0  0  0  0  0  0  0  0  0
   20.5271  -16.9933  -13.9100 C   0  0  0  0  0  0  0  0  0  0  0  0
   20.3517  -15.7592  -14.0191 O   0  0  0  0  0  0  0  0  0  0  0  0
   21.5171  -17.6532  -14.7827 C   0  0  0  0  0  0  0  0  0  0  0  0
   21.5800  -19.1276  -14.4544 C   0  0  2  0  0  0  0  0  0  0  0  0
   22.6518  -19.6879  -15.2408 N   0  0  0  0  0  0  0  0  0  0  0  0
   20.3025  -19.8134  -14.6232 C   0  0  0  0  0  0  0  0  0  0  0  0
   19.3317  -19.4878  -13.8957 O   0  0  0  0  0  0  0  0  0  0  0  0
   20.1403  -20.8382  -15.5927 N   0  0  0  0  0  0  0  0  0  0  0  0
   18.8771  -21.5338  -15.8262 C   0  0  1  0  0  0  0  0  0  0  0  0
   18.5768  -22.4348  -14.6337 C   0  0  0  0  0  0  0  0  0  0  0  0
   19.7169  -23.3291  -14.3201 C   0  0  0  0  0  0  0  0  0  0  0  0
   20.9535  -23.3864  -14.9592 C   0  0  0  0  0  0  0  0  0  0  0  0
   21.7272  -24.3257  -14.3879 N   0  0  0  0  0  0  0  0  0  0  0  0
   20.9901  -24.8605  -13.3955 C   0  0  0  0  0  0  0  0  0  0  0  0
   19.7837  -24.2671  -13.3495 N   0  0  0  0  0  0  0  0  0  0  0  0
   17.7887  -20.6098  -16.1432 C   0  0  0  0  0  0  0  0  0  0  0  0
   18.0348  -19.3852  -16.2560 O   0  0  0  0  0  0  0  0  0  0  0  0
   16.4862  -21.0286  -16.3267 O   0  0  0  0  0  0  0  0  0  0  0  0
  2  1  1  1
  2  3  1  0
  4  3  1  0
  5  6  2  0
  5  4  1  0
  7 15  1  0
  7  2  1  0
  8  7  2  0
  9  5  1  0
 11 10  1  0
 12 11  2  0
 14 13  1  6
 13 11  1  0
 14 15  1  0
 16 14  1  0
 17 16  2  0
 18 16  1  0
 19 20  1  1
 19 18  1  0
 20 21  1  0
 21 22  2  0
 22 23  1  0
 24 23  1  0
 25 21  1  0
 25 24  2  0
 26 19  1  0
 27 26  2  0
 28 26  1  0
M  END
$$$$
