ENH.pdb
     RDKit          3D

 28 28  0  0  1  0  0  0  0  0999 V2000
   13.2921   -9.5415   -9.5359 N   0  0  0  0  0  0  0  0  0  0  0  0
   14.7500   -9.6496   -9.7482 C   0  0  1  0  0  0  0  0  0  0  0  0
   14.9287  -10.5907  -10.8909 C   0  0  0  0  0  0  0  0  0  0  0  0
   14.6223  -12.0199  -10.6243 C   0  0  0  0  0  0  0  0  0  0  0  0
   13.7119  -12.5948  -11.6218 C   0  0  0  0  0  0  0  0  0  0  0  0
   13.2952  -11.9573  -12.6007 O   0  0  0  0  0  0  0  0  0  0  0  0
   15.2260   -8.2748  -10.0585 C   0  0  0  0  0  0  0  0  0  0  0  0
   14.4817   -7.4966  -10.7024 O   0  0  0  0  0  0  0  0  0  0  0  0
   13.2893  -13.9295  -11.4637 O   0  0  0  0  0  0  0  0  0  0  0  0
   17.9113   -3.9915  -10.3172 N   0  0  0  0  0  0  0  0  0  0  0  0
   17.3339   -4.2870   -9.0645 C   0  0  0  0  0  0  0  0  0  0  0  0
   17.2504   -3.4076   -8.1784 O   0  0  0  0  0  0  0  0  0  0  0  0
   16.8182   -5.6395   -8.7782 C   0  0  0  0  0  0  0  0  0  0  0  0
   17.0521   -6.5353   -9.9734 C   0  0  2  0  0  0  0  0  0  0  0  0
   16.4839   -7.8218   -9.6519 N   0  0  0  0  0  0  0  0  0  0  0  0
   18.4504   -6.5940  -10.3882 C   0  0  0  0  0  0  0  0  0  0  0  0
   19.3229   -6.9405   -9.5535 O   0  0  0  0  0  0  0  0  0  0  0  0
   18.8385   -6.2674  -11.7145 N   0  0  0  0  0  0  0  0  0  0  0  0
   20.2068   -6.3989  -12.2091 C   0  0  1  0  0  0  0  0  0  0  0  0
   20.1698   -6.8894  -13.6521 C   0  0  0  0  0  0  0  0  0  0  0  0
   19.7031   -8.2936  -13.7432 C   0  0  0  0  0  0  0  0  0  0  0  0
   19.3844   -9.1534  -12.6943 C   0  0  0  0  0  0  0  0  0  0  0  0
   18.9983  -10.3479  -13.1754 N   0  0  0  0  0  0  0  0  0  0  0  0
   19.0707  -10.2488  -14.5168 C   0  0  0  0  0  0  0  0  0  0  0  0
   19.4926   -9.0193  -14.8636 N   0  0  0  0  0  0  0  0  0  0  0  0
   20.9772   -5.1681  -12.0348 C   0  0  0  0  0  0  0  0  0  0  0  0
   20.3743   -4.0921  -11.8078 O   0  0  0  0  0  0  0  0  0  0  0  0
   22.3553   -5.1354  -12.1093 O   0  0  0  0  0  0  0  0  0  0  0  0
  2  1  1  6
  2  3  1  0
  4  3  1  0
  5  6  2  0
  5  4  1  0
  7 15  1  0
  7  2  1  0
  8  7  2  0
  9  5  1  0
 11 10  1  0
 12 11  2  0
 14 13  1  1
 13 11  1  0
 14 15  1  0
 16 14  1  0
 17 16  2  0
 18 16  1  0
 19 20  1  6
 19 18  1  0
 20 21  1  0
 21 22  2  0
 22 23  1  0
 24 23  1  0
 25 21  1  0
 25 24  2  0
 26 19  1  0
 27 26  2  0
 28 26  1  0
M  END
$$$$
