ENH.pdb
     RDKit          3D

 28 28  0  0  1  0  0  0  0  0999 V2000
   16.9912  -10.9939  -16.8681 N   0  0  0  0  0  0  0  0  0  0  0  0
   16.7914  -10.7929  -15.4183 C   0  0  1  0  0  0  0  0  0  0  0  0
   16.6120  -12.1544  -14.8372 C   0  0  0  0  0  0  0  0  0  0  0  0
   15.4346  -12.9261  -15.3125 C   0  0  0  0  0  0  0  0  0  0  0  0
   15.3541  -14.2595  -14.7042 C   0  0  0  0  0  0  0  0  0  0  0  0
   16.0152  -15.2268  -15.1109 O   0  0  0  0  0  0  0  0  0  0  0  0
   18.0189  -10.1152  -14.9215 C   0  0  0  0  0  0  0  0  0  0  0  0
   18.1252   -9.8532  -13.6991 O   0  0  0  0  0  0  0  0  0  0  0  0
   14.4882  -14.4537  -13.6100 O   0  0  0  0  0  0  0  0  0  0  0  0
   22.7544   -8.2072  -14.7238 N   0  0  0  0  0  0  0  0  0  0  0  0
   22.7158   -9.3786  -15.5089 C   0  0  0  0  0  0  0  0  0  0  0  0
   23.7750   -9.9358  -15.8738 O   0  0  0  0  0  0  0  0  0  0  0  0
   21.4244   -9.9668  -15.9131 C   0  0  0  0  0  0  0  0  0  0  0  0
   20.2917   -9.1192  -15.3799 C   0  0  2  0  0  0  0  0  0  0  0  0
   19.0628   -9.7602  -15.7801 N   0  0  0  0  0  0  0  0  0  0  0  0
   20.3823   -7.7169  -15.7748 C   0  0  0  0  0  0  0  0  0  0  0  0
   21.4265   -7.0716  -15.5077 O   0  0  0  0  0  0  0  0  0  0  0  0
   19.3138   -7.0733  -16.4535 N   0  0  0  0  0  0  0  0  0  0  0  0
   19.2771   -5.6374  -16.7198 C   0  0  1  0  0  0  0  0  0  0  0  0
   18.5703   -5.3952  -18.0487 C   0  0  0  0  0  0  0  0  0  0  0  0
   18.5315   -3.9544  -18.3956 C   0  0  0  0  0  0  0  0  0  0  0  0
   19.4775   -2.9795  -18.0865 C   0  0  0  0  0  0  0  0  0  0  0  0
   19.0907   -1.7876  -18.5734 N   0  0  0  0  0  0  0  0  0  0  0  0
   17.9105   -2.0022  -19.1860 C   0  0  0  0  0  0  0  0  0  0  0  0
   17.5697   -3.2996  -19.0831 N   0  0  0  0  0  0  0  0  0  0  0  0
   18.6960   -4.8848  -15.6085 C   0  0  0  0  0  0  0  0  0  0  0  0
   17.6656   -5.3212  -15.0424 O   0  0  0  0  0  0  0  0  0  0  0  0
   19.2364   -3.7010  -15.1478 O   0  0  0  0  0  0  0  0  0  0  0  0
  2  1  1  6
  2  3  1  0
  4  3  1  0
  5  6  2  0
  5  4  1  0
  7 15  1  0
  7  2  1  0
  8  7  2  0
  9  5  1  0
 11 10  1  0
 12 11  2  0
 14 13  1  6
 13 11  1  0
 14 15  1  0
 16 14  1  0
 17 16  2  0
 18 16  1  0
 19 20  1  6
 19 18  1  0
 20 21  1  0
 21 22  2  0
 22 23  1  0
 24 23  1  0
 25 21  1  0
 25 24  2  0
 26 19  1  0
 27 26  2  0
 28 26  1  0
M  END
$$$$
