ENH.pdb
     RDKit          3D

 28 28  0  0  1  0  0  0  0  0999 V2000
   29.4683  -38.8844   -7.4922 N   0  0  0  0  0  0  0  0  0  0  0  0
   28.5272  -38.0308   -6.7386 C   0  0  1  0  0  0  0  0  0  0  0  0
   27.4121  -38.9257   -6.3151 C   0  0  0  0  0  0  0  0  0  0  0  0
   27.7562  -39.9966   -5.3444 C   0  0  0  0  0  0  0  0  0  0  0  0
   26.5691  -40.6835   -4.8216 C   0  0  0  0  0  0  0  0  0  0  0  0
   26.2732  -40.6957   -3.6172 O   0  0  0  0  0  0  0  0  0  0  0  0
   29.2942  -37.4867   -5.5860 C   0  0  0  0  0  0  0  0  0  0  0  0
   30.4544  -37.9099   -5.3641 O   0  0  0  0  0  0  0  0  0  0  0  0
   25.7260  -41.3611   -5.7244 O   0  0  0  0  0  0  0  0  0  0  0  0
   26.8967  -34.1373   -4.6634 N   0  0  0  0  0  0  0  0  0  0  0  0
   27.8791  -33.9813   -3.6631 C   0  0  0  0  0  0  0  0  0  0  0  0
   27.5740  -33.5345   -2.5349 O   0  0  0  0  0  0  0  0  0  0  0  0
   29.2843  -34.3431   -3.9310 C   0  0  0  0  0  0  0  0  0  0  0  0
   29.4805  -35.8238   -3.6971 C   0  0  2  0  0  0  0  0  0  0  0  0
   28.7585  -36.5130   -4.7387 N   0  0  0  0  0  0  0  0  0  0  0  0
   29.1209  -36.2495   -2.3480 C   0  0  0  0  0  0  0  0  0  0  0  0
   28.0128  -36.8095   -2.1573 O   0  0  0  0  0  0  0  0  0  0  0  0
   30.0001  -36.0419   -1.2523 N   0  0  0  0  0  0  0  0  0  0  0  0
   29.6657  -36.3905    0.1264 C   0  0  1  0  0  0  0  0  0  0  0  0
   30.9414  -36.4001    0.9611 C   0  0  0  0  0  0  0  0  0  0  0  0
   30.6810  -36.8248    2.3574 C   0  0  0  0  0  0  0  0  0  0  0  0
   30.2694  -38.0794    2.8017 C   0  0  0  0  0  0  0  0  0  0  0  0
   30.1411  -38.0779    4.1400 N   0  0  0  0  0  0  0  0  0  0  0  0
   30.4679  -36.8347    4.5427 C   0  0  0  0  0  0  0  0  0  0  0  0
   30.7927  -36.0785    3.4785 N   0  0  0  0  0  0  0  0  0  0  0  0
   28.6201  -35.5279    0.6755 C   0  0  0  0  0  0  0  0  0  0  0  0
   28.2832  -35.6581    1.8765 O   0  0  0  0  0  0  0  0  0  0  0  0
   27.9786  -34.5643   -0.0767 O   0  0  0  0  0  0  0  0  0  0  0  0
  2  1  1  6
  2  3  1  0
  4  3  1  0
  5  6  2  0
  5  4  1  0
  7 15  1  0
  7  2  1  0
  8  7  2  0
  9  5  1  0
 11 10  1  0
 12 11  2  0
 14 13  1  1
 13 11  1  0
 14 15  1  0
 16 14  1  0
 17 16  2  0
 18 16  1  0
 19 20  1  1
 19 18  1  0
 20 21  1  0
 21 22  2  0
 22 23  1  0
 24 23  1  0
 25 21  1  0
 25 24  2  0
 26 19  1  0
 27 26  2  0
 28 26  1  0
M  END
$$$$
