ENH.pdb
     RDKit          3D

 28 28  0  0  1  0  0  0  0  0999 V2000
   28.2179  -21.9378  -16.9433 N   0  0  0  0  0  0  0  0  0  0  0  0
   28.3179  -20.8931  -15.9036 C   0  0  1  0  0  0  0  0  0  0  0  0
   28.2024  -19.5904  -16.6199 C   0  0  0  0  0  0  0  0  0  0  0  0
   27.2050  -19.5267  -17.7193 C   0  0  0  0  0  0  0  0  0  0  0  0
   25.9326  -18.9343  -17.2897 C   0  0  0  0  0  0  0  0  0  0  0  0
   25.8550  -17.8169  -16.7572 O   0  0  0  0  0  0  0  0  0  0  0  0
   27.1884  -21.1333  -14.9658 C   0  0  0  0  0  0  0  0  0  0  0  0
   26.2028  -21.8081  -15.3496 O   0  0  0  0  0  0  0  0  0  0  0  0
   24.7442  -19.6645  -17.4886 O   0  0  0  0  0  0  0  0  0  0  0  0
   24.5541  -21.3673  -10.5657 N   0  0  0  0  0  0  0  0  0  0  0  0
   25.7500  -20.6753  -10.2812 C   0  0  0  0  0  0  0  0  0  0  0  0
   26.0412  -20.3639   -9.1049 O   0  0  0  0  0  0  0  0  0  0  0  0
   26.6784  -20.3072  -11.3674 C   0  0  0  0  0  0  0  0  0  0  0  0
   26.1538  -20.8340  -12.6838 C   0  0  2  0  0  0  0  0  0  0  0  0
   27.1926  -20.6272  -13.6632 N   0  0  0  0  0  0  0  0  0  0  0  0
   24.8636  -20.2656  -13.0621 C   0  0  0  0  0  0  0  0  0  0  0  0
   24.7626  -19.0227  -13.2136 O   0  0  0  0  0  0  0  0  0  0  0  0
   23.7258  -21.0916  -13.2609 N   0  0  0  0  0  0  0  0  0  0  0  0
   22.4238  -20.5815  -13.6836 C   0  0  1  0  0  0  0  0  0  0  0  0
   22.2063  -20.9273  -15.1523 C   0  0  0  0  0  0  0  0  0  0  0  0
   20.9570  -20.3275  -15.6787 C   0  0  0  0  0  0  0  0  0  0  0  0
   20.4227  -19.0761  -15.3795 C   0  0  0  0  0  0  0  0  0  0  0  0
   19.2759  -18.8883  -16.0554 N   0  0  0  0  0  0  0  0  0  0  0  0
   19.0827  -20.0089  -16.7773 C   0  0  0  0  0  0  0  0  0  0  0  0
   20.0873  -20.8759  -16.5559 N   0  0  0  0  0  0  0  0  0  0  0  0
   21.3420  -21.0415  -12.8134 C   0  0  0  0  0  0  0  0  0  0  0  0
   21.4989  -22.0855  -12.1365 O   0  0  0  0  0  0  0  0  0  0  0  0
   20.1406  -20.3708  -12.7011 O   0  0  0  0  0  0  0  0  0  0  0  0
  2  1  1  6
  2  3  1  0
  4  3  1  0
  5  6  2  0
  5  4  1  0
  7 15  1  0
  7  2  1  0
  8  7  2  0
  9  5  1  0
 11 10  1  0
 12 11  2  0
 14 13  1  1
 13 11  1  0
 14 15  1  0
 16 14  1  0
 17 16  2  0
 18 16  1  0
 19 20  1  6
 19 18  1  0
 20 21  1  0
 21 22  2  0
 22 23  1  0
 24 23  1  0
 25 21  1  0
 25 24  2  0
 26 19  1  0
 27 26  2  0
 28 26  1  0
M  END
$$$$
