ENH.pdb
     RDKit          3D

 28 28  0  0  1  0  0  0  0  0999 V2000
   17.1414  -27.6035   -7.7812 N   0  0  0  0  0  0  0  0  0  0  0  0
   18.1220  -26.9620   -6.8816 C   0  0  1  0  0  0  0  0  0  0  0  0
   18.0731  -25.5049   -7.1949 C   0  0  0  0  0  0  0  0  0  0  0  0
   18.6463  -25.0902   -8.5014 C   0  0  0  0  0  0  0  0  0  0  0  0
   18.5911  -23.6374   -8.7033 C   0  0  0  0  0  0  0  0  0  0  0  0
   17.8745  -22.8890   -8.0218 O   0  0  0  0  0  0  0  0  0  0  0  0
   17.6728  -27.2654   -5.4963 C   0  0  0  0  0  0  0  0  0  0  0  0
   16.4561  -27.1625   -5.2075 O   0  0  0  0  0  0  0  0  0  0  0  0
   19.3854  -23.0636   -9.7156 O   0  0  0  0  0  0  0  0  0  0  0  0
   18.3573  -31.1569   -2.2391 N   0  0  0  0  0  0  0  0  0  0  0  0
   19.0393  -30.2295   -3.0545 C   0  0  0  0  0  0  0  0  0  0  0  0
   19.4422  -30.5578   -4.1927 O   0  0  0  0  0  0  0  0  0  0  0  0
   19.2890  -28.8555   -2.5781 C   0  0  0  0  0  0  0  0  0  0  0  0
   18.2280  -27.9280   -3.1255 C   0  0  2  0  0  0  0  0  0  0  0  0
   18.5702  -27.6639   -4.5019 N   0  0  0  0  0  0  0  0  0  0  0  0
   18.0408  -26.7240   -2.3218 C   0  0  0  0  0  0  0  0  0  0  0  0
   18.9286  -25.8354   -2.3338 O   0  0  0  0  0  0  0  0  0  0  0  0
   16.8761  -26.5418   -1.5302 N   0  0  0  0  0  0  0  0  0  0  0  0
   16.6557  -25.3764   -0.6773 C   0  0  1  0  0  0  0  0  0  0  0  0
   15.3254  -24.7313   -1.0494 C   0  0  0  0  0  0  0  0  0  0  0  0
   14.9865  -23.6088   -0.1423 C   0  0  0  0  0  0  0  0  0  0  0  0
   15.7634  -23.0840    0.8882 C   0  0  0  0  0  0  0  0  0  0  0  0
   15.1157  -22.0687    1.4858 N   0  0  0  0  0  0  0  0  0  0  0  0
   13.9387  -21.9490    0.8419 C   0  0  0  0  0  0  0  0  0  0  0  0
   13.8551  -22.8696   -0.1355 N   0  0  0  0  0  0  0  0  0  0  0  0
   16.7635  -25.7043    0.7439 C   0  0  0  0  0  0  0  0  0  0  0  0
   16.7769  -26.9072    1.0981 O   0  0  0  0  0  0  0  0  0  0  0  0
   16.8525  -24.7385    1.7262 O   0  0  0  0  0  0  0  0  0  0  0  0
  2  1  1  6
  2  3  1  0
  4  3  1  0
  5  6  2  0
  5  4  1  0
  7 15  1  0
  7  2  1  0
  8  7  2  0
  9  5  1  0
 11 10  1  0
 12 11  2  0
 14 13  1  1
 13 11  1  0
 14 15  1  0
 16 14  1  0
 17 16  2  0
 18 16  1  0
 19 20  1  1
 19 18  1  0
 20 21  1  0
 21 22  2  0
 22 23  1  0
 24 23  1  0
 25 21  1  0
 25 24  2  0
 26 19  1  0
 27 26  2  0
 28 26  1  0
M  END
$$$$
