ENH.pdb
     RDKit          3D

 28 28  0  0  1  0  0  0  0  0999 V2000
   18.6762  -11.8745  -16.1969 N   0  0  0  0  0  0  0  0  0  0  0  0
   19.5075  -10.9014  -16.9346 C   0  0  1  0  0  0  0  0  0  0  0  0
   19.0239  -10.9357  -18.3447 C   0  0  0  0  0  0  0  0  0  0  0  0
   19.2784  -12.1893  -19.1005 C   0  0  0  0  0  0  0  0  0  0  0  0
   18.7599  -12.1332  -20.4725 C   0  0  0  0  0  0  0  0  0  0  0  0
   19.4467  -11.7673  -21.4381 O   0  0  0  0  0  0  0  0  0  0  0  0
   19.2792   -9.5839  -16.2826 C   0  0  0  0  0  0  0  0  0  0  0  0
   18.1074   -9.1521  -16.1615 O   0  0  0  0  0  0  0  0  0  0  0  0
   17.4228  -12.5102  -20.7073 O   0  0  0  0  0  0  0  0  0  0  0  0
   18.5610   -8.6574  -13.4287 N   0  0  0  0  0  0  0  0  0  0  0  0
   19.7951   -8.1926  -12.9278 C   0  0  0  0  0  0  0  0  0  0  0  0
   20.0747   -8.3103  -11.7139 O   0  0  0  0  0  0  0  0  0  0  0  0
   20.7778   -7.5593  -13.8281 C   0  0  0  0  0  0  0  0  0  0  0  0
   20.2119   -7.4895  -15.2284 C   0  0  2  0  0  0  0  0  0  0  0  0
   20.3365   -8.8090  -15.7982 N   0  0  0  0  0  0  0  0  0  0  0  0
   20.8095   -6.4356  -16.0425 C   0  0  0  0  0  0  0  0  0  0  0  0
   22.0171   -6.5290  -16.3752 O   0  0  0  0  0  0  0  0  0  0  0  0
   20.0506   -5.3113  -16.4628 N   0  0  0  0  0  0  0  0  0  0  0  0
   20.6072   -4.2105  -17.2455 C   0  0  1  0  0  0  0  0  0  0  0  0
   20.0108   -4.2452  -18.6480 C   0  0  0  0  0  0  0  0  0  0  0  0
   20.4826   -5.4217  -19.4167 C   0  0  0  0  0  0  0  0  0  0  0  0
   19.7613   -6.5672  -19.7461 C   0  0  0  0  0  0  0  0  0  0  0  0
   20.5315   -7.4125  -20.4528 N   0  0  0  0  0  0  0  0  0  0  0  0
   21.7307   -6.8108  -20.5718 C   0  0  0  0  0  0  0  0  0  0  0  0
   21.7078   -5.6166  -19.9527 N   0  0  0  0  0  0  0  0  0  0  0  0
   20.4428   -2.9200  -16.5773 C   0  0  0  0  0  0  0  0  0  0  0  0
   20.9302   -1.8899  -17.1008 O   0  0  0  0  0  0  0  0  0  0  0  0
   19.7668   -2.7815  -15.3817 O   0  0  0  0  0  0  0  0  0  0  0  0
  2  1  1  1
  2  3  1  0
  4  3  1  0
  5  6  2  0
  5  4  1  0
  7 15  1  0
  7  2  1  0
  8  7  2  0
  9  5  1  0
 11 10  1  0
 12 11  2  0
 14 13  1  1
 13 11  1  0
 14 15  1  0
 16 14  1  0
 17 16  2  0
 18 16  1  0
 19 20  1  6
 19 18  1  0
 20 21  1  0
 21 22  2  0
 22 23  1  0
 24 23  1  0
 25 21  1  0
 25 24  2  0
 26 19  1  0
 27 26  2  0
 28 26  1  0
M  END
$$$$
