ENH.pdb
     RDKit          3D

 28 28  0  0  1  0  0  0  0  0999 V2000
   16.8837   -9.5641  -17.6940 N   0  0  0  0  0  0  0  0  0  0  0  0
   18.2859   -9.1282  -17.8558 C   0  0  1  0  0  0  0  0  0  0  0  0
   18.7930   -9.8239  -19.0734 C   0  0  0  0  0  0  0  0  0  0  0  0
   18.7128  -11.3075  -19.0686 C   0  0  0  0  0  0  0  0  0  0  0  0
   19.3655  -11.9091  -20.2376 C   0  0  0  0  0  0  0  0  0  0  0  0
   19.6738  -11.2578  -21.2470 O   0  0  0  0  0  0  0  0  0  0  0  0
   18.2437   -7.6499  -18.0165 C   0  0  0  0  0  0  0  0  0  0  0  0
   17.6085   -7.1533  -18.9778 O   0  0  0  0  0  0  0  0  0  0  0  0
   19.6558  -13.2876  -20.2165 O   0  0  0  0  0  0  0  0  0  0  0  0
   16.5031   -4.0309  -15.2223 N   0  0  0  0  0  0  0  0  0  0  0  0
   16.1524   -5.3944  -15.1338 C   0  0  0  0  0  0  0  0  0  0  0  0
   15.0757   -5.7416  -14.5991 O   0  0  0  0  0  0  0  0  0  0  0  0
   17.0502   -6.4348  -15.6710 C   0  0  0  0  0  0  0  0  0  0  0  0
   18.2515   -5.7836  -16.3181 C   0  0  2  0  0  0  0  0  0  0  0  0
   18.8936   -6.7934  -17.1238 N   0  0  0  0  0  0  0  0  0  0  0  0
   19.1437   -5.1351  -15.3621 C   0  0  0  0  0  0  0  0  0  0  0  0
   18.7010   -4.2023  -14.6466 O   0  0  0  0  0  0  0  0  0  0  0  0
   20.4981   -5.5401  -15.2282 N   0  0  0  0  0  0  0  0  0  0  0  0
   21.4619   -4.8579  -14.3681 C   0  0  1  0  0  0  0  0  0  0  0  0
   22.7580   -5.6601  -14.3383 C   0  0  0  0  0  0  0  0  0  0  0  0
   22.5000   -7.1193  -14.2962 C   0  0  0  0  0  0  0  0  0  0  0  0
   21.2653   -7.7642  -14.2712 C   0  0  0  0  0  0  0  0  0  0  0  0
   21.4392   -9.0968  -14.2363 N   0  0  0  0  0  0  0  0  0  0  0  0
   22.7711   -9.2975  -14.2391 C   0  0  0  0  0  0  0  0  0  0  0  0
   23.4128   -8.1157  -14.2750 N   0  0  0  0  0  0  0  0  0  0  0  0
   21.6537   -3.4605  -14.7543 C   0  0  0  0  0  0  0  0  0  0  0  0
   22.4887   -2.7600  -14.1339 O   0  0  0  0  0  0  0  0  0  0  0  0
   20.9493   -2.8691  -15.7837 O   0  0  0  0  0  0  0  0  0  0  0  0
  2  1  1  6
  2  3  1  0
  4  3  1  0
  5  6  2  0
  5  4  1  0
  7 15  1  0
  7  2  1  0
  8  7  2  0
  9  5  1  0
 11 10  1  0
 12 11  2  0
 14 13  1  1
 13 11  1  0
 14 15  1  0
 16 14  1  0
 17 16  2  0
 18 16  1  0
 19 20  1  6
 19 18  1  0
 20 21  1  0
 21 22  2  0
 22 23  1  0
 24 23  1  0
 25 21  1  0
 25 24  2  0
 26 19  1  0
 27 26  2  0
 28 26  1  0
M  END
$$$$
