ENH.pdb
     RDKit          3D

 28 28  0  0  1  0  0  0  0  0999 V2000
   15.6196  -10.4159   -9.6945 N   0  0  0  0  0  0  0  0  0  0  0  0
   14.8253  -10.1556  -10.9126 C   0  0  1  0  0  0  0  0  0  0  0  0
   13.4137  -10.4792  -10.5577 C   0  0  0  0  0  0  0  0  0  0  0  0
   13.1311  -11.8914  -10.1922 C   0  0  0  0  0  0  0  0  0  0  0  0
   11.7045  -12.1330   -9.9455 C   0  0  0  0  0  0  0  0  0  0  0  0
   11.0063  -12.8518  -10.6763 O   0  0  0  0  0  0  0  0  0  0  0  0
   15.0197   -8.7162  -11.2336 C   0  0  0  0  0  0  0  0  0  0  0  0
   14.3774   -8.2051  -12.1825 O   0  0  0  0  0  0  0  0  0  0  0  0
   11.0970  -11.5227   -8.8303 O   0  0  0  0  0  0  0  0  0  0  0  0
   14.2717   -5.8058   -8.8739 N   0  0  0  0  0  0  0  0  0  0  0  0
   15.6213   -5.6475   -8.4947 C   0  0  0  0  0  0  0  0  0  0  0  0
   15.9176   -5.2538   -7.3446 O   0  0  0  0  0  0  0  0  0  0  0  0
   16.7068   -5.9443   -9.4491 C   0  0  0  0  0  0  0  0  0  0  0  0
   16.1212   -6.5033  -10.7259 C   0  0  2  0  0  0  0  0  0  0  0  0
   15.9009   -7.9119  -10.5057 N   0  0  0  0  0  0  0  0  0  0  0  0
   16.9242   -6.2087  -11.9088 C   0  0  0  0  0  0  0  0  0  0  0  0
   18.0602   -6.7323  -12.0238 O   0  0  0  0  0  0  0  0  0  0  0  0
   16.4437   -5.3437  -12.9272 N   0  0  0  0  0  0  0  0  0  0  0  0
   17.1962   -5.0303  -14.1395 C   0  0  1  0  0  0  0  0  0  0  0  0
   16.3544   -5.3958  -15.3568 C   0  0  0  0  0  0  0  0  0  0  0  0
   17.0632   -5.0980  -16.6244 C   0  0  0  0  0  0  0  0  0  0  0  0
   17.9959   -5.8949  -17.2846 C   0  0  0  0  0  0  0  0  0  0  0  0
   18.4159   -5.2842  -18.4061 N   0  0  0  0  0  0  0  0  0  0  0  0
   17.7570   -4.1106  -18.4588 C   0  0  0  0  0  0  0  0  0  0  0  0
   16.9441   -3.9929  -17.3932 N   0  0  0  0  0  0  0  0  0  0  0  0
   17.6665   -3.6456  -14.1545 C   0  0  0  0  0  0  0  0  0  0  0  0
   18.7413   -3.3674  -14.7379 O   0  0  0  0  0  0  0  0  0  0  0  0
   16.9730   -2.6171  -13.5487 O   0  0  0  0  0  0  0  0  0  0  0  0
  2  1  1  1
  2  3  1  0
  4  3  1  0
  5  6  2  0
  5  4  1  0
  7 15  1  0
  7  2  1  0
  8  7  2  0
  9  5  1  0
 11 10  1  0
 12 11  2  0
 14 13  1  1
 13 11  1  0
 14 15  1  0
 16 14  1  0
 17 16  2  0
 18 16  1  0
 19 20  1  6
 19 18  1  0
 20 21  1  0
 21 22  2  0
 22 23  1  0
 24 23  1  0
 25 21  1  0
 25 24  2  0
 26 19  1  0
 27 26  2  0
 28 26  1  0
M  END
$$$$
