ENH.pdb
     RDKit          3D

 28 28  0  0  1  0  0  0  0  0999 V2000
   13.1589  -10.5253  -10.2738 N   0  0  0  0  0  0  0  0  0  0  0  0
   14.6055  -10.2578  -10.1391 C   0  0  1  0  0  0  0  0  0  0  0  0
   15.2680  -11.0312  -11.2283 C   0  0  0  0  0  0  0  0  0  0  0  0
   15.2185  -12.5116  -11.1122 C   0  0  0  0  0  0  0  0  0  0  0  0
   15.9987  -13.1835  -12.1582 C   0  0  0  0  0  0  0  0  0  0  0  0
   16.1208  -14.4161  -12.2212 O   0  0  0  0  0  0  0  0  0  0  0  0
   14.7711   -8.7880  -10.2978 C   0  0  0  0  0  0  0  0  0  0  0  0
   13.9753   -8.1549  -11.0328 O   0  0  0  0  0  0  0  0  0  0  0  0
   16.6399  -12.3970  -13.1356 O   0  0  0  0  0  0  0  0  0  0  0  0
   14.0738   -7.0313   -7.0536 N   0  0  0  0  0  0  0  0  0  0  0  0
   14.5295   -6.0768   -7.9870 C   0  0  0  0  0  0  0  0  0  0  0  0
   13.7444   -5.2275   -8.4644 O   0  0  0  0  0  0  0  0  0  0  0  0
   15.9412   -6.0640   -8.4161 C   0  0  0  0  0  0  0  0  0  0  0  0
   16.0586   -6.6773   -9.7930 C   0  0  2  0  0  0  0  0  0  0  0  0
   15.7916   -8.0877   -9.6490 N   0  0  0  0  0  0  0  0  0  0  0  0
   17.3264   -6.3805  -10.4529 C   0  0  0  0  0  0  0  0  0  0  0  0
   18.3219   -7.1116  -10.2242 O   0  0  0  0  0  0  0  0  0  0  0  0
   17.4517   -5.2834  -11.3457 N   0  0  0  0  0  0  0  0  0  0  0  0
   18.4881   -5.1934  -12.3712 C   0  0  1  0  0  0  0  0  0  0  0  0
   18.3472   -6.3729  -13.3267 C   0  0  0  0  0  0  0  0  0  0  0  0
   19.4612   -7.3392  -13.1747 C   0  0  0  0  0  0  0  0  0  0  0  0
   20.5453   -7.2568  -12.3035 C   0  0  0  0  0  0  0  0  0  0  0  0
   21.3457   -8.3259  -12.4576 N   0  0  0  0  0  0  0  0  0  0  0  0
   20.7765   -9.0806  -13.4171 C   0  0  0  0  0  0  0  0  0  0  0  0
   19.6460   -8.4944  -13.8511 N   0  0  0  0  0  0  0  0  0  0  0  0
   18.4846   -3.8963  -13.0470 C   0  0  0  0  0  0  0  0  0  0  0  0
   17.4015   -3.2809  -13.1911 O   0  0  0  0  0  0  0  0  0  0  0  0
   19.6334   -3.3105  -13.5397 O   0  0  0  0  0  0  0  0  0  0  0  0
  2  1  1  6
  2  3  1  0
  4  3  1  0
  5  6  2  0
  5  4  1  0
  7 15  1  0
  7  2  1  0
  8  7  2  0
  9  5  1  0
 11 10  1  0
 12 11  2  0
 14 13  1  1
 13 11  1  0
 14 15  1  0
 16 14  1  0
 17 16  2  0
 18 16  1  0
 19 20  1  6
 19 18  1  0
 20 21  1  0
 21 22  2  0
 22 23  1  0
 24 23  1  0
 25 21  1  0
 25 24  2  0
 26 19  1  0
 27 26  2  0
 28 26  1  0
M  END
$$$$
