ENH.pdb
     RDKit          3D

 28 28  0  0  1  0  0  0  0  0999 V2000
   20.5899  -13.0548  -17.4765 N   0  0  0  0  0  0  0  0  0  0  0  0
   20.3260  -11.7111  -18.0307 C   0  0  1  0  0  0  0  0  0  0  0  0
   18.8785  -11.4459  -17.7898 C   0  0  0  0  0  0  0  0  0  0  0  0
   17.9172  -12.2816  -18.5547 C   0  0  0  0  0  0  0  0  0  0  0  0
   16.5198  -11.9426  -18.2600 C   0  0  0  0  0  0  0  0  0  0  0  0
   15.6828  -11.7059  -19.1441 O   0  0  0  0  0  0  0  0  0  0  0  0
   21.2113  -10.7754  -17.2866 C   0  0  0  0  0  0  0  0  0  0  0  0
   21.4603  -10.9948  -16.0766 O   0  0  0  0  0  0  0  0  0  0  0  0
   16.1069  -11.8815  -16.9144 O   0  0  0  0  0  0  0  0  0  0  0  0
   24.4607   -6.9644  -16.2589 N   0  0  0  0  0  0  0  0  0  0  0  0
   24.4980   -7.1882  -17.6512 C   0  0  0  0  0  0  0  0  0  0  0  0
   25.3565   -6.6227  -18.3644 O   0  0  0  0  0  0  0  0  0  0  0  0
   23.5242   -8.0941  -18.2902 C   0  0  0  0  0  0  0  0  0  0  0  0
   22.6021   -8.6703  -17.2397 C   0  0  2  0  0  0  0  0  0  0  0  0
   21.7772   -9.6536  -17.8985 N   0  0  0  0  0  0  0  0  0  0  0  0
   21.8453   -7.6550  -16.5137 C   0  0  0  0  0  0  0  0  0  0  0  0
   20.8607   -7.1095  -17.0714 O   0  0  0  0  0  0  0  0  0  0  0  0
   22.2025   -7.2758  -15.1927 N   0  0  0  0  0  0  0  0  0  0  0  0
   21.4458   -6.3107  -14.3990 C   0  0  1  0  0  0  0  0  0  0  0  0
   21.1734   -6.9037  -13.0211 C   0  0  0  0  0  0  0  0  0  0  0  0
   20.0416   -7.8608  -13.0490 C   0  0  0  0  0  0  0  0  0  0  0  0
   19.3155   -8.2868  -14.1591 C   0  0  0  0  0  0  0  0  0  0  0  0
   18.3653   -9.1606  -13.7836 N   0  0  0  0  0  0  0  0  0  0  0  0
   18.4859   -9.2890  -12.4482 C   0  0  0  0  0  0  0  0  0  0  0  0
   19.4893   -8.5122  -12.0016 N   0  0  0  0  0  0  0  0  0  0  0  0
   22.1003   -5.0038  -14.3486 C   0  0  0  0  0  0  0  0  0  0  0  0
   23.2267   -4.8591  -14.8804 O   0  0  0  0  0  0  0  0  0  0  0  0
   21.5278   -3.9077  -13.7349 O   0  0  0  0  0  0  0  0  0  0  0  0
  2  1  1  1
  2  3  1  0
  4  3  1  0
  5  6  2  0
  5  4  1  0
  7 15  1  0
  7  2  1  0
  8  7  2  0
  9  5  1  0
 11 10  1  0
 12 11  2  0
 14 13  1  6
 13 11  1  0
 14 15  1  0
 16 14  1  0
 17 16  2  0
 18 16  1  0
 19 20  1  1
 19 18  1  0
 20 21  1  0
 21 22  2  0
 22 23  1  0
 24 23  1  0
 25 21  1  0
 25 24  2  0
 26 19  1  0
 27 26  2  0
 28 26  1  0
M  END
$$$$
