ENH.pdb
     RDKit          3D

 28 28  0  0  1  0  0  0  0  0999 V2000
   14.0276   -9.9189   -9.8242 N   0  0  0  0  0  0  0  0  0  0  0  0
   15.2482  -10.1313  -10.6287 C   0  0  1  0  0  0  0  0  0  0  0  0
   14.8122  -10.8742  -11.8459 C   0  0  0  0  0  0  0  0  0  0  0  0
   15.4324  -12.2065  -12.0646 C   0  0  0  0  0  0  0  0  0  0  0  0
   14.6784  -13.2894  -11.4221 C   0  0  0  0  0  0  0  0  0  0  0  0
   14.2108  -13.1980  -10.2770 O   0  0  0  0  0  0  0  0  0  0  0  0
   15.7774   -8.7770  -10.9431 C   0  0  0  0  0  0  0  0  0  0  0  0
   15.0797   -7.9863  -11.6230 O   0  0  0  0  0  0  0  0  0  0  0  0
   14.4749  -14.4882  -12.1339 O   0  0  0  0  0  0  0  0  0  0  0  0
   16.0686   -4.7528   -9.4942 N   0  0  0  0  0  0  0  0  0  0  0  0
   16.7160   -5.9112   -9.0156 C   0  0  0  0  0  0  0  0  0  0  0  0
   16.2265   -6.5702   -8.0713 O   0  0  0  0  0  0  0  0  0  0  0  0
   17.9824   -6.3655   -9.6216 C   0  0  0  0  0  0  0  0  0  0  0  0
   17.6908   -7.1327  -10.8913 C   0  0  2  0  0  0  0  0  0  0  0  0
   17.0349   -8.3569  -10.5012 N   0  0  0  0  0  0  0  0  0  0  0  0
   18.8689   -7.3347  -11.7291 C   0  0  0  0  0  0  0  0  0  0  0  0
   19.4313   -8.4580  -11.7347 O   0  0  0  0  0  0  0  0  0  0  0  0
   19.3871   -6.2864  -12.5348 N   0  0  0  0  0  0  0  0  0  0  0  0
   20.4827   -6.4662  -13.4843 C   0  0  1  0  0  0  0  0  0  0  0  0
   20.2169   -7.7125  -14.3211 C   0  0  0  0  0  0  0  0  0  0  0  0
   21.2713   -7.9240  -15.3417 C   0  0  0  0  0  0  0  0  0  0  0  0
   22.4373   -7.1841  -15.5255 C   0  0  0  0  0  0  0  0  0  0  0  0
   23.1449   -7.6824  -16.5543 N   0  0  0  0  0  0  0  0  0  0  0  0
   22.4360   -8.7287  -17.0201 C   0  0  0  0  0  0  0  0  0  0  0  0
   21.3114   -8.8789  -16.2971 N   0  0  0  0  0  0  0  0  0  0  0  0
   20.7184   -5.2675  -14.2882 C   0  0  0  0  0  0  0  0  0  0  0  0
   19.7400   -4.6453  -14.7662 O   0  0  0  0  0  0  0  0  0  0  0  0
   21.9844   -4.7827  -14.5485 O   0  0  0  0  0  0  0  0  0  0  0  0
  2  1  1  1
  2  3  1  0
  4  3  1  0
  5  6  2  0
  5  4  1  0
  7 15  1  0
  7  2  1  0
  8  7  2  0
  9  5  1  0
 11 10  1  0
 12 11  2  0
 14 13  1  1
 13 11  1  0
 14 15  1  0
 16 14  1  0
 17 16  2  0
 18 16  1  0
 19 20  1  6
 19 18  1  0
 20 21  1  0
 21 22  2  0
 22 23  1  0
 24 23  1  0
 25 21  1  0
 25 24  2  0
 26 19  1  0
 27 26  2  0
 28 26  1  0
M  END
$$$$
