NTP.pdb
     RDKit          3D

 23 23  0  0  1  0  0  0  0  0999 V2000
   24.1086  -20.7511   -8.6833 N   0  0  0  0  0  0  0  0  0  0  0  0
   25.5053  -20.5566   -8.5239 C   0  0  0  0  0  0  0  0  0  0  0  0
   25.9584  -20.6438   -7.3432 O   0  0  0  0  0  0  0  0  0  0  0  0
   26.4027  -20.2633   -9.6849 C   0  0  0  0  0  0  0  0  0  0  0  0
   25.5567  -20.2384  -10.9399 C   0  0  2  0  0  0  0  0  0  0  0  0
   24.9367  -21.5252  -11.1853 N   0  0  0  0  0  0  0  0  0  0  0  0
   26.3061  -19.7372  -12.0966 C   0  0  0  0  0  0  0  0  0  0  0  0
   27.0736  -18.7585  -11.9228 O   0  0  0  0  0  0  0  0  0  0  0  0
   28.5475  -20.0982  -16.3196 C   0  0  0  0  0  0  0  0  0  0  0  0
   27.6997  -20.7862  -15.2989 C   0  0  1  0  0  0  0  0  0  0  0  0
   28.4863  -21.5324  -14.4615 O   0  0  0  0  0  0  0  0  0  0  0  0
   26.8601  -19.7534  -14.5530 C   0  0  2  0  0  0  0  0  0  0  0  0
   26.2098  -20.3037  -13.4139 N   0  0  0  0  0  0  0  0  0  0  0  0
   26.0775  -18.9193  -15.4599 C   0  0  0  0  0  0  0  0  0  0  0  0
   25.3316  -19.5903  -16.2792 O   0  0  0  0  0  0  0  0  0  0  0  0
   26.0223  -17.5193  -15.5690 N   0  0  0  0  0  0  0  0  0  0  0  0
   26.7266  -16.6398  -14.6593 C   0  0  0  0  0  0  0  0  0  0  0  0
   26.4265  -15.2165  -15.1263 C   0  0  0  0  0  0  0  0  0  0  0  0
   26.1744  -15.4466  -16.5854 C   0  0  0  0  0  0  0  0  0  0  0  0
   25.3132  -16.7246  -16.5315 C   0  0  1  0  0  0  0  0  0  0  0  0
   25.2090  -17.2862  -17.8866 C   0  0  0  0  0  0  0  0  0  0  0  0
   24.0416  -16.9804  -18.5848 O   0  0  0  0  0  0  0  0  0  0  0  0
   26.0462  -17.9982  -18.4679 O   0  0  0  0  0  0  0  0  0  0  0  0
  2  4  1  0
  2  1  1  0
  3  2  2  0
  4  5  1  0
  5  7  1  0
  5  6  1  6
  7  8  2  0
 10  9  1  6
 10 11  1  0
 10 12  1  0
 12 14  1  0
 12 13  1  1
 13  7  1  0
 14 16  1  0
 14 15  2  0
 16 17  1  0
 17 18  1  0
 19 18  1  0
 20 16  1  0
 20 19  1  0
 20 21  1  6
 22 21  1  0
 23 21  2  0
M  END
$$$$
