NTP.pdb
     RDKit          3D

 23 23  0  0  1  0  0  0  0  0999 V2000
   26.9020  -21.5242   -9.0059 N   0  0  0  0  0  0  0  0  0  0  0  0
   26.0208  -20.4343   -9.2290 C   0  0  0  0  0  0  0  0  0  0  0  0
   25.6874  -19.7576   -8.2104 O   0  0  0  0  0  0  0  0  0  0  0  0
   25.5079  -20.0959  -10.5934 C   0  0  0  0  0  0  0  0  0  0  0  0
   26.0510  -21.1187  -11.5683 C   0  0  2  0  0  0  0  0  0  0  0  0
   27.4930  -21.0273  -11.6818 N   0  0  0  0  0  0  0  0  0  0  0  0
   25.3719  -21.0536  -12.8664 C   0  0  0  0  0  0  0  0  0  0  0  0
   25.7670  -20.1980  -13.6963 O   0  0  0  0  0  0  0  0  0  0  0  0
   25.1922  -23.5852  -15.4827 C   0  0  0  0  0  0  0  0  0  0  0  0
   23.7592  -23.2447  -15.2289 C   0  0  1  0  0  0  0  0  0  0  0  0
   23.1563  -24.2504  -14.5204 O   0  0  0  0  0  0  0  0  0  0  0  0
   23.6728  -21.8944  -14.5239 C   0  0  2  0  0  0  0  0  0  0  0  0
   24.2823  -21.9135  -13.2388 N   0  0  0  0  0  0  0  0  0  0  0  0
   22.3513  -21.2878  -14.6532 C   0  0  0  0  0  0  0  0  0  0  0  0
   21.4696  -21.7700  -13.8360 O   0  0  0  0  0  0  0  0  0  0  0  0
   21.9093  -20.2768  -15.5235 N   0  0  0  0  0  0  0  0  0  0  0  0
   22.8175  -19.5117  -16.3522 C   0  0  0  0  0  0  0  0  0  0  0  0
   21.9488  -18.5428  -17.1526 C   0  0  0  0  0  0  0  0  0  0  0  0
   20.6583  -19.3024  -17.2081 C   0  0  0  0  0  0  0  0  0  0  0  0
   20.5677  -19.8238  -15.7597 C   0  0  1  0  0  0  0  0  0  0  0  0
   19.5146  -20.8476  -15.6872 C   0  0  0  0  0  0  0  0  0  0  0  0
   18.2682  -20.4091  -15.2421 O   0  0  0  0  0  0  0  0  0  0  0  0
   19.6201  -22.0515  -15.9788 O   0  0  0  0  0  0  0  0  0  0  0  0
  2  4  1  0
  2  1  1  0
  3  2  2  0
  4  5  1  0
  5  7  1  0
  5  6  1  6
  7  8  2  0
 10  9  1  1
 10 11  1  0
 10 12  1  0
 12 14  1  0
 12 13  1  1
 13  7  1  0
 14 16  1  0
 14 15  2  0
 16 17  1  0
 17 18  1  0
 19 18  1  0
 20 16  1  0
 20 19  1  0
 20 21  1  6
 22 21  1  0
 23 21  2  0
M  END
$$$$
