NTP.pdb
     RDKit          3D

 23 23  0  0  1  0  0  0  0  0999 V2000
   17.9175  -20.8860  -13.7230 N   0  0  0  0  0  0  0  0  0  0  0  0
   18.4141  -21.8482  -12.8056 C   0  0  0  0  0  0  0  0  0  0  0  0
   17.5565  -22.6035  -12.2570 O   0  0  0  0  0  0  0  0  0  0  0  0
   19.8732  -21.9705  -12.4970 C   0  0  0  0  0  0  0  0  0  0  0  0
   20.6014  -20.8521  -13.2116 C   0  0  2  0  0  0  0  0  0  0  0  0
   20.0030  -20.5708  -14.5013 N   0  0  0  0  0  0  0  0  0  0  0  0
   22.0440  -21.1025  -13.2952 C   0  0  0  0  0  0  0  0  0  0  0  0
   22.6691  -21.3114  -12.2263 O   0  0  0  0  0  0  0  0  0  0  0  0
   23.9795  -23.8138  -14.8421 C   0  0  0  0  0  0  0  0  0  0  0  0
   24.5110  -22.5713  -15.4804 C   0  0  1  0  0  0  0  0  0  0  0  0
   24.0215  -22.4520  -16.7544 O   0  0  0  0  0  0  0  0  0  0  0  0
   24.1776  -21.3659  -14.6064 C   0  0  2  0  0  0  0  0  0  0  0  0
   22.7784  -21.1216  -14.5304 N   0  0  0  0  0  0  0  0  0  0  0  0
   25.0638  -20.2350  -14.8646 C   0  0  0  0  0  0  0  0  0  0  0  0
   24.5681  -19.3531  -15.6735 O   0  0  0  0  0  0  0  0  0  0  0  0
   26.3536  -19.9748  -14.3712 N   0  0  0  0  0  0  0  0  0  0  0  0
   26.9231  -20.7061  -13.2586 C   0  0  0  0  0  0  0  0  0  0  0  0
   28.3270  -20.1402  -13.0519 C   0  0  0  0  0  0  0  0  0  0  0  0
   28.6453  -19.6649  -14.4369 C   0  0  0  0  0  0  0  0  0  0  0  0
   27.3079  -19.0056  -14.8303 C   0  0  1  0  0  0  0  0  0  0  0  0
   27.3164  -18.7374  -16.2761 C   0  0  0  0  0  0  0  0  0  0  0  0
   27.6187  -17.4291  -16.6514 O   0  0  0  0  0  0  0  0  0  0  0  0
   27.0842  -19.5488  -17.1891 O   0  0  0  0  0  0  0  0  0  0  0  0
  2  4  1  0
  2  1  1  0
  3  2  2  0
  4  5  1  0
  5  7  1  0
  5  6  1  6
  7  8  2  0
 10  9  1  1
 10 11  1  0
 10 12  1  0
 12 14  1  0
 12 13  1  6
 13  7  1  0
 14 16  1  0
 14 15  2  0
 16 17  1  0
 17 18  1  0
 19 18  1  0
 20 16  1  0
 20 19  1  0
 20 21  1  6
 22 21  1  0
 23 21  2  0
M  END
$$$$
