NTP.pdb
     RDKit          3D

 23 23  0  0  1  0  0  0  0  0999 V2000
   25.9155  -15.4323  -21.4778 N   0  0  0  0  0  0  0  0  0  0  0  0
   24.8725  -14.4701  -21.4926 C   0  0  0  0  0  0  0  0  0  0  0  0
   24.2327  -14.3447  -22.5798 O   0  0  0  0  0  0  0  0  0  0  0  0
   24.5396  -13.6430  -20.2909 C   0  0  0  0  0  0  0  0  0  0  0  0
   25.5294  -13.9817  -19.1967 C   0  0  2  0  0  0  0  0  0  0  0  0
   25.5012  -15.3950  -18.8773 N   0  0  0  0  0  0  0  0  0  0  0  0
   25.3567  -13.1273  -18.0173 C   0  0  0  0  0  0  0  0  0  0  0  0
   24.6059  -13.5365  -17.0977 O   0  0  0  0  0  0  0  0  0  0  0  0
   27.7248  -12.0166  -15.4715 C   0  0  0  0  0  0  0  0  0  0  0  0
   27.1549  -10.7416  -16.0039 C   0  0  1  0  0  0  0  0  0  0  0  0
   28.0661  -10.1251  -16.8202 O   0  0  0  0  0  0  0  0  0  0  0  0
   25.8327  -11.0290  -16.7091 C   0  0  2  0  0  0  0  0  0  0  0  0
   25.9983  -11.8513  -17.8579 N   0  0  0  0  0  0  0  0  0  0  0  0
   24.9995   -9.8363  -16.8270 C   0  0  0  0  0  0  0  0  0  0  0  0
   25.3723   -9.0257  -17.7661 O   0  0  0  0  0  0  0  0  0  0  0  0
   23.8742   -9.4501  -16.0790 N   0  0  0  0  0  0  0  0  0  0  0  0
   23.2476  -10.3239  -15.1091 C   0  0  0  0  0  0  0  0  0  0  0  0
   22.0871   -9.5313  -14.5100 C   0  0  0  0  0  0  0  0  0  0  0  0
   22.5847   -8.1287  -14.6850 C   0  0  0  0  0  0  0  0  0  0  0  0
   23.1630   -8.2036  -16.1126 C   0  0  1  0  0  0  0  0  0  0  0  0
   23.9718   -7.0012  -16.3624 C   0  0  0  0  0  0  0  0  0  0  0  0
   23.2691   -5.8681  -16.7702 O   0  0  0  0  0  0  0  0  0  0  0  0
   25.2050   -6.8919  -16.2486 O   0  0  0  0  0  0  0  0  0  0  0  0
  2  4  1  0
  2  1  1  0
  3  2  2  0
  4  5  1  0
  5  7  1  0
  5  6  1  1
  7  8  2  0
 10  9  1  6
 10 11  1  0
 10 12  1  0
 12 14  1  0
 12 13  1  6
 13  7  1  0
 14 16  1  0
 14 15  2  0
 16 17  1  0
 17 18  1  0
 19 18  1  0
 20 16  1  0
 20 19  1  0
 20 21  1  1
 22 21  1  0
 23 21  2  0
M  END
$$$$
