NTP.pdb
     RDKit          3D

 23 23  0  0  1  0  0  0  0  0999 V2000
   21.0906  -22.1593  -10.8546 N   0  0  0  0  0  0  0  0  0  0  0  0
   21.0491  -20.7409  -10.8736 C   0  0  0  0  0  0  0  0  0  0  0  0
   19.9026  -20.2065  -10.7897 O   0  0  0  0  0  0  0  0  0  0  0  0
   22.2901  -19.9127  -10.9868 C   0  0  0  0  0  0  0  0  0  0  0  0
   23.4823  -20.8455  -10.9713 C   0  0  2  0  0  0  0  0  0  0  0  0
   23.8889  -21.1613   -9.6166 N   0  0  0  0  0  0  0  0  0  0  0  0
   24.5856  -20.3391  -11.7941 C   0  0  0  0  0  0  0  0  0  0  0  0
   25.4119  -19.5603  -11.2576 O   0  0  0  0  0  0  0  0  0  0  0  0
   28.0265  -20.8589  -15.0126 C   0  0  0  0  0  0  0  0  0  0  0  0
   26.8197  -21.4002  -14.3165 C   0  0  1  0  0  0  0  0  0  0  0  0
   27.1986  -22.1413  -13.2283 O   0  0  0  0  0  0  0  0  0  0  0  0
   25.8842  -20.2520  -13.9498 C   0  0  2  0  0  0  0  0  0  0  0  0
   24.7715  -20.6848  -13.1766 N   0  0  0  0  0  0  0  0  0  0  0  0
   25.6366  -19.3599  -15.0784 C   0  0  0  0  0  0  0  0  0  0  0  0
   24.9467  -19.8992  -16.0329 O   0  0  0  0  0  0  0  0  0  0  0  0
   26.0352  -18.0264  -15.2725 N   0  0  0  0  0  0  0  0  0  0  0  0
   26.7170  -17.2614  -14.2492 C   0  0  0  0  0  0  0  0  0  0  0  0
   26.9882  -15.8861  -14.8565 C   0  0  0  0  0  0  0  0  0  0  0  0
   27.0570  -16.2305  -16.3132 C   0  0  0  0  0  0  0  0  0  0  0  0
   25.8667  -17.2031  -16.4363 C   0  0  1  0  0  0  0  0  0  0  0  0
   25.9453  -17.8899  -17.7343 C   0  0  0  0  0  0  0  0  0  0  0  0
   25.3466  -17.2330  -18.8085 O   0  0  0  0  0  0  0  0  0  0  0  0
   26.4850  -18.9848  -17.9700 O   0  0  0  0  0  0  0  0  0  0  0  0
  2  4  1  0
  2  1  1  0
  3  2  2  0
  4  5  1  0
  5  7  1  0
  5  6  1  1
  7  8  2  0
 10  9  1  1
 10 11  1  0
 10 12  1  0
 12 14  1  0
 12 13  1  6
 13  7  1  0
 14 16  1  0
 14 15  2  0
 16 17  1  0
 17 18  1  0
 19 18  1  0
 20 16  1  0
 20 19  1  0
 20 21  1  6
 22 21  1  0
 23 21  2  0
M  END
$$$$
