NTP.pdb
     RDKit          3D

 23 23  0  0  1  0  0  0  0  0999 V2000
   18.2578  -20.9270  -14.5794 N   0  0  0  0  0  0  0  0  0  0  0  0
   19.6146  -21.3266  -14.4626 C   0  0  0  0  0  0  0  0  0  0  0  0
   19.8710  -22.5420  -14.7154 O   0  0  0  0  0  0  0  0  0  0  0  0
   20.6918  -20.3683  -14.0623 C   0  0  0  0  0  0  0  0  0  0  0  0
   21.4598  -20.9775  -12.9088 C   0  0  2  0  0  0  0  0  0  0  0  0
   20.7525  -20.8093  -11.6551 N   0  0  0  0  0  0  0  0  0  0  0  0
   22.8423  -20.4914  -12.8528 C   0  0  0  0  0  0  0  0  0  0  0  0
   23.0353  -19.3022  -12.4984 O   0  0  0  0  0  0  0  0  0  0  0  0
   25.7541  -21.1345  -10.7393 C   0  0  0  0  0  0  0  0  0  0  0  0
   26.1770  -21.5431  -12.1133 C   0  0  1  0  0  0  0  0  0  0  0  0
   26.1136  -22.9059  -12.2380 O   0  0  0  0  0  0  0  0  0  0  0  0
   25.3219  -20.8170  -13.1474 C   0  0  2  0  0  0  0  0  0  0  0  0
   23.9843  -21.2999  -13.1806 N   0  0  0  0  0  0  0  0  0  0  0  0
   26.0232  -20.6363  -14.4148 C   0  0  0  0  0  0  0  0  0  0  0  0
   26.0079  -21.6831  -15.1776 O   0  0  0  0  0  0  0  0  0  0  0  0
   26.7011  -19.5105  -14.9128 N   0  0  0  0  0  0  0  0  0  0  0  0
   26.6751  -18.2273  -14.2423 C   0  0  0  0  0  0  0  0  0  0  0  0
   27.5396  -17.2902  -15.0841 C   0  0  0  0  0  0  0  0  0  0  0  0
   28.4789  -18.2695  -15.7197 C   0  0  0  0  0  0  0  0  0  0  0  0
   27.5028  -19.4016  -16.0985 C   0  0  1  0  0  0  0  0  0  0  0  0
   28.2784  -20.5946  -16.4697 C   0  0  0  0  0  0  0  0  0  0  0  0
   28.7076  -20.6545  -17.7948 O   0  0  0  0  0  0  0  0  0  0  0  0
   28.5877  -21.5457  -15.7310 O   0  0  0  0  0  0  0  0  0  0  0  0
  2  4  1  0
  2  1  1  0
  3  2  2  0
  4  5  1  0
  5  7  1  0
  5  6  1  1
  7  8  2  0
 10  9  1  1
 10 11  1  0
 10 12  1  0
 12 14  1  0
 12 13  1  6
 13  7  1  0
 14 16  1  0
 14 15  2  0
 16 17  1  0
 17 18  1  0
 19 18  1  0
 20 16  1  0
 20 19  1  0
 20 21  1  1
 22 21  1  0
 23 21  2  0
M  END
$$$$
