NTP.pdb
     RDKit          3D

 23 23  0  0  1  0  0  0  0  0999 V2000
   27.0922  -31.3249  -17.5318 N   0  0  0  0  0  0  0  0  0  0  0  0
   27.1206  -30.4568  -16.4094 C   0  0  0  0  0  0  0  0  0  0  0  0
   26.7297  -30.9440  -15.3063 O   0  0  0  0  0  0  0  0  0  0  0  0
   27.5867  -29.0389  -16.5152 C   0  0  0  0  0  0  0  0  0  0  0  0
   28.0259  -28.7924  -17.9427 C   0  0  2  0  0  0  0  0  0  0  0  0
   29.3007  -29.4236  -18.2201 N   0  0  0  0  0  0  0  0  0  0  0  0
   28.0103  -27.3660  -18.2828 C   0  0  0  0  0  0  0  0  0  0  0  0
   29.0950  -26.7354  -18.2301 O   0  0  0  0  0  0  0  0  0  0  0  0
   25.8915  -23.5628  -20.5665 C   0  0  0  0  0  0  0  0  0  0  0  0
   25.8500  -25.0139  -20.2109 C   0  0  1  0  0  0  0  0  0  0  0  0
   26.1050  -25.7763  -21.3201 O   0  0  0  0  0  0  0  0  0  0  0  0
   26.8264  -25.2880  -19.0710 C   0  0  2  0  0  0  0  0  0  0  0  0
   26.8246  -26.6533  -18.6719 N   0  0  0  0  0  0  0  0  0  0  0  0
   26.7638  -24.2642  -18.0324 C   0  0  0  0  0  0  0  0  0  0  0  0
   25.6161  -24.1898  -17.4365 O   0  0  0  0  0  0  0  0  0  0  0  0
   27.7522  -23.3644  -17.5985 N   0  0  0  0  0  0  0  0  0  0  0  0
   29.1132  -23.4069  -18.0914 C   0  0  0  0  0  0  0  0  0  0  0  0
   29.8531  -22.2656  -17.3957 C   0  0  0  0  0  0  0  0  0  0  0  0
   28.7234  -21.3168  -17.1333 C   0  0  0  0  0  0  0  0  0  0  0  0
   27.6324  -22.2936  -16.6500 C   0  0  1  0  0  0  0  0  0  0  0  0
   26.3412  -21.5904  -16.6244 C   0  0  0  0  0  0  0  0  0  0  0  0
   26.0976  -20.8043  -15.4990 O   0  0  0  0  0  0  0  0  0  0  0  0
   25.4533  -21.6243  -17.4941 O   0  0  0  0  0  0  0  0  0  0  0  0
  2  4  1  0
  2  1  1  0
  3  2  2  0
  4  5  1  0
  5  7  1  0
  5  6  1  1
  7  8  2  0
 10  9  1  6
 10 11  1  0
 10 12  1  0
 12 14  1  0
 12 13  1  1
 13  7  1  0
 14 16  1  0
 14 15  2  0
 16 17  1  0
 17 18  1  0
 19 18  1  0
 20 16  1  0
 20 19  1  0
 20 21  1  6
 22 21  1  0
 23 21  2  0
M  END
$$$$
