NTP.pdb
     RDKit          3D

 23 23  0  0  1  0  0  0  0  0999 V2000
   20.3446  -17.9402    8.5234 N   0  0  0  0  0  0  0  0  0  0  0  0
   21.3747  -17.4172    7.6991 C   0  0  0  0  0  0  0  0  0  0  0  0
   22.0584  -18.2596    7.0435 O   0  0  0  0  0  0  0  0  0  0  0  0
   21.6453  -15.9486    7.6039 C   0  0  0  0  0  0  0  0  0  0  0  0
   20.6154  -15.2241    8.4442 C   0  0  2  0  0  0  0  0  0  0  0  0
   19.8146  -14.3238    7.6388 N   0  0  0  0  0  0  0  0  0  0  0  0
   21.2210  -14.5640    9.6053 C   0  0  0  0  0  0  0  0  0  0  0  0
   21.8798  -13.5131    9.4090 O   0  0  0  0  0  0  0  0  0  0  0  0
   21.4168  -13.6040   14.3847 C   0  0  0  0  0  0  0  0  0  0  0  0
   20.7922  -14.4179   13.2978 C   0  0  1  0  0  0  0  0  0  0  0  0
   19.5350  -13.9480   13.0231 O   0  0  0  0  0  0  0  0  0  0  0  0
   21.7017  -14.4168   12.0728 C   0  0  2  0  0  0  0  0  0  0  0  0
   21.1016  -15.0535   10.9513 N   0  0  0  0  0  0  0  0  0  0  0  0
   23.0798  -14.7622   12.4082 C   0  0  0  0  0  0  0  0  0  0  0  0
   23.2553  -16.0159   12.6827 O   0  0  0  0  0  0  0  0  0  0  0  0
   24.2193  -13.9425   12.4762 N   0  0  0  0  0  0  0  0  0  0  0  0
   24.1935  -12.5425   12.1072 C   0  0  0  0  0  0  0  0  0  0  0  0
   25.6084  -12.0154   12.3401 C   0  0  0  0  0  0  0  0  0  0  0  0
   26.0792  -12.9416   13.4199 C   0  0  0  0  0  0  0  0  0  0  0  0
   25.5474  -14.2906   12.8953 C   0  0  1  0  0  0  0  0  0  0  0  0
   25.6483  -15.2916   13.9678 C   0  0  0  0  0  0  0  0  0  0  0  0
   26.7908  -16.0905   13.9501 O   0  0  0  0  0  0  0  0  0  0  0  0
   24.8281  -15.4970   14.8794 O   0  0  0  0  0  0  0  0  0  0  0  0
  2  4  1  0
  2  1  1  0
  3  2  2  0
  4  5  1  0
  5  7  1  0
  5  6  1  6
  7  8  2  0
 10  9  1  1
 10 11  1  0
 10 12  1  0
 12 14  1  0
 12 13  1  6
 13  7  1  0
 14 16  1  0
 14 15  2  0
 16 17  1  0
 17 18  1  0
 19 18  1  0
 20 16  1  0
 20 19  1  0
 20 21  1  1
 22 21  1  0
 23 21  2  0
M  END
$$$$
