NTP.pdb
     RDKit          3D

 23 23  0  0  1  0  0  0  0  0999 V2000
   24.4902  -14.2913  -15.3552 N   0  0  0  0  0  0  0  0  0  0  0  0
   25.3093  -13.2428  -15.8491 C   0  0  0  0  0  0  0  0  0  0  0  0
   26.5587  -13.4568  -15.8594 O   0  0  0  0  0  0  0  0  0  0  0  0
   24.7347  -11.9492  -16.3342 C   0  0  0  0  0  0  0  0  0  0  0  0
   23.2271  -12.0329  -16.2256 C   0  0  2  0  0  0  0  0  0  0  0  0
   22.6855  -13.0220  -17.1360 N   0  0  0  0  0  0  0  0  0  0  0  0
   22.5931  -10.7184  -16.3694 C   0  0  0  0  0  0  0  0  0  0  0  0
   22.5058  -10.2288  -17.5225 O   0  0  0  0  0  0  0  0  0  0  0  0
   19.2049   -9.8811  -16.0456 C   0  0  0  0  0  0  0  0  0  0  0  0
   19.8442   -8.9526  -15.0644 C   0  0  1  0  0  0  0  0  0  0  0  0
   19.6658   -9.4215  -13.7896 O   0  0  0  0  0  0  0  0  0  0  0  0
   21.3155   -8.7659  -15.4224 C   0  0  2  0  0  0  0  0  0  0  0  0
   22.0680   -9.9628  -15.2654 N   0  0  0  0  0  0  0  0  0  0  0  0
   21.8637   -7.5282  -14.8762 C   0  0  0  0  0  0  0  0  0  0  0  0
   22.2928   -7.6358  -13.6588 O   0  0  0  0  0  0  0  0  0  0  0  0
   21.9868   -6.2614  -15.4720 N   0  0  0  0  0  0  0  0  0  0  0  0
   21.7573   -6.0406  -16.8847 C   0  0  0  0  0  0  0  0  0  0  0  0
   21.9710   -4.5465  -17.1217 C   0  0  0  0  0  0  0  0  0  0  0  0
   21.6273   -3.9957  -15.7711 C   0  0  0  0  0  0  0  0  0  0  0  0
   22.3368   -5.0133  -14.8552 C   0  0  1  0  0  0  0  0  0  0  0  0
   21.8696   -4.8179  -13.4746 C   0  0  0  0  0  0  0  0  0  0  0  0
   22.6379   -3.9618  -12.6867 O   0  0  0  0  0  0  0  0  0  0  0  0
   20.8703   -5.3322  -12.9430 O   0  0  0  0  0  0  0  0  0  0  0  0
  2  4  1  0
  2  1  1  0
  3  2  2  0
  4  5  1  0
  5  7  1  0
  5  6  1  6
  7  8  2  0
 10  9  1  6
 10 11  1  0
 10 12  1  0
 12 14  1  0
 12 13  1  1
 13  7  1  0
 14 16  1  0
 14 15  2  0
 16 17  1  0
 17 18  1  0
 19 18  1  0
 20 16  1  0
 20 19  1  0
 20 21  1  1
 22 21  1  0
 23 21  2  0
M  END
$$$$
