NTP.pdb
     RDKit          3D

 23 23  0  0  1  0  0  0  0  0999 V2000
   23.8342  -11.3714  -22.1361 N   0  0  0  0  0  0  0  0  0  0  0  0
   23.9408  -10.4916  -21.0277 C   0  0  0  0  0  0  0  0  0  0  0  0
   25.1058  -10.0850  -20.7370 O   0  0  0  0  0  0  0  0  0  0  0  0
   22.7443  -10.0618  -20.2385 C   0  0  0  0  0  0  0  0  0  0  0  0
   22.8309  -10.6975  -18.8674 C   0  0  2  0  0  0  0  0  0  0  0  0
   22.7185  -12.1403  -18.9455 N   0  0  0  0  0  0  0  0  0  0  0  0
   21.8777  -10.1018  -17.9255 C   0  0  0  0  0  0  0  0  0  0  0  0
   20.6804  -10.4760  -17.9825 O   0  0  0  0  0  0  0  0  0  0  0  0
   20.6385   -8.3450  -13.6544 C   0  0  0  0  0  0  0  0  0  0  0  0
   21.7365   -8.7841  -14.5684 C   0  0  1  0  0  0  0  0  0  0  0  0
   22.0674  -10.0884  -14.3117 O   0  0  0  0  0  0  0  0  0  0  0  0
   21.3153   -8.5579  -16.0173 C   0  0  2  0  0  0  0  0  0  0  0  0
   22.2388   -9.1160  -16.9441 N   0  0  0  0  0  0  0  0  0  0  0  0
   20.8416   -7.1966  -16.2483 C   0  0  0  0  0  0  0  0  0  0  0  0
   21.7319   -6.2843  -16.0182 O   0  0  0  0  0  0  0  0  0  0  0  0
   19.5806   -6.7453  -16.6741 N   0  0  0  0  0  0  0  0  0  0  0  0
   18.5271   -7.6513  -17.0819 C   0  0  0  0  0  0  0  0  0  0  0  0
   17.3302   -6.7748  -17.4466 C   0  0  0  0  0  0  0  0  0  0  0  0
   17.5862   -5.5763  -16.5842 C   0  0  0  0  0  0  0  0  0  0  0  0
   19.1045   -5.3956  -16.7847 C   0  0  1  0  0  0  0  0  0  0  0  0
   19.6074   -4.4454  -15.7813 C   0  0  0  0  0  0  0  0  0  0  0  0
   19.3662   -3.0975  -16.0438 O   0  0  0  0  0  0  0  0  0  0  0  0
   20.2194   -4.7174  -14.7338 O   0  0  0  0  0  0  0  0  0  0  0  0
  2  4  1  0
  2  1  1  0
  3  2  2  0
  4  5  1  0
  5  7  1  0
  5  6  1  6
  7  8  2  0
 10  9  1  1
 10 11  1  0
 10 12  1  0
 12 14  1  0
 12 13  1  6
 13  7  1  0
 14 16  1  0
 14 15  2  0
 16 17  1  0
 17 18  1  0
 19 18  1  0
 20 16  1  0
 20 19  1  0
 20 21  1  1
 22 21  1  0
 23 21  2  0
M  END
$$$$
