NTP.pdb
     RDKit          3D

 23 23  0  0  1  0  0  0  0  0999 V2000
   24.8029  -21.1255   -7.3324 N   0  0  0  0  0  0  0  0  0  0  0  0
   24.3490  -20.7177   -8.6137 C   0  0  0  0  0  0  0  0  0  0  0  0
   23.1228  -20.9133   -8.8692 O   0  0  0  0  0  0  0  0  0  0  0  0
   25.2647  -20.0889   -9.6162 C   0  0  0  0  0  0  0  0  0  0  0  0
   25.3637  -21.0145  -10.8100 C   0  0  2  0  0  0  0  0  0  0  0  0
   26.0235  -22.2571  -10.4623 N   0  0  0  0  0  0  0  0  0  0  0  0
   25.9706  -20.3518  -11.9689 C   0  0  0  0  0  0  0  0  0  0  0  0
   27.1766  -20.0109  -11.8885 O   0  0  0  0  0  0  0  0  0  0  0  0
   27.1025  -21.5845  -14.9396 C   0  0  0  0  0  0  0  0  0  0  0  0
   26.1170  -20.5731  -15.4292 C   0  0  1  0  0  0  0  0  0  0  0  0
   24.9622  -21.1957  -15.8235 O   0  0  0  0  0  0  0  0  0  0  0  0
   25.8804  -19.5251  -14.3458 C   0  0  2  0  0  0  0  0  0  0  0  0
   25.2621  -20.0725  -13.1877 N   0  0  0  0  0  0  0  0  0  0  0  0
   25.3488  -18.2792  -14.8898 C   0  0  0  0  0  0  0  0  0  0  0  0
   24.0575  -18.2575  -14.9880 O   0  0  0  0  0  0  0  0  0  0  0  0
   26.0270  -17.1244  -15.3156 N   0  0  0  0  0  0  0  0  0  0  0  0
   27.4294  -16.8976  -15.0346 C   0  0  0  0  0  0  0  0  0  0  0  0
   27.7805  -15.5571  -15.6776 C   0  0  0  0  0  0  0  0  0  0  0  0
   26.7782  -15.5080  -16.7905 C   0  0  0  0  0  0  0  0  0  0  0  0
   25.5148  -16.0112  -16.0635 C   0  0  1  0  0  0  0  0  0  0  0  0
   24.4818  -16.3210  -17.0632 C   0  0  0  0  0  0  0  0  0  0  0  0
   23.7323  -15.2379  -17.5206 O   0  0  0  0  0  0  0  0  0  0  0  0
   24.2106  -17.4377  -17.5376 O   0  0  0  0  0  0  0  0  0  0  0  0
  2  4  1  0
  2  1  1  0
  3  2  2  0
  4  5  1  0
  5  7  1  0
  5  6  1  1
  7  8  2  0
 10  9  1  1
 10 11  1  0
 10 12  1  0
 12 14  1  0
 12 13  1  1
 13  7  1  0
 14 16  1  0
 14 15  2  0
 16 17  1  0
 17 18  1  0
 19 18  1  0
 20 16  1  0
 20 19  1  0
 20 21  1  6
 22 21  1  0
 23 21  2  0
M  END
$$$$
