IYW.pdb
     RDKit          3D

 35 37  0  0  1  0  0  0  0  0999 V2000
   10.7279  -18.8511   15.8909 C   0  0  0  0  0  0  0  0  0  0  0  0
   10.4708  -19.1524   17.3497 C   0  0  0  0  0  0  0  0  0  0  0  0
   10.5507  -17.9301   18.2091 C   0  0  2  0  0  0  0  0  0  0  0  0
   11.7432  -17.0707   17.8866 C   0  0  0  0  0  0  0  0  0  0  0  0
   10.4287  -18.2408   19.6669 C   0  0  2  0  0  0  0  0  0  0  0  0
    9.2604  -19.0968   19.8283 N   0  0  0  0  0  0  0  0  0  0  0  0
   10.3699  -17.0654   20.5544 C   0  0  0  0  0  0  0  0  0  0  0  0
   11.3176  -16.2430   20.5856 O   0  0  0  0  0  0  0  0  0  0  0  0
    7.0804  -13.1295   16.7825 O   0  0  0  0  0  0  0  0  0  0  0  0
    7.2596  -13.5955   18.0842 C   0  0  0  0  0  0  0  0  0  0  0  0
    7.9975  -12.8080   18.9505 C   0  0  0  0  0  0  0  0  0  0  0  0
    8.2133  -13.2043   20.2461 C   0  0  0  0  0  0  0  0  0  0  0  0
    7.6846  -14.4164   20.7028 C   0  0  0  0  0  0  0  0  0  0  0  0
    7.9249  -14.8654   22.0856 C   0  0  0  0  0  0  0  0  0  0  0  0
    9.1901  -15.6267   22.2850 C   0  0  2  0  0  0  0  0  0  0  0  0
    9.2677  -16.7895   21.4114 N   0  0  0  0  0  0  0  0  0  0  0  0
    9.2691  -16.1152   23.6850 C   0  0  0  0  0  0  0  0  0  0  0  0
    8.6545  -17.1672   24.0522 O   0  0  0  0  0  0  0  0  0  0  0  0
    6.9557  -15.1869   19.8332 C   0  0  0  0  0  0  0  0  0  0  0  0
    6.7307  -14.7979   18.5229 C   0  0  0  0  0  0  0  0  0  0  0  0
   10.0272  -15.4413   24.6774 N   0  0  0  0  0  0  0  0  0  0  0  0
   10.0413  -15.9309   26.0484 C   0  0  1  0  0  0  0  0  0  0  0  0
    8.6408  -16.2749   26.4896 C   0  0  0  0  0  0  0  0  0  0  0  0
    7.6409  -15.2240   26.2874 C   0  0  0  0  0  0  0  0  0  0  0  0
    6.3296  -15.4190   25.8426 C   0  0  0  0  0  0  0  0  0  0  0  0
    5.7133  -14.2337   25.7461 N   0  0  0  0  0  0  0  0  0  0  0  0
    6.5446  -13.2437   26.1050 C   0  0  0  0  0  0  0  0  0  0  0  0
    6.4036  -11.8623   26.1971 C   0  0  0  0  0  0  0  0  0  0  0  0
    7.4566  -11.1162   26.6245 C   0  0  0  0  0  0  0  0  0  0  0  0
    8.6614  -11.6890   26.9692 C   0  0  0  0  0  0  0  0  0  0  0  0
    8.7914  -13.0496   26.8748 C   0  0  0  0  0  0  0  0  0  0  0  0
    7.7579  -13.8548   26.4472 C   0  0  0  0  0  0  0  0  0  0  0  0
   11.0607  -16.9448   26.2623 C   0  0  0  0  0  0  0  0  0  0  0  0
   11.3506  -17.6039   27.4402 O   0  0  0  0  0  0  0  0  0  0  0  0
   11.7893  -17.2815   25.2678 O   0  0  0  0  0  0  0  0  0  0  0  0
  2  1  1  0
  3  5  1  0
  3  2  1  0
  3  4  1  1
  5  6  1  6
  7  8  2  0
  7  5  1  0
  9 10  1  0
 10 11  2  0
 10 20  1  0
 11 12  1  0
 12 13  2  0
 13 14  1  0
 15 14  1  1
 15 16  1  0
 15 17  1  0
 16  7  1  0
 17 21  1  0
 18 17  2  0
 19 13  1  0
 20 19  2  0
 21 22  1  0
 22 23  1  6
 22 33  1  0
 24 23  1  0
 25 24  2  0
 26 25  1  0
 27 26  1  0
 27 32  2  0
 28 29  2  0
 28 27  1  0
 29 30  1  0
 30 31  2  0
 32 31  1  0
 32 24  1  0
 33 35  2  0
 33 34  1  0
M  END
$$$$
