IYW.pdb
     RDKit          3D

 35 37  0  0  1  0  0  0  0  0999 V2000
   12.5858  -21.0583   18.9594 C   0  0  0  0  0  0  0  0  0  0  0  0
   11.3882  -20.1452   18.8287 C   0  0  0  0  0  0  0  0  0  0  0  0
   11.4564  -18.9753   19.7593 C   0  0  2  0  0  0  0  0  0  0  0  0
   11.8713  -19.3652   21.1523 C   0  0  0  0  0  0  0  0  0  0  0  0
   10.2158  -18.1407   19.7287 C   0  0  2  0  0  0  0  0  0  0  0  0
   10.0093  -17.7271   18.3467 N   0  0  0  0  0  0  0  0  0  0  0  0
   10.2138  -16.9889   20.6485 C   0  0  0  0  0  0  0  0  0  0  0  0
   11.0878  -16.0935   20.5495 O   0  0  0  0  0  0  0  0  0  0  0  0
    7.5270  -12.6149   17.2634 O   0  0  0  0  0  0  0  0  0  0  0  0
    7.6219  -13.1968   18.5268 C   0  0  0  0  0  0  0  0  0  0  0  0
    8.3821  -12.5404   19.4787 C   0  0  0  0  0  0  0  0  0  0  0  0
    8.5188  -13.0552   20.7431 C   0  0  0  0  0  0  0  0  0  0  0  0
    7.8855  -14.2564   21.0800 C   0  0  0  0  0  0  0  0  0  0  0  0
    8.0395  -14.8326   22.4275 C   0  0  0  0  0  0  0  0  0  0  0  0
    9.2433  -15.6922   22.6064 C   0  0  2  0  0  0  0  0  0  0  0  0
    9.2497  -16.8171   21.6811 N   0  0  0  0  0  0  0  0  0  0  0  0
    9.2658  -16.2478   23.9832 C   0  0  0  0  0  0  0  0  0  0  0  0
    8.2079  -16.6940   24.5319 O   0  0  0  0  0  0  0  0  0  0  0  0
    7.1357  -14.8964   20.1264 C   0  0  0  0  0  0  0  0  0  0  0  0
    6.9898  -14.3868   18.8466 C   0  0  0  0  0  0  0  0  0  0  0  0
   10.4570  -16.3104   24.7520 N   0  0  0  0  0  0  0  0  0  0  0  0
   10.3966  -16.2469   26.2052 C   0  0  1  0  0  0  0  0  0  0  0  0
    9.9027  -14.8912   26.6440 C   0  0  0  0  0  0  0  0  0  0  0  0
    8.4581  -14.6792   26.5273 C   0  0  0  0  0  0  0  0  0  0  0  0
    7.5091  -15.6640   26.2358 C   0  0  0  0  0  0  0  0  0  0  0  0
    6.2933  -15.1048   26.1782 N   0  0  0  0  0  0  0  0  0  0  0  0
    6.3728  -13.7871   26.4173 C   0  0  0  0  0  0  0  0  0  0  0  0
    5.4267  -12.7691   26.4893 C   0  0  0  0  0  0  0  0  0  0  0  0
    5.8347  -11.5049   26.7780 C   0  0  0  0  0  0  0  0  0  0  0  0
    7.1602  -11.2017   27.0014 C   0  0  0  0  0  0  0  0  0  0  0  0
    8.0848  -12.2100   26.9278 C   0  0  0  0  0  0  0  0  0  0  0  0
    7.7281  -13.5094   26.6382 C   0  0  0  0  0  0  0  0  0  0  0  0
    9.7294  -17.4027   26.7813 C   0  0  0  0  0  0  0  0  0  0  0  0
    9.6415  -17.7378   28.1177 O   0  0  0  0  0  0  0  0  0  0  0  0
    9.1542  -18.2210   25.9858 O   0  0  0  0  0  0  0  0  0  0  0  0
  2  1  1  0
  3  5  1  0
  3  2  1  0
  3  4  1  1
  5  6  1  6
  7  8  2  0
  7  5  1  0
  9 10  1  0
 10 11  2  0
 10 20  1  0
 11 12  1  0
 12 13  2  0
 13 14  1  0
 15 14  1  1
 15 16  1  0
 15 17  1  0
 16  7  1  0
 17 21  1  0
 18 17  2  0
 19 13  1  0
 20 19  2  0
 21 22  1  0
 22 23  1  6
 22 33  1  0
 24 23  1  0
 25 24  2  0
 26 25  1  0
 27 26  1  0
 27 32  2  0
 28 29  2  0
 28 27  1  0
 29 30  1  0
 30 31  2  0
 32 31  1  0
 32 24  1  0
 33 35  2  0
 33 34  1  0
M  END
$$$$
