IYW.pdb
     RDKit          3D

 35 37  0  0  1  0  0  0  0  0999 V2000
   10.5327  -22.0014   20.6868 C   0  0  0  0  0  0  0  0  0  0  0  0
    9.7041  -20.8508   20.1628 C   0  0  0  0  0  0  0  0  0  0  0  0
    9.9796  -19.5708   20.8872 C   0  0  2  0  0  0  0  0  0  0  0  0
    9.9219  -19.7263   22.3829 C   0  0  0  0  0  0  0  0  0  0  0  0
    9.1503  -18.4328   20.3835 C   0  0  2  0  0  0  0  0  0  0  0  0
    9.2727  -18.4207   18.9314 N   0  0  0  0  0  0  0  0  0  0  0  0
    9.4705  -17.1182   20.9684 C   0  0  0  0  0  0  0  0  0  0  0  0
   10.5702  -16.5641   20.7254 O   0  0  0  0  0  0  0  0  0  0  0  0
    7.5015  -13.1998   16.4607 O   0  0  0  0  0  0  0  0  0  0  0  0
    7.5637  -13.4507   17.8306 C   0  0  0  0  0  0  0  0  0  0  0  0
    8.3500  -12.6114   18.6004 C   0  0  0  0  0  0  0  0  0  0  0  0
    8.4572  -12.7991   19.9552 C   0  0  0  0  0  0  0  0  0  0  0  0
    7.7668  -13.8485   20.5714 C   0  0  0  0  0  0  0  0  0  0  0  0
    7.8880  -14.0754   22.0224 C   0  0  0  0  0  0  0  0  0  0  0  0
    8.8861  -15.1107   22.4123 C   0  0  2  0  0  0  0  0  0  0  0  0
    8.5819  -16.4075   21.8231 N   0  0  0  0  0  0  0  0  0  0  0  0
    8.8861  -15.2805   23.8874 C   0  0  0  0  0  0  0  0  0  0  0  0
    8.4370  -14.3713   24.6561 O   0  0  0  0  0  0  0  0  0  0  0  0
    6.9916  -14.6727   19.7962 C   0  0  0  0  0  0  0  0  0  0  0  0
    6.8752  -14.4935   18.4275 C   0  0  0  0  0  0  0  0  0  0  0  0
    9.3818  -16.4546   24.5116 N   0  0  0  0  0  0  0  0  0  0  0  0
    9.8691  -16.4069   25.8826 C   0  0  1  0  0  0  0  0  0  0  0  0
    8.7085  -16.4227   26.8454 C   0  0  0  0  0  0  0  0  0  0  0  0
    7.6019  -15.5227   26.5124 C   0  0  0  0  0  0  0  0  0  0  0  0
    6.4139  -15.8909   25.8734 C   0  0  0  0  0  0  0  0  0  0  0  0
    5.6467  -14.8059   25.7044 N   0  0  0  0  0  0  0  0  0  0  0  0
    6.2582  -13.7192   26.1992 C   0  0  0  0  0  0  0  0  0  0  0  0
    5.8989  -12.3778   26.2909 C   0  0  0  0  0  0  0  0  0  0  0  0
    6.7540  -11.5021   26.8826 C   0  0  0  0  0  0  0  0  0  0  0  0
    7.9681  -11.9048   27.3947 C   0  0  0  0  0  0  0  0  0  0  0  0
    8.3139  -13.2270   27.2994 C   0  0  0  0  0  0  0  0  0  0  0  0
    7.4868  -14.1583   26.7094 C   0  0  0  0  0  0  0  0  0  0  0  0
   10.9314  -17.3691   26.1249 C   0  0  0  0  0  0  0  0  0  0  0  0
   11.3908  -18.3431   25.2611 O   0  0  0  0  0  0  0  0  0  0  0  0
   11.5223  -17.3370   27.2577 O   0  0  0  0  0  0  0  0  0  0  0  0
  2  1  1  0
  3  5  1  0
  3  2  1  0
  3  4  1  1
  5  6  1  6
  7  8  2  0
  7  5  1  0
  9 10  1  0
 10 11  2  0
 10 20  1  0
 11 12  1  0
 12 13  2  0
 13 14  1  0
 15 14  1  1
 15 16  1  0
 15 17  1  0
 16  7  1  0
 17 21  1  0
 18 17  2  0
 19 13  1  0
 20 19  2  0
 21 22  1  0
 22 23  1  1
 22 33  1  0
 24 23  1  0
 25 24  2  0
 26 25  1  0
 27 26  1  0
 27 32  2  0
 28 29  2  0
 28 27  1  0
 29 30  1  0
 30 31  2  0
 32 31  1  0
 32 24  1  0
 33 35  2  0
 33 34  1  0
M  END
$$$$
