IYW.pdb
     RDKit          3D

 35 37  0  0  1  0  0  0  0  0999 V2000
    7.0210  -11.9200   19.8591 C   0  0  0  0  0  0  0  0  0  0  0  0
    7.8678  -13.1027   19.4480 C   0  0  0  0  0  0  0  0  0  0  0  0
    8.0314  -14.1003   20.5513 C   0  0  2  0  0  0  0  0  0  0  0  0
    8.4788  -13.4696   21.8424 C   0  0  0  0  0  0  0  0  0  0  0  0
    8.8692  -15.2723   20.1499 C   0  0  2  0  0  0  0  0  0  0  0  0
    8.3167  -15.7898   18.9046 N   0  0  0  0  0  0  0  0  0  0  0  0
    8.9971  -16.3286   21.1700 C   0  0  0  0  0  0  0  0  0  0  0  0
    8.0402  -17.1062   21.4048 O   0  0  0  0  0  0  0  0  0  0  0  0
   11.4292  -21.4296   17.9543 O   0  0  0  0  0  0  0  0  0  0  0  0
   11.4157  -20.7180   19.1532 C   0  0  0  0  0  0  0  0  0  0  0  0
   12.1260  -19.5315   19.2017 C   0  0  0  0  0  0  0  0  0  0  0  0
   12.1562  -18.7793   20.3488 C   0  0  0  0  0  0  0  0  0  0  0  0
   11.4636  -19.2111   21.4851 C   0  0  0  0  0  0  0  0  0  0  0  0
   11.5032  -18.4247   22.7308 C   0  0  0  0  0  0  0  0  0  0  0  0
   10.3127  -17.5591   22.9621 C   0  0  2  0  0  0  0  0  0  0  0  0
   10.1788  -16.5342   21.9359 N   0  0  0  0  0  0  0  0  0  0  0  0
   10.4394  -16.8666   24.2695 C   0  0  0  0  0  0  0  0  0  0  0  0
   11.2186  -15.8712   24.4159 O   0  0  0  0  0  0  0  0  0  0  0  0
   10.7642  -20.3892   21.4228 C   0  0  0  0  0  0  0  0  0  0  0  0
   10.7258  -21.1574   20.2707 C   0  0  0  0  0  0  0  0  0  0  0  0
    9.7050  -17.2741   25.4132 N   0  0  0  0  0  0  0  0  0  0  0  0
   10.0020  -16.7015   26.7184 C   0  0  1  0  0  0  0  0  0  0  0  0
    8.7245  -16.2889   27.4055 C   0  0  0  0  0  0  0  0  0  0  0  0
    7.8171  -15.4636   26.6050 C   0  0  0  0  0  0  0  0  0  0  0  0
    6.7716  -15.9380   25.8068 C   0  0  0  0  0  0  0  0  0  0  0  0
    6.1752  -14.9049   25.1975 N   0  0  0  0  0  0  0  0  0  0  0  0
    6.7666  -13.7520   25.5451 C   0  0  0  0  0  0  0  0  0  0  0  0
    6.5329  -12.4200   25.2168 C   0  0  0  0  0  0  0  0  0  0  0  0
    7.3174  -11.4551   25.7661 C   0  0  0  0  0  0  0  0  0  0  0  0
    8.3390  -11.7584   26.6395 C   0  0  0  0  0  0  0  0  0  0  0  0
    8.5624  -13.0724   26.9565 C   0  0  0  0  0  0  0  0  0  0  0  0
    7.7990  -14.0916   26.4292 C   0  0  0  0  0  0  0  0  0  0  0  0
   10.9200  -17.5257   27.4871 C   0  0  0  0  0  0  0  0  0  0  0  0
   11.6096  -17.1683   28.6284 O   0  0  0  0  0  0  0  0  0  0  0  0
   11.1364  -18.7187   27.0830 O   0  0  0  0  0  0  0  0  0  0  0  0
  2  1  1  0
  3  5  1  0
  3  2  1  0
  3  4  1  1
  5  6  1  6
  7  8  2  0
  7  5  1  0
  9 10  1  0
 10 11  2  0
 10 20  1  0
 11 12  1  0
 12 13  2  0
 13 14  1  0
 15 14  1  6
 15 16  1  0
 15 17  1  0
 16  7  1  0
 17 21  1  0
 18 17  2  0
 19 13  1  0
 20 19  2  0
 21 22  1  0
 22 23  1  1
 22 33  1  0
 24 23  1  0
 25 24  2  0
 26 25  1  0
 27 26  1  0
 27 32  2  0
 28 29  2  0
 28 27  1  0
 29 30  1  0
 30 31  2  0
 32 31  1  0
 32 24  1  0
 33 35  2  0
 33 34  1  0
M  END
$$$$
