IYW.pdb
     RDKit          3D

 35 37  0  0  1  0  0  0  0  0999 V2000
    7.1744  -11.6593   19.9034 C   0  0  0  0  0  0  0  0  0  0  0  0
    7.6181  -13.0161   19.4062 C   0  0  0  0  0  0  0  0  0  0  0  0
    7.7940  -14.0031   20.5171 C   0  0  2  0  0  0  0  0  0  0  0  0
    8.6688  -13.4807   21.6246 C   0  0  0  0  0  0  0  0  0  0  0  0
    8.2104  -15.3538   20.0283 C   0  0  2  0  0  0  0  0  0  0  0  0
    7.2137  -15.7861   19.0570 N   0  0  0  0  0  0  0  0  0  0  0  0
    8.4187  -16.3636   21.0817 C   0  0  0  0  0  0  0  0  0  0  0  0
    7.4400  -16.9538   21.6004 O   0  0  0  0  0  0  0  0  0  0  0  0
   11.8769  -22.7994   25.9938 O   0  0  0  0  0  0  0  0  0  0  0  0
   11.6399  -21.7909   25.0609 C   0  0  0  0  0  0  0  0  0  0  0  0
   12.5596  -20.7598   24.9848 C   0  0  0  0  0  0  0  0  0  0  0  0
   12.3901  -19.7343   24.0892 C   0  0  0  0  0  0  0  0  0  0  0  0
   11.2774  -19.7249   23.2411 C   0  0  0  0  0  0  0  0  0  0  0  0
   11.0707  -18.6200   22.2882 C   0  0  0  0  0  0  0  0  0  0  0  0
    9.9266  -17.7217   22.6108 C   0  0  2  0  0  0  0  0  0  0  0  0
    9.7052  -16.7286   21.5687 N   0  0  0  0  0  0  0  0  0  0  0  0
   10.2012  -16.9893   23.8730 C   0  0  0  0  0  0  0  0  0  0  0  0
   10.9732  -15.9779   23.8942 O   0  0  0  0  0  0  0  0  0  0  0  0
   10.3738  -20.7530   23.3277 C   0  0  0  0  0  0  0  0  0  0  0  0
   10.5338  -21.7941   24.2275 C   0  0  0  0  0  0  0  0  0  0  0  0
    9.6225  -17.3747   25.1100 N   0  0  0  0  0  0  0  0  0  0  0  0
    9.9783  -16.6752   26.3362 C   0  0  1  0  0  0  0  0  0  0  0  0
    8.7369  -16.3662   27.1348 C   0  0  0  0  0  0  0  0  0  0  0  0
    7.7247  -15.5663   26.4411 C   0  0  0  0  0  0  0  0  0  0  0  0
    6.6284  -16.0708   25.7348 C   0  0  0  0  0  0  0  0  0  0  0  0
    5.9353  -15.0535   25.2065 N   0  0  0  0  0  0  0  0  0  0  0  0
    6.5095  -13.8828   25.5217 C   0  0  0  0  0  0  0  0  0  0  0  0
    6.1917  -12.5564   25.2455 C   0  0  0  0  0  0  0  0  0  0  0  0
    6.9848  -11.5687   25.7391 C   0  0  0  0  0  0  0  0  0  0  0  0
    8.0962  -11.8434   26.5059 C   0  0  0  0  0  0  0  0  0  0  0  0
    8.4019  -13.1521   26.7721 C   0  0  0  0  0  0  0  0  0  0  0  0
    7.6341  -14.1935   26.2972 C   0  0  0  0  0  0  0  0  0  0  0  0
   11.0668  -17.3254   27.0471 C   0  0  0  0  0  0  0  0  0  0  0  0
   11.7672  -16.8367   28.1317 O   0  0  0  0  0  0  0  0  0  0  0  0
   11.4427  -18.4780   26.6428 O   0  0  0  0  0  0  0  0  0  0  0  0
  2  1  1  0
  3  5  1  0
  3  2  1  0
  3  4  1  1
  5  6  1  6
  7  8  2  0
  7  5  1  0
  9 10  1  0
 10 11  2  0
 10 20  1  0
 11 12  1  0
 12 13  2  0
 13 14  1  0
 15 14  1  6
 15 16  1  0
 15 17  1  0
 16  7  1  0
 17 21  1  0
 18 17  2  0
 19 13  1  0
 20 19  2  0
 21 22  1  0
 22 23  1  1
 22 33  1  0
 24 23  1  0
 25 24  2  0
 26 25  1  0
 27 26  1  0
 27 32  2  0
 28 29  2  0
 28 27  1  0
 29 30  1  0
 30 31  2  0
 32 31  1  0
 32 24  1  0
 33 35  2  0
 33 34  1  0
M  END
$$$$
