IYW.pdb
     RDKit          3D

 35 37  0  0  1  0  0  0  0  0999 V2000
   11.6147  -21.2094   19.5531 C   0  0  0  0  0  0  0  0  0  0  0  0
   10.7840  -20.0128   19.1492 C   0  0  0  0  0  0  0  0  0  0  0  0
   10.7515  -18.9554   20.2074 C   0  0  2  0  0  0  0  0  0  0  0  0
   10.3907  -19.5013   21.5626 C   0  0  0  0  0  0  0  0  0  0  0  0
    9.9279  -17.7707   19.8141 C   0  0  2  0  0  0  0  0  0  0  0  0
   10.3718  -17.3589   18.4885 N   0  0  0  0  0  0  0  0  0  0  0  0
    9.9501  -16.6482   20.7693 C   0  0  0  0  0  0  0  0  0  0  0  0
   11.0042  -15.9935   20.9580 O   0  0  0  0  0  0  0  0  0  0  0  0
    7.9539  -12.7040   16.5923 O   0  0  0  0  0  0  0  0  0  0  0  0
    7.8938  -13.0768   17.9344 C   0  0  0  0  0  0  0  0  0  0  0  0
    8.5669  -12.2864   18.8494 C   0  0  0  0  0  0  0  0  0  0  0  0
    8.5503  -12.5934   20.1865 C   0  0  0  0  0  0  0  0  0  0  0  0
    7.8472  -13.7163   20.6362 C   0  0  0  0  0  0  0  0  0  0  0  0
    7.8369  -14.0707   22.0666 C   0  0  0  0  0  0  0  0  0  0  0  0
    8.8147  -15.1251   22.4567 C   0  0  2  0  0  0  0  0  0  0  0  0
    8.8123  -16.2412   21.5209 N   0  0  0  0  0  0  0  0  0  0  0  0
    8.4662  -15.6653   23.7953 C   0  0  0  0  0  0  0  0  0  0  0  0
    7.4257  -15.2734   24.4143 O   0  0  0  0  0  0  0  0  0  0  0  0
    7.1851  -14.4908   19.7182 C   0  0  0  0  0  0  0  0  0  0  0  0
    7.1941  -14.1914   18.3657 C   0  0  0  0  0  0  0  0  0  0  0  0
    9.2671  -16.6379   24.4481 N   0  0  0  0  0  0  0  0  0  0  0  0
    9.9656  -16.3056   25.6814 C   0  0  1  0  0  0  0  0  0  0  0  0
    8.9865  -16.2265   26.8257 C   0  0  0  0  0  0  0  0  0  0  0  0
    7.8530  -15.3214   26.6232 C   0  0  0  0  0  0  0  0  0  0  0  0
    6.5920  -15.6867   26.1417 C   0  0  0  0  0  0  0  0  0  0  0  0
    5.8170  -14.5975   26.0574 N   0  0  0  0  0  0  0  0  0  0  0  0
    6.4926  -13.5105   26.4595 C   0  0  0  0  0  0  0  0  0  0  0  0
    6.1565  -12.1655   26.5801 C   0  0  0  0  0  0  0  0  0  0  0  0
    7.0845  -11.2904   27.0505 C   0  0  0  0  0  0  0  0  0  0  0  0
    8.3504  -11.6974   27.4116 C   0  0  0  0  0  0  0  0  0  0  0  0
    8.6729  -13.0233   27.2889 C   0  0  0  0  0  0  0  0  0  0  0  0
    7.7724  -13.9541   26.8174 C   0  0  0  0  0  0  0  0  0  0  0  0
   11.1453  -17.1295   25.8873 C   0  0  0  0  0  0  0  0  0  0  0  0
   11.6211  -18.1297   25.0632 O   0  0  0  0  0  0  0  0  0  0  0  0
   11.8376  -16.9319   26.9432 O   0  0  0  0  0  0  0  0  0  0  0  0
  2  1  1  0
  3  5  1  0
  3  2  1  0
  3  4  1  1
  5  6  1  6
  7  8  2  0
  7  5  1  0
  9 10  1  0
 10 11  2  0
 10 20  1  0
 11 12  1  0
 12 13  2  0
 13 14  1  0
 15 14  1  6
 15 16  1  0
 15 17  1  0
 16  7  1  0
 17 21  1  0
 18 17  2  0
 19 13  1  0
 20 19  2  0
 21 22  1  0
 22 23  1  1
 22 33  1  0
 24 23  1  0
 25 24  2  0
 26 25  1  0
 27 26  1  0
 27 32  2  0
 28 29  2  0
 28 27  1  0
 29 30  1  0
 30 31  2  0
 32 31  1  0
 32 24  1  0
 33 35  2  0
 33 34  1  0
M  END
$$$$
