IYW.pdb
     RDKit          3D

 35 37  0  0  1  0  0  0  0  0999 V2000
    8.1011  -12.4175   19.2542 C   0  0  0  0  0  0  0  0  0  0  0  0
    7.7461  -13.8866   19.2239 C   0  0  0  0  0  0  0  0  0  0  0  0
    7.6191  -14.4728   20.5948 C   0  0  2  0  0  0  0  0  0  0  0  0
    8.8572  -14.2759   21.4273 C   0  0  0  0  0  0  0  0  0  0  0  0
    7.1459  -15.8913   20.5741 C   0  0  2  0  0  0  0  0  0  0  0  0
    5.9354  -15.9294   19.7634 N   0  0  0  0  0  0  0  0  0  0  0  0
    6.9332  -16.4995   21.8999 C   0  0  0  0  0  0  0  0  0  0  0  0
    5.9205  -16.2049   22.5804 O   0  0  0  0  0  0  0  0  0  0  0  0
    7.8273  -22.1340   28.7243 O   0  0  0  0  0  0  0  0  0  0  0  0
    7.8041  -21.4960   27.4848 C   0  0  0  0  0  0  0  0  0  0  0  0
    9.0191  -21.2350   26.8760 C   0  0  0  0  0  0  0  0  0  0  0  0
    9.0714  -20.6106   25.6555 C   0  0  0  0  0  0  0  0  0  0  0  0
    7.8873  -20.2310   25.0142 C   0  0  0  0  0  0  0  0  0  0  0  0
    7.9278  -19.5413   23.7126 C   0  0  0  0  0  0  0  0  0  0  0  0
    7.6092  -18.0867   23.7654 C   0  0  2  0  0  0  0  0  0  0  0  0
    7.8339  -17.4346   22.4825 N   0  0  0  0  0  0  0  0  0  0  0  0
    8.4794  -17.4162   24.7644 C   0  0  0  0  0  0  0  0  0  0  0  0
    8.6203  -17.8870   25.9382 O   0  0  0  0  0  0  0  0  0  0  0  0
    6.6904  -20.4956   25.6294 C   0  0  0  0  0  0  0  0  0  0  0  0
    6.6243  -21.1254   26.8614 C   0  0  0  0  0  0  0  0  0  0  0  0
    9.1931  -16.2266   24.4655 N   0  0  0  0  0  0  0  0  0  0  0  0
   10.0696  -15.6270   25.4613 C   0  0  1  0  0  0  0  0  0  0  0  0
    9.2659  -15.1797   26.6564 C   0  0  0  0  0  0  0  0  0  0  0  0
    7.9577  -14.5951   26.3524 C   0  0  0  0  0  0  0  0  0  0  0  0
    6.7992  -15.3088   26.0303 C   0  0  0  0  0  0  0  0  0  0  0  0
    5.8026  -14.4485   25.7841 N   0  0  0  0  0  0  0  0  0  0  0  0
    6.2303  -13.1847   25.9245 C   0  0  0  0  0  0  0  0  0  0  0  0
    5.6093  -11.9454   25.8017 C   0  0  0  0  0  0  0  0  0  0  0  0
    6.3310  -10.8170   26.0344 C   0  0  0  0  0  0  0  0  0  0  0  0
    7.6617  -10.8651   26.3886 C   0  0  0  0  0  0  0  0  0  0  0  0
    8.2651  -12.0894   26.5063 C   0  0  0  0  0  0  0  0  0  0  0  0
    7.5825  -13.2655   26.2817 C   0  0  0  0  0  0  0  0  0  0  0  0
   11.2403  -16.4453   25.7311 C   0  0  0  0  0  0  0  0  0  0  0  0
   12.3974  -16.0620   26.3792 O   0  0  0  0  0  0  0  0  0  0  0  0
   11.2281  -17.6592   25.3316 O   0  0  0  0  0  0  0  0  0  0  0  0
  2  1  1  0
  3  5  1  0
  3  2  1  0
  3  4  1  6
  5  6  1  6
  7  8  2  0
  7  5  1  0
  9 10  1  0
 10 11  2  0
 10 20  1  0
 11 12  1  0
 12 13  2  0
 13 14  1  0
 15 14  1  6
 15 16  1  0
 15 17  1  0
 16  7  1  0
 17 21  1  0
 18 17  2  0
 19 13  1  0
 20 19  2  0
 21 22  1  0
 22 23  1  1
 22 33  1  0
 24 23  1  0
 25 24  2  0
 26 25  1  0
 27 26  1  0
 27 32  2  0
 28 29  2  0
 28 27  1  0
 29 30  1  0
 30 31  2  0
 32 31  1  0
 32 24  1  0
 33 35  2  0
 33 34  1  0
M  END
$$$$
