IYW.pdb
     RDKit          3D

 35 37  0  0  1  0  0  0  0  0999 V2000
    8.4597  -24.2815   19.9397 C   0  0  0  0  0  0  0  0  0  0  0  0
    8.6520  -23.3283   21.0971 C   0  0  0  0  0  0  0  0  0  0  0  0
    8.9758  -21.9387   20.6461 C   0  0  2  0  0  0  0  0  0  0  0  0
   10.1527  -21.8919   19.7094 C   0  0  0  0  0  0  0  0  0  0  0  0
    9.0933  -20.9755   21.7840 C   0  0  2  0  0  0  0  0  0  0  0  0
    7.8498  -21.0492   22.5404 N   0  0  0  0  0  0  0  0  0  0  0  0
    9.4161  -19.5895   21.3999 C   0  0  0  0  0  0  0  0  0  0  0  0
   10.4585  -19.3358   20.7484 O   0  0  0  0  0  0  0  0  0  0  0  0
    8.5198  -11.0830   19.1533 O   0  0  0  0  0  0  0  0  0  0  0  0
    8.3602  -12.3723   19.6590 C   0  0  0  0  0  0  0  0  0  0  0  0
    7.0711  -12.8650   19.7615 C   0  0  0  0  0  0  0  0  0  0  0  0
    6.8397  -14.1261   20.2500 C   0  0  0  0  0  0  0  0  0  0  0  0
    7.9142  -14.9275   20.6507 C   0  0  0  0  0  0  0  0  0  0  0  0
    7.6806  -16.2763   21.1965 C   0  0  0  0  0  0  0  0  0  0  0  0
    8.9092  -17.0998   21.3761 C   0  0  2  0  0  0  0  0  0  0  0  0
    8.5931  -18.4766   21.7307 N   0  0  0  0  0  0  0  0  0  0  0  0
    9.7376  -16.5365   22.4722 C   0  0  0  0  0  0  0  0  0  0  0  0
   10.8452  -15.9579   22.2315 O   0  0  0  0  0  0  0  0  0  0  0  0
    9.1864  -14.4262   20.5440 C   0  0  0  0  0  0  0  0  0  0  0  0
    9.4330  -13.1548   20.0523 C   0  0  0  0  0  0  0  0  0  0  0  0
    9.3414  -16.6126   23.8327 N   0  0  0  0  0  0  0  0  0  0  0  0
   10.2680  -16.2322   24.8892 C   0  0  1  0  0  0  0  0  0  0  0  0
    9.8639  -14.9043   25.4789 C   0  0  0  0  0  0  0  0  0  0  0  0
    8.4238  -14.7083   25.6610 C   0  0  0  0  0  0  0  0  0  0  0  0
    7.4471  -15.7056   25.5792 C   0  0  0  0  0  0  0  0  0  0  0  0
    6.2389  -15.1595   25.7692 N   0  0  0  0  0  0  0  0  0  0  0  0
    6.3500  -13.8388   25.9765 C   0  0  0  0  0  0  0  0  0  0  0  0
    5.4267  -12.8299   26.2342 C   0  0  0  0  0  0  0  0  0  0  0  0
    5.8702  -11.5587   26.4227 C   0  0  0  0  0  0  0  0  0  0  0  0
    7.2095  -11.2397   26.3655 C   0  0  0  0  0  0  0  0  0  0  0  0
    8.1112  -12.2392   26.1106 C   0  0  0  0  0  0  0  0  0  0  0  0
    7.7182  -13.5450   25.9110 C   0  0  0  0  0  0  0  0  0  0  0  0
   10.5116  -17.3159   25.8269 C   0  0  0  0  0  0  0  0  0  0  0  0
   11.5171  -17.3962   26.7695 O   0  0  0  0  0  0  0  0  0  0  0  0
    9.7258  -18.3233   25.7960 O   0  0  0  0  0  0  0  0  0  0  0  0
  2  1  1  0
  3  5  1  0
  3  2  1  0
  3  4  1  1
  5  6  1  6
  7  8  2  0
  7  5  1  0
  9 10  1  0
 10 11  2  0
 10 20  1  0
 11 12  1  0
 12 13  2  0
 13 14  1  0
 15 14  1  1
 15 16  1  0
 15 17  1  0
 16  7  1  0
 17 21  1  0
 18 17  2  0
 19 13  1  0
 20 19  2  0
 21 22  1  0
 22 23  1  1
 22 33  1  0
 24 23  1  0
 25 24  2  0
 26 25  1  0
 27 26  1  0
 27 32  2  0
 28 29  2  0
 28 27  1  0
 29 30  1  0
 30 31  2  0
 32 31  1  0
 32 24  1  0
 33 35  2  0
 33 34  1  0
M  END
$$$$
