IYW.pdb
     RDKit          3D

 35 37  0  0  1  0  0  0  0  0999 V2000
   10.0740  -19.4742   16.4954 C   0  0  0  0  0  0  0  0  0  0  0  0
   10.0698  -19.5729   18.0038 C   0  0  0  0  0  0  0  0  0  0  0  0
   10.3296  -18.2555   18.6641 C   0  0  2  0  0  0  0  0  0  0  0  0
   11.5409  -17.5565   18.1084 C   0  0  0  0  0  0  0  0  0  0  0  0
   10.3405  -18.3504   20.1566 C   0  0  2  0  0  0  0  0  0  0  0  0
    9.0882  -18.9790   20.5570 N   0  0  0  0  0  0  0  0  0  0  0  0
   10.5607  -17.0756   20.8631 C   0  0  0  0  0  0  0  0  0  0  0  0
   11.5768  -16.3801   20.6197 O   0  0  0  0  0  0  0  0  0  0  0  0
    6.5848  -13.6830   17.0865 O   0  0  0  0  0  0  0  0  0  0  0  0
    7.0924  -13.8380   18.3757 C   0  0  0  0  0  0  0  0  0  0  0  0
    6.6588  -14.9292   19.1079 C   0  0  0  0  0  0  0  0  0  0  0  0
    7.1172  -15.1444   20.3830 C   0  0  0  0  0  0  0  0  0  0  0  0
    8.0329  -14.2546   20.9551 C   0  0  0  0  0  0  0  0  0  0  0  0
    8.5188  -14.4608   22.3309 C   0  0  0  0  0  0  0  0  0  0  0  0
    9.7860  -15.2373   22.4369 C   0  0  2  0  0  0  0  0  0  0  0  0
    9.6636  -16.5604   21.8403 N   0  0  0  0  0  0  0  0  0  0  0  0
   10.1445  -15.4243   23.8657 C   0  0  0  0  0  0  0  0  0  0  0  0
   11.1054  -14.7790   24.3945 O   0  0  0  0  0  0  0  0  0  0  0  0
    8.4537  -13.1772   20.2181 C   0  0  0  0  0  0  0  0  0  0  0  0
    7.9984  -12.9491   18.9298 C   0  0  0  0  0  0  0  0  0  0  0  0
    9.4410  -16.3234   24.7085 N   0  0  0  0  0  0  0  0  0  0  0  0
    9.8787  -16.5380   26.0803 C   0  0  1  0  0  0  0  0  0  0  0  0
    8.7066  -16.4210   27.0220 C   0  0  0  0  0  0  0  0  0  0  0  0
    7.6762  -15.4574   26.6282 C   0  0  0  0  0  0  0  0  0  0  0  0
    6.4217  -15.7743   26.0980 C   0  0  0  0  0  0  0  0  0  0  0  0
    5.7565  -14.6437   25.8270 N   0  0  0  0  0  0  0  0  0  0  0  0
    6.5006  -13.5747   26.1487 C   0  0  0  0  0  0  0  0  0  0  0  0
    6.2813  -12.2020   26.0838 C   0  0  0  0  0  0  0  0  0  0  0  0
    7.2523  -11.3550   26.5174 C   0  0  0  0  0  0  0  0  0  0  0  0
    8.4492  -11.8172   27.0197 C   0  0  0  0  0  0  0  0  0  0  0  0
    8.6567  -13.1701   27.0792 C   0  0  0  0  0  0  0  0  0  0  0  0
    7.7081  -14.0746   26.6532 C   0  0  0  0  0  0  0  0  0  0  0  0
   10.7093  -17.7232   26.2160 C   0  0  0  0  0  0  0  0  0  0  0  0
   11.0556  -18.6198   25.2250 O   0  0  0  0  0  0  0  0  0  0  0  0
   11.1831  -17.9940   27.3716 O   0  0  0  0  0  0  0  0  0  0  0  0
  2  1  1  0
  3  5  1  0
  3  2  1  0
  3  4  1  6
  5  6  1  1
  7  8  2  0
  7  5  1  0
  9 10  1  0
 10 11  2  0
 10 20  1  0
 11 12  1  0
 12 13  2  0
 13 14  1  0
 15 14  1  1
 15 16  1  0
 15 17  1  0
 16  7  1  0
 17 21  1  0
 18 17  2  0
 19 13  1  0
 20 19  2  0
 21 22  1  0
 22 23  1  1
 22 33  1  0
 24 23  1  0
 25 24  2  0
 26 25  1  0
 27 26  1  0
 27 32  2  0
 28 29  2  0
 28 27  1  0
 29 30  1  0
 30 31  2  0
 32 31  1  0
 32 24  1  0
 33 35  2  0
 33 34  1  0
M  END
$$$$
