HCE.pdb
     RDKit          3D

 26 26  0  0  1  0  0  0  0  0999 V2000
    8.6831  -17.3604   17.3793 N   0  0  0  0  0  0  0  0  0  0  0  0
    9.7436  -16.3734   17.3668 C   0  0  1  0  0  0  0  0  0  0  0  0
    9.5020  -15.4780   16.1559 C   0  0  0  0  0  0  0  0  0  0  0  0
    9.7144  -16.2859   14.9290 C   0  0  0  0  0  0  0  0  0  0  0  0
   10.8927  -16.8732   14.5101 C   0  0  0  0  0  0  0  0  0  0  0  0
   10.7040  -17.5289   13.3500 N   0  0  0  0  0  0  0  0  0  0  0  0
    9.4152  -17.3609   13.0317 C   0  0  0  0  0  0  0  0  0  0  0  0
    8.8064  -16.6197   13.9646 N   0  0  0  0  0  0  0  0  0  0  0  0
    9.6297  -15.5547   18.5975 C   0  0  0  0  0  0  0  0  0  0  0  0
   10.4408  -14.6362   18.8102 O   0  0  0  0  0  0  0  0  0  0  0  0
    8.6197  -15.7619   19.5797 N   0  0  0  0  0  0  0  0  0  0  0  0
    8.7934  -15.3152   20.9348 C   0  0  1  0  0  0  0  0  0  0  0  0
    7.4772  -15.1258   21.6319 C   0  0  0  0  0  0  0  0  0  0  0  0
    7.8466  -14.5415   23.3240 S   0  0  0  0  0  0  0  0  0  0  0  0
    9.6424  -16.2351   21.7315 C   0  0  0  0  0  0  0  0  0  0  0  0
    9.5312  -17.4877   21.7071 O   0  0  0  0  0  0  0  0  0  0  0  0
   10.6317  -15.6413   22.5620 N   0  0  0  0  0  0  0  0  0  0  0  0
   11.6435  -16.3781   23.2615 C   0  0  1  0  0  0  0  0  0  0  0  0
   12.9997  -15.8749   22.9445 C   0  0  0  0  0  0  0  0  0  0  0  0
   14.1451  -16.5445   23.6133 C   0  0  0  0  0  0  0  0  0  0  0  0
   15.4206  -15.9591   23.1507 C   0  0  0  0  0  0  0  0  0  0  0  0
   15.4656  -15.1315   22.2198 O   0  0  0  0  0  0  0  0  0  0  0  0
   11.3475  -16.5907   24.6882 C   0  0  0  0  0  0  0  0  0  0  0  0
   12.0703  -17.5468   25.3836 O   0  0  0  0  0  0  0  0  0  0  0  0
   16.5837  -16.3869   23.8194 O   0  0  0  0  0  0  0  0  0  0  0  0
   10.4724  -15.9496   25.3166 O   0  0  0  0  0  0  0  0  0  0  0  0
  2  1  1  1
  2  3  1  0
  3  4  1  0
  4  8  1  0
  4  5  2  0
  5  6  1  0
  7  6  1  0
  8  7  2  0
  9  2  1  0
  9 10  2  0
 11  9  1  0
 12 11  1  0
 12 13  1  1
 13 14  1  0
 15 12  1  0
 16 15  2  0
 17 15  1  0
 18 17  1  0
 18 23  1  0
 18 19  1  1
 20 19  1  0
 21 22  2  0
 21 20  1  0
 23 24  1  0
 25 21  1  0
 26 23  2  0
M  END
$$$$
