HCE.pdb
     RDKit          3D

 26 26  0  0  1  0  0  0  0  0999 V2000
   10.2568  -13.6167   20.1534 N   0  0  0  0  0  0  0  0  0  0  0  0
    8.9090  -13.7337   20.6718 C   0  0  1  0  0  0  0  0  0  0  0  0
    8.2136  -14.8205   19.8585 C   0  0  0  0  0  0  0  0  0  0  0  0
    8.0727  -14.3391   18.4616 C   0  0  0  0  0  0  0  0  0  0  0  0
    7.5487  -13.1308   18.0440 C   0  0  0  0  0  0  0  0  0  0  0  0
    7.5841  -13.0425   16.7016 N   0  0  0  0  0  0  0  0  0  0  0  0
    8.1265  -14.1857   16.2664 C   0  0  0  0  0  0  0  0  0  0  0  0
    8.4255  -14.9746   17.3050 N   0  0  0  0  0  0  0  0  0  0  0  0
    8.9923  -14.1732   22.0852 C   0  0  0  0  0  0  0  0  0  0  0  0
    9.8885  -14.9595   22.4397 O   0  0  0  0  0  0  0  0  0  0  0  0
    8.0827  -13.7384   23.0907 N   0  0  0  0  0  0  0  0  0  0  0  0
    8.1852  -14.2100   24.4446 C   0  0  1  0  0  0  0  0  0  0  0  0
    7.0464  -13.7216   25.2923 C   0  0  0  0  0  0  0  0  0  0  0  0
    7.2957  -11.9282   25.5426 S   0  0  0  0  0  0  0  0  0  0  0  0
    8.2582  -15.6897   24.5265 C   0  0  0  0  0  0  0  0  0  0  0  0
    7.8511  -16.4616   23.6207 O   0  0  0  0  0  0  0  0  0  0  0  0
    8.8257  -16.2421   25.7071 N   0  0  0  0  0  0  0  0  0  0  0  0
    9.6204  -17.4352   25.7362 C   0  0  1  0  0  0  0  0  0  0  0  0
   10.7382  -17.3679   24.7673 C   0  0  0  0  0  0  0  0  0  0  0  0
   11.6724  -18.5226   24.7280 C   0  0  0  0  0  0  0  0  0  0  0  0
   12.6863  -18.3243   23.6715 C   0  0  0  0  0  0  0  0  0  0  0  0
   13.8586  -17.9954   23.9377 O   0  0  0  0  0  0  0  0  0  0  0  0
    9.9653  -17.8890   27.0940 C   0  0  0  0  0  0  0  0  0  0  0  0
   10.3305  -19.2125   27.2817 O   0  0  0  0  0  0  0  0  0  0  0  0
   12.2560  -18.5275   22.3461 O   0  0  0  0  0  0  0  0  0  0  0  0
    9.9492  -17.1400   28.0991 O   0  0  0  0  0  0  0  0  0  0  0  0
  2  1  1  6
  2  3  1  0
  3  4  1  0
  4  8  1  0
  4  5  2  0
  5  6  1  0
  7  6  1  0
  8  7  2  0
  9  2  1  0
  9 10  2  0
 11  9  1  0
 12 11  1  0
 12 13  1  1
 13 14  1  0
 15 12  1  0
 16 15  2  0
 17 15  1  0
 18 17  1  0
 18 23  1  0
 18 19  1  6
 20 19  1  0
 21 22  2  0
 21 20  1  0
 23 24  1  0
 25 21  1  0
 26 23  2  0
M  END
$$$$
