HCE.pdb
     RDKit          3D

 26 26  0  0  1  0  0  0  0  0999 V2000
    6.7440  -14.2582   19.5911 N   0  0  0  0  0  0  0  0  0  0  0  0
    8.1923  -14.2224   19.5874 C   0  0  1  0  0  0  0  0  0  0  0  0
    8.6032  -12.9675   18.8241 C   0  0  0  0  0  0  0  0  0  0  0  0
    8.3767  -13.2071   17.3769 C   0  0  0  0  0  0  0  0  0  0  0  0
    7.3788  -12.6682   16.5879 C   0  0  0  0  0  0  0  0  0  0  0  0
    7.4894  -13.1125   15.3223 N   0  0  0  0  0  0  0  0  0  0  0  0
    8.5499  -13.9284   15.3045 C   0  0  0  0  0  0  0  0  0  0  0  0
    9.0942  -13.9978   16.5249 N   0  0  0  0  0  0  0  0  0  0  0  0
    8.6568  -14.1027   20.9902 C   0  0  0  0  0  0  0  0  0  0  0  0
    8.8310  -12.9787   21.4934 O   0  0  0  0  0  0  0  0  0  0  0  0
    8.9240  -15.2282   21.8205 N   0  0  0  0  0  0  0  0  0  0  0  0
    9.3234  -15.0662   23.1918 C   0  0  1  0  0  0  0  0  0  0  0  0
    8.2276  -14.4657   24.0240 C   0  0  0  0  0  0  0  0  0  0  0  0
    6.9164  -15.7301   24.1760 S   0  0  0  0  0  0  0  0  0  0  0  0
    9.7654  -16.3412   23.8088 C   0  0  0  0  0  0  0  0  0  0  0  0
    9.0275  -17.3526   23.9302 O   0  0  0  0  0  0  0  0  0  0  0  0
   11.1048  -16.3973   24.2819 N   0  0  0  0  0  0  0  0  0  0  0  0
   11.7435  -17.5922   24.7510 C   0  0  1  0  0  0  0  0  0  0  0  0
   13.1413  -17.6860   24.2713 C   0  0  0  0  0  0  0  0  0  0  0  0
   14.1261  -16.7437   24.8626 C   0  0  0  0  0  0  0  0  0  0  0  0
   15.0640  -16.2666   23.8251 C   0  0  0  0  0  0  0  0  0  0  0  0
   15.0082  -16.6759   22.6492 O   0  0  0  0  0  0  0  0  0  0  0  0
   11.5298  -17.8597   26.1832 C   0  0  0  0  0  0  0  0  0  0  0  0
   11.9442  -19.0755   26.7033 O   0  0  0  0  0  0  0  0  0  0  0  0
   16.0250  -15.3234   24.2371 O   0  0  0  0  0  0  0  0  0  0  0  0
   10.9912  -17.0430   26.9671 O   0  0  0  0  0  0  0  0  0  0  0  0
  2  1  1  1
  2  3  1  0
  3  4  1  0
  4  8  1  0
  4  5  2  0
  5  6  1  0
  7  6  1  0
  8  7  2  0
  9  2  1  0
  9 10  2  0
 11  9  1  0
 12 11  1  0
 12 13  1  1
 13 14  1  0
 15 12  1  0
 16 15  2  0
 17 15  1  0
 18 17  1  0
 18 23  1  0
 18 19  1  1
 20 19  1  0
 21 22  2  0
 21 20  1  0
 23 24  1  0
 25 21  1  0
 26 23  2  0
M  END
$$$$
