HCE.pdb
     RDKit          3D

 26 26  0  0  1  0  0  0  0  0999 V2000
   10.2737  -13.8803   20.4630 N   0  0  0  0  0  0  0  0  0  0  0  0
    8.8981  -13.9336   20.9145 C   0  0  1  0  0  0  0  0  0  0  0  0
    8.2294  -15.0815   20.1653 C   0  0  0  0  0  0  0  0  0  0  0  0
    7.8778  -14.6071   18.8035 C   0  0  0  0  0  0  0  0  0  0  0  0
    8.2571  -13.4186   18.2099 C   0  0  0  0  0  0  0  0  0  0  0  0
    7.7497  -13.3319   16.9664 N   0  0  0  0  0  0  0  0  0  0  0  0
    7.0522  -14.4565   16.7686 C   0  0  0  0  0  0  0  0  0  0  0  0
    7.1170  -15.2324   17.8568 N   0  0  0  0  0  0  0  0  0  0  0  0
    8.8976  -14.2438   22.3642 C   0  0  0  0  0  0  0  0  0  0  0  0
    9.8282  -14.9045   22.8587 O   0  0  0  0  0  0  0  0  0  0  0  0
    7.8670  -13.8201   23.2507 N   0  0  0  0  0  0  0  0  0  0  0  0
    7.9166  -14.1268   24.6541 C   0  0  1  0  0  0  0  0  0  0  0  0
    6.8986  -13.3439   25.4317 C   0  0  0  0  0  0  0  0  0  0  0  0
    7.2327  -13.6424   27.2038 S   0  0  0  0  0  0  0  0  0  0  0  0
    7.7343  -15.5741   24.9258 C   0  0  0  0  0  0  0  0  0  0  0  0
    6.7672  -16.2512   24.4918 O   0  0  0  0  0  0  0  0  0  0  0  0
    8.7240  -16.2089   25.7248 N   0  0  0  0  0  0  0  0  0  0  0  0
    8.6062  -17.5394   26.2460 C   0  0  1  0  0  0  0  0  0  0  0  0
    9.5625  -17.7772   27.3514 C   0  0  0  0  0  0  0  0  0  0  0  0
    9.5216  -19.1090   28.0089 C   0  0  0  0  0  0  0  0  0  0  0  0
   10.5798  -19.2047   29.0359 C   0  0  0  0  0  0  0  0  0  0  0  0
   11.3511  -18.2558   29.2767 O   0  0  0  0  0  0  0  0  0  0  0  0
    7.2172  -17.9646   26.4871 C   0  0  0  0  0  0  0  0  0  0  0  0
    6.8270  -19.2300   26.0786 O   0  0  0  0  0  0  0  0  0  0  0  0
   10.6696  -20.4273   29.7290 O   0  0  0  0  0  0  0  0  0  0  0  0
    6.3595  -17.2421   27.0474 O   0  0  0  0  0  0  0  0  0  0  0  0
  2  1  1  6
  2  3  1  0
  3  4  1  0
  4  8  1  0
  4  5  2  0
  5  6  1  0
  7  6  1  0
  8  7  2  0
  9  2  1  0
  9 10  2  0
 11  9  1  0
 12 11  1  0
 12 13  1  1
 13 14  1  0
 15 12  1  0
 16 15  2  0
 17 15  1  0
 18 17  1  0
 18 23  1  0
 18 19  1  1
 20 19  1  0
 21 22  2  0
 21 20  1  0
 23 24  1  0
 25 21  1  0
 26 23  2  0
M  END
$$$$
