HCE.pdb
     RDKit          3D

 26 26  0  0  1  0  0  0  0  0999 V2000
   10.0841  -13.4170   20.4809 N   0  0  0  0  0  0  0  0  0  0  0  0
    8.7733  -13.7490   21.0008 C   0  0  1  0  0  0  0  0  0  0  0  0
    8.3122  -15.0068   20.2717 C   0  0  0  0  0  0  0  0  0  0  0  0
    7.9934  -14.6418   18.8687 C   0  0  0  0  0  0  0  0  0  0  0  0
    8.1230  -13.3988   18.2796 C   0  0  0  0  0  0  0  0  0  0  0  0
    7.7388  -13.4476   16.9908 N   0  0  0  0  0  0  0  0  0  0  0  0
    7.3670  -14.7121   16.7598 C   0  0  0  0  0  0  0  0  0  0  0  0
    7.5122  -15.4420   17.8717 N   0  0  0  0  0  0  0  0  0  0  0  0
    8.9113  -14.0564   22.4446 C   0  0  0  0  0  0  0  0  0  0  0  0
    9.9041  -14.6836   22.8543 O   0  0  0  0  0  0  0  0  0  0  0  0
    7.9488  -13.6670   23.4190 N   0  0  0  0  0  0  0  0  0  0  0  0
    8.1046  -14.0181   24.8041 C   0  0  1  0  0  0  0  0  0  0  0  0
    7.1105  -13.3053   25.6746 C   0  0  0  0  0  0  0  0  0  0  0  0
    5.4603  -13.9740   25.2615 S   0  0  0  0  0  0  0  0  0  0  0  0
    7.9990  -15.4800   25.0347 C   0  0  0  0  0  0  0  0  0  0  0  0
    7.3410  -16.2589   24.2981 O   0  0  0  0  0  0  0  0  0  0  0  0
    8.6910  -16.0061   26.1595 N   0  0  0  0  0  0  0  0  0  0  0  0
    9.2327  -17.3322   26.2234 C   0  0  1  0  0  0  0  0  0  0  0  0
   10.0075  -17.6625   25.0054 C   0  0  0  0  0  0  0  0  0  0  0  0
   11.4879  -17.6861   25.1288 C   0  0  0  0  0  0  0  0  0  0  0  0
   12.1034  -18.0408   23.8330 C   0  0  0  0  0  0  0  0  0  0  0  0
   12.9953  -17.3414   23.3146 O   0  0  0  0  0  0  0  0  0  0  0  0
    9.8767  -17.6520   27.5085 C   0  0  0  0  0  0  0  0  0  0  0  0
   10.2565  -18.9614   27.7561 O   0  0  0  0  0  0  0  0  0  0  0  0
   11.6275  -19.2133   23.2151 O   0  0  0  0  0  0  0  0  0  0  0  0
   10.1051  -16.7999   28.3992 O   0  0  0  0  0  0  0  0  0  0  0  0
  2  1  1  6
  2  3  1  0
  3  4  1  0
  4  8  1  0
  4  5  2  0
  5  6  1  0
  7  6  1  0
  8  7  2  0
  9  2  1  0
  9 10  2  0
 11  9  1  0
 12 11  1  0
 12 13  1  1
 13 14  1  0
 15 12  1  0
 16 15  2  0
 17 15  1  0
 18 17  1  0
 18 23  1  0
 18 19  1  6
 20 19  1  0
 21 22  2  0
 21 20  1  0
 23 24  1  0
 25 21  1  0
 26 23  2  0
M  END
$$$$
