HCE.pdb
     RDKit          3D

 26 26  0  0  1  0  0  0  0  0999 V2000
    7.9255  -15.5837   18.8204 N   0  0  0  0  0  0  0  0  0  0  0  0
    9.0831  -14.7126   18.8326 C   0  0  1  0  0  0  0  0  0  0  0  0
    8.7020  -13.4574   18.0544 C   0  0  0  0  0  0  0  0  0  0  0  0
    8.3713  -13.8541   16.6629 C   0  0  0  0  0  0  0  0  0  0  0  0
    7.1883  -13.6226   15.9878 C   0  0  0  0  0  0  0  0  0  0  0  0
    7.2527  -14.1261   14.7413 N   0  0  0  0  0  0  0  0  0  0  0  0
    8.4675  -14.6744   14.6226 C   0  0  0  0  0  0  0  0  0  0  0  0
    9.1517  -14.5217   15.7622 N   0  0  0  0  0  0  0  0  0  0  0  0
    9.3657  -14.3365   20.2385 C   0  0  0  0  0  0  0  0  0  0  0  0
   10.2778  -13.5306   20.4949 O   0  0  0  0  0  0  0  0  0  0  0  0
    8.6364  -14.8566   21.3453 N   0  0  0  0  0  0  0  0  0  0  0  0
    9.1180  -14.7109   22.6916 C   0  0  1  0  0  0  0  0  0  0  0  0
    8.0135  -14.3503   23.6424 C   0  0  0  0  0  0  0  0  0  0  0  0
    6.6414  -15.5187   23.3374 S   0  0  0  0  0  0  0  0  0  0  0  0
    9.8094  -15.9287   23.1822 C   0  0  0  0  0  0  0  0  0  0  0  0
    9.3843  -17.0977   22.9961 O   0  0  0  0  0  0  0  0  0  0  0  0
   11.0207  -15.7360   23.9010 N   0  0  0  0  0  0  0  0  0  0  0  0
   11.9428  -16.7863   24.2210 C   0  0  1  0  0  0  0  0  0  0  0  0
   13.3146  -16.4630   23.7667 C   0  0  0  0  0  0  0  0  0  0  0  0
   14.3841  -17.4434   24.0871 C   0  0  0  0  0  0  0  0  0  0  0  0
   15.6878  -16.9593   23.5874 C   0  0  0  0  0  0  0  0  0  0  0  0
   16.3329  -16.0741   24.1821 O   0  0  0  0  0  0  0  0  0  0  0  0
   11.8176  -17.2904   25.5989 C   0  0  0  0  0  0  0  0  0  0  0  0
   12.3653  -18.5249   25.9094 O   0  0  0  0  0  0  0  0  0  0  0  0
   16.1626  -17.5531   22.4021 O   0  0  0  0  0  0  0  0  0  0  0  0
   11.2405  -16.6608   26.5166 O   0  0  0  0  0  0  0  0  0  0  0  0
  2  1  1  1
  2  3  1  0
  3  4  1  0
  4  8  1  0
  4  5  2  0
  5  6  1  0
  7  6  1  0
  8  7  2  0
  9  2  1  0
  9 10  2  0
 11  9  1  0
 12 11  1  0
 12 13  1  1
 13 14  1  0
 15 12  1  0
 16 15  2  0
 17 15  1  0
 18 17  1  0
 18 23  1  0
 18 19  1  1
 20 19  1  0
 21 22  2  0
 21 20  1  0
 23 24  1  0
 25 21  1  0
 26 23  2  0
M  END
$$$$
