HCE.pdb
     RDKit          3D

 26 26  0  0  1  0  0  0  0  0999 V2000
    5.8736  -14.6295   20.6526 N   0  0  0  0  0  0  0  0  0  0  0  0
    6.7699  -15.6590   21.1380 C   0  0  1  0  0  0  0  0  0  0  0  0
    7.6722  -16.0479   19.9714 C   0  0  0  0  0  0  0  0  0  0  0  0
    7.8325  -14.8635   19.0913 C   0  0  0  0  0  0  0  0  0  0  0  0
    7.3698  -13.5825   19.3232 C   0  0  0  0  0  0  0  0  0  0  0  0
    7.7048  -12.7704   18.3036 N   0  0  0  0  0  0  0  0  0  0  0  0
    8.3760  -13.5279   17.4282 C   0  0  0  0  0  0  0  0  0  0  0  0
    8.4627  -14.7836   17.8820 N   0  0  0  0  0  0  0  0  0  0  0  0
    7.6052  -15.0764   22.2154 C   0  0  0  0  0  0  0  0  0  0  0  0
    8.4690  -14.2248   21.9403 O   0  0  0  0  0  0  0  0  0  0  0  0
    7.4759  -15.4429   23.5852 N   0  0  0  0  0  0  0  0  0  0  0  0
    8.4714  -15.0736   24.5540 C   0  0  1  0  0  0  0  0  0  0  0  0
    7.8803  -14.2878   25.6885 C   0  0  0  0  0  0  0  0  0  0  0  0
    6.1849  -14.9185   25.9507 S   0  0  0  0  0  0  0  0  0  0  0  0
    9.1983  -16.2477   25.0970 C   0  0  0  0  0  0  0  0  0  0  0  0
    8.6661  -17.3701   25.2949 O   0  0  0  0  0  0  0  0  0  0  0  0
   10.5750  -16.0679   25.4025 N   0  0  0  0  0  0  0  0  0  0  0  0
   11.4119  -17.0820   25.9743 C   0  0  1  0  0  0  0  0  0  0  0  0
   12.8158  -16.9467   25.5233 C   0  0  0  0  0  0  0  0  0  0  0  0
   13.0964  -17.2145   24.0890 C   0  0  0  0  0  0  0  0  0  0  0  0
   14.2583  -16.4206   23.6383 C   0  0  0  0  0  0  0  0  0  0  0  0
   14.9629  -15.7733   24.4372 O   0  0  0  0  0  0  0  0  0  0  0  0
   11.2109  -17.2759   27.4201 C   0  0  0  0  0  0  0  0  0  0  0  0
   10.3390  -16.4330   28.0908 O   0  0  0  0  0  0  0  0  0  0  0  0
   14.5272  -16.4349   22.2561 O   0  0  0  0  0  0  0  0  0  0  0  0
   11.7867  -18.1688   28.0855 O   0  0  0  0  0  0  0  0  0  0  0  0
  2  1  1  6
  2  3  1  0
  3  4  1  0
  4  8  1  0
  4  5  2  0
  5  6  1  0
  7  6  1  0
  8  7  2  0
  9  2  1  0
  9 10  2  0
 11  9  1  0
 12 11  1  0
 12 13  1  1
 13 14  1  0
 15 12  1  0
 16 15  2  0
 17 15  1  0
 18 17  1  0
 18 23  1  0
 18 19  1  1
 20 19  1  0
 21 22  2  0
 21 20  1  0
 23 24  1  0
 25 21  1  0
 26 23  2  0
M  END
$$$$
