HCE.pdb
     RDKit          3D

 26 26  0  0  1  0  0  0  0  0999 V2000
    9.4956  -15.1342   14.1114 N   0  0  0  0  0  0  0  0  0  0  0  0
    8.7977  -15.7127   15.2416 C   0  0  1  0  0  0  0  0  0  0  0  0
    9.2850  -17.1519   15.3746 C   0  0  0  0  0  0  0  0  0  0  0  0
    8.5836  -17.9772   14.3597 C   0  0  0  0  0  0  0  0  0  0  0  0
    8.1107  -19.2662   14.5140 C   0  0  0  0  0  0  0  0  0  0  0  0
    7.5282  -19.6918   13.3780 N   0  0  0  0  0  0  0  0  0  0  0  0
    7.6288  -18.6819   12.5059 C   0  0  0  0  0  0  0  0  0  0  0  0
    8.2574  -17.6469   13.0750 N   0  0  0  0  0  0  0  0  0  0  0  0
    9.1853  -14.9619   16.4597 C   0  0  0  0  0  0  0  0  0  0  0  0
   10.3856  -14.8535   16.7674 O   0  0  0  0  0  0  0  0  0  0  0  0
    8.2405  -14.3397   17.3244 N   0  0  0  0  0  0  0  0  0  0  0  0
    8.6079  -13.9093   18.6457 C   0  0  1  0  0  0  0  0  0  0  0  0
    7.4332  -13.3532   19.3972 C   0  0  0  0  0  0  0  0  0  0  0  0
    8.0405  -12.8546   21.0475 S   0  0  0  0  0  0  0  0  0  0  0  0
    9.2316  -14.9940   19.4433 C   0  0  0  0  0  0  0  0  0  0  0  0
    8.8129  -16.1800   19.4595 O   0  0  0  0  0  0  0  0  0  0  0  0
   10.3668  -14.6471   20.2254 N   0  0  0  0  0  0  0  0  0  0  0  0
   11.1520  -15.5900   20.9672 C   0  0  1  0  0  0  0  0  0  0  0  0
   12.5800  -15.5329   20.5794 C   0  0  0  0  0  0  0  0  0  0  0  0
   13.3092  -14.2691   20.8601 C   0  0  0  0  0  0  0  0  0  0  0  0
   14.7190  -14.3866   20.4332 C   0  0  0  0  0  0  0  0  0  0  0  0
   15.5830  -14.9208   21.1554 O   0  0  0  0  0  0  0  0  0  0  0  0
   10.8720  -15.5927   22.4129 C   0  0  0  0  0  0  0  0  0  0  0  0
   11.5003  -16.5347   23.2118 O   0  0  0  0  0  0  0  0  0  0  0  0
   15.0339  -13.8621   19.1648 O   0  0  0  0  0  0  0  0  0  0  0  0
   10.0921  -14.7835   22.9684 O   0  0  0  0  0  0  0  0  0  0  0  0
  2  1  1  6
  2  3  1  0
  3  4  1  0
  4  8  1  0
  4  5  2  0
  5  6  1  0
  7  6  1  0
  8  7  2  0
  9  2  1  0
  9 10  2  0
 11  9  1  0
 12 11  1  0
 12 13  1  1
 13 14  1  0
 15 12  1  0
 16 15  2  0
 17 15  1  0
 18 17  1  0
 18 23  1  0
 18 19  1  1
 20 19  1  0
 21 22  2  0
 21 20  1  0
 23 24  1  0
 25 21  1  0
 26 23  2  0
M  END
$$$$
