HCE.pdb
     RDKit          3D

 26 26  0  0  1  0  0  0  0  0999 V2000
    9.2720  -15.3708   20.6652 N   0  0  0  0  0  0  0  0  0  0  0  0
    8.2787  -15.7609   21.6451 C   0  0  1  0  0  0  0  0  0  0  0  0
    8.3043  -17.2840   21.7207 C   0  0  0  0  0  0  0  0  0  0  0  0
    7.6652  -17.8224   20.4939 C   0  0  0  0  0  0  0  0  0  0  0  0
    6.5311  -17.3452   19.8655 C   0  0  0  0  0  0  0  0  0  0  0  0
    6.2497  -18.0865   18.7781 N   0  0  0  0  0  0  0  0  0  0  0  0
    7.1972  -19.0292   18.7136 C   0  0  0  0  0  0  0  0  0  0  0  0
    8.0535  -18.8875   19.7319 N   0  0  0  0  0  0  0  0  0  0  0  0
    8.6834  -15.2097   22.9605 C   0  0  0  0  0  0  0  0  0  0  0  0
    9.8480  -15.3665   23.3682 O   0  0  0  0  0  0  0  0  0  0  0  0
    7.7950  -14.4917   23.8105 N   0  0  0  0  0  0  0  0  0  0  0  0
    8.1909  -14.0843   25.1308 C   0  0  1  0  0  0  0  0  0  0  0  0
    7.1819  -13.1651   25.7561 C   0  0  0  0  0  0  0  0  0  0  0  0
    7.8312  -12.6951   27.3989 S   0  0  0  0  0  0  0  0  0  0  0  0
    8.4293  -15.2377   26.0333 C   0  0  0  0  0  0  0  0  0  0  0  0
    7.5234  -16.0152   26.4295 O   0  0  0  0  0  0  0  0  0  0  0  0
    9.7677  -15.4552   26.4604 N   0  0  0  0  0  0  0  0  0  0  0  0
   10.1532  -16.4363   27.4323 C   0  0  1  0  0  0  0  0  0  0  0  0
   11.1260  -17.4027   26.8732 C   0  0  0  0  0  0  0  0  0  0  0  0
   10.7167  -18.1501   25.6561 C   0  0  0  0  0  0  0  0  0  0  0  0
   11.8090  -19.0405   25.2114 C   0  0  0  0  0  0  0  0  0  0  0  0
   12.9374  -19.0124   25.7400 O   0  0  0  0  0  0  0  0  0  0  0  0
   10.4848  -15.8712   28.7510 C   0  0  0  0  0  0  0  0  0  0  0  0
   10.7431  -16.7373   29.8015 O   0  0  0  0  0  0  0  0  0  0  0  0
   11.5058  -19.9235   24.1572 O   0  0  0  0  0  0  0  0  0  0  0  0
   10.5495  -14.6404   28.9803 O   0  0  0  0  0  0  0  0  0  0  0  0
  2  1  1  6
  2  3  1  0
  3  4  1  0
  4  8  1  0
  4  5  2  0
  5  6  1  0
  7  6  1  0
  8  7  2  0
  9  2  1  0
  9 10  2  0
 11  9  1  0
 12 11  1  0
 12 13  1  1
 13 14  1  0
 15 12  1  0
 16 15  2  0
 17 15  1  0
 18 17  1  0
 18 23  1  0
 18 19  1  6
 20 19  1  0
 21 22  2  0
 21 20  1  0
 23 24  1  0
 25 21  1  0
 26 23  2  0
M  END
$$$$
