HCE.pdb
     RDKit          3D

 26 26  0  0  1  0  0  0  0  0999 V2000
    6.9758  -15.9747   19.0380 N   0  0  0  0  0  0  0  0  0  0  0  0
    7.9778  -15.1524   19.6851 C   0  0  1  0  0  0  0  0  0  0  0  0
    7.7858  -13.7302   19.1685 C   0  0  0  0  0  0  0  0  0  0  0  0
    8.1537  -13.7030   17.7307 C   0  0  0  0  0  0  0  0  0  0  0  0
    7.4399  -13.1272   16.6974 C   0  0  0  0  0  0  0  0  0  0  0  0
    8.0841  -13.2999   15.5284 N   0  0  0  0  0  0  0  0  0  0  0  0
    9.2001  -13.9806   15.8142 C   0  0  0  0  0  0  0  0  0  0  0  0
    9.2595  -14.2311   17.1272 N   0  0  0  0  0  0  0  0  0  0  0  0
    7.7200  -15.1699   21.1449 C   0  0  0  0  0  0  0  0  0  0  0  0
    6.7140  -14.6015   21.6052 O   0  0  0  0  0  0  0  0  0  0  0  0
    8.5785  -15.8158   22.0794 N   0  0  0  0  0  0  0  0  0  0  0  0
    8.2060  -15.9589   23.4603 C   0  0  1  0  0  0  0  0  0  0  0  0
    6.8647  -16.6166   23.6102 C   0  0  0  0  0  0  0  0  0  0  0  0
    7.0776  -18.3756   23.1612 S   0  0  0  0  0  0  0  0  0  0  0  0
    9.2134  -16.7148   24.2448 C   0  0  0  0  0  0  0  0  0  0  0  0
    9.8641  -17.6913   23.7918 O   0  0  0  0  0  0  0  0  0  0  0  0
    9.4378  -16.2909   25.5830 N   0  0  0  0  0  0  0  0  0  0  0  0
   10.3721  -16.9096   26.4775 C   0  0  1  0  0  0  0  0  0  0  0  0
   10.5351  -16.1243   27.7223 C   0  0  0  0  0  0  0  0  0  0  0  0
    9.7309  -14.8815   27.8505 C   0  0  0  0  0  0  0  0  0  0  0  0
    9.9557  -14.2612   29.1727 C   0  0  0  0  0  0  0  0  0  0  0  0
   10.6803  -14.7945   30.0352 O   0  0  0  0  0  0  0  0  0  0  0  0
   10.1665  -18.3579   26.6464 C   0  0  0  0  0  0  0  0  0  0  0  0
   11.1705  -19.1094   27.2359 O   0  0  0  0  0  0  0  0  0  0  0  0
    9.3065  -13.0335   29.4058 O   0  0  0  0  0  0  0  0  0  0  0  0
    9.1252  -18.9559   26.2861 O   0  0  0  0  0  0  0  0  0  0  0  0
  2  1  1  6
  2  3  1  0
  3  4  1  0
  4  8  1  0
  4  5  2  0
  5  6  1  0
  7  6  1  0
  8  7  2  0
  9  2  1  0
  9 10  2  0
 11  9  1  0
 12 11  1  0
 12 13  1  6
 13 14  1  0
 15 12  1  0
 16 15  2  0
 17 15  1  0
 18 17  1  0
 18 23  1  0
 18 19  1  1
 20 19  1  0
 21 22  2  0
 21 20  1  0
 23 24  1  0
 25 21  1  0
 26 23  2  0
M  END
$$$$
