HCE.pdb
     RDKit          3D

 26 26  0  0  1  0  0  0  0  0999 V2000
   10.1015  -17.0944   17.3339 N   0  0  0  0  0  0  0  0  0  0  0  0
    9.7177  -17.6921   18.5966 C   0  0  1  0  0  0  0  0  0  0  0  0
   10.4425  -19.0307   18.6924 C   0  0  0  0  0  0  0  0  0  0  0  0
    9.8031  -19.9759   17.7433 C   0  0  0  0  0  0  0  0  0  0  0  0
   10.3230  -20.4405   16.5505 C   0  0  0  0  0  0  0  0  0  0  0  0
    9.4586  -21.2858   15.9591 N   0  0  0  0  0  0  0  0  0  0  0  0
    8.3958  -21.3596   16.7687 C   0  0  0  0  0  0  0  0  0  0  0  0
    8.5832  -20.5826   17.8417 N   0  0  0  0  0  0  0  0  0  0  0  0
   10.1932  -16.8113   19.6901 C   0  0  0  0  0  0  0  0  0  0  0  0
   11.3352  -16.3211   19.6412 O   0  0  0  0  0  0  0  0  0  0  0  0
    9.3999  -16.4830   20.8261 N   0  0  0  0  0  0  0  0  0  0  0  0
    9.9368  -15.7125   21.9142 C   0  0  1  0  0  0  0  0  0  0  0  0
    8.8759  -14.8995   22.5979 C   0  0  0  0  0  0  0  0  0  0  0  0
    7.6307  -16.0741   23.2387 S   0  0  0  0  0  0  0  0  0  0  0  0
   10.6319  -16.5555   22.9182 C   0  0  0  0  0  0  0  0  0  0  0  0
   10.3355  -17.7557   23.1499 O   0  0  0  0  0  0  0  0  0  0  0  0
   11.6908  -15.9480   23.6468 N   0  0  0  0  0  0  0  0  0  0  0  0
   12.4654  -16.6180   24.6503 C   0  0  1  0  0  0  0  0  0  0  0  0
   13.8789  -16.1769   24.6308 C   0  0  0  0  0  0  0  0  0  0  0  0
   14.6339  -16.3752   23.3665 C   0  0  0  0  0  0  0  0  0  0  0  0
   16.0140  -15.8669   23.5102 C   0  0  0  0  0  0  0  0  0  0  0  0
   16.4134  -15.3362   24.5648 O   0  0  0  0  0  0  0  0  0  0  0  0
   11.8180  -16.6628   25.9722 C   0  0  0  0  0  0  0  0  0  0  0  0
   12.4003  -17.4225   26.9742 O   0  0  0  0  0  0  0  0  0  0  0  0
   16.8545  -16.0150   22.3901 O   0  0  0  0  0  0  0  0  0  0  0  0
   10.7616  -16.0462   26.2468 O   0  0  0  0  0  0  0  0  0  0  0  0
  2  1  1  6
  2  3  1  0
  3  4  1  0
  4  8  1  0
  4  5  2  0
  5  6  1  0
  7  6  1  0
  8  7  2  0
  9  2  1  0
  9 10  2  0
 11  9  1  0
 12 11  1  0
 12 13  1  1
 13 14  1  0
 15 12  1  0
 16 15  2  0
 17 15  1  0
 18 17  1  0
 18 23  1  0
 18 19  1  1
 20 19  1  0
 21 22  2  0
 21 20  1  0
 23 24  1  0
 25 21  1  0
 26 23  2  0
M  END
$$$$
