HCE.pdb
     RDKit          3D

 26 26  0  0  1  0  0  0  0  0999 V2000
    9.2088  -12.5127   19.9176 N   0  0  0  0  0  0  0  0  0  0  0  0
    8.4949  -13.6325   20.4967 C   0  0  1  0  0  0  0  0  0  0  0  0
    8.9124  -14.8756   19.7178 C   0  0  0  0  0  0  0  0  0  0  0  0
    8.3417  -14.7825   18.3508 C   0  0  0  0  0  0  0  0  0  0  0  0
    7.6782  -13.7057   17.7948 C   0  0  0  0  0  0  0  0  0  0  0  0
    7.3044  -13.9853   16.5325 N   0  0  0  0  0  0  0  0  0  0  0  0
    7.7263  -15.2309   16.2855 C   0  0  0  0  0  0  0  0  0  0  0  0
    8.3494  -15.7247   17.3617 N   0  0  0  0  0  0  0  0  0  0  0  0
    8.9311  -13.7819   21.9057 C   0  0  0  0  0  0  0  0  0  0  0  0
   10.1243  -13.6051   22.2090 O   0  0  0  0  0  0  0  0  0  0  0  0
    8.0422  -14.1259   22.9636 N   0  0  0  0  0  0  0  0  0  0  0  0
    8.5185  -14.3185   24.3060 C   0  0  1  0  0  0  0  0  0  0  0  0
    7.6668  -13.5947   25.3085 C   0  0  0  0  0  0  0  0  0  0  0  0
    5.9583  -14.2115   25.1044 S   0  0  0  0  0  0  0  0  0  0  0  0
    8.6028  -15.7523   24.6784 C   0  0  0  0  0  0  0  0  0  0  0  0
    7.7315  -16.6068   24.3740 O   0  0  0  0  0  0  0  0  0  0  0  0
    9.7446  -16.1585   25.4216 N   0  0  0  0  0  0  0  0  0  0  0  0
    9.9947  -17.5068   25.8405 C   0  0  1  0  0  0  0  0  0  0  0  0
   11.2803  -18.0124   25.3071 C   0  0  0  0  0  0  0  0  0  0  0  0
   11.5259  -17.8395   23.8519 C   0  0  0  0  0  0  0  0  0  0  0  0
   12.9137  -18.2224   23.5187 C   0  0  0  0  0  0  0  0  0  0  0  0
   13.6995  -18.6634   24.3797 O   0  0  0  0  0  0  0  0  0  0  0  0
    9.7498  -17.7412   27.2734 C   0  0  0  0  0  0  0  0  0  0  0  0
    9.4533  -16.6577   28.0850 O   0  0  0  0  0  0  0  0  0  0  0  0
   13.3007  -18.0623   22.1742 O   0  0  0  0  0  0  0  0  0  0  0  0
    9.7925  -18.8750   27.8066 O   0  0  0  0  0  0  0  0  0  0  0  0
  2  1  1  6
  2  3  1  0
  3  4  1  0
  4  8  1  0
  4  5  2  0
  5  6  1  0
  7  6  1  0
  8  7  2  0
  9  2  1  0
  9 10  2  0
 11  9  1  0
 12 11  1  0
 12 13  1  1
 13 14  1  0
 15 12  1  0
 16 15  2  0
 17 15  1  0
 18 17  1  0
 18 23  1  0
 18 19  1  1
 20 19  1  0
 21 22  2  0
 21 20  1  0
 23 24  1  0
 25 21  1  0
 26 23  2  0
M  END
$$$$
