HCE.pdb
     RDKit          3D

 26 26  0  0  1  0  0  0  0  0999 V2000
   10.0920  -15.7908   14.6918 N   0  0  0  0  0  0  0  0  0  0  0  0
    9.4329  -16.3246   15.8664 C   0  0  1  0  0  0  0  0  0  0  0  0
    9.9078  -17.7653   16.0252 C   0  0  0  0  0  0  0  0  0  0  0  0
    9.1479  -18.6141   15.0737 C   0  0  0  0  0  0  0  0  0  0  0  0
    7.7752  -18.7400   14.9803 C   0  0  0  0  0  0  0  0  0  0  0  0
    7.4484  -19.5998   13.9978 N   0  0  0  0  0  0  0  0  0  0  0  0
    8.6039  -20.0188   13.4688 C   0  0  0  0  0  0  0  0  0  0  0  0
    9.6323  -19.4400   14.0994 N   0  0  0  0  0  0  0  0  0  0  0  0
    9.8780  -15.5416   17.0440 C   0  0  0  0  0  0  0  0  0  0  0  0
   11.0919  -15.4146   17.2831 O   0  0  0  0  0  0  0  0  0  0  0  0
    8.9748  -14.9083   17.9443 N   0  0  0  0  0  0  0  0  0  0  0  0
    9.4394  -14.2884   19.1550 C   0  0  1  0  0  0  0  0  0  0  0  0
    8.3359  -13.5613   19.8676 C   0  0  0  0  0  0  0  0  0  0  0  0
    7.6034  -12.3921   18.6687 S   0  0  0  0  0  0  0  0  0  0  0  0
   10.0678  -15.2589   20.0850 C   0  0  0  0  0  0  0  0  0  0  0  0
    9.5939  -16.3972   20.3337 O   0  0  0  0  0  0  0  0  0  0  0  0
   11.2747  -14.8550   20.7184 N   0  0  0  0  0  0  0  0  0  0  0  0
   12.2625  -15.7639   21.2225 C   0  0  1  0  0  0  0  0  0  0  0  0
   12.6591  -16.7584   20.1995 C   0  0  0  0  0  0  0  0  0  0  0  0
   13.7107  -17.7377   20.5772 C   0  0  0  0  0  0  0  0  0  0  0  0
   13.9933  -18.6460   19.4465 C   0  0  0  0  0  0  0  0  0  0  0  0
   13.3011  -18.6418   18.4100 O   0  0  0  0  0  0  0  0  0  0  0  0
   13.3620  -15.1068   21.9490 C   0  0  0  0  0  0  0  0  0  0  0  0
   13.4118  -13.7221   21.9722 O   0  0  0  0  0  0  0  0  0  0  0  0
   15.0884  -19.5174   19.6032 O   0  0  0  0  0  0  0  0  0  0  0  0
   14.2631  -15.7332   22.5550 O   0  0  0  0  0  0  0  0  0  0  0  0
  2  1  1  6
  2  3  1  0
  3  4  1  0
  4  8  1  0
  4  5  2  0
  5  6  1  0
  7  6  1  0
  8  7  2  0
  9  2  1  0
  9 10  2  0
 11  9  1  0
 12 11  1  0
 12 13  1  1
 13 14  1  0
 15 12  1  0
 16 15  2  0
 17 15  1  0
 18 17  1  0
 18 23  1  0
 18 19  1  6
 20 19  1  0
 21 22  2  0
 21 20  1  0
 23 24  1  0
 25 21  1  0
 26 23  2  0
M  END
$$$$
