HCE.pdb
     RDKit          3D

 26 26  0  0  1  0  0  0  0  0999 V2000
    7.0486  -14.9864   20.8534 N   0  0  0  0  0  0  0  0  0  0  0  0
    8.4836  -14.8878   21.0265 C   0  0  1  0  0  0  0  0  0  0  0  0
    8.9559  -13.7235   20.1618 C   0  0  0  0  0  0  0  0  0  0  0  0
    8.4649  -13.9415   18.7782 C   0  0  0  0  0  0  0  0  0  0  0  0
    7.7015  -14.9980   18.3201 C   0  0  0  0  0  0  0  0  0  0  0  0
    7.4458  -14.8577   17.0063 N   0  0  0  0  0  0  0  0  0  0  0  0
    8.0416  -13.7203   16.6294 C   0  0  0  0  0  0  0  0  0  0  0  0
    8.6567  -13.1576   17.6760 N   0  0  0  0  0  0  0  0  0  0  0  0
    8.7584  -14.5701   22.4483 C   0  0  0  0  0  0  0  0  0  0  0  0
    9.9286  -14.3928   22.8305 O   0  0  0  0  0  0  0  0  0  0  0  0
    7.7353  -14.4526   23.4316 N   0  0  0  0  0  0  0  0  0  0  0  0
    8.0063  -14.6902   24.8231 C   0  0  1  0  0  0  0  0  0  0  0  0
    6.8685  -14.2459   25.6960 C   0  0  0  0  0  0  0  0  0  0  0  0
    6.7608  -12.4270   25.5512 S   0  0  0  0  0  0  0  0  0  0  0  0
    8.3151  -16.1136   25.1064 C   0  0  0  0  0  0  0  0  0  0  0  0
    7.9008  -17.0725   24.4057 O   0  0  0  0  0  0  0  0  0  0  0  0
    9.1285  -16.3825   26.2409 N   0  0  0  0  0  0  0  0  0  0  0  0
   10.0595  -17.4698   26.3244 C   0  0  1  0  0  0  0  0  0  0  0  0
   10.9234  -17.5395   25.1238 C   0  0  0  0  0  0  0  0  0  0  0  0
   11.9615  -18.6022   25.0958 C   0  0  0  0  0  0  0  0  0  0  0  0
   12.7385  -18.5250   23.8413 C   0  0  0  0  0  0  0  0  0  0  0  0
   13.4315  -17.5289   23.5566 O   0  0  0  0  0  0  0  0  0  0  0  0
   10.7452  -17.5693   27.6238 C   0  0  0  0  0  0  0  0  0  0  0  0
   11.3651  -18.7619   27.9607 O   0  0  0  0  0  0  0  0  0  0  0  0
   12.6540  -19.6390   22.9840 O   0  0  0  0  0  0  0  0  0  0  0  0
   10.8027  -16.6281   28.4499 O   0  0  0  0  0  0  0  0  0  0  0  0
  2  1  1  1
  2  3  1  0
  3  4  1  0
  4  8  1  0
  4  5  2  0
  5  6  1  0
  7  6  1  0
  8  7  2  0
  9  2  1  0
  9 10  2  0
 11  9  1  0
 12 11  1  0
 12 13  1  1
 13 14  1  0
 15 12  1  0
 16 15  2  0
 17 15  1  0
 18 17  1  0
 18 23  1  0
 18 19  1  6
 20 19  1  0
 21 22  2  0
 21 20  1  0
 23 24  1  0
 25 21  1  0
 26 23  2  0
M  END
$$$$
