HCE.pdb
     RDKit          3D

 26 26  0  0  1  0  0  0  0  0999 V2000
    7.6795  -12.7778   20.4373 N   0  0  0  0  0  0  0  0  0  0  0  0
    7.7533  -14.1089   21.0044 C   0  0  1  0  0  0  0  0  0  0  0  0
    8.8349  -14.8598   20.2346 C   0  0  0  0  0  0  0  0  0  0  0  0
    8.3963  -14.9906   18.8226 C   0  0  0  0  0  0  0  0  0  0  0  0
    8.8474  -14.2635   17.7378 C   0  0  0  0  0  0  0  0  0  0  0  0
    8.2218  -14.6599   16.6140 N   0  0  0  0  0  0  0  0  0  0  0  0
    7.3783  -15.6322   16.9795 C   0  0  0  0  0  0  0  0  0  0  0  0
    7.4683  -15.8445   18.2975 N   0  0  0  0  0  0  0  0  0  0  0  0
    8.1720  -13.9868   22.4213 C   0  0  0  0  0  0  0  0  0  0  0  0
    9.3451  -14.2412   22.7468 O   0  0  0  0  0  0  0  0  0  0  0  0
    7.2878  -13.5851   23.4626 N   0  0  0  0  0  0  0  0  0  0  0  0
    7.6848  -13.6425   24.8428 C   0  0  1  0  0  0  0  0  0  0  0  0
    6.7405  -12.8798   25.7263 C   0  0  0  0  0  0  0  0  0  0  0  0
    7.4705  -12.8626   27.4020 S   0  0  0  0  0  0  0  0  0  0  0  0
    7.8064  -15.0348   25.3413 C   0  0  0  0  0  0  0  0  0  0  0  0
    7.0878  -15.9865   24.9413 O   0  0  0  0  0  0  0  0  0  0  0  0
    8.8004  -15.2812   26.3272 N   0  0  0  0  0  0  0  0  0  0  0  0
    9.3343  -16.5781   26.6256 C   0  0  1  0  0  0  0  0  0  0  0  0
    9.9826  -17.1850   25.4406 C   0  0  0  0  0  0  0  0  0  0  0  0
   10.5923  -18.5288   25.6147 C   0  0  0  0  0  0  0  0  0  0  0  0
   11.1724  -18.9963   24.3386 C   0  0  0  0  0  0  0  0  0  0  0  0
   10.6527  -19.9161   23.6773 O   0  0  0  0  0  0  0  0  0  0  0  0
   10.0988  -16.6335   27.8829 C   0  0  0  0  0  0  0  0  0  0  0  0
   10.6472  -15.4627   28.3817 O   0  0  0  0  0  0  0  0  0  0  0  0
   12.3450  -18.3455   23.9093 O   0  0  0  0  0  0  0  0  0  0  0  0
   10.2824  -17.6880   28.5355 O   0  0  0  0  0  0  0  0  0  0  0  0
  2  1  1  6
  2  3  1  0
  3  4  1  0
  4  8  1  0
  4  5  2  0
  5  6  1  0
  7  6  1  0
  8  7  2  0
  9  2  1  0
  9 10  2  0
 11  9  1  0
 12 11  1  0
 12 13  1  1
 13 14  1  0
 15 12  1  0
 16 15  2  0
 17 15  1  0
 18 17  1  0
 18 23  1  0
 18 19  1  6
 20 19  1  0
 21 22  2  0
 21 20  1  0
 23 24  1  0
 25 21  1  0
 26 23  2  0
M  END
$$$$
