AVE.pdb
     RDKit          3D

 22 21  0  0  1  0  0  0  0  0999 V2000
   27.5643  -18.4032  -15.7817 C   0  0  0  0  0  0  0  0  0  0  0  0
   28.1148  -19.6625  -15.1524 C   0  0  2  0  0  0  0  0  0  0  0  0
   28.7932  -20.4151  -16.1838 N   0  0  0  0  0  0  0  0  0  0  0  0
   27.0128  -20.4436  -14.5815 C   0  0  0  0  0  0  0  0  0  0  0  0
   26.3300  -21.2088  -15.3129 O   0  0  0  0  0  0  0  0  0  0  0  0
   25.7374  -19.6575  -10.5639 C   0  0  0  0  0  0  0  0  0  0  0  0
   25.7991  -21.0584  -11.0970 C   0  0  1  0  0  0  0  0  0  0  0  0
   24.6590  -21.8553  -10.4596 C   0  0  0  0  0  0  0  0  0  0  0  0
   25.5924  -21.0935  -12.5826 C   0  0  2  0  0  0  0  0  0  0  0  0
   26.6762  -20.3735  -13.2157 N   0  0  0  0  0  0  0  0  0  0  0  0
   24.2724  -20.6049  -12.9531 C   0  0  0  0  0  0  0  0  0  0  0  0
   24.0050  -19.3848  -12.9630 O   0  0  0  0  0  0  0  0  0  0  0  0
   23.2551  -21.5127  -13.3130 N   0  0  0  0  0  0  0  0  0  0  0  0
   21.9355  -21.0133  -13.6792 C   0  0  1  0  0  0  0  0  0  0  0  0
   21.5470  -21.5999  -14.9986 C   0  0  0  0  0  0  0  0  0  0  0  0
   20.1823  -21.2744  -15.4891 C   0  0  0  0  0  0  0  0  0  0  0  0
   20.1457  -20.0672  -16.3354 C   0  0  0  0  0  0  0  0  0  0  0  0
   20.8022  -20.0620  -17.4083 O   0  0  0  0  0  0  0  0  0  0  0  0
   20.9448  -21.2964  -12.6184 C   0  0  0  0  0  0  0  0  0  0  0  0
   19.9180  -20.4009  -12.3989 O   0  0  0  0  0  0  0  0  0  0  0  0
   19.4318  -18.9271  -16.0260 O   0  0  0  0  0  0  0  0  0  0  0  0
   21.0006  -22.3250  -11.9036 O   0  0  0  0  0  0  0  0  0  0  0  0
  2  1  1  6
  2  3  1  0
  4  2  1  0
  5  4  2  0
  7  6  1  1
  7  9  1  0
  8  7  1  0
  9 10  1  6
  9 11  1  0
 10  4  1  0
 11 12  2  0
 13 11  1  0
 13 14  1  0
 14 15  1  6
 16 15  1  0
 17 21  1  0
 17 16  1  0
 18 17  2  0
 19 20  1  0
 19 14  1  0
 22 19  2  0
M  END
$$$$
