AVE.pdb
     RDKit          3D

 22 21  0  0  1  0  0  0  0  0999 V2000
   18.5342  -10.5161  -19.4970 C   0  0  0  0  0  0  0  0  0  0  0  0
   19.3025  -11.4771  -18.6187 C   0  0  2  0  0  0  0  0  0  0  0  0
   18.4492  -12.6128  -18.3496 N   0  0  0  0  0  0  0  0  0  0  0  0
   19.6770  -10.8037  -17.3711 C   0  0  0  0  0  0  0  0  0  0  0  0
   18.7952  -10.4911  -16.5276 O   0  0  0  0  0  0  0  0  0  0  0  0
   23.8016  -10.5944  -16.3577 C   0  0  0  0  0  0  0  0  0  0  0  0
   22.6823  -10.6831  -15.3628 C   0  0  1  0  0  0  0  0  0  0  0  0
   23.1614  -10.0449  -14.0572 C   0  0  0  0  0  0  0  0  0  0  0  0
   21.4763   -9.9159  -15.8186 C   0  0  2  0  0  0  0  0  0  0  0  0
   21.0143  -10.4830  -17.0672 N   0  0  0  0  0  0  0  0  0  0  0  0
   21.7439   -8.4871  -15.8903 C   0  0  0  0  0  0  0  0  0  0  0  0
   22.4357   -7.9959  -16.8071 O   0  0  0  0  0  0  0  0  0  0  0  0
   21.2200   -7.6172  -14.9120 N   0  0  0  0  0  0  0  0  0  0  0  0
   21.5387   -6.1956  -14.9619 C   0  0  1  0  0  0  0  0  0  0  0  0
   20.3247   -5.4447  -15.4071 C   0  0  0  0  0  0  0  0  0  0  0  0
   20.4320   -3.9623  -15.4153 C   0  0  0  0  0  0  0  0  0  0  0  0
   19.1961   -3.2965  -15.8669 C   0  0  0  0  0  0  0  0  0  0  0  0
   18.2308   -4.0084  -16.2458 O   0  0  0  0  0  0  0  0  0  0  0  0
   22.0555   -5.7188  -13.6609 C   0  0  0  0  0  0  0  0  0  0  0  0
   21.7905   -6.4507  -12.5214 O   0  0  0  0  0  0  0  0  0  0  0  0
   19.0242   -1.9275  -15.9040 O   0  0  0  0  0  0  0  0  0  0  0  0
   22.7297   -4.6675  -13.5498 O   0  0  0  0  0  0  0  0  0  0  0  0
  2  1  1  6
  2  3  1  0
  4  2  1  0
  5  4  2  0
  7  6  1  6
  7  9  1  0
  8  7  1  0
  9 10  1  6
  9 11  1  0
 10  4  1  0
 11 12  2  0
 13 11  1  0
 13 14  1  0
 14 15  1  1
 16 15  1  0
 17 21  1  0
 17 16  1  0
 18 17  2  0
 19 20  1  0
 19 14  1  0
 22 19  2  0
M  END
$$$$
