AVE.pdb
     RDKit          3D

 22 21  0  0  1  0  0  0  0  0999 V2000
   21.1676  -10.3639  -21.0539 C   0  0  0  0  0  0  0  0  0  0  0  0
   21.8010  -11.1330  -19.9171 C   0  0  2  0  0  0  0  0  0  0  0  0
   21.2868  -12.4838  -19.9532 N   0  0  0  0  0  0  0  0  0  0  0  0
   21.4663  -10.4854  -18.6448 C   0  0  0  0  0  0  0  0  0  0  0  0
   20.2875  -10.1054  -18.4153 O   0  0  0  0  0  0  0  0  0  0  0  0
   24.2724  -10.8512  -15.5555 C   0  0  0  0  0  0  0  0  0  0  0  0
   22.7941  -10.7415  -15.3256 C   0  0  1  0  0  0  0  0  0  0  0  0
   22.5770  -10.1651  -13.9249 C   0  0  0  0  0  0  0  0  0  0  0  0
   22.1519   -9.7993  -16.3006 C   0  0  2  0  0  0  0  0  0  0  0  0
   22.4306  -10.2643  -17.6423 N   0  0  0  0  0  0  0  0  0  0  0  0
   22.5585   -8.4219  -16.0642 C   0  0  0  0  0  0  0  0  0  0  0  0
   23.6817   -8.0017  -16.4141 O   0  0  0  0  0  0  0  0  0  0  0  0
   21.6798   -7.5224  -15.4262 N   0  0  0  0  0  0  0  0  0  0  0  0
   22.1223   -6.1653  -15.1302 C   0  0  1  0  0  0  0  0  0  0  0  0
   21.4777   -5.2260  -16.0988 C   0  0  0  0  0  0  0  0  0  0  0  0
   21.7538   -3.7794  -15.8981 C   0  0  0  0  0  0  0  0  0  0  0  0
   21.0736   -2.9197  -16.8845 C   0  0  0  0  0  0  0  0  0  0  0  0
   20.4708   -3.4635  -17.8453 O   0  0  0  0  0  0  0  0  0  0  0  0
   21.8434   -5.8085  -13.7224 C   0  0  0  0  0  0  0  0  0  0  0  0
   22.5051   -4.7389  -13.1545 O   0  0  0  0  0  0  0  0  0  0  0  0
   21.0538   -1.5408  -16.8254 O   0  0  0  0  0  0  0  0  0  0  0  0
   21.0241   -6.4440  -13.0174 O   0  0  0  0  0  0  0  0  0  0  0  0
  2  1  1  6
  2  3  1  0
  4  2  1  0
  5  4  2  0
  7  6  1  6
  7  9  1  0
  8  7  1  0
  9 10  1  6
  9 11  1  0
 10  4  1  0
 11 12  2  0
 13 11  1  0
 13 14  1  0
 14 15  1  6
 16 15  1  0
 17 21  1  0
 17 16  1  0
 18 17  2  0
 19 20  1  0
 19 14  1  0
 22 19  2  0
M  END
$$$$
