AVE.pdb
     RDKit          3D

 22 21  0  0  1  0  0  0  0  0999 V2000
   18.5549  -10.9401  -18.7043 C   0  0  0  0  0  0  0  0  0  0  0  0
   19.6884  -11.5461  -17.9087 C   0  0  2  0  0  0  0  0  0  0  0  0
   19.2647  -12.8517  -17.4547 N   0  0  0  0  0  0  0  0  0  0  0  0
   20.0020  -10.6783  -16.7690 C   0  0  0  0  0  0  0  0  0  0  0  0
   19.1588  -10.5071  -15.8490 O   0  0  0  0  0  0  0  0  0  0  0  0
   22.8807  -11.3183  -14.7200 C   0  0  0  0  0  0  0  0  0  0  0  0
   23.0023   -9.8593  -15.0469 C   0  0  1  0  0  0  0  0  0  0  0  0
   23.9806   -9.7185  -16.2149 C   0  0  0  0  0  0  0  0  0  0  0  0
   21.6907   -9.2817  -15.4908 C   0  0  2  0  0  0  0  0  0  0  0  0
   21.2370  -10.0107  -16.6556 N   0  0  0  0  0  0  0  0  0  0  0  0
   21.7800   -7.8442  -15.7003 C   0  0  0  0  0  0  0  0  0  0  0  0
   22.1692   -7.3639  -16.7858 O   0  0  0  0  0  0  0  0  0  0  0  0
   21.4240   -6.9532  -14.6670 N   0  0  0  0  0  0  0  0  0  0  0  0
   21.5311   -5.5154  -14.8821 C   0  0  1  0  0  0  0  0  0  0  0  0
   20.1549   -4.9385  -14.9783 C   0  0  0  0  0  0  0  0  0  0  0  0
   19.3996   -5.2379  -16.2228 C   0  0  0  0  0  0  0  0  0  0  0  0
   18.0863   -4.5689  -16.2761 C   0  0  0  0  0  0  0  0  0  0  0  0
   17.0985   -5.1350  -15.7413 O   0  0  0  0  0  0  0  0  0  0  0  0
   22.3415   -4.8765  -13.8228 C   0  0  0  0  0  0  0  0  0  0  0  0
   22.7820   -3.5808  -14.0005 O   0  0  0  0  0  0  0  0  0  0  0  0
   17.8638   -3.3487  -16.8817 O   0  0  0  0  0  0  0  0  0  0  0  0
   22.6482   -5.4693  -12.7614 O   0  0  0  0  0  0  0  0  0  0  0  0
  2  1  1  1
  2  3  1  0
  4  2  1  0
  5  4  2  0
  7  6  1  6
  7  9  1  0
  8  7  1  0
  9 10  1  6
  9 11  1  0
 10  4  1  0
 11 12  2  0
 13 11  1  0
 13 14  1  0
 14 15  1  1
 16 15  1  0
 17 21  1  0
 17 16  1  0
 18 17  2  0
 19 20  1  0
 19 14  1  0
 22 19  2  0
M  END
$$$$
