AVE.pdb
     RDKit          3D

 22 21  0  0  1  0  0  0  0  0999 V2000
   18.3293  -11.1831  -17.9357 C   0  0  0  0  0  0  0  0  0  0  0  0
   19.5274  -11.9287  -17.3937 C   0  0  2  0  0  0  0  0  0  0  0  0
   19.0664  -13.2013  -16.8854 N   0  0  0  0  0  0  0  0  0  0  0  0
   20.1502  -11.1396  -16.3262 C   0  0  0  0  0  0  0  0  0  0  0  0
   19.6049  -11.0597  -15.1935 O   0  0  0  0  0  0  0  0  0  0  0  0
   23.5310  -11.5245  -15.0032 C   0  0  0  0  0  0  0  0  0  0  0  0
   23.4461  -10.0800  -15.3990 C   0  0  1  0  0  0  0  0  0  0  0  0
   24.0979   -9.9299  -16.7752 C   0  0  0  0  0  0  0  0  0  0  0  0
   22.0222   -9.6253  -15.5273 C   0  0  2  0  0  0  0  0  0  0  0  0
   21.3629  -10.4493  -16.5173 N   0  0  0  0  0  0  0  0  0  0  0  0
   21.9365   -8.1990  -15.8044 C   0  0  0  0  0  0  0  0  0  0  0  0
   21.9989   -7.7538  -16.9698 O   0  0  0  0  0  0  0  0  0  0  0  0
   21.7792   -7.2791  -14.7473 N   0  0  0  0  0  0  0  0  0  0  0  0
   21.7145   -5.8513  -15.0339 C   0  0  1  0  0  0  0  0  0  0  0  0
   20.2979   -5.4851  -15.3424 C   0  0  0  0  0  0  0  0  0  0  0  0
   20.0197   -4.0395  -15.5466 C   0  0  0  0  0  0  0  0  0  0  0  0
   18.5896   -3.7518  -15.7629 C   0  0  0  0  0  0  0  0  0  0  0  0
   17.8075   -4.7118  -15.9844 O   0  0  0  0  0  0  0  0  0  0  0  0
   22.2760   -5.0576  -13.9194 C   0  0  0  0  0  0  0  0  0  0  0  0
   22.7101   -3.7702  -14.1607 O   0  0  0  0  0  0  0  0  0  0  0  0
   18.0434   -2.4844  -15.7397 O   0  0  0  0  0  0  0  0  0  0  0  0
   22.3754   -5.5109  -12.7546 O   0  0  0  0  0  0  0  0  0  0  0  0
  2  1  1  1
  2  3  1  0
  4  2  1  0
  5  4  2  0
  7  6  1  6
  7  9  1  0
  8  7  1  0
  9 10  1  6
  9 11  1  0
 10  4  1  0
 11 12  2  0
 13 11  1  0
 13 14  1  0
 14 15  1  1
 16 15  1  0
 17 21  1  0
 17 16  1  0
 18 17  2  0
 19 20  1  0
 19 14  1  0
 22 19  2  0
M  END
$$$$
