AVE.pdb
     RDKit          3D

 22 21  0  0  1  0  0  0  0  0999 V2000
   20.0197  -10.3829  -20.0554 C   0  0  0  0  0  0  0  0  0  0  0  0
   20.8003  -11.2202  -19.0682 C   0  0  2  0  0  0  0  0  0  0  0  0
   20.2450  -12.5551  -19.0804 N   0  0  0  0  0  0  0  0  0  0  0  0
   20.6910  -10.6261  -17.7320 C   0  0  0  0  0  0  0  0  0  0  0  0
   19.5606  -10.4518  -17.2040 O   0  0  0  0  0  0  0  0  0  0  0  0
   21.7209  -11.9273  -14.7413 C   0  0  0  0  0  0  0  0  0  0  0  0
   22.4069  -10.5938  -14.7017 C   0  0  1  0  0  0  0  0  0  0  0  0
   23.8652  -10.8021  -15.1155 C   0  0  0  0  0  0  0  0  0  0  0  0
   21.7988   -9.6308  -15.6783 C   0  0  2  0  0  0  0  0  0  0  0  0
   21.8241  -10.2318  -16.9944 N   0  0  0  0  0  0  0  0  0  0  0  0
   22.4433   -8.3271  -15.6196 C   0  0  0  0  0  0  0  0  0  0  0  0
   23.3805   -8.0251  -16.3884 O   0  0  0  0  0  0  0  0  0  0  0  0
   22.0163   -7.3662  -14.6802 N   0  0  0  0  0  0  0  0  0  0  0  0
   22.6571   -6.0574  -14.6411 C   0  0  1  0  0  0  0  0  0  0  0  0
   22.4382   -5.3740  -15.9529 C   0  0  0  0  0  0  0  0  0  0  0  0
   21.1234   -4.7060  -16.1374 C   0  0  0  0  0  0  0  0  0  0  0  0
   20.9817   -4.0653  -17.4581 C   0  0  0  0  0  0  0  0  0  0  0  0
   19.9585   -4.3179  -18.1449 O   0  0  0  0  0  0  0  0  0  0  0  0
   22.1688   -5.2585  -13.4964 C   0  0  0  0  0  0  0  0  0  0  0  0
   22.8512   -4.1157  -13.1322 O   0  0  0  0  0  0  0  0  0  0  0  0
   21.9077   -3.1970  -18.0000 O   0  0  0  0  0  0  0  0  0  0  0  0
   21.1519   -5.5802  -12.8371 O   0  0  0  0  0  0  0  0  0  0  0  0
  2  1  1  6
  2  3  1  0
  4  2  1  0
  5  4  2  0
  7  6  1  6
  7  9  1  0
  8  7  1  0
  9 10  1  6
  9 11  1  0
 10  4  1  0
 11 12  2  0
 13 11  1  0
 13 14  1  0
 14 15  1  6
 16 15  1  0
 17 21  1  0
 17 16  1  0
 18 17  2  0
 19 20  1  0
 19 14  1  0
 22 19  2  0
M  END
$$$$
