AVE.pdb
     RDKit          3D

 22 21  0  0  1  0  0  0  0  0999 V2000
   27.4987  -19.4394  -16.0079 C   0  0  0  0  0  0  0  0  0  0  0  0
   27.8374  -20.5480  -15.0377 C   0  0  2  0  0  0  0  0  0  0  0  0
   28.5122  -21.5930  -15.7746 N   0  0  0  0  0  0  0  0  0  0  0  0
   26.6040  -21.0569  -14.4296 C   0  0  0  0  0  0  0  0  0  0  0  0
   25.9176  -21.9323  -15.0208 O   0  0  0  0  0  0  0  0  0  0  0  0
   26.5455  -21.5901  -10.6289 C   0  0  0  0  0  0  0  0  0  0  0  0
   25.2207  -20.9977  -11.0088 C   0  0  1  0  0  0  0  0  0  0  0  0
   25.2499  -19.5104  -10.6503 C   0  0  0  0  0  0  0  0  0  0  0  0
   24.9748  -21.0963  -12.4854 C   0  0  2  0  0  0  0  0  0  0  0  0
   26.1415  -20.5976  -13.1811 N   0  0  0  0  0  0  0  0  0  0  0  0
   23.7380  -20.4321  -12.8697 C   0  0  0  0  0  0  0  0  0  0  0  0
   23.6841  -19.1956  -13.0380 O   0  0  0  0  0  0  0  0  0  0  0  0
   22.5598  -21.1826  -13.0621 N   0  0  0  0  0  0  0  0  0  0  0  0
   21.3279  -20.5086  -13.4534 C   0  0  1  0  0  0  0  0  0  0  0  0
   20.6225  -21.3462  -14.4716 C   0  0  0  0  0  0  0  0  0  0  0  0
   19.2780  -20.8757  -14.8959 C   0  0  0  0  0  0  0  0  0  0  0  0
   18.6422  -21.7632  -15.8873 C   0  0  0  0  0  0  0  0  0  0  0  0
   19.2426  -22.8144  -16.2292 O   0  0  0  0  0  0  0  0  0  0  0  0
   20.4830  -20.2155  -12.2756 C   0  0  0  0  0  0  0  0  0  0  0  0
   20.5867  -21.0156  -11.1560 O   0  0  0  0  0  0  0  0  0  0  0  0
   17.4178  -21.5155  -16.4744 O   0  0  0  0  0  0  0  0  0  0  0  0
   19.6689  -19.2622  -12.2527 O   0  0  0  0  0  0  0  0  0  0  0  0
  2  1  1  6
  2  3  1  0
  4  2  1  0
  5  4  2  0
  7  6  1  6
  7  9  1  0
  8  7  1  0
  9 10  1  6
  9 11  1  0
 10  4  1  0
 11 12  2  0
 13 11  1  0
 13 14  1  0
 14 15  1  6
 16 15  1  0
 17 21  1  0
 17 16  1  0
 18 17  2  0
 19 20  1  0
 19 14  1  0
 22 19  2  0
M  END
$$$$
