AVE.pdb
     RDKit          3D

 22 21  0  0  1  0  0  0  0  0999 V2000
   18.0863  -14.8477  -14.6667 C   0  0  0  0  0  0  0  0  0  0  0  0
   17.3603  -14.4926  -15.9441 C   0  0  2  0  0  0  0  0  0  0  0  0
   17.4960  -15.6056  -16.8569 N   0  0  0  0  0  0  0  0  0  0  0  0
   17.9489  -13.2780  -16.5174 C   0  0  0  0  0  0  0  0  0  0  0  0
   19.0722  -13.3229  -17.0858 O   0  0  0  0  0  0  0  0  0  0  0  0
   16.9801  -11.2981  -19.1925 C   0  0  0  0  0  0  0  0  0  0  0  0
   17.0161  -10.2930  -18.0794 C   0  0  1  0  0  0  0  0  0  0  0  0
   15.5864  -10.1066  -17.5672 C   0  0  0  0  0  0  0  0  0  0  0  0
   17.8443  -10.7764  -16.9256 C   0  0  2  0  0  0  0  0  0  0  0  0
   17.2960  -12.0315  -16.4587 N   0  0  0  0  0  0  0  0  0  0  0  0
   17.9571   -9.7656  -15.8844 C   0  0  0  0  0  0  0  0  0  0  0  0
   17.1898   -9.7528  -14.8988 O   0  0  0  0  0  0  0  0  0  0  0  0
   18.9487   -8.7668  -15.9697 N   0  0  0  0  0  0  0  0  0  0  0  0
   19.0480   -7.7542  -14.9258 C   0  0  1  0  0  0  0  0  0  0  0  0
   20.4468   -7.2264  -14.8974 C   0  0  0  0  0  0  0  0  0  0  0  0
   20.6979   -6.0714  -13.9963 C   0  0  0  0  0  0  0  0  0  0  0  0
   22.1181   -5.6775  -13.9448 C   0  0  0  0  0  0  0  0  0  0  0  0
   22.9964   -6.5625  -14.1116 O   0  0  0  0  0  0  0  0  0  0  0  0
   18.0426   -6.6872  -15.1203 C   0  0  0  0  0  0  0  0  0  0  0  0
   17.5619   -6.0057  -14.0209 O   0  0  0  0  0  0  0  0  0  0  0  0
   22.5554   -4.3874  -13.7221 O   0  0  0  0  0  0  0  0  0  0  0  0
   17.6048   -6.3745  -16.2529 O   0  0  0  0  0  0  0  0  0  0  0  0
  2  1  1  1
  2  3  1  0
  4  2  1  0
  5  4  2  0
  7  6  1  6
  7  9  1  0
  8  7  1  0
  9 10  1  1
  9 11  1  0
 10  4  1  0
 11 12  2  0
 13 11  1  0
 13 14  1  0
 14 15  1  6
 16 15  1  0
 17 21  1  0
 17 16  1  0
 18 17  2  0
 19 20  1  0
 19 14  1  0
 22 19  2  0
M  END
$$$$
