AVE.pdb
     RDKit          3D

 22 21  0  0  1  0  0  0  0  0999 V2000
   18.2460  -10.4322  -19.3139 C   0  0  0  0  0  0  0  0  0  0  0  0
   19.1431  -11.3688  -18.5373 C   0  0  2  0  0  0  0  0  0  0  0  0
   18.3908  -12.5698  -18.2512 N   0  0  0  0  0  0  0  0  0  0  0  0
   19.5695  -10.7166  -17.2951 C   0  0  0  0  0  0  0  0  0  0  0  0
   18.7368  -10.4905  -16.3773 O   0  0  0  0  0  0  0  0  0  0  0  0
   23.7049  -10.4310  -16.5348 C   0  0  0  0  0  0  0  0  0  0  0  0
   22.6594  -10.4943  -15.4609 C   0  0  1  0  0  0  0  0  0  0  0  0
   23.2249   -9.8132  -14.2128 C   0  0  0  0  0  0  0  0  0  0  0  0
   21.4186   -9.7480  -15.8534 C   0  0  2  0  0  0  0  0  0  0  0  0
   20.9039  -10.3218  -17.0781 N   0  0  0  0  0  0  0  0  0  0  0  0
   21.6571   -8.3146  -15.9358 C   0  0  0  0  0  0  0  0  0  0  0  0
   22.2737   -7.8078  -16.8967 O   0  0  0  0  0  0  0  0  0  0  0  0
   21.1900   -7.4580  -14.9177 N   0  0  0  0  0  0  0  0  0  0  0  0
   21.4923   -6.0331  -14.9753 C   0  0  1  0  0  0  0  0  0  0  0  0
   20.2616   -5.2958  -15.3968 C   0  0  0  0  0  0  0  0  0  0  0  0
   20.3786   -3.8172  -15.4925 C   0  0  0  0  0  0  0  0  0  0  0  0
   19.1237   -3.1646  -15.9100 C   0  0  0  0  0  0  0  0  0  0  0  0
   18.1308   -3.8861  -16.1856 O   0  0  0  0  0  0  0  0  0  0  0  0
   22.0298   -5.5493  -13.6853 C   0  0  0  0  0  0  0  0  0  0  0  0
   21.6765   -6.2008  -12.5212 O   0  0  0  0  0  0  0  0  0  0  0  0
   18.9624   -1.7984  -16.0217 O   0  0  0  0  0  0  0  0  0  0  0  0
   22.7992   -4.5626  -13.6052 O   0  0  0  0  0  0  0  0  0  0  0  0
  2  1  1  1
  2  3  1  0
  4  2  1  0
  5  4  2  0
  7  6  1  6
  7  9  1  0
  8  7  1  0
  9 10  1  6
  9 11  1  0
 10  4  1  0
 11 12  2  0
 13 11  1  0
 13 14  1  0
 14 15  1  1
 16 15  1  0
 17 21  1  0
 17 16  1  0
 18 17  2  0
 19 20  1  0
 19 14  1  0
 22 19  2  0
M  END
$$$$
