AVE.pdb
     RDKit          3D

 22 21  0  0  1  0  0  0  0  0999 V2000
   20.4214  -10.9878  -20.3846 C   0  0  0  0  0  0  0  0  0  0  0  0
   21.0027  -11.7054  -19.1879 C   0  0  2  0  0  0  0  0  0  0  0  0
   20.3727  -13.0036  -19.0986 N   0  0  0  0  0  0  0  0  0  0  0  0
   20.7448  -10.9202  -17.9765 C   0  0  0  0  0  0  0  0  0  0  0  0
   19.5680  -10.5916  -17.6702 O   0  0  0  0  0  0  0  0  0  0  0  0
   23.8340  -10.6515  -15.1811 C   0  0  0  0  0  0  0  0  0  0  0  0
   22.3883  -10.5181  -14.8035 C   0  0  1  0  0  0  0  0  0  0  0  0
   22.3100   -9.6690  -13.5330 C   0  0  0  0  0  0  0  0  0  0  0  0
   21.6037   -9.8058  -15.8656 C   0  0  2  0  0  0  0  0  0  0  0  0
   21.7826  -10.5070  -17.1187 N   0  0  0  0  0  0  0  0  0  0  0  0
   21.9491   -8.3935  -15.9327 C   0  0  0  0  0  0  0  0  0  0  0  0
   22.9726   -7.9976  -16.5294 O   0  0  0  0  0  0  0  0  0  0  0  0
   21.1231   -7.4311  -15.3162 N   0  0  0  0  0  0  0  0  0  0  0  0
   21.4688   -6.0177  -15.4039 C   0  0  1  0  0  0  0  0  0  0  0  0
   20.3142   -5.2748  -15.9961 C   0  0  0  0  0  0  0  0  0  0  0  0
   20.4977   -3.8119  -16.1845 C   0  0  0  0  0  0  0  0  0  0  0  0
   19.3239   -3.1561  -16.7902 C   0  0  0  0  0  0  0  0  0  0  0  0
   19.4182   -2.7140  -17.9640 O   0  0  0  0  0  0  0  0  0  0  0  0
   21.8703   -5.4840  -14.0843 C   0  0  0  0  0  0  0  0  0  0  0  0
   22.7010   -4.3836  -14.0269 O   0  0  0  0  0  0  0  0  0  0  0  0
   18.1132   -2.9910  -16.1483 O   0  0  0  0  0  0  0  0  0  0  0  0
   21.4843   -5.9955  -13.0066 O   0  0  0  0  0  0  0  0  0  0  0  0
  2  1  1  6
  2  3  1  0
  4  2  1  0
  5  4  2  0
  7  6  1  6
  7  9  1  0
  8  7  1  0
  9 10  1  6
  9 11  1  0
 10  4  1  0
 11 12  2  0
 13 11  1  0
 13 14  1  0
 14 15  1  1
 16 15  1  0
 17 21  1  0
 17 16  1  0
 18 17  2  0
 19 20  1  0
 19 14  1  0
 22 19  2  0
M  END
$$$$
