AVE.pdb
     RDKit          3D

 22 21  0  0  1  0  0  0  0  0999 V2000
   26.5068  -24.0445  -18.2191 C   0  0  0  0  0  0  0  0  0  0  0  0
   27.4689  -23.7143  -17.1009 C   0  0  2  0  0  0  0  0  0  0  0  0
   28.1087  -24.9431  -16.6875 N   0  0  0  0  0  0  0  0  0  0  0  0
   26.7311  -23.1137  -15.9850 C   0  0  0  0  0  0  0  0  0  0  0  0
   26.2150  -23.8438  -15.0976 O   0  0  0  0  0  0  0  0  0  0  0  0
   28.0774  -20.0480  -14.1125 C   0  0  0  0  0  0  0  0  0  0  0  0
   26.6424  -19.7810  -14.4585 C   0  0  1  0  0  0  0  0  0  0  0  0
   26.6154  -18.9220  -15.7245 C   0  0  0  0  0  0  0  0  0  0  0  0
   25.9027  -21.0500  -14.7641 C   0  0  2  0  0  0  0  0  0  0  0  0
   26.5704  -21.7202  -15.8591 N   0  0  0  0  0  0  0  0  0  0  0  0
   24.4890  -20.8029  -15.0063 C   0  0  0  0  0  0  0  0  0  0  0  0
   24.0642  -20.4868  -16.1377 O   0  0  0  0  0  0  0  0  0  0  0  0
   23.5582  -20.9171  -13.9533 N   0  0  0  0  0  0  0  0  0  0  0  0
   22.1460  -20.6563  -14.2038 C   0  0  1  0  0  0  0  0  0  0  0  0
   21.3372  -21.3064  -13.1272 C   0  0  0  0  0  0  0  0  0  0  0  0
   19.8628  -21.1438  -13.2204 C   0  0  0  0  0  0  0  0  0  0  0  0
   19.1209  -22.3346  -12.7661 C   0  0  0  0  0  0  0  0  0  0  0  0
   19.7610  -23.2787  -12.2359 O   0  0  0  0  0  0  0  0  0  0  0  0
   21.8829  -19.2051  -14.3134 C   0  0  0  0  0  0  0  0  0  0  0  0
   20.9162  -18.7600  -15.1918 O   0  0  0  0  0  0  0  0  0  0  0  0
   17.7542  -22.4866  -12.8856 O   0  0  0  0  0  0  0  0  0  0  0  0
   22.5082  -18.3555  -13.6358 O   0  0  0  0  0  0  0  0  0  0  0  0
  2  1  1  6
  2  3  1  0
  4  2  1  0
  5  4  2  0
  7  6  1  6
  7  9  1  0
  8  7  1  0
  9 10  1  6
  9 11  1  0
 10  4  1  0
 11 12  2  0
 13 11  1  0
 13 14  1  0
 14 15  1  1
 16 15  1  0
 17 21  1  0
 17 16  1  0
 18 17  2  0
 19 20  1  0
 19 14  1  0
 22 19  2  0
M  END
$$$$
