AVE.pdb
     RDKit          3D

 22 21  0  0  1  0  0  0  0  0999 V2000
   20.6807  -14.5552  -18.1792 C   0  0  0  0  0  0  0  0  0  0  0  0
   21.1445  -13.4784  -17.2251 C   0  0  2  0  0  0  0  0  0  0  0  0
   20.7325  -13.8578  -15.8922 N   0  0  0  0  0  0  0  0  0  0  0  0
   20.5434  -12.1967  -17.6077 C   0  0  0  0  0  0  0  0  0  0  0  0
   20.8382  -11.6594  -18.7082 O   0  0  0  0  0  0  0  0  0  0  0  0
   17.0560  -10.7620  -15.7101 C   0  0  0  0  0  0  0  0  0  0  0  0
   17.5888  -10.2959  -17.0327 C   0  0  1  0  0  0  0  0  0  0  0  0
   17.0476   -8.8877  -17.2883 C   0  0  0  0  0  0  0  0  0  0  0  0
   19.0862  -10.2040  -17.0234 C   0  0  2  0  0  0  0  0  0  0  0  0
   19.6273  -11.5232  -16.7766 N   0  0  0  0  0  0  0  0  0  0  0  0
   19.5569   -9.1954  -16.0855 C   0  0  0  0  0  0  0  0  0  0  0  0
   20.0998   -9.5089  -15.0051 O   0  0  0  0  0  0  0  0  0  0  0  0
   19.4066   -7.8252  -16.3826 N   0  0  0  0  0  0  0  0  0  0  0  0
   20.2082   -6.8378  -15.6702 C   0  0  1  0  0  0  0  0  0  0  0  0
   21.6539   -7.0985  -15.9491 C   0  0  0  0  0  0  0  0  0  0  0  0
   22.6223   -6.1299  -15.3719 C   0  0  0  0  0  0  0  0  0  0  0  0
   22.4654   -5.9549  -13.9160 C   0  0  0  0  0  0  0  0  0  0  0  0
   22.2011   -6.9632  -13.2118 O   0  0  0  0  0  0  0  0  0  0  0  0
   19.8005   -5.4618  -16.0272 C   0  0  0  0  0  0  0  0  0  0  0  0
   19.7285   -5.1042  -17.3581 O   0  0  0  0  0  0  0  0  0  0  0  0
   22.5893   -4.7443  -13.2647 O   0  0  0  0  0  0  0  0  0  0  0  0
   19.5160   -4.5993  -15.1628 O   0  0  0  0  0  0  0  0  0  0  0  0
  2  1  1  6
  2  3  1  0
  4  2  1  0
  5  4  2  0
  7  6  1  1
  7  9  1  0
  8  7  1  0
  9 10  1  1
  9 11  1  0
 10  4  1  0
 11 12  2  0
 13 11  1  0
 13 14  1  0
 14 15  1  6
 16 15  1  0
 17 21  1  0
 17 16  1  0
 18 17  2  0
 19 20  1  0
 19 14  1  0
 22 19  2  0
M  END
$$$$
