AVE.pdb
     RDKit          3D

 22 21  0  0  1  0  0  0  0  0999 V2000
   24.4914  -37.7711  -10.0601 C   0  0  0  0  0  0  0  0  0  0  0  0
   25.2838  -36.6996  -10.7735 C   0  0  2  0  0  0  0  0  0  0  0  0
   26.2096  -37.3542  -11.6705 N   0  0  0  0  0  0  0  0  0  0  0  0
   26.0045  -35.8886   -9.7870 C   0  0  0  0  0  0  0  0  0  0  0  0
   27.1404  -36.2469   -9.3769 O   0  0  0  0  0  0  0  0  0  0  0  0
   24.0306  -32.4777   -8.1774 C   0  0  0  0  0  0  0  0  0  0  0  0
   25.5247  -32.5019   -8.3101 C   0  0  1  0  0  0  0  0  0  0  0  0
   26.1139  -31.7054   -7.1441 C   0  0  0  0  0  0  0  0  0  0  0  0
   26.0649  -33.8983   -8.2150 C   0  0  2  0  0  0  0  0  0  0  0  0
   25.4680  -34.6957   -9.2647 N   0  0  0  0  0  0  0  0  0  0  0  0
   25.8818  -34.4558   -6.8831 C   0  0  0  0  0  0  0  0  0  0  0  0
   24.7938  -34.9552   -6.5264 O   0  0  0  0  0  0  0  0  0  0  0  0
   26.9444  -34.4425   -5.9562 N   0  0  0  0  0  0  0  0  0  0  0  0
   26.7952  -35.1200   -4.6741 C   0  0  1  0  0  0  0  0  0  0  0  0
   28.1427  -35.5685   -4.2061 C   0  0  0  0  0  0  0  0  0  0  0  0
   28.1679  -36.4250   -2.9917 C   0  0  0  0  0  0  0  0  0  0  0  0
   29.5302  -36.8337   -2.6018 C   0  0  0  0  0  0  0  0  0  0  0  0
   30.5034  -36.4152   -3.2800 O   0  0  0  0  0  0  0  0  0  0  0  0
   26.1117  -34.2538   -3.6895 C   0  0  0  0  0  0  0  0  0  0  0  0
   25.1669  -34.8050   -2.8483 O   0  0  0  0  0  0  0  0  0  0  0  0
   29.8141  -37.6560   -1.5301 O   0  0  0  0  0  0  0  0  0  0  0  0
   26.3572  -33.0285   -3.5874 O   0  0  0  0  0  0  0  0  0  0  0  0
  2  1  1  1
  2  3  1  0
  4  2  1  0
  5  4  2  0
  7  6  1  1
  7  9  1  0
  8  7  1  0
  9 10  1  6
  9 11  1  0
 10  4  1  0
 11 12  2  0
 13 11  1  0
 13 14  1  0
 14 15  1  1
 16 15  1  0
 17 21  1  0
 17 16  1  0
 18 17  2  0
 19 20  1  0
 19 14  1  0
 22 19  2  0
M  END
$$$$
