AVE.pdb
     RDKit          3D

 22 21  0  0  1  0  0  0  0  0999 V2000
   17.1825  -10.8172  -13.2961 C   0  0  0  0  0  0  0  0  0  0  0  0
   16.2378  -11.0268  -12.1347 C   0  0  2  0  0  0  0  0  0  0  0  0
   15.3443  -12.1103  -12.4783 N   0  0  0  0  0  0  0  0  0  0  0  0
   15.4849   -9.7924  -11.8904 C   0  0  0  0  0  0  0  0  0  0  0  0
   14.7226   -9.3261  -12.7782 O   0  0  0  0  0  0  0  0  0  0  0  0
   13.1147   -9.2354   -9.2083 C   0  0  0  0  0  0  0  0  0  0  0  0
   14.0947   -8.1076   -9.0740 C   0  0  1  0  0  0  0  0  0  0  0  0
   15.1145   -8.4954   -8.0012 C   0  0  0  0  0  0  0  0  0  0  0  0
   14.8524   -7.8796  -10.3486 C   0  0  2  0  0  0  0  0  0  0  0  0
   15.5795   -9.0875  -10.6747 N   0  0  0  0  0  0  0  0  0  0  0  0
   15.6945   -6.6952  -10.2687 C   0  0  0  0  0  0  0  0  0  0  0  0
   16.8548   -6.7469   -9.8088 O   0  0  0  0  0  0  0  0  0  0  0  0
   15.2098   -5.4486  -10.7152 N   0  0  0  0  0  0  0  0  0  0  0  0
   16.0365   -4.2566  -10.5708 C   0  0  1  0  0  0  0  0  0  0  0  0
   16.3466   -3.7173  -11.9305 C   0  0  0  0  0  0  0  0  0  0  0  0
   17.1660   -2.4783  -11.9776 C   0  0  0  0  0  0  0  0  0  0  0  0
   17.4097   -1.9992  -13.3509 C   0  0  0  0  0  0  0  0  0  0  0  0
   16.9466   -2.6640  -14.3132 O   0  0  0  0  0  0  0  0  0  0  0  0
   15.3828   -3.2566   -9.6991 C   0  0  0  0  0  0  0  0  0  0  0  0
   16.1370   -2.2309   -9.1669 O   0  0  0  0  0  0  0  0  0  0  0  0
   18.1215   -0.8569  -13.6568 O   0  0  0  0  0  0  0  0  0  0  0  0
   14.1611   -3.3036   -9.4208 O   0  0  0  0  0  0  0  0  0  0  0  0
  2  1  1  6
  2  3  1  0
  4  2  1  0
  5  4  2  0
  7  6  1  6
  7  9  1  0
  8  7  1  0
  9 10  1  1
  9 11  1  0
 10  4  1  0
 11 12  2  0
 13 11  1  0
 13 14  1  0
 14 15  1  6
 16 15  1  0
 17 21  1  0
 17 16  1  0
 18 17  2  0
 19 20  1  0
 19 14  1  0
 22 19  2  0
M  END
$$$$
