AVE.pdb
     RDKit          3D

 22 21  0  0  1  0  0  0  0  0999 V2000
   20.9691  -11.7934  -19.8912 C   0  0  0  0  0  0  0  0  0  0  0  0
   22.2326  -12.3434  -19.2698 C   0  0  2  0  0  0  0  0  0  0  0  0
   22.0590  -13.7682  -19.0962 N   0  0  0  0  0  0  0  0  0  0  0  0
   22.4652  -11.6889  -17.9784 C   0  0  0  0  0  0  0  0  0  0  0  0
   21.6599  -11.8593  -17.0249 O   0  0  0  0  0  0  0  0  0  0  0  0
   26.1116   -9.5240  -17.3319 C   0  0  0  0  0  0  0  0  0  0  0  0
   25.3076  -10.1740  -16.2448 C   0  0  1  0  0  0  0  0  0  0  0  0
   25.5468   -9.3926  -14.9512 C   0  0  0  0  0  0  0  0  0  0  0  0
   23.8370  -10.1162  -16.5360 C   0  0  2  0  0  0  0  0  0  0  0  0
   23.5787  -10.8567  -17.7521 N   0  0  0  0  0  0  0  0  0  0  0  0
   23.3500   -8.7452  -16.5730 C   0  0  0  0  0  0  0  0  0  0  0  0
   23.5174   -8.0179  -17.5747 O   0  0  0  0  0  0  0  0  0  0  0  0
   22.6701   -8.2035  -15.4627 N   0  0  0  0  0  0  0  0  0  0  0  0
   22.2142   -6.8194  -15.4977 C   0  0  1  0  0  0  0  0  0  0  0  0
   20.7190   -6.8044  -15.5105 C   0  0  0  0  0  0  0  0  0  0  0  0
   20.0653   -7.2708  -16.7611 C   0  0  0  0  0  0  0  0  0  0  0  0
   18.5929   -7.2179  -16.6972 C   0  0  0  0  0  0  0  0  0  0  0  0
   18.0494   -6.7848  -15.6487 O   0  0  0  0  0  0  0  0  0  0  0  0
   22.7799   -6.0428  -14.3734 C   0  0  0  0  0  0  0  0  0  0  0  0
   22.7324   -4.6643  -14.4152 O   0  0  0  0  0  0  0  0  0  0  0  0
   17.7593   -7.6175  -17.7222 O   0  0  0  0  0  0  0  0  0  0  0  0
   23.3062   -6.5904  -13.3758 O   0  0  0  0  0  0  0  0  0  0  0  0
  2  1  1  1
  2  3  1  0
  4  2  1  0
  5  4  2  0
  7  6  1  6
  7  9  1  0
  8  7  1  0
  9 10  1  6
  9 11  1  0
 10  4  1  0
 11 12  2  0
 13 11  1  0
 13 14  1  0
 14 15  1  1
 16 15  1  0
 17 21  1  0
 17 16  1  0
 18 17  2  0
 19 20  1  0
 19 14  1  0
 22 19  2  0
M  END
$$$$
