AYG.pdb
     RDKit          3D

 22 22  0  0  1  0  0  0  0  0999 V2000
   24.6678   -7.5354  -20.1786 C   0  0  0  0  0  0  0  0  0  0  0  0
   24.5571   -8.9216  -19.5754 C   0  0  2  0  0  0  0  0  0  0  0  0
   24.3361   -9.9063  -20.6271 N   0  0  0  0  0  0  0  0  0  0  0  0
   23.4242   -8.9571  -18.6133 C   0  0  0  0  0  0  0  0  0  0  0  0
   22.2566   -9.0723  -19.0295 O   0  0  0  0  0  0  0  0  0  0  0  0
   22.2997  -14.9616  -18.2292 O   0  0  0  0  0  0  0  0  0  0  0  0
   22.3551  -13.7619  -17.5391 C   0  0  0  0  0  0  0  0  0  0  0  0
   21.2723  -12.9197  -17.4602 C   0  0  0  0  0  0  0  0  0  0  0  0
   21.3836  -11.7419  -16.7621 C   0  0  0  0  0  0  0  0  0  0  0  0
   22.5496  -11.3589  -16.1266 C   0  0  0  0  0  0  0  0  0  0  0  0
   22.6784  -10.0967  -15.3750 C   0  0  0  0  0  0  0  0  0  0  0  0
   22.6246   -8.8858  -16.2816 C   0  0  2  0  0  0  0  0  0  0  0  0
   23.6933   -8.8587  -17.2321 N   0  0  0  0  0  0  0  0  0  0  0  0
   22.6967   -7.6679  -15.4278 C   0  0  0  0  0  0  0  0  0  0  0  0
   23.6616   -7.4879  -14.6337 O   0  0  0  0  0  0  0  0  0  0  0  0
   23.6232  -12.2195  -16.2192 C   0  0  0  0  0  0  0  0  0  0  0  0
   23.5530  -13.4065  -16.9075 C   0  0  0  0  0  0  0  0  0  0  0  0
   21.6956   -6.6701  -15.4700 N   0  0  0  0  0  0  0  0  0  0  0  0
   21.7669   -5.4916  -14.6455 C   0  0  0  0  0  0  0  0  0  0  0  0
   20.6054   -4.6031  -14.9061 C   0  0  0  0  0  0  0  0  0  0  0  0
   20.4317   -3.5546  -14.2342 O   0  0  0  0  0  0  0  0  0  0  0  0
   19.6886   -4.9171  -15.9001 O   0  0  0  0  0  0  0  0  0  0  0  0
  2  1  1  6
  2  4  1  0
  3  2  1  0
  4 13  1  0
  4  5  2  0
  7  6  1  0
  8  7  2  0
  9  8  1  0
 10 16  1  0
 10  9  2  0
 11 10  1  0
 12 11  1  1
 13 12  1  0
 14 12  1  0
 14 18  1  0
 15 14  2  0
 16 17  2  0
 17  7  1  0
 19 18  1  0
 19 20  1  0
 20 21  2  0
 20 22  1  0
M  END
$$$$
