AYG.pdb
     RDKit          3D

 22 22  0  0  1  0  0  0  0  0999 V2000
   26.7159  -10.5407  -15.3468 C   0  0  0  0  0  0  0  0  0  0  0  0
   25.6336  -10.9071  -16.3428 C   0  0  2  0  0  0  0  0  0  0  0  0
   26.2253  -11.5625  -17.5026 N   0  0  0  0  0  0  0  0  0  0  0  0
   24.9184   -9.6779  -16.7758 C   0  0  0  0  0  0  0  0  0  0  0  0
   25.3440   -9.0164  -17.7407 O   0  0  0  0  0  0  0  0  0  0  0  0
   21.7639  -11.5017  -21.8669 O   0  0  0  0  0  0  0  0  0  0  0  0
   21.7274  -10.8261  -20.6582 C   0  0  0  0  0  0  0  0  0  0  0  0
   21.8711  -11.4789  -19.4578 C   0  0  0  0  0  0  0  0  0  0  0  0
   21.8267  -10.7583  -18.2889 C   0  0  0  0  0  0  0  0  0  0  0  0
   21.6418   -9.3890  -18.2635 C   0  0  0  0  0  0  0  0  0  0  0  0
   21.5929   -8.6073  -17.0140 C   0  0  0  0  0  0  0  0  0  0  0  0
   22.9707   -8.1816  -16.5540 C   0  0  2  0  0  0  0  0  0  0  0  0
   23.7585   -9.2774  -16.0800 N   0  0  0  0  0  0  0  0  0  0  0  0
   22.8034   -7.1875  -15.4581 C   0  0  0  0  0  0  0  0  0  0  0  0
   22.6335   -7.5602  -14.2638 O   0  0  0  0  0  0  0  0  0  0  0  0
   21.5000   -8.7550  -19.4800 C   0  0  0  0  0  0  0  0  0  0  0  0
   21.5383   -9.4389  -20.6710 C   0  0  0  0  0  0  0  0  0  0  0  0
   22.8274   -5.7956  -15.7067 N   0  0  0  0  0  0  0  0  0  0  0  0
   22.8343   -4.8355  -14.6335 C   0  0  0  0  0  0  0  0  0  0  0  0
   21.4456   -4.4960  -14.2300 C   0  0  0  0  0  0  0  0  0  0  0  0
   21.2243   -3.6334  -13.3425 O   0  0  0  0  0  0  0  0  0  0  0  0
   20.3646   -5.1284  -14.8289 O   0  0  0  0  0  0  0  0  0  0  0  0
  2  1  1  1
  2  4  1  0
  3  2  1  0
  4 13  1  0
  4  5  2  0
  7  6  1  0
  8  7  2  0
  9  8  1  0
 10 16  1  0
 10  9  2  0
 11 10  1  0
 12 11  1  1
 13 12  1  0
 14 12  1  0
 14 18  1  0
 15 14  2  0
 16 17  2  0
 17  7  1  0
 19 18  1  0
 19 20  1  0
 20 21  2  0
 20 22  1  0
M  END
$$$$
