AYG.pdb
     RDKit          3D

 22 22  0  0  1  0  0  0  0  0999 V2000
   15.6318  -14.8229    4.6488 C   0  0  0  0  0  0  0  0  0  0  0  0
   16.4805  -13.6779    5.1650 C   0  0  2  0  0  0  0  0  0  0  0  0
   16.8254  -12.7803    4.0696 N   0  0  0  0  0  0  0  0  0  0  0  0
   17.7231  -14.2160    5.7786 C   0  0  0  0  0  0  0  0  0  0  0  0
   18.6944  -14.5146    5.0595 O   0  0  0  0  0  0  0  0  0  0  0  0
   22.2128   -9.4290    7.0964 O   0  0  0  0  0  0  0  0  0  0  0  0
   21.5682  -10.5668    7.5533 C   0  0  0  0  0  0  0  0  0  0  0  0
   22.2617  -11.6917    7.9295 C   0  0  0  0  0  0  0  0  0  0  0  0
   21.5707  -12.7921    8.3753 C   0  0  0  0  0  0  0  0  0  0  0  0
   20.1919  -12.8213    8.4643 C   0  0  0  0  0  0  0  0  0  0  0  0
   19.4417  -13.9978    8.9416 C   0  0  0  0  0  0  0  0  0  0  0  0
   18.9713  -14.8746    7.8009 C   0  0  2  0  0  0  0  0  0  0  0  0
   17.7817  -14.3811    7.1783 N   0  0  0  0  0  0  0  0  0  0  0  0
   18.7117  -16.2366    8.3441 C   0  0  0  0  0  0  0  0  0  0  0  0
   17.6168  -16.5125    8.9090 O   0  0  0  0  0  0  0  0  0  0  0  0
   19.5168  -11.6813    8.0815 C   0  0  0  0  0  0  0  0  0  0  0  0
   20.1702  -10.5601    7.6303 C   0  0  0  0  0  0  0  0  0  0  0  0
   19.6727  -17.2698    8.2508 N   0  0  0  0  0  0  0  0  0  0  0  0
   19.4147  -18.5913    8.7614 C   0  0  0  0  0  0  0  0  0  0  0  0
   20.3823  -18.9322    9.8357 C   0  0  0  0  0  0  0  0  0  0  0  0
   21.2231  -18.0884   10.2381 O   0  0  0  0  0  0  0  0  0  0  0  0
   20.3740  -20.1934   10.4155 O   0  0  0  0  0  0  0  0  0  0  0  0
  2  1  1  6
  2  4  1  0
  3  2  1  0
  4 13  1  0
  4  5  2  0
  7  6  1  0
  8  7  2  0
  9  8  1  0
 10 16  1  0
 10  9  2  0
 11 10  1  0
 12 11  1  1
 13 12  1  0
 14 12  1  0
 14 18  1  0
 15 14  2  0
 16 17  2  0
 17  7  1  0
 19 18  1  0
 19 20  1  0
 20 21  2  0
 20 22  1  0
M  END
$$$$
