AYG.pdb
     RDKit          3D

 22 22  0  0  1  0  0  0  0  0999 V2000
   25.2780  -11.1740  -14.8377 C   0  0  0  0  0  0  0  0  0  0  0  0
   23.8934  -11.6678  -15.2074 C   0  0  2  0  0  0  0  0  0  0  0  0
   23.9820  -12.6251  -16.3029 N   0  0  0  0  0  0  0  0  0  0  0  0
   23.0473  -10.5166  -15.6187 C   0  0  0  0  0  0  0  0  0  0  0  0
   22.9685  -10.1989  -16.8197 O   0  0  0  0  0  0  0  0  0  0  0  0
   17.8672  -13.2292  -17.7638 O   0  0  0  0  0  0  0  0  0  0  0  0
   18.3894  -12.1741  -17.0339 C   0  0  0  0  0  0  0  0  0  0  0  0
   18.5315  -10.9186  -17.5738 C   0  0  0  0  0  0  0  0  0  0  0  0
   19.0555   -9.9089  -16.8038 C   0  0  0  0  0  0  0  0  0  0  0  0
   19.4520  -10.0991  -15.4936 C   0  0  0  0  0  0  0  0  0  0  0  0
   20.0154   -9.0214  -14.6595 C   0  0  0  0  0  0  0  0  0  0  0  0
   21.4609   -8.7318  -15.0029 C   0  0  2  0  0  0  0  0  0  0  0  0
   22.3413   -9.7965  -14.6323 N   0  0  0  0  0  0  0  0  0  0  0  0
   21.8642   -7.4900  -14.2869 C   0  0  0  0  0  0  0  0  0  0  0  0
   22.0181   -7.4840  -13.0338 O   0  0  0  0  0  0  0  0  0  0  0  0
   19.3001  -11.3670  -14.9728 C   0  0  0  0  0  0  0  0  0  0  0  0
   18.7805  -12.4038  -15.7093 C   0  0  0  0  0  0  0  0  0  0  0  0
   22.0901   -6.2753  -14.9746 N   0  0  0  0  0  0  0  0  0  0  0  0
   22.5466   -5.0927  -14.2914 C   0  0  0  0  0  0  0  0  0  0  0  0
   21.4286   -4.1314  -14.1115 C   0  0  0  0  0  0  0  0  0  0  0  0
   20.2630   -4.4202  -14.4844 O   0  0  0  0  0  0  0  0  0  0  0  0
   21.6531   -2.8928  -13.5262 O   0  0  0  0  0  0  0  0  0  0  0  0
  2  1  1  6
  2  4  1  0
  3  2  1  0
  4 13  1  0
  4  5  2  0
  7  6  1  0
  8  7  2  0
  9  8  1  0
 10 16  1  0
 10  9  2  0
 11 10  1  0
 12 11  1  1
 13 12  1  0
 14 12  1  0
 14 18  1  0
 15 14  2  0
 16 17  2  0
 17  7  1  0
 19 18  1  0
 19 20  1  0
 20 21  2  0
 20 22  1  0
M  END
$$$$
