AYG.pdb
     RDKit          3D

 22 22  0  0  1  0  0  0  0  0999 V2000
   18.9047  -16.5633  -19.8643 C   0  0  0  0  0  0  0  0  0  0  0  0
   19.1772  -15.0732  -19.8095 C   0  0  2  0  0  0  0  0  0  0  0  0
   20.6091  -14.8243  -19.9199 N   0  0  0  0  0  0  0  0  0  0  0  0
   18.6729  -14.5215  -18.5244 C   0  0  0  0  0  0  0  0  0  0  0  0
   17.4778  -14.6699  -18.2088 O   0  0  0  0  0  0  0  0  0  0  0  0
   19.8056  -19.5501  -15.0325 O   0  0  0  0  0  0  0  0  0  0  0  0
   19.8808  -18.1688  -15.1045 C   0  0  0  0  0  0  0  0  0  0  0  0
   20.9735  -17.5288  -15.6376 C   0  0  0  0  0  0  0  0  0  0  0  0
   20.9946  -16.1559  -15.6838 C   0  0  0  0  0  0  0  0  0  0  0  0
   19.9540  -15.3778  -15.2130 C   0  0  0  0  0  0  0  0  0  0  0  0
   19.9677  -13.9039  -15.2585 C   0  0  0  0  0  0  0  0  0  0  0  0
   19.1308  -13.3613  -16.3970 C   0  0  2  0  0  0  0  0  0  0  0  0
   19.5648  -13.8327  -17.6760 N   0  0  0  0  0  0  0  0  0  0  0  0
   19.2196  -11.8752  -16.3661 C   0  0  0  0  0  0  0  0  0  0  0  0
   20.2756  -11.2804  -16.7197 O   0  0  0  0  0  0  0  0  0  0  0  0
   18.8679  -16.0416  -14.6825 C   0  0  0  0  0  0  0  0  0  0  0  0
   18.8077  -17.4127  -14.6178 C   0  0  0  0  0  0  0  0  0  0  0  0
   18.1339  -11.0741  -15.9428 N   0  0  0  0  0  0  0  0  0  0  0  0
   18.1753   -9.6373  -16.0284 C   0  0  0  0  0  0  0  0  0  0  0  0
   18.5420   -9.0481  -14.7150 C   0  0  0  0  0  0  0  0  0  0  0  0
   18.7730   -9.7821  -13.7206 O   0  0  0  0  0  0  0  0  0  0  0  0
   18.6361   -7.6714  -14.5633 O   0  0  0  0  0  0  0  0  0  0  0  0
  2  1  1  1
  2  4  1  0
  3  2  1  0
  4 13  1  0
  4  5  2  0
  7  6  1  0
  8  7  2  0
  9  8  1  0
 10 16  1  0
 10  9  2  0
 11 10  1  0
 12 11  1  1
 13 12  1  0
 14 12  1  0
 14 18  1  0
 15 14  2  0
 16 17  2  0
 17  7  1  0
 19 18  1  0
 19 20  1  0
 20 21  2  0
 20 22  1  0
M  END
$$$$
