AYG.pdb
     RDKit          3D

 22 22  0  0  1  0  0  0  0  0999 V2000
   20.7903  -11.6568  -15.0487 C   0  0  0  0  0  0  0  0  0  0  0  0
   20.3992  -10.2180  -15.3218 C   0  0  2  0  0  0  0  0  0  0  0  0
   19.7287  -10.1205  -16.6123 N   0  0  0  0  0  0  0  0  0  0  0  0
   21.6157   -9.3634  -15.3262 C   0  0  0  0  0  0  0  0  0  0  0  0
   22.2905   -9.2346  -14.2880 O   0  0  0  0  0  0  0  0  0  0  0  0
   27.7342  -12.0818  -15.4748 O   0  0  0  0  0  0  0  0  0  0  0  0
   26.8303  -11.1587  -15.9743 C   0  0  0  0  0  0  0  0  0  0  0  0
   25.4937  -11.4493  -16.1040 C   0  0  0  0  0  0  0  0  0  0  0  0
   24.6419  -10.4953  -16.6057 C   0  0  0  0  0  0  0  0  0  0  0  0
   25.0722   -9.2398  -16.9912 C   0  0  0  0  0  0  0  0  0  0  0  0
   24.1654   -8.2096  -17.5306 C   0  0  0  0  0  0  0  0  0  0  0  0
   23.1015   -7.8076  -16.5317 C   0  0  2  0  0  0  0  0  0  0  0  0
   21.9887   -8.7064  -16.5174 N   0  0  0  0  0  0  0  0  0  0  0  0
   22.6253   -6.4431  -16.8905 C   0  0  0  0  0  0  0  0  0  0  0  0
   23.4286   -5.4713  -16.9553 O   0  0  0  0  0  0  0  0  0  0  0  0
   26.4175   -8.9705  -16.8521 C   0  0  0  0  0  0  0  0  0  0  0  0
   27.3022   -9.8966  -16.3549 C   0  0  0  0  0  0  0  0  0  0  0  0
   21.2644   -6.1805  -17.1712 N   0  0  0  0  0  0  0  0  0  0  0  0
   20.7813   -4.8413  -17.3869 C   0  0  0  0  0  0  0  0  0  0  0  0
   20.0832   -4.3385  -16.1760 C   0  0  0  0  0  0  0  0  0  0  0  0
   20.0304   -5.0308  -15.1277 O   0  0  0  0  0  0  0  0  0  0  0  0
   19.4750   -3.0907  -16.1817 O   0  0  0  0  0  0  0  0  0  0  0  0
  2  1  1  6
  2  4  1  0
  3  2  1  0
  4 13  1  0
  4  5  2  0
  7  6  1  0
  8  7  2  0
  9  8  1  0
 10 16  1  0
 10  9  2  0
 11 10  1  0
 12 11  1  6
 13 12  1  0
 14 12  1  0
 14 18  1  0
 15 14  2  0
 16 17  2  0
 17  7  1  0
 19 18  1  0
 19 20  1  0
 20 21  2  0
 20 22  1  0
M  END
$$$$
