AYG.pdb
     RDKit          3D

 22 22  0  0  1  0  0  0  0  0999 V2000
   28.1146    3.6942   -8.2837 C   0  0  0  0  0  0  0  0  0  0  0  0
   27.2490    3.2525   -7.1204 C   0  0  2  0  0  0  0  0  0  0  0  0
   26.2111    4.2441   -6.8672 N   0  0  0  0  0  0  0  0  0  0  0  0
   28.0912    3.0911   -5.9059 C   0  0  0  0  0  0  0  0  0  0  0  0
   28.2077    4.0318   -5.0989 O   0  0  0  0  0  0  0  0  0  0  0  0
   24.1611    1.9874   -0.9901 O   0  0  0  0  0  0  0  0  0  0  0  0
   25.3065    1.6083   -1.6707 C   0  0  0  0  0  0  0  0  0  0  0  0
   25.2499    0.9346   -2.8669 C   0  0  0  0  0  0  0  0  0  0  0  0
   26.4181    0.5832   -3.4986 C   0  0  0  0  0  0  0  0  0  0  0  0
   27.6645    0.8795   -2.9805 C   0  0  0  0  0  0  0  0  0  0  0  0
   28.9236    0.5064   -3.6514 C   0  0  0  0  0  0  0  0  0  0  0  0
   29.4862    1.6418   -4.4793 C   0  0  2  0  0  0  0  0  0  0  0  0
   28.7505    1.8636   -5.6859 N   0  0  0  0  0  0  0  0  0  0  0  0
   30.8971    1.3086   -4.8193 C   0  0  0  0  0  0  0  0  0  0  0  0
   31.1661    0.4616   -5.7161 O   0  0  0  0  0  0  0  0  0  0  0  0
   27.6970    1.5560   -1.7792 C   0  0  0  0  0  0  0  0  0  0  0  0
   26.5521    1.9255   -1.1156 C   0  0  0  0  0  0  0  0  0  0  0  0
   31.9860    1.9217   -4.1576 N   0  0  0  0  0  0  0  0  0  0  0  0
   33.3495    1.5698   -4.4587 C   0  0  0  0  0  0  0  0  0  0  0  0
   34.0687    1.1689   -3.2224 C   0  0  0  0  0  0  0  0  0  0  0  0
   35.0229    1.8573   -2.7791 O   0  0  0  0  0  0  0  0  0  0  0  0
   33.6975    0.0226   -2.5330 O   0  0  0  0  0  0  0  0  0  0  0  0
  2  1  1  6
  2  4  1  0
  3  2  1  0
  4 13  1  0
  4  5  2  0
  7  6  1  0
  8  7  2  0
  9  8  1  0
 10 16  1  0
 10  9  2  0
 11 10  1  0
 12 11  1  6
 13 12  1  0
 14 12  1  0
 14 18  1  0
 15 14  2  0
 16 17  2  0
 17  7  1  0
 19 18  1  0
 19 20  1  0
 20 21  2  0
 20 22  1  0
M  END
$$$$
