AYG.pdb
     RDKit          3D

 22 22  0  0  1  0  0  0  0  0999 V2000
   21.4898   -5.8095  -20.3310 C   0  0  0  0  0  0  0  0  0  0  0  0
   22.5468   -6.7953  -19.8745 C   0  0  2  0  0  0  0  0  0  0  0  0
   22.4184   -8.0429  -20.6172 N   0  0  0  0  0  0  0  0  0  0  0  0
   22.3849   -7.0617  -18.4208 C   0  0  0  0  0  0  0  0  0  0  0  0
   21.4094   -7.7186  -18.0126 O   0  0  0  0  0  0  0  0  0  0  0  0
   24.5289  -12.8093  -18.1958 O   0  0  0  0  0  0  0  0  0  0  0  0
   24.4814  -11.5816  -17.5561 C   0  0  0  0  0  0  0  0  0  0  0  0
   23.5986  -11.3302  -16.5337 C   0  0  0  0  0  0  0  0  0  0  0  0
   23.5951  -10.0939  -15.9347 C   0  0  0  0  0  0  0  0  0  0  0  0
   24.4495   -9.0773  -16.3174 C   0  0  0  0  0  0  0  0  0  0  0  0
   24.4530   -7.7473  -15.6804 C   0  0  0  0  0  0  0  0  0  0  0  0
   23.2845   -6.8969  -16.1306 C   0  0  2  0  0  0  0  0  0  0  0  0
   23.3478   -6.5612  -17.5197 N   0  0  0  0  0  0  0  0  0  0  0  0
   23.2875   -5.6459  -15.3230 C   0  0  0  0  0  0  0  0  0  0  0  0
   24.2453   -4.8267  -15.3983 O   0  0  0  0  0  0  0  0  0  0  0  0
   25.3267   -9.3523  -17.3454 C   0  0  0  0  0  0  0  0  0  0  0  0
   25.3621  -10.5752  -17.9705 C   0  0  0  0  0  0  0  0  0  0  0  0
   22.2264   -5.3253  -14.4450 N   0  0  0  0  0  0  0  0  0  0  0  0
   22.1563   -4.0519  -13.7763 C   0  0  0  0  0  0  0  0  0  0  0  0
   21.4092   -3.0701  -14.6035 C   0  0  0  0  0  0  0  0  0  0  0  0
   21.8206   -2.7436  -15.7459 O   0  0  0  0  0  0  0  0  0  0  0  0
   20.2395   -2.4943  -14.1268 O   0  0  0  0  0  0  0  0  0  0  0  0
  2  1  1  6
  2  4  1  0
  3  2  1  0
  4 13  1  0
  4  5  2  0
  7  6  1  0
  8  7  2  0
  9  8  1  0
 10 16  1  0
 10  9  2  0
 11 10  1  0
 12 11  1  1
 13 12  1  0
 14 12  1  0
 14 18  1  0
 15 14  2  0
 16 17  2  0
 17  7  1  0
 19 18  1  0
 19 20  1  0
 20 21  2  0
 20 22  1  0
M  END
$$$$
