AYG.pdb
     RDKit          3D

 22 22  0  0  1  0  0  0  0  0999 V2000
   26.5245  -22.3879  -18.4365 C   0  0  0  0  0  0  0  0  0  0  0  0
   27.0509  -23.0669  -17.1877 C   0  0  2  0  0  0  0  0  0  0  0  0
   27.2341  -24.4916  -17.4351 N   0  0  0  0  0  0  0  0  0  0  0  0
   26.0872  -22.8745  -16.0722 C   0  0  0  0  0  0  0  0  0  0  0  0
   25.2822  -23.7785  -15.7812 O   0  0  0  0  0  0  0  0  0  0  0  0
   22.9886  -20.6559   -8.2932 O   0  0  0  0  0  0  0  0  0  0  0  0
   23.6876  -20.6428   -9.4890 C   0  0  0  0  0  0  0  0  0  0  0  0
   23.2274  -19.9632  -10.5909 C   0  0  0  0  0  0  0  0  0  0  0  0
   23.9620  -19.9844  -11.7516 C   0  0  0  0  0  0  0  0  0  0  0  0
   25.1586  -20.6665  -11.8645 C   0  0  0  0  0  0  0  0  0  0  0  0
   25.9539  -20.6949  -13.1060 C   0  0  0  0  0  0  0  0  0  0  0  0
   25.2744  -21.4907  -14.1997 C   0  0  2  0  0  0  0  0  0  0  0  0
   26.1007  -21.6598  -15.3551 N   0  0  0  0  0  0  0  0  0  0  0  0
   24.0301  -20.7707  -14.5877 C   0  0  0  0  0  0  0  0  0  0  0  0
   24.0822  -19.6659  -15.1965 O   0  0  0  0  0  0  0  0  0  0  0  0
   25.6010  -21.3413  -10.7461 C   0  0  0  0  0  0  0  0  0  0  0  0
   24.8964  -21.3451   -9.5666 C   0  0  0  0  0  0  0  0  0  0  0  0
   22.7482  -21.2898  -14.2931 N   0  0  0  0  0  0  0  0  0  0  0  0
   21.5472  -20.5515  -14.5867 C   0  0  0  0  0  0  0  0  0  0  0  0
   20.3494  -21.3058  -14.1363 C   0  0  0  0  0  0  0  0  0  0  0  0
   20.4467  -22.4963  -13.7438 O   0  0  0  0  0  0  0  0  0  0  0  0
   19.0975  -20.7060  -14.1414 O   0  0  0  0  0  0  0  0  0  0  0  0
  2  1  1  6
  2  4  1  0
  3  2  1  0
  4 13  1  0
  4  5  2  0
  7  6  1  0
  8  7  2  0
  9  8  1  0
 10 16  1  0
 10  9  2  0
 11 10  1  0
 12 11  1  1
 13 12  1  0
 14 12  1  0
 14 18  1  0
 15 14  2  0
 16 17  2  0
 17  7  1  0
 19 18  1  0
 19 20  1  0
 20 21  2  0
 20 22  1  0
M  END
$$$$
