AYG.pdb
     RDKit          3D

 22 22  0  0  1  0  0  0  0  0999 V2000
   24.1011   -8.6370  -19.6849 C   0  0  0  0  0  0  0  0  0  0  0  0
   23.0715   -7.5785  -19.3426 C   0  0  2  0  0  0  0  0  0  0  0  0
   23.3519   -6.3537  -20.0814 N   0  0  0  0  0  0  0  0  0  0  0  0
   23.1098   -7.2999  -17.8828 C   0  0  0  0  0  0  0  0  0  0  0  0
   24.0748   -7.6890  -17.1993 O   0  0  0  0  0  0  0  0  0  0  0  0
   26.9477   -2.5185  -17.7994 O   0  0  0  0  0  0  0  0  0  0  0  0
   25.7977   -3.0683  -17.2572 C   0  0  0  0  0  0  0  0  0  0  0  0
   25.7963   -3.6791  -16.0264 C   0  0  0  0  0  0  0  0  0  0  0  0
   24.6264   -4.2074  -15.5372 C   0  0  0  0  0  0  0  0  0  0  0  0
   23.4344   -4.1527  -16.2344 C   0  0  0  0  0  0  0  0  0  0  0  0
   22.1739   -4.7170  -15.7174 C   0  0  0  0  0  0  0  0  0  0  0  0
   22.0988   -6.2162  -15.9118 C   0  0  2  0  0  0  0  0  0  0  0  0
   22.0424   -6.5929  -17.2906 N   0  0  0  0  0  0  0  0  0  0  0  0
   20.8770   -6.7097  -15.2181 C   0  0  0  0  0  0  0  0  0  0  0  0
   20.7187   -6.5338  -13.9780 O   0  0  0  0  0  0  0  0  0  0  0  0
   23.4595   -3.5352  -17.4673 C   0  0  0  0  0  0  0  0  0  0  0  0
   24.6083   -2.9943  -17.9921 C   0  0  0  0  0  0  0  0  0  0  0  0
   19.8511   -7.3905  -15.9136 N   0  0  0  0  0  0  0  0  0  0  0  0
   18.6524   -7.8335  -15.2498 C   0  0  0  0  0  0  0  0  0  0  0  0
   17.5764   -6.8186  -15.3865 C   0  0  0  0  0  0  0  0  0  0  0  0
   17.8031   -5.7071  -15.9287 O   0  0  0  0  0  0  0  0  0  0  0  0
   16.2973   -7.0818  -14.9158 O   0  0  0  0  0  0  0  0  0  0  0  0
  2  1  1  1
  2  4  1  0
  3  2  1  0
  4 13  1  0
  4  5  2  0
  7  6  1  0
  8  7  2  0
  9  8  1  0
 10 16  1  0
 10  9  2  0
 11 10  1  0
 12 11  1  6
 13 12  1  0
 14 12  1  0
 14 18  1  0
 15 14  2  0
 16 17  2  0
 17  7  1  0
 19 18  1  0
 19 20  1  0
 20 21  2  0
 20 22  1  0
M  END
$$$$
