AYG.pdb
     RDKit          3D

 22 22  0  0  1  0  0  0  0  0999 V2000
   21.5636   -7.8143  -20.0609 C   0  0  0  0  0  0  0  0  0  0  0  0
   22.5754   -7.9142  -18.9366 C   0  0  2  0  0  0  0  0  0  0  0  0
   23.4906   -9.0205  -19.1870 N   0  0  0  0  0  0  0  0  0  0  0  0
   21.8677   -8.1344  -17.6479 C   0  0  0  0  0  0  0  0  0  0  0  0
   20.6869   -8.5285  -17.6447 O   0  0  0  0  0  0  0  0  0  0  0  0
   23.3967  -14.0438  -17.3466 O   0  0  0  0  0  0  0  0  0  0  0  0
   23.2762  -12.8628  -16.6328 C   0  0  0  0  0  0  0  0  0  0  0  0
   24.3468  -12.0261  -16.4287 C   0  0  0  0  0  0  0  0  0  0  0  0
   24.1698  -10.8670  -15.7129 C   0  0  0  0  0  0  0  0  0  0  0  0
   22.9488  -10.4980  -15.1810 C   0  0  0  0  0  0  0  0  0  0  0  0
   22.7493   -9.2560  -14.4114 C   0  0  0  0  0  0  0  0  0  0  0  0
   21.9513   -8.2284  -15.1850 C   0  0  2  0  0  0  0  0  0  0  0  0
   22.5521   -7.8911  -16.4386 N   0  0  0  0  0  0  0  0  0  0  0  0
   21.8444   -7.0023  -14.3468 C   0  0  0  0  0  0  0  0  0  0  0  0
   21.3993   -7.0594  -13.1667 O   0  0  0  0  0  0  0  0  0  0  0  0
   21.8886  -11.3529  -15.3983 C   0  0  0  0  0  0  0  0  0  0  0  0
   22.0237  -12.5212  -16.1085 C   0  0  0  0  0  0  0  0  0  0  0  0
   22.2337   -5.7329  -14.8331 N   0  0  0  0  0  0  0  0  0  0  0  0
   22.0257   -4.5323  -14.0657 C   0  0  0  0  0  0  0  0  0  0  0  0
   20.7478   -3.8818  -14.4531 C   0  0  0  0  0  0  0  0  0  0  0  0
   20.3941   -2.7934  -13.9324 O   0  0  0  0  0  0  0  0  0  0  0  0
   19.9193   -4.4675  -15.4005 O   0  0  0  0  0  0  0  0  0  0  0  0
  2  1  1  6
  2  4  1  0
  3  2  1  0
  4 13  1  0
  4  5  2  0
  7  6  1  0
  8  7  2  0
  9  8  1  0
 10 16  1  0
 10  9  2  0
 11 10  1  0
 12 11  1  1
 13 12  1  0
 14 12  1  0
 14 18  1  0
 15 14  2  0
 16 17  2  0
 17  7  1  0
 19 18  1  0
 19 20  1  0
 20 21  2  0
 20 22  1  0
M  END
$$$$
