AYG.pdb
     RDKit          3D

 22 22  0  0  1  0  0  0  0  0999 V2000
   21.3983   -8.5836  -20.8890 C   0  0  0  0  0  0  0  0  0  0  0  0
   22.5634   -8.7854  -19.9405 C   0  0  2  0  0  0  0  0  0  0  0  0
   23.3463   -9.9438  -20.3526 N   0  0  0  0  0  0  0  0  0  0  0  0
   22.0517   -8.9949  -18.5605 C   0  0  0  0  0  0  0  0  0  0  0  0
   21.6625  -10.1226  -18.2047 O   0  0  0  0  0  0  0  0  0  0  0  0
   27.0252  -11.0702  -15.2501 O   0  0  0  0  0  0  0  0  0  0  0  0
   25.9375  -10.2129  -15.2809 C   0  0  0  0  0  0  0  0  0  0  0  0
   25.9527   -9.0478  -16.0090 C   0  0  0  0  0  0  0  0  0  0  0  0
   24.8454   -8.2347  -16.0034 C   0  0  0  0  0  0  0  0  0  0  0  0
   23.7012   -8.5379  -15.2900 C   0  0  0  0  0  0  0  0  0  0  0  0
   22.5080   -7.6715  -15.2780 C   0  0  0  0  0  0  0  0  0  0  0  0
   21.5063   -8.0666  -16.3419 C   0  0  2  0  0  0  0  0  0  0  0  0
   22.0152   -7.9026  -17.6687 N   0  0  0  0  0  0  0  0  0  0  0  0
   20.2954   -7.2166  -16.1725 C   0  0  0  0  0  0  0  0  0  0  0  0
   20.2907   -6.0111  -16.5477 O   0  0  0  0  0  0  0  0  0  0  0  0
   23.7086   -9.7120  -14.5667 C   0  0  0  0  0  0  0  0  0  0  0  0
   24.7953  -10.5525  -14.5459 C   0  0  0  0  0  0  0  0  0  0  0  0
   19.1097   -7.7196  -15.5889 N   0  0  0  0  0  0  0  0  0  0  0  0
   17.9104   -6.9265  -15.5090 C   0  0  0  0  0  0  0  0  0  0  0  0
   17.9657   -6.0161  -14.3366 C   0  0  0  0  0  0  0  0  0  0  0  0
   18.9368   -6.0501  -13.5386 O   0  0  0  0  0  0  0  0  0  0  0  0
   16.9417   -5.1088  -14.1016 O   0  0  0  0  0  0  0  0  0  0  0  0
  2  1  1  6
  2  4  1  0
  3  2  1  0
  4 13  1  0
  4  5  2  0
  7  6  1  0
  8  7  2  0
  9  8  1  0
 10 16  1  0
 10  9  2  0
 11 10  1  0
 12 11  1  1
 13 12  1  0
 14 12  1  0
 14 18  1  0
 15 14  2  0
 16 17  2  0
 17  7  1  0
 19 18  1  0
 19 20  1  0
 20 21  2  0
 20 22  1  0
M  END
$$$$
