AYG.pdb
     RDKit          3D

 22 22  0  0  1  0  0  0  0  0999 V2000
   27.7288  -23.8061  -17.5876 C   0  0  0  0  0  0  0  0  0  0  0  0
   27.3967  -23.7499  -16.1097 C   0  0  2  0  0  0  0  0  0  0  0  0
   26.6521  -24.9411  -15.7209 N   0  0  0  0  0  0  0  0  0  0  0  0
   26.5820  -22.5387  -15.8280 C   0  0  0  0  0  0  0  0  0  0  0  0
   25.3393  -22.6121  -15.8175 O   0  0  0  0  0  0  0  0  0  0  0  0
   25.5167  -21.2751   -9.0414 O   0  0  0  0  0  0  0  0  0  0  0  0
   25.9436  -20.8180  -10.2774 C   0  0  0  0  0  0  0  0  0  0  0  0
   27.2309  -21.0114  -10.7173 C   0  0  0  0  0  0  0  0  0  0  0  0
   27.5998  -20.5366  -11.9524 C   0  0  0  0  0  0  0  0  0  0  0  0
   26.7250  -19.8643  -12.7848 C   0  0  0  0  0  0  0  0  0  0  0  0
   27.1120  -19.3512  -14.1120 C   0  0  0  0  0  0  0  0  0  0  0  0
   26.4833  -20.1468  -15.2359 C   0  0  2  0  0  0  0  0  0  0  0  0
   27.2362  -21.3149  -15.5749 N   0  0  0  0  0  0  0  0  0  0  0  0
   26.3878  -19.2614  -16.4293 C   0  0  0  0  0  0  0  0  0  0  0  0
   27.4235  -18.7662  -16.9549 O   0  0  0  0  0  0  0  0  0  0  0  0
   25.4385  -19.6819  -12.3227 C   0  0  0  0  0  0  0  0  0  0  0  0
   25.0297  -20.1411  -11.0940 C   0  0  0  0  0  0  0  0  0  0  0  0
   25.1434  -18.9405  -17.0193 N   0  0  0  0  0  0  0  0  0  0  0  0
   25.0578  -18.1703  -18.2331 C   0  0  0  0  0  0  0  0  0  0  0  0
   24.2332  -16.9533  -18.0201 C   0  0  0  0  0  0  0  0  0  0  0  0
   23.7004  -16.7220  -16.9050 O   0  0  0  0  0  0  0  0  0  0  0  0
   24.0365  -16.0473  -19.0533 O   0  0  0  0  0  0  0  0  0  0  0  0
  2  1  1  6
  2  4  1  0
  3  2  1  0
  4 13  1  0
  4  5  2  0
  7  6  1  0
  8  7  2  0
  9  8  1  0
 10 16  1  0
 10  9  2  0
 11 10  1  0
 12 11  1  1
 13 12  1  0
 14 12  1  0
 14 18  1  0
 15 14  2  0
 16 17  2  0
 17  7  1  0
 19 18  1  0
 19 20  1  0
 20 21  2  0
 20 22  1  0
M  END
$$$$
