KCD.pdb
     RDKit          3D

 24 23  0  0  1  0  0  0  0  0999 V2000
    7.9244  -15.9184   18.7400 N   0  0  0  0  0  0  0  0  0  0  0  0
    8.7616  -14.7853   18.9685 C   0  0  1  0  0  0  0  0  0  0  0  0
    8.1973  -13.5710   18.3245 C   0  0  0  0  0  0  0  0  0  0  0  0
    7.6154  -13.8457   16.9883 C   0  0  0  0  0  0  0  0  0  0  0  0
    8.4167  -13.4348   15.7996 C   0  0  0  0  0  0  0  0  0  0  0  0
    7.6913  -13.5708   14.4815 C   0  0  0  0  0  0  0  0  0  0  0  0
    7.5933  -14.9898   14.1826 N   0  0  0  0  0  0  0  0  0  0  0  0
    9.0895  -14.5847   20.4026 C   0  0  0  0  0  0  0  0  0  0  0  0
   10.1231  -13.9429   20.7170 O   0  0  0  0  0  0  0  0  0  0  0  0
    8.2643  -15.1000   21.4350 N   0  0  0  0  0  0  0  0  0  0  0  0
    8.6983  -15.0546   22.8278 C   0  0  1  0  0  0  0  0  0  0  0  0
    7.5445  -14.9261   23.7771 C   0  0  0  0  0  0  0  0  0  0  0  0
    8.2401  -14.7933   25.4518 S   0  0  0  0  0  0  0  0  0  0  0  0
    9.5652  -16.2211   23.1482 C   0  0  0  0  0  0  0  0  0  0  0  0
    9.1718  -17.3865   22.8949 O   0  0  0  0  0  0  0  0  0  0  0  0
   10.8469  -16.0777   23.7401 N   0  0  0  0  0  0  0  0  0  0  0  0
   11.6723  -17.2271   24.1441 C   0  0  1  0  0  0  0  0  0  0  0  0
   13.0958  -16.7402   24.0004 C   0  0  0  0  0  0  0  0  0  0  0  0
   13.4923  -16.4459   22.6154 C   0  0  0  0  0  0  0  0  0  0  0  0
   13.3828  -17.3365   21.7323 O   0  0  0  0  0  0  0  0  0  0  0  0
   11.3683  -17.5974   25.5368 C   0  0  0  0  0  0  0  0  0  0  0  0
   11.8791  -18.7095   26.1638 O   0  0  0  0  0  0  0  0  0  0  0  0
   13.9870  -15.2217   22.2431 O   0  0  0  0  0  0  0  0  0  0  0  0
   10.5894  -16.8672   26.2320 O   0  0  0  0  0  0  0  0  0  0  0  0
  2  8  1  0
  2  1  1  1
  3  2  1  0
  4  3  1  0
  5  6  1  0
  5  4  1  0
  7  6  1  0
  8  9  2  0
 10  8  1  0
 10 11  1  0
 11 12  1  1
 12 13  1  0
 14 15  2  0
 14 11  1  0
 16 14  1  0
 17 16  1  0
 17 18  1  1
 19 18  1  0
 19 20  2  0
 21 22  1  0
 21 17  1  0
 23 19  1  0
 24 21  2  0
M  END
$$$$
