KCD.pdb
     RDKit          3D

 24 23  0  0  1  0  0  0  0  0999 V2000
    7.8401  -13.0331   14.9249 N   0  0  0  0  0  0  0  0  0  0  0  0
    8.1684  -14.2478   15.5984 C   0  0  1  0  0  0  0  0  0  0  0  0
    8.8496  -15.1960   14.6795 C   0  0  0  0  0  0  0  0  0  0  0  0
    8.2352  -16.5458   14.6862 C   0  0  0  0  0  0  0  0  0  0  0  0
    6.8119  -16.6479   14.2527 C   0  0  0  0  0  0  0  0  0  0  0  0
    6.2795  -18.0601   14.1887 C   0  0  0  0  0  0  0  0  0  0  0  0
    4.9117  -17.9883   13.7022 N   0  0  0  0  0  0  0  0  0  0  0  0
    8.9126  -14.0277   16.8642 C   0  0  0  0  0  0  0  0  0  0  0  0
   10.1296  -13.7175   16.8205 O   0  0  0  0  0  0  0  0  0  0  0  0
    8.2855  -14.1582   18.1299 N   0  0  0  0  0  0  0  0  0  0  0  0
    9.0451  -13.9638   19.3610 C   0  0  1  0  0  0  0  0  0  0  0  0
    8.1772  -13.5110   20.4970 C   0  0  0  0  0  0  0  0  0  0  0  0
    6.9802  -14.8408   20.8205 S   0  0  0  0  0  0  0  0  0  0  0  0
    9.8240  -15.1862   19.6985 C   0  0  0  0  0  0  0  0  0  0  0  0
    9.4208  -16.3141   19.3209 O   0  0  0  0  0  0  0  0  0  0  0  0
   11.0304  -15.1389   20.4442 N   0  0  0  0  0  0  0  0  0  0  0  0
   11.6964  -16.3448   20.9615 C   0  0  1  0  0  0  0  0  0  0  0  0
   13.1537  -16.1531   20.6098 C   0  0  0  0  0  0  0  0  0  0  0  0
   13.5932  -14.7500   20.6179 C   0  0  0  0  0  0  0  0  0  0  0  0
   12.7764  -13.8419   20.9235 O   0  0  0  0  0  0  0  0  0  0  0  0
   11.5023  -16.4385   22.4185 C   0  0  0  0  0  0  0  0  0  0  0  0
   11.9118  -17.5079   23.1797 O   0  0  0  0  0  0  0  0  0  0  0  0
   14.8766  -14.3861   20.2977 O   0  0  0  0  0  0  0  0  0  0  0  0
   10.9242  -15.4909   23.0438 O   0  0  0  0  0  0  0  0  0  0  0  0
  2  8  1  0
  2  1  1  6
  3  2  1  0
  4  3  1  0
  5  6  1  0
  5  4  1  0
  7  6  1  0
  8  9  2  0
 10  8  1  0
 10 11  1  0
 11 12  1  1
 12 13  1  0
 14 15  2  0
 14 11  1  0
 16 14  1  0
 17 16  1  0
 17 18  1  1
 19 18  1  0
 19 20  2  0
 21 22  1  0
 21 17  1  0
 23 19  1  0
 24 21  2  0
M  END
$$$$
