KCD.pdb
     RDKit          3D

 24 23  0  0  1  0  0  0  0  0999 V2000
    6.5126  -14.8789   20.7396 N   0  0  0  0  0  0  0  0  0  0  0  0
    7.7579  -14.1848   20.6753 C   0  0  1  0  0  0  0  0  0  0  0  0
    7.6019  -12.8794   19.9829 C   0  0  0  0  0  0  0  0  0  0  0  0
    7.2205  -13.0260   18.5573 C   0  0  0  0  0  0  0  0  0  0  0  0
    8.2655  -13.5329   17.6218 C   0  0  0  0  0  0  0  0  0  0  0  0
    7.8249  -13.6127   16.1790 C   0  0  0  0  0  0  0  0  0  0  0  0
    8.0121  -14.9862   15.7419 N   0  0  0  0  0  0  0  0  0  0  0  0
    8.4266  -14.0672   21.9957 C   0  0  0  0  0  0  0  0  0  0  0  0
    9.5964  -13.6125   22.0584 O   0  0  0  0  0  0  0  0  0  0  0  0
    7.7789  -14.4557   23.1964 N   0  0  0  0  0  0  0  0  0  0  0  0
    8.5228  -14.5432   24.4492 C   0  0  1  0  0  0  0  0  0  0  0  0
    7.7671  -13.9482   25.5998 C   0  0  0  0  0  0  0  0  0  0  0  0
    6.1503  -14.7773   25.6659 S   0  0  0  0  0  0  0  0  0  0  0  0
    8.9437  -15.9455   24.7156 C   0  0  0  0  0  0  0  0  0  0  0  0
    8.1996  -16.9006   24.3819 O   0  0  0  0  0  0  0  0  0  0  0  0
   10.1757  -16.2648   25.3433 N   0  0  0  0  0  0  0  0  0  0  0  0
   10.6001  -17.6482   25.6104 C   0  0  1  0  0  0  0  0  0  0  0  0
   11.8220  -17.8437   24.7427 C   0  0  0  0  0  0  0  0  0  0  0  0
   12.5272  -19.1124   24.9766 C   0  0  0  0  0  0  0  0  0  0  0  0
   11.8982  -20.2001   24.8965 O   0  0  0  0  0  0  0  0  0  0  0  0
   10.9235  -17.8063   27.0386 C   0  0  0  0  0  0  0  0  0  0  0  0
   11.0875  -19.0230   27.6578 O   0  0  0  0  0  0  0  0  0  0  0  0
   13.8630  -19.1578   25.2863 O   0  0  0  0  0  0  0  0  0  0  0  0
   11.0670  -16.7762   27.7745 O   0  0  0  0  0  0  0  0  0  0  0  0
  2  8  1  0
  2  1  1  1
  3  2  1  0
  4  3  1  0
  5  6  1  0
  5  4  1  0
  7  6  1  0
  8  9  2  0
 10  8  1  0
 10 11  1  0
 11 12  1  1
 12 13  1  0
 14 15  2  0
 14 11  1  0
 16 14  1  0
 17 16  1  0
 17 18  1  6
 19 18  1  0
 19 20  2  0
 21 22  1  0
 21 17  1  0
 23 19  1  0
 24 21  2  0
M  END
$$$$
