KCD.pdb
     RDKit          3D

 24 23  0  0  1  0  0  0  0  0999 V2000
    7.0944  -15.8685   19.3614 N   0  0  0  0  0  0  0  0  0  0  0  0
    8.3206  -15.1386   19.3845 C   0  0  1  0  0  0  0  0  0  0  0  0
    8.2066  -13.8857   18.5940 C   0  0  0  0  0  0  0  0  0  0  0  0
    7.5213  -14.0857   17.2940 C   0  0  0  0  0  0  0  0  0  0  0  0
    8.2339  -13.6186   16.0700 C   0  0  0  0  0  0  0  0  0  0  0  0
    7.4667  -13.8248   14.7852 C   0  0  0  0  0  0  0  0  0  0  0  0
    8.2496  -13.2364   13.7112 N   0  0  0  0  0  0  0  0  0  0  0  0
    8.8381  -14.9152   20.7581 C   0  0  0  0  0  0  0  0  0  0  0  0
   10.0022  -14.4690   20.9157 O   0  0  0  0  0  0  0  0  0  0  0  0
    8.0512  -15.1925   21.9054 N   0  0  0  0  0  0  0  0  0  0  0  0
    8.6272  -15.1015   23.2433 C   0  0  1  0  0  0  0  0  0  0  0  0
    7.5814  -14.8937   24.2978 C   0  0  0  0  0  0  0  0  0  0  0  0
    6.8411  -13.2592   24.0042 S   0  0  0  0  0  0  0  0  0  0  0  0
    9.4887  -16.2812   23.5279 C   0  0  0  0  0  0  0  0  0  0  0  0
    9.0940  -17.4357   23.2301 O   0  0  0  0  0  0  0  0  0  0  0  0
   10.7664  -16.1630   24.1338 N   0  0  0  0  0  0  0  0  0  0  0  0
   11.5745  -17.3287   24.5255 C   0  0  1  0  0  0  0  0  0  0  0  0
   13.0027  -16.8987   24.2812 C   0  0  0  0  0  0  0  0  0  0  0  0
   13.4416  -17.0410   22.8851 C   0  0  0  0  0  0  0  0  0  0  0  0
   14.6134  -16.7123   22.5628 O   0  0  0  0  0  0  0  0  0  0  0  0
   11.3431  -17.6445   25.9454 C   0  0  0  0  0  0  0  0  0  0  0  0
   10.6202  -16.8467   26.8008 O   0  0  0  0  0  0  0  0  0  0  0  0
   12.6109  -17.5222   21.9051 O   0  0  0  0  0  0  0  0  0  0  0  0
   11.8267  -18.7121   26.4449 O   0  0  0  0  0  0  0  0  0  0  0  0
  2  8  1  0
  2  1  1  1
  3  2  1  0
  4  3  1  0
  5  6  1  0
  5  4  1  0
  7  6  1  0
  8  9  2  0
 10  8  1  0
 10 11  1  0
 11 12  1  1
 12 13  1  0
 14 15  2  0
 14 11  1  0
 16 14  1  0
 17 16  1  0
 17 18  1  1
 19 18  1  0
 19 20  2  0
 21 22  1  0
 21 17  1  0
 23 19  1  0
 24 21  2  0
M  END
$$$$
