KCD.pdb
     RDKit          3D

 24 23  0  0  1  0  0  0  0  0999 V2000
    7.4995  -14.6066   19.7521 N   0  0  0  0  0  0  0  0  0  0  0  0
    6.9287  -14.9465   21.0152 C   0  0  1  0  0  0  0  0  0  0  0  0
    6.4386  -16.3492   21.0151 C   0  0  0  0  0  0  0  0  0  0  0  0
    6.0729  -16.8310   19.6611 C   0  0  0  0  0  0  0  0  0  0  0  0
    5.6391  -18.2525   19.5386 C   0  0  0  0  0  0  0  0  0  0  0  0
    5.4229  -18.7182   18.1179 C   0  0  0  0  0  0  0  0  0  0  0  0
    5.0593  -20.1244   18.1710 N   0  0  0  0  0  0  0  0  0  0  0  0
    7.8258  -14.6435   22.1589 C   0  0  0  0  0  0  0  0  0  0  0  0
    9.0711  -14.6991   22.0000 O   0  0  0  0  0  0  0  0  0  0  0  0
    7.3145  -14.2905   23.4341 N   0  0  0  0  0  0  0  0  0  0  0  0
    8.2093  -14.1235   24.5751 C   0  0  1  0  0  0  0  0  0  0  0  0
    7.6156  -13.2475   25.6376 C   0  0  0  0  0  0  0  0  0  0  0  0
    5.9135  -13.8225   25.9176 S   0  0  0  0  0  0  0  0  0  0  0  0
    8.6368  -15.4457   25.1079 C   0  0  0  0  0  0  0  0  0  0  0  0
    7.8437  -16.4194   25.0870 O   0  0  0  0  0  0  0  0  0  0  0  0
    9.9289  -15.6663   25.6513 N   0  0  0  0  0  0  0  0  0  0  0  0
   10.3914  -16.9901   26.0976 C   0  0  1  0  0  0  0  0  0  0  0  0
   11.8410  -17.0475   25.6738 C   0  0  0  0  0  0  0  0  0  0  0  0
   12.1404  -18.1093   24.7019 C   0  0  0  0  0  0  0  0  0  0  0  0
   11.2217  -18.8785   24.3152 O   0  0  0  0  0  0  0  0  0  0  0  0
   10.2534  -17.1025   27.5596 C   0  0  0  0  0  0  0  0  0  0  0  0
   10.3322  -18.2899   28.2486 O   0  0  0  0  0  0  0  0  0  0  0  0
   13.4008  -18.2993   24.1946 O   0  0  0  0  0  0  0  0  0  0  0  0
   10.0478  -16.0580   28.2597 O   0  0  0  0  0  0  0  0  0  0  0  0
  2  8  1  0
  2  1  1  6
  3  2  1  0
  4  3  1  0
  5  6  1  0
  5  4  1  0
  7  6  1  0
  8  9  2  0
 10  8  1  0
 10 11  1  0
 11 12  1  1
 12 13  1  0
 14 15  2  0
 14 11  1  0
 16 14  1  0
 17 16  1  0
 17 18  1  1
 19 18  1  0
 19 20  2  0
 21 22  1  0
 21 17  1  0
 23 19  1  0
 24 21  2  0
M  END
$$$$
