KCD.pdb
     RDKit          3D

 24 23  0  0  1  0  0  0  0  0999 V2000
    6.2822  -15.1157   21.6071 N   0  0  0  0  0  0  0  0  0  0  0  0
    7.6133  -14.6110   21.5045 C   0  0  1  0  0  0  0  0  0  0  0  0
    7.6260  -13.2801   20.8442 C   0  0  0  0  0  0  0  0  0  0  0  0
    7.2212  -13.3408   19.4188 C   0  0  0  0  0  0  0  0  0  0  0  0
    8.2942  -13.6048   18.4172 C   0  0  0  0  0  0  0  0  0  0  0  0
    7.8305  -13.5592   16.9802 C   0  0  0  0  0  0  0  0  0  0  0  0
    8.9755  -13.8758   16.1428 N   0  0  0  0  0  0  0  0  0  0  0  0
    8.3419  -14.6261   22.7981 C   0  0  0  0  0  0  0  0  0  0  0  0
    9.5982  -14.6014   22.8009 O   0  0  0  0  0  0  0  0  0  0  0  0
    7.6562  -14.6677   24.0393 N   0  0  0  0  0  0  0  0  0  0  0  0
    8.3949  -14.6858   25.2979 C   0  0  1  0  0  0  0  0  0  0  0  0
    7.6050  -14.0947   26.4273 C   0  0  0  0  0  0  0  0  0  0  0  0
    7.5457  -12.2975   26.1574 S   0  0  0  0  0  0  0  0  0  0  0  0
    8.8785  -16.0591   25.6059 C   0  0  0  0  0  0  0  0  0  0  0  0
    8.0771  -17.0261   25.5952 O   0  0  0  0  0  0  0  0  0  0  0  0
   10.2345  -16.3370   25.9184 N   0  0  0  0  0  0  0  0  0  0  0  0
   10.7068  -17.6774   26.3001 C   0  0  1  0  0  0  0  0  0  0  0  0
   12.1716  -17.6830   25.9282 C   0  0  0  0  0  0  0  0  0  0  0  0
   12.4254  -17.5335   24.4877 C   0  0  0  0  0  0  0  0  0  0  0  0
   11.7263  -18.1760   23.6608 O   0  0  0  0  0  0  0  0  0  0  0  0
   10.5181  -17.8821   27.7464 C   0  0  0  0  0  0  0  0  0  0  0  0
   10.5055  -19.1169   28.3512 O   0  0  0  0  0  0  0  0  0  0  0  0
   13.4108  -16.7116   24.0023 O   0  0  0  0  0  0  0  0  0  0  0  0
   10.3536  -16.8780   28.5132 O   0  0  0  0  0  0  0  0  0  0  0  0
  2  8  1  0
  2  1  1  1
  3  2  1  0
  4  3  1  0
  5  6  1  0
  5  4  1  0
  7  6  1  0
  8  9  2  0
 10  8  1  0
 10 11  1  0
 11 12  1  1
 12 13  1  0
 14 15  2  0
 14 11  1  0
 16 14  1  0
 17 16  1  0
 17 18  1  1
 19 18  1  0
 19 20  2  0
 21 22  1  0
 21 17  1  0
 23 19  1  0
 24 21  2  0
M  END
$$$$
