KCD.pdb
     RDKit          3D

 24 23  0  0  1  0  0  0  0  0999 V2000
    6.8668  -15.1682   21.0221 N   0  0  0  0  0  0  0  0  0  0  0  0
    8.0230  -14.3317   21.0406 C   0  0  1  0  0  0  0  0  0  0  0  0
    7.7838  -13.0799   20.2766 C   0  0  0  0  0  0  0  0  0  0  0  0
    7.3956  -13.3310   18.8674 C   0  0  0  0  0  0  0  0  0  0  0  0
    8.4529  -13.8492   17.9522 C   0  0  0  0  0  0  0  0  0  0  0  0
    8.0189  -13.9848   16.5117 C   0  0  0  0  0  0  0  0  0  0  0  0
    9.1637  -14.4638   15.7551 N   0  0  0  0  0  0  0  0  0  0  0  0
    8.5420  -14.0876   22.4101 C   0  0  0  0  0  0  0  0  0  0  0  0
    9.5749  -13.3889   22.5649 O   0  0  0  0  0  0  0  0  0  0  0  0
    7.9013  -14.6238   23.5565 N   0  0  0  0  0  0  0  0  0  0  0  0
    8.4709  -14.4310   24.8865 C   0  0  1  0  0  0  0  0  0  0  0  0
    7.5228  -13.7297   25.8128 C   0  0  0  0  0  0  0  0  0  0  0  0
    8.4085  -13.4499   27.3759 S   0  0  0  0  0  0  0  0  0  0  0  0
    8.9539  -15.7229   25.4456 C   0  0  0  0  0  0  0  0  0  0  0  0
    8.1595  -16.6859   25.5832 O   0  0  0  0  0  0  0  0  0  0  0  0
   10.3018  -15.9256   25.8403 N   0  0  0  0  0  0  0  0  0  0  0  0
   10.7820  -17.1904   26.4190 C   0  0  1  0  0  0  0  0  0  0  0  0
   12.2374  -17.2619   26.0179 C   0  0  0  0  0  0  0  0  0  0  0  0
   12.4670  -17.1488   24.5700 C   0  0  0  0  0  0  0  0  0  0  0  0
   12.0710  -18.0643   23.8020 O   0  0  0  0  0  0  0  0  0  0  0  0
   10.6282  -17.1617   27.8835 C   0  0  0  0  0  0  0  0  0  0  0  0
   10.7581  -18.2676   28.6903 O   0  0  0  0  0  0  0  0  0  0  0  0
   13.1081  -16.0700   24.0155 O   0  0  0  0  0  0  0  0  0  0  0  0
   10.3586  -16.0643   28.4718 O   0  0  0  0  0  0  0  0  0  0  0  0
  2  8  1  0
  2  1  1  1
  3  2  1  0
  4  3  1  0
  5  6  1  0
  5  4  1  0
  7  6  1  0
  8  9  2  0
 10  8  1  0
 10 11  1  0
 11 12  1  1
 12 13  1  0
 14 15  2  0
 14 11  1  0
 16 14  1  0
 17 16  1  0
 17 18  1  1
 19 18  1  0
 19 20  2  0
 21 22  1  0
 21 17  1  0
 23 19  1  0
 24 21  2  0
M  END
$$$$
