KCD.pdb
     RDKit          3D

 24 23  0  0  1  0  0  0  0  0999 V2000
    7.0430  -14.4107   20.2711 N   0  0  0  0  0  0  0  0  0  0  0  0
    7.0882  -15.0905   21.5252 C   0  0  1  0  0  0  0  0  0  0  0  0
    7.5769  -16.4833   21.3558 C   0  0  0  0  0  0  0  0  0  0  0  0
    6.8415  -17.2275   20.3047 C   0  0  0  0  0  0  0  0  0  0  0  0
    7.5140  -17.3811   18.9825 C   0  0  0  0  0  0  0  0  0  0  0  0
    6.8192  -18.3319   18.0363 C   0  0  0  0  0  0  0  0  0  0  0  0
    7.6242  -18.4103   16.8287 N   0  0  0  0  0  0  0  0  0  0  0  0
    7.8284  -14.3367   22.5685 C   0  0  0  0  0  0  0  0  0  0  0  0
    8.2356  -13.1741   22.3202 O   0  0  0  0  0  0  0  0  0  0  0  0
    8.0910  -14.8947   23.8460 N   0  0  0  0  0  0  0  0  0  0  0  0
    8.1102  -14.0515   25.0373 C   0  0  1  0  0  0  0  0  0  0  0  0
    6.8240  -13.3031   25.2227 C   0  0  0  0  0  0  0  0  0  0  0  0
    6.9585  -12.3846   26.7861 S   0  0  0  0  0  0  0  0  0  0  0  0
    8.4786  -14.8466   26.2401 C   0  0  0  0  0  0  0  0  0  0  0  0
    7.6064  -15.5228   26.8395 O   0  0  0  0  0  0  0  0  0  0  0  0
    9.8003  -14.8798   26.7557 N   0  0  0  0  0  0  0  0  0  0  0  0
   10.2743  -15.9318   27.6689 C   0  0  1  0  0  0  0  0  0  0  0  0
   11.5909  -16.3810   27.0782 C   0  0  0  0  0  0  0  0  0  0  0  0
   11.9330  -17.7809   27.3702 C   0  0  0  0  0  0  0  0  0  0  0  0
   11.1555  -18.4801   28.0714 O   0  0  0  0  0  0  0  0  0  0  0  0
   10.4526  -15.3779   29.0219 C   0  0  0  0  0  0  0  0  0  0  0  0
   10.2071  -14.0659   29.3522 O   0  0  0  0  0  0  0  0  0  0  0  0
   13.0848  -18.3625   26.9041 O   0  0  0  0  0  0  0  0  0  0  0  0
   10.8572  -16.1302   29.9672 O   0  0  0  0  0  0  0  0  0  0  0  0
  2  8  1  0
  2  1  1  6
  3  2  1  0
  4  3  1  0
  5  6  1  0
  5  4  1  0
  7  6  1  0
  8  9  2  0
 10  8  1  0
 10 11  1  0
 11 12  1  1
 12 13  1  0
 14 15  2  0
 14 11  1  0
 16 14  1  0
 17 16  1  0
 17 18  1  6
 19 18  1  0
 19 20  2  0
 21 22  1  0
 21 17  1  0
 23 19  1  0
 24 21  2  0
M  END
$$$$
