KCD.pdb
     RDKit          3D

 24 23  0  0  1  0  0  0  0  0999 V2000
    6.8699  -15.8446   20.0391 N   0  0  0  0  0  0  0  0  0  0  0  0
    8.1825  -15.3201   19.8425 C   0  0  1  0  0  0  0  0  0  0  0  0
    8.1617  -14.1853   18.8836 C   0  0  0  0  0  0  0  0  0  0  0  0
    8.0952  -14.6277   17.4697 C   0  0  0  0  0  0  0  0  0  0  0  0
    7.7506  -13.5962   16.4492 C   0  0  0  0  0  0  0  0  0  0  0  0
    7.7562  -14.1013   15.0256 C   0  0  0  0  0  0  0  0  0  0  0  0
    7.4998  -12.9633   14.1586 N   0  0  0  0  0  0  0  0  0  0  0  0
    8.8747  -14.9943   21.1150 C   0  0  0  0  0  0  0  0  0  0  0  0
   10.0419  -14.5296   21.0830 O   0  0  0  0  0  0  0  0  0  0  0  0
    8.2526  -15.1936   22.3742 N   0  0  0  0  0  0  0  0  0  0  0  0
    8.9990  -14.9975   23.6130 C   0  0  1  0  0  0  0  0  0  0  0  0
    8.2487  -14.1530   24.5992 C   0  0  0  0  0  0  0  0  0  0  0  0
    6.6379  -14.9509   24.8727 S   0  0  0  0  0  0  0  0  0  0  0  0
    9.4146  -16.3046   24.1907 C   0  0  0  0  0  0  0  0  0  0  0  0
    8.5959  -17.2550   24.2517 O   0  0  0  0  0  0  0  0  0  0  0  0
   10.7234  -16.5360   24.6879 N   0  0  0  0  0  0  0  0  0  0  0  0
   11.1673  -17.8475   25.1861 C   0  0  1  0  0  0  0  0  0  0  0  0
   12.6477  -17.8860   24.8841 C   0  0  0  0  0  0  0  0  0  0  0  0
   12.9677  -17.8788   23.4491 C   0  0  0  0  0  0  0  0  0  0  0  0
   13.4411  -16.8388   22.9204 O   0  0  0  0  0  0  0  0  0  0  0  0
   10.9105  -17.9470   26.6329 C   0  0  0  0  0  0  0  0  0  0  0  0
   11.0310  -19.1109   27.3551 O   0  0  0  0  0  0  0  0  0  0  0  0
   12.7648  -18.9763   22.6512 O   0  0  0  0  0  0  0  0  0  0  0  0
   10.5536  -16.9133   27.2866 O   0  0  0  0  0  0  0  0  0  0  0  0
  2  8  1  0
  2  1  1  1
  3  2  1  0
  4  3  1  0
  5  6  1  0
  5  4  1  0
  7  6  1  0
  8  9  2  0
 10  8  1  0
 10 11  1  0
 11 12  1  1
 12 13  1  0
 14 15  2  0
 14 11  1  0
 16 14  1  0
 17 16  1  0
 17 18  1  1
 19 18  1  0
 19 20  2  0
 21 22  1  0
 21 17  1  0
 23 19  1  0
 24 21  2  0
M  END
$$$$
