KCD.pdb
     RDKit          3D

 24 23  0  0  1  0  0  0  0  0999 V2000
    7.8848  -13.8723   20.6324 N   0  0  0  0  0  0  0  0  0  0  0  0
    7.2836  -14.2893   21.8577 C   0  0  1  0  0  0  0  0  0  0  0  0
    6.9309  -15.7319   21.8110 C   0  0  0  0  0  0  0  0  0  0  0  0
    6.7892  -16.2453   20.4268 C   0  0  0  0  0  0  0  0  0  0  0  0
    6.4505  -17.6888   20.2677 C   0  0  0  0  0  0  0  0  0  0  0  0
    7.5920  -18.5462   19.7737 C   0  0  0  0  0  0  0  0  0  0  0  0
    7.0925  -19.9052   19.6464 N   0  0  0  0  0  0  0  0  0  0  0  0
    8.0861  -13.9247   23.0525 C   0  0  0  0  0  0  0  0  0  0  0  0
    9.3365  -13.8443   22.9569 O   0  0  0  0  0  0  0  0  0  0  0  0
    7.4781  -13.6626   24.3071 N   0  0  0  0  0  0  0  0  0  0  0  0
    8.2931  -13.4211   25.4936 C   0  0  1  0  0  0  0  0  0  0  0  0
    7.6775  -12.4029   26.4064 C   0  0  0  0  0  0  0  0  0  0  0  0
    5.9141  -12.8181   26.5616 S   0  0  0  0  0  0  0  0  0  0  0  0
    8.5946  -14.6986   26.1951 C   0  0  0  0  0  0  0  0  0  0  0  0
    7.6907  -15.5547   26.3606 O   0  0  0  0  0  0  0  0  0  0  0  0
    9.8855  -15.0050   26.6982 N   0  0  0  0  0  0  0  0  0  0  0  0
   10.1969  -16.2727   27.3775 C   0  0  1  0  0  0  0  0  0  0  0  0
   11.6168  -16.5848   26.9647 C   0  0  0  0  0  0  0  0  0  0  0  0
   11.8020  -16.7278   25.5131 C   0  0  0  0  0  0  0  0  0  0  0  0
   10.7985  -16.7257   24.7528 O   0  0  0  0  0  0  0  0  0  0  0  0
   10.0861  -16.1000   28.8360 C   0  0  0  0  0  0  0  0  0  0  0  0
   10.2326  -17.1231   29.7429 O   0  0  0  0  0  0  0  0  0  0  0  0
   13.0436  -16.8684   24.9468 O   0  0  0  0  0  0  0  0  0  0  0  0
    9.8406  -14.9480   29.3217 O   0  0  0  0  0  0  0  0  0  0  0  0
  2  8  1  0
  2  1  1  6
  3  2  1  0
  4  3  1  0
  5  6  1  0
  5  4  1  0
  7  6  1  0
  8  9  2  0
 10  8  1  0
 10 11  1  0
 11 12  1  1
 12 13  1  0
 14 15  2  0
 14 11  1  0
 16 14  1  0
 17 16  1  0
 17 18  1  1
 19 18  1  0
 19 20  2  0
 21 22  1  0
 21 17  1  0
 23 19  1  0
 24 21  2  0
M  END
$$$$
