KCD.pdb
     RDKit          3D

 24 23  0  0  1  0  0  0  0  0999 V2000
    7.9802  -14.3956   20.2273 N   0  0  0  0  0  0  0  0  0  0  0  0
    7.2456  -14.6940   21.4139 C   0  0  1  0  0  0  0  0  0  0  0  0
    6.6558  -16.0559   21.3437 C   0  0  0  0  0  0  0  0  0  0  0  0
    6.4787  -16.5354   19.9515 C   0  0  0  0  0  0  0  0  0  0  0  0
    7.2936  -17.7102   19.5275 C   0  0  0  0  0  0  0  0  0  0  0  0
    7.0330  -18.1718   18.1129 C   0  0  0  0  0  0  0  0  0  0  0  0
    7.9446  -19.2700   17.8382 N   0  0  0  0  0  0  0  0  0  0  0  0
    8.0268  -14.4613   22.6550 C   0  0  0  0  0  0  0  0  0  0  0  0
    9.2798  -14.5514   22.6234 O   0  0  0  0  0  0  0  0  0  0  0  0
    7.3954  -14.1379   23.8835 N   0  0  0  0  0  0  0  0  0  0  0  0
    8.1826  -13.9454   25.0974 C   0  0  1  0  0  0  0  0  0  0  0  0
    7.4781  -13.0791   26.0984 C   0  0  0  0  0  0  0  0  0  0  0  0
    8.5757  -12.9232   27.5395 S   0  0  0  0  0  0  0  0  0  0  0  0
    8.5918  -15.2550   25.6737 C   0  0  0  0  0  0  0  0  0  0  0  0
    7.7289  -16.1366   25.9095 O   0  0  0  0  0  0  0  0  0  0  0  0
    9.9430  -15.5650   25.9770 N   0  0  0  0  0  0  0  0  0  0  0  0
   10.3435  -16.8073   26.6563 C   0  0  1  0  0  0  0  0  0  0  0  0
   11.7658  -17.0448   26.2038 C   0  0  0  0  0  0  0  0  0  0  0  0
   11.8778  -17.6349   24.8618 C   0  0  0  0  0  0  0  0  0  0  0  0
   10.8365  -17.8673   24.1933 O   0  0  0  0  0  0  0  0  0  0  0  0
   10.2662  -16.6274   28.1161 C   0  0  0  0  0  0  0  0  0  0  0  0
   10.2117  -17.6664   29.0152 O   0  0  0  0  0  0  0  0  0  0  0  0
   13.0903  -17.9496   24.3025 O   0  0  0  0  0  0  0  0  0  0  0  0
   10.2466  -15.4534   28.6107 O   0  0  0  0  0  0  0  0  0  0  0  0
  2  8  1  0
  2  1  1  6
  3  2  1  0
  4  3  1  0
  5  6  1  0
  5  4  1  0
  7  6  1  0
  8  9  2  0
 10  8  1  0
 10 11  1  0
 11 12  1  1
 12 13  1  0
 14 15  2  0
 14 11  1  0
 16 14  1  0
 17 16  1  0
 17 18  1  1
 19 18  1  0
 19 20  2  0
 21 22  1  0
 21 17  1  0
 23 19  1  0
 24 21  2  0
M  END
$$$$
