KCD.pdb
     RDKit          3D

 24 23  0  0  1  0  0  0  0  0999 V2000
    8.5021  -16.0611   17.9411 N   0  0  0  0  0  0  0  0  0  0  0  0
    9.1505  -14.8038   18.1298 C   0  0  1  0  0  0  0  0  0  0  0  0
    8.8464  -13.8772   17.0088 C   0  0  0  0  0  0  0  0  0  0  0  0
    7.8501  -14.4298   16.0593 C   0  0  0  0  0  0  0  0  0  0  0  0
    8.0140  -14.0779   14.6194 C   0  0  0  0  0  0  0  0  0  0  0  0
    6.8617  -14.5012   13.7391 C   0  0  0  0  0  0  0  0  0  0  0  0
    7.1271  -13.9972   12.4020 N   0  0  0  0  0  0  0  0  0  0  0  0
    8.8876  -14.2088   19.4644 C   0  0  0  0  0  0  0  0  0  0  0  0
    9.4353  -13.1216   19.7759 O   0  0  0  0  0  0  0  0  0  0  0  0
    8.0304  -14.8363   20.4045 N   0  0  0  0  0  0  0  0  0  0  0  0
    7.9997  -14.3945   21.7952 C   0  0  1  0  0  0  0  0  0  0  0  0
    6.7269  -14.7844   22.4858 C   0  0  0  0  0  0  0  0  0  0  0  0
    6.7942  -14.0917   24.1656 S   0  0  0  0  0  0  0  0  0  0  0  0
    9.2062  -14.8689   22.5260 C   0  0  0  0  0  0  0  0  0  0  0  0
    9.3588  -14.5863   23.7401 O   0  0  0  0  0  0  0  0  0  0  0  0
   10.2179  -15.6450   21.9031 N   0  0  0  0  0  0  0  0  0  0  0  0
   11.4121  -16.1214   22.6187 C   0  0  1  0  0  0  0  0  0  0  0  0
   10.8901  -17.1773   23.5656 C   0  0  0  0  0  0  0  0  0  0  0  0
   11.9307  -17.8157   24.3850 C   0  0  0  0  0  0  0  0  0  0  0  0
   13.0905  -17.3266   24.4130 O   0  0  0  0  0  0  0  0  0  0  0  0
   12.3775  -16.6874   21.6611 C   0  0  0  0  0  0  0  0  0  0  0  0
   13.7337  -16.4675   21.7185 O   0  0  0  0  0  0  0  0  0  0  0  0
   11.6843  -18.9418   25.1289 O   0  0  0  0  0  0  0  0  0  0  0  0
   11.9673  -17.4293   20.7100 O   0  0  0  0  0  0  0  0  0  0  0  0
  2  8  1  0
  2  1  1  6
  3  2  1  0
  4  3  1  0
  5  6  1  0
  5  4  1  0
  7  6  1  0
  8  9  2  0
 10  8  1  0
 10 11  1  0
 11 12  1  1
 12 13  1  0
 14 15  2  0
 14 11  1  0
 16 14  1  0
 17 16  1  0
 17 18  1  1
 19 18  1  0
 19 20  2  0
 21 22  1  0
 21 17  1  0
 23 19  1  0
 24 21  2  0
M  END
$$$$
