KCD.pdb
     RDKit          3D

 24 23  0  0  1  0  0  0  0  0999 V2000
    7.6682  -13.0165   19.7011 N   0  0  0  0  0  0  0  0  0  0  0  0
    7.0726  -13.7810   20.7487 C   0  0  1  0  0  0  0  0  0  0  0  0
    6.6877  -15.1324   20.2658 C   0  0  0  0  0  0  0  0  0  0  0  0
    7.5319  -15.6038   19.1413 C   0  0  0  0  0  0  0  0  0  0  0  0
    7.1891  -16.9248   18.5401 C   0  0  0  0  0  0  0  0  0  0  0  0
    8.0748  -17.3335   17.3866 C   0  0  0  0  0  0  0  0  0  0  0  0
    7.5800  -18.6055   16.8869 N   0  0  0  0  0  0  0  0  0  0  0  0
    7.8972  -13.8170   21.9830 C   0  0  0  0  0  0  0  0  0  0  0  0
    9.1458  -13.9240   21.8900 O   0  0  0  0  0  0  0  0  0  0  0  0
    7.3124  -13.7333   23.2727 N   0  0  0  0  0  0  0  0  0  0  0  0
    8.1311  -13.8776   24.4724 C   0  0  1  0  0  0  0  0  0  0  0  0
    7.4093  -13.4300   25.7083 C   0  0  0  0  0  0  0  0  0  0  0  0
    5.6544  -13.8511   25.4868 S   0  0  0  0  0  0  0  0  0  0  0  0
    8.6487  -15.2676   24.5935 C   0  0  0  0  0  0  0  0  0  0  0  0
    7.9857  -16.2290   24.1316 O   0  0  0  0  0  0  0  0  0  0  0  0
    9.8859  -15.5678   25.2205 N   0  0  0  0  0  0  0  0  0  0  0  0
   10.4147  -16.9368   25.3273 C   0  0  1  0  0  0  0  0  0  0  0  0
   11.8052  -16.8524   24.7412 C   0  0  0  0  0  0  0  0  0  0  0  0
   12.5780  -18.0987   24.8481 C   0  0  0  0  0  0  0  0  0  0  0  0
   12.2126  -19.1168   24.2039 O   0  0  0  0  0  0  0  0  0  0  0  0
   10.4505  -17.3513   26.7401 C   0  0  0  0  0  0  0  0  0  0  0  0
   10.7550  -18.6254   27.1583 O   0  0  0  0  0  0  0  0  0  0  0  0
   13.6964  -18.1978   25.6364 O   0  0  0  0  0  0  0  0  0  0  0  0
   10.1892  -16.5055   27.6564 O   0  0  0  0  0  0  0  0  0  0  0  0
  2  8  1  0
  2  1  1  6
  3  2  1  0
  4  3  1  0
  5  6  1  0
  5  4  1  0
  7  6  1  0
  8  9  2  0
 10  8  1  0
 10 11  1  0
 11 12  1  1
 12 13  1  0
 14 15  2  0
 14 11  1  0
 16 14  1  0
 17 16  1  0
 17 18  1  1
 19 18  1  0
 19 20  2  0
 21 22  1  0
 21 17  1  0
 23 19  1  0
 24 21  2  0
M  END
$$$$
