WQQ.pdb
     RDKit          3D

 33 34  0  0  1  0  0  0  0  0999 V2000
    8.6353  -14.7931   24.1803 N   0  0  0  0  0  0  0  0  0  0  0  0
    8.5346  -16.2510   24.2280 C   0  0  1  0  0  0  0  0  0  0  0  0
    7.2799  -16.5632   24.9884 C   0  0  0  0  0  0  0  0  0  0  0  0
    6.6744  -15.4060   25.6741 C   0  0  0  0  0  0  0  0  0  0  0  0
    5.4597  -15.4149   26.3667 C   0  0  0  0  0  0  0  0  0  0  0  0
    5.1971  -14.1814   26.8630 N   0  0  0  0  0  0  0  0  0  0  0  0
    6.2163  -13.3658   26.5088 C   0  0  0  0  0  0  0  0  0  0  0  0
    6.4946  -12.0603   26.7158 C   0  0  0  0  0  0  0  0  0  0  0  0
    7.6115  -11.4347   26.2553 C   0  0  0  0  0  0  0  0  0  0  0  0
    8.5411  -12.1771   25.5160 C   0  0  0  0  0  0  0  0  0  0  0  0
    8.2744  -13.5105   25.2931 C   0  0  0  0  0  0  0  0  0  0  0  0
    7.1425  -14.1225   25.7669 C   0  0  0  0  0  0  0  0  0  0  0  0
    8.4887  -16.8047   22.8279 C   0  0  0  0  0  0  0  0  0  0  0  0
    8.1969  -18.0135   22.6562 O   0  0  0  0  0  0  0  0  0  0  0  0
    8.5505  -13.9797   17.1517 N   0  0  0  0  0  0  0  0  0  0  0  0
    7.9211  -13.7688   18.3865 C   0  0  0  0  0  0  0  0  0  0  0  0
    6.9806  -12.8852   18.4107 O   0  0  0  0  0  0  0  0  0  0  0  0
    8.2538  -14.4795   19.6643 C   0  0  0  0  0  0  0  0  0  0  0  0
    9.2749  -15.5388   19.3600 C   0  0  0  0  0  0  0  0  0  0  0  0
    9.7308  -16.1231   20.7056 C   0  0  2  0  0  0  0  0  0  0  0  0
    8.7775  -15.9447   21.7460 N   0  0  0  0  0  0  0  0  0  0  0  0
   11.1114  -15.7583   21.0132 C   0  0  0  0  0  0  0  0  0  0  0  0
   11.4144  -14.7531   21.6540 O   0  0  0  0  0  0  0  0  0  0  0  0
   11.9888  -19.6614   25.2015 N   0  0  0  0  0  0  0  0  0  0  0  0
   11.9793  -18.2565   25.1008 C   0  0  0  0  0  0  0  0  0  0  0  0
   11.3691  -17.5892   25.9874 O   0  0  0  0  0  0  0  0  0  0  0  0
   12.6514  -17.5126   24.0187 C   0  0  0  0  0  0  0  0  0  0  0  0
   12.2977  -17.8436   22.6391 C   0  0  0  0  0  0  0  0  0  0  0  0
   13.0976  -17.2220   21.5506 C   0  0  2  0  0  0  0  0  0  0  0  0
   12.2209  -16.5820   20.5743 N   0  0  0  0  0  0  0  0  0  0  0  0
   14.1681  -18.0250   21.0013 C   0  0  0  0  0  0  0  0  0  0  0  0
   15.3228  -17.9198   21.4048 O   0  0  0  0  0  0  0  0  0  0  0  0
   13.8459  -18.9384   19.9972 O   0  0  0  0  0  0  0  0  0  0  0  0
  2  1  1  6
  2  3  1  0
  3  4  1  0
  4  5  2  0
  5  6  1  0
  7  6  1  0
  8  7  2  0
  9  8  1  0
 10 11  1  0
 10  9  2  0
 11 12  2  0
 12  4  1  0
 12  7  1  0
 13 14  2  0
 13  2  1  0
 15 16  1  0
 16 17  2  0
 18 19  1  0
 18 16  1  0
 20 19  1  6
 20 21  1  0
 21 13  1  0
 22 30  1  0
 22 20  1  0
 23 22  2  0
 24 25  1  0
 25 26  2  0
 27 28  1  0
 27 25  1  0
 29 28  1  1
 29 30  1  0
 29 31  1  0
 31 33  1  0
 32 31  2  0
M  END
$$$$
