WQQ.pdb
     RDKit          3D

 33 34  0  0  1  0  0  0  0  0999 V2000
    8.2124  -16.5335   23.8985 N   0  0  0  0  0  0  0  0  0  0  0  0
    9.3037  -15.6757   24.3581 C   0  0  1  0  0  0  0  0  0  0  0  0
    9.0095  -15.3499   25.7925 C   0  0  0  0  0  0  0  0  0  0  0  0
    7.7338  -14.6426   26.0116 C   0  0  0  0  0  0  0  0  0  0  0  0
    6.4834  -15.2490   26.1664 C   0  0  0  0  0  0  0  0  0  0  0  0
    5.5257  -14.3055   26.3369 N   0  0  0  0  0  0  0  0  0  0  0  0
    6.1250  -13.0936   26.2966 C   0  0  0  0  0  0  0  0  0  0  0  0
    5.6861  -11.8208   26.4055 C   0  0  0  0  0  0  0  0  0  0  0  0
    6.4909  -10.7262   26.3344 C   0  0  0  0  0  0  0  0  0  0  0  0
    7.8644  -10.9138   26.1337 C   0  0  0  0  0  0  0  0  0  0  0  0
    8.3313  -12.2052   26.0189 C   0  0  0  0  0  0  0  0  0  0  0  0
    7.5031  -13.2954   26.0943 C   0  0  0  0  0  0  0  0  0  0  0  0
   10.6168  -16.3985   24.2100 C   0  0  0  0  0  0  0  0  0  0  0  0
   11.6786  -15.8137   24.5366 O   0  0  0  0  0  0  0  0  0  0  0  0
   10.6090  -22.7752   23.8730 N   0  0  0  0  0  0  0  0  0  0  0  0
   11.1999  -22.0781   24.9362 C   0  0  0  0  0  0  0  0  0  0  0  0
   11.3944  -22.7437   26.0247 O   0  0  0  0  0  0  0  0  0  0  0  0
   11.6153  -20.6376   24.9069 C   0  0  0  0  0  0  0  0  0  0  0  0
   11.2998  -20.0858   23.5455 C   0  0  0  0  0  0  0  0  0  0  0  0
   11.7144  -18.6066   23.5532 C   0  0  2  0  0  0  0  0  0  0  0  0
   10.6150  -17.7171   23.7052 N   0  0  0  0  0  0  0  0  0  0  0  0
   12.6576  -18.3041   22.4797 C   0  0  0  0  0  0  0  0  0  0  0  0
   12.7396  -18.9706   21.4491 O   0  0  0  0  0  0  0  0  0  0  0  0
   12.5655  -13.3938   19.0900 N   0  0  0  0  0  0  0  0  0  0  0  0
   13.0671  -14.6966   18.9034 C   0  0  0  0  0  0  0  0  0  0  0  0
   13.4848  -15.0267   17.7544 O   0  0  0  0  0  0  0  0  0  0  0  0
   13.1420  -15.7028   19.9795 C   0  0  0  0  0  0  0  0  0  0  0  0
   14.3645  -15.7588   20.7797 C   0  0  0  0  0  0  0  0  0  0  0  0
   14.6150  -16.9886   21.5771 C   0  0  2  0  0  0  0  0  0  0  0  0
   13.5626  -17.1752   22.5717 N   0  0  0  0  0  0  0  0  0  0  0  0
   15.9678  -17.1824   22.0510 C   0  0  0  0  0  0  0  0  0  0  0  0
   16.2161  -17.3298   23.2442 O   0  0  0  0  0  0  0  0  0  0  0  0
   16.9912  -17.2074   21.1031 O   0  0  0  0  0  0  0  0  0  0  0  0
  2  1  1  1
  2  3  1  0
  3  4  1  0
  4  5  2  0
  5  6  1  0
  7  6  1  0
  8  7  2  0
  9  8  1  0
 10 11  1  0
 10  9  2  0
 11 12  2  0
 12  4  1  0
 12  7  1  0
 13 14  2  0
 13  2  1  0
 15 16  1  0
 16 17  2  0
 18 19  1  0
 18 16  1  0
 20 19  1  6
 20 21  1  0
 21 13  1  0
 22 30  1  0
 22 20  1  0
 23 22  2  0
 24 25  1  0
 25 26  2  0
 27 28  1  0
 27 25  1  0
 29 28  1  1
 29 30  1  0
 29 31  1  0
 31 33  1  0
 32 31  2  0
M  END
$$$$
