WQQ.pdb
     RDKit          3D

 33 34  0  0  1  0  0  0  0  0999 V2000
    6.4145  -17.4914   24.5275 N   0  0  0  0  0  0  0  0  0  0  0  0
    7.5792  -16.6835   24.1688 C   0  0  1  0  0  0  0  0  0  0  0  0
    7.9918  -15.9599   25.4163 C   0  0  0  0  0  0  0  0  0  0  0  0
    7.0989  -14.8527   25.8068 C   0  0  0  0  0  0  0  0  0  0  0  0
    5.8617  -14.9911   26.4434 C   0  0  0  0  0  0  0  0  0  0  0  0
    5.3018  -13.7733   26.6439 N   0  0  0  0  0  0  0  0  0  0  0  0
    6.1486  -12.8409   26.1511 C   0  0  0  0  0  0  0  0  0  0  0  0
    6.1235  -11.4927   26.0714 C   0  0  0  0  0  0  0  0  0  0  0  0
    7.1147  -10.7411   25.5205 C   0  0  0  0  0  0  0  0  0  0  0  0
    8.2389  -11.3916   24.9960 C   0  0  0  0  0  0  0  0  0  0  0  0
    8.2824  -12.7671   25.0668 C   0  0  0  0  0  0  0  0  0  0  0  0
    7.2727  -13.5064   25.6272 C   0  0  0  0  0  0  0  0  0  0  0  0
    8.6785  -17.5750   23.6536 C   0  0  0  0  0  0  0  0  0  0  0  0
    8.8468  -18.7044   24.1754 O   0  0  0  0  0  0  0  0  0  0  0  0
   14.3901  -16.3466   19.1436 N   0  0  0  0  0  0  0  0  0  0  0  0
   13.1901  -17.0281   19.3904 C   0  0  0  0  0  0  0  0  0  0  0  0
   12.4480  -17.2788   18.3647 O   0  0  0  0  0  0  0  0  0  0  0  0
   12.7080  -17.4797   20.7366 C   0  0  0  0  0  0  0  0  0  0  0  0
   11.3176  -16.9479   20.9399 C   0  0  0  0  0  0  0  0  0  0  0  0
   10.8506  -17.4283   22.3223 C   0  0  2  0  0  0  0  0  0  0  0  0
    9.4911  -17.1120   22.5958 N   0  0  0  0  0  0  0  0  0  0  0  0
   11.8210  -17.1020   23.3641 C   0  0  0  0  0  0  0  0  0  0  0  0
   12.0559  -15.9505   23.7272 O   0  0  0  0  0  0  0  0  0  0  0  0
   11.3605  -15.4244   28.2453 N   0  0  0  0  0  0  0  0  0  0  0  0
   11.2473  -16.8268   28.1801 C   0  0  0  0  0  0  0  0  0  0  0  0
   10.5142  -17.4160   29.0280 O   0  0  0  0  0  0  0  0  0  0  0  0
   11.9319  -17.6533   27.1680 C   0  0  0  0  0  0  0  0  0  0  0  0
   12.7349  -16.9693   26.1555 C   0  0  0  0  0  0  0  0  0  0  0  0
   13.4524  -17.8067   25.1581 C   0  0  2  0  0  0  0  0  0  0  0  0
   12.5709  -18.1405   24.0432 N   0  0  0  0  0  0  0  0  0  0  0  0
   14.2396  -18.9000   25.6848 C   0  0  0  0  0  0  0  0  0  0  0  0
   15.1076  -18.7168   26.5334 O   0  0  0  0  0  0  0  0  0  0  0  0
   13.9748  -20.1824   25.2035 O   0  0  0  0  0  0  0  0  0  0  0  0
  2  1  1  1
  2  3  1  0
  3  4  1  0
  4  5  2  0
  5  6  1  0
  7  6  1  0
  8  7  2  0
  9  8  1  0
 10 11  1  0
 10  9  2  0
 11 12  2  0
 12  4  1  0
 12  7  1  0
 13 14  2  0
 13  2  1  0
 15 16  1  0
 16 17  2  0
 18 19  1  0
 18 16  1  0
 20 19  1  6
 20 21  1  0
 21 13  1  0
 22 30  1  0
 22 20  1  0
 23 22  2  0
 24 25  1  0
 25 26  2  0
 27 28  1  0
 27 25  1  0
 29 28  1  1
 29 30  1  0
 29 31  1  0
 31 33  1  0
 32 31  2  0
M  END
$$$$
