WQQ.pdb
     RDKit          3D

 33 34  0  0  1  0  0  0  0  0999 V2000
    6.8404  -16.8252   23.3693 N   0  0  0  0  0  0  0  0  0  0  0  0
    8.0459  -16.0020   23.4523 C   0  0  1  0  0  0  0  0  0  0  0  0
    8.3146  -15.7924   24.9131 C   0  0  0  0  0  0  0  0  0  0  0  0
    7.3898  -14.8556   25.5786 C   0  0  0  0  0  0  0  0  0  0  0  0
    6.3172  -15.2168   26.3998 C   0  0  0  0  0  0  0  0  0  0  0  0
    5.6692  -14.1088   26.8345 N   0  0  0  0  0  0  0  0  0  0  0  0
    6.2968  -13.0297   26.3138 C   0  0  0  0  0  0  0  0  0  0  0  0
    6.1034  -11.6955   26.3969 C   0  0  0  0  0  0  0  0  0  0  0  0
    6.8818  -10.7701   25.7733 C   0  0  0  0  0  0  0  0  0  0  0  0
    7.9551  -11.2129   24.9898 C   0  0  0  0  0  0  0  0  0  0  0  0
    8.1680  -12.5708   24.8917 C   0  0  0  0  0  0  0  0  0  0  0  0
    7.3719  -13.4873   25.5291 C   0  0  0  0  0  0  0  0  0  0  0  0
    9.1909  -16.7050   22.7715 C   0  0  0  0  0  0  0  0  0  0  0  0
    9.5499  -17.8344   23.1857 O   0  0  0  0  0  0  0  0  0  0  0  0
   12.8319  -13.3632   18.3950 N   0  0  0  0  0  0  0  0  0  0  0  0
   13.3658  -14.6400   18.6190 C   0  0  0  0  0  0  0  0  0  0  0  0
   14.2718  -15.0394   17.7911 O   0  0  0  0  0  0  0  0  0  0  0  0
   12.9687  -15.5655   19.7299 C   0  0  0  0  0  0  0  0  0  0  0  0
   11.5121  -15.3457   20.0257 C   0  0  0  0  0  0  0  0  0  0  0  0
   11.1393  -16.2935   21.1758 C   0  0  2  0  0  0  0  0  0  0  0  0
    9.8298  -16.0701   21.6842 N   0  0  0  0  0  0  0  0  0  0  0  0
   12.2141  -16.3990   22.1592 C   0  0  0  0  0  0  0  0  0  0  0  0
   12.9003  -15.4406   22.5106 O   0  0  0  0  0  0  0  0  0  0  0  0
   13.7349  -20.7599   26.5020 N   0  0  0  0  0  0  0  0  0  0  0  0
   12.5288  -20.6190   25.7882 C   0  0  0  0  0  0  0  0  0  0  0  0
   11.6972  -21.5737   25.8085 O   0  0  0  0  0  0  0  0  0  0  0  0
   12.1731  -19.4109   25.0200 C   0  0  0  0  0  0  0  0  0  0  0  0
   13.0941  -18.2762   25.0644 C   0  0  0  0  0  0  0  0  0  0  0  0
   13.6094  -17.7510   23.7723 C   0  0  2  0  0  0  0  0  0  0  0  0
   12.5324  -17.6648   22.7904 N   0  0  0  0  0  0  0  0  0  0  0  0
   14.8494  -18.3229   23.2952 C   0  0  0  0  0  0  0  0  0  0  0  0
   14.9191  -18.8922   22.2097 O   0  0  0  0  0  0  0  0  0  0  0  0
   15.9771  -18.1991   24.1072 O   0  0  0  0  0  0  0  0  0  0  0  0
  2  1  1  1
  2  3  1  0
  3  4  1  0
  4  5  2  0
  5  6  1  0
  7  6  1  0
  8  7  2  0
  9  8  1  0
 10 11  1  0
 10  9  2  0
 11 12  2  0
 12  4  1  0
 12  7  1  0
 13 14  2  0
 13  2  1  0
 15 16  1  0
 16 17  2  0
 18 19  1  0
 18 16  1  0
 20 19  1  6
 20 21  1  0
 21 13  1  0
 22 30  1  0
 22 20  1  0
 23 22  2  0
 24 25  1  0
 25 26  2  0
 27 28  1  0
 27 25  1  0
 29 28  1  1
 29 30  1  0
 29 31  1  0
 31 33  1  0
 32 31  2  0
M  END
$$$$
