WQQ.pdb
     RDKit          3D

 33 34  0  0  1  0  0  0  0  0999 V2000
    6.5844  -17.6714   24.3726 N   0  0  0  0  0  0  0  0  0  0  0  0
    7.0481  -16.4636   23.6913 C   0  0  1  0  0  0  0  0  0  0  0  0
    7.8230  -15.6769   24.7067 C   0  0  0  0  0  0  0  0  0  0  0  0
    7.0027  -14.7848   25.5475 C   0  0  0  0  0  0  0  0  0  0  0  0
    5.9455  -15.1867   26.3698 C   0  0  0  0  0  0  0  0  0  0  0  0
    5.4031  -14.1111   26.9907 N   0  0  0  0  0  0  0  0  0  0  0  0
    6.0848  -13.0135   26.5909 C   0  0  0  0  0  0  0  0  0  0  0  0
    5.9958  -11.6949   26.8700 C   0  0  0  0  0  0  0  0  0  0  0  0
    6.8114  -10.7444   26.3385 C   0  0  0  0  0  0  0  0  0  0  0  0
    7.8110  -11.1419   25.4414 C   0  0  0  0  0  0  0  0  0  0  0  0
    7.9169  -12.4830   25.1430 C   0  0  0  0  0  0  0  0  0  0  0  0
    7.0849  -13.4255   25.6904 C   0  0  0  0  0  0  0  0  0  0  0  0
    7.9029  -16.8413   22.5100 C   0  0  0  0  0  0  0  0  0  0  0  0
    8.4266  -17.9816   22.4722 O   0  0  0  0  0  0  0  0  0  0  0  0
    8.3226  -12.4650   17.9543 N   0  0  0  0  0  0  0  0  0  0  0  0
    8.0058  -13.8061   17.6958 C   0  0  0  0  0  0  0  0  0  0  0  0
    7.3128  -14.0401   16.6324 O   0  0  0  0  0  0  0  0  0  0  0  0
    8.4028  -14.9730   18.5496 C   0  0  0  0  0  0  0  0  0  0  0  0
    9.1185  -14.4462   19.7611 C   0  0  0  0  0  0  0  0  0  0  0  0
    9.2749  -15.6220   20.7372 C   0  0  2  0  0  0  0  0  0  0  0  0
    8.0916  -15.8977   21.4768 N   0  0  0  0  0  0  0  0  0  0  0  0
   10.5170  -15.5296   21.5001 C   0  0  0  0  0  0  0  0  0  0  0  0
   10.6195  -14.8850   22.5426 O   0  0  0  0  0  0  0  0  0  0  0  0
   10.9710  -19.0316   25.3112 N   0  0  0  0  0  0  0  0  0  0  0  0
   12.3380  -18.6933   25.2820 C   0  0  0  0  0  0  0  0  0  0  0  0
   13.0911  -19.1326   26.2004 O   0  0  0  0  0  0  0  0  0  0  0  0
   12.9482  -17.8576   24.2307 C   0  0  0  0  0  0  0  0  0  0  0  0
   12.0860  -17.3784   23.1513 C   0  0  0  0  0  0  0  0  0  0  0  0
   12.7241  -16.6348   22.0330 C   0  0  2  0  0  0  0  0  0  0  0  0
   11.7193  -16.2115   21.0622 N   0  0  0  0  0  0  0  0  0  0  0  0
   13.9267  -17.2166   21.4783 C   0  0  0  0  0  0  0  0  0  0  0  0
   14.9142  -17.4369   22.1737 O   0  0  0  0  0  0  0  0  0  0  0  0
   13.9287  -17.5327   20.1195 O   0  0  0  0  0  0  0  0  0  0  0  0
  2  1  1  1
  2  3  1  0
  3  4  1  0
  4  5  2  0
  5  6  1  0
  7  6  1  0
  8  7  2  0
  9  8  1  0
 10 11  1  0
 10  9  2  0
 11 12  2  0
 12  4  1  0
 12  7  1  0
 13 14  2  0
 13  2  1  0
 15 16  1  0
 16 17  2  0
 18 19  1  0
 18 16  1  0
 20 19  1  1
 20 21  1  0
 21 13  1  0
 22 30  1  0
 22 20  1  0
 23 22  2  0
 24 25  1  0
 25 26  2  0
 27 28  1  0
 27 25  1  0
 29 28  1  1
 29 30  1  0
 29 31  1  0
 31 33  1  0
 32 31  2  0
M  END
$$$$
