WQQ.pdb
     RDKit          3D

 33 34  0  0  1  0  0  0  0  0999 V2000
    6.3760  -17.5051   24.3103 N   0  0  0  0  0  0  0  0  0  0  0  0
    7.2173  -16.4947   23.6707 C   0  0  1  0  0  0  0  0  0  0  0  0
    7.9364  -15.7816   24.7772 C   0  0  0  0  0  0  0  0  0  0  0  0
    7.0819  -14.9021   25.5971 C   0  0  0  0  0  0  0  0  0  0  0  0
    6.0357  -15.3242   26.4233 C   0  0  0  0  0  0  0  0  0  0  0  0
    5.4535  -14.2560   27.0205 N   0  0  0  0  0  0  0  0  0  0  0  0
    6.0983  -13.1434   26.6014 C   0  0  0  0  0  0  0  0  0  0  0  0
    5.9623  -11.8234   26.8538 C   0  0  0  0  0  0  0  0  0  0  0  0
    6.7467  -10.8559   26.3065 C   0  0  0  0  0  0  0  0  0  0  0  0
    7.7635  -11.2360   25.4212 C   0  0  0  0  0  0  0  0  0  0  0  0
    7.9173  -12.5783   25.1501 C   0  0  0  0  0  0  0  0  0  0  0  0
    7.1162  -13.5381   25.7131 C   0  0  0  0  0  0  0  0  0  0  0  0
    8.1786  -17.1593   22.7204 C   0  0  0  0  0  0  0  0  0  0  0  0
    8.6572  -18.2811   23.0178 O   0  0  0  0  0  0  0  0  0  0  0  0
    7.6353  -15.2603   17.4468 N   0  0  0  0  0  0  0  0  0  0  0  0
    8.1678  -14.3447   18.3653 C   0  0  0  0  0  0  0  0  0  0  0  0
    7.6993  -13.1430   18.3189 O   0  0  0  0  0  0  0  0  0  0  0  0
    9.2272  -14.6497   19.3817 C   0  0  0  0  0  0  0  0  0  0  0  0
    9.5430  -16.1166   19.3048 C   0  0  0  0  0  0  0  0  0  0  0  0
    9.7044  -16.6176   20.7481 C   0  0  2  0  0  0  0  0  0  0  0  0
    8.5153  -16.4979   21.5193 N   0  0  0  0  0  0  0  0  0  0  0  0
   10.9339  -16.1188   21.3589 C   0  0  0  0  0  0  0  0  0  0  0  0
   11.0008  -15.0452   21.9553 O   0  0  0  0  0  0  0  0  0  0  0  0
   10.4504  -19.1867   25.5730 N   0  0  0  0  0  0  0  0  0  0  0  0
   11.7923  -18.8324   25.8128 C   0  0  0  0  0  0  0  0  0  0  0  0
   12.3164  -19.1560   26.9193 O   0  0  0  0  0  0  0  0  0  0  0  0
   12.6304  -18.1083   24.8385 C   0  0  0  0  0  0  0  0  0  0  0  0
   12.0334  -17.7559   23.5512 C   0  0  0  0  0  0  0  0  0  0  0  0
   12.9206  -17.1650   22.5145 C   0  0  2  0  0  0  0  0  0  0  0  0
   12.1654  -16.8815   21.2976 N   0  0  0  0  0  0  0  0  0  0  0  0
   14.2016  -17.8088   22.3225 C   0  0  0  0  0  0  0  0  0  0  0  0
   14.3345  -18.7611   21.5591 O   0  0  0  0  0  0  0  0  0  0  0  0
   15.2943  -17.3054   23.0288 O   0  0  0  0  0  0  0  0  0  0  0  0
  2  1  1  1
  2  3  1  0
  3  4  1  0
  4  5  2  0
  5  6  1  0
  7  6  1  0
  8  7  2  0
  9  8  1  0
 10 11  1  0
 10  9  2  0
 11 12  2  0
 12  4  1  0
 12  7  1  0
 13 14  2  0
 13  2  1  0
 15 16  1  0
 16 17  2  0
 18 19  1  0
 18 16  1  0
 20 19  1  6
 20 21  1  0
 21 13  1  0
 22 30  1  0
 22 20  1  0
 23 22  2  0
 24 25  1  0
 25 26  2  0
 27 28  1  0
 27 25  1  0
 29 28  1  1
 29 30  1  0
 29 31  1  0
 31 33  1  0
 32 31  2  0
M  END
$$$$
