WQQ.pdb
     RDKit          3D

 33 34  0  0  1  0  0  0  0  0999 V2000
    6.1902  -17.5551   23.7601 N   0  0  0  0  0  0  0  0  0  0  0  0
    7.1053  -16.4314   23.5656 C   0  0  1  0  0  0  0  0  0  0  0  0
    7.6090  -16.0561   24.9277 C   0  0  0  0  0  0  0  0  0  0  0  0
    6.7562  -15.0965   25.6541 C   0  0  0  0  0  0  0  0  0  0  0  0
    5.6763  -15.4292   26.4778 C   0  0  0  0  0  0  0  0  0  0  0  0
    5.1068  -14.3050   26.9764 N   0  0  0  0  0  0  0  0  0  0  0  0
    5.7930  -13.2434   26.4951 C   0  0  0  0  0  0  0  0  0  0  0  0
    5.6857  -11.9053   26.6445 C   0  0  0  0  0  0  0  0  0  0  0  0
    6.5110  -11.0014   26.0504 C   0  0  0  0  0  0  0  0  0  0  0  0
    7.5413  -11.4721   25.2265 C   0  0  0  0  0  0  0  0  0  0  0  0
    7.6663  -12.8343   25.0606 C   0  0  0  0  0  0  0  0  0  0  0  0
    6.8241  -13.7290   25.6693 C   0  0  0  0  0  0  0  0  0  0  0  0
    8.2291  -16.8420   22.6506 C   0  0  0  0  0  0  0  0  0  0  0  0
    8.4736  -18.0628   22.4899 O   0  0  0  0  0  0  0  0  0  0  0  0
    9.1264  -12.7456   18.2866 N   0  0  0  0  0  0  0  0  0  0  0  0
    8.4746  -13.9774   18.4397 C   0  0  0  0  0  0  0  0  0  0  0  0
    7.2244  -14.0116   18.1211 O   0  0  0  0  0  0  0  0  0  0  0  0
    9.1093  -15.2401   18.9407 C   0  0  0  0  0  0  0  0  0  0  0  0
   10.0940  -14.8760   20.0156 C   0  0  0  0  0  0  0  0  0  0  0  0
   10.0428  -15.9931   21.0689 C   0  0  2  0  0  0  0  0  0  0  0  0
    8.9781  -15.8379   21.9993 N   0  0  0  0  0  0  0  0  0  0  0  0
   11.3639  -16.2713   21.6263 C   0  0  0  0  0  0  0  0  0  0  0  0
   11.9599  -15.4896   22.3657 O   0  0  0  0  0  0  0  0  0  0  0  0
   15.0831  -17.9504   17.1865 N   0  0  0  0  0  0  0  0  0  0  0  0
   15.9332  -17.9033   18.3085 C   0  0  0  0  0  0  0  0  0  0  0  0
   17.1848  -17.9577   18.1236 O   0  0  0  0  0  0  0  0  0  0  0  0
   15.4456  -17.7849   19.6957 C   0  0  0  0  0  0  0  0  0  0  0  0
   14.0016  -17.6966   19.9080 C   0  0  0  0  0  0  0  0  0  0  0  0
   13.5141  -17.5559   21.3057 C   0  0  2  0  0  0  0  0  0  0  0  0
   12.0552  -17.5121   21.3356 N   0  0  0  0  0  0  0  0  0  0  0  0
   14.1884  -16.5731   22.1253 C   0  0  0  0  0  0  0  0  0  0  0  0
   13.6402  -15.5248   22.4537 O   0  0  0  0  0  0  0  0  0  0  0  0
   15.4883  -16.8577   22.5443 O   0  0  0  0  0  0  0  0  0  0  0  0
  2  1  1  1
  2  3  1  0
  3  4  1  0
  4  5  2  0
  5  6  1  0
  7  6  1  0
  8  7  2  0
  9  8  1  0
 10 11  1  0
 10  9  2  0
 11 12  2  0
 12  4  1  0
 12  7  1  0
 13 14  2  0
 13  2  1  0
 15 16  1  0
 16 17  2  0
 18 19  1  0
 18 16  1  0
 20 19  1  1
 20 21  1  0
 21 13  1  0
 22 30  1  0
 22 20  1  0
 23 22  2  0
 24 25  1  0
 25 26  2  0
 27 28  1  0
 27 25  1  0
 29 28  1  6
 29 30  1  0
 29 31  1  0
 31 33  1  0
 32 31  2  0
M  END
$$$$
