WQQ.pdb
     RDKit          3D

 33 34  0  0  1  0  0  0  0  0999 V2000
    6.6574  -18.4030   25.1835 N   0  0  0  0  0  0  0  0  0  0  0  0
    6.8277  -17.0347   24.6970 C   0  0  1  0  0  0  0  0  0  0  0  0
    7.4432  -16.2592   25.8239 C   0  0  0  0  0  0  0  0  0  0  0  0
    6.7628  -14.9887   26.1375 C   0  0  0  0  0  0  0  0  0  0  0  0
    5.3966  -14.8394   26.3955 C   0  0  0  0  0  0  0  0  0  0  0  0
    5.1067  -13.5371   26.6336 N   0  0  0  0  0  0  0  0  0  0  0  0
    6.2565  -12.8315   26.5367 C   0  0  0  0  0  0  0  0  0  0  0  0
    6.5753  -11.5256   26.6699 C   0  0  0  0  0  0  0  0  0  0  0  0
    7.8333  -11.0276   26.5268 C   0  0  0  0  0  0  0  0  0  0  0  0
    8.8753  -11.9119   26.2197 C   0  0  0  0  0  0  0  0  0  0  0  0
    8.5697  -13.2482   26.0785 C   0  0  0  0  0  0  0  0  0  0  0  0
    7.2947  -13.7301   26.2276 C   0  0  0  0  0  0  0  0  0  0  0  0
    7.7087  -17.0343   23.4753 C   0  0  0  0  0  0  0  0  0  0  0  0
    8.5855  -17.9241   23.3517 O   0  0  0  0  0  0  0  0  0  0  0  0
    6.9219  -12.8292   18.5183 N   0  0  0  0  0  0  0  0  0  0  0  0
    8.1405  -13.5040   18.3595 C   0  0  0  0  0  0  0  0  0  0  0  0
    8.7711  -13.3022   17.2516 O   0  0  0  0  0  0  0  0  0  0  0  0
    8.7576  -14.4314   19.3632 C   0  0  0  0  0  0  0  0  0  0  0  0
    7.7867  -14.6106   20.4957 C   0  0  0  0  0  0  0  0  0  0  0  0
    8.4083  -15.6290   21.4634 C   0  0  2  0  0  0  0  0  0  0  0  0
    7.5224  -16.0285   22.5020 N   0  0  0  0  0  0  0  0  0  0  0  0
    9.7563  -15.2375   21.8674 C   0  0  0  0  0  0  0  0  0  0  0  0
    9.9825  -14.3193   22.6540 O   0  0  0  0  0  0  0  0  0  0  0  0
   10.8114  -17.9121   26.1125 N   0  0  0  0  0  0  0  0  0  0  0  0
   12.1677  -17.7352   25.7764 C   0  0  0  0  0  0  0  0  0  0  0  0
   13.0500  -18.0642   26.6231 O   0  0  0  0  0  0  0  0  0  0  0  0
   12.6223  -17.1927   24.4822 C   0  0  0  0  0  0  0  0  0  0  0  0
   11.6042  -16.8200   23.5011 C   0  0  0  0  0  0  0  0  0  0  0  0
   12.0617  -16.2027   22.2281 C   0  0  2  0  0  0  0  0  0  0  0  0
   10.9237  -15.9285   21.3557 N   0  0  0  0  0  0  0  0  0  0  0  0
   13.2067  -16.8164   21.5918 C   0  0  0  0  0  0  0  0  0  0  0  0
   14.2821  -16.9283   22.1734 O   0  0  0  0  0  0  0  0  0  0  0  0
   13.0495  -17.2910   20.2894 O   0  0  0  0  0  0  0  0  0  0  0  0
  2  1  1  1
  2  3  1  0
  3  4  1  0
  4  5  2  0
  5  6  1  0
  7  6  1  0
  8  7  2  0
  9  8  1  0
 10 11  1  0
 10  9  2  0
 11 12  2  0
 12  4  1  0
 12  7  1  0
 13 14  2  0
 13  2  1  0
 15 16  1  0
 16 17  2  0
 18 19  1  0
 18 16  1  0
 20 19  1  1
 20 21  1  0
 21 13  1  0
 22 30  1  0
 22 20  1  0
 23 22  2  0
 24 25  1  0
 25 26  2  0
 27 28  1  0
 27 25  1  0
 29 28  1  1
 29 30  1  0
 29 31  1  0
 31 33  1  0
 32 31  2  0
M  END
$$$$
