WQQ.pdb
     RDKit          3D

 33 34  0  0  1  0  0  0  0  0999 V2000
    5.9536  -17.9800   24.4474 N   0  0  0  0  0  0  0  0  0  0  0  0
    6.7546  -16.9086   23.8573 C   0  0  1  0  0  0  0  0  0  0  0  0
    7.4483  -16.2230   24.9970 C   0  0  0  0  0  0  0  0  0  0  0  0
    6.6500  -15.1744   25.6594 C   0  0  0  0  0  0  0  0  0  0  0  0
    5.4256  -15.3704   26.3058 C   0  0  0  0  0  0  0  0  0  0  0  0
    4.9616  -14.1935   26.7919 N   0  0  0  0  0  0  0  0  0  0  0  0
    5.8584  -13.2314   26.4763 C   0  0  0  0  0  0  0  0  0  0  0  0
    5.9285  -11.9001   26.6935 C   0  0  0  0  0  0  0  0  0  0  0  0
    6.9545  -11.1105   26.2754 C   0  0  0  0  0  0  0  0  0  0  0  0
    8.0124  -11.6999   25.5715 C   0  0  0  0  0  0  0  0  0  0  0  0
    7.9585  -13.0571   25.3389 C   0  0  0  0  0  0  0  0  0  0  0  0
    6.9152  -13.8355   25.7697 C   0  0  0  0  0  0  0  0  0  0  0  0
    7.7385  -17.4894   22.8759 C   0  0  0  0  0  0  0  0  0  0  0  0
    8.2192  -18.6289   23.0915 O   0  0  0  0  0  0  0  0  0  0  0  0
    9.2595  -13.7804   17.8585 N   0  0  0  0  0  0  0  0  0  0  0  0
    8.9423  -13.4341   19.1795 C   0  0  0  0  0  0  0  0  0  0  0  0
    8.6148  -12.2037   19.3902 O   0  0  0  0  0  0  0  0  0  0  0  0
    8.9567  -14.3703   20.3507 C   0  0  0  0  0  0  0  0  0  0  0  0
    9.3458  -15.7347   19.8562 C   0  0  0  0  0  0  0  0  0  0  0  0
    9.3501  -16.6699   21.0750 C   0  0  2  0  0  0  0  0  0  0  0  0
    8.0935  -16.7317   21.7386 N   0  0  0  0  0  0  0  0  0  0  0  0
   10.5248  -16.4558   21.9163 C   0  0  0  0  0  0  0  0  0  0  0  0
   11.6693  -16.3941   21.4699 O   0  0  0  0  0  0  0  0  0  0  0  0
   12.7006  -16.0839   29.0606 N   0  0  0  0  0  0  0  0  0  0  0  0
   11.9015  -15.6101   28.0020 C   0  0  0  0  0  0  0  0  0  0  0  0
   10.8047  -15.0406   28.2780 O   0  0  0  0  0  0  0  0  0  0  0  0
   12.2760  -15.7328   26.5804 C   0  0  0  0  0  0  0  0  0  0  0  0
   11.2124  -16.0002   25.6134 C   0  0  0  0  0  0  0  0  0  0  0  0
   11.5853  -16.0734   24.1759 C   0  0  2  0  0  0  0  0  0  0  0  0
   10.4008  -16.2962   23.3520 N   0  0  0  0  0  0  0  0  0  0  0  0
   12.7371  -16.8860   23.8517 C   0  0  0  0  0  0  0  0  0  0  0  0
   13.8417  -16.3869   23.6564 O   0  0  0  0  0  0  0  0  0  0  0  0
   12.5575  -18.2675   23.7763 O   0  0  0  0  0  0  0  0  0  0  0  0
  2  1  1  1
  2  3  1  0
  3  4  1  0
  4  5  2  0
  5  6  1  0
  7  6  1  0
  8  7  2  0
  9  8  1  0
 10 11  1  0
 10  9  2  0
 11 12  2  0
 12  4  1  0
 12  7  1  0
 13 14  2  0
 13  2  1  0
 15 16  1  0
 16 17  2  0
 18 19  1  0
 18 16  1  0
 20 19  1  6
 20 21  1  0
 21 13  1  0
 22 30  1  0
 22 20  1  0
 23 22  2  0
 24 25  1  0
 25 26  2  0
 27 28  1  0
 27 25  1  0
 29 28  1  1
 29 30  1  0
 29 31  1  0
 31 33  1  0
 32 31  2  0
M  END
$$$$
