WQQ.pdb
     RDKit          3D

 33 34  0  0  1  0  0  0  0  0999 V2000
    6.4760  -17.4435   23.9765 N   0  0  0  0  0  0  0  0  0  0  0  0
    7.7654  -16.7816   23.7834 C   0  0  1  0  0  0  0  0  0  0  0  0
    8.1245  -16.1633   25.1021 C   0  0  0  0  0  0  0  0  0  0  0  0
    7.2474  -15.0527   25.5178 C   0  0  0  0  0  0  0  0  0  0  0  0
    5.9724  -15.1880   26.0759 C   0  0  0  0  0  0  0  0  0  0  0  0
    5.4418  -13.9666   26.3278 N   0  0  0  0  0  0  0  0  0  0  0  0
    6.3447  -13.0349   25.9455 C   0  0  0  0  0  0  0  0  0  0  0  0
    6.3678  -11.6844   25.9561 C   0  0  0  0  0  0  0  0  0  0  0  0
    7.4123  -10.9344   25.5116 C   0  0  0  0  0  0  0  0  0  0  0  0
    8.5425  -11.5891   25.0058 C   0  0  0  0  0  0  0  0  0  0  0  0
    8.5375  -12.9670   24.9856 C   0  0  0  0  0  0  0  0  0  0  0  0
    7.4744  -13.7046   25.4393 C   0  0  0  0  0  0  0  0  0  0  0  0
    8.7946  -17.7894   23.3431 C   0  0  0  0  0  0  0  0  0  0  0  0
    8.6840  -18.9822   23.7184 O   0  0  0  0  0  0  0  0  0  0  0  0
   11.6280  -16.8712   18.5783 N   0  0  0  0  0  0  0  0  0  0  0  0
   11.0523  -16.0138   19.5264 C   0  0  0  0  0  0  0  0  0  0  0  0
   10.0979  -15.2514   19.1099 O   0  0  0  0  0  0  0  0  0  0  0  0
   11.4565  -15.9143   20.9669 C   0  0  0  0  0  0  0  0  0  0  0  0
   12.0473  -17.2323   21.3807 C   0  0  0  0  0  0  0  0  0  0  0  0
   11.2290  -17.7348   22.5798 C   0  0  2  0  0  0  0  0  0  0  0  0
    9.8580  -17.3608   22.5191 N   0  0  0  0  0  0  0  0  0  0  0  0
   11.9184  -17.4919   23.8445 C   0  0  0  0  0  0  0  0  0  0  0  0
   12.3942  -16.4002   24.1520 O   0  0  0  0  0  0  0  0  0  0  0  0
    9.0220  -20.2036   28.5129 N   0  0  0  0  0  0  0  0  0  0  0  0
   10.3643  -19.8522   28.7548 C   0  0  0  0  0  0  0  0  0  0  0  0
   10.7291  -19.6368   29.9481 O   0  0  0  0  0  0  0  0  0  0  0  0
   11.3785  -19.7283   27.6907 C   0  0  0  0  0  0  0  0  0  0  0  0
   11.7102  -18.3862   27.2148 C   0  0  0  0  0  0  0  0  0  0  0  0
   12.7044  -18.2668   26.1157 C   0  0  2  0  0  0  0  0  0  0  0  0
   12.0772  -18.5460   24.8273 N   0  0  0  0  0  0  0  0  0  0  0  0
   13.9872  -18.8969   26.3388 C   0  0  0  0  0  0  0  0  0  0  0  0
   14.6613  -18.6480   27.3343 O   0  0  0  0  0  0  0  0  0  0  0  0
   14.4364  -19.8118   25.3862 O   0  0  0  0  0  0  0  0  0  0  0  0
  2  1  1  1
  2  3  1  0
  3  4  1  0
  4  5  2  0
  5  6  1  0
  7  6  1  0
  8  7  2  0
  9  8  1  0
 10 11  1  0
 10  9  2  0
 11 12  2  0
 12  4  1  0
 12  7  1  0
 13 14  2  0
 13  2  1  0
 15 16  1  0
 16 17  2  0
 18 19  1  0
 18 16  1  0
 20 19  1  6
 20 21  1  0
 21 13  1  0
 22 30  1  0
 22 20  1  0
 23 22  2  0
 24 25  1  0
 25 26  2  0
 27 28  1  0
 27 25  1  0
 29 28  1  1
 29 30  1  0
 29 31  1  0
 31 33  1  0
 32 31  2  0
M  END
$$$$
