WQQ.pdb
     RDKit          3D

 33 34  0  0  1  0  0  0  0  0999 V2000
    8.3119  -13.6965   23.2296 N   0  0  0  0  0  0  0  0  0  0  0  0
    8.4066  -15.1516   23.3382 C   0  0  1  0  0  0  0  0  0  0  0  0
    7.0490  -15.6333   23.7563 C   0  0  0  0  0  0  0  0  0  0  0  0
    6.5070  -14.9723   24.9583 C   0  0  0  0  0  0  0  0  0  0  0  0
    5.7883  -15.6022   25.9791 C   0  0  0  0  0  0  0  0  0  0  0  0
    5.4307  -14.6985   26.9236 N   0  0  0  0  0  0  0  0  0  0  0  0
    5.9015  -13.4897   26.5409 C   0  0  0  0  0  0  0  0  0  0  0  0
    5.8527  -12.2481   27.0707 C   0  0  0  0  0  0  0  0  0  0  0  0
    6.4138  -11.1497   26.4967 C   0  0  0  0  0  0  0  0  0  0  0  0
    7.0869  -11.2983   25.2773 C   0  0  0  0  0  0  0  0  0  0  0  0
    7.1464  -12.5573   24.7201 C   0  0  0  0  0  0  0  0  0  0  0  0
    6.5746  -13.6521   25.3155 C   0  0  0  0  0  0  0  0  0  0  0  0
    8.8202  -15.7356   22.0128 C   0  0  0  0  0  0  0  0  0  0  0  0
    8.3700  -16.8561   21.6697 O   0  0  0  0  0  0  0  0  0  0  0  0
    7.6426  -13.4610   18.5151 N   0  0  0  0  0  0  0  0  0  0  0  0
    8.9922  -13.7796   18.3089 C   0  0  0  0  0  0  0  0  0  0  0  0
    9.2733  -14.4254   17.2274 O   0  0  0  0  0  0  0  0  0  0  0  0
   10.1182  -13.4344   19.2369 C   0  0  0  0  0  0  0  0  0  0  0  0
   11.1115  -14.5614   19.2092 C   0  0  0  0  0  0  0  0  0  0  0  0
   10.7678  -15.4920   20.3822 C   0  0  2  0  0  0  0  0  0  0  0  0
    9.7062  -15.0033   21.1930 N   0  0  0  0  0  0  0  0  0  0  0  0
   11.9675  -15.9481   21.0795 C   0  0  0  0  0  0  0  0  0  0  0  0
   12.9806  -16.3294   20.4955 O   0  0  0  0  0  0  0  0  0  0  0  0
   12.5233  -16.8288   27.5875 N   0  0  0  0  0  0  0  0  0  0  0  0
   13.5350  -17.5645   26.9402 C   0  0  0  0  0  0  0  0  0  0  0  0
   14.2552  -18.3434   27.6317 O   0  0  0  0  0  0  0  0  0  0  0  0
   13.7997  -17.4853   25.4912 C   0  0  0  0  0  0  0  0  0  0  0  0
   12.9047  -16.6651   24.6761 C   0  0  0  0  0  0  0  0  0  0  0  0
   13.1421  -16.6290   23.2087 C   0  0  2  0  0  0  0  0  0  0  0  0
   12.0307  -15.9712   22.5278 N   0  0  0  0  0  0  0  0  0  0  0  0
   13.6107  -17.8564   22.6035 C   0  0  0  0  0  0  0  0  0  0  0  0
   12.8336  -18.7463   22.2699 O   0  0  0  0  0  0  0  0  0  0  0  0
   14.9835  -17.9971   22.3987 O   0  0  0  0  0  0  0  0  0  0  0  0
  2  1  1  6
  2  3  1  0
  3  4  1  0
  4  5  2  0
  5  6  1  0
  7  6  1  0
  8  7  2  0
  9  8  1  0
 10 11  1  0
 10  9  2  0
 11 12  2  0
 12  4  1  0
 12  7  1  0
 13 14  2  0
 13  2  1  0
 15 16  1  0
 16 17  2  0
 18 19  1  0
 18 16  1  0
 20 19  1  6
 20 21  1  0
 21 13  1  0
 22 30  1  0
 22 20  1  0
 23 22  2  0
 24 25  1  0
 25 26  2  0
 27 28  1  0
 27 25  1  0
 29 28  1  1
 29 30  1  0
 29 31  1  0
 31 33  1  0
 32 31  2  0
M  END
$$$$
