WQQ.pdb
     RDKit          3D

 33 34  0  0  1  0  0  0  0  0999 V2000
    6.4998  -17.4488   24.7270 N   0  0  0  0  0  0  0  0  0  0  0  0
    7.1165  -16.3065   24.0540 C   0  0  1  0  0  0  0  0  0  0  0  0
    8.2523  -15.8640   24.9281 C   0  0  0  0  0  0  0  0  0  0  0  0
    7.8610  -14.9772   26.0400 C   0  0  0  0  0  0  0  0  0  0  0  0
    7.5032  -15.3941   27.3259 C   0  0  0  0  0  0  0  0  0  0  0  0
    7.1895  -14.3218   28.0931 N   0  0  0  0  0  0  0  0  0  0  0  0
    7.3352  -13.2116   27.3343 C   0  0  0  0  0  0  0  0  0  0  0  0
    7.1677  -11.8897   27.5558 C   0  0  0  0  0  0  0  0  0  0  0  0
    7.3806  -10.9251   26.6203 C   0  0  0  0  0  0  0  0  0  0  0  0
    7.7983  -11.3109   25.3402 C   0  0  0  0  0  0  0  0  0  0  0  0
    7.9737  -12.6554   25.0944 C   0  0  0  0  0  0  0  0  0  0  0  0
    7.7543  -13.6121   26.0518 C   0  0  0  0  0  0  0  0  0  0  0  0
    7.5950  -16.7184   22.6865 C   0  0  0  0  0  0  0  0  0  0  0  0
    7.8530  -17.9270   22.4658 O   0  0  0  0  0  0  0  0  0  0  0  0
    7.5202  -12.6494   17.5826 N   0  0  0  0  0  0  0  0  0  0  0  0
    8.2118  -13.8111   17.2115 C   0  0  0  0  0  0  0  0  0  0  0  0
    8.5880  -13.8892   15.9794 O   0  0  0  0  0  0  0  0  0  0  0  0
    8.5412  -14.9551   18.1232 C   0  0  0  0  0  0  0  0  0  0  0  0
    8.0057  -14.6352   19.4901 C   0  0  0  0  0  0  0  0  0  0  0  0
    8.2397  -15.8755   20.3658 C   0  0  2  0  0  0  0  0  0  0  0  0
    7.7408  -15.7291   21.6897 N   0  0  0  0  0  0  0  0  0  0  0  0
    9.6032  -16.3818   20.2323 C   0  0  0  0  0  0  0  0  0  0  0  0
    9.9581  -17.1248   19.3186 O   0  0  0  0  0  0  0  0  0  0  0  0
   13.7670  -14.0747   17.9556 N   0  0  0  0  0  0  0  0  0  0  0  0
   13.9659  -14.1928   19.3450 C   0  0  0  0  0  0  0  0  0  0  0  0
   15.0556  -13.7779   19.8389 O   0  0  0  0  0  0  0  0  0  0  0  0
   12.9668  -14.7684   20.2650 C   0  0  0  0  0  0  0  0  0  0  0  0
   12.9109  -16.2241   20.3903 C   0  0  0  0  0  0  0  0  0  0  0  0
   11.8647  -16.8039   21.2737 C   0  0  2  0  0  0  0  0  0  0  0  0
   10.6337  -16.0237   21.1872 N   0  0  0  0  0  0  0  0  0  0  0  0
   12.2825  -17.1709   22.6090 C   0  0  0  0  0  0  0  0  0  0  0  0
   11.7228  -16.7203   23.6044 O   0  0  0  0  0  0  0  0  0  0  0  0
   13.3436  -18.0679   22.7344 O   0  0  0  0  0  0  0  0  0  0  0  0
  2  1  1  1
  2  3  1  0
  3  4  1  0
  4  5  2  0
  5  6  1  0
  7  6  1  0
  8  7  2  0
  9  8  1  0
 10 11  1  0
 10  9  2  0
 11 12  2  0
 12  4  1  0
 12  7  1  0
 13 14  2  0
 13  2  1  0
 15 16  1  0
 16 17  2  0
 18 19  1  0
 18 16  1  0
 20 19  1  1
 20 21  1  0
 21 13  1  0
 22 30  1  0
 22 20  1  0
 23 22  2  0
 24 25  1  0
 25 26  2  0
 27 28  1  0
 27 25  1  0
 29 28  1  1
 29 30  1  0
 29 31  1  0
 31 33  1  0
 32 31  2  0
M  END
$$$$
