WQQ.pdb
     RDKit          3D

 33 34  0  0  1  0  0  0  0  0999 V2000
    6.3081  -17.1435   24.3141 N   0  0  0  0  0  0  0  0  0  0  0  0
    7.0030  -15.9852   23.7544 C   0  0  1  0  0  0  0  0  0  0  0  0
    7.9393  -15.4984   24.8205 C   0  0  0  0  0  0  0  0  0  0  0  0
    7.2924  -14.7297   25.9005 C   0  0  0  0  0  0  0  0  0  0  0  0
    6.7237  -15.2721   27.0571 C   0  0  0  0  0  0  0  0  0  0  0  0
    6.2069  -14.2855   27.8292 N   0  0  0  0  0  0  0  0  0  0  0  0
    6.4264  -13.1082   27.2004 C   0  0  0  0  0  0  0  0  0  0  0  0
    6.1410  -11.8193   27.4862 C   0  0  0  0  0  0  0  0  0  0  0  0
    6.4685  -10.7685   26.6863 C   0  0  0  0  0  0  0  0  0  0  0  0
    7.1431  -11.0228   25.4854 C   0  0  0  0  0  0  0  0  0  0  0  0
    7.4421  -12.3318   25.1756 C   0  0  0  0  0  0  0  0  0  0  0  0
    7.1037  -13.3769   25.9962 C   0  0  0  0  0  0  0  0  0  0  0  0
    7.7432  -16.3892   22.5064 C   0  0  0  0  0  0  0  0  0  0  0  0
    8.4224  -17.4449   22.5113 O   0  0  0  0  0  0  0  0  0  0  0  0
    7.1138  -13.2237   16.7941 N   0  0  0  0  0  0  0  0  0  0  0  0
    8.3571  -13.8702   16.8358 C   0  0  0  0  0  0  0  0  0  0  0  0
    9.1793  -13.6008   15.8781 O   0  0  0  0  0  0  0  0  0  0  0  0
    8.7980  -14.8391   17.8918 C   0  0  0  0  0  0  0  0  0  0  0  0
    8.0496  -14.5273   19.1568 C   0  0  0  0  0  0  0  0  0  0  0  0
    8.4609  -15.5832   20.1940 C   0  0  2  0  0  0  0  0  0  0  0  0
    7.6519  -15.5648   21.3637 N   0  0  0  0  0  0  0  0  0  0  0  0
    9.9070  -15.6052   20.3985 C   0  0  0  0  0  0  0  0  0  0  0  0
   10.6125  -14.6008   20.3202 O   0  0  0  0  0  0  0  0  0  0  0  0
   12.9953  -19.5317   24.3011 N   0  0  0  0  0  0  0  0  0  0  0  0
   12.0005  -18.5388   24.3924 C   0  0  0  0  0  0  0  0  0  0  0  0
   11.3519  -18.4280   25.4744 O   0  0  0  0  0  0  0  0  0  0  0  0
   11.6746  -17.6087   23.2949 C   0  0  0  0  0  0  0  0  0  0  0  0
   12.4136  -17.7449   22.0406 C   0  0  0  0  0  0  0  0  0  0  0  0
   12.0472  -16.8404   20.9187 C   0  0  2  0  0  0  0  0  0  0  0  0
   10.6014  -16.8377   20.7164 N   0  0  0  0  0  0  0  0  0  0  0  0
   12.8485  -16.9477   19.7192 C   0  0  0  0  0  0  0  0  0  0  0  0
   14.0612  -16.7573   19.7370 O   0  0  0  0  0  0  0  0  0  0  0  0
   12.1990  -17.2867   18.5320 O   0  0  0  0  0  0  0  0  0  0  0  0
  2  1  1  1
  2  3  1  0
  3  4  1  0
  4  5  2  0
  5  6  1  0
  7  6  1  0
  8  7  2  0
  9  8  1  0
 10 11  1  0
 10  9  2  0
 11 12  2  0
 12  4  1  0
 12  7  1  0
 13 14  2  0
 13  2  1  0
 15 16  1  0
 16 17  2  0
 18 19  1  0
 18 16  1  0
 20 19  1  6
 20 21  1  0
 21 13  1  0
 22 30  1  0
 22 20  1  0
 23 22  2  0
 24 25  1  0
 25 26  2  0
 27 28  1  0
 27 25  1  0
 29 28  1  1
 29 30  1  0
 29 31  1  0
 31 33  1  0
 32 31  2  0
M  END
$$$$
