YCR.pdb
     RDKit          3D

 30 30  0  0  1  0  0  0  0  0999 V2000
   28.2618  -13.1729  -17.9317 O   0  0  0  0  0  0  0  0  0  0  0  0
   27.8446  -14.3149  -17.2837 C   0  0  0  0  0  0  0  0  0  0  0  0
   27.6429  -15.4786  -18.0223 C   0  0  0  0  0  0  0  0  0  0  0  0
   27.2313  -16.6123  -17.3966 C   0  0  0  0  0  0  0  0  0  0  0  0
   26.9950  -16.6831  -16.0403 C   0  0  0  0  0  0  0  0  0  0  0  0
   26.5491  -17.8939  -15.3617 C   0  0  0  0  0  0  0  0  0  0  0  0
   27.5880  -18.6241  -14.5696 C   0  0  2  0  0  0  0  0  0  0  0  0
   28.4594  -19.2842  -15.5580 N   0  0  0  0  0  0  0  0  0  0  0  0
   27.0171  -19.7351  -13.7426 C   0  0  0  0  0  0  0  0  0  0  0  0
   26.8774  -20.8706  -14.3064 O   0  0  0  0  0  0  0  0  0  0  0  0
   27.1938  -15.5364  -15.3116 C   0  0  0  0  0  0  0  0  0  0  0  0
   27.6140  -14.3614  -15.9201 C   0  0  0  0  0  0  0  0  0  0  0  0
   26.6343  -19.5949  -12.4030 N   0  0  0  0  0  0  0  0  0  0  0  0
   25.9480  -20.7044  -11.7052 C   0  0  1  0  0  0  0  0  0  0  0  0
   25.8749  -20.2957  -10.2442 C   0  0  0  0  0  0  0  0  0  0  0  0
   24.8314  -21.4172   -9.3162 S   0  0  0  0  0  0  0  0  0  0  0  0
   24.6361  -20.9307  -12.3181 C   0  0  0  0  0  0  0  0  0  0  0  0
   23.9434  -19.9038  -12.6369 O   0  0  0  0  0  0  0  0  0  0  0  0
   20.4836  -28.6283  -14.8398 N   0  0  0  0  0  0  0  0  0  0  0  0
   19.5497  -27.5426  -14.8121 C   0  0  0  0  0  0  0  0  0  0  0  0
   18.3093  -27.7681  -15.0493 N   0  0  0  0  0  0  0  0  0  0  0  0
   19.9580  -26.2176  -14.5303 N   0  0  0  0  0  0  0  0  0  0  0  0
   21.3752  -25.9176  -14.1922 C   0  0  0  0  0  0  0  0  0  0  0  0
   21.4213  -24.4682  -13.9240 C   0  0  0  0  0  0  0  0  0  0  0  0
   22.6164  -23.7714  -13.4950 C   0  0  0  0  0  0  0  0  0  0  0  0
   22.7089  -22.3281  -13.2164 C   0  0  2  0  0  0  0  0  0  0  0  0
   24.0740  -22.1817  -12.5873 N   0  0  0  0  0  0  0  0  0  0  0  0
   21.8103  -21.8713  -12.1566 C   0  0  0  0  0  0  0  0  0  0  0  0
   20.8937  -21.0626  -12.3376 O   0  0  0  0  0  0  0  0  0  0  0  0
   21.9566  -22.3477  -10.8527 O   0  0  0  0  0  0  0  0  0  0  0  0
  2 12  2  0
  2  1  1  0
  3  2  1  0
  4  5  1  0
  4  3  2  0
  5 11  2  0
  6  5  1  0
  7  8  1  6
  7  6  1  0
  9  7  1  0
 10  9  2  0
 11 12  1  0
 13  9  1  0
 14 17  1  0
 14 13  1  0
 14 15  1  1
 16 15  1  0
 17 18  2  0
 20 22  1  0
 20 19  1  0
 21 20  2  0
 23 24  1  0
 23 22  1  0
 26 25  1  1
 25 24  1  0
 27 26  1  0
 27 17  1  0
 28 30  1  0
 28 26  1  0
 29 28  2  0
M  END
$$$$
