YCR.pdb
     RDKit          3D

 30 30  0  0  1  0  0  0  0  0999 V2000
   28.9892  -15.1208  -18.4241 O   0  0  0  0  0  0  0  0  0  0  0  0
   28.3749  -15.9864  -17.5458 C   0  0  0  0  0  0  0  0  0  0  0  0
   28.8006  -16.0229  -16.2200 C   0  0  0  0  0  0  0  0  0  0  0  0
   28.2040  -16.8718  -15.3426 C   0  0  0  0  0  0  0  0  0  0  0  0
   27.1765  -17.7213  -15.6936 C   0  0  0  0  0  0  0  0  0  0  0  0
   26.5340  -18.6381  -14.7600 C   0  0  0  0  0  0  0  0  0  0  0  0
   27.3271  -19.8477  -14.3754 C   0  0  2  0  0  0  0  0  0  0  0  0
   27.4363  -20.6642  -15.5975 N   0  0  0  0  0  0  0  0  0  0  0  0
   26.6199  -20.7175  -13.3818 C   0  0  0  0  0  0  0  0  0  0  0  0
   25.8478  -21.6221  -13.8425 O   0  0  0  0  0  0  0  0  0  0  0  0
   26.7563  -17.6857  -17.0004 C   0  0  0  0  0  0  0  0  0  0  0  0
   27.3445  -16.8301  -17.9219 C   0  0  0  0  0  0  0  0  0  0  0  0
   26.7596  -20.5917  -11.9941 N   0  0  0  0  0  0  0  0  0  0  0  0
   25.8798  -21.3588  -11.0851 C   0  0  1  0  0  0  0  0  0  0  0  0
   26.4650  -21.1850   -9.6943 C   0  0  0  0  0  0  0  0  0  0  0  0
   25.9594  -19.6239   -8.9766 S   0  0  0  0  0  0  0  0  0  0  0  0
   24.5037  -20.8701  -11.2085 C   0  0  0  0  0  0  0  0  0  0  0  0
   24.3336  -19.6622  -11.5932 O   0  0  0  0  0  0  0  0  0  0  0  0
   18.9415  -23.9078  -16.2493 N   0  0  0  0  0  0  0  0  0  0  0  0
   19.7901  -22.7556  -16.1846 C   0  0  0  0  0  0  0  0  0  0  0  0
   20.3172  -22.2962  -17.2602 N   0  0  0  0  0  0  0  0  0  0  0  0
   20.0680  -22.1048  -14.9595 N   0  0  0  0  0  0  0  0  0  0  0  0
   19.4320  -22.5652  -13.6961 C   0  0  0  0  0  0  0  0  0  0  0  0
   20.0021  -21.7174  -12.6325 C   0  0  0  0  0  0  0  0  0  0  0  0
   21.3520  -21.8650  -12.1288 C   0  0  0  0  0  0  0  0  0  0  0  0
   21.9676  -21.0324  -11.0814 C   0  0  2  0  0  0  0  0  0  0  0  0
   23.3530  -21.6171  -10.9412 N   0  0  0  0  0  0  0  0  0  0  0  0
   21.3925  -21.2333   -9.7516 C   0  0  0  0  0  0  0  0  0  0  0  0
   21.9512  -21.8725   -8.8537 O   0  0  0  0  0  0  0  0  0  0  0  0
   20.1464  -20.6916   -9.4320 O   0  0  0  0  0  0  0  0  0  0  0  0
  2 12  2  0
  2  1  1  0
  3  2  1  0
  4  5  1  0
  4  3  2  0
  5 11  2  0
  6  5  1  0
  7  8  1  6
  7  6  1  0
  9  7  1  0
 10  9  2  0
 11 12  1  0
 13  9  1  0
 14 17  1  0
 14 13  1  0
 14 15  1  1
 16 15  1  0
 17 18  2  0
 20 22  1  0
 20 19  1  0
 21 20  2  0
 23 24  1  0
 23 22  1  0
 26 25  1  6
 25 24  1  0
 27 26  1  0
 27 17  1  0
 28 30  1  0
 28 26  1  0
 29 28  2  0
M  END
$$$$
