YCR.pdb
     RDKit          3D

 30 30  0  0  1  0  0  0  0  0999 V2000
   28.9299  -14.0841  -17.4906 O   0  0  0  0  0  0  0  0  0  0  0  0
   28.2607  -15.1775  -16.9859 C   0  0  0  0  0  0  0  0  0  0  0  0
   28.0393  -15.2633  -15.6134 C   0  0  0  0  0  0  0  0  0  0  0  0
   27.3809  -16.3360  -15.1016 C   0  0  0  0  0  0  0  0  0  0  0  0
   26.9062  -17.3716  -15.8779 C   0  0  0  0  0  0  0  0  0  0  0  0
   26.2028  -18.5281  -15.3367 C   0  0  0  0  0  0  0  0  0  0  0  0
   27.0206  -19.4640  -14.5029 C   0  0  2  0  0  0  0  0  0  0  0  0
   27.8692  -20.2106  -15.4487 N   0  0  0  0  0  0  0  0  0  0  0  0
   26.1931  -20.5031  -13.8103 C   0  0  0  0  0  0  0  0  0  0  0  0
   25.9935  -21.5997  -14.4304 O   0  0  0  0  0  0  0  0  0  0  0  0
   27.1239  -17.2876  -17.2311 C   0  0  0  0  0  0  0  0  0  0  0  0
   27.7932  -16.2052  -17.7860 C   0  0  0  0  0  0  0  0  0  0  0  0
   25.6352  -20.3366  -12.5368 N   0  0  0  0  0  0  0  0  0  0  0  0
   24.7344  -21.3688  -11.9783 C   0  0  1  0  0  0  0  0  0  0  0  0
   25.1661  -21.5615  -10.5349 C   0  0  0  0  0  0  0  0  0  0  0  0
   24.9664  -20.0478   -9.5985 S   0  0  0  0  0  0  0  0  0  0  0  0
   23.3426  -20.9327  -12.1218 C   0  0  0  0  0  0  0  0  0  0  0  0
   23.0952  -19.6835  -12.0022 O   0  0  0  0  0  0  0  0  0  0  0  0
   20.7593  -26.9968  -12.3643 N   0  0  0  0  0  0  0  0  0  0  0  0
   21.3064  -26.8283  -13.6774 C   0  0  0  0  0  0  0  0  0  0  0  0
   22.1767  -27.6642  -14.1128 N   0  0  0  0  0  0  0  0  0  0  0  0
   20.9137  -25.7576  -14.5147 N   0  0  0  0  0  0  0  0  0  0  0  0
   19.9142  -24.7592  -14.0489 C   0  0  0  0  0  0  0  0  0  0  0  0
   20.6992  -23.6310  -13.5143 C   0  0  0  0  0  0  0  0  0  0  0  0
   20.1149  -22.3665  -13.1174 C   0  0  0  0  0  0  0  0  0  0  0  0
   20.8475  -21.2398  -12.5148 C   0  0  2  0  0  0  0  0  0  0  0  0
   22.2549  -21.7711  -12.3814 N   0  0  0  0  0  0  0  0  0  0  0  0
   20.4706  -20.9626  -11.1290 C   0  0  0  0  0  0  0  0  0  0  0  0
   21.0915  -21.3937  -10.1514 O   0  0  0  0  0  0  0  0  0  0  0  0
   19.3561  -20.1715  -10.8450 O   0  0  0  0  0  0  0  0  0  0  0  0
  2 12  2  0
  2  1  1  0
  3  2  1  0
  4  5  1  0
  4  3  2  0
  5 11  2  0
  6  5  1  0
  7  8  1  6
  7  6  1  0
  9  7  1  0
 10  9  2  0
 11 12  1  0
 13  9  1  0
 14 17  1  0
 14 13  1  0
 14 15  1  1
 16 15  1  0
 17 18  2  0
 20 22  1  0
 20 19  1  0
 21 20  2  0
 23 24  1  0
 23 22  1  0
 26 25  1  1
 25 24  1  0
 27 26  1  0
 27 17  1  0
 28 30  1  0
 28 26  1  0
 29 28  2  0
M  END
$$$$
