YCR.pdb
     RDKit          3D

 30 30  0  0  1  0  0  0  0  0999 V2000
   29.1734  -19.6427   -6.0477 O   0  0  0  0  0  0  0  0  0  0  0  0
   28.5183  -19.8029   -7.2491 C   0  0  0  0  0  0  0  0  0  0  0  0
   27.1813  -19.4248   -7.3484 C   0  0  0  0  0  0  0  0  0  0  0  0
   26.5226  -19.5772   -8.5269 C   0  0  0  0  0  0  0  0  0  0  0  0
   27.1117  -20.0967   -9.6599 C   0  0  0  0  0  0  0  0  0  0  0  0
   26.4112  -20.2678  -10.9268 C   0  0  0  0  0  0  0  0  0  0  0  0
   25.3262  -21.2984  -10.9442 C   0  0  2  0  0  0  0  0  0  0  0  0
   25.9959  -22.5853  -11.2041 N   0  0  0  0  0  0  0  0  0  0  0  0
   24.3667  -21.1165  -12.0801 C   0  0  0  0  0  0  0  0  0  0  0  0
   24.7034  -21.5983  -13.2120 O   0  0  0  0  0  0  0  0  0  0  0  0
   28.4298  -20.4694   -9.5627 C   0  0  0  0  0  0  0  0  0  0  0  0
   29.1317  -20.3270   -8.3734 C   0  0  0  0  0  0  0  0  0  0  0  0
   23.1377  -20.4550  -11.9666 N   0  0  0  0  0  0  0  0  0  0  0  0
   22.2203  -20.3856  -13.1252 C   0  0  1  0  0  0  0  0  0  0  0  0
   20.8877  -19.9094  -12.5732 C   0  0  0  0  0  0  0  0  0  0  0  0
   20.2059  -21.1034  -11.4254 S   0  0  0  0  0  0  0  0  0  0  0  0
   22.7854  -19.4964  -14.1440 C   0  0  0  0  0  0  0  0  0  0  0  0
   23.2376  -18.3633  -13.7600 O   0  0  0  0  0  0  0  0  0  0  0  0
   28.8788  -20.9932  -20.2093 N   0  0  0  0  0  0  0  0  0  0  0  0
   28.3291  -19.6948  -20.4616 C   0  0  0  0  0  0  0  0  0  0  0  0
   28.8281  -18.9657  -21.3918 N   0  0  0  0  0  0  0  0  0  0  0  0
   27.2445  -19.1873  -19.7081 N   0  0  0  0  0  0  0  0  0  0  0  0
   26.5776  -20.0294  -18.6791 C   0  0  0  0  0  0  0  0  0  0  0  0
   25.4610  -19.2159  -18.1629 C   0  0  0  0  0  0  0  0  0  0  0  0
   24.6344  -19.6115  -17.0413 C   0  0  0  0  0  0  0  0  0  0  0  0
   23.5154  -18.8295  -16.4884 C   0  0  2  0  0  0  0  0  0  0  0  0
   22.8743  -19.7836  -15.5089 N   0  0  0  0  0  0  0  0  0  0  0  0
   22.4406  -18.5751  -17.4474 C   0  0  0  0  0  0  0  0  0  0  0  0
   21.4745  -19.3285  -17.6084 O   0  0  0  0  0  0  0  0  0  0  0  0
   22.4634  -17.4308  -18.2464 O   0  0  0  0  0  0  0  0  0  0  0  0
  2 12  2  0
  2  1  1  0
  3  2  1  0
  4  5  1  0
  4  3  2  0
  5 11  2  0
  6  5  1  0
  7  8  1  6
  7  6  1  0
  9  7  1  0
 10  9  2  0
 11 12  1  0
 13  9  1  0
 14 17  1  0
 14 13  1  0
 14 15  1  1
 16 15  1  0
 17 18  2  0
 20 22  1  0
 20 19  1  0
 21 20  2  0
 23 24  1  0
 23 22  1  0
 26 25  1  6
 25 24  1  0
 27 26  1  0
 27 17  1  0
 28 30  1  0
 28 26  1  0
 29 28  2  0
M  END
$$$$
