YCR.pdb
     RDKit          3D

 30 30  0  0  1  0  0  0  0  0999 V2000
   27.0681  -16.1955  -26.4903 O   0  0  0  0  0  0  0  0  0  0  0  0
   26.7077  -16.5876  -25.2197 C   0  0  0  0  0  0  0  0  0  0  0  0
   27.4889  -17.5286  -24.5530 C   0  0  0  0  0  0  0  0  0  0  0  0
   27.1454  -17.9248  -23.2995 C   0  0  0  0  0  0  0  0  0  0  0  0
   26.0423  -17.4398  -22.6299 C   0  0  0  0  0  0  0  0  0  0  0  0
   25.6641  -17.8626  -21.2870 C   0  0  0  0  0  0  0  0  0  0  0  0
   25.7288  -16.8111  -20.2240 C   0  0  2  0  0  0  0  0  0  0  0  0
   27.1548  -16.6742  -19.8778 N   0  0  0  0  0  0  0  0  0  0  0  0
   25.0522  -17.2239  -18.9528 C   0  0  0  0  0  0  0  0  0  0  0  0
   25.7685  -17.8049  -18.0718 O   0  0  0  0  0  0  0  0  0  0  0  0
   25.2719  -16.5120  -23.2865 C   0  0  0  0  0  0  0  0  0  0  0  0
   25.5950  -16.0859  -24.5676 C   0  0  0  0  0  0  0  0  0  0  0  0
   23.6947  -17.0090  -18.6846 N   0  0  0  0  0  0  0  0  0  0  0  0
   23.1155  -17.4334  -17.3911 C   0  0  1  0  0  0  0  0  0  0  0  0
   22.8628  -16.1561  -16.6089 C   0  0  0  0  0  0  0  0  0  0  0  0
   21.9481  -16.4947  -15.1067 S   0  0  0  0  0  0  0  0  0  0  0  0
   21.9048  -18.2232  -17.6329 C   0  0  0  0  0  0  0  0  0  0  0  0
   21.0349  -17.7464  -18.4403 O   0  0  0  0  0  0  0  0  0  0  0  0
   18.1729  -23.8350  -13.8811 N   0  0  0  0  0  0  0  0  0  0  0  0
   17.8219  -24.6506  -15.0051 C   0  0  0  0  0  0  0  0  0  0  0  0
   16.7676  -25.3797  -14.9537 N   0  0  0  0  0  0  0  0  0  0  0  0
   18.6106  -24.6777  -16.1793 N   0  0  0  0  0  0  0  0  0  0  0  0
   19.9102  -23.9562  -16.2354 C   0  0  0  0  0  0  0  0  0  0  0  0
   19.5863  -22.5887  -16.6826 C   0  0  0  0  0  0  0  0  0  0  0  0
   20.5797  -21.5511  -16.8684 C   0  0  0  0  0  0  0  0  0  0  0  0
   20.2981  -20.1626  -17.2710 C   0  0  2  0  0  0  0  0  0  0  0  0
   21.6184  -19.4625  -17.0536 N   0  0  0  0  0  0  0  0  0  0  0  0
   19.3989  -19.4535  -16.3609 C   0  0  0  0  0  0  0  0  0  0  0  0
   19.7575  -18.9748  -15.2796 O   0  0  0  0  0  0  0  0  0  0  0  0
   18.0530  -19.2823  -16.6891 O   0  0  0  0  0  0  0  0  0  0  0  0
  2 12  2  0
  2  1  1  0
  3  2  1  0
  4  5  1  0
  4  3  2  0
  5 11  2  0
  6  5  1  0
  7  8  1  1
  7  6  1  0
  9  7  1  0
 10  9  2  0
 11 12  1  0
 13  9  1  0
 14 17  1  0
 14 13  1  0
 14 15  1  1
 16 15  1  0
 17 18  2  0
 20 22  1  0
 20 19  1  0
 21 20  2  0
 23 24  1  0
 23 22  1  0
 26 25  1  1
 25 24  1  0
 27 26  1  0
 27 17  1  0
 28 30  1  0
 28 26  1  0
 29 28  2  0
M  END
$$$$
