YCR.pdb
     RDKit          3D

 30 30  0  0  1  0  0  0  0  0999 V2000
   29.4652  -18.9915   -3.6014 O   0  0  0  0  0  0  0  0  0  0  0  0
   28.9143  -19.4043   -4.7948 C   0  0  0  0  0  0  0  0  0  0  0  0
   29.0893  -20.7248   -5.2020 C   0  0  0  0  0  0  0  0  0  0  0  0
   28.5517  -21.1458   -6.3767 C   0  0  0  0  0  0  0  0  0  0  0  0
   27.8249  -20.3246   -7.2120 C   0  0  0  0  0  0  0  0  0  0  0  0
   27.2485  -20.7668   -8.4759 C   0  0  0  0  0  0  0  0  0  0  0  0
   25.7874  -20.5009   -8.6609 C   0  0  2  0  0  0  0  0  0  0  0  0
   25.0950  -21.3429   -7.6690 N   0  0  0  0  0  0  0  0  0  0  0  0
   25.2752  -20.9578   -9.9924 C   0  0  0  0  0  0  0  0  0  0  0  0
   25.2580  -22.2141  -10.2120 O   0  0  0  0  0  0  0  0  0  0  0  0
   27.6518  -19.0227   -6.8111 C   0  0  0  0  0  0  0  0  0  0  0  0
   28.1879  -18.5606   -5.6167 C   0  0  0  0  0  0  0  0  0  0  0  0
   24.8210  -20.0912  -10.9943 N   0  0  0  0  0  0  0  0  0  0  0  0
   24.3441  -20.6321  -12.2861 C   0  0  1  0  0  0  0  0  0  0  0  0
   22.8999  -20.1809  -12.4188 C   0  0  0  0  0  0  0  0  0  0  0  0
   22.2753  -20.5064  -14.0656 S   0  0  0  0  0  0  0  0  0  0  0  0
   25.2106  -20.1533  -13.3667 C   0  0  0  0  0  0  0  0  0  0  0  0
   25.5241  -18.9132  -13.3727 O   0  0  0  0  0  0  0  0  0  0  0  0
   30.9589  -24.7568  -15.1971 N   0  0  0  0  0  0  0  0  0  0  0  0
   29.5696  -24.8814  -15.5229 C   0  0  0  0  0  0  0  0  0  0  0  0
   28.9203  -25.9198  -15.1409 N   0  0  0  0  0  0  0  0  0  0  0  0
   28.8869  -23.8861  -16.2610 N   0  0  0  0  0  0  0  0  0  0  0  0
   29.5579  -22.6034  -16.6037 C   0  0  0  0  0  0  0  0  0  0  0  0
   28.7600  -21.5503  -15.9485 C   0  0  0  0  0  0  0  0  0  0  0  0
   27.3163  -21.4705  -16.0336 C   0  0  0  0  0  0  0  0  0  0  0  0
   26.4943  -20.3459  -15.5551 C   0  0  2  0  0  0  0  0  0  0  0  0
   25.7288  -20.9420  -14.3977 N   0  0  0  0  0  0  0  0  0  0  0  0
   25.4323  -19.9533  -16.4811 C   0  0  0  0  0  0  0  0  0  0  0  0
   24.3978  -20.6069  -16.6530 O   0  0  0  0  0  0  0  0  0  0  0  0
   25.5484  -18.7832  -17.2335 O   0  0  0  0  0  0  0  0  0  0  0  0
  2 12  2  0
  2  1  1  0
  3  2  1  0
  4  5  1  0
  4  3  2  0
  5 11  2  0
  6  5  1  0
  7  8  1  1
  7  6  1  0
  9  7  1  0
 10  9  2  0
 11 12  1  0
 13  9  1  0
 14 17  1  0
 14 13  1  0
 14 15  1  6
 16 15  1  0
 17 18  2  0
 20 22  1  0
 20 19  1  0
 21 20  2  0
 23 24  1  0
 23 22  1  0
 26 25  1  6
 25 24  1  0
 27 26  1  0
 27 17  1  0
 28 30  1  0
 28 26  1  0
 29 28  2  0
M  END
$$$$
