YCR.pdb
     RDKit          3D

 30 30  0  0  1  0  0  0  0  0999 V2000
   23.7027  -19.3378  -22.0503 O   0  0  0  0  0  0  0  0  0  0  0  0
   23.4368  -19.6743  -20.7410 C   0  0  0  0  0  0  0  0  0  0  0  0
   24.0127  -20.8241  -20.2057 C   0  0  0  0  0  0  0  0  0  0  0  0
   23.7592  -21.1684  -18.9160 C   0  0  0  0  0  0  0  0  0  0  0  0
   22.9456  -20.4301  -18.0832 C   0  0  0  0  0  0  0  0  0  0  0  0
   22.6647  -20.7946  -16.6999 C   0  0  0  0  0  0  0  0  0  0  0  0
   23.2374  -19.8915  -15.6529 C   0  0  2  0  0  0  0  0  0  0  0  0
   24.6846  -20.1692  -15.6278 N   0  0  0  0  0  0  0  0  0  0  0  0
   22.7498  -20.2144  -14.2737 C   0  0  0  0  0  0  0  0  0  0  0  0
   23.4560  -21.0162  -13.5772 O   0  0  0  0  0  0  0  0  0  0  0  0
   22.3776  -19.2964  -18.6102 C   0  0  0  0  0  0  0  0  0  0  0  0
   22.6162  -18.9166  -19.9241 C   0  0  0  0  0  0  0  0  0  0  0  0
   21.5768  -19.6901  -13.7168 N   0  0  0  0  0  0  0  0  0  0  0  0
   21.2276  -19.9796  -12.3086 C   0  0  1  0  0  0  0  0  0  0  0  0
   20.8831  -18.6400  -11.6812 C   0  0  0  0  0  0  0  0  0  0  0  0
   20.3759  -18.8426   -9.9754 S   0  0  0  0  0  0  0  0  0  0  0  0
   20.1283  -20.9479  -12.2664 C   0  0  0  0  0  0  0  0  0  0  0  0
   19.2460  -20.8870  -13.1905 O   0  0  0  0  0  0  0  0  0  0  0  0
   18.6053  -26.2256   -5.5506 N   0  0  0  0  0  0  0  0  0  0  0  0
   17.4657  -25.5264   -6.0645 C   0  0  0  0  0  0  0  0  0  0  0  0
   16.4482  -25.3315   -5.3079 N   0  0  0  0  0  0  0  0  0  0  0  0
   17.4277  -25.0417   -7.3931 N   0  0  0  0  0  0  0  0  0  0  0  0
   18.3931  -25.5402   -8.4091 C   0  0  0  0  0  0  0  0  0  0  0  0
   18.1305  -24.7516   -9.6273 C   0  0  0  0  0  0  0  0  0  0  0  0
   18.9168  -23.6005  -10.0204 C   0  0  0  0  0  0  0  0  0  0  0  0
   18.7456  -22.8359  -11.2675 C   0  0  2  0  0  0  0  0  0  0  0  0
   19.9614  -21.9404  -11.2966 N   0  0  0  0  0  0  0  0  0  0  0  0
   17.6380  -21.8814  -11.2290 C   0  0  0  0  0  0  0  0  0  0  0  0
   17.7199  -20.7580  -10.7207 O   0  0  0  0  0  0  0  0  0  0  0  0
   16.4011  -22.2122  -11.7850 O   0  0  0  0  0  0  0  0  0  0  0  0
  2 12  2  0
  2  1  1  0
  3  2  1  0
  4  5  1  0
  4  3  2  0
  5 11  2  0
  6  5  1  0
  7  8  1  1
  7  6  1  0
  9  7  1  0
 10  9  2  0
 11 12  1  0
 13  9  1  0
 14 17  1  0
 14 13  1  0
 14 15  1  6
 16 15  1  0
 17 18  2  0
 20 22  1  0
 20 19  1  0
 21 20  2  0
 23 24  1  0
 23 22  1  0
 26 25  1  1
 25 24  1  0
 27 26  1  0
 27 17  1  0
 28 30  1  0
 28 26  1  0
 29 28  2  0
M  END
$$$$
