YCR.pdb
     RDKit          3D

 30 30  0  0  1  0  0  0  0  0999 V2000
   19.0609  -13.0305  -17.3588 O   0  0  0  0  0  0  0  0  0  0  0  0
   19.7657  -14.1399  -16.9461 C   0  0  0  0  0  0  0  0  0  0  0  0
   21.0511  -13.9755  -16.4351 C   0  0  0  0  0  0  0  0  0  0  0  0
   21.7580  -15.0607  -16.0243 C   0  0  0  0  0  0  0  0  0  0  0  0
   21.2682  -16.3480  -16.0840 C   0  0  0  0  0  0  0  0  0  0  0  0
   22.0214  -17.5181  -15.6497 C   0  0  0  0  0  0  0  0  0  0  0  0
   23.2035  -17.8881  -16.4897 C   0  0  2  0  0  0  0  0  0  0  0  0
   22.6559  -18.5411  -17.6921 N   0  0  0  0  0  0  0  0  0  0  0  0
   24.0781  -18.9191  -15.8445 C   0  0  0  0  0  0  0  0  0  0  0  0
   23.5955  -20.0917  -15.7079 O   0  0  0  0  0  0  0  0  0  0  0  0
   20.0011  -16.5107  -16.5875 C   0  0  0  0  0  0  0  0  0  0  0  0
   19.2522  -15.4230  -17.0158 C   0  0  0  0  0  0  0  0  0  0  0  0
   25.3785  -18.6671  -15.3902 N   0  0  0  0  0  0  0  0  0  0  0  0
   26.0231  -19.5900  -14.4302 C   0  0  1  0  0  0  0  0  0  0  0  0
   27.4715  -19.1434  -14.3317 C   0  0  0  0  0  0  0  0  0  0  0  0
   28.3279  -20.0275  -13.0306 S   0  0  0  0  0  0  0  0  0  0  0  0
   25.3067  -19.5454  -13.1524 C   0  0  0  0  0  0  0  0  0  0  0  0
   24.6660  -18.4758  -12.8666 O   0  0  0  0  0  0  0  0  0  0  0  0
   19.2681  -24.3223   -9.6473 N   0  0  0  0  0  0  0  0  0  0  0  0
   19.5311  -23.1953   -8.8032 C   0  0  0  0  0  0  0  0  0  0  0  0
   19.0638  -23.1762   -7.6086 N   0  0  0  0  0  0  0  0  0  0  0  0
   20.2959  -22.0928   -9.2518 N   0  0  0  0  0  0  0  0  0  0  0  0
   21.4697  -22.2975  -10.1423 C   0  0  0  0  0  0  0  0  0  0  0  0
   22.0001  -20.9490  -10.4167 C   0  0  0  0  0  0  0  0  0  0  0  0
   23.1022  -20.6912  -11.3204 C   0  0  0  0  0  0  0  0  0  0  0  0
   24.4984  -20.4525  -10.9168 C   0  0  2  0  0  0  0  0  0  0  0  0
   25.2622  -20.5797  -12.2135 N   0  0  0  0  0  0  0  0  0  0  0  0
   25.0681  -21.5209  -10.0963 C   0  0  0  0  0  0  0  0  0  0  0  0
   25.4487  -22.6047  -10.5518 O   0  0  0  0  0  0  0  0  0  0  0  0
   25.2105  -21.3531   -8.7179 O   0  0  0  0  0  0  0  0  0  0  0  0
  2 12  2  0
  2  1  1  0
  3  2  1  0
  4  5  1  0
  4  3  2  0
  5 11  2  0
  6  5  1  0
  7  8  1  6
  7  6  1  0
  9  7  1  0
 10  9  2  0
 11 12  1  0
 13  9  1  0
 14 17  1  0
 14 13  1  0
 14 15  1  1
 16 15  1  0
 17 18  2  0
 20 22  1  0
 20 19  1  0
 21 20  2  0
 23 24  1  0
 23 22  1  0
 26 25  1  6
 25 24  1  0
 27 26  1  0
 27 17  1  0
 28 30  1  0
 28 26  1  0
 29 28  2  0
M  END
$$$$
