YCR.pdb
     RDKit          3D

 30 30  0  0  1  0  0  0  0  0999 V2000
   28.3134  -13.5165  -17.7764 O   0  0  0  0  0  0  0  0  0  0  0  0
   27.8782  -14.6566  -17.1369 C   0  0  0  0  0  0  0  0  0  0  0  0
   27.7693  -15.8412  -17.8614 C   0  0  0  0  0  0  0  0  0  0  0  0
   27.3413  -16.9733  -17.2439 C   0  0  0  0  0  0  0  0  0  0  0  0
   26.9992  -17.0223  -15.9093 C   0  0  0  0  0  0  0  0  0  0  0  0
   26.5349  -18.2313  -15.2399 C   0  0  0  0  0  0  0  0  0  0  0  0
   27.5604  -18.9785  -14.4463 C   0  0  2  0  0  0  0  0  0  0  0  0
   28.4094  -19.6698  -15.4329 N   0  0  0  0  0  0  0  0  0  0  0  0
   26.9677  -20.0667  -13.6045 C   0  0  0  0  0  0  0  0  0  0  0  0
   26.7424  -21.1867  -14.1715 O   0  0  0  0  0  0  0  0  0  0  0  0
   27.1064  -15.8549  -15.1944 C   0  0  0  0  0  0  0  0  0  0  0  0
   27.5404  -14.6810  -15.7951 C   0  0  0  0  0  0  0  0  0  0  0  0
   26.6524  -19.9213  -12.2479 N   0  0  0  0  0  0  0  0  0  0  0  0
   25.7848  -20.9130  -11.5752 C   0  0  1  0  0  0  0  0  0  0  0  0
   25.8401  -20.5785  -10.0947 C   0  0  0  0  0  0  0  0  0  0  0  0
   24.7512  -21.6459   -9.1551 S   0  0  0  0  0  0  0  0  0  0  0  0
   24.4350  -20.8465  -12.1423 C   0  0  0  0  0  0  0  0  0  0  0  0
   23.9391  -19.6884  -12.3634 O   0  0  0  0  0  0  0  0  0  0  0  0
   21.1120  -27.6362  -13.2194 N   0  0  0  0  0  0  0  0  0  0  0  0
   20.0637  -26.9618  -12.5138 C   0  0  0  0  0  0  0  0  0  0  0  0
   19.4344  -27.5738  -11.5782 N   0  0  0  0  0  0  0  0  0  0  0  0
   19.6973  -25.6304  -12.8215 N   0  0  0  0  0  0  0  0  0  0  0  0
   20.1705  -24.9852  -14.0755 C   0  0  0  0  0  0  0  0  0  0  0  0
   20.5078  -23.5980  -13.7057 C   0  0  0  0  0  0  0  0  0  0  0  0
   21.8396  -23.1717  -13.3280 C   0  0  0  0  0  0  0  0  0  0  0  0
   22.2296  -21.7929  -12.9876 C   0  0  2  0  0  0  0  0  0  0  0  0
   23.6383  -21.9483  -12.4658 N   0  0  0  0  0  0  0  0  0  0  0  0
   21.5141  -21.2426  -11.8367 C   0  0  0  0  0  0  0  0  0  0  0  0
   21.7615  -21.5504  -10.6658 O   0  0  0  0  0  0  0  0  0  0  0  0
   20.4877  -20.3146  -12.0211 O   0  0  0  0  0  0  0  0  0  0  0  0
  2 12  2  0
  2  1  1  0
  3  2  1  0
  4  5  1  0
  4  3  2  0
  5 11  2  0
  6  5  1  0
  7  8  1  6
  7  6  1  0
  9  7  1  0
 10  9  2  0
 11 12  1  0
 13  9  1  0
 14 17  1  0
 14 13  1  0
 14 15  1  1
 16 15  1  0
 17 18  2  0
 20 22  1  0
 20 19  1  0
 21 20  2  0
 23 24  1  0
 23 22  1  0
 26 25  1  1
 25 24  1  0
 27 26  1  0
 27 17  1  0
 28 30  1  0
 28 26  1  0
 29 28  2  0
M  END
$$$$
