YCR.pdb
     RDKit          3D

 30 30  0  0  1  0  0  0  0  0999 V2000
   19.0323  -22.7863   -9.3617 O   0  0  0  0  0  0  0  0  0  0  0  0
   20.1854  -22.1751   -9.8033 C   0  0  0  0  0  0  0  0  0  0  0  0
   20.7061  -21.1052   -9.0791 C   0  0  0  0  0  0  0  0  0  0  0  0
   21.8424  -20.4926   -9.5029 C   0  0  0  0  0  0  0  0  0  0  0  0
   22.5294  -20.8752  -10.6352 C   0  0  0  0  0  0  0  0  0  0  0  0
   23.7466  -20.2208  -11.0994 C   0  0  0  0  0  0  0  0  0  0  0  0
   25.0250  -20.9585  -10.8517 C   0  0  2  0  0  0  0  0  0  0  0  0
   25.2988  -20.8191   -9.4102 N   0  0  0  0  0  0  0  0  0  0  0  0
   26.2011  -20.3349  -11.5387 C   0  0  0  0  0  0  0  0  0  0  0  0
   26.5239  -19.1523  -11.1865 O   0  0  0  0  0  0  0  0  0  0  0  0
   22.0167  -21.9299  -11.3495 C   0  0  0  0  0  0  0  0  0  0  0  0
   20.8577  -22.5776  -10.9439 C   0  0  0  0  0  0  0  0  0  0  0  0
   26.9538  -20.9723  -12.5328 N   0  0  0  0  0  0  0  0  0  0  0  0
   27.8582  -20.1861  -13.4003 C   0  0  1  0  0  0  0  0  0  0  0  0
   29.2687  -20.5747  -12.9922 C   0  0  0  0  0  0  0  0  0  0  0  0
   29.3542  -20.9283  -11.2384 S   0  0  0  0  0  0  0  0  0  0  0  0
   27.5550  -20.4680  -14.8062 C   0  0  0  0  0  0  0  0  0  0  0  0
   27.1964  -21.6575  -15.1104 O   0  0  0  0  0  0  0  0  0  0  0  0
   21.6349  -21.3689  -13.9058 N   0  0  0  0  0  0  0  0  0  0  0  0
   21.6709  -20.5989  -15.1131 C   0  0  0  0  0  0  0  0  0  0  0  0
   20.6120  -20.4952  -15.8299 N   0  0  0  0  0  0  0  0  0  0  0  0
   22.8497  -19.9452  -15.5430 N   0  0  0  0  0  0  0  0  0  0  0  0
   22.8496  -19.1200  -16.7807 C   0  0  0  0  0  0  0  0  0  0  0  0
   24.2019  -19.2607  -17.3520 C   0  0  0  0  0  0  0  0  0  0  0  0
   25.3920  -19.4616  -16.5513 C   0  0  0  0  0  0  0  0  0  0  0  0
   26.7534  -19.6536  -17.0795 C   0  0  2  0  0  0  0  0  0  0  0  0
   27.6231  -19.5411  -15.8500 N   0  0  0  0  0  0  0  0  0  0  0  0
   27.2250  -18.5496  -17.9151 C   0  0  0  0  0  0  0  0  0  0  0  0
   27.8001  -17.5509  -17.4691 O   0  0  0  0  0  0  0  0  0  0  0  0
   27.0387  -18.5811  -19.2981 O   0  0  0  0  0  0  0  0  0  0  0  0
  2 12  2  0
  2  1  1  0
  3  2  1  0
  4  5  1  0
  4  3  2  0
  5 11  2  0
  6  5  1  0
  7  8  1  1
  7  6  1  0
  9  7  1  0
 10  9  2  0
 11 12  1  0
 13  9  1  0
 14 17  1  0
 14 13  1  0
 14 15  1  1
 16 15  1  0
 17 18  2  0
 20 22  1  0
 20 19  1  0
 21 20  2  0
 23 24  1  0
 23 22  1  0
 26 25  1  1
 25 24  1  0
 27 26  1  0
 27 17  1  0
 28 30  1  0
 28 26  1  0
 29 28  2  0
M  END
$$$$
