YCR.pdb
     RDKit          3D

 30 30  0  0  1  0  0  0  0  0999 V2000
   11.5092   -9.4899   -7.6179 O   0  0  0  0  0  0  0  0  0  0  0  0
   12.5159   -8.9161   -8.3631 C   0  0  0  0  0  0  0  0  0  0  0  0
   12.3567   -7.6130   -8.8288 C   0  0  0  0  0  0  0  0  0  0  0  0
   13.3412   -7.0343   -9.5651 C   0  0  0  0  0  0  0  0  0  0  0  0
   14.5186   -7.6747   -9.8879 C   0  0  0  0  0  0  0  0  0  0  0  0
   15.5779   -7.0630  -10.6809 C   0  0  0  0  0  0  0  0  0  0  0  0
   16.8973   -6.8926   -9.9954 C   0  0  2  0  0  0  0  0  0  0  0  0
   16.7114   -5.7955   -9.0289 N   0  0  0  0  0  0  0  0  0  0  0  0
   17.9791   -6.4247  -10.9200 C   0  0  0  0  0  0  0  0  0  0  0  0
   18.1199   -5.1653  -11.0644 O   0  0  0  0  0  0  0  0  0  0  0  0
   14.6762   -8.9592   -9.4289 C   0  0  0  0  0  0  0  0  0  0  0  0
   13.6898   -9.5795   -8.6742 C   0  0  0  0  0  0  0  0  0  0  0  0
   18.8313   -7.2843  -11.6240 N   0  0  0  0  0  0  0  0  0  0  0  0
   19.8466   -6.7330  -12.5482 C   0  0  1  0  0  0  0  0  0  0  0  0
   21.1813   -7.2843  -12.0775 C   0  0  0  0  0  0  0  0  0  0  0  0
   21.1269   -9.0698  -11.9461 S   0  0  0  0  0  0  0  0  0  0  0  0
   19.5094   -7.1067  -13.9246 C   0  0  0  0  0  0  0  0  0  0  0  0
   18.8499   -8.1881  -14.1029 O   0  0  0  0  0  0  0  0  0  0  0  0
   13.2178   -6.0746  -19.0171 N   0  0  0  0  0  0  0  0  0  0  0  0
   14.1898   -6.8061  -19.7734 C   0  0  0  0  0  0  0  0  0  0  0  0
   13.8591   -7.3184  -20.9021 N   0  0  0  0  0  0  0  0  0  0  0  0
   15.5140   -6.9836  -19.3081 N   0  0  0  0  0  0  0  0  0  0  0  0
   15.9233   -6.4686  -17.9739 C   0  0  0  0  0  0  0  0  0  0  0  0
   17.3552   -6.7966  -17.8437 C   0  0  0  0  0  0  0  0  0  0  0  0
   18.1337   -6.5234  -16.6533 C   0  0  0  0  0  0  0  0  0  0  0  0
   19.5491   -6.8814  -16.4587 C   0  0  2  0  0  0  0  0  0  0  0  0
   19.8479   -6.3763  -15.0672 N   0  0  0  0  0  0  0  0  0  0  0  0
   20.4738   -6.1119  -17.2907 C   0  0  0  0  0  0  0  0  0  0  0  0
   20.7520   -6.4072  -18.4579 O   0  0  0  0  0  0  0  0  0  0  0  0
   21.1004   -4.9728  -16.7823 O   0  0  0  0  0  0  0  0  0  0  0  0
  2 12  2  0
  2  1  1  0
  3  2  1  0
  4  5  1  0
  4  3  2  0
  5 11  2  0
  6  5  1  0
  7  8  1  1
  7  6  1  0
  9  7  1  0
 10  9  2  0
 11 12  1  0
 13  9  1  0
 14 17  1  0
 14 13  1  0
 14 15  1  1
 16 15  1  0
 17 18  2  0
 20 22  1  0
 20 19  1  0
 21 20  2  0
 23 24  1  0
 23 22  1  0
 26 25  1  6
 25 24  1  0
 27 26  1  0
 27 17  1  0
 28 30  1  0
 28 26  1  0
 29 28  2  0
M  END
$$$$
