YCR.pdb
     RDKit          3D

 30 30  0  0  1  0  0  0  0  0999 V2000
   28.6724  -14.8586  -18.6111 O   0  0  0  0  0  0  0  0  0  0  0  0
   28.1006  -15.8567  -17.8529 C   0  0  0  0  0  0  0  0  0  0  0  0
   27.8930  -15.6408  -16.4925 C   0  0  0  0  0  0  0  0  0  0  0  0
   27.3302  -16.6163  -15.7324 C   0  0  0  0  0  0  0  0  0  0  0  0
   26.9420  -17.8385  -16.2384 C   0  0  0  0  0  0  0  0  0  0  0  0
   26.3416  -18.8921  -15.4293 C   0  0  0  0  0  0  0  0  0  0  0  0
   27.2874  -19.7064  -14.6033 C   0  0  2  0  0  0  0  0  0  0  0  0
   27.8942  -20.6810  -15.5274 N   0  0  0  0  0  0  0  0  0  0  0  0
   26.5927  -20.5295  -13.5621 C   0  0  0  0  0  0  0  0  0  0  0  0
   26.2062  -21.6964  -13.9021 O   0  0  0  0  0  0  0  0  0  0  0  0
   27.1462  -18.0519  -17.5794 C   0  0  0  0  0  0  0  0  0  0  0  0
   27.7187  -17.0762  -18.3840 C   0  0  0  0  0  0  0  0  0  0  0  0
   26.3489  -20.0919  -12.2545 N   0  0  0  0  0  0  0  0  0  0  0  0
   25.3885  -20.8172  -11.3940 C   0  0  1  0  0  0  0  0  0  0  0  0
   25.6632  -20.3479   -9.9758 C   0  0  0  0  0  0  0  0  0  0  0  0
   24.4018  -20.9382   -8.8496 S   0  0  0  0  0  0  0  0  0  0  0  0
   24.0221  -20.5447  -11.8484 C   0  0  0  0  0  0  0  0  0  0  0  0
   23.6607  -19.3217  -11.9471 O   0  0  0  0  0  0  0  0  0  0  0  0
   22.7930  -25.3046  -14.2774 N   0  0  0  0  0  0  0  0  0  0  0  0
   22.9525  -24.9175  -15.6472 C   0  0  0  0  0  0  0  0  0  0  0  0
   23.9434  -25.3732  -16.3227 N   0  0  0  0  0  0  0  0  0  0  0  0
   22.0434  -24.0389  -16.2822 N   0  0  0  0  0  0  0  0  0  0  0  0
   20.8227  -23.5700  -15.5732 C   0  0  0  0  0  0  0  0  0  0  0  0
   21.2393  -22.3783  -14.8108 C   0  0  0  0  0  0  0  0  0  0  0  0
   21.2122  -22.3037  -13.3646 C   0  0  0  0  0  0  0  0  0  0  0  0
   21.6562  -21.1518  -12.5612 C   0  0  2  0  0  0  0  0  0  0  0  0
   23.0738  -21.5140  -12.1870 N   0  0  0  0  0  0  0  0  0  0  0  0
   20.9927  -21.0457  -11.2620 C   0  0  0  0  0  0  0  0  0  0  0  0
   21.1940  -21.8256  -10.3249 O   0  0  0  0  0  0  0  0  0  0  0  0
   20.0740  -20.0231  -11.0197 O   0  0  0  0  0  0  0  0  0  0  0  0
  2 12  2  0
  2  1  1  0
  3  2  1  0
  4  5  1  0
  4  3  2  0
  5 11  2  0
  6  5  1  0
  7  8  1  6
  7  6  1  0
  9  7  1  0
 10  9  2  0
 11 12  1  0
 13  9  1  0
 14 17  1  0
 14 13  1  0
 14 15  1  1
 16 15  1  0
 17 18  2  0
 20 22  1  0
 20 19  1  0
 21 20  2  0
 23 24  1  0
 23 22  1  0
 26 25  1  6
 25 24  1  0
 27 26  1  0
 27 17  1  0
 28 30  1  0
 28 26  1  0
 29 28  2  0
M  END
$$$$
