DCI.pdb
     RDKit          3D

 23 22  0  0  1  0  0  0  0  0999 V2000
   10.7399  -17.8256   19.1113 N   0  0  0  0  0  0  0  0  0  0  0  0
   11.1980  -17.7787   20.4847 C   0  0  1  0  0  0  0  0  0  0  0  0
   12.4748  -16.9803   20.6359 C   0  0  0  0  0  0  0  0  0  0  0  0
   13.5635  -17.5725   19.8370 C   0  0  0  0  0  0  0  0  0  0  0  0
   13.7732  -18.8164   19.8572 O   0  0  0  0  0  0  0  0  0  0  0  0
   10.1716  -17.1202   21.3380 C   0  0  0  0  0  0  0  0  0  0  0  0
    9.4392  -16.2513   20.8516 O   0  0  0  0  0  0  0  0  0  0  0  0
   14.3747  -16.7791   19.0514 O   0  0  0  0  0  0  0  0  0  0  0  0
    9.9999  -17.4550   22.7020 N   0  0  0  0  0  0  0  0  0  0  0  0
    8.9000  -17.0060   23.5097 C   0  0  1  0  0  0  0  0  0  0  0  0
    7.9338  -18.1149   23.8530 C   0  0  0  0  0  0  0  0  0  0  0  0
    8.8370  -19.5468   24.5056 S   0  0  0  0  0  0  0  0  0  0  0  0
    9.4473  -16.3533   24.7222 C   0  0  0  0  0  0  0  0  0  0  0  0
   10.6540  -16.5251   24.9991 O   0  0  0  0  0  0  0  0  0  0  0  0
    6.4987  -12.1667   26.9829 C   0  0  0  0  0  0  0  0  0  0  0  0
    7.6384  -12.9586   26.4189 C   0  0  0  0  0  0  0  0  0  0  0  0
    8.2466  -13.9256   27.4153 C   0  0  2  0  0  0  0  0  0  0  0  0
    9.0482  -13.0550   28.3671 C   0  0  0  0  0  0  0  0  0  0  0  0
    9.2015  -14.8833   26.7857 C   0  0  2  0  0  0  0  0  0  0  0  0
    8.7022  -15.5419   25.6003 N   0  0  0  0  0  0  0  0  0  0  0  0
    9.6234  -15.8696   27.8032 C   0  0  0  0  0  0  0  0  0  0  0  0
   10.7149  -15.6327   28.5908 O   0  0  0  0  0  0  0  0  0  0  0  0
    8.9685  -16.9205   27.9308 O   0  0  0  0  0  0  0  0  0  0  0  0
  2  1  1  6
  3  4  1  0
  3  2  1  0
  4  8  1  0
  5  4  2  0
  6  2  1  0
  6  9  1  0
  7  6  2  0
 10 11  1  1
 10  9  1  0
 10 13  1  0
 12 11  1  0
 13 20  1  0
 14 13  2  0
 16 15  1  0
 17 18  1  1
 17 16  1  0
 19 17  1  0
 19 20  1  6
 21 22  1  0
 21 19  1  0
 23 21  2  0
M  END
$$$$
