DCI.pdb
     RDKit          3D

 23 22  0  0  1  0  0  0  0  0999 V2000
   11.0785  -18.7043   20.4413 N   0  0  0  0  0  0  0  0  0  0  0  0
   11.8544  -17.6352   21.0360 C   0  0  1  0  0  0  0  0  0  0  0  0
   12.2102  -16.5592   20.0330 C   0  0  0  0  0  0  0  0  0  0  0  0
   13.0952  -17.0923   18.9809 C   0  0  0  0  0  0  0  0  0  0  0  0
   13.0756  -16.6067   17.8166 O   0  0  0  0  0  0  0  0  0  0  0  0
   11.0671  -16.9786   22.1149 C   0  0  0  0  0  0  0  0  0  0  0  0
   11.4335  -15.8847   22.5589 O   0  0  0  0  0  0  0  0  0  0  0  0
   13.9622  -18.1324   19.2477 O   0  0  0  0  0  0  0  0  0  0  0  0
    9.9003  -17.5661   22.6587 N   0  0  0  0  0  0  0  0  0  0  0  0
    9.1036  -16.9671   23.6933 C   0  0  1  0  0  0  0  0  0  0  0  0
    7.7328  -17.5898   23.8120 C   0  0  0  0  0  0  0  0  0  0  0  0
    6.8271  -16.8409   25.1943 S   0  0  0  0  0  0  0  0  0  0  0  0
    9.8583  -17.0427   24.9662 C   0  0  0  0  0  0  0  0  0  0  0  0
   10.6798  -17.9723   25.1186 O   0  0  0  0  0  0  0  0  0  0  0  0
    9.6470  -12.6438   28.4312 C   0  0  0  0  0  0  0  0  0  0  0  0
   10.2908  -13.7615   27.6695 C   0  0  0  0  0  0  0  0  0  0  0  0
   10.0256  -15.1271   28.2717 C   0  0  2  0  0  0  0  0  0  0  0  0
   10.9923  -15.2356   29.4380 C   0  0  0  0  0  0  0  0  0  0  0  0
   10.3394  -16.2451   27.3352 C   0  0  2  0  0  0  0  0  0  0  0  0
    9.7199  -16.1345   26.0344 N   0  0  0  0  0  0  0  0  0  0  0  0
    9.9819  -17.5234   27.9866 C   0  0  0  0  0  0  0  0  0  0  0  0
   10.9079  -18.2152   28.7158 O   0  0  0  0  0  0  0  0  0  0  0  0
    8.8232  -17.9602   27.8597 O   0  0  0  0  0  0  0  0  0  0  0  0
  2  1  1  6
  3  4  1  0
  3  2  1  0
  4  8  1  0
  5  4  2  0
  6  2  1  0
  6  9  1  0
  7  6  2  0
 10 11  1  1
 10  9  1  0
 10 13  1  0
 12 11  1  0
 13 20  1  0
 14 13  2  0
 16 15  1  0
 17 18  1  1
 17 16  1  0
 19 17  1  0
 19 20  1  6
 21 22  1  0
 21 19  1  0
 23 21  2  0
M  END
$$$$
