DCI.pdb
     RDKit          3D

 23 22  0  0  1  0  0  0  0  0999 V2000
    9.4423  -16.5534   18.3461 N   0  0  0  0  0  0  0  0  0  0  0  0
   10.0556  -16.3747   19.6462 C   0  0  1  0  0  0  0  0  0  0  0  0
   11.0323  -15.2188   19.6651 C   0  0  0  0  0  0  0  0  0  0  0  0
   12.3799  -15.6619   19.2627 C   0  0  0  0  0  0  0  0  0  0  0  0
   12.6267  -16.8854   19.0785 O   0  0  0  0  0  0  0  0  0  0  0  0
    9.0097  -16.0749   20.6618 C   0  0  0  0  0  0  0  0  0  0  0  0
    8.0915  -15.2963   20.3813 O   0  0  0  0  0  0  0  0  0  0  0  0
   13.3980  -14.7484   19.0795 O   0  0  0  0  0  0  0  0  0  0  0  0
    9.0264  -16.6543   21.9525 N   0  0  0  0  0  0  0  0  0  0  0  0
    7.9659  -16.5161   22.9117 C   0  0  1  0  0  0  0  0  0  0  0  0
    7.3551  -17.8403   23.3050 C   0  0  0  0  0  0  0  0  0  0  0  0
    6.2847  -17.6256   24.7541 S   0  0  0  0  0  0  0  0  0  0  0  0
    8.4907  -15.7782   24.0846 C   0  0  0  0  0  0  0  0  0  0  0  0
    9.6213  -16.0810   24.5230 O   0  0  0  0  0  0  0  0  0  0  0  0
    5.3092  -11.8013   26.9718 C   0  0  0  0  0  0  0  0  0  0  0  0
    6.0356  -13.0406   26.5468 C   0  0  0  0  0  0  0  0  0  0  0  0
    7.5038  -12.8033   26.2538 C   0  0  2  0  0  0  0  0  0  0  0  0
    7.5199  -11.9562   24.9933 C   0  0  0  0  0  0  0  0  0  0  0  0
    8.2451  -14.0611   25.9476 C   0  0  2  0  0  0  0  0  0  0  0  0
    7.8040  -14.7462   24.7541 N   0  0  0  0  0  0  0  0  0  0  0  0
    8.1760  -14.9507   27.1265 C   0  0  0  0  0  0  0  0  0  0  0  0
    8.7385  -14.5760   28.3145 O   0  0  0  0  0  0  0  0  0  0  0  0
    7.5974  -16.0477   27.0198 O   0  0  0  0  0  0  0  0  0  0  0  0
  2  1  1  6
  3  4  1  0
  3  2  1  0
  4  8  1  0
  5  4  2  0
  6  2  1  0
  6  9  1  0
  7  6  2  0
 10 11  1  1
 10  9  1  0
 10 13  1  0
 12 11  1  0
 13 20  1  0
 14 13  2  0
 16 15  1  0
 17 18  1  6
 17 16  1  0
 19 17  1  0
 19 20  1  6
 21 22  1  0
 21 19  1  0
 23 21  2  0
M  END
$$$$
