DCI.pdb
     RDKit          3D

 23 22  0  0  1  0  0  0  0  0999 V2000
    9.1633  -19.2717   19.7436 N   0  0  0  0  0  0  0  0  0  0  0  0
    9.6642  -17.9911   20.1991 C   0  0  1  0  0  0  0  0  0  0  0  0
    9.8733  -17.0190   19.0581 C   0  0  0  0  0  0  0  0  0  0  0  0
   11.0683  -17.3785   18.2727 C   0  0  0  0  0  0  0  0  0  0  0  0
   10.9777  -18.1542   17.2819 O   0  0  0  0  0  0  0  0  0  0  0  0
    8.6833  -17.3654   21.1272 C   0  0  0  0  0  0  0  0  0  0  0  0
    7.8447  -16.5719   20.6852 O   0  0  0  0  0  0  0  0  0  0  0  0
   12.3093  -16.8743   18.6048 O   0  0  0  0  0  0  0  0  0  0  0  0
    8.6736  -17.6477   22.5136 N   0  0  0  0  0  0  0  0  0  0  0  0
    7.7179  -17.1064   23.4396 C   0  0  1  0  0  0  0  0  0  0  0  0
    6.9426  -18.1749   24.1733 C   0  0  0  0  0  0  0  0  0  0  0  0
    5.9394  -17.4249   25.4858 S   0  0  0  0  0  0  0  0  0  0  0  0
    8.4315  -16.2017   24.3713 C   0  0  0  0  0  0  0  0  0  0  0  0
    9.5932  -16.5015   24.7216 O   0  0  0  0  0  0  0  0  0  0  0  0
    5.8616  -11.9109   27.4228 C   0  0  0  0  0  0  0  0  0  0  0  0
    6.4769  -13.1364   26.8198 C   0  0  0  0  0  0  0  0  0  0  0  0
    7.7934  -12.8630   26.1199 C   0  0  2  0  0  0  0  0  0  0  0  0
    7.4082  -12.2349   24.7919 C   0  0  0  0  0  0  0  0  0  0  0  0
    8.5565  -14.1074   25.8127 C   0  0  2  0  0  0  0  0  0  0  0  0
    7.8942  -15.0119   24.9009 N   0  0  0  0  0  0  0  0  0  0  0  0
    8.8898  -14.7849   27.0840 C   0  0  0  0  0  0  0  0  0  0  0  0
    9.7275  -14.1942   27.9880 O   0  0  0  0  0  0  0  0  0  0  0  0
    8.3954  -15.9031   27.3179 O   0  0  0  0  0  0  0  0  0  0  0  0
  2  1  1  6
  3  4  1  0
  3  2  1  0
  4  8  1  0
  5  4  2  0
  6  2  1  0
  6  9  1  0
  7  6  2  0
 10 11  1  1
 10  9  1  0
 10 13  1  0
 12 11  1  0
 13 20  1  0
 14 13  2  0
 16 15  1  0
 17 18  1  6
 17 16  1  0
 19 17  1  0
 19 20  1  6
 21 22  1  0
 21 19  1  0
 23 21  2  0
M  END
$$$$
