DCI.pdb
     RDKit          3D

 23 22  0  0  1  0  0  0  0  0999 V2000
    9.2824  -19.1287   19.7173 N   0  0  0  0  0  0  0  0  0  0  0  0
    8.9778  -17.7129   19.6828 C   0  0  1  0  0  0  0  0  0  0  0  0
    8.3252  -17.2988   18.3816 C   0  0  0  0  0  0  0  0  0  0  0  0
    9.3202  -17.2173   17.2964 C   0  0  0  0  0  0  0  0  0  0  0  0
   10.5334  -17.4861   17.5142 O   0  0  0  0  0  0  0  0  0  0  0  0
    8.0234  -17.3742   20.7733 C   0  0  0  0  0  0  0  0  0  0  0  0
    6.8072  -17.4555   20.5676 O   0  0  0  0  0  0  0  0  0  0  0  0
    8.9451  -16.8459   16.0212 O   0  0  0  0  0  0  0  0  0  0  0  0
    8.4603  -16.9573   22.0529 N   0  0  0  0  0  0  0  0  0  0  0  0
    7.6364  -16.9707   23.2298 C   0  0  1  0  0  0  0  0  0  0  0  0
    7.2242  -18.3643   23.6408 C   0  0  0  0  0  0  0  0  0  0  0  0
    6.4534  -18.3260   25.2828 S   0  0  0  0  0  0  0  0  0  0  0  0
    8.3594  -16.2648   24.3135 C   0  0  0  0  0  0  0  0  0  0  0  0
    9.5725  -16.5139   24.4824 O   0  0  0  0  0  0  0  0  0  0  0  0
    5.9801  -11.6363   26.3270 C   0  0  0  0  0  0  0  0  0  0  0  0
    7.0502  -12.5233   25.7683 C   0  0  0  0  0  0  0  0  0  0  0  0
    7.6549  -13.4549   26.8000 C   0  0  2  0  0  0  0  0  0  0  0  0
    8.6070  -12.5855   27.6027 C   0  0  0  0  0  0  0  0  0  0  0  0
    8.4661  -14.5481   26.1900 C   0  0  2  0  0  0  0  0  0  0  0  0
    7.7769  -15.3202   25.1816 N   0  0  0  0  0  0  0  0  0  0  0  0
    8.9751  -15.4197   27.2703 C   0  0  0  0  0  0  0  0  0  0  0  0
   10.0740  -15.0566   27.9974 O   0  0  0  0  0  0  0  0  0  0  0  0
    8.3869  -16.4909   27.5071 O   0  0  0  0  0  0  0  0  0  0  0  0
  2  1  1  6
  3  4  1  0
  3  2  1  0
  4  8  1  0
  5  4  2  0
  6  2  1  0
  6  9  1  0
  7  6  2  0
 10 11  1  1
 10  9  1  0
 10 13  1  0
 12 11  1  0
 13 20  1  0
 14 13  2  0
 16 15  1  0
 17 18  1  1
 17 16  1  0
 19 17  1  0
 19 20  1  6
 21 22  1  0
 21 19  1  0
 23 21  2  0
M  END
$$$$
