DCI.pdb
     RDKit          3D

 23 22  0  0  1  0  0  0  0  0999 V2000
    8.1283  -19.1004   19.3312 N   0  0  0  0  0  0  0  0  0  0  0  0
    8.2535  -17.6932   19.6515 C   0  0  1  0  0  0  0  0  0  0  0  0
    7.7656  -16.8043   18.5281 C   0  0  0  0  0  0  0  0  0  0  0  0
    8.6297  -16.9349   17.3404 C   0  0  0  0  0  0  0  0  0  0  0  0
    8.1533  -17.3193   16.2372 O   0  0  0  0  0  0  0  0  0  0  0  0
    7.4288  -17.3715   20.8479 C   0  0  0  0  0  0  0  0  0  0  0  0
    6.2272  -17.1160   20.7106 O   0  0  0  0  0  0  0  0  0  0  0  0
    9.9759  -16.6395   17.4109 O   0  0  0  0  0  0  0  0  0  0  0  0
    7.9745  -17.3468   22.1532 N   0  0  0  0  0  0  0  0  0  0  0  0
    7.2115  -17.0794   23.3407 C   0  0  1  0  0  0  0  0  0  0  0  0
    6.8867  -18.3300   24.1227 C   0  0  0  0  0  0  0  0  0  0  0  0
    8.4172  -19.1418   24.6612 S   0  0  0  0  0  0  0  0  0  0  0  0
    7.9530  -16.0914   24.1591 C   0  0  0  0  0  0  0  0  0  0  0  0
    9.1902  -15.9998   24.0078 O   0  0  0  0  0  0  0  0  0  0  0  0
    5.3908  -11.5645   25.9944 C   0  0  0  0  0  0  0  0  0  0  0  0
    6.4998  -12.4179   25.4596 C   0  0  0  0  0  0  0  0  0  0  0  0
    7.2100  -13.2188   26.5329 C   0  0  2  0  0  0  0  0  0  0  0  0
    8.1419  -12.2282   27.2089 C   0  0  0  0  0  0  0  0  0  0  0  0
    8.0592  -14.3111   25.9753 C   0  0  2  0  0  0  0  0  0  0  0  0
    7.3628  -15.2344   25.1089 N   0  0  0  0  0  0  0  0  0  0  0  0
    8.7111  -15.0230   27.0953 C   0  0  0  0  0  0  0  0  0  0  0  0
    8.3361  -16.2959   27.4226 O   0  0  0  0  0  0  0  0  0  0  0  0
    9.6074  -14.4441   27.7363 O   0  0  0  0  0  0  0  0  0  0  0  0
  2  1  1  6
  3  4  1  0
  3  2  1  0
  4  8  1  0
  5  4  2  0
  6  2  1  0
  6  9  1  0
  7  6  2  0
 10 11  1  1
 10  9  1  0
 10 13  1  0
 12 11  1  0
 13 20  1  0
 14 13  2  0
 16 15  1  0
 17 18  1  6
 17 16  1  0
 19 17  1  0
 19 20  1  1
 21 22  1  0
 21 19  1  0
 23 21  2  0
M  END
$$$$
