DCI.pdb
     RDKit          3D

 23 22  0  0  1  0  0  0  0  0999 V2000
   10.2041  -16.9508   19.4449 N   0  0  0  0  0  0  0  0  0  0  0  0
   10.6352  -17.4713   20.7262 C   0  0  1  0  0  0  0  0  0  0  0  0
   12.0670  -17.0978   21.0439 C   0  0  0  0  0  0  0  0  0  0  0  0
   12.9953  -17.6891   20.0625 C   0  0  0  0  0  0  0  0  0  0  0  0
   12.9148  -18.9100   19.7552 O   0  0  0  0  0  0  0  0  0  0  0  0
    9.7888  -16.9063   21.8122 C   0  0  0  0  0  0  0  0  0  0  0  0
    9.4609  -15.7151   21.7739 O   0  0  0  0  0  0  0  0  0  0  0  0
   13.9702  -16.9198   19.4606 O   0  0  0  0  0  0  0  0  0  0  0  0
    9.3395  -17.6906   22.9009 N   0  0  0  0  0  0  0  0  0  0  0  0
    8.3825  -17.2441   23.8749 C   0  0  1  0  0  0  0  0  0  0  0  0
    7.4337  -18.3365   24.3079 C   0  0  0  0  0  0  0  0  0  0  0  0
    6.3584  -17.7347   25.6395 S   0  0  0  0  0  0  0  0  0  0  0  0
    9.1200  -16.6645   25.0220 C   0  0  0  0  0  0  0  0  0  0  0  0
   10.2173  -17.1697   25.3426 O   0  0  0  0  0  0  0  0  0  0  0  0
    7.1994  -11.8554   27.1149 C   0  0  0  0  0  0  0  0  0  0  0  0
    8.2561  -12.7895   26.6101 C   0  0  0  0  0  0  0  0  0  0  0  0
    8.6087  -13.8845   27.5974 C   0  0  2  0  0  0  0  0  0  0  0  0
    9.5776  -13.2369   28.5713 C   0  0  0  0  0  0  0  0  0  0  0  0
    9.3231  -15.0299   26.9627 C   0  0  2  0  0  0  0  0  0  0  0  0
    8.6738  -15.5715   25.7909 N   0  0  0  0  0  0  0  0  0  0  0  0
    9.5378  -16.0783   27.9829 C   0  0  0  0  0  0  0  0  0  0  0  0
   10.7143  -16.1442   28.6755 O   0  0  0  0  0  0  0  0  0  0  0  0
    8.6296  -16.9011   28.2010 O   0  0  0  0  0  0  0  0  0  0  0  0
  2  1  1  6
  3  4  1  0
  3  2  1  0
  4  8  1  0
  5  4  2  0
  6  2  1  0
  6  9  1  0
  7  6  2  0
 10 11  1  1
 10  9  1  0
 10 13  1  0
 12 11  1  0
 13 20  1  0
 14 13  2  0
 16 15  1  0
 17 18  1  1
 17 16  1  0
 19 17  1  0
 19 20  1  6
 21 22  1  0
 21 19  1  0
 23 21  2  0
M  END
$$$$
