DCI.pdb
     RDKit          3D

 23 22  0  0  1  0  0  0  0  0999 V2000
   10.6461  -19.0099   20.7955 N   0  0  0  0  0  0  0  0  0  0  0  0
   10.5957  -17.5666   20.6825 C   0  0  1  0  0  0  0  0  0  0  0  0
   10.2245  -17.1138   19.2870 C   0  0  0  0  0  0  0  0  0  0  0  0
   11.3811  -17.2101   18.3773 C   0  0  0  0  0  0  0  0  0  0  0  0
   12.5093  -17.5760   18.8075 O   0  0  0  0  0  0  0  0  0  0  0  0
    9.5611  -17.0229   21.6040 C   0  0  0  0  0  0  0  0  0  0  0  0
    9.2491  -15.8288   21.5355 O   0  0  0  0  0  0  0  0  0  0  0  0
   11.2535  -16.9024   17.0381 O   0  0  0  0  0  0  0  0  0  0  0  0
    8.9127  -17.8309   22.5678 N   0  0  0  0  0  0  0  0  0  0  0  0
    7.9758  -17.3342   23.5370 C   0  0  1  0  0  0  0  0  0  0  0  0
    7.1182  -18.4241   24.1351 C   0  0  0  0  0  0  0  0  0  0  0  0
    6.1641  -17.7684   25.5321 S   0  0  0  0  0  0  0  0  0  0  0  0
    8.7278  -16.5895   24.5740 C   0  0  0  0  0  0  0  0  0  0  0  0
    9.8821  -16.9714   24.8639 O   0  0  0  0  0  0  0  0  0  0  0  0
    6.6963  -11.6935   26.1482 C   0  0  0  0  0  0  0  0  0  0  0  0
    7.8353  -12.6044   25.8063 C   0  0  0  0  0  0  0  0  0  0  0  0
    8.1471  -13.6090   26.8978 C   0  0  2  0  0  0  0  0  0  0  0  0
    9.0926  -12.8837   27.8394 C   0  0  0  0  0  0  0  0  0  0  0  0
    8.8690  -14.8118   26.3904 C   0  0  2  0  0  0  0  0  0  0  0  0
    8.2356  -15.4673   25.2691 N   0  0  0  0  0  0  0  0  0  0  0  0
    9.0679  -15.7535   27.5127 C   0  0  0  0  0  0  0  0  0  0  0  0
   10.1944  -15.6884   28.2839 O   0  0  0  0  0  0  0  0  0  0  0  0
    8.1926  -16.6078   27.7440 O   0  0  0  0  0  0  0  0  0  0  0  0
  2  1  1  6
  3  4  1  0
  3  2  1  0
  4  8  1  0
  5  4  2  0
  6  2  1  0
  6  9  1  0
  7  6  2  0
 10 11  1  1
 10  9  1  0
 10 13  1  0
 12 11  1  0
 13 20  1  0
 14 13  2  0
 16 15  1  0
 17 18  1  1
 17 16  1  0
 19 17  1  0
 19 20  1  6
 21 22  1  0
 21 19  1  0
 23 21  2  0
M  END
$$$$
