DCI.pdb
     RDKit          3D

 23 22  0  0  1  0  0  0  0  0999 V2000
    9.7301  -17.3530   18.8061 N   0  0  0  0  0  0  0  0  0  0  0  0
    8.8123  -16.2466   18.6279 C   0  0  1  0  0  0  0  0  0  0  0  0
    7.9006  -16.4446   17.4362 C   0  0  0  0  0  0  0  0  0  0  0  0
    8.6766  -16.5019   16.1836 C   0  0  0  0  0  0  0  0  0  0  0  0
    9.6260  -15.6970   15.9776 O   0  0  0  0  0  0  0  0  0  0  0  0
    7.9381  -16.1167   19.8254 C   0  0  0  0  0  0  0  0  0  0  0  0
    6.9954  -15.3173   19.8094 O   0  0  0  0  0  0  0  0  0  0  0  0
    8.3807  -17.4362   15.2120 O   0  0  0  0  0  0  0  0  0  0  0  0
    8.1474  -16.8830   20.9963 N   0  0  0  0  0  0  0  0  0  0  0  0
    7.3367  -16.7864   22.1783 C   0  0  1  0  0  0  0  0  0  0  0  0
    7.0098  -18.1340   22.7766 C   0  0  0  0  0  0  0  0  0  0  0  0
    8.5115  -18.8953   23.4525 S   0  0  0  0  0  0  0  0  0  0  0  0
    8.0277  -15.9033   23.1471 C   0  0  0  0  0  0  0  0  0  0  0  0
    9.2490  -15.6879   22.9924 O   0  0  0  0  0  0  0  0  0  0  0  0
    7.2150  -11.0172   26.8333 C   0  0  0  0  0  0  0  0  0  0  0  0
    7.9547  -12.2887   26.5501 C   0  0  0  0  0  0  0  0  0  0  0  0
    7.2635  -13.1683   25.5271 C   0  0  2  0  0  0  0  0  0  0  0  0
    5.9780  -13.6164   26.2002 C   0  0  0  0  0  0  0  0  0  0  0  0
    8.0408  -14.3989   25.2004 C   0  0  2  0  0  0  0  0  0  0  0  0
    7.4055  -15.2782   24.2457 N   0  0  0  0  0  0  0  0  0  0  0  0
    8.3474  -15.1135   26.4580 C   0  0  0  0  0  0  0  0  0  0  0  0
    9.3522  -14.6802   27.2768 O   0  0  0  0  0  0  0  0  0  0  0  0
    7.6756  -16.1172   26.7593 O   0  0  0  0  0  0  0  0  0  0  0  0
  2  1  1  1
  3  4  1  0
  3  2  1  0
  4  8  1  0
  5  4  2  0
  6  2  1  0
  6  9  1  0
  7  6  2  0
 10 11  1  1
 10  9  1  0
 10 13  1  0
 12 11  1  0
 13 20  1  0
 14 13  2  0
 16 15  1  0
 17 18  1  1
 17 16  1  0
 19 17  1  0
 19 20  1  6
 21 22  1  0
 21 19  1  0
 23 21  2  0
M  END
$$$$
