DCI.pdb
     RDKit          3D

 23 22  0  0  1  0  0  0  0  0999 V2000
   11.5472  -17.4515   19.3378 N   0  0  0  0  0  0  0  0  0  0  0  0
   12.1023  -17.5412   20.6728 C   0  0  1  0  0  0  0  0  0  0  0  0
   13.3499  -16.6996   20.8323 C   0  0  0  0  0  0  0  0  0  0  0  0
   14.5156  -17.3657   20.2225 C   0  0  0  0  0  0  0  0  0  0  0  0
   15.4010  -16.6940   19.6253 O   0  0  0  0  0  0  0  0  0  0  0  0
   11.1130  -17.0422   21.6665 C   0  0  0  0  0  0  0  0  0  0  0  0
   10.3352  -16.1347   21.3510 O   0  0  0  0  0  0  0  0  0  0  0  0
   14.6620  -18.7362   20.2925 O   0  0  0  0  0  0  0  0  0  0  0  0
   11.0276  -17.5735   22.9751 N   0  0  0  0  0  0  0  0  0  0  0  0
    9.9540  -17.2970   23.8887 C   0  0  1  0  0  0  0  0  0  0  0  0
    9.0316  -18.4769   24.0834 C   0  0  0  0  0  0  0  0  0  0  0  0
    9.9702  -19.9070   24.6880 S   0  0  0  0  0  0  0  0  0  0  0  0
   10.5385  -16.8338   25.1691 C   0  0  0  0  0  0  0  0  0  0  0  0
   11.7534  -17.0386   25.3791 O   0  0  0  0  0  0  0  0  0  0  0  0
    8.1403  -12.6169   27.7586 C   0  0  0  0  0  0  0  0  0  0  0  0
    9.2608  -13.4752   27.2569 C   0  0  0  0  0  0  0  0  0  0  0  0
    9.5317  -14.6804   28.1355 C   0  0  2  0  0  0  0  0  0  0  0  0
   10.3622  -14.1456   29.2891 C   0  0  0  0  0  0  0  0  0  0  0  0
   10.3490  -15.7246   27.4524 C   0  0  2  0  0  0  0  0  0  0  0  0
    9.8204  -16.1704   26.1835 N   0  0  0  0  0  0  0  0  0  0  0  0
   10.5354  -16.8618   28.3788 C   0  0  0  0  0  0  0  0  0  0  0  0
    9.7520  -17.9771   28.2773 O   0  0  0  0  0  0  0  0  0  0  0  0
   11.4175  -16.7870   29.2539 O   0  0  0  0  0  0  0  0  0  0  0  0
  2  1  1  6
  3  4  1  0
  3  2  1  0
  4  8  1  0
  5  4  2  0
  6  2  1  0
  6  9  1  0
  7  6  2  0
 10 11  1  1
 10  9  1  0
 10 13  1  0
 12 11  1  0
 13 20  1  0
 14 13  2  0
 16 15  1  0
 17 18  1  1
 17 16  1  0
 19 17  1  0
 19 20  1  6
 21 22  1  0
 21 19  1  0
 23 21  2  0
M  END
$$$$
