DCI.pdb
     RDKit          3D

 23 22  0  0  1  0  0  0  0  0999 V2000
   10.0646  -17.8752   13.2786 N   0  0  0  0  0  0  0  0  0  0  0  0
    9.2799  -18.9003   13.9359 C   0  0  1  0  0  0  0  0  0  0  0  0
    9.8639  -20.2826   13.7400 C   0  0  0  0  0  0  0  0  0  0  0  0
    9.9563  -20.6166   12.3067 C   0  0  0  0  0  0  0  0  0  0  0  0
    9.6476  -19.7668   11.4268 O   0  0  0  0  0  0  0  0  0  0  0  0
    9.2455  -18.6483   15.4024 C   0  0  0  0  0  0  0  0  0  0  0  0
   10.0918  -17.9070   15.9146 O   0  0  0  0  0  0  0  0  0  0  0  0
   10.3820  -21.8643   11.8986 O   0  0  0  0  0  0  0  0  0  0  0  0
    8.2688  -19.2322   16.2433 N   0  0  0  0  0  0  0  0  0  0  0  0
    8.1669  -18.9824   17.6544 C   0  0  1  0  0  0  0  0  0  0  0  0
    6.7612  -18.6422   18.0893 C   0  0  0  0  0  0  0  0  0  0  0  0
    5.6409  -20.0159   17.7027 S   0  0  0  0  0  0  0  0  0  0  0  0
    8.7000  -20.1613   18.3766 C   0  0  0  0  0  0  0  0  0  0  0  0
    8.7174  -21.2639   17.7883 O   0  0  0  0  0  0  0  0  0  0  0  0
   11.7633  -19.4228   23.1565 C   0  0  0  0  0  0  0  0  0  0  0  0
   10.6015  -19.8123   22.2948 C   0  0  0  0  0  0  0  0  0  0  0  0
   10.9429  -20.8831   21.2776 C   0  0  2  0  0  0  0  0  0  0  0  0
   11.9964  -20.2526   20.3836 C   0  0  0  0  0  0  0  0  0  0  0  0
    9.7873  -21.2457   20.4068 C   0  0  2  0  0  0  0  0  0  0  0  0
    9.1964  -20.1356   19.6949 N   0  0  0  0  0  0  0  0  0  0  0  0
    8.7775  -21.9478   21.2275 C   0  0  0  0  0  0  0  0  0  0  0  0
    8.9891  -23.2333   21.6408 O   0  0  0  0  0  0  0  0  0  0  0  0
    7.7305  -21.3494   21.5358 O   0  0  0  0  0  0  0  0  0  0  0  0
  2  1  1  6
  3  4  1  0
  3  2  1  0
  4  8  1  0
  5  4  2  0
  6  2  1  0
  6  9  1  0
  7  6  2  0
 10 11  1  1
 10  9  1  0
 10 13  1  0
 12 11  1  0
 13 20  1  0
 14 13  2  0
 16 15  1  0
 17 18  1  6
 17 16  1  0
 19 17  1  0
 19 20  1  1
 21 22  1  0
 21 19  1  0
 23 21  2  0
M  END
$$$$
