DGI.pdb
     RDKit          3D

 21 20  0  0  1  0  0  0  0  0999 V2000
   19.6969  -13.4728  -17.8286 N   0  0  0  0  0  0  0  0  0  0  0  0
   18.7901  -13.2883  -16.7403 C   0  0  1  0  0  0  0  0  0  0  0  0
   19.0086  -14.3377  -15.6923 C   0  0  0  0  0  0  0  0  0  0  0  0
   18.1964  -15.5330  -16.0139 C   0  0  0  0  0  0  0  0  0  0  0  0
   18.1507  -16.0763  -17.1382 O   0  0  0  0  0  0  0  0  0  0  0  0
   18.8652  -11.9231  -16.1541 C   0  0  0  0  0  0  0  0  0  0  0  0
   17.8895  -11.5041  -15.4999 O   0  0  0  0  0  0  0  0  0  0  0  0
   17.4279  -16.0903  -14.9854 O   0  0  0  0  0  0  0  0  0  0  0  0
   20.0328  -11.1362  -16.3500 N   0  0  0  0  0  0  0  0  0  0  0  0
   20.2083   -9.8661  -15.6800 C   0  0  0  0  0  0  0  0  0  0  0  0
   19.4114   -8.7978  -16.3180 C   0  0  0  0  0  0  0  0  0  0  0  0
   19.2941   -8.6996  -17.5837 O   0  0  0  0  0  0  0  0  0  0  0  0
   14.5473   -7.6070  -15.0616 C   0  0  0  0  0  0  0  0  0  0  0  0
   15.8397   -7.6947  -15.8312 C   0  0  0  0  0  0  0  0  0  0  0  0
   16.7171   -6.5105  -15.5056 C   0  0  2  0  0  0  0  0  0  0  0  0
   16.0623   -5.2336  -15.9250 C   0  0  0  0  0  0  0  0  0  0  0  0
   18.0852   -6.7070  -16.1394 C   0  0  2  0  0  0  0  0  0  0  0  0
   18.7484   -7.8430  -15.5343 N   0  0  0  0  0  0  0  0  0  0  0  0
   18.8693   -5.4809  -15.8523 C   0  0  0  0  0  0  0  0  0  0  0  0
   18.7985   -4.4840  -16.5988 O   0  0  0  0  0  0  0  0  0  0  0  0
   19.6954   -5.4282  -14.7436 O   0  0  0  0  0  0  0  0  0  0  0  0
  2  1  1  6
  2  3  1  0
  3  4  1  0
  4  5  2  0
  4  8  1  0
  6  7  2  0
  6  2  1  0
  9  6  1  0
 10  9  1  0
 11 10  1  0
 11 18  1  0
 12 11  2  0
 13 14  1  0
 15 16  1  6
 15 14  1  0
 17 18  1  1
 17 15  1  0
 19 17  1  0
 20 19  2  0
 21 19  1  0
M  END
$$$$
