DGI.pdb
     RDKit          3D

 21 20  0  0  1  0  0  0  0  0999 V2000
   24.8434  -17.9106  -16.6960 N   0  0  0  0  0  0  0  0  0  0  0  0
   24.5303  -18.8089  -15.6302 C   0  0  1  0  0  0  0  0  0  0  0  0
   23.4130  -19.7256  -16.0286 C   0  0  0  0  0  0  0  0  0  0  0  0
   22.1545  -18.9529  -16.1342 C   0  0  0  0  0  0  0  0  0  0  0  0
   21.4757  -18.8447  -17.1777 O   0  0  0  0  0  0  0  0  0  0  0  0
   25.7131  -19.5797  -15.1612 C   0  0  0  0  0  0  0  0  0  0  0  0
   25.8953  -20.7245  -15.6211 O   0  0  0  0  0  0  0  0  0  0  0  0
   21.6964  -18.2999  -14.9841 O   0  0  0  0  0  0  0  0  0  0  0  0
   26.5983  -19.0014  -14.2110 N   0  0  0  0  0  0  0  0  0  0  0  0
   27.7197  -19.7422  -13.6757 C   0  0  0  0  0  0  0  0  0  0  0  0
   27.3026  -20.6566  -12.5926 C   0  0  0  0  0  0  0  0  0  0  0  0
   27.3108  -21.9240  -12.7307 O   0  0  0  0  0  0  0  0  0  0  0  0
   27.4362  -19.2785   -7.3345 C   0  0  0  0  0  0  0  0  0  0  0  0
   27.4328  -20.1190   -8.5850 C   0  0  0  0  0  0  0  0  0  0  0  0
   26.0206  -20.2908   -9.0890 C   0  0  2  0  0  0  0  0  0  0  0  0
   25.1971  -21.0620   -8.1080 C   0  0  0  0  0  0  0  0  0  0  0  0
   26.0513  -20.9338  -10.4666 C   0  0  2  0  0  0  0  0  0  0  0  0
   26.8777  -20.1467  -11.3577 N   0  0  0  0  0  0  0  0  0  0  0  0
   24.6565  -20.9294  -10.9715 C   0  0  0  0  0  0  0  0  0  0  0  0
   24.1053  -19.8680  -11.3258 O   0  0  0  0  0  0  0  0  0  0  0  0
   23.9445  -22.1128  -11.0562 O   0  0  0  0  0  0  0  0  0  0  0  0
  2  1  1  6
  2  3  1  0
  3  4  1  0
  4  5  2  0
  4  8  1  0
  6  7  2  0
  6  2  1  0
  9  6  1  0
 10  9  1  0
 11 10  1  0
 11 18  1  0
 12 11  2  0
 13 14  1  0
 15 16  1  1
 15 14  1  0
 17 18  1  6
 17 15  1  0
 19 17  1  0
 20 19  2  0
 21 19  1  0
M  END
$$$$
