DGI.pdb
     RDKit          3D

 21 20  0  0  1  0  0  0  0  0999 V2000
   18.6368  -14.7659  -17.7755 N   0  0  0  0  0  0  0  0  0  0  0  0
   19.9797  -14.9207  -18.2376 C   0  0  1  0  0  0  0  0  0  0  0  0
   19.9961  -15.5404  -19.6025 C   0  0  0  0  0  0  0  0  0  0  0  0
   19.5563  -16.9510  -19.5095 C   0  0  0  0  0  0  0  0  0  0  0  0
   18.5331  -17.3349  -18.9035 O   0  0  0  0  0  0  0  0  0  0  0  0
   20.7448  -13.6450  -18.2200 C   0  0  0  0  0  0  0  0  0  0  0  0
   21.9904  -13.7008  -18.1952 O   0  0  0  0  0  0  0  0  0  0  0  0
   20.3429  -17.9185  -20.1451 O   0  0  0  0  0  0  0  0  0  0  0  0
   20.0478  -12.4061  -18.2317 N   0  0  0  0  0  0  0  0  0  0  0  0
   20.7530  -11.1431  -18.2126 C   0  0  0  0  0  0  0  0  0  0  0  0
   21.2322  -10.8060  -16.8561 C   0  0  0  0  0  0  0  0  0  0  0  0
   20.6791  -11.2680  -15.8044 O   0  0  0  0  0  0  0  0  0  0  0  0
   26.1611  -11.5231  -15.8898 C   0  0  0  0  0  0  0  0  0  0  0  0
   24.6713  -11.3053  -15.8304 C   0  0  0  0  0  0  0  0  0  0  0  0
   24.3719   -9.9003  -15.3675 C   0  0  2  0  0  0  0  0  0  0  0  0
   24.9971   -9.6358  -14.0354 C   0  0  0  0  0  0  0  0  0  0  0  0
   22.8675   -9.6793  -15.3666 C   0  0  2  0  0  0  0  0  0  0  0  0
   22.3303   -9.9517  -16.6833 N   0  0  0  0  0  0  0  0  0  0  0  0
   22.6458   -8.2491  -15.0411 C   0  0  0  0  0  0  0  0  0  0  0  0
   22.8158   -7.3612  -15.9005 O   0  0  0  0  0  0  0  0  0  0  0  0
   22.2445   -7.8801  -13.7694 O   0  0  0  0  0  0  0  0  0  0  0  0
  2  1  1  6
  2  3  1  0
  3  4  1  0
  4  5  2  0
  4  8  1  0
  6  7  2  0
  6  2  1  0
  9  6  1  0
 10  9  1  0
 11 10  1  0
 11 18  1  0
 12 11  2  0
 13 14  1  0
 15 16  1  1
 15 14  1  0
 17 18  1  6
 17 15  1  0
 19 17  1  0
 20 19  2  0
 21 19  1  0
M  END
$$$$
