DGI.pdb
     RDKit          3D

 21 20  0  0  1  0  0  0  0  0999 V2000
   17.5723   -9.4438  -15.3731 N   0  0  0  0  0  0  0  0  0  0  0  0
   18.7529   -9.8901  -14.7039 C   0  0  1  0  0  0  0  0  0  0  0  0
   19.9762   -9.4554  -15.4534 C   0  0  0  0  0  0  0  0  0  0  0  0
   20.0352  -10.1609  -16.7536 C   0  0  0  0  0  0  0  0  0  0  0  0
   19.3304  -11.1474  -17.0563 O   0  0  0  0  0  0  0  0  0  0  0  0
   18.8107   -9.4498  -13.2841 C   0  0  0  0  0  0  0  0  0  0  0  0
   19.7818   -9.8113  -12.5902 O   0  0  0  0  0  0  0  0  0  0  0  0
   20.9440   -9.6878  -17.7071 O   0  0  0  0  0  0  0  0  0  0  0  0
   17.7707   -8.6370  -12.7564 N   0  0  0  0  0  0  0  0  0  0  0  0
   17.8097   -8.1513  -11.3942 C   0  0  0  0  0  0  0  0  0  0  0  0
   16.6124   -7.3499  -11.0661 C   0  0  0  0  0  0  0  0  0  0  0  0
   15.8889   -6.8076  -11.9649 O   0  0  0  0  0  0  0  0  0  0  0  0
   12.0264   -7.5099   -7.2568 C   0  0  0  0  0  0  0  0  0  0  0  0
   12.9398   -6.5879   -8.0224 C   0  0  0  0  0  0  0  0  0  0  0  0
   14.2233   -7.3020   -8.3694 C   0  0  2  0  0  0  0  0  0  0  0  0
   15.0213   -7.5880   -7.1378 C   0  0  0  0  0  0  0  0  0  0  0  0
   14.9940   -6.4849   -9.3943 C   0  0  2  0  0  0  0  0  0  0  0  0
   16.2305   -7.1592   -9.7307 N   0  0  0  0  0  0  0  0  0  0  0  0
   15.3116   -5.1853   -8.7535 C   0  0  0  0  0  0  0  0  0  0  0  0
   14.4584   -4.2780   -8.6845 O   0  0  0  0  0  0  0  0  0  0  0  0
   16.5687   -4.9624   -8.2202 O   0  0  0  0  0  0  0  0  0  0  0  0
  2  1  1  6
  2  3  1  0
  3  4  1  0
  4  5  2  0
  4  8  1  0
  6  7  2  0
  6  2  1  0
  9  6  1  0
 10  9  1  0
 11 10  1  0
 11 18  1  0
 12 11  2  0
 13 14  1  0
 15 16  1  1
 15 14  1  0
 17 18  1  1
 17 15  1  0
 19 17  1  0
 20 19  2  0
 21 19  1  0
M  END
$$$$
