DGI.pdb
     RDKit          3D

 21 20  0  0  1  0  0  0  0  0999 V2000
   23.5926  -20.3715  -13.4358 N   0  0  0  0  0  0  0  0  0  0  0  0
   24.7853  -19.7679  -13.9402 C   0  0  1  0  0  0  0  0  0  0  0  0
   24.4495  -18.6522  -14.8835 C   0  0  0  0  0  0  0  0  0  0  0  0
   23.6750  -19.1881  -16.0259 C   0  0  0  0  0  0  0  0  0  0  0  0
   24.1010  -20.0440  -16.8306 O   0  0  0  0  0  0  0  0  0  0  0  0
   25.6942  -19.2995  -12.8597 C   0  0  0  0  0  0  0  0  0  0  0  0
   26.8426  -18.9260  -13.1712 O   0  0  0  0  0  0  0  0  0  0  0  0
   22.3768  -18.7003  -16.2147 O   0  0  0  0  0  0  0  0  0  0  0  0
   25.2394  -19.2883  -11.5129 N   0  0  0  0  0  0  0  0  0  0  0  0
   26.1029  -18.8755  -10.4280 C   0  0  0  0  0  0  0  0  0  0  0  0
   26.2718  -19.9487   -9.4264 C   0  0  0  0  0  0  0  0  0  0  0  0
   26.0530  -21.1748   -9.6989 O   0  0  0  0  0  0  0  0  0  0  0  0
   29.1033  -18.4017   -5.0674 C   0  0  0  0  0  0  0  0  0  0  0  0
   28.7432  -19.3251   -6.2023 C   0  0  0  0  0  0  0  0  0  0  0  0
   27.4827  -20.0858   -5.8703 C   0  0  2  0  0  0  0  0  0  0  0  0
   27.7438  -21.1099   -4.8128 C   0  0  0  0  0  0  0  0  0  0  0  0
   26.9060  -20.6865   -7.1426 C   0  0  2  0  0  0  0  0  0  0  0  0
   26.6857  -19.6432   -8.1223 N   0  0  0  0  0  0  0  0  0  0  0  0
   25.6008  -21.2893   -6.7773 C   0  0  0  0  0  0  0  0  0  0  0  0
   24.5518  -20.6148   -6.8051 O   0  0  0  0  0  0  0  0  0  0  0  0
   25.5310  -22.6181   -6.3981 O   0  0  0  0  0  0  0  0  0  0  0  0
  2  1  1  1
  2  3  1  0
  3  4  1  0
  4  5  2  0
  4  8  1  0
  6  7  2  0
  6  2  1  0
  9  6  1  0
 10  9  1  0
 11 10  1  0
 11 18  1  0
 12 11  2  0
 13 14  1  0
 15 16  1  1
 15 14  1  0
 17 18  1  6
 17 15  1  0
 19 17  1  0
 20 19  2  0
 21 19  1  0
M  END
$$$$
