DGI.pdb
     RDKit          3D

 21 20  0  0  1  0  0  0  0  0999 V2000
   25.0565  -22.6084  -13.6675 N   0  0  0  0  0  0  0  0  0  0  0  0
   24.9893  -21.2386  -14.0679 C   0  0  1  0  0  0  0  0  0  0  0  0
   23.6775  -20.9510  -14.7340 C   0  0  0  0  0  0  0  0  0  0  0  0
   22.9617  -22.2226  -14.9842 C   0  0  0  0  0  0  0  0  0  0  0  0
   22.6848  -22.6678  -16.1185 O   0  0  0  0  0  0  0  0  0  0  0  0
   25.2356  -20.2976  -12.9424 C   0  0  0  0  0  0  0  0  0  0  0  0
   25.0518  -19.0794  -13.1369 O   0  0  0  0  0  0  0  0  0  0  0  0
   22.5696  -22.9755  -13.8713 O   0  0  0  0  0  0  0  0  0  0  0  0
   25.6694  -20.8013  -11.6859 N   0  0  0  0  0  0  0  0  0  0  0  0
   25.8726  -19.9267  -10.5515 C   0  0  0  0  0  0  0  0  0  0  0  0
   26.2231  -20.6857   -9.3331 C   0  0  0  0  0  0  0  0  0  0  0  0
   26.3717  -21.9519   -9.3390 O   0  0  0  0  0  0  0  0  0  0  0  0
   29.2148  -18.3298   -5.5257 C   0  0  0  0  0  0  0  0  0  0  0  0
   28.5181  -19.2301   -6.5128 C   0  0  0  0  0  0  0  0  0  0  0  0
   27.3189  -19.8781   -5.8650 C   0  0  2  0  0  0  0  0  0  0  0  0
   27.7195  -20.6237   -4.6326 C   0  0  0  0  0  0  0  0  0  0  0  0
   26.6104  -20.7588   -6.8822 C   0  0  2  0  0  0  0  0  0  0  0  0
   26.4059  -20.0220   -8.1118 N   0  0  0  0  0  0  0  0  0  0  0  0
   25.2901  -21.1053   -6.3016 C   0  0  0  0  0  0  0  0  0  0  0  0
   24.3049  -20.3556   -6.4541 O   0  0  0  0  0  0  0  0  0  0  0  0
   25.1346  -22.2742   -5.5778 O   0  0  0  0  0  0  0  0  0  0  0  0
  2  1  1  1
  2  3  1  0
  3  4  1  0
  4  5  2  0
  4  8  1  0
  6  7  2  0
  6  2  1  0
  9  6  1  0
 10  9  1  0
 11 10  1  0
 11 18  1  0
 12 11  2  0
 13 14  1  0
 15 16  1  1
 15 14  1  0
 17 18  1  6
 17 15  1  0
 19 17  1  0
 20 19  2  0
 21 19  1  0
M  END
$$$$
