DGI.pdb
     RDKit          3D

 21 20  0  0  1  0  0  0  0  0999 V2000
   16.4406  -11.3580  -19.3946 N   0  0  0  0  0  0  0  0  0  0  0  0
   17.1180  -12.0411  -18.3384 C   0  0  1  0  0  0  0  0  0  0  0  0
   18.4239  -12.5939  -18.8247 C   0  0  0  0  0  0  0  0  0  0  0  0
   18.1802  -13.5030  -19.9675 C   0  0  0  0  0  0  0  0  0  0  0  0
   18.1575  -13.1450  -21.1645 O   0  0  0  0  0  0  0  0  0  0  0  0
   17.3127  -11.1896  -17.1343 C   0  0  0  0  0  0  0  0  0  0  0  0
   17.9544  -11.6590  -16.1734 O   0  0  0  0  0  0  0  0  0  0  0  0
   17.9604  -14.8559  -19.6841 O   0  0  0  0  0  0  0  0  0  0  0  0
   16.7696   -9.8761  -17.1058 N   0  0  0  0  0  0  0  0  0  0  0  0
   17.0420   -8.9703  -16.0112 C   0  0  0  0  0  0  0  0  0  0  0  0
   17.8481   -7.8120  -16.4491 C   0  0  0  0  0  0  0  0  0  0  0  0
   18.9592   -7.9475  -17.0595 O   0  0  0  0  0  0  0  0  0  0  0  0
   17.2920   -3.2405  -19.8535 C   0  0  0  0  0  0  0  0  0  0  0  0
   17.9503   -3.6417  -18.5589 C   0  0  0  0  0  0  0  0  0  0  0  0
   17.3271   -4.9120  -18.0336 C   0  0  2  0  0  0  0  0  0  0  0  0
   15.8631   -4.7256  -17.7945 C   0  0  0  0  0  0  0  0  0  0  0  0
   18.0746   -5.3633  -16.7887 C   0  0  2  0  0  0  0  0  0  0  0  0
   17.4055   -6.5051  -16.2010 N   0  0  0  0  0  0  0  0  0  0  0  0
   18.0310   -4.2320  -15.8303 C   0  0  0  0  0  0  0  0  0  0  0  0
   17.0654   -4.0847  -15.0545 O   0  0  0  0  0  0  0  0  0  0  0  0
   19.0697   -3.3191  -15.7854 O   0  0  0  0  0  0  0  0  0  0  0  0
  2  1  1  6
  2  3  1  0
  3  4  1  0
  4  5  2  0
  4  8  1  0
  6  7  2  0
  6  2  1  0
  9  6  1  0
 10  9  1  0
 11 10  1  0
 11 18  1  0
 12 11  2  0
 13 14  1  0
 15 16  1  1
 15 14  1  0
 17 18  1  1
 17 15  1  0
 19 17  1  0
 20 19  2  0
 21 19  1  0
M  END
$$$$
