DGI.pdb
     RDKit          3D

 21 20  0  0  1  0  0  0  0  0999 V2000
   17.3283  -12.5520  -14.6632 N   0  0  0  0  0  0  0  0  0  0  0  0
   17.0462  -11.5193  -15.6091 C   0  0  1  0  0  0  0  0  0  0  0  0
   15.7133  -11.7501  -16.2551 C   0  0  0  0  0  0  0  0  0  0  0  0
   15.7102  -13.0720  -16.9218 C   0  0  0  0  0  0  0  0  0  0  0  0
   14.7723  -13.8952  -16.8571 O   0  0  0  0  0  0  0  0  0  0  0  0
   17.1240  -10.1578  -15.0147 C   0  0  0  0  0  0  0  0  0  0  0  0
   16.0988   -9.6810  -14.4884 O   0  0  0  0  0  0  0  0  0  0  0  0
   16.8368  -13.4204  -17.6756 O   0  0  0  0  0  0  0  0  0  0  0  0
   18.3499   -9.4394  -15.0592 N   0  0  0  0  0  0  0  0  0  0  0  0
   18.4545   -8.0923  -14.5421 C   0  0  0  0  0  0  0  0  0  0  0  0
   19.8139   -7.5423  -14.7233 C   0  0  0  0  0  0  0  0  0  0  0  0
   20.7779   -8.2442  -15.1744 O   0  0  0  0  0  0  0  0  0  0  0  0
   20.6561   -3.5547  -17.6527 C   0  0  0  0  0  0  0  0  0  0  0  0
   20.7863   -4.7841  -16.7912 C   0  0  0  0  0  0  0  0  0  0  0  0
   21.3511   -4.4127  -15.4418 C   0  0  2  0  0  0  0  0  0  0  0  0
   22.6769   -3.7376  -15.5889 C   0  0  0  0  0  0  0  0  0  0  0  0
   21.4154   -5.6523  -14.5634 C   0  0  2  0  0  0  0  0  0  0  0  0
   20.0880   -6.2064  -14.3980 N   0  0  0  0  0  0  0  0  0  0  0  0
   21.9237   -5.2130  -13.2409 C   0  0  0  0  0  0  0  0  0  0  0  0
   21.1811   -4.6212  -12.4320 O   0  0  0  0  0  0  0  0  0  0  0  0
   23.2386   -5.4567  -12.8860 O   0  0  0  0  0  0  0  0  0  0  0  0
  2  1  1  1
  2  3  1  0
  3  4  1  0
  4  5  2  0
  4  8  1  0
  6  7  2  0
  6  2  1  0
  9  6  1  0
 10  9  1  0
 11 10  1  0
 11 18  1  0
 12 11  2  0
 13 14  1  0
 15 16  1  6
 15 14  1  0
 17 18  1  1
 17 15  1  0
 19 17  1  0
 20 19  2  0
 21 19  1  0
M  END
$$$$
