DGI.pdb
     RDKit          3D

 21 20  0  0  1  0  0  0  0  0999 V2000
   18.6765   -8.8045  -16.4759 N   0  0  0  0  0  0  0  0  0  0  0  0
   18.7339   -9.7702  -15.4247 C   0  0  1  0  0  0  0  0  0  0  0  0
   19.2892  -11.0663  -15.9335 C   0  0  0  0  0  0  0  0  0  0  0  0
   18.2349  -11.7997  -16.6701 C   0  0  0  0  0  0  0  0  0  0  0  0
   17.0274  -11.4785  -16.6844 O   0  0  0  0  0  0  0  0  0  0  0  0
   19.4972   -9.2886  -14.2422 C   0  0  0  0  0  0  0  0  0  0  0  0
   19.5170  -10.0011  -13.2187 O   0  0  0  0  0  0  0  0  0  0  0  0
   18.6208  -12.9302  -17.3996 O   0  0  0  0  0  0  0  0  0  0  0  0
   20.1786   -8.0425  -14.3040 N   0  0  0  0  0  0  0  0  0  0  0  0
   21.0108   -7.5823  -13.2138 C   0  0  0  0  0  0  0  0  0  0  0  0
   21.6703   -6.2995  -13.5345 C   0  0  0  0  0  0  0  0  0  0  0  0
   22.5048   -5.7469  -12.7447 O   0  0  0  0  0  0  0  0  0  0  0  0
   23.5590   -6.2075  -18.3162 C   0  0  0  0  0  0  0  0  0  0  0  0
   23.2777   -5.9892  -16.8521 C   0  0  0  0  0  0  0  0  0  0  0  0
   22.5423   -4.6861  -16.6552 C   0  0  2  0  0  0  0  0  0  0  0  0
   23.3376   -3.5410  -17.1951 C   0  0  0  0  0  0  0  0  0  0  0  0
   22.1946   -4.5203  -15.1842 C   0  0  2  0  0  0  0  0  0  0  0  0
   21.3917   -5.6404  -14.7400 N   0  0  0  0  0  0  0  0  0  0  0  0
   21.3931   -3.2770  -15.0720 C   0  0  0  0  0  0  0  0  0  0  0  0
   20.1827   -3.2642  -15.3729 O   0  0  0  0  0  0  0  0  0  0  0  0
   21.9839   -2.1072  -14.6284 O   0  0  0  0  0  0  0  0  0  0  0  0
  2  1  1  6
  2  3  1  0
  3  4  1  0
  4  5  2  0
  4  8  1  0
  6  7  2  0
  6  2  1  0
  9  6  1  0
 10  9  1  0
 11 10  1  0
 11 18  1  0
 12 11  2  0
 13 14  1  0
 15 16  1  1
 15 14  1  0
 17 18  1  6
 17 15  1  0
 19 17  1  0
 20 19  2  0
 21 19  1  0
M  END
$$$$
