DGI.pdb
     RDKit          3D

 21 20  0  0  1  0  0  0  0  0999 V2000
   19.6698  -14.4847  -16.8762 N   0  0  0  0  0  0  0  0  0  0  0  0
   18.2465  -14.4032  -16.7848 C   0  0  1  0  0  0  0  0  0  0  0  0
   17.7168  -15.4772  -15.8830 C   0  0  0  0  0  0  0  0  0  0  0  0
   17.8405  -16.7909  -16.5544 C   0  0  0  0  0  0  0  0  0  0  0  0
   18.3837  -17.7961  -16.0484 O   0  0  0  0  0  0  0  0  0  0  0  0
   17.7738  -13.0605  -16.3527 C   0  0  0  0  0  0  0  0  0  0  0  0
   16.5544  -12.8090  -16.4261 O   0  0  0  0  0  0  0  0  0  0  0  0
   17.3117  -16.9118  -17.8446 O   0  0  0  0  0  0  0  0  0  0  0  0
   18.7107  -12.1057  -15.8716 N   0  0  0  0  0  0  0  0  0  0  0  0
   18.2831  -10.8290  -15.3422 C   0  0  0  0  0  0  0  0  0  0  0  0
   18.6376   -9.7164  -16.2475 C   0  0  0  0  0  0  0  0  0  0  0  0
   19.5762   -9.8093  -17.1054 O   0  0  0  0  0  0  0  0  0  0  0  0
   14.7854   -6.1201  -16.5358 C   0  0  0  0  0  0  0  0  0  0  0  0
   15.8543   -6.8775  -17.2801 C   0  0  0  0  0  0  0  0  0  0  0  0
   17.2142   -6.3124  -16.9495 C   0  0  2  0  0  0  0  0  0  0  0  0
   17.5149   -5.1206  -17.8007 C   0  0  0  0  0  0  0  0  0  0  0  0
   18.2608   -7.4078  -17.0787 C   0  0  2  0  0  0  0  0  0  0  0  0
   17.9383   -8.5028  -16.1879 N   0  0  0  0  0  0  0  0  0  0  0  0
   19.5551   -6.8134  -16.6644 C   0  0  0  0  0  0  0  0  0  0  0  0
   20.2284   -6.1246  -17.4570 O   0  0  0  0  0  0  0  0  0  0  0  0
   20.0349   -7.0177  -15.3828 O   0  0  0  0  0  0  0  0  0  0  0  0
  2  1  1  1
  2  3  1  0
  3  4  1  0
  4  5  2  0
  4  8  1  0
  6  7  2  0
  6  2  1  0
  9  6  1  0
 10  9  1  0
 11 10  1  0
 11 18  1  0
 12 11  2  0
 13 14  1  0
 15 16  1  6
 15 14  1  0
 17 18  1  1
 17 15  1  0
 19 17  1  0
 20 19  2  0
 21 19  1  0
M  END
$$$$
