DGI.pdb
     RDKit          3D

 21 20  0  0  1  0  0  0  0  0999 V2000
   19.8222  -15.1915  -18.3073 N   0  0  0  0  0  0  0  0  0  0  0  0
   19.0288  -14.0080  -18.4115 C   0  0  1  0  0  0  0  0  0  0  0  0
   18.0059  -13.9647  -17.3164 C   0  0  0  0  0  0  0  0  0  0  0  0
   17.2351  -15.2288  -17.3108 C   0  0  0  0  0  0  0  0  0  0  0  0
   17.6069  -16.2821  -16.7506 O   0  0  0  0  0  0  0  0  0  0  0  0
   19.8477  -12.7662  -18.4280 C   0  0  0  0  0  0  0  0  0  0  0  0
   21.0874  -12.8721  -18.3433 O   0  0  0  0  0  0  0  0  0  0  0  0
   16.0059  -15.2414  -17.9799 O   0  0  0  0  0  0  0  0  0  0  0  0
   19.2070  -11.5020  -18.5387 N   0  0  0  0  0  0  0  0  0  0  0  0
   19.9680  -10.2801  -18.6821 C   0  0  0  0  0  0  0  0  0  0  0  0
   20.2706   -9.6686  -17.3714 C   0  0  0  0  0  0  0  0  0  0  0  0
   19.5247   -9.8399  -16.3517 O   0  0  0  0  0  0  0  0  0  0  0  0
   24.8098  -10.5423  -14.1088 C   0  0  0  0  0  0  0  0  0  0  0  0
   23.7502   -9.4978  -14.3465 C   0  0  0  0  0  0  0  0  0  0  0  0
   23.1638   -9.6606  -15.7276 C   0  0  2  0  0  0  0  0  0  0  0  0
   24.2208   -9.5105  -16.7741 C   0  0  0  0  0  0  0  0  0  0  0  0
   22.0144   -8.6813  -15.9063 C   0  0  2  0  0  0  0  0  0  0  0  0
   21.4090   -8.8668  -17.2084 N   0  0  0  0  0  0  0  0  0  0  0  0
   22.5983   -7.3195  -15.8348 C   0  0  0  0  0  0  0  0  0  0  0  0
   23.0239   -6.7488  -16.8590 O   0  0  0  0  0  0  0  0  0  0  0  0
   22.6783   -6.6607  -14.6207 O   0  0  0  0  0  0  0  0  0  0  0  0
  2  1  1  1
  2  3  1  0
  3  4  1  0
  4  5  2  0
  4  8  1  0
  6  7  2  0
  6  2  1  0
  9  6  1  0
 10  9  1  0
 11 10  1  0
 11 18  1  0
 12 11  2  0
 13 14  1  0
 15 16  1  6
 15 14  1  0
 17 18  1  6
 17 15  1  0
 19 17  1  0
 20 19  2  0
 21 19  1  0
M  END
$$$$
