DGI.pdb
     RDKit          3D

 21 20  0  0  1  0  0  0  0  0999 V2000
   20.9048  -13.4413  -20.9183 N   0  0  0  0  0  0  0  0  0  0  0  0
   20.0014  -12.5292  -20.2914 C   0  0  1  0  0  0  0  0  0  0  0  0
   18.9719  -13.2744  -19.4964 C   0  0  0  0  0  0  0  0  0  0  0  0
   18.2555  -14.2211  -20.3809 C   0  0  0  0  0  0  0  0  0  0  0  0
   17.3394  -14.9843  -20.0070 O   0  0  0  0  0  0  0  0  0  0  0  0
   20.6965  -11.5171  -19.4514 C   0  0  0  0  0  0  0  0  0  0  0  0
   21.6383  -11.8943  -18.7261 O   0  0  0  0  0  0  0  0  0  0  0  0
   18.6327  -14.2615  -21.7282 O   0  0  0  0  0  0  0  0  0  0  0  0
   20.2769  -10.1595  -19.4934 N   0  0  0  0  0  0  0  0  0  0  0  0
   20.9837   -9.1282  -18.7655 C   0  0  0  0  0  0  0  0  0  0  0  0
   20.7940   -9.2625  -17.3063 C   0  0  0  0  0  0  0  0  0  0  0  0
   19.7935   -9.8718  -16.8031 O   0  0  0  0  0  0  0  0  0  0  0  0
   22.3876  -11.7281  -14.3286 C   0  0  0  0  0  0  0  0  0  0  0  0
   23.2488  -10.6449  -14.9247 C   0  0  0  0  0  0  0  0  0  0  0  0
   22.8632   -9.3031  -14.3511 C   0  0  2  0  0  0  0  0  0  0  0  0
   22.7936   -9.3641  -12.8589 C   0  0  0  0  0  0  0  0  0  0  0  0
   21.5602   -8.8398  -14.9833 C   0  0  2  0  0  0  0  0  0  0  0  0
   21.7272   -8.7132  -16.4160 N   0  0  0  0  0  0  0  0  0  0  0  0
   21.2593   -7.5042  -14.4123 C   0  0  0  0  0  0  0  0  0  0  0  0
   21.7944   -6.4747  -14.8703 O   0  0  0  0  0  0  0  0  0  0  0  0
   20.3740   -7.3837  -13.3558 O   0  0  0  0  0  0  0  0  0  0  0  0
  2  1  1  1
  2  3  1  0
  3  4  1  0
  4  5  2  0
  4  8  1  0
  6  7  2  0
  6  2  1  0
  9  6  1  0
 10  9  1  0
 11 10  1  0
 11 18  1  0
 12 11  2  0
 13 14  1  0
 15 16  1  1
 15 14  1  0
 17 18  1  6
 17 15  1  0
 19 17  1  0
 20 19  2  0
 21 19  1  0
M  END
$$$$
