DGI.pdb
     RDKit          3D

 21 20  0  0  1  0  0  0  0  0999 V2000
   17.7344   -6.6680  -16.5459 N   0  0  0  0  0  0  0  0  0  0  0  0
   17.2955   -8.0135  -16.3514 C   0  0  1  0  0  0  0  0  0  0  0  0
   17.0420   -8.6780  -17.6710 C   0  0  0  0  0  0  0  0  0  0  0  0
   15.6220   -8.4984  -18.0493 C   0  0  0  0  0  0  0  0  0  0  0  0
   14.7388   -8.0459  -17.2899 O   0  0  0  0  0  0  0  0  0  0  0  0
   18.2382   -8.8120  -15.5227 C   0  0  0  0  0  0  0  0  0  0  0  0
   17.7896   -9.7865  -14.8867 O   0  0  0  0  0  0  0  0  0  0  0  0
   15.2462   -8.8614  -19.3478 O   0  0  0  0  0  0  0  0  0  0  0  0
   19.6124   -8.4511  -15.4746 N   0  0  0  0  0  0  0  0  0  0  0  0
   20.5655   -9.2106  -14.6952 C   0  0  0  0  0  0  0  0  0  0  0  0
   21.9429   -8.7072  -14.8759 C   0  0  0  0  0  0  0  0  0  0  0  0
   22.3553   -7.6373  -14.3184 O   0  0  0  0  0  0  0  0  0  0  0  0
   27.3896  -11.1618  -15.0886 C   0  0  0  0  0  0  0  0  0  0  0  0
   26.5548   -9.9452  -15.3943 C   0  0  0  0  0  0  0  0  0  0  0  0
   25.0902  -10.3096  -15.3952 C   0  0  2  0  0  0  0  0  0  0  0  0
   24.8210  -11.4233  -16.3557 C   0  0  0  0  0  0  0  0  0  0  0  0
   24.2616   -9.0681  -15.6855 C   0  0  2  0  0  0  0  0  0  0  0  0
   22.8535   -9.4053  -15.6813 N   0  0  0  0  0  0  0  0  0  0  0  0
   24.6437   -8.6068  -17.0426 C   0  0  0  0  0  0  0  0  0  0  0  0
   24.0897   -9.0724  -18.0586 O   0  0  0  0  0  0  0  0  0  0  0  0
   25.6276   -7.6467  -17.1987 O   0  0  0  0  0  0  0  0  0  0  0  0
  2  1  1  6
  2  3  1  0
  3  4  1  0
  4  5  2  0
  4  8  1  0
  6  7  2  0
  6  2  1  0
  9  6  1  0
 10  9  1  0
 11 10  1  0
 11 18  1  0
 12 11  2  0
 13 14  1  0
 15 16  1  6
 15 14  1  0
 17 18  1  6
 17 15  1  0
 19 17  1  0
 20 19  2  0
 21 19  1  0
M  END
$$$$
