DGI.pdb
     RDKit          3D

 21 20  0  0  1  0  0  0  0  0999 V2000
   14.3991   -8.7560  -15.1221 N   0  0  0  0  0  0  0  0  0  0  0  0
   14.4385   -8.4034  -16.5059 C   0  0  1  0  0  0  0  0  0  0  0  0
   13.4012   -7.3653  -16.8119 C   0  0  0  0  0  0  0  0  0  0  0  0
   12.0537   -7.9252  -16.5618 C   0  0  0  0  0  0  0  0  0  0  0  0
   11.5309   -8.8392  -17.2346 O   0  0  0  0  0  0  0  0  0  0  0  0
   15.7874   -7.9584  -16.9480 C   0  0  0  0  0  0  0  0  0  0  0  0
   15.9713   -7.7393  -18.1619 O   0  0  0  0  0  0  0  0  0  0  0  0
   11.3174   -7.3918  -15.4976 O   0  0  0  0  0  0  0  0  0  0  0  0
   16.8240   -7.7948  -15.9890 N   0  0  0  0  0  0  0  0  0  0  0  0
   18.1625   -7.4121  -16.3822 C   0  0  0  0  0  0  0  0  0  0  0  0
   19.0192   -7.1403  -15.2093 C   0  0  0  0  0  0  0  0  0  0  0  0
   18.5590   -7.1188  -14.0205 O   0  0  0  0  0  0  0  0  0  0  0  0
   22.7615  -10.3619  -14.9609 C   0  0  0  0  0  0  0  0  0  0  0  0
   21.7162   -9.2853  -14.8244 C   0  0  0  0  0  0  0  0  0  0  0  0
   22.3694   -7.9721  -14.4686 C   0  0  2  0  0  0  0  0  0  0  0  0
   23.2778   -8.1327  -13.2921 C   0  0  0  0  0  0  0  0  0  0  0  0
   21.2957   -6.9190  -14.2445 C   0  0  2  0  0  0  0  0  0  0  0  0
   20.3894   -6.8935  -15.3735 N   0  0  0  0  0  0  0  0  0  0  0  0
   21.9913   -5.6119  -14.1540 C   0  0  0  0  0  0  0  0  0  0  0  0
   22.1950   -4.9212  -15.1724 O   0  0  0  0  0  0  0  0  0  0  0  0
   22.4260   -5.1396  -12.9283 O   0  0  0  0  0  0  0  0  0  0  0  0
  2  1  1  1
  2  3  1  0
  3  4  1  0
  4  5  2  0
  4  8  1  0
  6  7  2  0
  6  2  1  0
  9  6  1  0
 10  9  1  0
 11 10  1  0
 11 18  1  0
 12 11  2  0
 13 14  1  0
 15 16  1  1
 15 14  1  0
 17 18  1  6
 17 15  1  0
 19 17  1  0
 20 19  2  0
 21 19  1  0
M  END
$$$$
