FRD.pdb
     RDKit          3D

 31 31  0  0  1  0  0  0  0  0999 V2000
   24.6669  -15.6438  -20.3691 N   0  0  0  0  0  0  0  0  0  0  0  0
   24.3753  -15.3256  -18.9914 C   0  0  1  0  0  0  0  0  0  0  0  0
   23.0871  -14.5426  -18.9613 C   0  0  0  0  0  0  0  0  0  0  0  0
   23.3154  -13.2555  -19.6809 C   0  0  0  0  0  0  0  0  0  0  0  0
   22.6642  -12.9862  -20.8861 C   0  0  0  0  0  0  0  0  0  0  0  0
   22.8427  -11.8139  -21.5859 C   0  0  0  0  0  0  0  0  0  0  0  0
   23.6858  -10.8570  -21.1049 C   0  0  0  0  0  0  0  0  0  0  0  0
   24.3479  -11.0865  -19.9159 C   0  0  0  0  0  0  0  0  0  0  0  0
   24.1598  -12.2663  -19.2244 C   0  0  0  0  0  0  0  0  0  0  0  0
   24.3184  -16.5372  -18.1350 C   0  0  0  0  0  0  0  0  0  0  0  0
   23.7428  -17.5840  -18.5165 O   0  0  0  0  0  0  0  0  0  0  0  0
   27.0528  -21.6621  -12.9118 N   0  0  0  0  0  0  0  0  0  0  0  0
   26.6146  -21.0386  -11.7146 C   0  0  0  0  0  0  0  0  0  0  0  0
   26.3588  -21.7475  -10.6853 N   0  0  0  0  0  0  0  0  0  0  0  0
   26.4567  -19.6153  -11.6490 N   0  0  0  0  0  0  0  0  0  0  0  0
   26.8013  -18.7634  -12.7752 C   0  0  0  0  0  0  0  0  0  0  0  0
   25.6589  -18.7998  -13.8053 C   0  0  0  0  0  0  0  0  0  0  0  0
   25.8183  -17.7155  -14.8191 C   0  0  0  0  0  0  0  0  0  0  0  0
   24.8262  -17.6816  -15.9233 C   0  0  2  0  0  0  0  0  0  0  0  0
   24.9049  -16.5966  -16.8383 N   0  0  0  0  0  0  0  0  0  0  0  0
   23.4667  -18.1119  -15.5266 C   0  0  0  0  0  0  0  0  0  0  0  0
   22.7109  -17.1783  -15.0908 O   0  0  0  0  0  0  0  0  0  0  0  0
   26.0220  -21.3425   -9.7824 N   0  0  0  0  0  0  0  0  0  0  0  0
   22.9199  -19.3981  -15.5678 C   0  0  2  0  0  0  0  0  0  0  0  0
   21.5627  -19.6379  -15.0969 C   0  0  0  0  0  0  0  0  0  0  0  0
   21.3447  -19.3130  -13.6553 C   0  0  0  0  0  0  0  0  0  0  0  0
   21.6851  -20.4092  -12.7185 O   0  0  0  0  0  0  0  0  0  0  0  0
   22.2198  -21.4892  -13.0133 C   0  0  0  0  0  0  0  0  0  0  0  0
   20.5902  -18.8924  -15.9045 O   0  0  0  0  0  0  0  0  0  0  0  0
   19.3340  -19.0114  -15.7241 O   0  0  0  0  0  0  0  0  0  0  0  0
   21.3839  -20.2344  -11.3564 O   0  0  0  0  0  0  0  0  0  0  0  0
  2  1  1  6
  2  3  1  0
  2 10  1  0
  3  4  1  0
  4  9  2  0
  4  5  1  0
  5  6  2  0
  6  7  1  0
  8  7  2  0
  9  8  1  0
 10 11  2  0
 10 20  1  0
 13 15  1  0
 13 12  1  0
 14 13  2  0
 16 15  1  0
 17 16  1  0
 18 17  1  0
 19 18  1  1
 20 19  1  0
 21 19  1  0
 21 23  1  0
 22 21  2  0
 24 23  1  0
 24 28  1  0
 24 25  1  6
 25 26  1  0
 26 30  1  0
 26 27  2  0
 28 31  1  0
 29 28  2  0
M  END
$$$$
