FRD.pdb
     RDKit          3D

 31 31  0  0  1  0  0  0  0  0999 V2000
   28.2442  -20.5935   -9.0893 N   0  0  0  0  0  0  0  0  0  0  0  0
   26.8091  -20.5826   -8.9327 C   0  0  1  0  0  0  0  0  0  0  0  0
   26.4583  -19.4763   -7.9703 C   0  0  0  0  0  0  0  0  0  0  0  0
   27.3565  -19.5971   -6.7849 C   0  0  0  0  0  0  0  0  0  0  0  0
   28.2194  -18.5572   -6.4340 C   0  0  0  0  0  0  0  0  0  0  0  0
   29.0659  -18.6224   -5.3500 C   0  0  0  0  0  0  0  0  0  0  0  0
   29.0834  -19.7385   -4.5677 C   0  0  0  0  0  0  0  0  0  0  0  0
   28.2443  -20.7881   -4.8824 C   0  0  0  0  0  0  0  0  0  0  0  0
   27.4007  -20.7095   -5.9721 C   0  0  0  0  0  0  0  0  0  0  0  0
   26.1033  -20.4443  -10.2317 C   0  0  0  0  0  0  0  0  0  0  0  0
   25.4143  -19.4313  -10.4996 O   0  0  0  0  0  0  0  0  0  0  0  0
   28.1496  -24.9752  -15.9923 N   0  0  0  0  0  0  0  0  0  0  0  0
   26.7638  -25.2812  -15.9966 C   0  0  0  0  0  0  0  0  0  0  0  0
   26.3812  -26.4967  -16.0584 N   0  0  0  0  0  0  0  0  0  0  0  0
   25.7856  -24.2353  -15.9310 N   0  0  0  0  0  0  0  0  0  0  0  0
   26.1666  -22.8362  -16.0307 C   0  0  0  0  0  0  0  0  0  0  0  0
   25.4161  -22.0296  -14.9566 C   0  0  0  0  0  0  0  0  0  0  0  0
   26.1040  -22.1290  -13.6353 C   0  0  0  0  0  0  0  0  0  0  0  0
   25.4778  -21.4060  -12.4996 C   0  0  2  0  0  0  0  0  0  0  0  0
   26.1578  -21.4372  -11.2516 N   0  0  0  0  0  0  0  0  0  0  0  0
   24.0031  -21.5221  -12.4497 C   0  0  0  0  0  0  0  0  0  0  0  0
   23.5295  -21.9030  -11.3256 O   0  0  0  0  0  0  0  0  0  0  0  0
   25.3753  -26.7803  -16.0390 N   0  0  0  0  0  0  0  0  0  0  0  0
   23.0806  -21.2721  -13.4701 C   0  0  1  0  0  0  0  0  0  0  0  0
   21.7155  -20.8780  -13.1501 C   0  0  0  0  0  0  0  0  0  0  0  0
   21.6073  -19.6011  -12.3824 C   0  0  0  0  0  0  0  0  0  0  0  0
   20.2243  -19.2201  -12.0125 O   0  0  0  0  0  0  0  0  0  0  0  0
   19.5094  -19.7773  -11.1653 C   0  0  0  0  0  0  0  0  0  0  0  0
   20.9036  -20.7707  -14.3678 O   0  0  0  0  0  0  0  0  0  0  0  0
   21.2558  -20.0369  -15.3488 O   0  0  0  0  0  0  0  0  0  0  0  0
   19.6407  -18.1230  -12.6702 O   0  0  0  0  0  0  0  0  0  0  0  0
  2  1  1  6
  2  3  1  0
  2 10  1  0
  3  4  1  0
  4  9  2  0
  4  5  1  0
  5  6  2  0
  6  7  1  0
  8  7  2  0
  9  8  1  0
 10 11  2  0
 10 20  1  0
 13 15  1  0
 13 12  1  0
 14 13  2  0
 16 15  1  0
 17 16  1  0
 18 17  1  0
 19 18  1  6
 20 19  1  0
 21 19  1  0
 21 23  1  0
 22 21  2  0
 24 23  1  0
 24 28  1  0
 24 25  1  6
 25 26  1  0
 26 30  1  0
 26 27  2  0
 28 31  1  0
 29 28  2  0
M  END
$$$$
