FRD.pdb
     RDKit          3D

 31 31  0  0  1  0  0  0  0  0999 V2000
   15.7836  -15.5126    5.2309 N   0  0  0  0  0  0  0  0  0  0  0  0
   16.4935  -16.2762    4.2324 C   0  0  1  0  0  0  0  0  0  0  0  0
   17.9700  -16.1138    4.4908 C   0  0  0  0  0  0  0  0  0  0  0  0
   18.3484  -14.7166    4.1288 C   0  0  0  0  0  0  0  0  0  0  0  0
   18.5989  -13.7653    5.1195 C   0  0  0  0  0  0  0  0  0  0  0  0
   18.9506  -12.4649    4.8347 C   0  0  0  0  0  0  0  0  0  0  0  0
   19.0670  -12.0609    3.5381 C   0  0  0  0  0  0  0  0  0  0  0  0
   18.8275  -12.9727    2.5302 C   0  0  0  0  0  0  0  0  0  0  0  0
   18.4754  -14.2734    2.8298 C   0  0  0  0  0  0  0  0  0  0  0  0
   16.0780  -17.7016    4.2149 C   0  0  0  0  0  0  0  0  0  0  0  0
   15.9177  -18.3515    5.2753 O   0  0  0  0  0  0  0  0  0  0  0  0
   15.7955  -24.9477   -0.7432 N   0  0  0  0  0  0  0  0  0  0  0  0
   14.4383  -24.6606   -0.4436 C   0  0  0  0  0  0  0  0  0  0  0  0
   13.5679  -25.5925   -0.4813 N   0  0  0  0  0  0  0  0  0  0  0  0
   14.0337  -23.3298   -0.0967 N   0  0  0  0  0  0  0  0  0  0  0  0
   14.9881  -22.2341   -0.0615 C   0  0  0  0  0  0  0  0  0  0  0  0
   15.2549  -21.8423    1.4024 C   0  0  0  0  0  0  0  0  0  0  0  0
   15.2626  -20.3583    1.5658 C   0  0  0  0  0  0  0  0  0  0  0  0
   15.7190  -19.8326    2.8773 C   0  0  2  0  0  0  0  0  0  0  0  0
   15.8350  -18.4221    3.0104 N   0  0  0  0  0  0  0  0  0  0  0  0
   16.7784  -20.6443    3.5173 C   0  0  0  0  0  0  0  0  0  0  0  0
   17.9527  -20.1440    3.4559 O   0  0  0  0  0  0  0  0  0  0  0  0
   12.5503  -25.4307   -0.3056 N   0  0  0  0  0  0  0  0  0  0  0  0
   16.6509  -21.8753    4.1678 C   0  0  2  0  0  0  0  0  0  0  0  0
   17.8018  -22.4902    4.8148 C   0  0  0  0  0  0  0  0  0  0  0  0
   18.3523  -21.7097    5.9632 C   0  0  0  0  0  0  0  0  0  0  0  0
   17.4345  -21.5843    7.1194 O   0  0  0  0  0  0  0  0  0  0  0  0
   16.2277  -21.8717    7.1350 C   0  0  0  0  0  0  0  0  0  0  0  0
   17.4805  -23.8470    5.2727 O   0  0  0  0  0  0  0  0  0  0  0  0
   18.3657  -24.6151    5.7739 O   0  0  0  0  0  0  0  0  0  0  0  0
   17.9561  -21.0946    8.3296 O   0  0  0  0  0  0  0  0  0  0  0  0
  2  1  1  1
  2  3  1  0
  2 10  1  0
  3  4  1  0
  4  9  2  0
  4  5  1  0
  5  6  2  0
  6  7  1  0
  8  7  2  0
  9  8  1  0
 10 11  2  0
 10 20  1  0
 13 15  1  0
 13 12  1  0
 14 13  2  0
 16 15  1  0
 17 16  1  0
 18 17  1  0
 19 18  1  6
 20 19  1  0
 21 19  1  0
 21 23  1  0
 22 21  2  0
 24 23  1  0
 24 28  1  0
 24 25  1  6
 25 26  1  0
 26 30  1  0
 26 27  2  0
 28 31  1  0
 29 28  2  0
M  END
$$$$
