FRD.pdb
     RDKit          3D

 31 31  0  0  1  0  0  0  0  0999 V2000
   24.6080  -23.2830  -15.6049 N   0  0  0  0  0  0  0  0  0  0  0  0
   24.0737  -22.2613  -14.7362 C   0  0  1  0  0  0  0  0  0  0  0  0
   24.1604  -20.9442  -15.4649 C   0  0  0  0  0  0  0  0  0  0  0  0
   25.6036  -20.5943  -15.6105 C   0  0  0  0  0  0  0  0  0  0  0  0
   26.2479  -20.7196  -16.8427 C   0  0  0  0  0  0  0  0  0  0  0  0
   27.5768  -20.4094  -17.0258 C   0  0  0  0  0  0  0  0  0  0  0  0
   28.3201  -19.9579  -15.9763 C   0  0  0  0  0  0  0  0  0  0  0  0
   27.7185  -19.8205  -14.7417 C   0  0  0  0  0  0  0  0  0  0  0  0
   26.3853  -20.1353  -14.5721 C   0  0  0  0  0  0  0  0  0  0  0  0
   22.6909  -22.5691  -14.2913 C   0  0  0  0  0  0  0  0  0  0  0  0
   21.8656  -23.1274  -15.0527 O   0  0  0  0  0  0  0  0  0  0  0  0
   17.2373  -25.3778   -9.5787 N   0  0  0  0  0  0  0  0  0  0  0  0
   18.5900  -25.7170   -9.3158 C   0  0  0  0  0  0  0  0  0  0  0  0
   18.9425  -26.9425   -9.2783 N   0  0  0  0  0  0  0  0  0  0  0  0
   19.5685  -24.6934   -9.0922 N   0  0  0  0  0  0  0  0  0  0  0  0
   19.2158  -23.2845   -9.1500 C   0  0  0  0  0  0  0  0  0  0  0  0
   19.2622  -22.8109  -10.6133 C   0  0  0  0  0  0  0  0  0  0  0  0
   20.6716  -22.6497  -11.0787 C   0  0  0  0  0  0  0  0  0  0  0  0
   20.8716  -22.3861  -12.5261 C   0  0  2  0  0  0  0  0  0  0  0  0
   22.2101  -22.2573  -12.9873 N   0  0  0  0  0  0  0  0  0  0  0  0
   19.8801  -21.4569  -13.1130 C   0  0  0  0  0  0  0  0  0  0  0  0
   20.0543  -20.2256  -12.8187 O   0  0  0  0  0  0  0  0  0  0  0  0
   19.9194  -27.2493   -9.0682 N   0  0  0  0  0  0  0  0  0  0  0  0
   18.7908  -21.7604  -13.9352 C   0  0  2  0  0  0  0  0  0  0  0  0
   18.1706  -20.7248  -14.7501 C   0  0  0  0  0  0  0  0  0  0  0  0
   19.0942  -20.0755  -15.7282 C   0  0  0  0  0  0  0  0  0  0  0  0
   18.4413  -19.1148  -16.6478 O   0  0  0  0  0  0  0  0  0  0  0  0
   17.2468  -18.7798  -16.6347 C   0  0  0  0  0  0  0  0  0  0  0  0
   17.0087  -21.2548  -15.4731 O   0  0  0  0  0  0  0  0  0  0  0  0
   16.3196  -20.5295  -16.2629 O   0  0  0  0  0  0  0  0  0  0  0  0
   19.2294  -18.5085  -17.6417 O   0  0  0  0  0  0  0  0  0  0  0  0
  2  1  1  6
  2  3  1  0
  2 10  1  0
  3  4  1  0
  4  9  2  0
  4  5  1  0
  5  6  2  0
  6  7  1  0
  8  7  2  0
  9  8  1  0
 10 11  2  0
 10 20  1  0
 13 15  1  0
 13 12  1  0
 14 13  2  0
 16 15  1  0
 17 16  1  0
 18 17  1  0
 19 18  1  1
 20 19  1  0
 21 19  1  0
 21 23  1  0
 22 21  2  0
 24 23  1  0
 24 28  1  0
 24 25  1  6
 25 26  1  0
 26 30  1  0
 26 27  2  0
 28 31  1  0
 29 28  2  0
M  END
$$$$
