FRD.pdb
     RDKit          3D

 31 31  0  0  1  0  0  0  0  0999 V2000
   25.8679  -19.9428  -19.5506 N   0  0  0  0  0  0  0  0  0  0  0  0
   25.8521  -19.2033  -18.3109 C   0  0  1  0  0  0  0  0  0  0  0  0
   25.0107  -17.9697  -18.5201 C   0  0  0  0  0  0  0  0  0  0  0  0
   25.7308  -17.0800  -19.4774 C   0  0  0  0  0  0  0  0  0  0  0  0
   26.8179  -16.3110  -19.0579 C   0  0  0  0  0  0  0  0  0  0  0  0
   27.5131  -15.4760  -19.9037 C   0  0  0  0  0  0  0  0  0  0  0  0
   27.1462  -15.3760  -21.2127 C   0  0  0  0  0  0  0  0  0  0  0  0
   26.0762  -16.1209  -21.6654 C   0  0  0  0  0  0  0  0  0  0  0  0
   25.3879  -16.9540  -20.8065 C   0  0  0  0  0  0  0  0  0  0  0  0
   25.3720  -20.0262  -17.1720 C   0  0  0  0  0  0  0  0  0  0  0  0
   24.3664  -20.7682  -17.2765 O   0  0  0  0  0  0  0  0  0  0  0  0
   25.4455  -19.3619   -9.5280 N   0  0  0  0  0  0  0  0  0  0  0  0
   25.4847  -20.7346   -9.1698 C   0  0  0  0  0  0  0  0  0  0  0  0
   24.7930  -21.1545   -8.1836 N   0  0  0  0  0  0  0  0  0  0  0  0
   26.2956  -21.6581   -9.9079 N   0  0  0  0  0  0  0  0  0  0  0  0
   26.9191  -21.2798  -11.1652 C   0  0  0  0  0  0  0  0  0  0  0  0
   25.8280  -21.0832  -12.2321 C   0  0  0  0  0  0  0  0  0  0  0  0
   26.4281  -20.7214  -13.5504 C   0  0  0  0  0  0  0  0  0  0  0  0
   25.4935  -20.5882  -14.6964 C   0  0  2  0  0  0  0  0  0  0  0  0
   26.0098  -20.0320  -15.8984 N   0  0  0  0  0  0  0  0  0  0  0  0
   24.1245  -20.1754  -14.3140 C   0  0  0  0  0  0  0  0  0  0  0  0
   24.0178  -18.9672  -13.9118 O   0  0  0  0  0  0  0  0  0  0  0  0
   24.7974  -22.1503   -7.8660 N   0  0  0  0  0  0  0  0  0  0  0  0
   22.9529  -20.9381  -14.3365 C   0  0  1  0  0  0  0  0  0  0  0  0
   21.6955  -20.3722  -13.8676 C   0  0  0  0  0  0  0  0  0  0  0  0
   20.6118  -20.3442  -14.8953 C   0  0  0  0  0  0  0  0  0  0  0  0
   20.5140  -19.0749  -15.6531 O   0  0  0  0  0  0  0  0  0  0  0  0
   21.2037  -18.0586  -15.4778 C   0  0  0  0  0  0  0  0  0  0  0  0
   21.2091  -21.0896  -12.6834 O   0  0  0  0  0  0  0  0  0  0  0  0
   21.6499  -22.2431  -12.3674 O   0  0  0  0  0  0  0  0  0  0  0  0
   19.5544  -18.9864  -16.6768 O   0  0  0  0  0  0  0  0  0  0  0  0
  2  1  1  6
  2  3  1  0
  2 10  1  0
  3  4  1  0
  4  9  2  0
  4  5  1  0
  5  6  2  0
  6  7  1  0
  8  7  2  0
  9  8  1  0
 10 11  2  0
 10 20  1  0
 13 15  1  0
 13 12  1  0
 14 13  2  0
 16 15  1  0
 17 16  1  0
 18 17  1  0
 19 18  1  1
 20 19  1  0
 21 19  1  0
 21 23  1  0
 22 21  2  0
 24 23  1  0
 24 28  1  0
 24 25  1  1
 25 26  1  0
 26 30  1  0
 26 27  2  0
 28 31  1  0
 29 28  2  0
M  END
$$$$
