FRD.pdb
     RDKit          3D

 31 31  0  0  1  0  0  0  0  0999 V2000
   23.3652  -21.6039  -14.5994 N   0  0  0  0  0  0  0  0  0  0  0  0
   22.3078  -20.9119  -13.9016 C   0  0  1  0  0  0  0  0  0  0  0  0
   21.4184  -20.2669  -14.9342 C   0  0  0  0  0  0  0  0  0  0  0  0
   22.1239  -19.0612  -15.4588 C   0  0  0  0  0  0  0  0  0  0  0  0
   22.8733  -19.1278  -16.6349 C   0  0  0  0  0  0  0  0  0  0  0  0
   23.5413  -18.0431  -17.1575 C   0  0  0  0  0  0  0  0  0  0  0  0
   23.4861  -16.8395  -16.5202 C   0  0  0  0  0  0  0  0  0  0  0  0
   22.7550  -16.7337  -15.3544 C   0  0  0  0  0  0  0  0  0  0  0  0
   22.0902  -17.8293  -14.8414 C   0  0  0  0  0  0  0  0  0  0  0  0
   21.5539  -21.8104  -12.9909 C   0  0  0  0  0  0  0  0  0  0  0  0
   21.4110  -23.0305  -13.2431 O   0  0  0  0  0  0  0  0  0  0  0  0
   17.6613  -24.3328   -6.3635 N   0  0  0  0  0  0  0  0  0  0  0  0
   18.5795  -25.2399   -6.9534 C   0  0  0  0  0  0  0  0  0  0  0  0
   18.3783  -26.4965   -6.8640 N   0  0  0  0  0  0  0  0  0  0  0  0
   19.7345  -24.7575   -7.6522 N   0  0  0  0  0  0  0  0  0  0  0  0
   20.1462  -23.3664   -7.5629 C   0  0  0  0  0  0  0  0  0  0  0  0
   19.3010  -22.5251   -8.5352 C   0  0  0  0  0  0  0  0  0  0  0  0
   20.1721  -21.7365   -9.4562 C   0  0  0  0  0  0  0  0  0  0  0  0
   20.1664  -22.1350  -10.8865 C   0  0  2  0  0  0  0  0  0  0  0  0
   20.9484  -21.3578  -11.7837 N   0  0  0  0  0  0  0  0  0  0  0  0
   18.8464  -22.5847  -11.3825 C   0  0  0  0  0  0  0  0  0  0  0  0
   17.9802  -21.6567  -11.5289 O   0  0  0  0  0  0  0  0  0  0  0  0
   18.9940  -27.2072   -7.3206 N   0  0  0  0  0  0  0  0  0  0  0  0
   18.4388  -23.8835  -11.7017 C   0  0  2  0  0  0  0  0  0  0  0  0
   17.0874  -24.1350  -12.1831 C   0  0  0  0  0  0  0  0  0  0  0  0
   17.0105  -25.0844  -13.3338 C   0  0  0  0  0  0  0  0  0  0  0  0
   17.5191  -24.5419  -14.6152 O   0  0  0  0  0  0  0  0  0  0  0  0
   17.9199  -23.3852  -14.8167 C   0  0  0  0  0  0  0  0  0  0  0  0
   16.2307  -24.6308  -11.0997 O   0  0  0  0  0  0  0  0  0  0  0  0
   16.7170  -25.1245  -10.0298 O   0  0  0  0  0  0  0  0  0  0  0  0
   17.5629  -25.4005  -15.7276 O   0  0  0  0  0  0  0  0  0  0  0  0
  2  1  1  6
  2  3  1  0
  2 10  1  0
  3  4  1  0
  4  9  2  0
  4  5  1  0
  5  6  2  0
  6  7  1  0
  8  7  2  0
  9  8  1  0
 10 11  2  0
 10 20  1  0
 13 15  1  0
 13 12  1  0
 14 13  2  0
 16 15  1  0
 17 16  1  0
 18 17  1  0
 19 18  1  1
 20 19  1  0
 21 19  1  0
 21 23  1  0
 22 21  2  0
 24 23  1  0
 24 28  1  0
 24 25  1  6
 25 26  1  0
 26 30  1  0
 26 27  2  0
 28 31  1  0
 29 28  2  0
M  END
$$$$
