FRD.pdb
     RDKit          3D

 31 31  0  0  1  0  0  0  0  0999 V2000
   15.8616   -3.8349  -17.1128 N   0  0  0  0  0  0  0  0  0  0  0  0
   16.9293   -4.6255  -16.5479 C   0  0  1  0  0  0  0  0  0  0  0  0
   18.1487   -3.7452  -16.4413 C   0  0  0  0  0  0  0  0  0  0  0  0
   18.6169   -3.4401  -17.8249 C   0  0  0  0  0  0  0  0  0  0  0  0
   18.3297   -2.2108  -18.4210 C   0  0  0  0  0  0  0  0  0  0  0  0
   18.7398   -1.8840  -19.6941 C   0  0  0  0  0  0  0  0  0  0  0  0
   19.4591   -2.7800  -20.4274 C   0  0  0  0  0  0  0  0  0  0  0  0
   19.7631   -4.0065  -19.8723 C   0  0  0  0  0  0  0  0  0  0  0  0
   19.3456   -4.3213  -18.5948 C   0  0  0  0  0  0  0  0  0  0  0  0
   16.5530   -5.2273  -15.2436 C   0  0  0  0  0  0  0  0  0  0  0  0
   15.7422   -4.6637  -14.4705 O   0  0  0  0  0  0  0  0  0  0  0  0
   15.8239  -13.8295  -14.0237 N   0  0  0  0  0  0  0  0  0  0  0  0
   14.8759  -13.0804  -14.7681 C   0  0  0  0  0  0  0  0  0  0  0  0
   13.9267  -13.6795  -15.3745 N   0  0  0  0  0  0  0  0  0  0  0  0
   14.9733  -11.6523  -14.8455 N   0  0  0  0  0  0  0  0  0  0  0  0
   16.0478  -10.9305  -14.1842 C   0  0  0  0  0  0  0  0  0  0  0  0
   15.7967   -9.4181  -14.3149 C   0  0  0  0  0  0  0  0  0  0  0  0
   16.8479   -8.6376  -13.5974 C   0  0  0  0  0  0  0  0  0  0  0  0
   16.7021   -7.1600  -13.6000 C   0  0  2  0  0  0  0  0  0  0  0  0
   17.0779   -6.4691  -14.7841 N   0  0  0  0  0  0  0  0  0  0  0  0
   17.0645   -6.5155  -12.3178 C   0  0  0  0  0  0  0  0  0  0  0  0
   18.1854   -5.9019  -12.3201 O   0  0  0  0  0  0  0  0  0  0  0  0
   13.2386  -13.1853  -15.9867 N   0  0  0  0  0  0  0  0  0  0  0  0
   16.3403   -6.5008  -11.1219 C   0  0  1  0  0  0  0  0  0  0  0  0
   16.8376   -5.7650   -9.9676 C   0  0  0  0  0  0  0  0  0  0  0  0
   17.1153   -4.3211  -10.2308 C   0  0  0  0  0  0  0  0  0  0  0  0
   17.4302   -3.5240   -9.0223 O   0  0  0  0  0  0  0  0  0  0  0  0
   18.1547   -3.8746   -8.0782 C   0  0  0  0  0  0  0  0  0  0  0  0
   15.9058   -5.8718   -8.8389 O   0  0  0  0  0  0  0  0  0  0  0  0
   16.2026   -5.4370   -7.6780 O   0  0  0  0  0  0  0  0  0  0  0  0
   16.8662   -2.2412   -8.9089 O   0  0  0  0  0  0  0  0  0  0  0  0
  2  1  1  1
  2  3  1  0
  2 10  1  0
  3  4  1  0
  4  9  2  0
  4  5  1  0
  5  6  2  0
  6  7  1  0
  8  7  2  0
  9  8  1  0
 10 11  2  0
 10 20  1  0
 13 15  1  0
 13 12  1  0
 14 13  2  0
 16 15  1  0
 17 16  1  0
 18 17  1  0
 19 18  1  6
 20 19  1  0
 21 19  1  0
 21 23  1  0
 22 21  2  0
 24 23  1  0
 24 28  1  0
 24 25  1  1
 25 26  1  0
 26 30  1  0
 26 27  2  0
 28 31  1  0
 29 28  2  0
M  END
$$$$
