FRD.pdb
     RDKit          3D

 31 31  0  0  1  0  0  0  0  0999 V2000
   26.7521  -21.2017  -18.0577 N   0  0  0  0  0  0  0  0  0  0  0  0
   26.3901  -20.4081  -16.9074 C   0  0  1  0  0  0  0  0  0  0  0  0
   25.7793  -19.1232  -17.4068 C   0  0  0  0  0  0  0  0  0  0  0  0
   26.8642  -18.3123  -18.0329 C   0  0  0  0  0  0  0  0  0  0  0  0
   27.8327  -17.6866  -17.2459 C   0  0  0  0  0  0  0  0  0  0  0  0
   28.8520  -16.9287  -17.7776 C   0  0  0  0  0  0  0  0  0  0  0  0
   28.9441  -16.7652  -19.1276 C   0  0  0  0  0  0  0  0  0  0  0  0
   28.0050  -17.3686  -19.9393 C   0  0  0  0  0  0  0  0  0  0  0  0
   26.9882  -18.1256  -19.3930 C   0  0  0  0  0  0  0  0  0  0  0  0
   25.4872  -21.1389  -15.9824 C   0  0  0  0  0  0  0  0  0  0  0  0
   24.5881  -21.9018  -16.4094 O   0  0  0  0  0  0  0  0  0  0  0  0
   24.1518  -19.4417   -9.2756 N   0  0  0  0  0  0  0  0  0  0  0  0
   24.5061  -20.7790   -8.9590 C   0  0  0  0  0  0  0  0  0  0  0  0
   23.8286  -21.4287   -8.0950 N   0  0  0  0  0  0  0  0  0  0  0  0
   25.6205  -21.4103   -9.6027 N   0  0  0  0  0  0  0  0  0  0  0  0
   26.5160  -20.6627  -10.4698 C   0  0  0  0  0  0  0  0  0  0  0  0
   26.4445  -21.2436  -11.8928 C   0  0  0  0  0  0  0  0  0  0  0  0
   25.0541  -21.6735  -12.2256 C   0  0  0  0  0  0  0  0  0  0  0  0
   24.5998  -21.4461  -13.6207 C   0  0  2  0  0  0  0  0  0  0  0  0
   25.5765  -21.0278  -14.5652 N   0  0  0  0  0  0  0  0  0  0  0  0
   23.2672  -20.8107  -13.7256 C   0  0  0  0  0  0  0  0  0  0  0  0
   23.2853  -19.5501  -13.9345 O   0  0  0  0  0  0  0  0  0  0  0  0
   24.0009  -22.4357   -7.8741 N   0  0  0  0  0  0  0  0  0  0  0  0
   22.0103  -21.4143  -13.6216 C   0  0  1  0  0  0  0  0  0  0  0  0
   20.8165  -20.7153  -14.0769 C   0  0  0  0  0  0  0  0  0  0  0  0
   20.8463  -20.3194  -15.5169 C   0  0  0  0  0  0  0  0  0  0  0  0
   19.6426  -19.5906  -15.9806 O   0  0  0  0  0  0  0  0  0  0  0  0
   18.6783  -19.2435  -15.2815 C   0  0  0  0  0  0  0  0  0  0  0  0
   19.6140  -21.5195  -13.8299 O   0  0  0  0  0  0  0  0  0  0  0  0
   19.5581  -22.7565  -14.1324 O   0  0  0  0  0  0  0  0  0  0  0  0
   19.5595  -19.2463  -17.3411 O   0  0  0  0  0  0  0  0  0  0  0  0
  2  1  1  6
  2  3  1  0
  2 10  1  0
  3  4  1  0
  4  9  2  0
  4  5  1  0
  5  6  2  0
  6  7  1  0
  8  7  2  0
  9  8  1  0
 10 11  2  0
 10 20  1  0
 13 15  1  0
 13 12  1  0
 14 13  2  0
 16 15  1  0
 17 16  1  0
 18 17  1  0
 19 18  1  1
 20 19  1  0
 21 19  1  0
 21 23  1  0
 22 21  2  0
 24 23  1  0
 24 28  1  0
 24 25  1  1
 25 26  1  0
 26 30  1  0
 26 27  2  0
 28 31  1  0
 29 28  2  0
M  END
$$$$
