FRD.pdb
     RDKit          3D

 31 31  0  0  1  0  0  0  0  0999 V2000
   28.2005  -10.4689  -18.8751 N   0  0  0  0  0  0  0  0  0  0  0  0
   27.0915  -10.2600  -17.9748 C   0  0  1  0  0  0  0  0  0  0  0  0
   27.6437  -10.1744  -16.5745 C   0  0  0  0  0  0  0  0  0  0  0  0
   27.9746  -11.5587  -16.1262 C   0  0  0  0  0  0  0  0  0  0  0  0
   29.2227  -12.1197  -16.4032 C   0  0  0  0  0  0  0  0  0  0  0  0
   29.5736  -13.3919  -16.0105 C   0  0  0  0  0  0  0  0  0  0  0  0
   28.6839  -14.1596  -15.3200 C   0  0  0  0  0  0  0  0  0  0  0  0
   27.4394  -13.6398  -15.0269 C   0  0  0  0  0  0  0  0  0  0  0  0
   27.1005  -12.3628  -15.4266 C   0  0  0  0  0  0  0  0  0  0  0  0
   26.2903   -9.0639  -18.3386 C   0  0  0  0  0  0  0  0  0  0  0  0
   26.8351   -7.9984  -18.7134 O   0  0  0  0  0  0  0  0  0  0  0  0
   20.1478   -8.2689  -23.8746 N   0  0  0  0  0  0  0  0  0  0  0  0
   21.3449   -8.8602  -23.3933 C   0  0  0  0  0  0  0  0  0  0  0  0
   21.8862   -9.8171  -24.0404 N   0  0  0  0  0  0  0  0  0  0  0  0
   21.9550   -8.3911  -22.1839 N   0  0  0  0  0  0  0  0  0  0  0  0
   21.3208   -7.3739  -21.3619 C   0  0  0  0  0  0  0  0  0  0  0  0
   22.2636   -6.9973  -20.2057 C   0  0  0  0  0  0  0  0  0  0  0  0
   23.1064   -8.1616  -19.8022 C   0  0  0  0  0  0  0  0  0  0  0  0
   24.0248   -7.9560  -18.6538 C   0  0  2  0  0  0  0  0  0  0  0  0
   24.8670   -9.0415  -18.2890 N   0  0  0  0  0  0  0  0  0  0  0  0
   23.4358   -7.1763  -17.5420 C   0  0  0  0  0  0  0  0  0  0  0  0
   22.7010   -6.1946  -17.9013 O   0  0  0  0  0  0  0  0  0  0  0  0
   22.8073  -10.2353  -23.7769 N   0  0  0  0  0  0  0  0  0  0  0  0
   23.5874   -7.3801  -16.1671 C   0  0  2  0  0  0  0  0  0  0  0  0
   22.9560   -6.4780  -15.2138 C   0  0  0  0  0  0  0  0  0  0  0  0
   23.1298   -5.0284  -15.5298 C   0  0  0  0  0  0  0  0  0  0  0  0
   22.5586   -4.1053  -14.5216 O   0  0  0  0  0  0  0  0  0  0  0  0
   22.1713   -4.4085  -13.3826 C   0  0  0  0  0  0  0  0  0  0  0  0
   21.5230   -6.7689  -15.0895 O   0  0  0  0  0  0  0  0  0  0  0  0
   20.7409   -6.7402  -16.0957 O   0  0  0  0  0  0  0  0  0  0  0  0
   22.4320   -2.7473  -14.8628 O   0  0  0  0  0  0  0  0  0  0  0  0
  2  1  1  6
  2  3  1  0
  2 10  1  0
  3  4  1  0
  4  9  2  0
  4  5  1  0
  5  6  2  0
  6  7  1  0
  8  7  2  0
  9  8  1  0
 10 11  2  0
 10 20  1  0
 13 15  1  0
 13 12  1  0
 14 13  2  0
 16 15  1  0
 17 16  1  0
 18 17  1  0
 19 18  1  1
 20 19  1  0
 21 19  1  0
 21 23  1  0
 22 21  2  0
 24 23  1  0
 24 28  1  0
 24 25  1  6
 25 26  1  0
 26 30  1  0
 26 27  2  0
 28 31  1  0
 29 28  2  0
M  END
$$$$
