FRD.pdb
     RDKit          3D

 31 31  0  0  1  0  0  0  0  0999 V2000
   27.7573  -21.4094  -14.6257 N   0  0  0  0  0  0  0  0  0  0  0  0
   26.8154  -21.6450  -13.5573 C   0  0  1  0  0  0  0  0  0  0  0  0
   26.8716  -20.4626  -12.6234 C   0  0  0  0  0  0  0  0  0  0  0  0
   28.1902  -20.4912  -11.9256 C   0  0  0  0  0  0  0  0  0  0  0  0
   28.4105  -21.3542  -10.8505 C   0  0  0  0  0  0  0  0  0  0  0  0
   29.6092  -21.4162  -10.1758 C   0  0  0  0  0  0  0  0  0  0  0  0
   30.6432  -20.6117  -10.5521 C   0  0  0  0  0  0  0  0  0  0  0  0
   30.4640  -19.7447  -11.6109 C   0  0  0  0  0  0  0  0  0  0  0  0
   29.2569  -19.6927  -12.2786 C   0  0  0  0  0  0  0  0  0  0  0  0
   25.4428  -21.8980  -14.0642 C   0  0  0  0  0  0  0  0  0  0  0  0
   24.9509  -21.2161  -14.9946 O   0  0  0  0  0  0  0  0  0  0  0  0
   22.1340  -27.3872  -17.4173 N   0  0  0  0  0  0  0  0  0  0  0  0
   20.9020  -27.6647  -16.7697 C   0  0  0  0  0  0  0  0  0  0  0  0
   19.9167  -28.1148  -17.4435 N   0  0  0  0  0  0  0  0  0  0  0  0
   20.7527  -27.4447  -15.3611 N   0  0  0  0  0  0  0  0  0  0  0  0
   21.8531  -26.9466  -14.5526 C   0  0  0  0  0  0  0  0  0  0  0  0
   21.9760  -25.4252  -14.7474 C   0  0  0  0  0  0  0  0  0  0  0  0
   23.1972  -24.8964  -14.0708 C   0  0  0  0  0  0  0  0  0  0  0  0
   23.4157  -23.4292  -14.1368 C   0  0  2  0  0  0  0  0  0  0  0  0
   24.5993  -22.9180  -13.5380 N   0  0  0  0  0  0  0  0  0  0  0  0
   22.1854  -22.6269  -13.9542 C   0  0  0  0  0  0  0  0  0  0  0  0
   21.8398  -22.4380  -12.7386 O   0  0  0  0  0  0  0  0  0  0  0  0
   18.9833  -28.3222  -17.0210 N   0  0  0  0  0  0  0  0  0  0  0  0
   21.3667  -22.0626  -14.9372 C   0  0  1  0  0  0  0  0  0  0  0  0
   20.2435  -21.2140  -14.5636 C   0  0  0  0  0  0  0  0  0  0  0  0
   20.1039  -19.9781  -15.3908 C   0  0  0  0  0  0  0  0  0  0  0  0
   20.6044  -18.7433  -14.7429 O   0  0  0  0  0  0  0  0  0  0  0  0
   21.0926  -18.6554  -13.6058 C   0  0  0  0  0  0  0  0  0  0  0  0
   18.9831  -21.9639  -14.6130 O   0  0  0  0  0  0  0  0  0  0  0  0
   18.8166  -22.9486  -15.4052 O   0  0  0  0  0  0  0  0  0  0  0  0
   20.5310  -17.5394  -15.4652 O   0  0  0  0  0  0  0  0  0  0  0  0
  2  1  1  6
  2  3  1  0
  2 10  1  0
  3  4  1  0
  4  9  2  0
  4  5  1  0
  5  6  2  0
  6  7  1  0
  8  7  2  0
  9  8  1  0
 10 11  2  0
 10 20  1  0
 13 15  1  0
 13 12  1  0
 14 13  2  0
 16 15  1  0
 17 16  1  0
 18 17  1  0
 19 18  1  1
 20 19  1  0
 21 19  1  0
 21 23  1  0
 22 21  2  0
 24 23  1  0
 24 28  1  0
 24 25  1  6
 25 26  1  0
 26 30  1  0
 26 27  2  0
 28 31  1  0
 29 28  2  0
M  END
$$$$
