FRD.pdb
     RDKit          3D

 31 31  0  0  1  0  0  0  0  0999 V2000
   25.3200  -10.1263  -17.1161 N   0  0  0  0  0  0  0  0  0  0  0  0
   24.7839   -9.9466  -15.7878 C   0  0  1  0  0  0  0  0  0  0  0  0
   25.9249  -10.0664  -14.8095 C   0  0  0  0  0  0  0  0  0  0  0  0
   26.5348  -11.4176  -14.9790 C   0  0  0  0  0  0  0  0  0  0  0  0
   25.9564  -12.5415  -14.3863 C   0  0  0  0  0  0  0  0  0  0  0  0
   26.4823  -13.8076  -14.5142 C   0  0  0  0  0  0  0  0  0  0  0  0
   27.6160  -14.0018  -15.2455 C   0  0  0  0  0  0  0  0  0  0  0  0
   28.2173  -12.9149  -15.8471 C   0  0  0  0  0  0  0  0  0  0  0  0
   27.6795  -11.6509  -15.7107 C   0  0  0  0  0  0  0  0  0  0  0  0
   24.0528   -8.6619  -15.6462 C   0  0  0  0  0  0  0  0  0  0  0  0
   24.3793   -7.6452  -16.3037 O   0  0  0  0  0  0  0  0  0  0  0  0
   17.9975   -5.4142  -19.4967 N   0  0  0  0  0  0  0  0  0  0  0  0
   18.9508   -6.4353  -19.7469 C   0  0  0  0  0  0  0  0  0  0  0  0
   18.7450   -7.2831  -20.6777 N   0  0  0  0  0  0  0  0  0  0  0  0
   20.1476   -6.5239  -18.9627 N   0  0  0  0  0  0  0  0  0  0  0  0
   20.3665   -5.6577  -17.8162 C   0  0  0  0  0  0  0  0  0  0  0  0
   20.2100   -6.4788  -16.5244 C   0  0  0  0  0  0  0  0  0  0  0  0
   21.3599   -7.4134  -16.3423 C   0  0  0  0  0  0  0  0  0  0  0  0
   21.8421   -7.6173  -14.9529 C   0  0  2  0  0  0  0  0  0  0  0  0
   22.9448   -8.4949  -14.7669 N   0  0  0  0  0  0  0  0  0  0  0  0
   20.7616   -7.6937  -13.9442 C   0  0  0  0  0  0  0  0  0  0  0  0
   20.0962   -8.7847  -13.9478 O   0  0  0  0  0  0  0  0  0  0  0  0
   19.3974   -8.0732  -20.8848 N   0  0  0  0  0  0  0  0  0  0  0  0
   20.3853   -6.7290  -13.0047 C   0  0  1  0  0  0  0  0  0  0  0  0
   19.2662   -6.9728  -12.1050 C   0  0  0  0  0  0  0  0  0  0  0  0
   19.2679   -6.1236  -10.8762 C   0  0  0  0  0  0  0  0  0  0  0  0
   18.2038   -6.4518   -9.8990 O   0  0  0  0  0  0  0  0  0  0  0  0
   17.5095   -7.4799   -9.8853 C   0  0  0  0  0  0  0  0  0  0  0  0
   17.9872   -6.7969  -12.8026 O   0  0  0  0  0  0  0  0  0  0  0  0
   17.6993   -5.7185  -13.4182 O   0  0  0  0  0  0  0  0  0  0  0  0
   17.9341   -5.5253   -8.8766 O   0  0  0  0  0  0  0  0  0  0  0  0
  2  1  1  6
  2  3  1  0
  2 10  1  0
  3  4  1  0
  4  9  2  0
  4  5  1  0
  5  6  2  0
  6  7  1  0
  8  7  2  0
  9  8  1  0
 10 11  2  0
 10 20  1  0
 13 15  1  0
 13 12  1  0
 14 13  2  0
 16 15  1  0
 17 16  1  0
 18 17  1  0
 19 18  1  6
 20 19  1  0
 21 19  1  0
 21 23  1  0
 22 21  2  0
 24 23  1  0
 24 28  1  0
 24 25  1  6
 25 26  1  0
 26 30  1  0
 26 27  2  0
 28 31  1  0
 29 28  2  0
M  END
$$$$
