FRD.pdb
     RDKit          3D

 31 31  0  0  1  0  0  0  0  0999 V2000
   27.4195  -20.8662  -16.6081 N   0  0  0  0  0  0  0  0  0  0  0  0
   27.0321  -20.0844  -15.4580 C   0  0  1  0  0  0  0  0  0  0  0  0
   26.0063  -19.0759  -15.9099 C   0  0  0  0  0  0  0  0  0  0  0  0
   26.7289  -17.9534  -16.5765 C   0  0  0  0  0  0  0  0  0  0  0  0
   27.3949  -16.9853  -15.8225 C   0  0  0  0  0  0  0  0  0  0  0  0
   28.0747  -15.9320  -16.3921 C   0  0  0  0  0  0  0  0  0  0  0  0
   28.1160  -15.8038  -17.7484 C   0  0  0  0  0  0  0  0  0  0  0  0
   27.4695  -16.7414  -18.5281 C   0  0  0  0  0  0  0  0  0  0  0  0
   26.7916  -17.7924  -17.9440 C   0  0  0  0  0  0  0  0  0  0  0  0
   26.5365  -20.9317  -14.3439 C   0  0  0  0  0  0  0  0  0  0  0  0
   25.8372  -21.9509  -14.5556 O   0  0  0  0  0  0  0  0  0  0  0  0
   31.5676  -22.8797   -8.0863 N   0  0  0  0  0  0  0  0  0  0  0  0
   31.1490  -22.4286   -9.3652 C   0  0  0  0  0  0  0  0  0  0  0  0
   31.7878  -22.7918  -10.4080 N   0  0  0  0  0  0  0  0  0  0  0  0
   30.0111  -21.5669   -9.4982 N   0  0  0  0  0  0  0  0  0  0  0  0
   28.6810  -22.0049   -9.1087 C   0  0  0  0  0  0  0  0  0  0  0  0
   27.8381  -22.2486  -10.3727 C   0  0  0  0  0  0  0  0  0  0  0  0
   26.8155  -21.1752  -10.5486 C   0  0  0  0  0  0  0  0  0  0  0  0
   26.0996  -21.1406  -11.8490 C   0  0  2  0  0  0  0  0  0  0  0  0
   26.8158  -20.6520  -12.9755 N   0  0  0  0  0  0  0  0  0  0  0  0
   24.6793  -20.7372  -11.7454 C   0  0  0  0  0  0  0  0  0  0  0  0
   24.4839  -19.5669  -11.2711 O   0  0  0  0  0  0  0  0  0  0  0  0
   31.5604  -22.4436  -11.3670 N   0  0  0  0  0  0  0  0  0  0  0  0
   23.5432  -21.4731  -12.0958 C   0  0  1  0  0  0  0  0  0  0  0  0
   22.2374  -20.8308  -12.1537 C   0  0  0  0  0  0  0  0  0  0  0  0
   22.2049  -19.5735  -12.9595 C   0  0  0  0  0  0  0  0  0  0  0  0
   20.8672  -18.9464  -13.0691 O   0  0  0  0  0  0  0  0  0  0  0  0
   19.9228  -19.0846  -12.2764 C   0  0  0  0  0  0  0  0  0  0  0  0
   21.2232  -21.7551  -12.6741 O   0  0  0  0  0  0  0  0  0  0  0  0
   21.5373  -22.8785  -13.1882 O   0  0  0  0  0  0  0  0  0  0  0  0
   20.6165  -18.1077  -14.1693 O   0  0  0  0  0  0  0  0  0  0  0  0
  2  1  1  6
  2  3  1  0
  2 10  1  0
  3  4  1  0
  4  9  2  0
  4  5  1  0
  5  6  2  0
  6  7  1  0
  8  7  2  0
  9  8  1  0
 10 11  2  0
 10 20  1  0
 13 15  1  0
 13 12  1  0
 14 13  2  0
 16 15  1  0
 17 16  1  0
 18 17  1  0
 19 18  1  1
 20 19  1  0
 21 19  1  0
 21 23  1  0
 22 21  2  0
 24 23  1  0
 24 28  1  0
 24 25  1  1
 25 26  1  0
 26 30  1  0
 26 27  2  0
 28 31  1  0
 29 28  2  0
M  END
$$$$
