FRD.pdb
     RDKit          3D

 31 31  0  0  1  0  0  0  0  0999 V2000
   26.9928  -20.8818  -15.8762 N   0  0  0  0  0  0  0  0  0  0  0  0
   26.2901  -19.8909  -15.0962 C   0  0  1  0  0  0  0  0  0  0  0  0
   25.7495  -18.8533  -16.0473 C   0  0  0  0  0  0  0  0  0  0  0  0
   26.9026  -18.0604  -16.5652 C   0  0  0  0  0  0  0  0  0  0  0  0
   27.4843  -17.0559  -15.7893 C   0  0  0  0  0  0  0  0  0  0  0  0
   28.5488  -16.2984  -16.2238 C   0  0  0  0  0  0  0  0  0  0  0  0
   29.0782  -16.5166  -17.4607 C   0  0  0  0  0  0  0  0  0  0  0  0
   28.5304  -17.5014  -18.2576 C   0  0  0  0  0  0  0  0  0  0  0  0
   27.4631  -18.2535  -17.8096 C   0  0  0  0  0  0  0  0  0  0  0  0
   25.2255  -20.4913  -14.2530 C   0  0  0  0  0  0  0  0  0  0  0  0
   24.4508  -21.3698  -14.7010 O   0  0  0  0  0  0  0  0  0  0  0  0
   21.6516  -23.1128   -8.7051 N   0  0  0  0  0  0  0  0  0  0  0  0
   21.3174  -22.1807   -7.6884 C   0  0  0  0  0  0  0  0  0  0  0  0
   20.2829  -22.3709   -6.9665 N   0  0  0  0  0  0  0  0  0  0  0  0
   22.1334  -21.0240   -7.4625 N   0  0  0  0  0  0  0  0  0  0  0  0
   23.3228  -20.7703   -8.2585 C   0  0  0  0  0  0  0  0  0  0  0  0
   22.9357  -20.7272   -9.7471 C   0  0  0  0  0  0  0  0  0  0  0  0
   24.1401  -20.5313  -10.6073 C   0  0  0  0  0  0  0  0  0  0  0  0
   23.9160  -20.5032  -12.0748 C   0  0  2  0  0  0  0  0  0  0  0  0
   25.0114  -20.1183  -12.8951 N   0  0  0  0  0  0  0  0  0  0  0  0
   22.5842  -19.9944  -12.4724 C   0  0  0  0  0  0  0  0  0  0  0  0
   22.5491  -18.7535  -12.7755 O   0  0  0  0  0  0  0  0  0  0  0  0
   19.9543  -21.6864   -6.2482 N   0  0  0  0  0  0  0  0  0  0  0  0
   21.3779  -20.6969  -12.5516 C   0  0  1  0  0  0  0  0  0  0  0  0
   20.2570  -20.1549  -13.3072 C   0  0  0  0  0  0  0  0  0  0  0  0
   20.5755  -19.8228  -14.7283 C   0  0  0  0  0  0  0  0  0  0  0  0
   19.4294  -19.3058  -15.5119 O   0  0  0  0  0  0  0  0  0  0  0  0
   18.7052  -18.3449  -15.2093 C   0  0  0  0  0  0  0  0  0  0  0  0
   19.1142  -21.0751  -13.2787 O   0  0  0  0  0  0  0  0  0  0  0  0
   19.2691  -22.3403  -13.2713 O   0  0  0  0  0  0  0  0  0  0  0  0
   19.1096  -19.9481  -16.7209 O   0  0  0  0  0  0  0  0  0  0  0  0
  2  1  1  6
  2  3  1  0
  2 10  1  0
  3  4  1  0
  4  9  2  0
  4  5  1  0
  5  6  2  0
  6  7  1  0
  8  7  2  0
  9  8  1  0
 10 11  2  0
 10 20  1  0
 13 15  1  0
 13 12  1  0
 14 13  2  0
 16 15  1  0
 17 16  1  0
 18 17  1  0
 19 18  1  1
 20 19  1  0
 21 19  1  0
 21 23  1  0
 22 21  2  0
 24 23  1  0
 24 28  1  0
 24 25  1  6
 25 26  1  0
 26 30  1  0
 26 27  2  0
 28 31  1  0
 29 28  2  0
M  END
$$$$
