FRD.pdb
     RDKit          3D

 31 31  0  0  1  0  0  0  0  0999 V2000
   29.1293  -21.5877  -13.8958 N   0  0  0  0  0  0  0  0  0  0  0  0
   28.0015  -21.4471  -13.0056 C   0  0  1  0  0  0  0  0  0  0  0  0
   28.3478  -20.3930  -11.9847 C   0  0  0  0  0  0  0  0  0  0  0  0
   29.4080  -20.9481  -11.0934 C   0  0  0  0  0  0  0  0  0  0  0  0
   29.0763  -21.5470   -9.8766 C   0  0  0  0  0  0  0  0  0  0  0  0
   30.0187  -22.0729   -9.0214 C   0  0  0  0  0  0  0  0  0  0  0  0
   31.3401  -22.0206   -9.3513 C   0  0  0  0  0  0  0  0  0  0  0  0
   31.7077  -21.4363  -10.5464 C   0  0  0  0  0  0  0  0  0  0  0  0
   30.7526  -20.9128  -11.3945 C   0  0  0  0  0  0  0  0  0  0  0  0
   26.7461  -21.1346  -13.7345 C   0  0  0  0  0  0  0  0  0  0  0  0
   26.7138  -20.2749  -14.6469 O   0  0  0  0  0  0  0  0  0  0  0  0
   24.8529  -24.8137  -17.6702 N   0  0  0  0  0  0  0  0  0  0  0  0
   24.7382  -25.6959  -16.5645 C   0  0  0  0  0  0  0  0  0  0  0  0
   25.6514  -26.5584  -16.3417 N   0  0  0  0  0  0  0  0  0  0  0  0
   23.6033  -25.6273  -15.6913 N   0  0  0  0  0  0  0  0  0  0  0  0
   22.4982  -24.7213  -15.9572 C   0  0  0  0  0  0  0  0  0  0  0  0
   22.6467  -23.4694  -15.0750 C   0  0  0  0  0  0  0  0  0  0  0  0
   24.0579  -22.9822  -15.0713 C   0  0  0  0  0  0  0  0  0  0  0  0
   24.3430  -21.7656  -14.2693 C   0  0  2  0  0  0  0  0  0  0  0  0
   25.5074  -21.7794  -13.4540 N   0  0  0  0  0  0  0  0  0  0  0  0
   23.1392  -21.1298  -13.6884 C   0  0  0  0  0  0  0  0  0  0  0  0
   22.9213  -21.4082  -12.4604 O   0  0  0  0  0  0  0  0  0  0  0  0
   25.6011  -27.2553  -15.5643 N   0  0  0  0  0  0  0  0  0  0  0  0
   22.2242  -20.2772  -14.3134 C   0  0  2  0  0  0  0  0  0  0  0  0
   21.1569  -19.6505  -13.5458 C   0  0  0  0  0  0  0  0  0  0  0  0
   20.5019  -18.4961  -14.2310 C   0  0  0  0  0  0  0  0  0  0  0  0
   19.3866  -17.8821  -13.4733 O   0  0  0  0  0  0  0  0  0  0  0  0
   18.2642  -18.3766  -13.2866 C   0  0  0  0  0  0  0  0  0  0  0  0
   20.1291  -20.6328  -13.1819 O   0  0  0  0  0  0  0  0  0  0  0  0
   19.8040  -21.5868  -13.9622 O   0  0  0  0  0  0  0  0  0  0  0  0
   19.5936  -16.6157  -12.8989 O   0  0  0  0  0  0  0  0  0  0  0  0
  2  1  1  6
  2  3  1  0
  2 10  1  0
  3  4  1  0
  4  9  2  0
  4  5  1  0
  5  6  2  0
  6  7  1  0
  8  7  2  0
  9  8  1  0
 10 11  2  0
 10 20  1  0
 13 15  1  0
 13 12  1  0
 14 13  2  0
 16 15  1  0
 17 16  1  0
 18 17  1  0
 19 18  1  1
 20 19  1  0
 21 19  1  0
 21 23  1  0
 22 21  2  0
 24 23  1  0
 24 28  1  0
 24 25  1  6
 25 26  1  0
 26 30  1  0
 26 27  2  0
 28 31  1  0
 29 28  2  0
M  END
$$$$
