FRD.pdb
     RDKit          3D

 31 31  0  0  1  0  0  0  0  0999 V2000
   17.2884  -18.6392    2.3327 N   0  0  0  0  0  0  0  0  0  0  0  0
   16.9420  -18.7660    3.7284 C   0  0  1  0  0  0  0  0  0  0  0  0
   17.0496  -20.2233    4.1001 C   0  0  0  0  0  0  0  0  0  0  0  0
   15.9404  -20.9536    3.4199 C   0  0  0  0  0  0  0  0  0  0  0  0
   14.6199  -20.8064    3.8488 C   0  0  0  0  0  0  0  0  0  0  0  0
   13.5638  -21.4590    3.2533 C   0  0  0  0  0  0  0  0  0  0  0  0
   13.7876  -22.2910    2.1971 C   0  0  0  0  0  0  0  0  0  0  0  0
   15.0799  -22.4624    1.7437 C   0  0  0  0  0  0  0  0  0  0  0  0
   16.1295  -21.8020    2.3501 C   0  0  0  0  0  0  0  0  0  0  0  0
   17.7798  -17.8999    4.5961 C   0  0  0  0  0  0  0  0  0  0  0  0
   18.9723  -17.6399    4.3080 O   0  0  0  0  0  0  0  0  0  0  0  0
   19.6402  -10.2343    6.8950 N   0  0  0  0  0  0  0  0  0  0  0  0
   20.3952  -11.4349    6.8436 C   0  0  0  0  0  0  0  0  0  0  0  0
   21.5831  -11.4196    6.3786 N   0  0  0  0  0  0  0  0  0  0  0  0
   19.8356  -12.6691    7.3112 N   0  0  0  0  0  0  0  0  0  0  0  0
   18.4005  -12.8992    7.3048 C   0  0  0  0  0  0  0  0  0  0  0  0
   18.1032  -14.2594    7.9600 C   0  0  0  0  0  0  0  0  0  0  0  0
   17.3577  -15.1522    7.0241 C   0  0  0  0  0  0  0  0  0  0  0  0
   18.0122  -16.4340    6.6592 C   0  0  2  0  0  0  0  0  0  0  0  0
   17.2962  -17.3109    5.7994 N   0  0  0  0  0  0  0  0  0  0  0  0
   18.7629  -17.0654    7.7676 C   0  0  0  0  0  0  0  0  0  0  0  0
   18.1184  -17.9580    8.4162 O   0  0  0  0  0  0  0  0  0  0  0  0
   22.2627  -12.2007    6.5225 N   0  0  0  0  0  0  0  0  0  0  0  0
   20.0712  -16.8039    8.1857 C   0  0  2  0  0  0  0  0  0  0  0  0
   20.6638  -17.5674    9.2752 C   0  0  0  0  0  0  0  0  0  0  0  0
   22.1256  -17.8315    9.1180 C   0  0  0  0  0  0  0  0  0  0  0  0
   22.7411  -18.5774   10.2405 O   0  0  0  0  0  0  0  0  0  0  0  0
   22.7451  -18.2388   11.4340 C   0  0  0  0  0  0  0  0  0  0  0  0
   20.4368  -16.9021   10.5634 O   0  0  0  0  0  0  0  0  0  0  0  0
   20.5115  -15.6358   10.6889 O   0  0  0  0  0  0  0  0  0  0  0  0
   23.3902  -19.7908    9.9530 O   0  0  0  0  0  0  0  0  0  0  0  0
  2  1  1  6
  2  3  1  0
  2 10  1  0
  3  4  1  0
  4  9  2  0
  4  5  1  0
  5  6  2  0
  6  7  1  0
  8  7  2  0
  9  8  1  0
 10 11  2  0
 10 20  1  0
 13 15  1  0
 13 12  1  0
 14 13  2  0
 16 15  1  0
 17 16  1  0
 18 17  1  0
 19 18  1  1
 20 19  1  0
 21 19  1  0
 21 23  1  0
 22 21  2  0
 24 23  1  0
 24 28  1  0
 24 25  1  6
 25 26  1  0
 26 30  1  0
 26 27  2  0
 28 31  1  0
 29 28  2  0
M  END
$$$$
