LWH.pdb
     RDKit          3D

 33 35  0  0  1  0  0  0  0  0999 V2000
    8.7625  -12.0704   18.9255 C   0  0  0  0  0  0  0  0  0  0  0  0
    8.4665  -13.4681   19.4174 C   0  0  1  0  0  0  0  0  0  0  0  0
    7.0784  -13.8412   18.9879 C   0  0  0  0  0  0  0  0  0  0  0  0
    9.5154  -14.4600   19.0726 C   0  0  0  0  0  0  0  0  0  0  0  0
    9.2691  -15.8641   19.5828 C   0  0  2  0  0  0  0  0  0  0  0  0
    8.0669  -16.3894   19.0162 N   0  0  0  0  0  0  0  0  0  0  0  0
    9.2476  -15.7528   21.0664 C   0  0  0  0  0  0  0  0  0  0  0  0
   10.3500  -15.3746   21.5860 O   0  0  0  0  0  0  0  0  0  0  0  0
    8.1676  -16.0149   21.9091 N   0  0  0  0  0  0  0  0  0  0  0  0
    8.2865  -15.8706   23.3422 C   0  0  1  0  0  0  0  0  0  0  0  0
    6.9167  -15.7624   23.9943 C   0  0  0  0  0  0  0  0  0  0  0  0
    7.0032  -15.2372   25.3800 C   0  0  0  0  0  0  0  0  0  0  0  0
    6.9752  -15.9562   26.5580 C   0  0  0  0  0  0  0  0  0  0  0  0
    7.0779  -15.1349   27.6180 N   0  0  0  0  0  0  0  0  0  0  0  0
    7.1748  -13.8685   27.1606 C   0  0  0  0  0  0  0  0  0  0  0  0
    7.2976  -12.6741   27.8377 C   0  0  0  0  0  0  0  0  0  0  0  0
    7.3761  -11.5103   27.1019 C   0  0  0  0  0  0  0  0  0  0  0  0
    7.3314  -11.5566   25.7194 C   0  0  0  0  0  0  0  0  0  0  0  0
    7.2094  -12.7435   25.0424 C   0  0  0  0  0  0  0  0  0  0  0  0
    7.1308  -13.9044   25.7679 C   0  0  0  0  0  0  0  0  0  0  0  0
    9.0499  -16.9682   23.9754 C   0  0  0  0  0  0  0  0  0  0  0  0
    8.8795  -18.1248   23.5132 O   0  0  0  0  0  0  0  0  0  0  0  0
    9.9442  -16.8031   25.0467 N   0  0  0  0  0  0  0  0  0  0  0  0
   10.7637  -17.8842   25.6075 C   0  0  1  0  0  0  0  0  0  0  0  0
   12.1419  -17.6815   24.9976 C   0  0  0  0  0  0  0  0  0  0  0  0
   13.1477  -18.6450   25.4868 C   0  0  0  0  0  0  0  0  0  0  0  0
   12.9930  -19.5325   26.5557 C   0  0  0  0  0  0  0  0  0  0  0  0
   14.1278  -20.2379   26.7051 N   0  0  0  0  0  0  0  0  0  0  0  0
   15.0074  -19.8314   25.7653 C   0  0  0  0  0  0  0  0  0  0  0  0
   14.3966  -18.8753   25.0468 N   0  0  0  0  0  0  0  0  0  0  0  0
   10.8537  -17.8058   27.0606 C   0  0  0  0  0  0  0  0  0  0  0  0
   10.3232  -16.8492   27.6747 O   0  0  0  0  0  0  0  0  0  0  0  0
   11.5143  -18.7592   27.8369 O   0  0  0  0  0  0  0  0  0  0  0  0
  2  1  1  6
  2  3  1  0
  4  2  1  0
  5  4  1  0
  5  6  1  6
  7  5  1  0
  7  8  2  0
  9  7  1  0
 10  9  1  0
 10 11  1  1
 11 12  1  0
 12 13  2  0
 12 20  1  0
 13 14  1  0
 14 15  1  0
 15 16  2  0
 16 17  1  0
 18 17  2  0
 19 18  1  0
 20 19  2  0
 20 15  1  0
 21 10  1  0
 22 21  2  0
 23 21  1  0
 24 25  1  6
 24 23  1  0
 25 26  1  0
 26 27  2  0
 28 27  1  0
 29 28  1  0
 30 29  2  0
 30 26  1  0
 31 24  1  0
 32 31  2  0
 33 31  1  0
M  END
$$$$
