LWH.pdb
     RDKit          3D

 33 35  0  0  1  0  0  0  0  0999 V2000
    9.7079  -16.3437   15.7668 C   0  0  0  0  0  0  0  0  0  0  0  0
    8.6565  -15.4878   16.4340 C   0  0  1  0  0  0  0  0  0  0  0  0
    7.3222  -16.1522   16.2642 C   0  0  0  0  0  0  0  0  0  0  0  0
    8.9910  -15.1045   17.8282 C   0  0  0  0  0  0  0  0  0  0  0  0
    7.9434  -14.2738   18.5387 C   0  0  2  0  0  0  0  0  0  0  0  0
    7.7653  -13.0260   17.8652 N   0  0  0  0  0  0  0  0  0  0  0  0
    8.4177  -14.1477   19.9433 C   0  0  0  0  0  0  0  0  0  0  0  0
    8.4763  -12.9493   20.3779 O   0  0  0  0  0  0  0  0  0  0  0  0
    8.7897  -15.1862   20.7969 N   0  0  0  0  0  0  0  0  0  0  0  0
    8.6015  -15.0818   22.2260 C   0  0  1  0  0  0  0  0  0  0  0  0
    7.1479  -14.7877   22.5639 C   0  0  0  0  0  0  0  0  0  0  0  0
    6.9274  -14.6984   24.0291 C   0  0  0  0  0  0  0  0  0  0  0  0
    6.5603  -15.7127   24.8904 C   0  0  0  0  0  0  0  0  0  0  0  0
    6.4562  -15.2519   26.1495 N   0  0  0  0  0  0  0  0  0  0  0  0
    6.7508  -13.9345   26.1407 C   0  0  0  0  0  0  0  0  0  0  0  0
    6.7864  -13.0134   27.1656 C   0  0  0  0  0  0  0  0  0  0  0  0
    7.1245  -11.7110   26.8630 C   0  0  0  0  0  0  0  0  0  0  0  0
    7.4181  -11.3533   25.5586 C   0  0  0  0  0  0  0  0  0  0  0  0
    7.3838  -12.2675   24.5364 C   0  0  0  0  0  0  0  0  0  0  0  0
    7.0484  -13.5641   24.8302 C   0  0  0  0  0  0  0  0  0  0  0  0
    9.0453  -16.2871   22.9601 C   0  0  0  0  0  0  0  0  0  0  0  0
    8.6171  -17.3962   22.5516 O   0  0  0  0  0  0  0  0  0  0  0  0
    9.9061  -16.2726   24.0707 N   0  0  0  0  0  0  0  0  0  0  0  0
   11.3000  -16.7313   24.0365 C   0  0  1  0  0  0  0  0  0  0  0  0
   12.1017  -15.5040   23.6323 C   0  0  0  0  0  0  0  0  0  0  0  0
   12.4327  -15.4666   22.1941 C   0  0  0  0  0  0  0  0  0  0  0  0
   12.0700  -16.4176   21.2359 C   0  0  0  0  0  0  0  0  0  0  0  0
   12.5633  -16.0444   20.0421 N   0  0  0  0  0  0  0  0  0  0  0  0
   13.2319  -14.8830   20.2031 C   0  0  0  0  0  0  0  0  0  0  0  0
   13.1396  -14.5564   21.5024 N   0  0  0  0  0  0  0  0  0  0  0  0
   11.7525  -17.2062   25.3386 C   0  0  0  0  0  0  0  0  0  0  0  0
   12.9320  -17.6058   25.4893 O   0  0  0  0  0  0  0  0  0  0  0  0
   10.9291  -17.2454   26.4650 O   0  0  0  0  0  0  0  0  0  0  0  0
  2  1  1  1
  2  3  1  0
  4  2  1  0
  5  4  1  0
  5  6  1  6
  7  5  1  0
  7  8  2  0
  9  7  1  0
 10  9  1  0
 10 11  1  6
 11 12  1  0
 12 13  2  0
 12 20  1  0
 13 14  1  0
 14 15  1  0
 15 16  2  0
 16 17  1  0
 18 17  2  0
 19 18  1  0
 20 19  2  0
 20 15  1  0
 21 10  1  0
 22 21  2  0
 23 21  1  0
 24 25  1  1
 24 23  1  0
 25 26  1  0
 26 27  2  0
 28 27  1  0
 29 28  1  0
 30 29  2  0
 30 26  1  0
 31 24  1  0
 32 31  2  0
 33 31  1  0
M  END
$$$$
