LWH.pdb
     RDKit          3D

 33 35  0  0  1  0  0  0  0  0999 V2000
    6.9640  -11.9197   19.3802 C   0  0  0  0  0  0  0  0  0  0  0  0
    7.3300  -13.3821   19.4846 C   0  0  1  0  0  0  0  0  0  0  0  0
    7.8969  -13.8272   18.1689 C   0  0  0  0  0  0  0  0  0  0  0  0
    8.1647  -13.7086   20.6675 C   0  0  0  0  0  0  0  0  0  0  0  0
    8.4618  -15.1805   20.8619 C   0  0  2  0  0  0  0  0  0  0  0  0
    7.2563  -15.9421   20.7675 N   0  0  0  0  0  0  0  0  0  0  0  0
    9.1459  -15.2800   22.1794 C   0  0  0  0  0  0  0  0  0  0  0  0
   10.2147  -14.5896   22.2758 O   0  0  0  0  0  0  0  0  0  0  0  0
    8.7365  -16.0335   23.2795 N   0  0  0  0  0  0  0  0  0  0  0  0
    9.5186  -16.0668   24.4944 C   0  0  1  0  0  0  0  0  0  0  0  0
    8.6457  -16.3981   25.6951 C   0  0  0  0  0  0  0  0  0  0  0  0
    7.4692  -15.4979   25.7893 C   0  0  0  0  0  0  0  0  0  0  0  0
    6.1514  -15.8000   25.5112 C   0  0  0  0  0  0  0  0  0  0  0  0
    5.3657  -14.7272   25.7122 N   0  0  0  0  0  0  0  0  0  0  0  0
    6.1465  -13.7056   26.1236 C   0  0  0  0  0  0  0  0  0  0  0  0
    5.8274  -12.4066   26.4566 C   0  0  0  0  0  0  0  0  0  0  0  0
    6.8456  -11.5631   26.8487 C   0  0  0  0  0  0  0  0  0  0  0  0
    8.1496  -12.0238   26.9015 C   0  0  0  0  0  0  0  0  0  0  0  0
    8.4706  -13.3159   26.5709 C   0  0  0  0  0  0  0  0  0  0  0  0
    7.4631  -14.1599   26.1801 C   0  0  0  0  0  0  0  0  0  0  0  0
   10.6515  -17.0160   24.4303 C   0  0  0  0  0  0  0  0  0  0  0  0
   11.0124  -17.4003   23.2891 O   0  0  0  0  0  0  0  0  0  0  0  0
   11.3434  -17.5087   25.5498 N   0  0  0  0  0  0  0  0  0  0  0  0
   12.6835  -18.1051   25.4909 C   0  0  1  0  0  0  0  0  0  0  0  0
   13.5716  -17.0068   24.9276 C   0  0  0  0  0  0  0  0  0  0  0  0
   13.6832  -17.0393   23.4559 C   0  0  0  0  0  0  0  0  0  0  0  0
   12.9650  -17.8681   22.5891 C   0  0  0  0  0  0  0  0  0  0  0  0
   13.3489  -17.6155   21.3256 N   0  0  0  0  0  0  0  0  0  0  0  0
   14.2918  -16.6499   21.3531 C   0  0  0  0  0  0  0  0  0  0  0  0
   14.4753  -16.3204   22.6420 N   0  0  0  0  0  0  0  0  0  0  0  0
   13.1660  -18.4987   26.8092 C   0  0  0  0  0  0  0  0  0  0  0  0
   12.5441  -18.1456   27.8399 O   0  0  0  0  0  0  0  0  0  0  0  0
   14.3137  -19.2690   27.0033 O   0  0  0  0  0  0  0  0  0  0  0  0
  2  1  1  6
  2  3  1  0
  4  2  1  0
  5  4  1  0
  5  6  1  1
  7  5  1  0
  7  8  2  0
  9  7  1  0
 10  9  1  0
 10 11  1  1
 11 12  1  0
 12 13  2  0
 12 20  1  0
 13 14  1  0
 14 15  1  0
 15 16  2  0
 16 17  1  0
 18 17  2  0
 19 18  1  0
 20 19  2  0
 20 15  1  0
 21 10  1  0
 22 21  2  0
 23 21  1  0
 24 25  1  1
 24 23  1  0
 25 26  1  0
 26 27  2  0
 28 27  1  0
 29 28  1  0
 30 29  2  0
 30 26  1  0
 31 24  1  0
 32 31  2  0
 33 31  1  0
M  END
$$$$
