LWH.pdb
     RDKit          3D

 33 35  0  0  1  0  0  0  0  0999 V2000
    7.5984  -14.5904   16.9796 C   0  0  0  0  0  0  0  0  0  0  0  0
    8.7971  -14.0292   17.7085 C   0  0  1  0  0  0  0  0  0  0  0  0
    8.4058  -12.7242   18.3364 C   0  0  0  0  0  0  0  0  0  0  0  0
    9.4463  -14.9959   18.6288 C   0  0  0  0  0  0  0  0  0  0  0  0
   10.4892  -14.4059   19.5543 C   0  0  2  0  0  0  0  0  0  0  0  0
   11.7872  -14.8919   19.2060 N   0  0  0  0  0  0  0  0  0  0  0  0
   10.0516  -14.7645   20.9305 C   0  0  0  0  0  0  0  0  0  0  0  0
   10.9273  -15.3853   21.6207 O   0  0  0  0  0  0  0  0  0  0  0  0
    8.8138  -14.4913   21.5124 N   0  0  0  0  0  0  0  0  0  0  0  0
    8.5339  -14.8622   22.8809 C   0  0  1  0  0  0  0  0  0  0  0  0
    7.1075  -14.4981   23.2630 C   0  0  0  0  0  0  0  0  0  0  0  0
    6.9163  -14.4797   24.7349 C   0  0  0  0  0  0  0  0  0  0  0  0
    6.5305  -15.5258   25.5487 C   0  0  0  0  0  0  0  0  0  0  0  0
    6.4645  -15.1295   26.8321 N   0  0  0  0  0  0  0  0  0  0  0  0
    6.8034  -13.8240   26.8869 C   0  0  0  0  0  0  0  0  0  0  0  0
    6.8884  -12.9604   27.9579 C   0  0  0  0  0  0  0  0  0  0  0  0
    7.2650  -11.6556   27.7177 C   0  0  0  0  0  0  0  0  0  0  0  0
    7.5472  -11.2388   26.4285 C   0  0  0  0  0  0  0  0  0  0  0  0
    7.4638  -12.0956   25.3604 C   0  0  0  0  0  0  0  0  0  0  0  0
    7.0899  -13.3943   25.5921 C   0  0  0  0  0  0  0  0  0  0  0  0
    8.7674  -16.2974   23.1533 C   0  0  0  0  0  0  0  0  0  0  0  0
    8.4764  -17.1085   22.2381 O   0  0  0  0  0  0  0  0  0  0  0  0
    9.2892  -16.8065   24.3547 N   0  0  0  0  0  0  0  0  0  0  0  0
   10.3923  -17.7722   24.4280 C   0  0  1  0  0  0  0  0  0  0  0  0
   11.5662  -17.0700   23.7637 C   0  0  0  0  0  0  0  0  0  0  0  0
   12.7950  -17.8874   23.7277 C   0  0  0  0  0  0  0  0  0  0  0  0
   12.9495  -19.1739   24.2524 C   0  0  0  0  0  0  0  0  0  0  0  0
   14.2116  -19.5844   24.0372 N   0  0  0  0  0  0  0  0  0  0  0  0
   14.8734  -18.6016   23.3905 C   0  0  0  0  0  0  0  0  0  0  0  0
   14.0028  -17.5941   23.2162 N   0  0  0  0  0  0  0  0  0  0  0  0
   10.7361  -18.1074   25.8046 C   0  0  0  0  0  0  0  0  0  0  0  0
   11.0279  -19.2881   26.1122 O   0  0  0  0  0  0  0  0  0  0  0  0
   10.7619  -17.1669   26.8356 O   0  0  0  0  0  0  0  0  0  0  0  0
  2  1  1  1
  2  3  1  0
  4  2  1  0
  5  4  1  0
  5  6  1  6
  7  5  1  0
  7  8  2  0
  9  7  1  0
 10  9  1  0
 10 11  1  6
 11 12  1  0
 12 13  2  0
 12 20  1  0
 13 14  1  0
 14 15  1  0
 15 16  2  0
 16 17  1  0
 18 17  2  0
 19 18  1  0
 20 19  2  0
 20 15  1  0
 21 10  1  0
 22 21  2  0
 23 21  1  0
 24 25  1  1
 24 23  1  0
 25 26  1  0
 26 27  2  0
 28 27  1  0
 29 28  1  0
 30 29  2  0
 30 26  1  0
 31 24  1  0
 32 31  2  0
 33 31  1  0
M  END
$$$$
