LWH.pdb
     RDKit          3D

 33 35  0  0  1  0  0  0  0  0999 V2000
    7.3724  -12.3278   19.4206 C   0  0  0  0  0  0  0  0  0  0  0  0
    7.6587  -13.7889   19.6777 C   0  0  1  0  0  0  0  0  0  0  0  0
    8.2933  -14.3739   18.4507 C   0  0  0  0  0  0  0  0  0  0  0  0
    8.3925  -14.0429   20.9425 C   0  0  0  0  0  0  0  0  0  0  0  0
    8.7114  -15.4961   21.2236 C   0  0  2  0  0  0  0  0  0  0  0  0
    7.5480  -16.3020   21.0255 N   0  0  0  0  0  0  0  0  0  0  0  0
    9.2471  -15.5271   22.6113 C   0  0  0  0  0  0  0  0  0  0  0  0
   10.1703  -14.6771   22.8427 O   0  0  0  0  0  0  0  0  0  0  0  0
    8.8433  -16.3721   23.6450 N   0  0  0  0  0  0  0  0  0  0  0  0
    9.4665  -16.3090   24.9475 C   0  0  1  0  0  0  0  0  0  0  0  0
    8.4214  -16.3219   26.0525 C   0  0  0  0  0  0  0  0  0  0  0  0
    7.4240  -15.2356   25.8838 C   0  0  0  0  0  0  0  0  0  0  0  0
    6.1072  -15.3534   25.4872 C   0  0  0  0  0  0  0  0  0  0  0  0
    5.5131  -14.1475   25.4493 N   0  0  0  0  0  0  0  0  0  0  0  0
    6.4216  -13.2195   25.8178 C   0  0  0  0  0  0  0  0  0  0  0  0
    6.3120  -11.8507   25.9379 C   0  0  0  0  0  0  0  0  0  0  0  0
    7.4225  -11.1385   26.3397 C   0  0  0  0  0  0  0  0  0  0  0  0
    8.6098  -11.7956   26.6118 C   0  0  0  0  0  0  0  0  0  0  0  0
    8.7223  -13.1577   26.4933 C   0  0  0  0  0  0  0  0  0  0  0  0
    7.6221  -13.8719   26.0943 C   0  0  0  0  0  0  0  0  0  0  0  0
   10.4426  -17.3965   25.1778 C   0  0  0  0  0  0  0  0  0  0  0  0
   10.0986  -18.5563   24.8362 O   0  0  0  0  0  0  0  0  0  0  0  0
   11.7156  -17.2184   25.7458 N   0  0  0  0  0  0  0  0  0  0  0  0
   12.7035  -18.2928   25.9024 C   0  0  1  0  0  0  0  0  0  0  0  0
   14.0516  -17.5940   25.8208 C   0  0  0  0  0  0  0  0  0  0  0  0
   14.2651  -16.8772   24.5480 C   0  0  0  0  0  0  0  0  0  0  0  0
   13.7185  -17.2139   23.3062 C   0  0  0  0  0  0  0  0  0  0  0  0
   14.1511  -16.3344   22.3859 N   0  0  0  0  0  0  0  0  0  0  0  0
   14.9590  -15.4426   22.9975 C   0  0  0  0  0  0  0  0  0  0  0  0
   15.0120  -15.7890   24.2939 N   0  0  0  0  0  0  0  0  0  0  0  0
   12.5781  -18.9689   27.1880 C   0  0  0  0  0  0  0  0  0  0  0  0
   11.7682  -18.5452   28.0471 O   0  0  0  0  0  0  0  0  0  0  0  0
   13.3268  -20.0948   27.5345 O   0  0  0  0  0  0  0  0  0  0  0  0
  2  1  1  6
  2  3  1  0
  4  2  1  0
  5  4  1  0
  5  6  1  1
  7  5  1  0
  7  8  2  0
  9  7  1  0
 10  9  1  0
 10 11  1  1
 11 12  1  0
 12 13  2  0
 12 20  1  0
 13 14  1  0
 14 15  1  0
 15 16  2  0
 16 17  1  0
 18 17  2  0
 19 18  1  0
 20 19  2  0
 20 15  1  0
 21 10  1  0
 22 21  2  0
 23 21  1  0
 24 25  1  1
 24 23  1  0
 25 26  1  0
 26 27  2  0
 28 27  1  0
 29 28  1  0
 30 29  2  0
 30 26  1  0
 31 24  1  0
 32 31  2  0
 33 31  1  0
M  END
$$$$
