LWH.pdb
     RDKit          3D

 33 35  0  0  1  0  0  0  0  0999 V2000
    7.4640  -11.9483   19.4919 C   0  0  0  0  0  0  0  0  0  0  0  0
    7.6107  -13.4466   19.6202 C   0  0  1  0  0  0  0  0  0  0  0  0
    8.1527  -13.9853   18.3293 C   0  0  0  0  0  0  0  0  0  0  0  0
    8.3479  -13.8753   20.8350 C   0  0  0  0  0  0  0  0  0  0  0  0
    8.4408  -15.3727   21.0392 C   0  0  2  0  0  0  0  0  0  0  0  0
    7.1381  -15.9579   20.9873 N   0  0  0  0  0  0  0  0  0  0  0  0
    9.1419  -15.5565   22.3387 C   0  0  0  0  0  0  0  0  0  0  0  0
   10.3249  -15.0795   22.3754 O   0  0  0  0  0  0  0  0  0  0  0  0
    8.6382  -16.1810   23.4797 N   0  0  0  0  0  0  0  0  0  0  0  0
    9.4374  -16.3046   24.6775 C   0  0  1  0  0  0  0  0  0  0  0  0
    8.5579  -16.3377   25.9180 C   0  0  0  0  0  0  0  0  0  0  0  0
    7.4616  -15.3395   25.8461 C   0  0  0  0  0  0  0  0  0  0  0  0
    6.1404  -15.5601   25.5129 C   0  0  0  0  0  0  0  0  0  0  0  0
    5.4419  -14.4116   25.5557 N   0  0  0  0  0  0  0  0  0  0  0  0
    6.2846  -13.4203   25.9154 C   0  0  0  0  0  0  0  0  0  0  0  0
    6.0624  -12.0721   26.0979 C   0  0  0  0  0  0  0  0  0  0  0  0
    7.1268  -11.2786   26.4714 C   0  0  0  0  0  0  0  0  0  0  0  0
    8.3801  -11.8364   26.6547 C   0  0  0  0  0  0  0  0  0  0  0  0
    8.6046  -13.1776   26.4741 C   0  0  0  0  0  0  0  0  0  0  0  0
    7.5508  -13.9723   26.1026 C   0  0  0  0  0  0  0  0  0  0  0  0
   10.3210  -17.4910   24.6665 C   0  0  0  0  0  0  0  0  0  0  0  0
   10.4990  -18.0620   23.5609 O   0  0  0  0  0  0  0  0  0  0  0  0
   10.9683  -18.0138   25.7990 N   0  0  0  0  0  0  0  0  0  0  0  0
   12.2615  -18.7071   25.7599 C   0  0  1  0  0  0  0  0  0  0  0  0
   13.2554  -17.6474   25.3109 C   0  0  0  0  0  0  0  0  0  0  0  0
   13.4145  -17.5755   23.8450 C   0  0  0  0  0  0  0  0  0  0  0  0
   12.7504  -18.3634   22.9003 C   0  0  0  0  0  0  0  0  0  0  0  0
   13.1661  -18.0136   21.6705 N   0  0  0  0  0  0  0  0  0  0  0  0
   14.0769  -17.0252   21.7951 C   0  0  0  0  0  0  0  0  0  0  0  0
   14.2092  -16.7798   23.1088 N   0  0  0  0  0  0  0  0  0  0  0  0
   12.6481  -19.2194   27.0690 C   0  0  0  0  0  0  0  0  0  0  0  0
   13.7345  -19.8303   27.2116 O   0  0  0  0  0  0  0  0  0  0  0  0
   11.8601  -19.0680   28.2110 O   0  0  0  0  0  0  0  0  0  0  0  0
  2  1  1  6
  2  3  1  0
  4  2  1  0
  5  4  1  0
  5  6  1  1
  7  5  1  0
  7  8  2  0
  9  7  1  0
 10  9  1  0
 10 11  1  1
 11 12  1  0
 12 13  2  0
 12 20  1  0
 13 14  1  0
 14 15  1  0
 15 16  2  0
 16 17  1  0
 18 17  2  0
 19 18  1  0
 20 19  2  0
 20 15  1  0
 21 10  1  0
 22 21  2  0
 23 21  1  0
 24 25  1  1
 24 23  1  0
 25 26  1  0
 26 27  2  0
 28 27  1  0
 29 28  1  0
 30 29  2  0
 30 26  1  0
 31 24  1  0
 32 31  2  0
 33 31  1  0
M  END
$$$$
