LWH.pdb
     RDKit          3D

 33 35  0  0  1  0  0  0  0  0999 V2000
    7.5868  -11.8375   19.4521 C   0  0  0  0  0  0  0  0  0  0  0  0
    7.5954  -13.3413   19.5992 C   0  0  1  0  0  0  0  0  0  0  0  0
    7.9554  -13.9482   18.2754 C   0  0  0  0  0  0  0  0  0  0  0  0
    8.3988  -13.8270   20.7487 C   0  0  0  0  0  0  0  0  0  0  0  0
    8.4169  -15.3294   20.9351 C   0  0  2  0  0  0  0  0  0  0  0  0
    7.0974  -15.8588   20.7908 N   0  0  0  0  0  0  0  0  0  0  0  0
    9.0244  -15.5593   22.2737 C   0  0  0  0  0  0  0  0  0  0  0  0
   10.1708  -15.0226   22.4353 O   0  0  0  0  0  0  0  0  0  0  0  0
    8.4713  -16.2829   23.3301 N   0  0  0  0  0  0  0  0  0  0  0  0
    9.2291  -16.5465   24.5322 C   0  0  1  0  0  0  0  0  0  0  0  0
    8.3112  -16.6692   25.7387 C   0  0  0  0  0  0  0  0  0  0  0  0
    7.3126  -15.5721   25.7884 C   0  0  0  0  0  0  0  0  0  0  0  0
    5.9721  -15.6361   25.4656 C   0  0  0  0  0  0  0  0  0  0  0  0
    5.3852  -14.4380   25.6350 N   0  0  0  0  0  0  0  0  0  0  0  0
    6.3221  -13.5687   26.0695 C   0  0  0  0  0  0  0  0  0  0  0  0
    6.2301  -12.2303   26.3863 C   0  0  0  0  0  0  0  0  0  0  0  0
    7.3692  -11.5787   26.8104 C   0  0  0  0  0  0  0  0  0  0  0  0
    8.5670  -12.2649   26.9104 C   0  0  0  0  0  0  0  0  0  0  0  0
    8.6621  -13.5969   26.5961 C   0  0  0  0  0  0  0  0  0  0  0  0
    7.5333  -14.2507   26.1737 C   0  0  0  0  0  0  0  0  0  0  0  0
   10.0768  -17.7547   24.4313 C   0  0  0  0  0  0  0  0  0  0  0  0
    9.7808  -18.5888   23.5386 O   0  0  0  0  0  0  0  0  0  0  0  0
   11.1800  -18.0261   25.2585 N   0  0  0  0  0  0  0  0  0  0  0  0
   12.3699  -18.7682   24.8246 C   0  0  1  0  0  0  0  0  0  0  0  0
   13.0042  -17.8919   23.7559 C   0  0  0  0  0  0  0  0  0  0  0  0
   14.1520  -18.5285   23.0801 C   0  0  0  0  0  0  0  0  0  0  0  0
   14.6921  -19.7845   23.3715 C   0  0  0  0  0  0  0  0  0  0  0  0
   15.7341  -20.0122   22.5530 N   0  0  0  0  0  0  0  0  0  0  0  0
   15.8809  -18.9414   21.7443 C   0  0  0  0  0  0  0  0  0  0  0  0
   14.9204  -18.0647   22.0796 N   0  0  0  0  0  0  0  0  0  0  0  0
   13.3150  -18.9738   25.9155 C   0  0  0  0  0  0  0  0  0  0  0  0
   14.3642  -19.6345   25.7249 O   0  0  0  0  0  0  0  0  0  0  0  0
   13.1198  -18.4651   27.2005 O   0  0  0  0  0  0  0  0  0  0  0  0
  2  1  1  6
  2  3  1  0
  4  2  1  0
  5  4  1  0
  5  6  1  1
  7  5  1  0
  7  8  2  0
  9  7  1  0
 10  9  1  0
 10 11  1  1
 11 12  1  0
 12 13  2  0
 12 20  1  0
 13 14  1  0
 14 15  1  0
 15 16  2  0
 16 17  1  0
 18 17  2  0
 19 18  1  0
 20 19  2  0
 20 15  1  0
 21 10  1  0
 22 21  2  0
 23 21  1  0
 24 25  1  6
 24 23  1  0
 25 26  1  0
 26 27  2  0
 28 27  1  0
 29 28  1  0
 30 29  2  0
 30 26  1  0
 31 24  1  0
 32 31  2  0
 33 31  1  0
M  END
$$$$
