LWH.pdb
     RDKit          3D

 33 35  0  0  1  0  0  0  0  0999 V2000
    8.9721  -11.9534   20.1828 C   0  0  0  0  0  0  0  0  0  0  0  0
    8.3860  -13.2876   20.5822 C   0  0  1  0  0  0  0  0  0  0  0  0
    7.0483  -13.4385   19.9201 C   0  0  0  0  0  0  0  0  0  0  0  0
    9.3117  -14.4315   20.3890 C   0  0  0  0  0  0  0  0  0  0  0  0
    8.9223  -15.7059   21.1077 C   0  0  2  0  0  0  0  0  0  0  0  0
    7.5106  -15.7344   21.3284 N   0  0  0  0  0  0  0  0  0  0  0  0
    9.7359  -15.7275   22.3532 C   0  0  0  0  0  0  0  0  0  0  0  0
   10.9924  -15.8456   22.1641 O   0  0  0  0  0  0  0  0  0  0  0  0
    9.2640  -15.6327   23.6623 N   0  0  0  0  0  0  0  0  0  0  0  0
   10.0939  -16.0084   24.7843 C   0  0  1  0  0  0  0  0  0  0  0  0
    9.6751  -15.2662   26.0441 C   0  0  0  0  0  0  0  0  0  0  0  0
    8.2676  -14.8007   25.9702 C   0  0  0  0  0  0  0  0  0  0  0  0
    7.1415  -15.5561   25.7122 C   0  0  0  0  0  0  0  0  0  0  0  0
    6.0394  -14.7855   25.7259 N   0  0  0  0  0  0  0  0  0  0  0  0
    6.4169  -13.5169   25.9914 C   0  0  0  0  0  0  0  0  0  0  0  0
    5.6726  -12.3628   26.1111 C   0  0  0  0  0  0  0  0  0  0  0  0
    6.3329  -11.1848   26.3905 C   0  0  0  0  0  0  0  0  0  0  0  0
    7.7083  -11.1775   26.5443 C   0  0  0  0  0  0  0  0  0  0  0  0
    8.4521  -12.3241   26.4259 C   0  0  0  0  0  0  0  0  0  0  0  0
    7.8019  -13.4989   26.1481 C   0  0  0  0  0  0  0  0  0  0  0  0
   10.0935  -17.4645   25.0454 C   0  0  0  0  0  0  0  0  0  0  0  0
    9.6381  -18.2083   24.1401 O   0  0  0  0  0  0  0  0  0  0  0  0
   10.5656  -18.0632   26.2259 N   0  0  0  0  0  0  0  0  0  0  0  0
   11.5674  -19.1354   26.2601 C   0  0  1  0  0  0  0  0  0  0  0  0
   12.8065  -18.5281   25.6212 C   0  0  0  0  0  0  0  0  0  0  0  0
   13.0037  -18.9382   24.2168 C   0  0  0  0  0  0  0  0  0  0  0  0
   12.1683  -19.7778   23.4742 C   0  0  0  0  0  0  0  0  0  0  0  0
   12.6833  -19.9263   22.2412 N   0  0  0  0  0  0  0  0  0  0  0  0
   13.8240  -19.2083   22.1680 C   0  0  0  0  0  0  0  0  0  0  0  0
   13.9952  -18.6246   23.3652 N   0  0  0  0  0  0  0  0  0  0  0  0
   11.8735  -19.5557   27.6223 C   0  0  0  0  0  0  0  0  0  0  0  0
   11.5476  -18.8322   28.5938 O   0  0  0  0  0  0  0  0  0  0  0  0
   12.5274  -20.7514   27.9234 O   0  0  0  0  0  0  0  0  0  0  0  0
  2  1  1  6
  2  3  1  0
  4  2  1  0
  5  4  1  0
  5  6  1  1
  7  5  1  0
  7  8  2  0
  9  7  1  0
 10  9  1  0
 10 11  1  1
 11 12  1  0
 12 13  2  0
 12 20  1  0
 13 14  1  0
 14 15  1  0
 15 16  2  0
 16 17  1  0
 18 17  2  0
 19 18  1  0
 20 19  2  0
 20 15  1  0
 21 10  1  0
 22 21  2  0
 23 21  1  0
 24 25  1  1
 24 23  1  0
 25 26  1  0
 26 27  2  0
 28 27  1  0
 29 28  1  0
 30 29  2  0
 30 26  1  0
 31 24  1  0
 32 31  2  0
 33 31  1  0
M  END
$$$$
