LWH.pdb
     RDKit          3D

 33 35  0  0  1  0  0  0  0  0999 V2000
    8.7816  -21.2384   18.6492 C   0  0  0  0  0  0  0  0  0  0  0  0
    8.6242  -19.7425   18.5060 C   0  0  1  0  0  0  0  0  0  0  0  0
    7.3763  -19.4671   17.7202 C   0  0  0  0  0  0  0  0  0  0  0  0
    8.7317  -19.0025   19.7881 C   0  0  0  0  0  0  0  0  0  0  0  0
    8.3985  -17.5275   19.7123 C   0  0  2  0  0  0  0  0  0  0  0  0
    8.8308  -16.9894   18.4610 N   0  0  0  0  0  0  0  0  0  0  0  0
    9.0473  -16.9092   20.9001 C   0  0  0  0  0  0  0  0  0  0  0  0
   10.3229  -16.9386   20.8832 O   0  0  0  0  0  0  0  0  0  0  0  0
    8.4075  -16.3206   21.9908 N   0  0  0  0  0  0  0  0  0  0  0  0
    9.1642  -15.7058   23.0577 C   0  0  1  0  0  0  0  0  0  0  0  0
    8.7146  -14.2711   23.2876 C   0  0  0  0  0  0  0  0  0  0  0  0
    7.6906  -14.1768   24.3581 C   0  0  0  0  0  0  0  0  0  0  0  0
    6.7565  -15.1270   24.7181 C   0  0  0  0  0  0  0  0  0  0  0  0
    5.9961  -14.6839   25.7350 N   0  0  0  0  0  0  0  0  0  0  0  0
    6.4127  -13.4420   26.0612 C   0  0  0  0  0  0  0  0  0  0  0  0
    5.9628  -12.5663   27.0260 C   0  0  0  0  0  0  0  0  0  0  0  0
    6.5845  -11.3403   27.1375 C   0  0  0  0  0  0  0  0  0  0  0  0
    7.6323  -11.0121   26.2949 C   0  0  0  0  0  0  0  0  0  0  0  0
    8.0825  -11.8812   25.3337 C   0  0  0  0  0  0  0  0  0  0  0  0
    7.4688  -13.1018   25.2174 C   0  0  0  0  0  0  0  0  0  0  0  0
    9.0901  -16.4568   24.3301 C   0  0  0  0  0  0  0  0  0  0  0  0
    7.9823  -16.9713   24.6275 O   0  0  0  0  0  0  0  0  0  0  0  0
   10.1662  -16.6316   25.2167 N   0  0  0  0  0  0  0  0  0  0  0  0
   11.2624  -17.5839   25.0016 C   0  0  1  0  0  0  0  0  0  0  0  0
   11.9793  -17.0751   23.7608 C   0  0  0  0  0  0  0  0  0  0  0  0
   13.1401  -17.9009   23.3736 C   0  0  0  0  0  0  0  0  0  0  0  0
   13.6200  -19.0249   24.0522 C   0  0  0  0  0  0  0  0  0  0  0  0
   14.6971  -19.5000   23.4027 N   0  0  0  0  0  0  0  0  0  0  0  0
   14.9246  -18.7163   22.3275 C   0  0  0  0  0  0  0  0  0  0  0  0
   13.9777  -17.7640   22.3314 N   0  0  0  0  0  0  0  0  0  0  0  0
   12.1897  -17.6149   26.1262 C   0  0  0  0  0  0  0  0  0  0  0  0
   13.1836  -18.3798   26.1033 O   0  0  0  0  0  0  0  0  0  0  0  0
   12.0363  -16.8211   27.2640 O   0  0  0  0  0  0  0  0  0  0  0  0
  2  1  1  1
  2  3  1  0
  4  2  1  0
  5  4  1  0
  5  6  1  6
  7  5  1  0
  7  8  2  0
  9  7  1  0
 10  9  1  0
 10 11  1  1
 11 12  1  0
 12 13  2  0
 12 20  1  0
 13 14  1  0
 14 15  1  0
 15 16  2  0
 16 17  1  0
 18 17  2  0
 19 18  1  0
 20 19  2  0
 20 15  1  0
 21 10  1  0
 22 21  2  0
 23 21  1  0
 24 25  1  6
 24 23  1  0
 25 26  1  0
 26 27  2  0
 28 27  1  0
 29 28  1  0
 30 29  2  0
 30 26  1  0
 31 24  1  0
 32 31  2  0
 33 31  1  0
M  END
$$$$
