LWH.pdb
     RDKit          3D

 33 35  0  0  1  0  0  0  0  0999 V2000
    5.3387  -12.2975   25.8214 C   0  0  0  0  0  0  0  0  0  0  0  0
    6.7601  -12.8075   25.8734 C   0  0  1  0  0  0  0  0  0  0  0  0
    7.2763  -12.6400   27.2719 C   0  0  0  0  0  0  0  0  0  0  0  0
    6.9309  -14.1669   25.3026 C   0  0  0  0  0  0  0  0  0  0  0  0
    8.3424  -14.7129   25.3460 C   0  0  2  0  0  0  0  0  0  0  0  0
    9.2845  -13.6567   25.1480 N   0  0  0  0  0  0  0  0  0  0  0  0
    8.3916  -15.7779   24.3082 C   0  0  0  0  0  0  0  0  0  0  0  0
    7.5602  -16.7297   24.4850 O   0  0  0  0  0  0  0  0  0  0  0  0
    9.2350  -15.8259   23.1983 N   0  0  0  0  0  0  0  0  0  0  0  0
    9.4148  -17.0489   22.4495 C   0  0  1  0  0  0  0  0  0  0  0  0
    9.0655  -16.8460   20.9831 C   0  0  0  0  0  0  0  0  0  0  0  0
    9.2819  -15.4424   20.5516 C   0  0  0  0  0  0  0  0  0  0  0  0
   10.4265  -14.8933   20.0096 C   0  0  0  0  0  0  0  0  0  0  0  0
   10.2462  -13.5876   19.7426 N   0  0  0  0  0  0  0  0  0  0  0  0
    8.9881  -13.2550   20.1015 C   0  0  0  0  0  0  0  0  0  0  0  0
    8.3213  -12.0505   20.0327 C   0  0  0  0  0  0  0  0  0  0  0  0
    7.0178  -11.9981   20.4800 C   0  0  0  0  0  0  0  0  0  0  0  0
    6.4081  -13.1346   20.9823 C   0  0  0  0  0  0  0  0  0  0  0  0
    7.0688  -14.3349   21.0520 C   0  0  0  0  0  0  0  0  0  0  0  0
    8.3650  -14.3939   20.6091 C   0  0  0  0  0  0  0  0  0  0  0  0
   10.7825  -17.6019   22.5597 C   0  0  0  0  0  0  0  0  0  0  0  0
   10.9939  -18.7178   22.0210 O   0  0  0  0  0  0  0  0  0  0  0  0
   11.8488  -16.9668   23.2188 N   0  0  0  0  0  0  0  0  0  0  0  0
   13.1862  -17.5521   23.3718 C   0  0  1  0  0  0  0  0  0  0  0  0
   14.1447  -16.4218   23.0307 C   0  0  0  0  0  0  0  0  0  0  0  0
   14.1707  -16.0880   21.5929 C   0  0  0  0  0  0  0  0  0  0  0  0
   13.5347  -16.7937   20.5673 C   0  0  0  0  0  0  0  0  0  0  0  0
   13.7990  -16.1919   19.3945 N   0  0  0  0  0  0  0  0  0  0  0  0
   14.5852  -15.1211   19.6341 C   0  0  0  0  0  0  0  0  0  0  0  0
   14.7945  -15.0797   20.9600 N   0  0  0  0  0  0  0  0  0  0  0  0
   13.4314  -18.0092   24.7343 C   0  0  0  0  0  0  0  0  0  0  0  0
   12.5463  -17.8756   25.6133 O   0  0  0  0  0  0  0  0  0  0  0  0
   14.6277  -18.6056   25.1357 O   0  0  0  0  0  0  0  0  0  0  0  0
  2  1  1  1
  2  3  1  0
  4  2  1  0
  5  4  1  0
  5  6  1  6
  7  5  1  0
  7  8  2  0
  9  7  1  0
 10  9  1  0
 10 11  1  6
 11 12  1  0
 12 13  2  0
 12 20  1  0
 13 14  1  0
 14 15  1  0
 15 16  2  0
 16 17  1  0
 18 17  2  0
 19 18  1  0
 20 19  2  0
 20 15  1  0
 21 10  1  0
 22 21  2  0
 23 21  1  0
 24 25  1  1
 24 23  1  0
 25 26  1  0
 26 27  2  0
 28 27  1  0
 29 28  1  0
 30 29  2  0
 30 26  1  0
 31 24  1  0
 32 31  2  0
 33 31  1  0
M  END
$$$$
