LWH.pdb
     RDKit          3D

 33 35  0  0  1  0  0  0  0  0999 V2000
    7.2887  -12.2089   19.9940 C   0  0  0  0  0  0  0  0  0  0  0  0
    7.3590  -13.7019   20.2156 C   0  0  1  0  0  0  0  0  0  0  0  0
    6.8909  -14.3920   18.9686 C   0  0  0  0  0  0  0  0  0  0  0  0
    8.6680  -14.1702   20.7353 C   0  0  0  0  0  0  0  0  0  0  0  0
    8.7194  -15.6296   21.1352 C   0  0  2  0  0  0  0  0  0  0  0  0
    7.4167  -16.2103   21.0453 N   0  0  0  0  0  0  0  0  0  0  0  0
    9.3039  -15.6493   22.5033 C   0  0  0  0  0  0  0  0  0  0  0  0
   10.3513  -14.9339   22.6430 O   0  0  0  0  0  0  0  0  0  0  0  0
    8.8251  -16.3545   23.6073 N   0  0  0  0  0  0  0  0  0  0  0  0
    9.5489  -16.3645   24.8582 C   0  0  1  0  0  0  0  0  0  0  0  0
    8.5939  -16.4430   26.0395 C   0  0  0  0  0  0  0  0  0  0  0  0
    7.5627  -15.3765   25.9893 C   0  0  0  0  0  0  0  0  0  0  0  0
    6.2533  -15.4882   25.5672 C   0  0  0  0  0  0  0  0  0  0  0  0
    5.6203  -14.3057   25.6654 N   0  0  0  0  0  0  0  0  0  0  0  0
    6.4953  -13.3995   26.1508 C   0  0  0  0  0  0  0  0  0  0  0  0
    6.3400  -12.0588   26.4306 C   0  0  0  0  0  0  0  0  0  0  0  0
    7.4237  -11.3642   26.9257 C   0  0  0  0  0  0  0  0  0  0  0  0
    8.6300  -12.0110   27.1313 C   0  0  0  0  0  0  0  0  0  0  0  0
    8.7879  -13.3452   26.8541 C   0  0  0  0  0  0  0  0  0  0  0  0
    7.7145  -14.0417   26.3615 C   0  0  0  0  0  0  0  0  0  0  0  0
   10.5377  -17.4611   24.9486 C   0  0  0  0  0  0  0  0  0  0  0  0
   10.1151  -18.6300   24.7601 O   0  0  0  0  0  0  0  0  0  0  0  0
   11.9036  -17.2825   25.2266 N   0  0  0  0  0  0  0  0  0  0  0  0
   12.8781  -18.3779   25.2979 C   0  0  1  0  0  0  0  0  0  0  0  0
   14.2182  -17.7238   24.9998 C   0  0  0  0  0  0  0  0  0  0  0  0
   14.2290  -16.9562   23.7389 C   0  0  0  0  0  0  0  0  0  0  0  0
   13.9514  -17.4555   22.4630 C   0  0  0  0  0  0  0  0  0  0  0  0
   14.0735  -16.4593   21.5684 N   0  0  0  0  0  0  0  0  0  0  0  0
   14.4211  -15.3349   22.2295 C   0  0  0  0  0  0  0  0  0  0  0  0
   14.5084  -15.6581   23.5301 N   0  0  0  0  0  0  0  0  0  0  0  0
   12.9152  -18.9927   26.6194 C   0  0  0  0  0  0  0  0  0  0  0  0
   12.1521  -18.5834   27.5271 O   0  0  0  0  0  0  0  0  0  0  0  0
   13.7741  -20.0423   26.9491 O   0  0  0  0  0  0  0  0  0  0  0  0
  2  1  1  6
  2  3  1  0
  4  2  1  0
  5  4  1  0
  5  6  1  1
  7  5  1  0
  7  8  2  0
  9  7  1  0
 10  9  1  0
 10 11  1  1
 11 12  1  0
 12 13  2  0
 12 20  1  0
 13 14  1  0
 14 15  1  0
 15 16  2  0
 16 17  1  0
 18 17  2  0
 19 18  1  0
 20 19  2  0
 20 15  1  0
 21 10  1  0
 22 21  2  0
 23 21  1  0
 24 25  1  1
 24 23  1  0
 25 26  1  0
 26 27  2  0
 28 27  1  0
 29 28  1  0
 30 29  2  0
 30 26  1  0
 31 24  1  0
 32 31  2  0
 33 31  1  0
M  END
$$$$
