LMN.pdb
     RDKit          3D

 25 24  0  0  1  0  0  0  0  0999 V2000
   30.2866  -19.2296  -17.8225 C   0  0  0  0  0  0  0  0  0  0  0  0
   28.9785  -18.8583  -17.1434 C   0  0  2  0  0  0  0  0  0  0  0  0
   29.1743  -17.5948  -16.2990 C   0  0  0  0  0  0  0  0  0  0  0  0
   28.5750  -19.9701  -16.2130 C   0  0  0  0  0  0  0  0  0  0  0  0
   27.1826  -19.7443  -15.6581 C   0  0  2  0  0  0  0  0  0  0  0  0
   27.0350  -18.3188  -15.4333 N   0  0  0  0  0  0  0  0  0  0  0  0
   26.9355  -20.5261  -14.4221 C   0  0  0  0  0  0  0  0  0  0  0  0
   26.9858  -21.7738  -14.4683 O   0  0  0  0  0  0  0  0  0  0  0  0
   27.9292  -20.3482   -7.9467 C   0  0  0  0  0  0  0  0  0  0  0  0
   26.1234  -20.3839   -8.0500 S   0  0  0  0  0  0  0  0  0  0  0  0
   25.5656  -20.9441   -9.6829 C   0  0  0  0  0  0  0  0  0  0  0  0
   26.3839  -20.2719  -10.7572 C   0  0  0  0  0  0  0  0  0  0  0  0
   25.8876  -20.5573  -12.1370 C   0  0  2  0  0  0  0  0  0  0  0  0
   26.6393  -19.8958  -13.1729 N   0  0  0  0  0  0  0  0  0  0  0  0
   24.4399  -20.1741  -12.2969 C   0  0  0  0  0  0  0  0  0  0  0  0
   24.1225  -19.0524  -12.7536 O   0  0  0  0  0  0  0  0  0  0  0  0
   21.5285  -24.3014  -15.0081 N   0  0  0  0  0  0  0  0  0  0  0  0
   21.7779  -22.9349  -14.7205 C   0  0  0  0  0  0  0  0  0  0  0  0
   21.0544  -22.0746  -15.2726 O   0  0  0  0  0  0  0  0  0  0  0  0
   22.8617  -22.5681  -13.7962 C   0  0  0  0  0  0  0  0  0  0  0  0
   22.3879  -21.6213  -12.7648 C   0  0  2  0  0  0  0  0  0  0  0  0
   23.4033  -21.0720  -11.9352 N   0  0  0  0  0  0  0  0  0  0  0  0
   21.1826  -22.1256  -12.0884 C   0  0  0  0  0  0  0  0  0  0  0  0
   21.0830  -22.2213  -10.7043 O   0  0  0  0  0  0  0  0  0  0  0  0
   20.1947  -22.4915  -12.7541 O   0  0  0  0  0  0  0  0  0  0  0  0
  2  1  1  1
  2  3  1  0
  4  2  1  0
  4  5  1  0
  5  7  1  0
  5  6  1  1
  7  8  2  0
 10 11  1  0
 10  9  1  0
 11 12  1  0
 13 12  1  1
 14 13  1  0
 14  7  1  0
 15 16  2  0
 15 13  1  0
 17 18  1  0
 18 20  1  0
 18 19  2  0
 21 20  1  1
 21 23  1  0
 21 22  1  0
 22 15  1  0
 23 24  1  0
 25 23  2  0
M  END
$$$$
