LMN.pdb
     RDKit          3D

 25 24  0  0  1  0  0  0  0  0999 V2000
   25.8750  -16.3173  -16.0949 C   0  0  0  0  0  0  0  0  0  0  0  0
   25.1524  -17.3128  -16.9877 C   0  0  2  0  0  0  0  0  0  0  0  0
   24.1156  -16.5805  -17.8459 C   0  0  0  0  0  0  0  0  0  0  0  0
   24.4141  -18.3006  -16.1252 C   0  0  0  0  0  0  0  0  0  0  0  0
   25.3652  -19.0588  -15.2207 C   0  0  2  0  0  0  0  0  0  0  0  0
   26.3402  -19.7127  -16.0729 N   0  0  0  0  0  0  0  0  0  0  0  0
   24.6592  -20.0271  -14.3465 C   0  0  0  0  0  0  0  0  0  0  0  0
   24.0557  -20.9906  -14.8648 O   0  0  0  0  0  0  0  0  0  0  0  0
   26.1340  -19.4326   -8.1244 C   0  0  0  0  0  0  0  0  0  0  0  0
   26.2832  -21.1433   -8.6936 S   0  0  0  0  0  0  0  0  0  0  0  0
   25.8197  -21.3015  -10.4404 C   0  0  0  0  0  0  0  0  0  0  0  0
   24.4176  -20.7831  -10.6428 C   0  0  0  0  0  0  0  0  0  0  0  0
   23.9725  -20.8373  -12.0678 C   0  0  2  0  0  0  0  0  0  0  0  0
   24.6458  -19.8931  -12.9226 N   0  0  0  0  0  0  0  0  0  0  0  0
   22.4901  -20.6049  -12.1959 C   0  0  0  0  0  0  0  0  0  0  0  0
   22.0029  -19.4671  -12.0064 O   0  0  0  0  0  0  0  0  0  0  0  0
   19.4945  -23.5963   -9.6250 N   0  0  0  0  0  0  0  0  0  0  0  0
   19.5487  -23.2728  -11.0051 C   0  0  0  0  0  0  0  0  0  0  0  0
   19.6942  -24.2084  -11.8247 O   0  0  0  0  0  0  0  0  0  0  0  0
   19.4343  -21.8700  -11.4324 C   0  0  0  0  0  0  0  0  0  0  0  0
   20.1977  -21.6248  -12.6741 C   0  0  2  0  0  0  0  0  0  0  0  0
   21.6116  -21.6660  -12.5335 N   0  0  0  0  0  0  0  0  0  0  0  0
   19.6412  -20.4914  -13.4295 C   0  0  0  0  0  0  0  0  0  0  0  0
   18.2733  -20.2857  -13.5752 O   0  0  0  0  0  0  0  0  0  0  0  0
   20.3995  -19.6659  -13.9741 O   0  0  0  0  0  0  0  0  0  0  0  0
  2  1  1  1
  2  3  1  0
  4  2  1  0
  4  5  1  0
  5  7  1  0
  5  6  1  6
  7  8  2  0
 10 11  1  0
 10  9  1  0
 11 12  1  0
 13 12  1  1
 14 13  1  0
 14  7  1  0
 15 16  2  0
 15 13  1  0
 17 18  1  0
 18 20  1  0
 18 19  2  0
 21 20  1  1
 21 23  1  0
 21 22  1  0
 22 15  1  0
 23 24  1  0
 25 23  2  0
M  END
$$$$
