LMN.pdb
     RDKit          3D

 25 24  0  0  1  0  0  0  0  0999 V2000
   28.6806  -18.1653  -16.5791 C   0  0  0  0  0  0  0  0  0  0  0  0
   28.2715  -19.5733  -16.9795 C   0  0  2  0  0  0  0  0  0  0  0  0
   27.8115  -19.5826  -18.4410 C   0  0  0  0  0  0  0  0  0  0  0  0
   27.1056  -20.0060  -16.1321 C   0  0  0  0  0  0  0  0  0  0  0  0
   27.5623  -20.8505  -14.9591 C   0  0  2  0  0  0  0  0  0  0  0  0
   28.1964  -22.0362  -15.5035 N   0  0  0  0  0  0  0  0  0  0  0  0
   26.4466  -21.1927  -14.0436 C   0  0  0  0  0  0  0  0  0  0  0  0
   25.5448  -21.9613  -14.4402 O   0  0  0  0  0  0  0  0  0  0  0  0
   25.8379  -19.9336   -7.4487 C   0  0  0  0  0  0  0  0  0  0  0  0
   27.1839  -20.8516   -8.2351 S   0  0  0  0  0  0  0  0  0  0  0  0
   26.6843  -21.4998   -9.8542 C   0  0  0  0  0  0  0  0  0  0  0  0
   25.5427  -20.6784  -10.3998 C   0  0  0  0  0  0  0  0  0  0  0  0
   25.2591  -20.9531  -11.8406 C   0  0  2  0  0  0  0  0  0  0  0  0
   26.3682  -20.6687  -12.7151 N   0  0  0  0  0  0  0  0  0  0  0  0
   24.0687  -20.1718  -12.3311 C   0  0  0  0  0  0  0  0  0  0  0  0
   24.2223  -19.1469  -13.0336 O   0  0  0  0  0  0  0  0  0  0  0  0
   20.1498  -21.5983  -15.9559 N   0  0  0  0  0  0  0  0  0  0  0  0
   20.6881  -20.5984  -15.1058 C   0  0  0  0  0  0  0  0  0  0  0  0
   20.1391  -19.4728  -15.0983 O   0  0  0  0  0  0  0  0  0  0  0  0
   21.8580  -20.9032  -14.2679 C   0  0  0  0  0  0  0  0  0  0  0  0
   21.6005  -20.5756  -12.8498 C   0  0  2  0  0  0  0  0  0  0  0  0
   22.7477  -20.5767  -12.0104 N   0  0  0  0  0  0  0  0  0  0  0  0
   20.4114  -21.2799  -12.3451 C   0  0  0  0  0  0  0  0  0  0  0  0
   19.2631  -20.6128  -11.9314 O   0  0  0  0  0  0  0  0  0  0  0  0
   20.4016  -22.5238  -12.2712 O   0  0  0  0  0  0  0  0  0  0  0  0
  2  1  1  1
  2  3  1  0
  4  2  1  0
  4  5  1  0
  5  7  1  0
  5  6  1  6
  7  8  2  0
 10 11  1  0
 10  9  1  0
 11 12  1  0
 13 12  1  1
 14 13  1  0
 14  7  1  0
 15 16  2  0
 15 13  1  0
 17 18  1  0
 18 20  1  0
 18 19  2  0
 21 20  1  6
 21 23  1  0
 21 22  1  0
 22 15  1  0
 23 24  1  0
 25 23  2  0
M  END
$$$$
