LMN.pdb
     RDKit          3D

 25 24  0  0  1  0  0  0  0  0999 V2000
   28.7804  -20.5686  -18.7177 C   0  0  0  0  0  0  0  0  0  0  0  0
   29.2641  -21.2949  -17.4733 C   0  0  2  0  0  0  0  0  0  0  0  0
   30.1325  -22.4910  -17.8770 C   0  0  0  0  0  0  0  0  0  0  0  0
   28.0743  -21.8286  -16.7220 C   0  0  0  0  0  0  0  0  0  0  0  0
   27.3791  -20.7303  -15.9423 C   0  0  2  0  0  0  0  0  0  0  0  0
   28.3785  -19.7269  -15.6280 N   0  0  0  0  0  0  0  0  0  0  0  0
   26.7099  -21.2434  -14.7220 C   0  0  0  0  0  0  0  0  0  0  0  0
   25.9925  -22.2633  -14.8018 O   0  0  0  0  0  0  0  0  0  0  0  0
   25.4667  -20.5767   -6.8635 C   0  0  0  0  0  0  0  0  0  0  0  0
   26.4975  -20.2236   -8.3077 S   0  0  0  0  0  0  0  0  0  0  0  0
   25.7121  -20.8014   -9.8376 C   0  0  0  0  0  0  0  0  0  0  0  0
   26.6458  -20.5824  -11.0019 C   0  0  0  0  0  0  0  0  0  0  0  0
   26.0395  -20.9500  -12.3168 C   0  0  2  0  0  0  0  0  0  0  0  0
   26.8589  -20.6055  -13.4506 N   0  0  0  0  0  0  0  0  0  0  0  0
   24.6909  -20.3067  -12.5057 C   0  0  0  0  0  0  0  0  0  0  0  0
   24.5938  -19.0764  -12.7171 O   0  0  0  0  0  0  0  0  0  0  0  0
   20.5536  -19.4813  -15.9406 N   0  0  0  0  0  0  0  0  0  0  0  0
   20.7039  -20.2888  -14.7841 C   0  0  0  0  0  0  0  0  0  0  0  0
   19.6762  -20.5786  -14.1297 O   0  0  0  0  0  0  0  0  0  0  0  0
   22.0406  -20.7582  -14.3886 C   0  0  0  0  0  0  0  0  0  0  0  0
   22.2059  -20.7272  -12.9201 C   0  0  2  0  0  0  0  0  0  0  0  0
   23.5010  -21.0764  -12.4494 N   0  0  0  0  0  0  0  0  0  0  0  0
   21.0632  -21.3563  -12.2395 C   0  0  0  0  0  0  0  0  0  0  0  0
   20.0184  -20.6202  -11.6907 O   0  0  0  0  0  0  0  0  0  0  0  0
   21.0003  -22.5963  -12.1322 O   0  0  0  0  0  0  0  0  0  0  0  0
  2  1  1  6
  2  3  1  0
  4  2  1  0
  4  5  1  0
  5  7  1  0
  5  6  1  1
  7  8  2  0
 10 11  1  0
 10  9  1  0
 11 12  1  0
 13 12  1  1
 14 13  1  0
 14  7  1  0
 15 16  2  0
 15 13  1  0
 17 18  1  0
 18 20  1  0
 18 19  2  0
 21 20  1  6
 21 23  1  0
 21 22  1  0
 22 15  1  0
 23 24  1  0
 25 23  2  0
M  END
$$$$
