LMN.pdb
     RDKit          3D

 25 24  0  0  1  0  0  0  0  0999 V2000
   19.2778  -11.4173  -19.8458 C   0  0  0  0  0  0  0  0  0  0  0  0
   18.6263  -11.6644  -18.4950 C   0  0  2  0  0  0  0  0  0  0  0  0
   17.3377  -10.8429  -18.3839 C   0  0  0  0  0  0  0  0  0  0  0  0
   19.5578  -11.2002  -17.4080 C   0  0  0  0  0  0  0  0  0  0  0  0
   20.8524  -11.9885  -17.4200 C   0  0  2  0  0  0  0  0  0  0  0  0
   20.5314  -13.3493  -17.0335 N   0  0  0  0  0  0  0  0  0  0  0  0
   21.8828  -11.3922  -16.5351 C   0  0  0  0  0  0  0  0  0  0  0  0
   21.7696  -11.5150  -15.2968 O   0  0  0  0  0  0  0  0  0  0  0  0
   27.2382  -12.1648  -15.8980 C   0  0  0  0  0  0  0  0  0  0  0  0
   27.0912  -10.6397  -14.9360 S   0  0  0  0  0  0  0  0  0  0  0  0
   26.3621   -9.3033  -15.9229 C   0  0  0  0  0  0  0  0  0  0  0  0
   25.3202   -9.8705  -16.8548 C   0  0  0  0  0  0  0  0  0  0  0  0
   23.9919  -10.0656  -16.1997 C   0  0  2  0  0  0  0  0  0  0  0  0
   23.0070  -10.6772  -17.0551 N   0  0  0  0  0  0  0  0  0  0  0  0
   23.4251   -8.7649  -15.6949 C   0  0  0  0  0  0  0  0  0  0  0  0
   24.0691   -8.0581  -14.8866 O   0  0  0  0  0  0  0  0  0  0  0  0
   20.3352   -4.7174  -15.1568 N   0  0  0  0  0  0  0  0  0  0  0  0
   21.6899   -4.6531  -15.5724 C   0  0  0  0  0  0  0  0  0  0  0  0
   22.2661   -3.5419  -15.5349 O   0  0  0  0  0  0  0  0  0  0  0  0
   22.3733   -5.8729  -16.0292 C   0  0  0  0  0  0  0  0  0  0  0  0
   21.5228   -7.0665  -15.8380 C   0  0  2  0  0  0  0  0  0  0  0  0
   22.1514   -8.3095  -16.1215 N   0  0  0  0  0  0  0  0  0  0  0  0
   20.1788   -6.8618  -16.4007 C   0  0  0  0  0  0  0  0  0  0  0  0
   19.1587   -6.2300  -15.6972 O   0  0  0  0  0  0  0  0  0  0  0  0
   19.9113   -7.2606  -17.5507 O   0  0  0  0  0  0  0  0  0  0  0  0
  2  1  1  6
  2  3  1  0
  4  2  1  0
  4  5  1  0
  5  7  1  0
  5  6  1  1
  7  8  2  0
 10 11  1  0
 10  9  1  0
 11 12  1  0
 13 12  1  6
 14 13  1  0
 14  7  1  0
 15 16  2  0
 15 13  1  0
 17 18  1  0
 18 20  1  0
 18 19  2  0
 21 20  1  6
 21 23  1  0
 21 22  1  0
 22 15  1  0
 23 24  1  0
 25 23  2  0
M  END
$$$$
