LMN.pdb
     RDKit          3D

 25 24  0  0  1  0  0  0  0  0999 V2000
   28.1113  -18.4565  -17.3583 C   0  0  0  0  0  0  0  0  0  0  0  0
   27.6109  -18.0759  -15.9745 C   0  0  2  0  0  0  0  0  0  0  0  0
   28.7975  -17.9370  -15.0152 C   0  0  0  0  0  0  0  0  0  0  0  0
   26.7283  -19.1768  -15.4512 C   0  0  0  0  0  0  0  0  0  0  0  0
   27.5026  -20.1224  -14.5546 C   0  0  2  0  0  0  0  0  0  0  0  0
   28.2120  -21.0487  -15.4167 N   0  0  0  0  0  0  0  0  0  0  0  0
   26.6248  -20.8287  -13.5898 C   0  0  0  0  0  0  0  0  0  0  0  0
   25.9989  -21.8436  -13.9632 O   0  0  0  0  0  0  0  0  0  0  0  0
   26.3460  -19.1208   -7.3018 C   0  0  0  0  0  0  0  0  0  0  0  0
   27.1251  -20.7223   -7.6204 S   0  0  0  0  0  0  0  0  0  0  0  0
   26.9260  -21.2211   -9.3533 C   0  0  0  0  0  0  0  0  0  0  0  0
   25.6776  -20.5938   -9.9221 C   0  0  0  0  0  0  0  0  0  0  0  0
   25.4610  -20.9221  -11.3633 C   0  0  2  0  0  0  0  0  0  0  0  0
   26.4701  -20.3836  -12.2394 N   0  0  0  0  0  0  0  0  0  0  0  0
   24.1194  -20.4386  -11.8475 C   0  0  0  0  0  0  0  0  0  0  0  0
   23.9341  -19.2294  -12.1142 O   0  0  0  0  0  0  0  0  0  0  0  0
   20.3832  -20.1108  -15.4752 N   0  0  0  0  0  0  0  0  0  0  0  0
   20.5950  -21.3573  -14.8322 C   0  0  0  0  0  0  0  0  0  0  0  0
   19.6736  -22.2046  -14.8703 O   0  0  0  0  0  0  0  0  0  0  0  0
   21.8704  -21.6198  -14.1481 C   0  0  0  0  0  0  0  0  0  0  0  0
   21.8358  -21.1424  -12.7497 C   0  0  2  0  0  0  0  0  0  0  0  0
   23.0358  -21.3386  -12.0132 N   0  0  0  0  0  0  0  0  0  0  0  0
   20.5813  -21.5264  -12.0838 C   0  0  0  0  0  0  0  0  0  0  0  0
   20.5438  -22.3882  -10.9926 O   0  0  0  0  0  0  0  0  0  0  0  0
   19.4912  -21.0803  -12.4911 O   0  0  0  0  0  0  0  0  0  0  0  0
  2  1  1  6
  2  3  1  0
  4  2  1  0
  4  5  1  0
  5  7  1  0
  5  6  1  6
  7  8  2  0
 10 11  1  0
 10  9  1  0
 11 12  1  0
 13 12  1  1
 14 13  1  0
 14  7  1  0
 15 16  2  0
 15 13  1  0
 17 18  1  0
 18 20  1  0
 18 19  2  0
 21 20  1  6
 21 23  1  0
 21 22  1  0
 22 15  1  0
 23 24  1  0
 25 23  2  0
M  END
$$$$
