LMN.pdb
     RDKit          3D

 25 24  0  0  1  0  0  0  0  0999 V2000
   27.1698  -18.4159  -17.2768 C   0  0  0  0  0  0  0  0  0  0  0  0
   28.1627  -18.1543  -16.1560 C   0  0  2  0  0  0  0  0  0  0  0  0
   29.5920  -18.2316  -16.7026 C   0  0  0  0  0  0  0  0  0  0  0  0
   28.0163  -19.2261  -15.1098 C   0  0  0  0  0  0  0  0  0  0  0  0
   26.6002  -19.2794  -14.5721 C   0  0  2  0  0  0  0  0  0  0  0  0
   26.2633  -17.9448  -14.1140 N   0  0  0  0  0  0  0  0  0  0  0  0
   26.4443  -20.2878  -13.4955 C   0  0  0  0  0  0  0  0  0  0  0  0
   26.8059  -21.4654  -13.7046 O   0  0  0  0  0  0  0  0  0  0  0  0
   26.5937  -20.1947   -6.5373 C   0  0  0  0  0  0  0  0  0  0  0  0
   27.4816  -19.3150   -7.8453 S   0  0  0  0  0  0  0  0  0  0  0  0
   27.3639  -20.1919   -9.4292 C   0  0  0  0  0  0  0  0  0  0  0  0
   25.9136  -20.3803   -9.7987 C   0  0  0  0  0  0  0  0  0  0  0  0
   25.7261  -20.9326  -11.1741 C   0  0  2  0  0  0  0  0  0  0  0  0
   25.8903  -19.9550  -12.2196 N   0  0  0  0  0  0  0  0  0  0  0  0
   24.3693  -21.5651  -11.3384 C   0  0  0  0  0  0  0  0  0  0  0  0
   23.7787  -22.0743  -10.3589 O   0  0  0  0  0  0  0  0  0  0  0  0
   19.6290  -21.5919  -12.9898 N   0  0  0  0  0  0  0  0  0  0  0  0
   20.2001  -20.4515  -12.3689 C   0  0  0  0  0  0  0  0  0  0  0  0
   19.4265  -19.5749  -11.9201 O   0  0  0  0  0  0  0  0  0  0  0  0
   21.6625  -20.3288  -12.2689 C   0  0  0  0  0  0  0  0  0  0  0  0
   22.3404  -21.4870  -12.8881 C   0  0  2  0  0  0  0  0  0  0  0  0
   23.7286  -21.5992  -12.6034 N   0  0  0  0  0  0  0  0  0  0  0  0
   21.9382  -21.6540  -14.2935 C   0  0  0  0  0  0  0  0  0  0  0  0
   20.9439  -22.5425  -14.6892 O   0  0  0  0  0  0  0  0  0  0  0  0
   22.4928  -20.9887  -15.1895 O   0  0  0  0  0  0  0  0  0  0  0  0
  2  1  1  6
  2  3  1  0
  4  2  1  0
  4  5  1  0
  5  7  1  0
  5  6  1  1
  7  8  2  0
 10 11  1  0
 10  9  1  0
 11 12  1  0
 13 12  1  1
 14 13  1  0
 14  7  1  0
 15 16  2  0
 15 13  1  0
 17 18  1  0
 18 20  1  0
 18 19  2  0
 21 20  1  6
 21 23  1  0
 21 22  1  0
 22 15  1  0
 23 24  1  0
 25 23  2  0
M  END
$$$$
