LMN.pdb
     RDKit          3D

 25 24  0  0  1  0  0  0  0  0999 V2000
   15.0786  -12.5320  -13.9303 C   0  0  0  0  0  0  0  0  0  0  0  0
   14.1428  -12.1138  -12.8080 C   0  0  2  0  0  0  0  0  0  0  0  0
   12.6886  -12.3310  -13.2388 C   0  0  0  0  0  0  0  0  0  0  0  0
   14.3238  -10.6443  -12.5391 C   0  0  0  0  0  0  0  0  0  0  0  0
   15.7016  -10.3539  -11.9779 C   0  0  2  0  0  0  0  0  0  0  0  0
   15.8679  -11.1796  -10.7967 N   0  0  0  0  0  0  0  0  0  0  0  0
   15.8948   -8.9145  -11.6763 C   0  0  0  0  0  0  0  0  0  0  0  0
   15.7393   -8.0734  -12.5871 O   0  0  0  0  0  0  0  0  0  0  0  0
   12.0639   -6.2703   -6.7935 C   0  0  0  0  0  0  0  0  0  0  0  0
   13.8670   -6.2854   -6.9402 S   0  0  0  0  0  0  0  0  0  0  0  0
   14.3900   -6.7362   -8.6179 C   0  0  0  0  0  0  0  0  0  0  0  0
   15.8941   -6.6753   -8.7145 C   0  0  0  0  0  0  0  0  0  0  0  0
   16.4108   -7.0563  -10.0634 C   0  0  2  0  0  0  0  0  0  0  0  0
   16.2556   -8.4553  -10.3707 N   0  0  0  0  0  0  0  0  0  0  0  0
   17.8669   -6.7051  -10.2200 C   0  0  0  0  0  0  0  0  0  0  0  0
   18.7470   -7.3320   -9.5875 O   0  0  0  0  0  0  0  0  0  0  0  0
   21.9613   -5.0965  -12.8785 N   0  0  0  0  0  0  0  0  0  0  0  0
   21.4570   -6.4223  -12.8752 C   0  0  0  0  0  0  0  0  0  0  0  0
   22.1512   -7.3186  -13.4073 O   0  0  0  0  0  0  0  0  0  0  0  0
   20.1530   -6.7070  -12.2570 C   0  0  0  0  0  0  0  0  0  0  0  0
   19.5407   -5.4784  -11.7091 C   0  0  2  0  0  0  0  0  0  0  0  0
   18.2760   -5.6586  -11.0855 N   0  0  0  0  0  0  0  0  0  0  0  0
   19.6588   -4.3552  -12.6520 C   0  0  0  0  0  0  0  0  0  0  0  0
   18.5532   -3.7452  -13.2352 O   0  0  0  0  0  0  0  0  0  0  0  0
   20.7808   -3.9103  -12.9626 O   0  0  0  0  0  0  0  0  0  0  0  0
  2  1  1  6
  2  3  1  0
  4  2  1  0
  4  5  1  0
  5  7  1  0
  5  6  1  1
  7  8  2  0
 10 11  1  0
 10  9  1  0
 11 12  1  0
 13 12  1  1
 14 13  1  0
 14  7  1  0
 15 16  2  0
 15 13  1  0
 17 18  1  0
 18 20  1  0
 18 19  2  0
 21 20  1  6
 21 23  1  0
 21 22  1  0
 22 15  1  0
 23 24  1  0
 25 23  2  0
M  END
$$$$
