LMN.pdb
     RDKit          3D

 25 24  0  0  1  0  0  0  0  0999 V2000
   21.1049  -21.2545  -14.2826 C   0  0  0  0  0  0  0  0  0  0  0  0
   21.6590  -21.6582  -12.9260 C   0  0  2  0  0  0  0  0  0  0  0  0
   20.6127  -21.3903  -11.8392 C   0  0  0  0  0  0  0  0  0  0  0  0
   22.8646  -20.8123  -12.6162 C   0  0  0  0  0  0  0  0  0  0  0  0
   23.8364  -20.7938  -13.7793 C   0  0  2  0  0  0  0  0  0  0  0  0
   24.0952  -22.1734  -14.1459 N   0  0  0  0  0  0  0  0  0  0  0  0
   25.0872  -20.0649  -13.4563 C   0  0  0  0  0  0  0  0  0  0  0  0
   25.0188  -18.8874  -13.0438 O   0  0  0  0  0  0  0  0  0  0  0  0
   31.2049  -21.3014  -10.4934 C   0  0  0  0  0  0  0  0  0  0  0  0
   29.5477  -22.0221  -10.4078 S   0  0  0  0  0  0  0  0  0  0  0  0
   28.3123  -20.9305  -11.1652 C   0  0  0  0  0  0  0  0  0  0  0  0
   28.6307  -20.7407  -12.6274 C   0  0  0  0  0  0  0  0  0  0  0  0
   27.5964  -19.9446  -13.3541 C   0  0  2  0  0  0  0  0  0  0  0  0
   26.3756  -20.6684  -13.6027 N   0  0  0  0  0  0  0  0  0  0  0  0
   28.1126  -19.4370  -14.6747 C   0  0  0  0  0  0  0  0  0  0  0  0
   29.0597  -18.6193  -14.7189 O   0  0  0  0  0  0  0  0  0  0  0  0
   26.5251  -21.7012  -17.7913 N   0  0  0  0  0  0  0  0  0  0  0  0
   27.8081  -21.4975  -18.3611 C   0  0  0  0  0  0  0  0  0  0  0  0
   28.2885  -22.4088  -19.0733 O   0  0  0  0  0  0  0  0  0  0  0  0
   28.5306  -20.2419  -18.1058 C   0  0  0  0  0  0  0  0  0  0  0  0
   27.7638  -19.3571  -17.2037 C   0  0  2  0  0  0  0  0  0  0  0  0
   27.5403  -19.8715  -15.8975 N   0  0  0  0  0  0  0  0  0  0  0  0
   26.6030  -18.7689  -17.8902 C   0  0  0  0  0  0  0  0  0  0  0  0
   25.3070  -18.8717  -17.3956 O   0  0  0  0  0  0  0  0  0  0  0  0
   26.7534  -18.1490  -18.9608 O   0  0  0  0  0  0  0  0  0  0  0  0
  2  1  1  6
  2  3  1  0
  4  2  1  0
  4  5  1  0
  5  7  1  0
  5  6  1  1
  7  8  2  0
 10 11  1  0
 10  9  1  0
 11 12  1  0
 13 12  1  6
 14 13  1  0
 14  7  1  0
 15 16  2  0
 15 13  1  0
 17 18  1  0
 18 20  1  0
 18 19  2  0
 21 20  1  6
 21 23  1  0
 21 22  1  0
 22 15  1  0
 23 24  1  0
 25 23  2  0
M  END
$$$$
