LMN.pdb
     RDKit          3D

 25 24  0  0  1  0  0  0  0  0999 V2000
   28.7614  -18.4532  -16.8773 C   0  0  0  0  0  0  0  0  0  0  0  0
   28.1446  -19.6968  -17.4963 C   0  0  2  0  0  0  0  0  0  0  0  0
   27.3985  -19.3199  -18.7805 C   0  0  0  0  0  0  0  0  0  0  0  0
   27.1388  -20.2756  -16.5381 C   0  0  0  0  0  0  0  0  0  0  0  0
   27.7884  -20.6541  -15.2220 C   0  0  2  0  0  0  0  0  0  0  0  0
   28.7529  -21.7006  -15.5033 N   0  0  0  0  0  0  0  0  0  0  0  0
   26.7951  -21.0782  -14.2053 C   0  0  0  0  0  0  0  0  0  0  0  0
   25.9181  -21.9113  -14.5186 O   0  0  0  0  0  0  0  0  0  0  0  0
   27.5550  -20.2240   -7.7402 C   0  0  0  0  0  0  0  0  0  0  0  0
   25.7722  -20.5251   -7.8016 S   0  0  0  0  0  0  0  0  0  0  0  0
   25.2528  -21.0859   -9.4469 C   0  0  0  0  0  0  0  0  0  0  0  0
   26.2020  -20.5493  -10.4894 C   0  0  0  0  0  0  0  0  0  0  0  0
   25.8521  -20.9782  -11.8769 C   0  0  2  0  0  0  0  0  0  0  0  0
   26.8077  -20.5619  -12.8716 N   0  0  0  0  0  0  0  0  0  0  0  0
   24.4976  -20.4667  -12.2914 C   0  0  0  0  0  0  0  0  0  0  0  0
   24.3425  -19.2719  -12.6322 O   0  0  0  0  0  0  0  0  0  0  0  0
   19.7602  -22.2550  -11.9675 N   0  0  0  0  0  0  0  0  0  0  0  0
   20.0293  -20.9760  -11.4163 C   0  0  0  0  0  0  0  0  0  0  0  0
   19.2265  -20.5170  -10.5718 O   0  0  0  0  0  0  0  0  0  0  0  0
   21.2249  -20.2327  -11.8428 C   0  0  0  0  0  0  0  0  0  0  0  0
   22.0534  -21.0362  -12.7662 C   0  0  2  0  0  0  0  0  0  0  0  0
   23.3674  -21.3234  -12.3062 N   0  0  0  0  0  0  0  0  0  0  0  0
   21.9280  -20.5576  -14.1518 C   0  0  0  0  0  0  0  0  0  0  0  0
   21.0643  -21.1418  -15.0725 O   0  0  0  0  0  0  0  0  0  0  0  0
   22.6106  -19.5933  -14.5482 O   0  0  0  0  0  0  0  0  0  0  0  0
  2  1  1  1
  2  3  1  0
  4  2  1  0
  4  5  1  0
  5  7  1  0
  5  6  1  6
  7  8  2  0
 10 11  1  0
 10  9  1  0
 11 12  1  0
 13 12  1  1
 14 13  1  0
 14  7  1  0
 15 16  2  0
 15 13  1  0
 17 18  1  0
 18 20  1  0
 18 19  2  0
 21 20  1  1
 21 23  1  0
 21 22  1  0
 22 15  1  0
 23 24  1  0
 25 23  2  0
M  END
$$$$
