LMN.pdb
     RDKit          3D

 25 24  0  0  1  0  0  0  0  0999 V2000
   25.9378  -31.7187   -8.7565 C   0  0  0  0  0  0  0  0  0  0  0  0
   25.0171  -32.8620   -8.3621 C   0  0  2  0  0  0  0  0  0  0  0  0
   23.7131  -32.3008   -7.7856 C   0  0  0  0  0  0  0  0  0  0  0  0
   25.6790  -33.6761   -7.2833 C   0  0  0  0  0  0  0  0  0  0  0  0
   26.9827  -34.2768   -7.7701 C   0  0  2  0  0  0  0  0  0  0  0  0
   26.6522  -35.2532   -8.7908 N   0  0  0  0  0  0  0  0  0  0  0  0
   27.7723  -34.8774   -6.6673 C   0  0  0  0  0  0  0  0  0  0  0  0
   27.4269  -35.9841   -6.2012 O   0  0  0  0  0  0  0  0  0  0  0  0
   33.6235  -32.7233   -6.2738 C   0  0  0  0  0  0  0  0  0  0  0  0
   33.6250  -34.5278   -6.1447 S   0  0  0  0  0  0  0  0  0  0  0  0
   31.9362  -35.1871   -6.0773 C   0  0  0  0  0  0  0  0  0  0  0  0
   31.1316  -34.4193   -5.0581 C   0  0  0  0  0  0  0  0  0  0  0  0
   29.6880  -34.8032   -5.0409 C   0  0  2  0  0  0  0  0  0  0  0  0
   28.9215  -34.2280   -6.1167 N   0  0  0  0  0  0  0  0  0  0  0  0
   29.0269  -34.4204   -3.7431 C   0  0  0  0  0  0  0  0  0  0  0  0
   28.4343  -33.3235   -3.6269 O   0  0  0  0  0  0  0  0  0  0  0  0
   25.1343  -34.1685   -0.1884 N   0  0  0  0  0  0  0  0  0  0  0  0
   25.9784  -35.2583   -0.5230 C   0  0  0  0  0  0  0  0  0  0  0  0
   26.0226  -36.2327    0.2623 O   0  0  0  0  0  0  0  0  0  0  0  0
   26.7676  -35.2178   -1.7636 C   0  0  0  0  0  0  0  0  0  0  0  0
   28.2166  -35.2799   -1.4785 C   0  0  2  0  0  0  0  0  0  0  0  0
   29.0589  -35.2905   -2.6235 N   0  0  0  0  0  0  0  0  0  0  0  0
   28.5138  -36.2682   -0.4298 C   0  0  0  0  0  0  0  0  0  0  0  0
   28.9802  -37.5473   -0.7144 O   0  0  0  0  0  0  0  0  0  0  0  0
   28.3499  -35.9790    0.7712 O   0  0  0  0  0  0  0  0  0  0  0  0
  2  1  1  1
  2  3  1  0
  4  2  1  0
  4  5  1  0
  5  7  1  0
  5  6  1  6
  7  8  2  0
 10 11  1  0
 10  9  1  0
 11 12  1  0
 13 12  1  1
 14 13  1  0
 14  7  1  0
 15 16  2  0
 15 13  1  0
 17 18  1  0
 18 20  1  0
 18 19  2  0
 21 20  1  6
 21 23  1  0
 21 22  1  0
 22 15  1  0
 23 24  1  0
 25 23  2  0
M  END
$$$$
