RCS.pdb
     RDKit          3D

 24 23  0  0  1  0  0  0  0  0999 V2000
    9.7731  -15.4416   16.4408 N   0  0  0  0  0  0  0  0  0  0  0  0
    8.6667  -14.5465   16.4087 C   0  0  0  0  0  0  0  0  0  0  0  0
    7.6600  -14.6892   15.5938 N   0  0  0  0  0  0  0  0  0  0  0  0
    8.6091  -13.4208   17.2922 N   0  0  0  0  0  0  0  0  0  0  0  0
    8.8374  -13.5889   18.7171 C   0  0  0  0  0  0  0  0  0  0  0  0
    7.6024  -13.2228   19.4779 C   0  0  0  0  0  0  0  0  0  0  0  0
    7.6915  -13.3686   20.9583 C   0  0  0  0  0  0  0  0  0  0  0  0
    7.8195  -14.7666   21.4596 C   0  0  2  0  0  0  0  0  0  0  0  0
    6.6345  -15.5591   21.4115 N   0  0  0  0  0  0  0  0  0  0  0  0
    8.2890  -14.7069   22.8812 C   0  0  0  0  0  0  0  0  0  0  0  0
    9.3659  -14.1688   23.1840 O   0  0  0  0  0  0  0  0  0  0  0  0
    7.7667  -15.3984   14.8422 N   0  0  0  0  0  0  0  0  0  0  0  0
    7.4403  -15.2980   23.8659 C   0  0  1  0  0  0  0  0  0  0  0  0
    7.9102  -15.2342   25.2679 C   0  0  0  0  0  0  0  0  0  0  0  0
    6.6911  -14.7522   26.0388 S   0  0  0  0  0  0  0  0  0  0  0  0
    6.2806  -13.0417   25.6389 C   0  0  0  0  0  0  0  0  0  0  0  0
    8.2817  -16.5876   25.7074 O   0  0  0  0  0  0  0  0  0  0  0  0
    7.9014  -17.6346   25.1115 O   0  0  0  0  0  0  0  0  0  0  0  0
   12.0200  -18.6543   25.8579 C   0  0  0  0  0  0  0  0  0  0  0  0
   11.0013  -17.7362   25.7613 C   0  0  1  0  0  0  0  0  0  0  0  0
   10.0193  -17.9067   26.9155 N   0  0  0  0  0  0  0  0  0  0  0  0
    9.1025  -16.7770   26.8441 C   0  0  0  0  0  0  0  0  0  0  0  0
   10.7432  -17.8223   28.2038 O   0  0  0  0  0  0  0  0  0  0  0  0
   10.7543  -16.7461   28.8904 O   0  0  0  0  0  0  0  0  0  0  0  0
  1  2  1  0
  2  3  2  0
  4  5  1  0
  4  2  1  0
  6  7  1  0
  6  5  1  0
  7  8  1  0
  8 10  1  0
  8  9  1  1
 10 11  2  0
 10 12  1  0
 12 13  1  0
 13 16  1  0
 13 14  1  1
 14 15  1  0
 16 17  2  0
 18 19  1  0
 20 19  1  6
 21 20  1  0
 21 16  1  0
 22 24  1  0
 22 20  1  0
 23 22  2  0
M  END
$$$$
