RCS.pdb
     RDKit          3D

 24 23  0  0  1  0  0  0  0  0999 V2000
   11.2103  -18.1602   20.3252 N   0  0  0  0  0  0  0  0  0  0  0  0
    9.8534  -18.5008   20.5876 C   0  0  0  0  0  0  0  0  0  0  0  0
    9.4905  -19.2615   21.5815 N   0  0  0  0  0  0  0  0  0  0  0  0
    8.7999  -18.0111   19.7501 N   0  0  0  0  0  0  0  0  0  0  0  0
    9.1001  -17.1803   18.5967 C   0  0  0  0  0  0  0  0  0  0  0  0
    7.9997  -16.1901   18.3814 C   0  0  0  0  0  0  0  0  0  0  0  0
    8.3824  -14.7583   18.5380 C   0  0  0  0  0  0  0  0  0  0  0  0
    7.5897  -13.9870   19.5373 C   0  0  2  0  0  0  0  0  0  0  0  0
    7.1657  -12.6872   19.1305 N   0  0  0  0  0  0  0  0  0  0  0  0
    8.4200  -13.8453   20.7765 C   0  0  0  0  0  0  0  0  0  0  0  0
    9.4181  -13.1078   20.8046 O   0  0  0  0  0  0  0  0  0  0  0  0
    8.4768  -19.4754   21.6577 N   0  0  0  0  0  0  0  0  0  0  0  0
    8.0085  -14.5982   21.9179 C   0  0  2  0  0  0  0  0  0  0  0  0
    8.8689  -14.5023   23.1183 C   0  0  0  0  0  0  0  0  0  0  0  0
    7.9565  -13.8948   24.1725 S   0  0  0  0  0  0  0  0  0  0  0  0
    6.5187  -14.9363   24.4925 C   0  0  0  0  0  0  0  0  0  0  0  0
    9.2742  -15.8570   23.5229 O   0  0  0  0  0  0  0  0  0  0  0  0
    8.4756  -16.8355   23.5526 O   0  0  0  0  0  0  0  0  0  0  0  0
   13.1637  -16.4643   24.2347 C   0  0  0  0  0  0  0  0  0  0  0  0
   12.4714  -17.6199   23.9606 C   0  0  1  0  0  0  0  0  0  0  0  0
   11.0016  -17.4619   24.3349 N   0  0  0  0  0  0  0  0  0  0  0  0
   10.6098  -16.1268   23.9037 C   0  0  0  0  0  0  0  0  0  0  0  0
   10.8511  -17.5254   25.8060 O   0  0  0  0  0  0  0  0  0  0  0  0
   10.3574  -16.5506   26.4661 O   0  0  0  0  0  0  0  0  0  0  0  0
  1  2  1  0
  2  3  2  0
  4  5  1  0
  4  2  1  0
  6  7  1  0
  6  5  1  0
  7  8  1  0
  8 10  1  0
  8  9  1  6
 10 11  2  0
 10 12  1  0
 12 13  1  0
 13 16  1  0
 13 14  1  6
 14 15  1  0
 16 17  2  0
 18 19  1  0
 20 19  1  6
 21 20  1  0
 21 16  1  0
 22 24  1  0
 22 20  1  0
 23 22  2  0
M  END
$$$$
