RCS.pdb
     RDKit          3D

 24 23  0  0  1  0  0  0  0  0999 V2000
    7.8668  -13.3697   14.2350 N   0  0  0  0  0  0  0  0  0  0  0  0
    7.7310  -14.4417   15.1616 C   0  0  0  0  0  0  0  0  0  0  0  0
    6.8223  -15.3687   15.0483 N   0  0  0  0  0  0  0  0  0  0  0  0
    8.6084  -14.5521   16.2881 N   0  0  0  0  0  0  0  0  0  0  0  0
    8.4638  -15.6475   17.2313 C   0  0  0  0  0  0  0  0  0  0  0  0
    7.4495  -15.2934   18.2723 C   0  0  0  0  0  0  0  0  0  0  0  0
    7.9808  -15.1095   19.6524 C   0  0  0  0  0  0  0  0  0  0  0  0
    7.9163  -13.7189   20.1857 C   0  0  2  0  0  0  0  0  0  0  0  0
    8.6939  -12.7459   19.4905 N   0  0  0  0  0  0  0  0  0  0  0  0
    8.3678  -13.7500   21.6140 C   0  0  0  0  0  0  0  0  0  0  0  0
    9.5731  -13.7628   21.9105 O   0  0  0  0  0  0  0  0  0  0  0  0
    6.8105  -16.1013   15.7849 N   0  0  0  0  0  0  0  0  0  0  0  0
    7.3472  -13.7649   22.6127 C   0  0  2  0  0  0  0  0  0  0  0  0
    7.8001  -13.8398   24.0197 C   0  0  0  0  0  0  0  0  0  0  0  0
    6.6547  -13.2193   24.8043 S   0  0  0  0  0  0  0  0  0  0  0  0
    6.8671  -13.4376   26.5824 C   0  0  0  0  0  0  0  0  0  0  0  0
    7.9597  -15.2531   24.3937 O   0  0  0  0  0  0  0  0  0  0  0  0
    7.0390  -16.1085   24.2651 O   0  0  0  0  0  0  0  0  0  0  0  0
   11.5389  -16.9363   24.3562 C   0  0  0  0  0  0  0  0  0  0  0  0
   10.3904  -17.6904   24.3108 C   0  0  1  0  0  0  0  0  0  0  0  0
    9.3470  -17.1303   25.2716 N   0  0  0  0  0  0  0  0  0  0  0  0
    9.1831  -15.7249   24.9252 C   0  0  0  0  0  0  0  0  0  0  0  0
    9.8580  -17.1985   26.6590 O   0  0  0  0  0  0  0  0  0  0  0  0
   10.1955  -18.3099   27.1889 O   0  0  0  0  0  0  0  0  0  0  0  0
  1  2  1  0
  2  3  2  0
  4  5  1  0
  4  2  1  0
  6  7  1  0
  6  5  1  0
  7  8  1  0
  8 10  1  0
  8  9  1  6
 10 11  2  0
 10 12  1  0
 12 13  1  0
 13 16  1  0
 13 14  1  6
 14 15  1  0
 16 17  2  0
 18 19  1  0
 20 19  1  6
 21 20  1  0
 21 16  1  0
 22 24  1  0
 22 20  1  0
 23 22  2  0
M  END
$$$$
