RCS.pdb
     RDKit          3D

 24 23  0  0  1  0  0  0  0  0999 V2000
    8.1449  -14.6211   14.9790 N   0  0  0  0  0  0  0  0  0  0  0  0
    8.4979  -14.3240   16.3255 C   0  0  0  0  0  0  0  0  0  0  0  0
    9.4687  -14.9234   16.9549 N   0  0  0  0  0  0  0  0  0  0  0  0
    7.7839  -13.3287   17.0676 N   0  0  0  0  0  0  0  0  0  0  0  0
    8.1462  -13.0328   18.4430 C   0  0  0  0  0  0  0  0  0  0  0  0
    7.8393  -14.2088   19.3153 C   0  0  0  0  0  0  0  0  0  0  0  0
    8.1419  -14.0321   20.7638 C   0  0  0  0  0  0  0  0  0  0  0  0
    7.8073  -15.1935   21.6363 C   0  0  2  0  0  0  0  0  0  0  0  0
    6.4184  -15.4792   21.7917 N   0  0  0  0  0  0  0  0  0  0  0  0
    8.3900  -14.9362   22.9924 C   0  0  0  0  0  0  0  0  0  0  0  0
    9.5843  -14.6294   23.1349 O   0  0  0  0  0  0  0  0  0  0  0  0
    9.6587  -14.6075   17.9262 N   0  0  0  0  0  0  0  0  0  0  0  0
    7.5073  -15.0618   24.1079 C   0  0  1  0  0  0  0  0  0  0  0  0
    8.1113  -14.9043   25.4498 C   0  0  0  0  0  0  0  0  0  0  0  0
    7.0248  -14.2135   26.2593 S   0  0  0  0  0  0  0  0  0  0  0  0
    6.7726  -12.5098   25.7225 C   0  0  0  0  0  0  0  0  0  0  0  0
    8.3850  -16.2371   26.0080 O   0  0  0  0  0  0  0  0  0  0  0  0
    7.6377  -17.2356   25.8067 O   0  0  0  0  0  0  0  0  0  0  0  0
   11.6684  -17.7996   25.7551 C   0  0  0  0  0  0  0  0  0  0  0  0
   10.5552  -18.5082   26.1406 C   0  0  1  0  0  0  0  0  0  0  0  0
    9.8450  -17.8006   27.2898 N   0  0  0  0  0  0  0  0  0  0  0  0
    9.5267  -16.4615   26.8129 C   0  0  0  0  0  0  0  0  0  0  0  0
   10.7674  -17.6651   28.4393 O   0  0  0  0  0  0  0  0  0  0  0  0
   11.2060  -16.5244   28.8084 O   0  0  0  0  0  0  0  0  0  0  0  0
  1  2  1  0
  2  3  2  0
  4  5  1  0
  4  2  1  0
  6  7  1  0
  6  5  1  0
  7  8  1  0
  8 10  1  0
  8  9  1  1
 10 11  2  0
 10 12  1  0
 12 13  1  0
 13 16  1  0
 13 14  1  1
 14 15  1  0
 16 17  2  0
 18 19  1  0
 20 19  1  6
 21 20  1  0
 21 16  1  0
 22 24  1  0
 22 20  1  0
 23 22  2  0
M  END
$$$$
