RCS.pdb
     RDKit          3D

 24 23  0  0  1  0  0  0  0  0999 V2000
   -1.3960  -18.5544   22.7664 N   0  0  0  0  0  0  0  0  0  0  0  0
   -0.4329  -19.5932   22.6267 C   0  0  0  0  0  0  0  0  0  0  0  0
    0.4294  -19.6368   21.6507 N   0  0  0  0  0  0  0  0  0  0  0  0
   -0.3671  -20.6638   23.5756 N   0  0  0  0  0  0  0  0  0  0  0  0
   -1.2831  -20.7084   24.7023 C   0  0  0  0  0  0  0  0  0  0  0  0
   -2.6809  -20.9234   24.2147 C   0  0  0  0  0  0  0  0  0  0  0  0
   -3.7173  -21.0698   25.2755 C   0  0  0  0  0  0  0  0  0  0  0  0
   -5.1016  -21.3331   24.7892 C   0  0  2  0  0  0  0  0  0  0  0  0
   -5.6550  -20.3505   23.9157 N   0  0  0  0  0  0  0  0  0  0  0  0
   -5.9959  -21.4577   25.9849 C   0  0  0  0  0  0  0  0  0  0  0  0
   -6.6799  -20.5013   26.3827 O   0  0  0  0  0  0  0  0  0  0  0  0
    1.0472  -20.4712   21.6126 N   0  0  0  0  0  0  0  0  0  0  0  0
   -6.0213  -22.7255   26.6417 C   0  0  1  0  0  0  0  0  0  0  0  0
   -6.9455  -22.8565   27.7902 C   0  0  0  0  0  0  0  0  0  0  0  0
   -8.3259  -22.7545   27.1602 S   0  0  0  0  0  0  0  0  0  0  0  0
   -8.5874  -24.0315   25.9131 C   0  0  0  0  0  0  0  0  0  0  0  0
   -6.7654  -24.1841   28.3970 O   0  0  0  0  0  0  0  0  0  0  0  0
   -6.4817  -25.2160   27.7258 O   0  0  0  0  0  0  0  0  0  0  0  0
   -4.9106  -24.6606   31.6134 C   0  0  0  0  0  0  0  0  0  0  0  0
   -5.2232  -25.7253   30.8018 C   0  0  1  0  0  0  0  0  0  0  0  0
   -6.6924  -25.6728   30.3963 N   0  0  0  0  0  0  0  0  0  0  0  0
   -6.9048  -24.3639   29.7934 C   0  0  0  0  0  0  0  0  0  0  0  0
   -7.5466  -25.7606   31.6018 O   0  0  0  0  0  0  0  0  0  0  0  0
   -8.2542  -24.7708   31.9883 O   0  0  0  0  0  0  0  0  0  0  0  0
  1  2  1  0
  2  3  2  0
  4  5  1  0
  4  2  1  0
  6  7  1  0
  6  5  1  0
  7  8  1  0
  8 10  1  0
  8  9  1  6
 10 11  2  0
 10 12  1  0
 12 13  1  0
 13 16  1  0
 13 14  1  6
 14 15  1  0
 16 17  2  0
 18 19  1  0
 20 19  1  6
 21 20  1  0
 21 16  1  0
 22 24  1  0
 22 20  1  0
 23 22  2  0
M  END
$$$$
