RCS.pdb
     RDKit          3D

 24 23  0  0  1  0  0  0  0  0999 V2000
    9.5367  -14.7533   14.6410 N   0  0  0  0  0  0  0  0  0  0  0  0
    8.3045  -14.2149   15.1078 C   0  0  0  0  0  0  0  0  0  0  0  0
    7.9672  -12.9667   14.9462 N   0  0  0  0  0  0  0  0  0  0  0  0
    7.3568  -15.0413   15.7934 N   0  0  0  0  0  0  0  0  0  0  0  0
    7.4304  -15.2085   17.2347 C   0  0  0  0  0  0  0  0  0  0  0  0
    7.6851  -13.8874   17.8888 C   0  0  0  0  0  0  0  0  0  0  0  0
    8.4358  -13.9402   19.1750 C   0  0  0  0  0  0  0  0  0  0  0  0
    7.9078  -14.8976   20.1883 C   0  0  2  0  0  0  0  0  0  0  0  0
    6.4921  -14.9053   20.3630 N   0  0  0  0  0  0  0  0  0  0  0  0
    8.5433  -14.5738   21.5059 C   0  0  0  0  0  0  0  0  0  0  0  0
    9.7503  -14.2961   21.5902 O   0  0  0  0  0  0  0  0  0  0  0  0
    7.0639  -12.6707   15.3655 N   0  0  0  0  0  0  0  0  0  0  0  0
    7.6957  -14.6013   22.6548 C   0  0  1  0  0  0  0  0  0  0  0  0
    8.3513  -14.3922   23.9651 C   0  0  0  0  0  0  0  0  0  0  0  0
    7.4017  -13.4611   24.7028 S   0  0  0  0  0  0  0  0  0  0  0  0
    7.9529  -13.1450   26.3911 C   0  0  0  0  0  0  0  0  0  0  0  0
    8.4372  -15.6825   24.6656 O   0  0  0  0  0  0  0  0  0  0  0  0
    7.5274  -16.5574   24.6129 O   0  0  0  0  0  0  0  0  0  0  0  0
   10.4825  -19.3223   24.3450 C   0  0  0  0  0  0  0  0  0  0  0  0
   10.0467  -18.0213   24.2587 C   0  0  1  0  0  0  0  0  0  0  0  0
    9.9622  -17.3946   25.6464 N   0  0  0  0  0  0  0  0  0  0  0  0
    9.5723  -16.0055   25.4459 C   0  0  0  0  0  0  0  0  0  0  0  0
   11.2996  -17.4031   26.2804 O   0  0  0  0  0  0  0  0  0  0  0  0
   12.1548  -16.4862   26.0399 O   0  0  0  0  0  0  0  0  0  0  0  0
  1  2  1  0
  2  3  2  0
  4  5  1  0
  4  2  1  0
  6  7  1  0
  6  5  1  0
  7  8  1  0
  8 10  1  0
  8  9  1  1
 10 11  2  0
 10 12  1  0
 12 13  1  0
 13 16  1  0
 13 14  1  6
 14 15  1  0
 16 17  2  0
 18 19  1  0
 20 19  1  1
 21 20  1  0
 21 16  1  0
 22 24  1  0
 22 20  1  0
 23 22  2  0
M  END
$$$$
