RCS.pdb
     RDKit          3D

 24 23  0  0  1  0  0  0  0  0999 V2000
    8.1782  -12.2544   17.5994 N   0  0  0  0  0  0  0  0  0  0  0  0
    7.9095  -13.4468   16.8700 C   0  0  0  0  0  0  0  0  0  0  0  0
    7.8625  -13.4889   15.5685 N   0  0  0  0  0  0  0  0  0  0  0  0
    7.6726  -14.6844   17.5507 N   0  0  0  0  0  0  0  0  0  0  0  0
    7.9930  -14.8239   18.9608 C   0  0  0  0  0  0  0  0  0  0  0  0
    7.1236  -13.9171   19.7732 C   0  0  0  0  0  0  0  0  0  0  0  0
    7.3338  -13.9746   21.2474 C   0  0  0  0  0  0  0  0  0  0  0  0
    7.6943  -15.3141   21.7932 C   0  0  2  0  0  0  0  0  0  0  0  0
    6.6173  -16.0827   22.3263 N   0  0  0  0  0  0  0  0  0  0  0  0
    8.7112  -15.1142   22.8753 C   0  0  0  0  0  0  0  0  0  0  0  0
    8.5003  -14.3444   23.8260 O   0  0  0  0  0  0  0  0  0  0  0  0
    7.6831  -14.4178   15.1392 N   0  0  0  0  0  0  0  0  0  0  0  0
    9.9300  -15.8491   22.7585 C   0  0  1  0  0  0  0  0  0  0  0  0
   10.8804  -15.7369   23.8875 C   0  0  0  0  0  0  0  0  0  0  0  0
   10.0469  -16.1106   25.1034 S   0  0  0  0  0  0  0  0  0  0  0  0
   11.0528  -16.2131   26.5974 C   0  0  0  0  0  0  0  0  0  0  0  0
   11.9621  -16.7152   23.6981 O   0  0  0  0  0  0  0  0  0  0  0  0
   11.7517  -17.9388   23.4643 O   0  0  0  0  0  0  0  0  0  0  0  0
   14.3509  -15.2742   20.4704 C   0  0  0  0  0  0  0  0  0  0  0  0
   13.5769  -15.3472   21.6041 C   0  0  1  0  0  0  0  0  0  0  0  0
   14.1651  -16.3543   22.5867 N   0  0  0  0  0  0  0  0  0  0  0  0
   13.3172  -16.3153   23.7706 C   0  0  0  0  0  0  0  0  0  0  0  0
   15.5237  -15.9256   22.9879 O   0  0  0  0  0  0  0  0  0  0  0  0
   15.7177  -15.2335   24.0430 O   0  0  0  0  0  0  0  0  0  0  0  0
  1  2  1  0
  2  3  2  0
  4  5  1  0
  4  2  1  0
  6  7  1  0
  6  5  1  0
  7  8  1  0
  8 10  1  0
  8  9  1  1
 10 11  2  0
 10 12  1  0
 12 13  1  0
 13 16  1  0
 13 14  1  6
 14 15  1  0
 16 17  2  0
 18 19  1  0
 20 19  1  6
 21 20  1  0
 21 16  1  0
 22 24  1  0
 22 20  1  0
 23 22  2  0
M  END
$$$$
