RCS.pdb
     RDKit          3D

 24 23  0  0  1  0  0  0  0  0999 V2000
    8.1462  -12.3701   18.0611 N   0  0  0  0  0  0  0  0  0  0  0  0
    8.2348  -13.5928   17.3377 C   0  0  0  0  0  0  0  0  0  0  0  0
    8.1340  -13.6604   16.0403 N   0  0  0  0  0  0  0  0  0  0  0  0
    8.4434  -14.8345   18.0203 N   0  0  0  0  0  0  0  0  0  0  0  0
    7.5497  -15.2485   19.0882 C   0  0  0  0  0  0  0  0  0  0  0  0
    7.9565  -14.6003   20.3736 C   0  0  0  0  0  0  0  0  0  0  0  0
    9.1962  -15.1385   21.0016 C   0  0  0  0  0  0  0  0  0  0  0  0
    9.1619  -16.5868   21.3528 C   0  0  2  0  0  0  0  0  0  0  0  0
    8.1025  -17.3459   20.7727 N   0  0  0  0  0  0  0  0  0  0  0  0
    9.0605  -16.6990   22.8434 C   0  0  0  0  0  0  0  0  0  0  0  0
    7.9642  -16.6397   23.4228 O   0  0  0  0  0  0  0  0  0  0  0  0
    8.2156  -14.6051   15.6158 N   0  0  0  0  0  0  0  0  0  0  0  0
   10.2822  -16.8757   23.5613 C   0  0  1  0  0  0  0  0  0  0  0  0
   10.1655  -17.0996   25.0196 C   0  0  0  0  0  0  0  0  0  0  0  0
   11.2150  -18.1612   25.3100 S   0  0  0  0  0  0  0  0  0  0  0  0
   11.4645  -18.3872   27.0823 C   0  0  0  0  0  0  0  0  0  0  0  0
   10.5034  -15.8519   25.7212 O   0  0  0  0  0  0  0  0  0  0  0  0
   11.5169  -15.1536   25.4364 O   0  0  0  0  0  0  0  0  0  0  0  0
    7.7301  -13.9946   27.9405 C   0  0  0  0  0  0  0  0  0  0  0  0
    8.8404  -13.2804   27.5570 C   0  0  1  0  0  0  0  0  0  0  0  0
   10.0689  -14.1834   27.5229 N   0  0  0  0  0  0  0  0  0  0  0  0
    9.6850  -15.3697   26.7698 C   0  0  0  0  0  0  0  0  0  0  0  0
   10.4130  -14.6107   28.8975 O   0  0  0  0  0  0  0  0  0  0  0  0
   10.3108  -15.8308   29.2592 O   0  0  0  0  0  0  0  0  0  0  0  0
  1  2  1  0
  2  3  2  0
  4  5  1  0
  4  2  1  0
  6  7  1  0
  6  5  1  0
  7  8  1  0
  8 10  1  0
  8  9  1  6
 10 11  2  0
 10 12  1  0
 12 13  1  0
 13 16  1  0
 13 14  1  1
 14 15  1  0
 16 17  2  0
 18 19  1  0
 20 19  1  6
 21 20  1  0
 21 16  1  0
 22 24  1  0
 22 20  1  0
 23 22  2  0
M  END
$$$$
