RCS.pdb
     RDKit          3D

 24 23  0  0  1  0  0  0  0  0999 V2000
   10.1395  -14.0021   20.0099 N   0  0  0  0  0  0  0  0  0  0  0  0
    9.4587  -12.9962   19.2677 C   0  0  0  0  0  0  0  0  0  0  0  0
   10.0707  -11.9989   18.6943 N   0  0  0  0  0  0  0  0  0  0  0  0
    8.0353  -13.0359   19.1144 N   0  0  0  0  0  0  0  0  0  0  0  0
    7.3205  -14.2986   19.1864 C   0  0  0  0  0  0  0  0  0  0  0  0
    6.8592  -14.5441   20.5881 C   0  0  0  0  0  0  0  0  0  0  0  0
    6.1880  -15.8534   20.8248 C   0  0  0  0  0  0  0  0  0  0  0  0
    7.0877  -16.9743   21.2202 C   0  0  2  0  0  0  0  0  0  0  0  0
    6.7118  -18.2705   20.7581 N   0  0  0  0  0  0  0  0  0  0  0  0
    7.1538  -17.0084   22.7166 C   0  0  0  0  0  0  0  0  0  0  0  0
    6.2046  -17.4309   23.3959 O   0  0  0  0  0  0  0  0  0  0  0  0
    9.4819  -11.3520   18.1338 N   0  0  0  0  0  0  0  0  0  0  0  0
    8.3573  -16.5321   23.3199 C   0  0  2  0  0  0  0  0  0  0  0  0
    8.3144  -16.2902   24.7794 C   0  0  0  0  0  0  0  0  0  0  0  0
    9.6406  -16.8421   25.2789 S   0  0  0  0  0  0  0  0  0  0  0  0
   10.0002  -16.2973   26.9607 C   0  0  0  0  0  0  0  0  0  0  0  0
    8.2491  -14.8408   25.0199 O   0  0  0  0  0  0  0  0  0  0  0  0
    9.0056  -14.0111   24.4408 O   0  0  0  0  0  0  0  0  0  0  0  0
    5.1202  -13.2236   27.1456 C   0  0  0  0  0  0  0  0  0  0  0  0
    5.8126  -12.4683   26.2292 C   0  0  1  0  0  0  0  0  0  0  0  0
    7.2830  -12.8725   26.2079 N   0  0  0  0  0  0  0  0  0  0  0  0
    7.3112  -14.3026   25.9323 C   0  0  0  0  0  0  0  0  0  0  0  0
    7.8796  -12.6567   27.5450 O   0  0  0  0  0  0  0  0  0  0  0  0
    8.2403  -13.6379   28.2779 O   0  0  0  0  0  0  0  0  0  0  0  0
  1  2  1  0
  2  3  2  0
  4  5  1  0
  4  2  1  0
  6  7  1  0
  6  5  1  0
  7  8  1  0
  8 10  1  0
  8  9  1  1
 10 11  2  0
 10 12  1  0
 12 13  1  0
 13 16  1  0
 13 14  1  6
 14 15  1  0
 16 17  2  0
 18 19  1  0
 20 19  1  6
 21 20  1  0
 21 16  1  0
 22 24  1  0
 22 20  1  0
 23 22  2  0
M  END
$$$$
