RCS.pdb
     RDKit          3D

 24 23  0  0  1  0  0  0  0  0999 V2000
   10.5844  -13.4927   19.5193 N   0  0  0  0  0  0  0  0  0  0  0  0
    9.4358  -12.6817   19.2975 C   0  0  0  0  0  0  0  0  0  0  0  0
    9.3801  -11.4222   19.6272 N   0  0  0  0  0  0  0  0  0  0  0  0
    8.2605  -13.2271   18.6873 N   0  0  0  0  0  0  0  0  0  0  0  0
    7.7729  -14.5411   19.0696 C   0  0  0  0  0  0  0  0  0  0  0  0
    7.4014  -14.5452   20.5187 C   0  0  0  0  0  0  0  0  0  0  0  0
    6.9601  -15.8591   21.0663 C   0  0  0  0  0  0  0  0  0  0  0  0
    8.0120  -16.9132   21.1329 C   0  0  2  0  0  0  0  0  0  0  0  0
    7.6891  -18.1585   20.5167 N   0  0  0  0  0  0  0  0  0  0  0  0
    8.3205  -17.1681   22.5768 C   0  0  0  0  0  0  0  0  0  0  0  0
    7.4893  -17.6976   23.3315 O   0  0  0  0  0  0  0  0  0  0  0  0
    8.4837  -10.9316   19.4405 N   0  0  0  0  0  0  0  0  0  0  0  0
    9.6122  -16.7724   23.0397 C   0  0  2  0  0  0  0  0  0  0  0  0
    9.8737  -16.9340   24.4874 C   0  0  0  0  0  0  0  0  0  0  0  0
   11.2323  -17.6154   24.5382 S   0  0  0  0  0  0  0  0  0  0  0  0
   11.9003  -17.6504   26.2135 C   0  0  0  0  0  0  0  0  0  0  0  0
    9.9541  -15.6030   25.1079 O   0  0  0  0  0  0  0  0  0  0  0  0
   10.6940  -14.6796   24.6653 O   0  0  0  0  0  0  0  0  0  0  0  0
    7.0453  -14.2062   27.3883 C   0  0  0  0  0  0  0  0  0  0  0  0
    8.0298  -13.3364   26.9833 C   0  0  1  0  0  0  0  0  0  0  0  0
    9.3842  -14.0369   26.9631 N   0  0  0  0  0  0  0  0  0  0  0  0
    9.1852  -15.2940   26.2547 C   0  0  0  0  0  0  0  0  0  0  0  0
    9.8015  -14.3573   28.3465 O   0  0  0  0  0  0  0  0  0  0  0  0
    9.9356  -15.5653   28.7372 O   0  0  0  0  0  0  0  0  0  0  0  0
  1  2  1  0
  2  3  2  0
  4  5  1  0
  4  2  1  0
  6  7  1  0
  6  5  1  0
  7  8  1  0
  8 10  1  0
  8  9  1  1
 10 11  2  0
 10 12  1  0
 12 13  1  0
 13 16  1  0
 13 14  1  6
 14 15  1  0
 16 17  2  0
 18 19  1  0
 20 19  1  6
 21 20  1  0
 21 16  1  0
 22 24  1  0
 22 20  1  0
 23 22  2  0
M  END
$$$$
