RCS.pdb
     RDKit          3D

 24 23  0  0  1  0  0  0  0  0999 V2000
    7.1657  -14.0962   15.8615 N   0  0  0  0  0  0  0  0  0  0  0  0
    8.5123  -14.5116   15.6607 C   0  0  0  0  0  0  0  0  0  0  0  0
    9.0217  -14.7266   14.4808 N   0  0  0  0  0  0  0  0  0  0  0  0
    9.3893  -14.7175   16.7741 N   0  0  0  0  0  0  0  0  0  0  0  0
    8.8768  -14.6833   18.1331 C   0  0  0  0  0  0  0  0  0  0  0  0
    8.2872  -13.3391   18.4219 C   0  0  0  0  0  0  0  0  0  0  0  0
    7.7028  -13.1715   19.7825 C   0  0  0  0  0  0  0  0  0  0  0  0
    7.5765  -14.4209   20.5858 C   0  0  2  0  0  0  0  0  0  0  0  0
    6.2462  -14.8412   20.8833 N   0  0  0  0  0  0  0  0  0  0  0  0
    8.3058  -14.2153   21.8784 C   0  0  0  0  0  0  0  0  0  0  0  0
    9.5014  -13.8822   21.8998 O   0  0  0  0  0  0  0  0  0  0  0  0
   10.0387  -14.9358   14.4441 N   0  0  0  0  0  0  0  0  0  0  0  0
    7.5607  -14.4216   23.0790 C   0  0  2  0  0  0  0  0  0  0  0  0
    8.3195  -14.3531   24.3479 C   0  0  0  0  0  0  0  0  0  0  0  0
    7.4161  -13.5481   25.2692 S   0  0  0  0  0  0  0  0  0  0  0  0
    5.8755  -14.4180   25.6219 C   0  0  0  0  0  0  0  0  0  0  0  0
    8.4905  -15.7156   24.8743 O   0  0  0  0  0  0  0  0  0  0  0  0
    7.5251  -16.5091   25.0603 O   0  0  0  0  0  0  0  0  0  0  0  0
   11.5367  -17.8772   24.0099 C   0  0  0  0  0  0  0  0  0  0  0  0
   10.4213  -18.4245   24.5983 C   0  0  1  0  0  0  0  0  0  0  0  0
    9.9406  -17.5464   25.7487 N   0  0  0  0  0  0  0  0  0  0  0  0
    9.7766  -16.2066   25.2011 C   0  0  0  0  0  0  0  0  0  0  0  0
   10.9829  -17.4828   26.7977 O   0  0  0  0  0  0  0  0  0  0  0  0
   11.5815  -16.3896   27.0742 O   0  0  0  0  0  0  0  0  0  0  0  0
  1  2  1  0
  2  3  2  0
  4  5  1  0
  4  2  1  0
  6  7  1  0
  6  5  1  0
  7  8  1  0
  8 10  1  0
  8  9  1  1
 10 11  2  0
 10 12  1  0
 12 13  1  0
 13 16  1  0
 13 14  1  6
 14 15  1  0
 16 17  2  0
 18 19  1  0
 20 19  1  6
 21 20  1  0
 21 16  1  0
 22 24  1  0
 22 20  1  0
 23 22  2  0
M  END
$$$$
