RCS.pdb
     RDKit          3D

 24 23  0  0  1  0  0  0  0  0999 V2000
   15.2262  -12.9894   17.9739 N   0  0  0  0  0  0  0  0  0  0  0  0
   16.1313  -13.9855   18.4371 C   0  0  0  0  0  0  0  0  0  0  0  0
   17.2684  -14.2398   17.8536 N   0  0  0  0  0  0  0  0  0  0  0  0
   15.8253  -14.7728   19.5937 N   0  0  0  0  0  0  0  0  0  0  0  0
   14.5694  -14.5886   20.3002 C   0  0  0  0  0  0  0  0  0  0  0  0
   13.5340  -15.5179   19.7505 C   0  0  0  0  0  0  0  0  0  0  0  0
   12.1913  -15.4375   20.3918 C   0  0  0  0  0  0  0  0  0  0  0  0
   11.6034  -16.7397   20.8171 C   0  0  2  0  0  0  0  0  0  0  0  0
   10.9789  -17.5087   19.7908 N   0  0  0  0  0  0  0  0  0  0  0  0
   10.5872  -16.4623   21.8826 C   0  0  0  0  0  0  0  0  0  0  0  0
    9.3780  -16.3757   21.6154 O   0  0  0  0  0  0  0  0  0  0  0  0
   17.8584  -14.9776   18.2857 N   0  0  0  0  0  0  0  0  0  0  0  0
   11.0767  -16.3023   23.2145 C   0  0  2  0  0  0  0  0  0  0  0  0
   10.0613  -16.0999   24.2721 C   0  0  0  0  0  0  0  0  0  0  0  0
    9.3714  -17.4511   24.3779 S   0  0  0  0  0  0  0  0  0  0  0  0
   10.5089  -18.7415   24.9215 C   0  0  0  0  0  0  0  0  0  0  0  0
   10.7457  -15.7834   25.5348 O   0  0  0  0  0  0  0  0  0  0  0  0
   11.8258  -16.3340   25.8902 O   0  0  0  0  0  0  0  0  0  0  0  0
    8.8419  -13.3789   28.1238 C   0  0  0  0  0  0  0  0  0  0  0  0
   10.2075  -13.2664   28.2344 C   0  0  1  0  0  0  0  0  0  0  0  0
   10.8915  -14.5085   27.6730 N   0  0  0  0  0  0  0  0  0  0  0  0
   10.2094  -14.8235   26.4251 C   0  0  0  0  0  0  0  0  0  0  0  0
   10.6949  -15.6477   28.5972 O   0  0  0  0  0  0  0  0  0  0  0  0
    9.9070  -16.6096   28.3080 O   0  0  0  0  0  0  0  0  0  0  0  0
  1  2  1  0
  2  3  2  0
  4  5  1  0
  4  2  1  0
  6  7  1  0
  6  5  1  0
  7  8  1  0
  8 10  1  0
  8  9  1  6
 10 11  2  0
 10 12  1  0
 12 13  1  0
 13 16  1  0
 13 14  1  6
 14 15  1  0
 16 17  2  0
 18 19  1  0
 20 19  1  6
 21 20  1  0
 21 16  1  0
 22 24  1  0
 22 20  1  0
 23 22  2  0
M  END
$$$$
