RCS.pdb
     RDKit          3D

 24 23  0  0  1  0  0  0  0  0999 V2000
    9.0482  -13.0224   21.0282 N   0  0  0  0  0  0  0  0  0  0  0  0
    8.6217  -12.9441   19.6725 C   0  0  0  0  0  0  0  0  0  0  0  0
    9.2143  -12.1994   18.7824 N   0  0  0  0  0  0  0  0  0  0  0  0
    7.4938  -13.6985   19.2145 N   0  0  0  0  0  0  0  0  0  0  0  0
    6.3350  -13.8862   20.0705 C   0  0  0  0  0  0  0  0  0  0  0  0
    6.0876  -15.3466   20.2804 C   0  0  0  0  0  0  0  0  0  0  0  0
    6.9215  -15.9962   21.3309 C   0  0  0  0  0  0  0  0  0  0  0  0
    7.6503  -17.2245   20.9041 C   0  0  2  0  0  0  0  0  0  0  0  0
    6.8377  -18.3353   20.5291 N   0  0  0  0  0  0  0  0  0  0  0  0
    8.5390  -17.6506   22.0327 C   0  0  0  0  0  0  0  0  0  0  0  0
    8.2435  -18.6121   22.7602 O   0  0  0  0  0  0  0  0  0  0  0  0
    8.7230  -12.0786   17.8751 N   0  0  0  0  0  0  0  0  0  0  0  0
    9.7367  -16.8984   22.2296 C   0  0  2  0  0  0  0  0  0  0  0  0
   10.5886  -17.2989   23.3716 C   0  0  0  0  0  0  0  0  0  0  0  0
   11.7472  -16.3149   23.3242 S   0  0  0  0  0  0  0  0  0  0  0  0
   12.9060  -16.5810   24.6810 C   0  0  0  0  0  0  0  0  0  0  0  0
    9.8280  -17.1220   24.6179 O   0  0  0  0  0  0  0  0  0  0  0  0
    9.3527  -16.0100   24.9835 O   0  0  0  0  0  0  0  0  0  0  0  0
    6.9867  -18.5797   25.7068 C   0  0  0  0  0  0  0  0  0  0  0  0
    7.7225  -18.8040   26.8462 C   0  0  2  0  0  0  0  0  0  0  0  0
    9.0235  -18.0094   26.8052 N   0  0  0  0  0  0  0  0  0  0  0  0
    9.5901  -18.2186   25.4797 C   0  0  0  0  0  0  0  0  0  0  0  0
    9.9753  -18.5582   27.7968 O   0  0  0  0  0  0  0  0  0  0  0  0
    9.6901  -18.5976   29.0406 O   0  0  0  0  0  0  0  0  0  0  0  0
  1  2  1  0
  2  3  2  0
  4  5  1  0
  4  2  1  0
  6  7  1  0
  6  5  1  0
  7  8  1  0
  8 10  1  0
  8  9  1  1
 10 11  2  0
 10 12  1  0
 12 13  1  0
 13 16  1  0
 13 14  1  6
 14 15  1  0
 16 17  2  0
 18 19  1  0
 20 19  1  6
 21 20  1  0
 21 16  1  0
 22 24  1  0
 22 20  1  0
 23 22  2  0
M  END
$$$$
