RCS.pdb
     RDKit          3D

 24 23  0  0  1  0  0  0  0  0999 V2000
    7.6655  -16.5772   14.8481 N   0  0  0  0  0  0  0  0  0  0  0  0
    8.9246  -16.8555   15.4509 C   0  0  0  0  0  0  0  0  0  0  0  0
    9.9309  -17.3606   14.7950 N   0  0  0  0  0  0  0  0  0  0  0  0
    9.1475  -16.5866   16.8398 N   0  0  0  0  0  0  0  0  0  0  0  0
    8.0370  -16.2476   17.7130 C   0  0  0  0  0  0  0  0  0  0  0  0
    8.3193  -14.9599   18.4202 C   0  0  0  0  0  0  0  0  0  0  0  0
    7.2261  -14.4545   19.2979 C   0  0  0  0  0  0  0  0  0  0  0  0
    7.5042  -13.1654   19.9928 C   0  0  2  0  0  0  0  0  0  0  0  0
    8.3735  -12.2627   19.3116 N   0  0  0  0  0  0  0  0  0  0  0  0
    8.1050  -13.4804   21.3288 C   0  0  0  0  0  0  0  0  0  0  0  0
    9.3327  -13.5917   21.4750 O   0  0  0  0  0  0  0  0  0  0  0  0
   10.7829  -17.5808   15.3472 N   0  0  0  0  0  0  0  0  0  0  0  0
    7.1992  -13.6464   22.4202 C   0  0  2  0  0  0  0  0  0  0  0  0
    7.8034  -13.8752   23.7517 C   0  0  0  0  0  0  0  0  0  0  0  0
    6.6778  -13.5533   24.7224 S   0  0  0  0  0  0  0  0  0  0  0  0
    7.1013  -14.0155   26.4139 C   0  0  0  0  0  0  0  0  0  0  0  0
    8.1784  -15.2926   23.8671 O   0  0  0  0  0  0  0  0  0  0  0  0
    7.4153  -16.2379   23.5206 O   0  0  0  0  0  0  0  0  0  0  0  0
   11.6023  -18.4878   23.7522 C   0  0  0  0  0  0  0  0  0  0  0  0
   11.1022  -17.2120   23.6422 C   0  0  1  0  0  0  0  0  0  0  0  0
    9.8252  -17.0679   24.4633 N   0  0  0  0  0  0  0  0  0  0  0  0
    9.4422  -15.6647   24.3829 C   0  0  0  0  0  0  0  0  0  0  0  0
   10.1059  -17.3805   25.8824 O   0  0  0  0  0  0  0  0  0  0  0  0
   10.5138  -18.5361   26.2402 O   0  0  0  0  0  0  0  0  0  0  0  0
  1  2  1  0
  2  3  2  0
  4  5  1  0
  4  2  1  0
  6  7  1  0
  6  5  1  0
  7  8  1  0
  8 10  1  0
  8  9  1  6
 10 11  2  0
 10 12  1  0
 12 13  1  0
 13 16  1  0
 13 14  1  6
 14 15  1  0
 16 17  2  0
 18 19  1  0
 20 19  1  6
 21 20  1  0
 21 16  1  0
 22 24  1  0
 22 20  1  0
 23 22  2  0
M  END
$$$$
