HRM.pdb
     RDKit          3D

 30 30  0  0  1  0  0  0  0  0999 V2000
   19.2845  -20.1319  -14.5711 N   0  0  0  0  0  0  0  0  0  0  0  0
   20.6565  -19.6590  -14.5923 C   0  0  1  0  0  0  0  0  0  0  0  0
   20.6628  -18.2311  -14.0959 C   0  0  0  0  0  0  0  0  0  0  0  0
   20.6552  -17.3223  -15.2656 C   0  0  0  0  0  0  0  0  0  0  0  0
   20.7223  -17.6346  -16.6112 C   0  0  0  0  0  0  0  0  0  0  0  0
   20.6879  -16.5140  -17.3524 N   0  0  0  0  0  0  0  0  0  0  0  0
   20.5996  -15.4850  -16.5028 C   0  0  0  0  0  0  0  0  0  0  0  0
   20.5793  -15.9591  -15.2482 N   0  0  0  0  0  0  0  0  0  0  0  0
   21.5063  -20.5433  -13.7776 C   0  0  0  0  0  0  0  0  0  0  0  0
   21.2309  -20.7203  -12.5738 O   0  0  0  0  0  0  0  0  0  0  0  0
   26.5472  -25.9917  -15.9098 N   0  0  0  0  0  0  0  0  0  0  0  0
   26.1734  -24.9247  -16.7498 C   0  0  0  0  0  0  0  0  0  0  0  0
   26.9999  -24.3321  -17.5691 N   0  0  0  0  0  0  0  0  0  0  0  0
   24.8357  -24.4014  -16.7669 N   0  0  0  0  0  0  0  0  0  0  0  0
   23.8109  -25.0679  -15.9893 C   0  0  0  0  0  0  0  0  0  0  0  0
   23.1158  -24.0945  -15.0649 C   0  0  0  0  0  0  0  0  0  0  0  0
   24.1017  -23.1365  -14.4528 C   0  0  0  0  0  0  0  0  0  0  0  0
   23.4484  -22.0977  -13.5812 C   0  0  2  0  0  0  0  0  0  0  0  0
   22.6174  -21.1755  -14.3713 N   0  0  0  0  0  0  0  0  0  0  0  0
   24.5783  -21.3033  -12.9778 C   0  0  0  0  0  0  0  0  0  0  0  0
   24.7631  -20.1604  -13.4990 O   0  0  0  0  0  0  0  0  0  0  0  0
   26.5896  -23.6346  -18.2140 C   0  0  0  0  0  0  0  0  0  0  0  0
   28.7246  -19.5555   -6.5198 S   0  0  0  0  0  0  0  0  0  0  0  0
   27.6657  -20.6583   -7.4186 C   0  0  0  0  0  0  0  0  0  0  0  0
   27.5139  -20.2913   -9.1514 C   0  0  0  0  0  0  0  0  0  0  0  0
   26.5319  -21.1286   -9.8984 C   0  0  1  0  0  0  0  0  0  0  0  0
   26.3723  -20.8528  -11.3542 N   0  0  0  0  0  0  0  0  0  0  0  0
   25.3644  -21.7756  -11.9308 C   0  0  0  0  0  0  0  0  0  0  0  0
   27.6470  -21.0441  -12.1027 O   0  0  0  0  0  0  0  0  0  0  0  0
   27.7897  -22.1312  -12.7477 O   0  0  0  0  0  0  0  0  0  0  0  0
  2  1  1  1
  2  3  1  0
  2  9  1  0
  4  8  1  0
  4  3  1  0
  5  4  2  0
  6  5  1  0
  6  7  1  0
  7  8  2  0
  9 10  2  0
 12 14  1  0
 12 11  1  0
 13 12  2  0
 15 14  1  0
 15 16  1  0
 17 16  1  0
 18 17  1  6
 19 18  1  0
 19  9  1  0
 20 18  1  0
 20 21  2  0
 22 23  1  0
 23 24  1  0
 24 25  1  0
 26 25  1  1
 26 27  1  0
 26 28  1  0
 27 20  1  0
 28 29  2  0
 28 30  1  0
M  END
$$$$
