HRM.pdb
     RDKit          3D

 30 30  0  0  1  0  0  0  0  0999 V2000
   25.4634  -17.7979  -17.2433 N   0  0  0  0  0  0  0  0  0  0  0  0
   25.5250  -17.2666  -15.8941 C   0  0  1  0  0  0  0  0  0  0  0  0
   25.2349  -15.7847  -15.9653 C   0  0  0  0  0  0  0  0  0  0  0  0
   26.2606  -15.1411  -16.8185 C   0  0  0  0  0  0  0  0  0  0  0  0
   27.3076  -15.7226  -17.5100 C   0  0  0  0  0  0  0  0  0  0  0  0
   28.0114  -14.7844  -18.1664 N   0  0  0  0  0  0  0  0  0  0  0  0
   27.4319  -13.6074  -17.9070 C   0  0  0  0  0  0  0  0  0  0  0  0
   26.3806  -13.8103  -17.0992 N   0  0  0  0  0  0  0  0  0  0  0  0
   24.5778  -17.9859  -15.0262 C   0  0  0  0  0  0  0  0  0  0  0  0
   23.3534  -17.7845  -15.1548 O   0  0  0  0  0  0  0  0  0  0  0  0
   25.5927  -24.6694  -15.0533 N   0  0  0  0  0  0  0  0  0  0  0  0
   24.2507  -24.7703  -14.6377 C   0  0  0  0  0  0  0  0  0  0  0  0
   23.7956  -25.7562  -13.9123 N   0  0  0  0  0  0  0  0  0  0  0  0
   23.2689  -23.7814  -14.9869 N   0  0  0  0  0  0  0  0  0  0  0  0
   23.6948  -22.5842  -15.6828 C   0  0  0  0  0  0  0  0  0  0  0  0
   24.4213  -21.6451  -14.7469 C   0  0  0  0  0  0  0  0  0  0  0  0
   23.4523  -20.7444  -14.0299 C   0  0  0  0  0  0  0  0  0  0  0  0
   24.1332  -19.6638  -13.2335 C   0  0  2  0  0  0  0  0  0  0  0  0
   25.0701  -18.8906  -14.0639 N   0  0  0  0  0  0  0  0  0  0  0  0
   24.9328  -20.3799  -12.1755 C   0  0  0  0  0  0  0  0  0  0  0  0
   26.1644  -20.5263  -12.4471 O   0  0  0  0  0  0  0  0  0  0  0  0
   22.8077  -25.6903  -13.6116 C   0  0  0  0  0  0  0  0  0  0  0  0
   29.0167  -18.7192   -6.5851 S   0  0  0  0  0  0  0  0  0  0  0  0
   27.8438  -18.5461   -7.9040 C   0  0  0  0  0  0  0  0  0  0  0  0
   26.9692  -20.0374   -8.3179 C   0  0  0  0  0  0  0  0  0  0  0  0
   26.0958  -19.9525   -9.5234 C   0  0  1  0  0  0  0  0  0  0  0  0
   25.2970  -21.1618   -9.8704 N   0  0  0  0  0  0  0  0  0  0  0  0
   24.3752  -20.8486  -10.9894 C   0  0  0  0  0  0  0  0  0  0  0  0
   24.4749  -21.6376   -8.7217 O   0  0  0  0  0  0  0  0  0  0  0  0
   23.2475  -21.3039   -8.7022 O   0  0  0  0  0  0  0  0  0  0  0  0
  2  1  1  6
  2  3  1  0
  2  9  1  0
  4  8  1  0
  4  3  1  0
  5  4  2  0
  6  5  1  0
  6  7  1  0
  7  8  2  0
  9 10  2  0
 12 14  1  0
 12 11  1  0
 13 12  2  0
 15 14  1  0
 15 16  1  0
 17 16  1  0
 18 17  1  6
 19 18  1  0
 19  9  1  0
 20 18  1  0
 20 21  2  0
 22 23  1  0
 23 24  1  0
 24 25  1  0
 26 25  1  6
 26 27  1  0
 26 28  1  0
 27 20  1  0
 28 29  2  0
 28 30  1  0
M  END
$$$$
