HRM.pdb
     RDKit          3D

 30 30  0  0  1  0  0  0  0  0999 V2000
   25.9988  -18.0340  -16.6385 N   0  0  0  0  0  0  0  0  0  0  0  0
   26.6895  -18.3296  -15.3967 C   0  0  1  0  0  0  0  0  0  0  0  0
   27.6386  -17.1882  -15.1107 C   0  0  0  0  0  0  0  0  0  0  0  0
   28.6432  -17.1231  -16.1974 C   0  0  0  0  0  0  0  0  0  0  0  0
   28.9157  -16.0853  -17.0700 C   0  0  0  0  0  0  0  0  0  0  0  0
   29.9060  -16.4306  -17.9106 N   0  0  0  0  0  0  0  0  0  0  0  0
   30.2745  -17.6758  -17.5911 C   0  0  0  0  0  0  0  0  0  0  0  0
   29.5230  -18.1005  -16.5645 N   0  0  0  0  0  0  0  0  0  0  0  0
   25.7129  -18.5360  -14.3144 C   0  0  0  0  0  0  0  0  0  0  0  0
   24.7681  -17.7326  -14.1791 O   0  0  0  0  0  0  0  0  0  0  0  0
   19.1928  -21.2694  -12.3568 N   0  0  0  0  0  0  0  0  0  0  0  0
   19.9524  -21.5096  -13.5183 C   0  0  0  0  0  0  0  0  0  0  0  0
   19.4882  -21.3424  -14.7274 N   0  0  0  0  0  0  0  0  0  0  0  0
   21.3139  -21.9635  -13.4575 N   0  0  0  0  0  0  0  0  0  0  0  0
   21.8886  -22.2893  -12.1681 C   0  0  0  0  0  0  0  0  0  0  0  0
   22.8549  -21.2161  -11.7208 C   0  0  0  0  0  0  0  0  0  0  0  0
   23.8614  -20.9157  -12.7984 C   0  0  0  0  0  0  0  0  0  0  0  0
   24.8716  -19.8786  -12.3866 C   0  0  2  0  0  0  0  0  0  0  0  0
   25.8615  -19.6382  -13.4484 N   0  0  0  0  0  0  0  0  0  0  0  0
   25.5953  -20.4632  -11.2009 C   0  0  0  0  0  0  0  0  0  0  0  0
   26.3883  -21.4153  -11.4777 O   0  0  0  0  0  0  0  0  0  0  0  0
   20.1230  -21.5951  -15.5046 C   0  0  0  0  0  0  0  0  0  0  0  0
   29.5050  -19.6647   -4.5477 S   0  0  0  0  0  0  0  0  0  0  0  0
   28.6972  -19.0482   -6.0011 C   0  0  0  0  0  0  0  0  0  0  0  0
   27.6611  -20.2309   -6.8306 C   0  0  0  0  0  0  0  0  0  0  0  0
   27.0061  -19.7428   -8.0780 C   0  0  1  0  0  0  0  0  0  0  0  0
   26.1402  -20.7075   -8.8132 N   0  0  0  0  0  0  0  0  0  0  0  0
   25.4163  -20.0032   -9.8994 C   0  0  0  0  0  0  0  0  0  0  0  0
   25.1249  -21.3386   -7.9229 O   0  0  0  0  0  0  0  0  0  0  0  0
   23.9888  -20.7728   -7.8373 O   0  0  0  0  0  0  0  0  0  0  0  0
  2  1  1  6
  2  3  1  0
  2  9  1  0
  4  8  1  0
  4  3  1  0
  5  4  2  0
  6  5  1  0
  6  7  1  0
  7  8  2  0
  9 10  2  0
 12 14  1  0
 12 11  1  0
 13 12  2  0
 15 14  1  0
 15 16  1  0
 17 16  1  0
 18 17  1  6
 19 18  1  0
 19  9  1  0
 20 18  1  0
 20 21  2  0
 22 23  1  0
 23 24  1  0
 24 25  1  0
 26 25  1  6
 26 27  1  0
 26 28  1  0
 27 20  1  0
 28 29  2  0
 28 30  1  0
M  END
$$$$
