HRM.pdb
     RDKit          3D

 30 30  0  0  1  0  0  0  0  0999 V2000
   25.0306  -17.5601  -16.6548 N   0  0  0  0  0  0  0  0  0  0  0  0
   25.9468  -17.7830  -15.5515 C   0  0  1  0  0  0  0  0  0  0  0  0
   26.4049  -16.4329  -15.0489 C   0  0  0  0  0  0  0  0  0  0  0  0
   27.2148  -15.7833  -16.1055 C   0  0  0  0  0  0  0  0  0  0  0  0
   28.4957  -16.0860  -16.5303 C   0  0  0  0  0  0  0  0  0  0  0  0
   28.8691  -15.2527  -17.5165 N   0  0  0  0  0  0  0  0  0  0  0  0
   27.8466  -14.4182  -17.7323 C   0  0  0  0  0  0  0  0  0  0  0  0
   26.8491  -14.7280  -16.8909 N   0  0  0  0  0  0  0  0  0  0  0  0
   25.2885  -18.5813  -14.5040 C   0  0  0  0  0  0  0  0  0  0  0  0
   24.1715  -18.2285  -14.0749 O   0  0  0  0  0  0  0  0  0  0  0  0
   24.8182  -25.7640  -15.2976 N   0  0  0  0  0  0  0  0  0  0  0  0
   23.5745  -25.5666  -14.6668 C   0  0  0  0  0  0  0  0  0  0  0  0
   22.4457  -26.0123  -15.1491 N   0  0  0  0  0  0  0  0  0  0  0  0
   23.4542  -24.8491  -13.4281 N   0  0  0  0  0  0  0  0  0  0  0  0
   24.6534  -24.3503  -12.7862 C   0  0  0  0  0  0  0  0  0  0  0  0
   24.5043  -22.8903  -12.4233 C   0  0  0  0  0  0  0  0  0  0  0  0
   25.2415  -22.0153  -13.4006 C   0  0  0  0  0  0  0  0  0  0  0  0
   25.2631  -20.5667  -12.9926 C   0  0  2  0  0  0  0  0  0  0  0  0
   25.9313  -19.7313  -14.0030 N   0  0  0  0  0  0  0  0  0  0  0  0
   26.0828  -20.5116  -11.7290 C   0  0  0  0  0  0  0  0  0  0  0  0
   27.2736  -20.9355  -11.8481 O   0  0  0  0  0  0  0  0  0  0  0  0
   21.5887  -25.7584  -14.6277 C   0  0  0  0  0  0  0  0  0  0  0  0
   29.3142  -18.9950   -5.0011 S   0  0  0  0  0  0  0  0  0  0  0  0
   28.5929  -18.5736   -6.5655 C   0  0  0  0  0  0  0  0  0  0  0  0
   27.6015  -19.8570   -7.2937 C   0  0  0  0  0  0  0  0  0  0  0  0
   27.0662  -19.5577   -8.6528 C   0  0  1  0  0  0  0  0  0  0  0  0
   26.1708  -20.5765   -9.2701 N   0  0  0  0  0  0  0  0  0  0  0  0
   25.5837  -20.0352  -10.5201 C   0  0  0  0  0  0  0  0  0  0  0  0
   25.0483  -20.9560   -8.3659 O   0  0  0  0  0  0  0  0  0  0  0  0
   25.3494  -21.4917   -7.2520 O   0  0  0  0  0  0  0  0  0  0  0  0
  2  1  1  6
  2  3  1  0
  2  9  1  0
  4  8  1  0
  4  3  1  0
  5  4  2  0
  6  5  1  0
  6  7  1  0
  7  8  2  0
  9 10  2  0
 12 14  1  0
 12 11  1  0
 13 12  2  0
 15 14  1  0
 15 16  1  0
 17 16  1  0
 18 17  1  6
 19 18  1  0
 19  9  1  0
 20 18  1  0
 20 21  2  0
 22 23  1  0
 23 24  1  0
 24 25  1  0
 26 25  1  6
 26 27  1  0
 26 28  1  0
 27 20  1  0
 28 29  2  0
 28 30  1  0
M  END
$$$$
