HRM.pdb
     RDKit          3D

 30 30  0  0  1  0  0  0  0  0999 V2000
   26.8870  -21.7800  -11.8094 N   0  0  0  0  0  0  0  0  0  0  0  0
   25.9246  -20.6936  -11.8179 C   0  0  1  0  0  0  0  0  0  0  0  0
   26.4998  -19.5579  -11.0027 C   0  0  0  0  0  0  0  0  0  0  0  0
   26.5597  -19.9759   -9.5829 C   0  0  0  0  0  0  0  0  0  0  0  0
   27.6674  -20.2582   -8.8044 C   0  0  0  0  0  0  0  0  0  0  0  0
   27.2886  -20.6035   -7.5620 N   0  0  0  0  0  0  0  0  0  0  0  0
   25.9528  -20.5475   -7.5301 C   0  0  0  0  0  0  0  0  0  0  0  0
   25.5056  -20.1720   -8.7375 N   0  0  0  0  0  0  0  0  0  0  0  0
   25.6245  -20.2979  -13.2039 C   0  0  0  0  0  0  0  0  0  0  0  0
   26.5507  -19.9149  -13.9468 O   0  0  0  0  0  0  0  0  0  0  0  0
   25.7682  -24.9154  -16.1950 N   0  0  0  0  0  0  0  0  0  0  0  0
   24.4398  -25.2283  -15.8469 C   0  0  0  0  0  0  0  0  0  0  0  0
   24.1140  -26.2518  -15.1042 N   0  0  0  0  0  0  0  0  0  0  0  0
   23.3288  -24.4330  -16.2905 N   0  0  0  0  0  0  0  0  0  0  0  0
   23.5877  -23.2241  -17.0458 C   0  0  0  0  0  0  0  0  0  0  0  0
   24.2726  -22.1863  -16.1858 C   0  0  0  0  0  0  0  0  0  0  0  0
   23.3174  -21.0873  -15.8060 C   0  0  0  0  0  0  0  0  0  0  0  0
   23.9810  -19.9662  -15.0520 C   0  0  2  0  0  0  0  0  0  0  0  0
   24.2952  -20.3581  -13.6689 N   0  0  0  0  0  0  0  0  0  0  0  0
   22.9658  -18.8535  -15.0000 C   0  0  0  0  0  0  0  0  0  0  0  0
   21.9865  -19.0624  -14.2193 O   0  0  0  0  0  0  0  0  0  0  0  0
   23.1048  -26.3839  -14.9174 C   0  0  0  0  0  0  0  0  0  0  0  0
   20.8793  -11.3937  -16.8026 S   0  0  0  0  0  0  0  0  0  0  0  0
   22.0849  -12.6932  -16.7474 C   0  0  0  0  0  0  0  0  0  0  0  0
   21.4554  -14.2649  -16.2052 C   0  0  0  0  0  0  0  0  0  0  0  0
   22.4470  -15.3784  -16.1862 C   0  0  1  0  0  0  0  0  0  0  0  0
   21.9887  -16.6871  -15.6404 N   0  0  0  0  0  0  0  0  0  0  0  0
   23.0823  -17.6836  -15.7451 C   0  0  0  0  0  0  0  0  0  0  0  0
   20.8119  -17.2216  -16.3827 O   0  0  0  0  0  0  0  0  0  0  0  0
   21.0415  -17.8952  -17.4372 O   0  0  0  0  0  0  0  0  0  0  0  0
  2  1  1  6
  2  3  1  0
  2  9  1  0
  4  8  1  0
  4  3  1  0
  5  4  2  0
  6  5  1  0
  6  7  1  0
  7  8  2  0
  9 10  2  0
 12 14  1  0
 12 11  1  0
 13 12  2  0
 15 14  1  0
 15 16  1  0
 17 16  1  0
 18 17  1  6
 19 18  1  0
 19  9  1  0
 20 18  1  0
 20 21  2  0
 22 23  1  0
 23 24  1  0
 24 25  1  0
 26 25  1  1
 26 27  1  0
 26 28  1  0
 27 20  1  0
 28 29  2  0
 28 30  1  0
M  END
$$$$
