HRM.pdb
     RDKit          3D

 30 30  0  0  1  0  0  0  0  0999 V2000
   28.1186  -20.2487  -15.4140 N   0  0  0  0  0  0  0  0  0  0  0  0
   28.2589  -18.9349  -14.8134 C   0  0  1  0  0  0  0  0  0  0  0  0
   28.3231  -17.9185  -15.9306 C   0  0  0  0  0  0  0  0  0  0  0  0
   28.7890  -18.5966  -17.1625 C   0  0  0  0  0  0  0  0  0  0  0  0
   29.0596  -19.9370  -17.3692 C   0  0  0  0  0  0  0  0  0  0  0  0
   29.4619  -20.1418  -18.6351 N   0  0  0  0  0  0  0  0  0  0  0  0
   29.4541  -18.9521  -19.2459 C   0  0  0  0  0  0  0  0  0  0  0  0
   29.0519  -18.0183  -18.3711 N   0  0  0  0  0  0  0  0  0  0  0  0
   27.1435  -18.6839  -13.8857 C   0  0  0  0  0  0  0  0  0  0  0  0
   26.5380  -17.5943  -13.9349 O   0  0  0  0  0  0  0  0  0  0  0  0
   20.8329  -22.5928  -14.1081 N   0  0  0  0  0  0  0  0  0  0  0  0
   20.2832  -21.7775  -13.0998 C   0  0  0  0  0  0  0  0  0  0  0  0
   19.3496  -22.1798  -12.2802 N   0  0  0  0  0  0  0  0  0  0  0  0
   20.7151  -20.4226  -12.8962 N   0  0  0  0  0  0  0  0  0  0  0  0
   21.9220  -19.9640  -13.5535 C   0  0  0  0  0  0  0  0  0  0  0  0
   23.1418  -20.6522  -12.9843 C   0  0  0  0  0  0  0  0  0  0  0  0
   24.4059  -20.0279  -13.5102 C   0  0  0  0  0  0  0  0  0  0  0  0
   25.4059  -19.7233  -12.4272 C   0  0  2  0  0  0  0  0  0  0  0  0
   26.7781  -19.6791  -12.9568 N   0  0  0  0  0  0  0  0  0  0  0  0
   25.3193  -20.8738  -11.4576 C   0  0  0  0  0  0  0  0  0  0  0  0
   26.0804  -21.8542  -11.7255 O   0  0  0  0  0  0  0  0  0  0  0  0
   19.0356  -21.4980  -11.5679 C   0  0  0  0  0  0  0  0  0  0  0  0
   28.6155  -19.7144   -5.1558 S   0  0  0  0  0  0  0  0  0  0  0  0
   27.8968  -19.4042   -6.7472 C   0  0  0  0  0  0  0  0  0  0  0  0
   26.6700  -20.5887   -7.2495 C   0  0  0  0  0  0  0  0  0  0  0  0
   26.1009  -20.3809   -8.6119 C   0  0  1  0  0  0  0  0  0  0  0  0
   25.0357  -21.3244   -9.0546 N   0  0  0  0  0  0  0  0  0  0  0  0
   24.4746  -20.8729  -10.3513 C   0  0  0  0  0  0  0  0  0  0  0  0
   23.9151  -21.4022   -8.0750 O   0  0  0  0  0  0  0  0  0  0  0  0
   22.8647  -20.7322   -8.3324 O   0  0  0  0  0  0  0  0  0  0  0  0
  2  1  1  6
  2  3  1  0
  2  9  1  0
  4  8  1  0
  4  3  1  0
  5  4  2  0
  6  5  1  0
  6  7  1  0
  7  8  2  0
  9 10  2  0
 12 14  1  0
 12 11  1  0
 13 12  2  0
 15 14  1  0
 15 16  1  0
 17 16  1  0
 18 17  1  6
 19 18  1  0
 19  9  1  0
 20 18  1  0
 20 21  2  0
 22 23  1  0
 23 24  1  0
 24 25  1  0
 26 25  1  6
 26 27  1  0
 26 28  1  0
 27 20  1  0
 28 29  2  0
 28 30  1  0
M  END
$$$$
