HRM.pdb
     RDKit          3D

 30 30  0  0  1  0  0  0  0  0999 V2000
   19.2371  -23.5584  -13.8256 N   0  0  0  0  0  0  0  0  0  0  0  0
   19.3273  -23.2022  -12.4215 C   0  0  1  0  0  0  0  0  0  0  0  0
   19.1389  -21.7065  -12.3092 C   0  0  0  0  0  0  0  0  0  0  0  0
   20.2563  -21.0337  -13.0113 C   0  0  0  0  0  0  0  0  0  0  0  0
   21.3096  -21.5951  -13.7098 C   0  0  0  0  0  0  0  0  0  0  0  0
   22.1112  -20.6330  -14.1978 N   0  0  0  0  0  0  0  0  0  0  0  0
   21.5885  -19.4605  -13.8233 C   0  0  0  0  0  0  0  0  0  0  0  0
   20.4754  -19.6897  -13.1109 N   0  0  0  0  0  0  0  0  0  0  0  0
   18.3288  -23.9566  -11.6457 C   0  0  0  0  0  0  0  0  0  0  0  0
   17.1190  -23.8432  -11.9284 O   0  0  0  0  0  0  0  0  0  0  0  0
   21.6688  -29.9266  -10.7492 N   0  0  0  0  0  0  0  0  0  0  0  0
   21.2817  -30.2533   -9.4350 C   0  0  0  0  0  0  0  0  0  0  0  0
   22.0812  -30.8170   -8.5699 N   0  0  0  0  0  0  0  0  0  0  0  0
   19.9588  -29.9872   -8.9423 N   0  0  0  0  0  0  0  0  0  0  0  0
   19.0221  -29.2802   -9.7918 C   0  0  0  0  0  0  0  0  0  0  0  0
   18.9045  -27.8312   -9.3773 C   0  0  0  0  0  0  0  0  0  0  0  0
   17.9420  -27.0934  -10.2680 C   0  0  0  0  0  0  0  0  0  0  0  0
   17.7841  -25.6448   -9.8908 C   0  0  2  0  0  0  0  0  0  0  0  0
   18.7563  -24.7945  -10.5961 N   0  0  0  0  0  0  0  0  0  0  0  0
   18.0879  -25.5724   -8.4163 C   0  0  0  0  0  0  0  0  0  0  0  0
   19.3129  -25.3955   -8.1332 O   0  0  0  0  0  0  0  0  0  0  0  0
   21.6917  -30.9921   -7.6273 C   0  0  0  0  0  0  0  0  0  0  0  0
   14.9721  -23.0374   -1.6136 S   0  0  0  0  0  0  0  0  0  0  0  0
   14.7861  -23.7615   -3.2217 C   0  0  0  0  0  0  0  0  0  0  0  0
   16.3102  -24.2548   -3.9927 C   0  0  0  0  0  0  0  0  0  0  0  0
   16.1973  -24.6808   -5.4172 C   0  0  1  0  0  0  0  0  0  0  0  0
   17.4344  -25.1889   -6.0746 N   0  0  0  0  0  0  0  0  0  0  0  0
   17.1099  -25.6892   -7.4327 C   0  0  0  0  0  0  0  0  0  0  0  0
   18.0533  -26.3097   -5.3114 O   0  0  0  0  0  0  0  0  0  0  0  0
   17.7185  -27.4936   -5.6350 O   0  0  0  0  0  0  0  0  0  0  0  0
  2  1  1  6
  2  3  1  0
  2  9  1  0
  4  8  1  0
  4  3  1  0
  5  4  2  0
  6  5  1  0
  6  7  1  0
  7  8  2  0
  9 10  2  0
 12 14  1  0
 12 11  1  0
 13 12  2  0
 15 14  1  0
 15 16  1  0
 17 16  1  0
 18 17  1  6
 19 18  1  0
 19  9  1  0
 20 18  1  0
 20 21  2  0
 22 23  1  0
 23 24  1  0
 24 25  1  0
 26 25  1  6
 26 27  1  0
 26 28  1  0
 27 20  1  0
 28 29  2  0
 28 30  1  0
M  END
$$$$
