HRM.pdb
     RDKit          3D

 30 30  0  0  1  0  0  0  0  0999 V2000
   28.1452  -21.5258  -18.7390 N   0  0  0  0  0  0  0  0  0  0  0  0
   28.5575  -21.7960  -17.3740 C   0  0  1  0  0  0  0  0  0  0  0  0
   29.9722  -21.2897  -17.2078 C   0  0  0  0  0  0  0  0  0  0  0  0
   30.8692  -22.0984  -18.0656 C   0  0  0  0  0  0  0  0  0  0  0  0
   31.5414  -21.7273  -19.2158 C   0  0  0  0  0  0  0  0  0  0  0  0
   32.2535  -22.7620  -19.6942 N   0  0  0  0  0  0  0  0  0  0  0  0
   32.0490  -23.7935  -18.8680 C   0  0  0  0  0  0  0  0  0  0  0  0
   31.2199  -23.4058  -17.8875 N   0  0  0  0  0  0  0  0  0  0  0  0
   27.6185  -21.1666  -16.4306 C   0  0  0  0  0  0  0  0  0  0  0  0
   27.5781  -19.9228  -16.3432 O   0  0  0  0  0  0  0  0  0  0  0  0
   21.8168  -24.0073  -16.2419 N   0  0  0  0  0  0  0  0  0  0  0  0
   21.8393  -24.3340  -14.8721 C   0  0  0  0  0  0  0  0  0  0  0  0
   21.7005  -25.5518  -14.4217 N   0  0  0  0  0  0  0  0  0  0  0  0
   22.0188  -23.3364  -13.8541 N   0  0  0  0  0  0  0  0  0  0  0  0
   22.0396  -21.9390  -14.2362 C   0  0  0  0  0  0  0  0  0  0  0  0
   23.4045  -21.3342  -13.9979 C   0  0  0  0  0  0  0  0  0  0  0  0
   24.4355  -21.9631  -14.8957 C   0  0  0  0  0  0  0  0  0  0  0  0
   25.8059  -21.3639  -14.7270 C   0  0  2  0  0  0  0  0  0  0  0  0
   26.7805  -21.9800  -15.6414 N   0  0  0  0  0  0  0  0  0  0  0  0
   26.2224  -21.6907  -13.3158 C   0  0  0  0  0  0  0  0  0  0  0  0
   27.3720  -22.2192  -13.2090 O   0  0  0  0  0  0  0  0  0  0  0  0
   21.7466  -25.6723  -13.3950 C   0  0  0  0  0  0  0  0  0  0  0  0
   30.0133  -21.7253  -10.0932 S   0  0  0  0  0  0  0  0  0  0  0  0
   28.8162  -21.0390   -8.9793 C   0  0  0  0  0  0  0  0  0  0  0  0
   27.7662  -19.7956   -9.6947 C   0  0  0  0  0  0  0  0  0  0  0  0
   27.0902  -20.1839  -10.9657 C   0  0  1  0  0  0  0  0  0  0  0  0
   26.0846  -21.2814  -10.8928 N   0  0  0  0  0  0  0  0  0  0  0  0
   25.4180  -21.4375  -12.2085 C   0  0  0  0  0  0  0  0  0  0  0  0
   25.0295  -21.0067   -9.8765 O   0  0  0  0  0  0  0  0  0  0  0  0
   25.1330  -21.5925   -8.7520 O   0  0  0  0  0  0  0  0  0  0  0  0
  2  1  1  6
  2  3  1  0
  2  9  1  0
  4  8  1  0
  4  3  1  0
  5  4  2  0
  6  5  1  0
  6  7  1  0
  7  8  2  0
  9 10  2  0
 12 14  1  0
 12 11  1  0
 13 12  2  0
 15 14  1  0
 15 16  1  0
 17 16  1  0
 18 17  1  6
 19 18  1  0
 19  9  1  0
 20 18  1  0
 20 21  2  0
 22 23  1  0
 23 24  1  0
 24 25  1  0
 26 25  1  6
 26 27  1  0
 26 28  1  0
 27 20  1  0
 28 29  2  0
 28 30  1  0
M  END
$$$$
