HRM.pdb
     RDKit          3D

 30 30  0  0  1  0  0  0  0  0999 V2000
   25.2595  -21.2777  -17.3827 N   0  0  0  0  0  0  0  0  0  0  0  0
   25.1894  -20.4348  -16.2033 C   0  0  1  0  0  0  0  0  0  0  0  0
   23.7409  -20.0613  -15.9853 C   0  0  0  0  0  0  0  0  0  0  0  0
   23.2713  -19.2809  -17.1536 C   0  0  0  0  0  0  0  0  0  0  0  0
   23.9926  -18.8217  -18.2406 C   0  0  0  0  0  0  0  0  0  0  0  0
   23.1892  -18.1506  -19.0835 N   0  0  0  0  0  0  0  0  0  0  0  0
   21.9613  -18.1715  -18.5543 C   0  0  0  0  0  0  0  0  0  0  0  0
   21.9996  -18.8472  -17.3963 N   0  0  0  0  0  0  0  0  0  0  0  0
   25.7711  -21.1372  -15.0474 C   0  0  0  0  0  0  0  0  0  0  0  0
   26.0798  -22.3413  -15.1530 O   0  0  0  0  0  0  0  0  0  0  0  0
   30.4569  -21.6079   -9.7130 N   0  0  0  0  0  0  0  0  0  0  0  0
   31.4600  -22.1250  -10.5556 C   0  0  0  0  0  0  0  0  0  0  0  0
   32.2762  -23.0799  -10.1985 N   0  0  0  0  0  0  0  0  0  0  0  0
   31.6627  -21.6323  -11.8897 N   0  0  0  0  0  0  0  0  0  0  0  0
   30.6583  -20.7716  -12.4806 C   0  0  0  0  0  0  0  0  0  0  0  0
   29.4355  -21.5649  -12.8817 C   0  0  0  0  0  0  0  0  0  0  0  0
   28.3956  -20.6725  -13.5034 C   0  0  0  0  0  0  0  0  0  0  0  0
   27.0262  -20.8623  -12.9083 C   0  0  2  0  0  0  0  0  0  0  0  0
   25.9693  -20.4375  -13.8399 N   0  0  0  0  0  0  0  0  0  0  0  0
   26.9759  -19.9562  -11.7049 C   0  0  0  0  0  0  0  0  0  0  0  0
   27.0072  -18.7152  -11.9714 O   0  0  0  0  0  0  0  0  0  0  0  0
   33.0066  -23.3427  -10.8828 C   0  0  0  0  0  0  0  0  0  0  0  0
   20.2187  -20.0608   -9.6033 S   0  0  0  0  0  0  0  0  0  0  0  0
   21.7215  -20.6912  -10.3028 C   0  0  0  0  0  0  0  0  0  0  0  0
   23.2054  -20.1197   -9.5079 C   0  0  0  0  0  0  0  0  0  0  0  0
   24.4763  -20.4478  -10.2151 C   0  0  1  0  0  0  0  0  0  0  0  0
   25.7455  -20.0020   -9.5738 N   0  0  0  0  0  0  0  0  0  0  0  0
   26.9009  -20.4315  -10.3988 C   0  0  0  0  0  0  0  0  0  0  0  0
   25.9174  -20.5816   -8.2114 O   0  0  0  0  0  0  0  0  0  0  0  0
   26.4240  -21.7457   -8.1299 O   0  0  0  0  0  0  0  0  0  0  0  0
  2  1  1  6
  2  3  1  0
  2  9  1  0
  4  8  1  0
  4  3  1  0
  5  4  2  0
  6  5  1  0
  6  7  1  0
  7  8  2  0
  9 10  2  0
 12 14  1  0
 12 11  1  0
 13 12  2  0
 15 14  1  0
 15 16  1  0
 17 16  1  0
 18 17  1  6
 19 18  1  0
 19  9  1  0
 20 18  1  0
 20 21  2  0
 22 23  1  0
 23 24  1  0
 24 25  1  0
 26 25  1  6
 26 27  1  0
 26 28  1  0
 27 20  1  0
 28 29  2  0
 28 30  1  0
M  END
$$$$
