HRM.pdb
     RDKit          3D

 30 30  0  0  1  0  0  0  0  0999 V2000
   27.8784  -19.9439  -18.0416 N   0  0  0  0  0  0  0  0  0  0  0  0
   27.3955  -19.3012  -16.8332 C   0  0  1  0  0  0  0  0  0  0  0  0
   26.2264  -18.4207  -17.2115 C   0  0  0  0  0  0  0  0  0  0  0  0
   26.7171  -17.3314  -18.0874 C   0  0  0  0  0  0  0  0  0  0  0  0
   26.2377  -16.9211  -19.3180 C   0  0  0  0  0  0  0  0  0  0  0  0
   26.9678  -15.8933  -19.7839 N   0  0  0  0  0  0  0  0  0  0  0  0
   27.9101  -15.6365  -18.8704 C   0  0  0  0  0  0  0  0  0  0  0  0
   27.7685  -16.4938  -17.8486 N   0  0  0  0  0  0  0  0  0  0  0  0
   27.0347  -20.3186  -15.8318 C   0  0  0  0  0  0  0  0  0  0  0  0
   26.5814  -21.4176  -16.2097 O   0  0  0  0  0  0  0  0  0  0  0  0
   31.0563  -22.0734   -8.6275 N   0  0  0  0  0  0  0  0  0  0  0  0
   31.0323  -22.4100   -9.9949 C   0  0  0  0  0  0  0  0  0  0  0  0
   31.8838  -23.2317  -10.5473 N   0  0  0  0  0  0  0  0  0  0  0  0
   30.0551  -21.8657  -10.8962 N   0  0  0  0  0  0  0  0  0  0  0  0
   29.1981  -20.7914  -10.4374 C   0  0  0  0  0  0  0  0  0  0  0  0
   27.8738  -20.8082  -11.1665 C   0  0  0  0  0  0  0  0  0  0  0  0
   28.0334  -21.3566  -12.5587 C   0  0  0  0  0  0  0  0  0  0  0  0
   26.8618  -21.0454  -13.4509 C   0  0  2  0  0  0  0  0  0  0  0  0
   27.2074  -20.0338  -14.4622 N   0  0  0  0  0  0  0  0  0  0  0  0
   25.8071  -20.4581  -12.5485 C   0  0  0  0  0  0  0  0  0  0  0  0
   26.0618  -19.2895  -12.1224 O   0  0  0  0  0  0  0  0  0  0  0  0
   31.7901  -23.3762  -11.5677 C   0  0  0  0  0  0  0  0  0  0  0  0
   20.2376  -18.1296  -16.3353 S   0  0  0  0  0  0  0  0  0  0  0  0
   21.7212  -19.0076  -15.9191 C   0  0  0  0  0  0  0  0  0  0  0  0
   21.9027  -19.3771  -14.1896 C   0  0  0  0  0  0  0  0  0  0  0  0
   23.1920  -20.0199  -13.8053 C   0  0  1  0  0  0  0  0  0  0  0  0
   23.3519  -20.4231  -12.3795 N   0  0  0  0  0  0  0  0  0  0  0  0
   24.6411  -21.1349  -12.2023 C   0  0  0  0  0  0  0  0  0  0  0  0
   22.2618  -21.3350  -11.9305 O   0  0  0  0  0  0  0  0  0  0  0  0
   21.3171  -20.8261  -11.2472 O   0  0  0  0  0  0  0  0  0  0  0  0
  2  1  1  6
  2  3  1  0
  2  9  1  0
  4  8  1  0
  4  3  1  0
  5  4  2  0
  6  5  1  0
  6  7  1  0
  7  8  2  0
  9 10  2  0
 12 14  1  0
 12 11  1  0
 13 12  2  0
 15 14  1  0
 15 16  1  0
 17 16  1  0
 18 17  1  1
 19 18  1  0
 19  9  1  0
 20 18  1  0
 20 21  2  0
 22 23  1  0
 23 24  1  0
 24 25  1  0
 26 25  1  1
 26 27  1  0
 26 28  1  0
 27 20  1  0
 28 29  2  0
 28 30  1  0
M  END
$$$$
