HRM.pdb
     RDKit          3D

 30 30  0  0  1  0  0  0  0  0999 V2000
   23.6558  -22.3151  -19.7411 N   0  0  0  0  0  0  0  0  0  0  0  0
   22.9608  -21.4742  -18.7839 C   0  0  1  0  0  0  0  0  0  0  0  0
   21.4760  -21.6881  -18.9706 C   0  0  0  0  0  0  0  0  0  0  0  0
   21.0514  -21.0058  -20.2151 C   0  0  0  0  0  0  0  0  0  0  0  0
   20.3040  -21.5013  -21.2680 C   0  0  0  0  0  0  0  0  0  0  0  0
   20.1395  -20.5557  -22.2088 N   0  0  0  0  0  0  0  0  0  0  0  0
   20.7704  -19.4588  -21.7761 C   0  0  0  0  0  0  0  0  0  0  0  0
   21.3209  -19.7183  -20.5808 N   0  0  0  0  0  0  0  0  0  0  0  0
   23.4090  -21.7905  -17.4176 C   0  0  0  0  0  0  0  0  0  0  0  0
   23.6382  -22.9766  -17.1063 O   0  0  0  0  0  0  0  0  0  0  0  0
   28.2615  -21.4740  -15.1585 N   0  0  0  0  0  0  0  0  0  0  0  0
   28.6182  -20.7168  -16.2913 C   0  0  0  0  0  0  0  0  0  0  0  0
   29.3017  -21.2012  -17.2930 N   0  0  0  0  0  0  0  0  0  0  0  0
   28.2514  -19.3348  -16.4298 N   0  0  0  0  0  0  0  0  0  0  0  0
   27.1480  -18.8191  -15.6453 C   0  0  0  0  0  0  0  0  0  0  0  0
   25.8584  -19.5251  -15.9976 C   0  0  0  0  0  0  0  0  0  0  0  0
   25.3123  -20.2713  -14.8105 C   0  0  0  0  0  0  0  0  0  0  0  0
   24.0600  -21.0441  -15.1272 C   0  0  2  0  0  0  0  0  0  0  0  0
   23.5715  -20.7477  -16.4833 N   0  0  0  0  0  0  0  0  0  0  0  0
   23.0240  -20.5613  -14.1448 C   0  0  0  0  0  0  0  0  0  0  0  0
   22.8308  -19.3065  -14.1486 O   0  0  0  0  0  0  0  0  0  0  0  0
   29.5430  -20.5387  -18.0504 C   0  0  0  0  0  0  0  0  0  0  0  0
   26.5176  -22.0980   -9.3096 S   0  0  0  0  0  0  0  0  0  0  0  0
   25.6283  -20.5655   -9.3857 C   0  0  0  0  0  0  0  0  0  0  0  0
   23.9358  -20.7165   -9.9083 C   0  0  0  0  0  0  0  0  0  0  0  0
   23.7364  -20.9645  -11.3650 C   0  0  2  0  0  0  0  0  0  0  0  0
   22.3322  -21.1008  -11.8452 N   0  0  0  0  0  0  0  0  0  0  0  0
   22.3273  -21.4153  -13.2946 C   0  0  0  0  0  0  0  0  0  0  0  0
   21.5494  -19.8478  -11.6476 O   0  0  0  0  0  0  0  0  0  0  0  0
   21.8393  -18.8537  -12.3866 O   0  0  0  0  0  0  0  0  0  0  0  0
  2  1  1  6
  2  3  1  0
  2  9  1  0
  4  8  1  0
  4  3  1  0
  5  4  2  0
  6  5  1  0
  6  7  1  0
  7  8  2  0
  9 10  2  0
 12 14  1  0
 12 11  1  0
 13 12  2  0
 15 14  1  0
 15 16  1  0
 17 16  1  0
 18 17  1  1
 19 18  1  0
 19  9  1  0
 20 18  1  0
 20 21  2  0
 22 23  1  0
 23 24  1  0
 24 25  1  0
 26 25  1  1
 26 27  1  0
 26 28  1  0
 27 20  1  0
 28 29  2  0
 28 30  1  0
M  END
$$$$
