HRM.pdb
     RDKit          3D

 30 30  0  0  1  0  0  0  0  0999 V2000
   28.8341  -19.9065  -16.1977 N   0  0  0  0  0  0  0  0  0  0  0  0
   28.0422  -18.7758  -15.7496 C   0  0  1  0  0  0  0  0  0  0  0  0
   27.6900  -17.9460  -16.9631 C   0  0  0  0  0  0  0  0  0  0  0  0
   28.9364  -17.3774  -17.5268 C   0  0  0  0  0  0  0  0  0  0  0  0
   30.2419  -17.5540  -17.1061 C   0  0  0  0  0  0  0  0  0  0  0  0
   31.0830  -16.8600  -17.8917 N   0  0  0  0  0  0  0  0  0  0  0  0
   30.3372  -16.2394  -18.8120 C   0  0  0  0  0  0  0  0  0  0  0  0
   29.0478  -16.5432  -18.6019 N   0  0  0  0  0  0  0  0  0  0  0  0
   26.8511  -19.2508  -15.0259 C   0  0  0  0  0  0  0  0  0  0  0  0
   25.9037  -18.4654  -14.8217 O   0  0  0  0  0  0  0  0  0  0  0  0
   27.6587  -25.9867  -16.4491 N   0  0  0  0  0  0  0  0  0  0  0  0
   26.4200  -25.3543  -16.6711 C   0  0  0  0  0  0  0  0  0  0  0  0
   25.9788  -25.0355  -17.8582 N   0  0  0  0  0  0  0  0  0  0  0  0
   25.5376  -25.0077  -15.5918 N   0  0  0  0  0  0  0  0  0  0  0  0
   24.4179  -24.1270  -15.8554 C   0  0  0  0  0  0  0  0  0  0  0  0
   24.7916  -22.6855  -15.5950 C   0  0  0  0  0  0  0  0  0  0  0  0
   25.3159  -22.5103  -14.1954 C   0  0  0  0  0  0  0  0  0  0  0  0
   25.6150  -21.0750  -13.8550 C   0  0  2  0  0  0  0  0  0  0  0  0
   26.8011  -20.5854  -14.5754 N   0  0  0  0  0  0  0  0  0  0  0  0
   25.9293  -21.0629  -12.3811 C   0  0  0  0  0  0  0  0  0  0  0  0
   27.1437  -21.2971  -12.0938 O   0  0  0  0  0  0  0  0  0  0  0  0
   25.0343  -24.6151  -17.9020 C   0  0  0  0  0  0  0  0  0  0  0  0
   29.6967  -19.7491   -8.5875 S   0  0  0  0  0  0  0  0  0  0  0  0
   28.2410  -19.5203   -7.6008 C   0  0  0  0  0  0  0  0  0  0  0  0
   26.8446  -20.4994   -8.1028 C   0  0  0  0  0  0  0  0  0  0  0  0
   26.4987  -20.4240   -9.5512 C   0  0  1  0  0  0  0  0  0  0  0  0
   25.3013  -21.1866  -10.0045 N   0  0  0  0  0  0  0  0  0  0  0  0
   24.9712  -20.8156  -11.4021 C   0  0  0  0  0  0  0  0  0  0  0  0
   24.1050  -20.9019   -9.1622 O   0  0  0  0  0  0  0  0  0  0  0  0
   23.0991  -20.3729   -9.7338 O   0  0  0  0  0  0  0  0  0  0  0  0
  2  1  1  6
  2  3  1  0
  2  9  1  0
  4  8  1  0
  4  3  1  0
  5  4  2  0
  6  5  1  0
  6  7  1  0
  7  8  2  0
  9 10  2  0
 12 14  1  0
 12 11  1  0
 13 12  2  0
 15 14  1  0
 15 16  1  0
 17 16  1  0
 18 17  1  6
 19 18  1  0
 19  9  1  0
 20 18  1  0
 20 21  2  0
 22 23  1  0
 23 24  1  0
 24 25  1  0
 26 25  1  6
 26 27  1  0
 26 28  1  0
 27 20  1  0
 28 29  2  0
 28 30  1  0
M  END
$$$$
