HRM.pdb
     RDKit          3D

 30 30  0  0  1  0  0  0  0  0999 V2000
   18.6286  -21.2011  -13.2828 N   0  0  0  0  0  0  0  0  0  0  0  0
   18.7235  -20.5703  -14.5865 C   0  0  1  0  0  0  0  0  0  0  0  0
   17.4586  -19.7731  -14.8094 C   0  0  0  0  0  0  0  0  0  0  0  0
   16.3216  -20.7138  -14.9379 C   0  0  0  0  0  0  0  0  0  0  0  0
   16.0294  -21.5911  -15.9663 C   0  0  0  0  0  0  0  0  0  0  0  0
   14.9010  -22.2687  -15.6949 N   0  0  0  0  0  0  0  0  0  0  0  0
   14.4629  -21.8398  -14.5064 C   0  0  0  0  0  0  0  0  0  0  0  0
   15.3081  -20.9068  -14.0436 N   0  0  0  0  0  0  0  0  0  0  0  0
   19.9353  -19.7368  -14.6553 C   0  0  0  0  0  0  0  0  0  0  0  0
   20.0893  -18.8093  -13.8353 O   0  0  0  0  0  0  0  0  0  0  0  0
   27.1925  -22.7243  -17.1953 N   0  0  0  0  0  0  0  0  0  0  0  0
   25.9025  -23.2480  -16.9823 C   0  0  0  0  0  0  0  0  0  0  0  0
   25.5302  -24.4300  -17.3941 N   0  0  0  0  0  0  0  0  0  0  0  0
   24.8859  -22.5090  -16.2865 N   0  0  0  0  0  0  0  0  0  0  0  0
   25.2694  -21.3477  -15.5099 C   0  0  0  0  0  0  0  0  0  0  0  0
   24.0507  -20.5978  -15.0221 C   0  0  0  0  0  0  0  0  0  0  0  0
   23.3057  -19.9763  -16.1723 C   0  0  0  0  0  0  0  0  0  0  0  0
   22.1132  -19.1696  -15.7331 C   0  0  2  0  0  0  0  0  0  0  0  0
   20.9018  -20.0005  -15.6468 N   0  0  0  0  0  0  0  0  0  0  0  0
   21.8956  -18.1426  -16.8145 C   0  0  0  0  0  0  0  0  0  0  0  0
   21.3649  -18.5923  -17.8767 O   0  0  0  0  0  0  0  0  0  0  0  0
   24.5568  -24.7081  -17.1793 C   0  0  0  0  0  0  0  0  0  0  0  0
   18.6937  -12.7363  -16.9923 S   0  0  0  0  0  0  0  0  0  0  0  0
   20.0485  -12.3132  -18.0557 C   0  0  0  0  0  0  0  0  0  0  0  0
   21.0756  -13.6851  -18.5282 C   0  0  0  0  0  0  0  0  0  0  0  0
   21.2551  -14.7374  -17.4872 C   0  0  1  0  0  0  0  0  0  0  0  0
   22.0874  -15.9187  -17.8515 N   0  0  0  0  0  0  0  0  0  0  0  0
   22.2451  -16.8029  -16.6712 C   0  0  0  0  0  0  0  0  0  0  0  0
   23.4492  -15.5233  -18.3105 O   0  0  0  0  0  0  0  0  0  0  0  0
   24.4027  -15.6304  -17.4752 O   0  0  0  0  0  0  0  0  0  0  0  0
  2  1  1  1
  2  3  1  0
  2  9  1  0
  4  8  1  0
  4  3  1  0
  5  4  2  0
  6  5  1  0
  6  7  1  0
  7  8  2  0
  9 10  2  0
 12 14  1  0
 12 11  1  0
 13 12  2  0
 15 14  1  0
 15 16  1  0
 17 16  1  0
 18 17  1  6
 19 18  1  0
 19  9  1  0
 20 18  1  0
 20 21  2  0
 22 23  1  0
 23 24  1  0
 24 25  1  0
 26 25  1  6
 26 27  1  0
 26 28  1  0
 27 20  1  0
 28 29  2  0
 28 30  1  0
M  END
$$$$
