RKS.pdb
     RDKit          3D

 27 26  0  0  1  0  0  0  0  0999 V2000
   13.3143  -17.4431   14.1265 N   0  0  0  0  0  0  0  0  0  0  0  0
   14.5620  -17.8562   14.6204 C   0  0  0  0  0  0  0  0  0  0  0  0
   14.8276  -19.1085   14.7789 N   0  0  0  0  0  0  0  0  0  0  0  0
   15.5526  -16.9012   14.9539 N   0  0  0  0  0  0  0  0  0  0  0  0
   15.2041  -15.4705   15.0053 C   0  0  0  0  0  0  0  0  0  0  0  0
   13.9604  -15.3889   15.8379 C   0  0  0  0  0  0  0  0  0  0  0  0
   14.2462  -15.3808   17.2822 C   0  0  0  0  0  0  0  0  0  0  0  0
   13.0604  -15.1930   18.1773 C   0  0  2  0  0  0  0  0  0  0  0  0
   12.2383  -14.0617   17.9000 N   0  0  0  0  0  0  0  0  0  0  0  0
   13.6168  -15.0072   19.5658 C   0  0  0  0  0  0  0  0  0  0  0  0
   14.2760  -13.9966   19.8358 O   0  0  0  0  0  0  0  0  0  0  0  0
   15.7131  -19.4688   15.1784 N   0  0  0  0  0  0  0  0  0  0  0  0
   13.3652  -16.0099   20.5401 C   0  0  2  0  0  0  0  0  0  0  0  0
   13.8968  -15.8240   21.8713 C   0  0  0  0  0  0  0  0  0  0  0  0
   13.0090  -16.5480   22.8546 C   0  0  0  0  0  0  0  0  0  0  0  0
   11.7493  -15.7848   23.0781 C   0  0  0  0  0  0  0  0  0  0  0  0
   10.7193  -16.4956   23.9184 C   0  0  0  0  0  0  0  0  0  0  0  0
    9.5618  -15.5793   24.1656 N   0  0  0  0  0  0  0  0  0  0  0  0
    8.6324  -16.2972   25.0299 C   0  0  0  0  0  0  0  0  0  0  0  0
   15.2927  -16.2615   21.8938 O   0  0  0  0  0  0  0  0  0  0  0  0
   15.6170  -17.2684   21.2141 O   0  0  0  0  0  0  0  0  0  0  0  0
   18.5849  -13.9933   22.6480 C   0  0  0  0  0  0  0  0  0  0  0  0
   18.5777  -15.2203   21.9863 C   0  0  1  0  0  0  0  0  0  0  0  0
   17.6312  -16.2026   22.6524 N   0  0  0  0  0  0  0  0  0  0  0  0
   16.3147  -15.6189   22.6383 C   0  0  0  0  0  0  0  0  0  0  0  0
   18.0742  -16.5396   24.0224 O   0  0  0  0  0  0  0  0  0  0  0  0
   19.2133  -16.9943   24.2470 O   0  0  0  0  0  0  0  0  0  0  0  0
  2  1  1  0
  3  2  2  0
  4  2  1  0
  5  6  1  0
  5  4  1  0
  7  6  1  0
  8  7  1  0
  8  9  1  6
 10  8  1  0
 11 10  2  0
 12 10  1  0
 13 12  1  0
 13 14  1  6
 14 15  1  0
 15 16  1  0
 16 17  1  0
 17 18  1  0
 19 13  1  0
 20 19  2  0
 22 21  1  0
 23 22  1  6
 23 24  1  0
 24 19  1  0
 25 23  1  0
 25 27  1  0
 26 25  2  0
M  END
$$$$
