RKS.pdb
     RDKit          3D

 27 26  0  0  1  0  0  0  0  0999 V2000
    8.2797  -11.5647   20.7243 N   0  0  0  0  0  0  0  0  0  0  0  0
    8.5491  -12.8612   20.2574 C   0  0  0  0  0  0  0  0  0  0  0  0
    8.7359  -13.0848   19.0008 N   0  0  0  0  0  0  0  0  0  0  0  0
    8.6202  -13.9482   21.1618 N   0  0  0  0  0  0  0  0  0  0  0  0
    7.9423  -15.2161   20.8393 C   0  0  0  0  0  0  0  0  0  0  0  0
    7.4160  -15.7341   22.1438 C   0  0  0  0  0  0  0  0  0  0  0  0
    6.8061  -17.0682   22.0178 C   0  0  0  0  0  0  0  0  0  0  0  0
    7.4639  -17.9928   21.0407 C   0  0  2  0  0  0  0  0  0  0  0  0
    6.7418  -19.1783   20.7153 N   0  0  0  0  0  0  0  0  0  0  0  0
    8.7563  -18.4237   21.6858 C   0  0  0  0  0  0  0  0  0  0  0  0
    8.7370  -19.2099   22.6398 O   0  0  0  0  0  0  0  0  0  0  0  0
    8.8680  -14.0275   18.5916 N   0  0  0  0  0  0  0  0  0  0  0  0
    9.9775  -17.9096   21.1738 C   0  0  2  0  0  0  0  0  0  0  0  0
   11.2179  -18.4144   21.7177 C   0  0  0  0  0  0  0  0  0  0  0  0
   12.3655  -17.8526   20.9136 C   0  0  0  0  0  0  0  0  0  0  0  0
   13.6593  -18.4194   21.3871 C   0  0  0  0  0  0  0  0  0  0  0  0
   14.2910  -19.4205   20.4537 C   0  0  0  0  0  0  0  0  0  0  0  0
   15.5616  -19.9305   21.0587 N   0  0  0  0  0  0  0  0  0  0  0  0
   16.0872  -20.9404   20.1476 C   0  0  0  0  0  0  0  0  0  0  0  0
   11.2780  -18.0974   23.1448 O   0  0  0  0  0  0  0  0  0  0  0  0
   11.1768  -16.8946   23.4970 O   0  0  0  0  0  0  0  0  0  0  0  0
   10.5735  -20.5039   26.3540 C   0  0  0  0  0  0  0  0  0  0  0  0
   10.7299  -19.1217   26.4460 C   0  0  1  0  0  0  0  0  0  0  0  0
   11.7980  -18.6211   25.4906 N   0  0  0  0  0  0  0  0  0  0  0  0
   11.4441  -19.0660   24.1674 C   0  0  0  0  0  0  0  0  0  0  0  0
   13.1443  -19.0842   25.8903 O   0  0  0  0  0  0  0  0  0  0  0  0
   13.8210  -19.8335   25.1586 O   0  0  0  0  0  0  0  0  0  0  0  0
  2  1  1  0
  3  2  2  0
  4  2  1  0
  5  6  1  0
  5  4  1  0
  7  6  1  0
  8  7  1  0
  8  9  1  1
 10  8  1  0
 11 10  2  0
 12 10  1  0
 13 12  1  0
 13 14  1  6
 14 15  1  0
 15 16  1  0
 16 17  1  0
 17 18  1  0
 19 13  1  0
 20 19  2  0
 22 21  1  0
 23 22  1  6
 23 24  1  0
 24 19  1  0
 25 23  1  0
 25 27  1  0
 26 25  2  0
M  END
$$$$
