RKS.pdb
     RDKit          3D

 27 26  0  0  1  0  0  0  0  0999 V2000
    7.6439  -13.2782   18.6302 N   0  0  0  0  0  0  0  0  0  0  0  0
    7.8220  -12.6602   19.8783 C   0  0  0  0  0  0  0  0  0  0  0  0
    8.4534  -11.5397   19.9761 N   0  0  0  0  0  0  0  0  0  0  0  0
    7.3095  -13.2595   21.0543 N   0  0  0  0  0  0  0  0  0  0  0  0
    8.1704  -14.1393   21.8641 C   0  0  0  0  0  0  0  0  0  0  0  0
    8.1963  -15.4526   21.1421 C   0  0  0  0  0  0  0  0  0  0  0  0
    9.0307  -16.4563   21.8233 C   0  0  0  0  0  0  0  0  0  0  0  0
    9.0254  -17.8249   21.2158 C   0  0  2  0  0  0  0  0  0  0  0  0
    7.8440  -18.5968   21.4193 N   0  0  0  0  0  0  0  0  0  0  0  0
   10.1606  -18.5709   21.8692 C   0  0  0  0  0  0  0  0  0  0  0  0
    9.9731  -19.1680   22.9356 O   0  0  0  0  0  0  0  0  0  0  0  0
    8.6496  -11.0596   20.8730 N   0  0  0  0  0  0  0  0  0  0  0  0
   11.4313  -18.5692   21.2344 C   0  0  2  0  0  0  0  0  0  0  0  0
   12.5216  -19.2683   21.8762 C   0  0  0  0  0  0  0  0  0  0  0  0
   13.6186  -19.4922   20.8635 C   0  0  0  0  0  0  0  0  0  0  0  0
   14.7295  -20.2813   21.4655 C   0  0  0  0  0  0  0  0  0  0  0  0
   15.8566  -20.6105   20.5202 C   0  0  0  0  0  0  0  0  0  0  0  0
   16.9213  -21.3597   21.2588 N   0  0  0  0  0  0  0  0  0  0  0  0
   17.9794  -21.6470   20.2974 C   0  0  0  0  0  0  0  0  0  0  0  0
   12.9442  -18.5138   23.0563 O   0  0  0  0  0  0  0  0  0  0  0  0
   12.4352  -17.3820   23.2589 O   0  0  0  0  0  0  0  0  0  0  0  0
   12.2265  -18.5239   27.1871 C   0  0  0  0  0  0  0  0  0  0  0  0
   12.3811  -18.8210   25.8339 C   0  0  1  0  0  0  0  0  0  0  0  0
   13.7959  -18.5364   25.3632 N   0  0  0  0  0  0  0  0  0  0  0  0
   13.8990  -18.9786   23.9964 C   0  0  0  0  0  0  0  0  0  0  0  0
   14.7990  -19.1863   26.2339 O   0  0  0  0  0  0  0  0  0  0  0  0
   15.1064  -20.3865   26.0930 O   0  0  0  0  0  0  0  0  0  0  0  0
  2  1  1  0
  3  2  2  0
  4  2  1  0
  5  6  1  0
  5  4  1  0
  7  6  1  0
  8  7  1  0
  8  9  1  1
 10  8  1  0
 11 10  2  0
 12 10  1  0
 13 12  1  0
 13 14  1  6
 14 15  1  0
 15 16  1  0
 16 17  1  0
 17 18  1  0
 19 13  1  0
 20 19  2  0
 22 21  1  0
 23 22  1  6
 23 24  1  0
 24 19  1  0
 25 23  1  0
 25 27  1  0
 26 25  2  0
M  END
$$$$
