RKS.pdb
     RDKit          3D

 27 26  0  0  1  0  0  0  0  0999 V2000
    7.1368  -14.9316   15.5834 N   0  0  0  0  0  0  0  0  0  0  0  0
    7.9261  -13.8083   15.8777 C   0  0  0  0  0  0  0  0  0  0  0  0
    8.7800  -13.3589   15.0218 N   0  0  0  0  0  0  0  0  0  0  0  0
    7.7970  -13.1483   17.1236 N   0  0  0  0  0  0  0  0  0  0  0  0
    8.4282  -13.7207   18.3257 C   0  0  0  0  0  0  0  0  0  0  0  0
    8.0530  -15.1719   18.3249 C   0  0  0  0  0  0  0  0  0  0  0  0
    8.3704  -15.8389   19.5985 C   0  0  0  0  0  0  0  0  0  0  0  0
    7.3278  -15.7262   20.6675 C   0  0  2  0  0  0  0  0  0  0  0  0
    6.3034  -14.7598   20.4450 N   0  0  0  0  0  0  0  0  0  0  0  0
    8.0617  -15.3145   21.9181 C   0  0  0  0  0  0  0  0  0  0  0  0
    8.8308  -14.3469   21.8914 O   0  0  0  0  0  0  0  0  0  0  0  0
    9.3611  -12.5138   15.1694 N   0  0  0  0  0  0  0  0  0  0  0  0
    7.8469  -16.0577   23.1095 C   0  0  1  0  0  0  0  0  0  0  0  0
    8.5254  -15.6365   24.3144 C   0  0  0  0  0  0  0  0  0  0  0  0
    7.5109  -15.0408   25.2605 C   0  0  0  0  0  0  0  0  0  0  0  0
    7.5862  -13.5532   25.2349 C   0  0  0  0  0  0  0  0  0  0  0  0
    6.6649  -12.8562   26.2032 C   0  0  0  0  0  0  0  0  0  0  0  0
    6.8143  -11.3745   26.0518 N   0  0  0  0  0  0  0  0  0  0  0  0
    5.8569  -10.7585   26.9629 C   0  0  0  0  0  0  0  0  0  0  0  0
    9.2634  -16.7717   24.8688 O   0  0  0  0  0  0  0  0  0  0  0  0
    8.6291  -17.8203   25.1496 O   0  0  0  0  0  0  0  0  0  0  0  0
   13.4422  -16.9611   25.3976 C   0  0  0  0  0  0  0  0  0  0  0  0
   12.6578  -18.0781   25.1141 C   0  0  1  0  0  0  0  0  0  0  0  0
   11.2636  -17.9376   25.6979 N   0  0  0  0  0  0  0  0  0  0  0  0
   10.6606  -16.7680   25.1126 C   0  0  0  0  0  0  0  0  0  0  0  0
   11.2979  -17.8644   27.1745 O   0  0  0  0  0  0  0  0  0  0  0  0
   10.8190  -16.8924   27.7913 O   0  0  0  0  0  0  0  0  0  0  0  0
  2  1  1  0
  3  2  2  0
  4  2  1  0
  5  6  1  0
  5  4  1  0
  7  6  1  0
  8  7  1  0
  8  9  1  6
 10  8  1  0
 11 10  2  0
 12 10  1  0
 13 12  1  0
 13 14  1  1
 14 15  1  0
 15 16  1  0
 16 17  1  0
 17 18  1  0
 19 13  1  0
 20 19  2  0
 22 21  1  0
 23 22  1  6
 23 24  1  0
 24 19  1  0
 25 23  1  0
 25 27  1  0
 26 25  2  0
M  END
$$$$
