RKS.pdb
     RDKit          3D

 27 26  0  0  1  0  0  0  0  0999 V2000
    8.0640  -12.3794   18.5239 N   0  0  0  0  0  0  0  0  0  0  0  0
    8.9186  -12.5911   19.6176 C   0  0  0  0  0  0  0  0  0  0  0  0
   10.1750  -12.3104   19.5377 N   0  0  0  0  0  0  0  0  0  0  0  0
    8.4131  -13.1182   20.8305 N   0  0  0  0  0  0  0  0  0  0  0  0
    7.0760  -13.7365   20.8606 C   0  0  0  0  0  0  0  0  0  0  0  0
    7.2711  -15.1410   20.3743 C   0  0  0  0  0  0  0  0  0  0  0  0
    8.1928  -15.9113   21.2255 C   0  0  0  0  0  0  0  0  0  0  0  0
    8.3710  -17.3505   20.8524 C   0  0  2  0  0  0  0  0  0  0  0  0
    7.1887  -18.1472   20.8440 N   0  0  0  0  0  0  0  0  0  0  0  0
    9.2924  -17.9354   21.8922 C   0  0  0  0  0  0  0  0  0  0  0  0
    8.8593  -18.7586   22.7067 O   0  0  0  0  0  0  0  0  0  0  0  0
   10.8661  -12.5216   20.2803 N   0  0  0  0  0  0  0  0  0  0  0  0
   10.6511  -17.5211   21.9085 C   0  0  2  0  0  0  0  0  0  0  0  0
   11.6042  -18.3182   22.6472 C   0  0  0  0  0  0  0  0  0  0  0  0
   12.9838  -18.0686   22.0873 C   0  0  0  0  0  0  0  0  0  0  0  0
   13.9728  -18.9929   22.7092 C   0  0  0  0  0  0  0  0  0  0  0  0
   15.3681  -18.8985   22.1465 C   0  0  0  0  0  0  0  0  0  0  0  0
   16.2634  -19.8505   22.8765 N   0  0  0  0  0  0  0  0  0  0  0  0
   17.5980  -19.6930   22.3104 C   0  0  0  0  0  0  0  0  0  0  0  0
   11.4757  -18.0170   24.0731 O   0  0  0  0  0  0  0  0  0  0  0  0
   11.4219  -16.8123   24.4294 O   0  0  0  0  0  0  0  0  0  0  0  0
    9.0548  -18.8312   26.6525 C   0  0  0  0  0  0  0  0  0  0  0  0
   10.2771  -19.2437   27.1809 C   0  0  2  0  0  0  0  0  0  0  0  0
   11.4408  -18.5804   26.4666 N   0  0  0  0  0  0  0  0  0  0  0  0
   11.4069  -19.0030   25.0902 C   0  0  0  0  0  0  0  0  0  0  0  0
   12.7305  -18.9025   27.1144 O   0  0  0  0  0  0  0  0  0  0  0  0
   13.6540  -19.4599   26.4891 O   0  0  0  0  0  0  0  0  0  0  0  0
  2  1  1  0
  3  2  2  0
  4  2  1  0
  5  6  1  0
  5  4  1  0
  7  6  1  0
  8  7  1  0
  8  9  1  1
 10  8  1  0
 11 10  2  0
 12 10  1  0
 13 12  1  0
 13 14  1  6
 14 15  1  0
 15 16  1  0
 16 17  1  0
 17 18  1  0
 19 13  1  0
 20 19  2  0
 22 21  1  0
 23 22  1  6
 23 24  1  0
 24 19  1  0
 25 23  1  0
 25 27  1  0
 26 25  2  0
M  END
$$$$
