RKS.pdb
     RDKit          3D

 27 26  0  0  1  0  0  0  0  0999 V2000
   10.0579  -12.7585   20.7571 N   0  0  0  0  0  0  0  0  0  0  0  0
    9.0835  -12.7006   19.7478 C   0  0  0  0  0  0  0  0  0  0  0  0
    9.3801  -12.2728   18.5676 N   0  0  0  0  0  0  0  0  0  0  0  0
    7.7545  -13.1122   20.0104 N   0  0  0  0  0  0  0  0  0  0  0  0
    7.4009  -13.6467   21.3372 C   0  0  0  0  0  0  0  0  0  0  0  0
    7.1448  -15.1086   21.1268 C   0  0  0  0  0  0  0  0  0  0  0  0
    8.0190  -15.9602   21.9504 C   0  0  0  0  0  0  0  0  0  0  0  0
    7.8331  -17.4364   21.7813 C   0  0  2  0  0  0  0  0  0  0  0  0
    6.5012  -17.9221   21.9320 N   0  0  0  0  0  0  0  0  0  0  0  0
    8.6656  -18.0833   22.8586 C   0  0  0  0  0  0  0  0  0  0  0  0
    8.1531  -18.3657   23.9477 O   0  0  0  0  0  0  0  0  0  0  0  0
    8.6815  -12.0769   17.8279 N   0  0  0  0  0  0  0  0  0  0  0  0
   10.0338  -18.3557   22.5906 C   0  0  2  0  0  0  0  0  0  0  0  0
   10.8117  -19.0315   23.6043 C   0  0  0  0  0  0  0  0  0  0  0  0
   12.0539  -19.6021   22.9635 C   0  0  0  0  0  0  0  0  0  0  0  0
   11.8997  -21.0673   22.7434 C   0  0  0  0  0  0  0  0  0  0  0  0
   13.0661  -21.7303   22.0562 C   0  0  0  0  0  0  0  0  0  0  0  0
   12.7450  -23.1719   21.8127 N   0  0  0  0  0  0  0  0  0  0  0  0
   13.9159  -23.7633   21.1757 C   0  0  0  0  0  0  0  0  0  0  0  0
   11.0800  -18.1004   24.7005 O   0  0  0  0  0  0  0  0  0  0  0  0
   11.5876  -16.9828   24.4279 O   0  0  0  0  0  0  0  0  0  0  0  0
    9.4051  -17.7832   28.3151 C   0  0  0  0  0  0  0  0  0  0  0  0
   10.3827  -16.8881   27.8834 C   0  0  1  0  0  0  0  0  0  0  0  0
   11.4590  -17.5912   27.0763 N   0  0  0  0  0  0  0  0  0  0  0  0
   10.8026  -18.3771   26.0636 C   0  0  0  0  0  0  0  0  0  0  0  0
   12.3331  -18.4155   27.9386 O   0  0  0  0  0  0  0  0  0  0  0  0
   12.9403  -17.9256   28.9112 O   0  0  0  0  0  0  0  0  0  0  0  0
  2  1  1  0
  3  2  2  0
  4  2  1  0
  5  6  1  0
  5  4  1  0
  7  6  1  0
  8  7  1  0
  8  9  1  1
 10  8  1  0
 11 10  2  0
 12 10  1  0
 13 12  1  0
 13 14  1  6
 14 15  1  0
 15 16  1  0
 16 17  1  0
 17 18  1  0
 19 13  1  0
 20 19  2  0
 22 21  1  0
 23 22  1  6
 23 24  1  0
 24 19  1  0
 25 23  1  0
 25 27  1  0
 26 25  2  0
M  END
$$$$
