RKS.pdb
     RDKit          3D

 27 26  0  0  1  0  0  0  0  0999 V2000
    9.5235  -14.7596   14.5287 N   0  0  0  0  0  0  0  0  0  0  0  0
    8.2675  -14.3008   14.9567 C   0  0  0  0  0  0  0  0  0  0  0  0
    7.7666  -13.2104   14.4835 N   0  0  0  0  0  0  0  0  0  0  0  0
    7.5276  -15.0304   15.9184 N   0  0  0  0  0  0  0  0  0  0  0  0
    8.1591  -15.4132   17.1934 C   0  0  0  0  0  0  0  0  0  0  0  0
    8.4910  -14.1234   17.8813 C   0  0  0  0  0  0  0  0  0  0  0  0
    9.2880  -14.3228   19.1031 C   0  0  0  0  0  0  0  0  0  0  0  0
    8.8383  -15.4372   19.9965 C   0  0  2  0  0  0  0  0  0  0  0  0
    7.4521  -15.7658   19.9400 N   0  0  0  0  0  0  0  0  0  0  0  0
    9.1289  -14.9811   21.4035 C   0  0  0  0  0  0  0  0  0  0  0  0
   10.2784  -14.6544   21.7207 O   0  0  0  0  0  0  0  0  0  0  0  0
    6.8637  -12.8047   14.7899 N   0  0  0  0  0  0  0  0  0  0  0  0
    8.0611  -14.9372   22.3393 C   0  0  1  0  0  0  0  0  0  0  0  0
    8.3563  -14.5555   23.7019 C   0  0  0  0  0  0  0  0  0  0  0  0
    7.2297  -13.6947   24.2204 C   0  0  0  0  0  0  0  0  0  0  0  0
    7.5097  -13.2564   25.6163 C   0  0  0  0  0  0  0  0  0  0  0  0
    6.4590  -12.3605   26.2212 C   0  0  0  0  0  0  0  0  0  0  0  0
    6.8192  -12.0627   27.6432 N   0  0  0  0  0  0  0  0  0  0  0  0
    5.7387  -11.2511   28.1911 C   0  0  0  0  0  0  0  0  0  0  0  0
    8.5986  -15.7615   24.4941 O   0  0  0  0  0  0  0  0  0  0  0  0
    7.6182  -16.4895   24.7940 O   0  0  0  0  0  0  0  0  0  0  0  0
   11.9700  -17.8625   24.4396 C   0  0  0  0  0  0  0  0  0  0  0  0
   10.7548  -18.3888   24.8750 C   0  0  1  0  0  0  0  0  0  0  0  0
    9.9859  -17.3845   25.7143 N   0  0  0  0  0  0  0  0  0  0  0  0
    9.8783  -16.1682   24.9506 C   0  0  0  0  0  0  0  0  0  0  0  0
   10.6346  -17.1617   27.0244 O   0  0  0  0  0  0  0  0  0  0  0  0
   11.0078  -16.0276   27.3838 O   0  0  0  0  0  0  0  0  0  0  0  0
  2  1  1  0
  3  2  2  0
  4  2  1  0
  5  6  1  0
  5  4  1  0
  7  6  1  0
  8  7  1  0
  8  9  1  1
 10  8  1  0
 11 10  2  0
 12 10  1  0
 13 12  1  0
 13 14  1  1
 14 15  1  0
 15 16  1  0
 16 17  1  0
 17 18  1  0
 19 13  1  0
 20 19  2  0
 22 21  1  0
 23 22  1  6
 23 24  1  0
 24 19  1  0
 25 23  1  0
 25 27  1  0
 26 25  2  0
M  END
$$$$
