RKS.pdb
     RDKit          3D

 27 26  0  0  1  0  0  0  0  0999 V2000
    8.3078  -14.9967   17.1382 N   0  0  0  0  0  0  0  0  0  0  0  0
    8.3705  -13.6814   17.6255 C   0  0  0  0  0  0  0  0  0  0  0  0
    8.5141  -12.6848   16.8192 N   0  0  0  0  0  0  0  0  0  0  0  0
    8.2769  -13.4268   19.0151 N   0  0  0  0  0  0  0  0  0  0  0  0
    7.5149  -14.3452   19.8793 C   0  0  0  0  0  0  0  0  0  0  0  0
    7.6386  -13.7889   21.2657 C   0  0  0  0  0  0  0  0  0  0  0  0
    7.1175  -14.7069   22.2921 C   0  0  0  0  0  0  0  0  0  0  0  0
    7.3703  -16.1627   22.0492 C   0  0  2  0  0  0  0  0  0  0  0  0
    6.2209  -16.9628   21.7818 N   0  0  0  0  0  0  0  0  0  0  0  0
    7.9931  -16.6905   23.3163 C   0  0  0  0  0  0  0  0  0  0  0  0
    7.2720  -17.0589   24.2507 O   0  0  0  0  0  0  0  0  0  0  0  0
    8.5845  -11.6968   17.1233 N   0  0  0  0  0  0  0  0  0  0  0  0
    9.4095  -16.7526   23.4045 C   0  0  2  0  0  0  0  0  0  0  0  0
   10.0001  -17.3217   24.5947 C   0  0  0  0  0  0  0  0  0  0  0  0
   11.1761  -18.1784   24.1917 C   0  0  0  0  0  0  0  0  0  0  0  0
   11.7520  -18.8647   25.3819 C   0  0  0  0  0  0  0  0  0  0  0  0
   12.9577  -19.7230   25.0956 C   0  0  0  0  0  0  0  0  0  0  0  0
   13.4227  -20.3653   26.3652 N   0  0  0  0  0  0  0  0  0  0  0  0
   14.5157  -21.2623   26.0086 C   0  0  0  0  0  0  0  0  0  0  0  0
   10.3386  -16.2427   25.5230 O   0  0  0  0  0  0  0  0  0  0  0  0
   10.4315  -15.0719   25.0739 O   0  0  0  0  0  0  0  0  0  0  0  0
    9.4140  -13.3359   26.9500 C   0  0  0  0  0  0  0  0  0  0  0  0
    9.2435  -14.5644   27.5865 C   0  0  2  0  0  0  0  0  0  0  0  0
   10.5695  -15.2792   27.7737 N   0  0  0  0  0  0  0  0  0  0  0  0
   10.5709  -16.4312   26.9093 C   0  0  0  0  0  0  0  0  0  0  0  0
   10.7934  -15.6467   29.1885 O   0  0  0  0  0  0  0  0  0  0  0  0
   10.8790  -16.8375   29.5481 O   0  0  0  0  0  0  0  0  0  0  0  0
  2  1  1  0
  3  2  2  0
  4  2  1  0
  5  6  1  0
  5  4  1  0
  7  6  1  0
  8  7  1  0
  8  9  1  1
 10  8  1  0
 11 10  2  0
 12 10  1  0
 13 12  1  0
 13 14  1  6
 14 15  1  0
 15 16  1  0
 16 17  1  0
 17 18  1  0
 19 13  1  0
 20 19  2  0
 22 21  1  0
 23 22  1  6
 23 24  1  0
 24 19  1  0
 25 23  1  0
 25 27  1  0
 26 25  2  0
M  END
$$$$
