RKS.pdb
     RDKit          3D

 27 26  0  0  1  0  0  0  0  0999 V2000
    7.3793  -12.5344   17.9349 N   0  0  0  0  0  0  0  0  0  0  0  0
    7.7996  -13.6180   17.1470 C   0  0  0  0  0  0  0  0  0  0  0  0
    8.3707  -13.4230   16.0070 N   0  0  0  0  0  0  0  0  0  0  0  0
    7.6023  -14.9472   17.5928 N   0  0  0  0  0  0  0  0  0  0  0  0
    6.9990  -15.1957   18.9139 C   0  0  0  0  0  0  0  0  0  0  0  0
    7.6472  -14.2145   19.8434 C   0  0  0  0  0  0  0  0  0  0  0  0
    8.7887  -14.7936   20.5709 C   0  0  0  0  0  0  0  0  0  0  0  0
    8.4521  -15.8728   21.5530 C   0  0  2  0  0  0  0  0  0  0  0  0
    7.2576  -15.6833   22.3080 N   0  0  0  0  0  0  0  0  0  0  0  0
    9.5958  -15.9091   22.5342 C   0  0  0  0  0  0  0  0  0  0  0  0
   10.2550  -14.8858   22.7510 O   0  0  0  0  0  0  0  0  0  0  0  0
    8.6187  -14.1798   15.3443 N   0  0  0  0  0  0  0  0  0  0  0  0
    9.8893  -17.1330   23.1929 C   0  0  2  0  0  0  0  0  0  0  0  0
   11.1013  -17.2191   23.9759 C   0  0  0  0  0  0  0  0  0  0  0  0
   11.0745  -18.5006   24.7736 C   0  0  0  0  0  0  0  0  0  0  0  0
   12.2223  -18.5472   25.7221 C   0  0  0  0  0  0  0  0  0  0  0  0
   12.2293  -19.7357   26.6493 C   0  0  0  0  0  0  0  0  0  0  0  0
   13.4500  -19.6837   27.5140 N   0  0  0  0  0  0  0  0  0  0  0  0
   13.3301  -20.7704   28.4790 C   0  0  0  0  0  0  0  0  0  0  0  0
   12.2554  -17.0950   23.0852 O   0  0  0  0  0  0  0  0  0  0  0  0
   12.0943  -17.3226   21.8592 O   0  0  0  0  0  0  0  0  0  0  0  0
   14.9142  -14.6597   20.8616 C   0  0  0  0  0  0  0  0  0  0  0  0
   13.9821  -15.1587   21.7701 C   0  0  1  0  0  0  0  0  0  0  0  0
   14.5328  -16.3532   22.5280 N   0  0  0  0  0  0  0  0  0  0  0  0
   13.5564  -16.7312   23.5169 C   0  0  0  0  0  0  0  0  0  0  0  0
   15.8482  -16.0529   23.1332 O   0  0  0  0  0  0  0  0  0  0  0  0
   16.0036  -16.0102   24.3696 O   0  0  0  0  0  0  0  0  0  0  0  0
  2  1  1  0
  3  2  2  0
  4  2  1  0
  5  6  1  0
  5  4  1  0
  7  6  1  0
  8  7  1  0
  8  9  1  1
 10  8  1  0
 11 10  2  0
 12 10  1  0
 13 12  1  0
 13 14  1  6
 14 15  1  0
 15 16  1  0
 16 17  1  0
 17 18  1  0
 19 13  1  0
 20 19  2  0
 22 21  1  0
 23 22  1  6
 23 24  1  0
 24 19  1  0
 25 23  1  0
 25 27  1  0
 26 25  2  0
M  END
$$$$
