RKS.pdb
     RDKit          3D

 27 26  0  0  1  0  0  0  0  0999 V2000
    7.1733  -13.2180   20.0538 N   0  0  0  0  0  0  0  0  0  0  0  0
    8.3724  -12.8213   19.4404 C   0  0  0  0  0  0  0  0  0  0  0  0
    8.5865  -11.5833   19.1486 N   0  0  0  0  0  0  0  0  0  0  0  0
    9.3695  -13.7776   19.1308 N   0  0  0  0  0  0  0  0  0  0  0  0
    8.9973  -15.1910   18.9438 C   0  0  0  0  0  0  0  0  0  0  0  0
    8.7556  -15.7292   20.3217 C   0  0  0  0  0  0  0  0  0  0  0  0
    9.6683  -16.8319   20.6664 C   0  0  0  0  0  0  0  0  0  0  0  0
    9.1904  -17.7578   21.7417 C   0  0  2  0  0  0  0  0  0  0  0  0
    7.7937  -18.0440   21.7477 N   0  0  0  0  0  0  0  0  0  0  0  0
    9.5085  -17.0738   23.0468 C   0  0  0  0  0  0  0  0  0  0  0  0
   10.6544  -16.6638   23.2647 O   0  0  0  0  0  0  0  0  0  0  0  0
    9.4479  -11.2348   18.6901 N   0  0  0  0  0  0  0  0  0  0  0  0
    8.4704  -16.9154   24.0033 C   0  0  1  0  0  0  0  0  0  0  0  0
    8.8032  -16.3529   25.2926 C   0  0  0  0  0  0  0  0  0  0  0  0
    7.6411  -15.5176   25.7731 C   0  0  0  0  0  0  0  0  0  0  0  0
    7.9315  -14.0679   25.5900 C   0  0  0  0  0  0  0  0  0  0  0  0
    6.8353  -13.1402   26.0482 C   0  0  0  0  0  0  0  0  0  0  0  0
    7.2501  -11.7228   25.8043 N   0  0  0  0  0  0  0  0  0  0  0  0
    6.1499  -10.8778   26.2538 C   0  0  0  0  0  0  0  0  0  0  0  0
    9.1772  -17.4348   26.2038 O   0  0  0  0  0  0  0  0  0  0  0  0
    8.5391  -18.5166   26.1446 O   0  0  0  0  0  0  0  0  0  0  0  0
   12.4849  -18.9136   26.7976 C   0  0  0  0  0  0  0  0  0  0  0  0
   11.2936  -19.4763   27.2530 C   0  0  1  0  0  0  0  0  0  0  0  0
   10.4652  -18.4667   28.0269 N   0  0  0  0  0  0  0  0  0  0  0  0
   10.2219  -17.3437   27.1586 C   0  0  0  0  0  0  0  0  0  0  0  0
   11.1346  -18.0630   29.2821 O   0  0  0  0  0  0  0  0  0  0  0  0
   11.3732  -16.8665   29.5393 O   0  0  0  0  0  0  0  0  0  0  0  0
  2  1  1  0
  3  2  2  0
  4  2  1  0
  5  6  1  0
  5  4  1  0
  7  6  1  0
  8  7  1  0
  8  9  1  6
 10  8  1  0
 11 10  2  0
 12 10  1  0
 13 12  1  0
 13 14  1  1
 14 15  1  0
 15 16  1  0
 16 17  1  0
 17 18  1  0
 19 13  1  0
 20 19  2  0
 22 21  1  0
 23 22  1  6
 23 24  1  0
 24 19  1  0
 25 23  1  0
 25 27  1  0
 26 25  2  0
M  END
$$$$
