RKS.pdb
     RDKit          3D

 27 26  0  0  1  0  0  0  0  0999 V2000
    7.0567  -16.2023   15.4563 N   0  0  0  0  0  0  0  0  0  0  0  0
    8.2833  -15.8052   14.9003 C   0  0  0  0  0  0  0  0  0  0  0  0
    8.5743  -16.0851   13.6752 N   0  0  0  0  0  0  0  0  0  0  0  0
    9.2242  -15.0884   15.6784 N   0  0  0  0  0  0  0  0  0  0  0  0
    8.7774  -14.3484   16.8716 C   0  0  0  0  0  0  0  0  0  0  0  0
    7.8026  -15.2524   17.5640 C   0  0  0  0  0  0  0  0  0  0  0  0
    7.7915  -15.0602   19.0237 C   0  0  0  0  0  0  0  0  0  0  0  0
    7.9339  -13.6453   19.4929 C   0  0  2  0  0  0  0  0  0  0  0  0
    8.8745  -12.8414   18.7845 N   0  0  0  0  0  0  0  0  0  0  0  0
    8.4095  -13.7299   20.9208 C   0  0  0  0  0  0  0  0  0  0  0  0
    9.6123  -13.8839   21.1619 O   0  0  0  0  0  0  0  0  0  0  0  0
    9.4600  -15.8131   13.2115 N   0  0  0  0  0  0  0  0  0  0  0  0
    7.4516  -13.6282   21.9648 C   0  0  1  0  0  0  0  0  0  0  0  0
    7.9166  -13.6815   23.3324 C   0  0  0  0  0  0  0  0  0  0  0  0
    6.8154  -13.1882   24.2397 C   0  0  0  0  0  0  0  0  0  0  0  0
    7.2817  -13.1566   25.6542 C   0  0  0  0  0  0  0  0  0  0  0  0
    6.4982  -12.2397   26.5585 C   0  0  0  0  0  0  0  0  0  0  0  0
    7.0491  -12.3228   27.9478 N   0  0  0  0  0  0  0  0  0  0  0  0
    6.2367  -11.4406   28.7774 C   0  0  0  0  0  0  0  0  0  0  0  0
    8.3710  -15.0400   23.6299 O   0  0  0  0  0  0  0  0  0  0  0  0
    7.8794  -15.9941   22.9750 O   0  0  0  0  0  0  0  0  0  0  0  0
   11.2075  -18.2883   23.5832 C   0  0  0  0  0  0  0  0  0  0  0  0
   10.5801  -17.0479   23.4773 C   0  0  1  0  0  0  0  0  0  0  0  0
    9.7917  -16.7178   24.7318 N   0  0  0  0  0  0  0  0  0  0  0  0
    9.3389  -15.3554   24.6175 C   0  0  0  0  0  0  0  0  0  0  0  0
   10.5979  -16.9341   25.9525 O   0  0  0  0  0  0  0  0  0  0  0  0
   10.8493  -16.0028   26.7424 O   0  0  0  0  0  0  0  0  0  0  0  0
  2  1  1  0
  3  2  2  0
  4  2  1  0
  5  6  1  0
  5  4  1  0
  7  6  1  0
  8  7  1  0
  8  9  1  6
 10  8  1  0
 11 10  2  0
 12 10  1  0
 13 12  1  0
 13 14  1  1
 14 15  1  0
 15 16  1  0
 16 17  1  0
 17 18  1  0
 19 13  1  0
 20 19  2  0
 22 21  1  0
 23 22  1  6
 23 24  1  0
 24 19  1  0
 25 23  1  0
 25 27  1  0
 26 25  2  0
M  END
$$$$
