RKS.pdb
     RDKit          3D

 27 26  0  0  1  0  0  0  0  0999 V2000
    9.3336  -14.8585   16.9438 N   0  0  0  0  0  0  0  0  0  0  0  0
    8.1978  -14.2370   16.4005 C   0  0  0  0  0  0  0  0  0  0  0  0
    8.2279  -13.7253   15.2168 N   0  0  0  0  0  0  0  0  0  0  0  0
    6.9966  -14.1615   17.1461 N   0  0  0  0  0  0  0  0  0  0  0  0
    6.9006  -14.8364   18.4524 C   0  0  0  0  0  0  0  0  0  0  0  0
    7.0982  -13.7601   19.4769 C   0  0  0  0  0  0  0  0  0  0  0  0
    7.0317  -14.2725   20.8555 C   0  0  0  0  0  0  0  0  0  0  0  0
    8.3043  -14.8474   21.3962 C   0  0  2  0  0  0  0  0  0  0  0  0
    8.7501  -16.0605   20.7942 N   0  0  0  0  0  0  0  0  0  0  0  0
    8.0379  -15.1454   22.8496 C   0  0  0  0  0  0  0  0  0  0  0  0
    7.5558  -14.2718   23.5798 O   0  0  0  0  0  0  0  0  0  0  0  0
    7.4543  -13.1750   14.8018 N   0  0  0  0  0  0  0  0  0  0  0  0
    8.3505  -16.4383   23.3481 C   0  0  1  0  0  0  0  0  0  0  0  0
    8.0608  -16.7295   24.7340 C   0  0  0  0  0  0  0  0  0  0  0  0
    8.0361  -18.2274   24.9209 C   0  0  0  0  0  0  0  0  0  0  0  0
    7.8338  -18.5693   26.3567 C   0  0  0  0  0  0  0  0  0  0  0  0
    7.7147  -20.0441   26.6453 C   0  0  0  0  0  0  0  0  0  0  0  0
    7.5953  -20.2528   28.1228 N   0  0  0  0  0  0  0  0  0  0  0  0
    7.6255  -21.6930   28.3492 C   0  0  0  0  0  0  0  0  0  0  0  0
    9.0336  -16.0387   25.5808 O   0  0  0  0  0  0  0  0  0  0  0  0
   10.2576  -16.2420   25.3773 O   0  0  0  0  0  0  0  0  0  0  0  0
    8.1136  -12.8996   27.9557 C   0  0  0  0  0  0  0  0  0  0  0  0
    9.4538  -13.1288   27.6479 C   0  0  1  0  0  0  0  0  0  0  0  0
    9.7320  -14.6086   27.4555 N   0  0  0  0  0  0  0  0  0  0  0  0
    8.6844  -15.1460   26.6261 C   0  0  0  0  0  0  0  0  0  0  0  0
    9.8320  -15.3153   28.7507 O   0  0  0  0  0  0  0  0  0  0  0  0
    9.0971  -16.2847   29.0241 O   0  0  0  0  0  0  0  0  0  0  0  0
  2  1  1  0
  3  2  2  0
  4  2  1  0
  5  6  1  0
  5  4  1  0
  7  6  1  0
  8  7  1  0
  8  9  1  6
 10  8  1  0
 11 10  2  0
 12 10  1  0
 13 12  1  0
 13 14  1  1
 14 15  1  0
 15 16  1  0
 16 17  1  0
 17 18  1  0
 19 13  1  0
 20 19  2  0
 22 21  1  0
 23 22  1  6
 23 24  1  0
 24 19  1  0
 25 23  1  0
 25 27  1  0
 26 25  2  0
M  END
$$$$
