VFQ.pdb
     RDKit          3D

 28 28  0  0  1  0  0  0  0  0999 V2000
    8.0561  -17.6626   17.7469 C   0  0  0  0  0  0  0  0  0  0  0  0
    8.4632  -16.7767   18.8680 C   0  0  2  0  0  0  0  0  0  0  0  0
    9.6562  -15.9525   18.4358 C   0  0  0  0  0  0  0  0  0  0  0  0
    8.6558  -17.4273   20.1952 C   0  0  2  0  0  0  0  0  0  0  0  0
    7.4449  -18.2230   20.4785 N   0  0  0  0  0  0  0  0  0  0  0  0
    8.9024  -16.4902   21.3201 C   0  0  0  0  0  0  0  0  0  0  0  0
   10.0864  -16.0532   21.5534 O   0  0  0  0  0  0  0  0  0  0  0  0
    7.9006  -16.0173   22.1914 N   0  0  0  0  0  0  0  0  0  0  0  0
    8.1577  -15.1964   23.3610 C   0  0  1  0  0  0  0  0  0  0  0  0
    6.9739  -14.3349   23.6965 C   0  0  0  0  0  0  0  0  0  0  0  0
    7.0918  -13.5981   24.9505 C   0  0  0  0  0  0  0  0  0  0  0  0
    6.5949  -13.9943   26.1663 C   0  0  0  0  0  0  0  0  0  0  0  0
    6.7492  -13.2267   27.3248 C   0  0  0  0  0  0  0  0  0  0  0  0
    7.4221  -12.0254   27.2638 C   0  0  0  0  0  0  0  0  0  0  0  0
    7.9367  -11.5966   26.0491 C   0  0  0  0  0  0  0  0  0  0  0  0
    7.7648  -12.3805   24.9278 C   0  0  0  0  0  0  0  0  0  0  0  0
    8.7142  -15.9664   24.4690 C   0  0  0  0  0  0  0  0  0  0  0  0
    8.0737  -17.0033   24.8557 O   0  0  0  0  0  0  0  0  0  0  0  0
   13.9107  -16.9671   23.2439 N   0  0  0  0  0  0  0  0  0  0  0  0
   14.0460  -16.2666   24.4568 C   0  0  0  0  0  0  0  0  0  0  0  0
   15.1820  -15.9843   24.8846 O   0  0  0  0  0  0  0  0  0  0  0  0
   12.8253  -15.8720   25.2130 C   0  0  0  0  0  0  0  0  0  0  0  0
   11.8947  -17.0419   25.3895 C   0  0  0  0  0  0  0  0  0  0  0  0
   10.5948  -16.6418   26.0245 C   0  0  2  0  0  0  0  0  0  0  0  0
    9.8936  -15.6738   25.1516 N   0  0  0  0  0  0  0  0  0  0  0  0
   10.7266  -16.0882   27.3807 C   0  0  0  0  0  0  0  0  0  0  0  0
   11.2916  -16.7932   28.4489 O   0  0  0  0  0  0  0  0  0  0  0  0
   10.3285  -14.9345   27.6429 O   0  0  0  0  0  0  0  0  0  0  0  0
  2  1  1  6
  3  2  1  0
  4  2  1  0
  4  5  1  1
  6  4  1  0
  7  6  2  0
  8  6  1  0
  9  8  1  0
  9 10  1  1
 10 11  1  0
 11 16  2  0
 12 11  1  0
 12 13  2  0
 13 14  1  0
 14 15  2  0
 16 15  1  0
 17 18  2  0
 17  9  1  0
 20 22  1  0
 20 19  1  0
 21 20  2  0
 24 23  1  6
 23 22  1  0
 24 25  1  0
 25 17  1  0
 26 24  1  0
 27 26  1  0
 28 26  2  0
M  END
$$$$
