VFQ.pdb
     RDKit          3D

 28 28  0  0  1  0  0  0  0  0999 V2000
    6.5360  -14.6524   20.0654 C   0  0  0  0  0  0  0  0  0  0  0  0
    7.3638  -15.7756   19.5550 C   0  0  2  0  0  0  0  0  0  0  0  0
    6.5886  -16.5113   18.4839 C   0  0  0  0  0  0  0  0  0  0  0  0
    7.9526  -16.6873   20.5767 C   0  0  2  0  0  0  0  0  0  0  0  0
    6.8759  -17.5823   21.0449 N   0  0  0  0  0  0  0  0  0  0  0  0
    8.5660  -16.0043   21.7437 C   0  0  0  0  0  0  0  0  0  0  0  0
    9.6565  -15.3412   21.6083 O   0  0  0  0  0  0  0  0  0  0  0  0
    8.0264  -16.0218   23.0455 N   0  0  0  0  0  0  0  0  0  0  0  0
    8.6679  -15.4235   24.2025 C   0  0  1  0  0  0  0  0  0  0  0  0
    7.6562  -14.9636   25.2130 C   0  0  0  0  0  0  0  0  0  0  0  0
    8.2168  -14.2517   26.3567 C   0  0  0  0  0  0  0  0  0  0  0  0
    8.2648  -12.8894   26.5117 C   0  0  0  0  0  0  0  0  0  0  0  0
    8.8230  -12.2832   27.6414 C   0  0  0  0  0  0  0  0  0  0  0  0
    9.3492  -13.0655   28.6467 C   0  0  0  0  0  0  0  0  0  0  0  0
    9.3160  -14.4464   28.5201 C   0  0  0  0  0  0  0  0  0  0  0  0
    8.7574  -15.0084   27.3916 C   0  0  0  0  0  0  0  0  0  0  0  0
    9.7536  -16.2476   24.7241 C   0  0  0  0  0  0  0  0  0  0  0  0
    9.5319  -17.4971   24.8803 O   0  0  0  0  0  0  0  0  0  0  0  0
   16.9363  -16.9589   23.5856 N   0  0  0  0  0  0  0  0  0  0  0  0
   15.6808  -16.3246   23.6217 C   0  0  0  0  0  0  0  0  0  0  0  0
   15.5137  -15.2488   23.0149 O   0  0  0  0  0  0  0  0  0  0  0  0
   14.5674  -16.9507   24.3872 C   0  0  0  0  0  0  0  0  0  0  0  0
   13.3476  -16.0688   24.3897 C   0  0  0  0  0  0  0  0  0  0  0  0
   12.2112  -16.6748   25.1605 C   0  0  2  0  0  0  0  0  0  0  0  0
   11.0252  -15.7940   25.0703 N   0  0  0  0  0  0  0  0  0  0  0  0
   12.5172  -16.9588   26.5708 C   0  0  0  0  0  0  0  0  0  0  0  0
   13.2756  -18.0579   26.9882 O   0  0  0  0  0  0  0  0  0  0  0  0
   12.1014  -16.2109   27.4795 O   0  0  0  0  0  0  0  0  0  0  0  0
  2  1  1  1
  3  2  1  0
  4  2  1  0
  4  5  1  1
  6  4  1  0
  7  6  2  0
  8  6  1  0
  9  8  1  0
  9 10  1  1
 10 11  1  0
 11 16  2  0
 12 11  1  0
 12 13  2  0
 13 14  1  0
 14 15  2  0
 16 15  1  0
 17 18  2  0
 17  9  1  0
 20 22  1  0
 20 19  1  0
 21 20  2  0
 24 23  1  1
 23 22  1  0
 24 25  1  0
 25 17  1  0
 26 24  1  0
 27 26  1  0
 28 26  2  0
M  END
$$$$
