VFQ.pdb
     RDKit          3D

 28 28  0  0  1  0  0  0  0  0999 V2000
    9.5405  -19.0175   20.8286 C   0  0  0  0  0  0  0  0  0  0  0  0
    8.6827  -18.0760   20.0636 C   0  0  2  0  0  0  0  0  0  0  0  0
    8.3954  -18.6682   18.7011 C   0  0  0  0  0  0  0  0  0  0  0  0
    9.1427  -16.6598   19.9969 C   0  0  2  0  0  0  0  0  0  0  0  0
   10.4609  -16.6528   19.3322 N   0  0  0  0  0  0  0  0  0  0  0  0
    9.2511  -15.9759   21.3103 C   0  0  0  0  0  0  0  0  0  0  0  0
   10.3628  -15.9745   21.9517 O   0  0  0  0  0  0  0  0  0  0  0  0
    8.1890  -15.2960   21.9395 N   0  0  0  0  0  0  0  0  0  0  0  0
    8.2553  -14.7418   23.2798 C   0  0  1  0  0  0  0  0  0  0  0  0
    7.1589  -13.7423   23.5142 C   0  0  0  0  0  0  0  0  0  0  0  0
    7.0710  -13.2432   24.8825 C   0  0  0  0  0  0  0  0  0  0  0  0
    6.2038  -13.6891   25.8475 C   0  0  0  0  0  0  0  0  0  0  0  0
    6.1814  -13.1548   27.1395 C   0  0  0  0  0  0  0  0  0  0  0  0
    7.0546  -12.1426   27.4753 C   0  0  0  0  0  0  0  0  0  0  0  0
    7.9442  -11.6695   26.5220 C   0  0  0  0  0  0  0  0  0  0  0  0
    7.9371  -12.2210   25.2582 C   0  0  0  0  0  0  0  0  0  0  0  0
    8.3996  -15.7740   24.3016 C   0  0  0  0  0  0  0  0  0  0  0  0
    7.4204  -16.5763   24.4812 O   0  0  0  0  0  0  0  0  0  0  0  0
   11.8974  -20.2033   24.5375 N   0  0  0  0  0  0  0  0  0  0  0  0
   12.4884  -18.9266   24.5139 C   0  0  0  0  0  0  0  0  0  0  0  0
   13.6205  -18.7782   24.0141 O   0  0  0  0  0  0  0  0  0  0  0  0
   11.7494  -17.7684   25.0884 C   0  0  0  0  0  0  0  0  0  0  0  0
   10.3974  -18.1875   25.6002 C   0  0  0  0  0  0  0  0  0  0  0  0
    9.6103  -17.0281   26.1383 C   0  0  2  0  0  0  0  0  0  0  0  0
    9.5194  -15.9695   25.1080 N   0  0  0  0  0  0  0  0  0  0  0  0
   10.1386  -16.4642   27.3898 C   0  0  0  0  0  0  0  0  0  0  0  0
   10.5101  -15.1231   27.5339 O   0  0  0  0  0  0  0  0  0  0  0  0
   10.2822  -17.1783   28.4035 O   0  0  0  0  0  0  0  0  0  0  0  0
  2  1  1  6
  3  2  1  0
  4  2  1  0
  4  5  1  1
  6  4  1  0
  7  6  2  0
  8  6  1  0
  9  8  1  0
  9 10  1  1
 10 11  1  0
 11 16  2  0
 12 11  1  0
 12 13  2  0
 13 14  1  0
 14 15  2  0
 16 15  1  0
 17 18  2  0
 17  9  1  0
 20 22  1  0
 20 19  1  0
 21 20  2  0
 24 23  1  6
 23 22  1  0
 24 25  1  0
 25 17  1  0
 26 24  1  0
 27 26  1  0
 28 26  2  0
M  END
$$$$
