VFQ.pdb
     RDKit          3D

 28 28  0  0  1  0  0  0  0  0999 V2000
    8.4963  -19.4320   19.5282 C   0  0  0  0  0  0  0  0  0  0  0  0
    8.6156  -18.4950   20.6750 C   0  0  2  0  0  0  0  0  0  0  0  0
    7.6878  -18.9495   21.7805 C   0  0  0  0  0  0  0  0  0  0  0  0
    8.4838  -17.0429   20.3654 C   0  0  2  0  0  0  0  0  0  0  0  0
    9.4713  -16.7222   19.3158 N   0  0  0  0  0  0  0  0  0  0  0  0
    8.6863  -16.1365   21.5239 C   0  0  0  0  0  0  0  0  0  0  0  0
    9.8715  -15.8206   21.9015 O   0  0  0  0  0  0  0  0  0  0  0  0
    7.6397  -15.5668   22.2764 N   0  0  0  0  0  0  0  0  0  0  0  0
    7.8364  -14.7661   23.4715 C   0  0  1  0  0  0  0  0  0  0  0  0
    6.6191  -13.9448   23.7870 C   0  0  0  0  0  0  0  0  0  0  0  0
    6.7302  -13.1273   24.9906 C   0  0  0  0  0  0  0  0  0  0  0  0
    6.0637  -13.3383   26.1710 C   0  0  0  0  0  0  0  0  0  0  0  0
    6.2246  -12.5043   27.2817 C   0  0  0  0  0  0  0  0  0  0  0  0
    7.0794  -11.4256   27.2078 C   0  0  0  0  0  0  0  0  0  0  0  0
    7.7682  -11.1849   26.0282 C   0  0  0  0  0  0  0  0  0  0  0  0
    7.5840  -12.0293   24.9536 C   0  0  0  0  0  0  0  0  0  0  0  0
    8.3783  -15.5458   24.5799 C   0  0  0  0  0  0  0  0  0  0  0  0
    8.6780  -14.9239   25.6561 O   0  0  0  0  0  0  0  0  0  0  0  0
    6.8075  -21.1806   24.6267 N   0  0  0  0  0  0  0  0  0  0  0  0
    6.3938  -20.4197   25.7356 C   0  0  0  0  0  0  0  0  0  0  0  0
    5.5512  -20.8865   26.5264 O   0  0  0  0  0  0  0  0  0  0  0  0
    6.9713  -19.0635   25.9478 C   0  0  0  0  0  0  0  0  0  0  0  0
    8.4593  -19.0660   25.7212 C   0  0  0  0  0  0  0  0  0  0  0  0
    9.0419  -17.6833   25.7644 C   0  0  2  0  0  0  0  0  0  0  0  0
    8.6006  -16.9217   24.5746 N   0  0  0  0  0  0  0  0  0  0  0  0
   10.5087  -17.6454   25.8669 C   0  0  0  0  0  0  0  0  0  0  0  0
   11.3264  -16.9574   24.9638 O   0  0  0  0  0  0  0  0  0  0  0  0
   11.1018  -18.2421   26.7889 O   0  0  0  0  0  0  0  0  0  0  0  0
  2  1  1  6
  3  2  1  0
  4  2  1  0
  4  5  1  6
  6  4  1  0
  7  6  2  0
  8  6  1  0
  9  8  1  0
  9 10  1  1
 10 11  1  0
 11 16  2  0
 12 11  1  0
 12 13  2  0
 13 14  1  0
 14 15  2  0
 16 15  1  0
 17 18  2  0
 17  9  1  0
 20 22  1  0
 20 19  1  0
 21 20  2  0
 24 23  1  6
 23 22  1  0
 24 25  1  0
 25 17  1  0
 26 24  1  0
 27 26  1  0
 28 26  2  0
M  END
$$$$
