VFQ.pdb
     RDKit          3D

 28 28  0  0  1  0  0  0  0  0999 V2000
   10.5053  -19.0944   20.9600 C   0  0  0  0  0  0  0  0  0  0  0  0
    9.0408  -19.0414   20.7158 C   0  0  2  0  0  0  0  0  0  0  0  0
    8.6838  -20.0479   19.6440 C   0  0  0  0  0  0  0  0  0  0  0  0
    8.4553  -17.6936   20.4661 C   0  0  2  0  0  0  0  0  0  0  0  0
    9.0182  -17.1943   19.1959 N   0  0  0  0  0  0  0  0  0  0  0  0
    8.7027  -16.6969   21.5385 C   0  0  0  0  0  0  0  0  0  0  0  0
    9.8350  -16.0982   21.6198 O   0  0  0  0  0  0  0  0  0  0  0  0
    7.7557  -16.3351   22.5176 N   0  0  0  0  0  0  0  0  0  0  0  0
    8.0480  -15.4924   23.6632 C   0  0  1  0  0  0  0  0  0  0  0  0
    6.7887  -14.9821   24.3034 C   0  0  0  0  0  0  0  0  0  0  0  0
    6.9992  -14.1315   25.4701 C   0  0  0  0  0  0  0  0  0  0  0  0
    7.2033  -14.5649   26.7556 C   0  0  0  0  0  0  0  0  0  0  0  0
    7.3959  -13.6816   27.8224 C   0  0  0  0  0  0  0  0  0  0  0  0
    7.3837  -12.3224   27.5946 C   0  0  0  0  0  0  0  0  0  0  0  0
    7.1798  -11.8520   26.3057 C   0  0  0  0  0  0  0  0  0  0  0  0
    6.9935  -12.7532   25.2789 C   0  0  0  0  0  0  0  0  0  0  0  0
    9.0162  -16.1024   24.5693 C   0  0  0  0  0  0  0  0  0  0  0  0
    8.8212  -17.3160   24.9213 O   0  0  0  0  0  0  0  0  0  0  0  0
   14.9258  -15.2335   23.7789 N   0  0  0  0  0  0  0  0  0  0  0  0
   15.0000  -16.1490   24.8450 C   0  0  0  0  0  0  0  0  0  0  0  0
   16.1052  -16.6139   25.1852 O   0  0  0  0  0  0  0  0  0  0  0  0
   13.7524  -16.5495   25.5525 C   0  0  0  0  0  0  0  0  0  0  0  0
   12.5581  -15.8160   25.0036 C   0  0  0  0  0  0  0  0  0  0  0  0
   11.2839  -16.2127   25.6907 C   0  0  2  0  0  0  0  0  0  0  0  0
   10.1476  -15.4779   25.0911 N   0  0  0  0  0  0  0  0  0  0  0  0
   11.2934  -16.0163   27.1483 C   0  0  0  0  0  0  0  0  0  0  0  0
   10.5738  -15.0051   27.7940 O   0  0  0  0  0  0  0  0  0  0  0  0
   11.9626  -16.7640   27.8907 O   0  0  0  0  0  0  0  0  0  0  0  0
  2  1  1  6
  3  2  1  0
  4  2  1  0
  4  5  1  6
  6  4  1  0
  7  6  2  0
  8  6  1  0
  9  8  1  0
  9 10  1  1
 10 11  1  0
 11 16  2  0
 12 11  1  0
 12 13  2  0
 13 14  1  0
 14 15  2  0
 16 15  1  0
 17 18  2  0
 17  9  1  0
 20 22  1  0
 20 19  1  0
 21 20  2  0
 24 23  1  6
 23 22  1  0
 24 25  1  0
 25 17  1  0
 26 24  1  0
 27 26  1  0
 28 26  2  0
M  END
$$$$
