VFQ.pdb
     RDKit          3D

 28 28  0  0  1  0  0  0  0  0999 V2000
    7.2467  -12.8229   19.3355 C   0  0  0  0  0  0  0  0  0  0  0  0
    8.2969  -13.7545   18.8494 C   0  0  2  0  0  0  0  0  0  0  0  0
    7.9753  -14.1601   17.4275 C   0  0  0  0  0  0  0  0  0  0  0  0
    8.6156  -14.9160   19.7275 C   0  0  2  0  0  0  0  0  0  0  0  0
    7.5204  -15.8952   19.5819 N   0  0  0  0  0  0  0  0  0  0  0  0
    8.7897  -14.5835   21.1640 C   0  0  0  0  0  0  0  0  0  0  0  0
    9.8568  -13.9973   21.5700 O   0  0  0  0  0  0  0  0  0  0  0  0
    7.8384  -14.8684   22.1641 N   0  0  0  0  0  0  0  0  0  0  0  0
    8.0344  -14.5983   23.5771 C   0  0  1  0  0  0  0  0  0  0  0  0
    6.7606  -14.1422   24.2295 C   0  0  0  0  0  0  0  0  0  0  0  0
    6.9047  -13.7178   25.6181 C   0  0  0  0  0  0  0  0  0  0  0  0
    6.9613  -14.5455   26.7107 C   0  0  0  0  0  0  0  0  0  0  0  0
    7.0989  -14.0576   28.0139 C   0  0  0  0  0  0  0  0  0  0  0  0
    7.1823  -12.6988   28.2293 C   0  0  0  0  0  0  0  0  0  0  0  0
    7.1282  -11.8351   27.1453 C   0  0  0  0  0  0  0  0  0  0  0  0
    6.9920  -12.3530   25.8746 C   0  0  0  0  0  0  0  0  0  0  0  0
    8.7416  -15.6791   24.2567 C   0  0  0  0  0  0  0  0  0  0  0  0
    8.2554  -16.8583   24.1680 O   0  0  0  0  0  0  0  0  0  0  0  0
   13.8495  -15.2548   23.6967 N   0  0  0  0  0  0  0  0  0  0  0  0
   13.5061  -16.5666   23.3209 C   0  0  0  0  0  0  0  0  0  0  0  0
   13.9911  -17.0601   22.2844 O   0  0  0  0  0  0  0  0  0  0  0  0
   12.5650  -17.3476   24.1707 C   0  0  0  0  0  0  0  0  0  0  0  0
   12.1064  -16.5402   25.3554 C   0  0  0  0  0  0  0  0  0  0  0  0
   10.6335  -16.6862   25.6053 C   0  0  2  0  0  0  0  0  0  0  0  0
    9.9123  -15.5438   25.0007 N   0  0  0  0  0  0  0  0  0  0  0  0
   10.2681  -16.8140   27.0243 C   0  0  0  0  0  0  0  0  0  0  0  0
   10.3866  -18.0068   27.7458 O   0  0  0  0  0  0  0  0  0  0  0  0
    9.8243  -15.8369   27.6617 O   0  0  0  0  0  0  0  0  0  0  0  0
  2  1  1  1
  3  2  1  0
  4  2  1  0
  4  5  1  1
  6  4  1  0
  7  6  2  0
  8  6  1  0
  9  8  1  0
  9 10  1  1
 10 11  1  0
 11 16  2  0
 12 11  1  0
 12 13  2  0
 13 14  1  0
 14 15  2  0
 16 15  1  0
 17 18  2  0
 17  9  1  0
 20 22  1  0
 20 19  1  0
 21 20  2  0
 24 23  1  1
 23 22  1  0
 24 25  1  0
 25 17  1  0
 26 24  1  0
 27 26  1  0
 28 26  2  0
M  END
$$$$
