VFQ.pdb
     RDKit          3D

 28 28  0  0  1  0  0  0  0  0999 V2000
   10.9130  -18.8019   21.3813 C   0  0  0  0  0  0  0  0  0  0  0  0
    9.6922  -18.3288   20.6789 C   0  0  2  0  0  0  0  0  0  0  0  0
    9.4830  -19.1672   19.4368 C   0  0  0  0  0  0  0  0  0  0  0  0
    9.6010  -16.8647   20.4145 C   0  0  2  0  0  0  0  0  0  0  0  0
   10.7151  -16.5067   19.5145 N   0  0  0  0  0  0  0  0  0  0  0  0
    9.6525  -16.0071   21.6255 C   0  0  0  0  0  0  0  0  0  0  0  0
   10.7782  -15.5848   22.0744 O   0  0  0  0  0  0  0  0  0  0  0  0
    8.5184  -15.5978   22.3552 N   0  0  0  0  0  0  0  0  0  0  0  0
    8.5726  -14.8052   23.5705 C   0  0  1  0  0  0  0  0  0  0  0  0
    7.2902  -14.0558   23.7934 C   0  0  0  0  0  0  0  0  0  0  0  0
    7.2376  -13.2934   25.0365 C   0  0  0  0  0  0  0  0  0  0  0  0
    8.0671  -12.2561   25.3798 C   0  0  0  0  0  0  0  0  0  0  0  0
    7.9519  -11.5757   26.5960 C   0  0  0  0  0  0  0  0  0  0  0  0
    6.9758  -11.9458   27.4960 C   0  0  0  0  0  0  0  0  0  0  0  0
    6.1211  -12.9911   27.1786 C   0  0  0  0  0  0  0  0  0  0  0  0
    6.2649  -13.6385   25.9697 C   0  0  0  0  0  0  0  0  0  0  0  0
    9.0649  -15.5706   24.7116 C   0  0  0  0  0  0  0  0  0  0  0  0
    8.3791  -16.5800   25.0932 O   0  0  0  0  0  0  0  0  0  0  0  0
   14.9325  -16.7087   25.7999 N   0  0  0  0  0  0  0  0  0  0  0  0
   14.1210  -16.6158   24.6542 C   0  0  0  0  0  0  0  0  0  0  0  0
   14.6394  -16.6761   23.5224 O   0  0  0  0  0  0  0  0  0  0  0  0
   12.6499  -16.4462   24.8124 C   0  0  0  0  0  0  0  0  0  0  0  0
   12.2698  -16.3344   26.2645 C   0  0  0  0  0  0  0  0  0  0  0  0
   10.7858  -16.2132   26.4545 C   0  0  2  0  0  0  0  0  0  0  0  0
   10.2276  -15.3011   25.4313 N   0  0  0  0  0  0  0  0  0  0  0  0
   10.3798  -15.7680   27.7963 C   0  0  0  0  0  0  0  0  0  0  0  0
    9.8251  -14.5100   28.0555 O   0  0  0  0  0  0  0  0  0  0  0  0
   10.5175  -16.5142   28.7874 O   0  0  0  0  0  0  0  0  0  0  0  0
  2  1  1  6
  3  2  1  0
  4  2  1  0
  4  5  1  6
  6  4  1  0
  7  6  2  0
  8  6  1  0
  9  8  1  0
  9 10  1  1
 10 11  1  0
 11 16  2  0
 12 11  1  0
 12 13  2  0
 13 14  1  0
 14 15  2  0
 16 15  1  0
 17 18  2  0
 17  9  1  0
 20 22  1  0
 20 19  1  0
 21 20  2  0
 24 23  1  1
 23 22  1  0
 24 25  1  0
 25 17  1  0
 26 24  1  0
 27 26  1  0
 28 26  2  0
M  END
$$$$
