VFQ.pdb
     RDKit          3D

 28 28  0  0  1  0  0  0  0  0999 V2000
    7.7209  -12.6937   19.5077 C   0  0  0  0  0  0  0  0  0  0  0  0
    8.6148  -13.7364   18.9409 C   0  0  2  0  0  0  0  0  0  0  0  0
    8.2392  -13.9735   17.4945 C   0  0  0  0  0  0  0  0  0  0  0  0
    8.7449  -14.9990   19.7225 C   0  0  2  0  0  0  0  0  0  0  0  0
    7.5229  -15.7934   19.4878 N   0  0  0  0  0  0  0  0  0  0  0  0
    8.9365  -14.8123   21.1830 C   0  0  0  0  0  0  0  0  0  0  0  0
   10.0820  -14.4686   21.6487 O   0  0  0  0  0  0  0  0  0  0  0  0
    7.9205  -14.9866   22.1440 N   0  0  0  0  0  0  0  0  0  0  0  0
    8.0516  -14.6261   23.5443 C   0  0  1  0  0  0  0  0  0  0  0  0
    6.8205  -13.9284   24.0479 C   0  0  0  0  0  0  0  0  0  0  0  0
    6.9689  -13.2970   25.3550 C   0  0  0  0  0  0  0  0  0  0  0  0
    7.7934  -12.2409   25.6495 C   0  0  0  0  0  0  0  0  0  0  0  0
    7.8797  -11.6929   26.9330 C   0  0  0  0  0  0  0  0  0  0  0  0
    7.1165  -12.2191   27.9531 C   0  0  0  0  0  0  0  0  0  0  0  0
    6.2726  -13.2874   27.6878 C   0  0  0  0  0  0  0  0  0  0  0  0
    6.2142  -13.8014   26.4096 C   0  0  0  0  0  0  0  0  0  0  0  0
    8.5284  -15.7371   24.3620 C   0  0  0  0  0  0  0  0  0  0  0  0
    7.8338  -16.8106   24.3729 O   0  0  0  0  0  0  0  0  0  0  0  0
   12.5461  -17.4206   21.8112 N   0  0  0  0  0  0  0  0  0  0  0  0
   12.6336  -17.3622   23.2144 C   0  0  0  0  0  0  0  0  0  0  0  0
   13.6460  -16.8721   23.7511 O   0  0  0  0  0  0  0  0  0  0  0  0
   11.5111  -17.8889   24.0392 C   0  0  0  0  0  0  0  0  0  0  0  0
   11.5321  -17.2990   25.4238 C   0  0  0  0  0  0  0  0  0  0  0  0
   10.1604  -16.9159   25.8980 C   0  0  2  0  0  0  0  0  0  0  0  0
    9.6849  -15.7370   25.1398 N   0  0  0  0  0  0  0  0  0  0  0  0
   10.0688  -16.6522   27.3421 C   0  0  0  0  0  0  0  0  0  0  0  0
   10.1747  -17.6513   28.3157 O   0  0  0  0  0  0  0  0  0  0  0  0
    9.8873  -15.4942   27.7713 O   0  0  0  0  0  0  0  0  0  0  0  0
  2  1  1  1
  3  2  1  0
  4  2  1  0
  4  5  1  1
  6  4  1  0
  7  6  2  0
  8  6  1  0
  9  8  1  0
  9 10  1  1
 10 11  1  0
 11 16  2  0
 12 11  1  0
 12 13  2  0
 13 14  1  0
 14 15  2  0
 16 15  1  0
 17 18  2  0
 17  9  1  0
 20 22  1  0
 20 19  1  0
 21 20  2  0
 24 23  1  6
 23 22  1  0
 24 25  1  0
 25 17  1  0
 26 24  1  0
 27 26  1  0
 28 26  2  0
M  END
$$$$
