VFQ.pdb
     RDKit          3D

 28 28  0  0  1  0  0  0  0  0999 V2000
   10.1578  -19.0436   21.2002 C   0  0  0  0  0  0  0  0  0  0  0  0
    9.2416  -18.2616   20.3304 C   0  0  2  0  0  0  0  0  0  0  0  0
    9.1359  -18.9466   18.9854 C   0  0  0  0  0  0  0  0  0  0  0  0
    9.5140  -16.8004   20.2191 C   0  0  2  0  0  0  0  0  0  0  0  0
   10.8234  -16.6430   19.5555 N   0  0  0  0  0  0  0  0  0  0  0  0
    9.5263  -16.0674   21.5103 C   0  0  0  0  0  0  0  0  0  0  0  0
   10.6038  -15.9915   22.2035 O   0  0  0  0  0  0  0  0  0  0  0  0
    8.4046  -15.4171   22.0628 N   0  0  0  0  0  0  0  0  0  0  0  0
    8.3821  -14.8076   23.3804 C   0  0  1  0  0  0  0  0  0  0  0  0
    7.2507  -13.8284   23.5117 C   0  0  0  0  0  0  0  0  0  0  0  0
    7.0942  -13.2523   24.8431 C   0  0  0  0  0  0  0  0  0  0  0  0
    6.1512  -13.6150   25.7711 C   0  0  0  0  0  0  0  0  0  0  0  0
    6.0664  -13.0101   27.0289 C   0  0  0  0  0  0  0  0  0  0  0  0
    6.9534  -12.0111   27.3677 C   0  0  0  0  0  0  0  0  0  0  0  0
    7.9190  -11.6213   26.4513 C   0  0  0  0  0  0  0  0  0  0  0  0
    7.9720  -12.2408   25.2206 C   0  0  0  0  0  0  0  0  0  0  0  0
    8.4930  -15.7936   24.4509 C   0  0  0  0  0  0  0  0  0  0  0  0
    7.6497  -16.7545   24.4663 O   0  0  0  0  0  0  0  0  0  0  0  0
   13.5708  -19.4033   25.3570 N   0  0  0  0  0  0  0  0  0  0  0  0
   12.7641  -18.7008   26.2711 C   0  0  0  0  0  0  0  0  0  0  0  0
   12.7848  -19.0091   27.4785 O   0  0  0  0  0  0  0  0  0  0  0  0
   11.8951  -17.5957   25.7798 C   0  0  0  0  0  0  0  0  0  0  0  0
   10.4404  -17.9744   25.8571 C   0  0  0  0  0  0  0  0  0  0  0  0
    9.6006  -16.8813   26.4514 C   0  0  2  0  0  0  0  0  0  0  0  0
    9.4450  -15.7855   25.4688 N   0  0  0  0  0  0  0  0  0  0  0  0
   10.1123  -16.3451   27.7219 C   0  0  0  0  0  0  0  0  0  0  0  0
   10.2417  -17.1117   28.8850 O   0  0  0  0  0  0  0  0  0  0  0  0
   10.4617  -15.1507   27.8183 O   0  0  0  0  0  0  0  0  0  0  0  0
  2  1  1  1
  3  2  1  0
  4  2  1  0
  4  5  1  1
  6  4  1  0
  7  6  2  0
  8  6  1  0
  9  8  1  0
  9 10  1  1
 10 11  1  0
 11 16  2  0
 12 11  1  0
 12 13  2  0
 13 14  1  0
 14 15  2  0
 16 15  1  0
 17 18  2  0
 17  9  1  0
 20 22  1  0
 20 19  1  0
 21 20  2  0
 24 23  1  6
 23 22  1  0
 24 25  1  0
 25 17  1  0
 26 24  1  0
 27 26  1  0
 28 26  2  0
M  END
$$$$
