VFQ.pdb
     RDKit          3D

 28 28  0  0  1  0  0  0  0  0999 V2000
    8.1144  -19.3910   18.8387 C   0  0  0  0  0  0  0  0  0  0  0  0
    8.3843  -18.5918   20.0617 C   0  0  2  0  0  0  0  0  0  0  0  0
    7.5599  -19.1456   21.2033 C   0  0  0  0  0  0  0  0  0  0  0  0
    8.2726  -17.1114   19.9284 C   0  0  2  0  0  0  0  0  0  0  0  0
    9.1865  -16.6937   18.8467 N   0  0  0  0  0  0  0  0  0  0  0  0
    8.5895  -16.3477   21.1616 C   0  0  0  0  0  0  0  0  0  0  0  0
    9.8026  -16.2455   21.5682 O   0  0  0  0  0  0  0  0  0  0  0  0
    7.6276  -15.6946   21.9582 N   0  0  0  0  0  0  0  0  0  0  0  0
    7.9304  -14.9962   23.1945 C   0  0  1  0  0  0  0  0  0  0  0  0
    6.9264  -13.9142   23.4725 C   0  0  0  0  0  0  0  0  0  0  0  0
    7.1268  -13.2054   24.7321 C   0  0  0  0  0  0  0  0  0  0  0  0
    8.1198  -12.2960   24.9945 C   0  0  0  0  0  0  0  0  0  0  0  0
    8.2446  -11.6594   26.2332 C   0  0  0  0  0  0  0  0  0  0  0  0
    7.3471  -11.9425   27.2402 C   0  0  0  0  0  0  0  0  0  0  0  0
    6.3313  -12.8577   27.0066 C   0  0  0  0  0  0  0  0  0  0  0  0
    6.2399  -13.4655   25.7723 C   0  0  0  0  0  0  0  0  0  0  0  0
    8.1961  -15.9120   24.2995 C   0  0  0  0  0  0  0  0  0  0  0  0
    7.2459  -16.6778   24.6810 O   0  0  0  0  0  0  0  0  0  0  0  0
   12.9046  -19.4716   24.9488 N   0  0  0  0  0  0  0  0  0  0  0  0
   12.0992  -18.9829   23.9037 C   0  0  0  0  0  0  0  0  0  0  0  0
   12.3836  -19.2596   22.7223 O   0  0  0  0  0  0  0  0  0  0  0  0
   10.9151  -18.1394   24.2267 C   0  0  0  0  0  0  0  0  0  0  0  0
   10.8258  -17.8734   25.7055 C   0  0  0  0  0  0  0  0  0  0  0  0
    9.6404  -17.0226   26.0581 C   0  0  2  0  0  0  0  0  0  0  0  0
    9.4040  -16.0319   24.9843 N   0  0  0  0  0  0  0  0  0  0  0  0
    9.7487  -16.3381   27.3554 C   0  0  0  0  0  0  0  0  0  0  0  0
    9.9149  -14.9550   27.4850 O   0  0  0  0  0  0  0  0  0  0  0  0
    9.6958  -16.9802   28.4245 O   0  0  0  0  0  0  0  0  0  0  0  0
  2  1  1  6
  3  2  1  0
  4  2  1  0
  4  5  1  6
  6  4  1  0
  7  6  2  0
  8  6  1  0
  9  8  1  0
  9 10  1  1
 10 11  1  0
 11 16  2  0
 12 11  1  0
 12 13  2  0
 13 14  1  0
 14 15  2  0
 16 15  1  0
 17 18  2  0
 17  9  1  0
 20 22  1  0
 20 19  1  0
 21 20  2  0
 24 23  1  6
 23 22  1  0
 24 25  1  0
 25 17  1  0
 26 24  1  0
 27 26  1  0
 28 26  2  0
M  END
$$$$
