VFQ.pdb
     RDKit          3D

 28 28  0  0  1  0  0  0  0  0999 V2000
    7.6521  -14.9219   17.4331 C   0  0  0  0  0  0  0  0  0  0  0  0
    8.1241  -15.0483   18.8362 C   0  0  2  0  0  0  0  0  0  0  0  0
    7.8673  -16.4599   19.3166 C   0  0  0  0  0  0  0  0  0  0  0  0
    7.6475  -14.0117   19.7954 C   0  0  2  0  0  0  0  0  0  0  0  0
    8.0500  -12.6955   19.2616 N   0  0  0  0  0  0  0  0  0  0  0  0
    8.1624  -14.1586   21.1803 C   0  0  0  0  0  0  0  0  0  0  0  0
    9.3994  -13.9360   21.4400 O   0  0  0  0  0  0  0  0  0  0  0  0
    7.3713  -14.5370   22.2836 N   0  0  0  0  0  0  0  0  0  0  0  0
    7.8806  -14.7060   23.6327 C   0  0  1  0  0  0  0  0  0  0  0  0
    6.7895  -14.5517   24.6534 C   0  0  0  0  0  0  0  0  0  0  0  0
    6.9272  -13.3873   25.5220 C   0  0  0  0  0  0  0  0  0  0  0  0
    8.1082  -12.7999   25.8990 C   0  0  0  0  0  0  0  0  0  0  0  0
    8.1548  -11.6832   26.7392 C   0  0  0  0  0  0  0  0  0  0  0  0
    6.9824  -11.1380   27.2165 C   0  0  0  0  0  0  0  0  0  0  0  0
    5.7714  -11.7088   26.8537 C   0  0  0  0  0  0  0  0  0  0  0  0
    5.7648  -12.8096   26.0232 C   0  0  0  0  0  0  0  0  0  0  0  0
    8.7097  -15.8995   23.7684 C   0  0  0  0  0  0  0  0  0  0  0  0
    8.2224  -17.0126   23.3705 O   0  0  0  0  0  0  0  0  0  0  0  0
   14.0094  -17.1062   21.8161 N   0  0  0  0  0  0  0  0  0  0  0  0
   14.0417  -18.1333   22.7773 C   0  0  0  0  0  0  0  0  0  0  0  0
   14.8566  -19.0684   22.6562 O   0  0  0  0  0  0  0  0  0  0  0  0
   13.0983  -18.0867   23.9286 C   0  0  0  0  0  0  0  0  0  0  0  0
   12.1982  -16.8832   23.8440 C   0  0  0  0  0  0  0  0  0  0  0  0
   10.8186  -17.1692   24.3619 C   0  0  2  0  0  0  0  0  0  0  0  0
    9.9991  -15.9386   24.2960 N   0  0  0  0  0  0  0  0  0  0  0  0
   10.7841  -17.7209   25.7249 C   0  0  0  0  0  0  0  0  0  0  0  0
   11.2247  -19.0095   26.0457 O   0  0  0  0  0  0  0  0  0  0  0  0
   10.3477  -17.0443   26.6787 O   0  0  0  0  0  0  0  0  0  0  0  0
  2  1  1  6
  3  2  1  0
  4  2  1  0
  4  5  1  6
  6  4  1  0
  7  6  2  0
  8  6  1  0
  9  8  1  0
  9 10  1  1
 10 11  1  0
 11 16  2  0
 12 11  1  0
 12 13  2  0
 13 14  1  0
 14 15  2  0
 16 15  1  0
 17 18  2  0
 17  9  1  0
 20 22  1  0
 20 19  1  0
 21 20  2  0
 24 23  1  1
 23 22  1  0
 24 25  1  0
 25 17  1  0
 26 24  1  0
 27 26  1  0
 28 26  2  0
M  END
$$$$
