VFQ.pdb
     RDKit          3D

 28 28  0  0  1  0  0  0  0  0999 V2000
    8.8546  -18.8984   21.0000 C   0  0  0  0  0  0  0  0  0  0  0  0
    8.1809  -17.9103   20.1184 C   0  0  2  0  0  0  0  0  0  0  0  0
    7.9432  -18.5410   18.7637 C   0  0  0  0  0  0  0  0  0  0  0  0
    8.8072  -16.5606   20.0298 C   0  0  2  0  0  0  0  0  0  0  0  0
   10.1086  -16.7197   19.3511 N   0  0  0  0  0  0  0  0  0  0  0  0
    9.0130  -15.8809   21.3337 C   0  0  0  0  0  0  0  0  0  0  0  0
   10.1492  -15.9450   21.9270 O   0  0  0  0  0  0  0  0  0  0  0  0
    8.0218  -15.1361   22.0040 N   0  0  0  0  0  0  0  0  0  0  0  0
    8.1767  -14.5884   23.3397 C   0  0  1  0  0  0  0  0  0  0  0  0
    7.1228  -13.5600   23.6355 C   0  0  0  0  0  0  0  0  0  0  0  0
    7.1251  -13.0616   25.0070 C   0  0  0  0  0  0  0  0  0  0  0  0
    8.1063  -12.2950   25.5828 C   0  0  0  0  0  0  0  0  0  0  0  0
    8.0340  -11.8579   26.9091 C   0  0  0  0  0  0  0  0  0  0  0  0
    6.9452  -12.1991   27.6823 C   0  0  0  0  0  0  0  0  0  0  0  0
    5.9359  -12.9734   27.1294 C   0  0  0  0  0  0  0  0  0  0  0  0
    6.0420  -13.3860   25.8180 C   0  0  0  0  0  0  0  0  0  0  0  0
    8.3481  -15.6276   24.3501 C   0  0  0  0  0  0  0  0  0  0  0  0
    7.3998  -16.4712   24.5047 O   0  0  0  0  0  0  0  0  0  0  0  0
   12.4375  -19.6950   24.4569 N   0  0  0  0  0  0  0  0  0  0  0  0
   11.9501  -19.9756   25.7467 C   0  0  0  0  0  0  0  0  0  0  0  0
   12.3295  -21.0031   26.3414 O   0  0  0  0  0  0  0  0  0  0  0  0
   10.9849  -19.0371   26.3834 C   0  0  0  0  0  0  0  0  0  0  0  0
   10.6460  -17.8981   25.4595 C   0  0  0  0  0  0  0  0  0  0  0  0
    9.6564  -16.9484   26.0694 C   0  0  2  0  0  0  0  0  0  0  0  0
    9.4632  -15.7886   25.1705 N   0  0  0  0  0  0  0  0  0  0  0  0
   10.0138  -16.4822   27.4178 C   0  0  0  0  0  0  0  0  0  0  0  0
   10.3589  -15.1579   27.7087 O   0  0  0  0  0  0  0  0  0  0  0  0
   10.0249  -17.2703   28.3858 O   0  0  0  0  0  0  0  0  0  0  0  0
  2  1  1  1
  3  2  1  0
  4  2  1  0
  4  5  1  1
  6  4  1  0
  7  6  2  0
  8  6  1  0
  9  8  1  0
  9 10  1  1
 10 11  1  0
 11 16  2  0
 12 11  1  0
 12 13  2  0
 13 14  1  0
 14 15  2  0
 16 15  1  0
 17 18  2  0
 17  9  1  0
 20 22  1  0
 20 19  1  0
 21 20  2  0
 24 23  1  6
 23 22  1  0
 24 25  1  0
 25 17  1  0
 26 24  1  0
 27 26  1  0
 28 26  2  0
M  END
$$$$
