VFQ.pdb
     RDKit          3D

 28 28  0  0  1  0  0  0  0  0999 V2000
    8.2621  -14.8414   18.5469 C   0  0  0  0  0  0  0  0  0  0  0  0
    9.0784  -16.0802   18.6268 C   0  0  2  0  0  0  0  0  0  0  0  0
    8.8097  -16.9265   17.4015 C   0  0  0  0  0  0  0  0  0  0  0  0
    8.9928  -16.8537   19.8980 C   0  0  2  0  0  0  0  0  0  0  0  0
    7.6879  -17.5442   19.9096 N   0  0  0  0  0  0  0  0  0  0  0  0
    9.1298  -16.0417   21.1335 C   0  0  0  0  0  0  0  0  0  0  0  0
   10.2387  -15.4553   21.4053 O   0  0  0  0  0  0  0  0  0  0  0  0
    8.0980  -15.8502   22.0742 N   0  0  0  0  0  0  0  0  0  0  0  0
    8.2679  -15.1660   23.3435 C   0  0  1  0  0  0  0  0  0  0  0  0
    7.1067  -14.2596   23.6369 C   0  0  0  0  0  0  0  0  0  0  0  0
    7.2350  -13.4824   24.8652 C   0  0  0  0  0  0  0  0  0  0  0  0
    8.0493  -12.3934   25.0470 C   0  0  0  0  0  0  0  0  0  0  0  0
    8.1162  -11.7022   26.2607 C   0  0  0  0  0  0  0  0  0  0  0  0
    7.3436  -12.1144   27.3250 C   0  0  0  0  0  0  0  0  0  0  0  0
    6.5096  -13.2123   27.1734 C   0  0  0  0  0  0  0  0  0  0  0  0
    6.4703  -13.8690   25.9615 C   0  0  0  0  0  0  0  0  0  0  0  0
    8.6476  -16.0764   24.4192 C   0  0  0  0  0  0  0  0  0  0  0  0
    7.8860  -17.0771   24.6503 O   0  0  0  0  0  0  0  0  0  0  0  0
   12.0455  -20.2017   23.0961 N   0  0  0  0  0  0  0  0  0  0  0  0
   12.4508  -19.5232   24.2603 C   0  0  0  0  0  0  0  0  0  0  0  0
   13.6610  -19.2986   24.4557 O   0  0  0  0  0  0  0  0  0  0  0  0
   11.4236  -19.0826   25.2444 C   0  0  0  0  0  0  0  0  0  0  0  0
   11.5407  -17.6089   25.5275 C   0  0  0  0  0  0  0  0  0  0  0  0
   10.2762  -17.0395   26.1021 C   0  0  2  0  0  0  0  0  0  0  0  0
    9.7774  -15.9557   25.2263 N   0  0  0  0  0  0  0  0  0  0  0  0
   10.4039  -16.5484   27.4827 C   0  0  0  0  0  0  0  0  0  0  0  0
   10.1888  -15.2154   27.8489 O   0  0  0  0  0  0  0  0  0  0  0  0
   10.7187  -17.3214   28.4108 O   0  0  0  0  0  0  0  0  0  0  0  0
  2  1  1  1
  3  2  1  0
  4  2  1  0
  4  5  1  1
  6  4  1  0
  7  6  2  0
  8  6  1  0
  9  8  1  0
  9 10  1  1
 10 11  1  0
 11 16  2  0
 12 11  1  0
 12 13  2  0
 13 14  1  0
 14 15  2  0
 16 15  1  0
 17 18  2  0
 17  9  1  0
 20 22  1  0
 20 19  1  0
 21 20  2  0
 24 23  1  6
 23 22  1  0
 24 25  1  0
 25 17  1  0
 26 24  1  0
 27 26  1  0
 28 26  2  0
M  END
$$$$
