CVA.pdb
     RDKit          3D

 19 18  0  0  1  0  0  0  0  0999 V2000
    9.3939  -17.5140   16.3692 N   0  0  0  0  0  0  0  0  0  0  0  0
    8.3704  -17.4352   17.4038 C   0  0  1  0  0  0  0  0  0  0  0  0
    8.0605  -18.8485   17.8524 C   0  0  0  0  0  0  0  0  0  0  0  0
    6.7971  -18.7778   19.1370 S   0  0  0  0  0  0  0  0  0  0  0  0
    8.8697  -16.6275   18.5553 C   0  0  0  0  0  0  0  0  0  0  0  0
   10.0751  -16.7203   18.8947 O   0  0  0  0  0  0  0  0  0  0  0  0
    7.4765  -12.9012   19.4422 C   0  0  0  0  0  0  0  0  0  0  0  0
    7.6010  -13.7882   20.6537 C   0  0  2  0  0  0  0  0  0  0  0  0
    8.1190  -13.0172   21.8490 C   0  0  0  0  0  0  0  0  0  0  0  0
    8.5244  -14.9423   20.3404 C   0  0  2  0  0  0  0  0  0  0  0  0
    8.0151  -15.7583   19.2748 N   0  0  0  0  0  0  0  0  0  0  0  0
    8.8218  -15.7471   21.5567 C   0  0  0  0  0  0  0  0  0  0  0  0
    7.8855  -16.4298   22.0448 O   0  0  0  0  0  0  0  0  0  0  0  0
   11.8179  -16.9275   23.4009 C   0  0  0  0  0  0  0  0  0  0  0  0
   10.3265  -16.6000   23.3064 C   0  0  2  0  0  0  0  0  0  0  0  0
   10.0884  -15.7691   22.1656 N   0  0  0  0  0  0  0  0  0  0  0  0
    9.9707  -15.9236   24.5822 C   0  0  0  0  0  0  0  0  0  0  0  0
    9.9748  -16.6797   25.7379 O   0  0  0  0  0  0  0  0  0  0  0  0
    9.6704  -14.7031   24.6428 O   0  0  0  0  0  0  0  0  0  0  0  0
  2  1  1  6
  3  2  1  0
  4  3  1  0
  5  2  1  0
  6  5  2  0
  8  7  1  6
  8 10  1  0
  9  8  1  0
 10 11  1  6
 11  5  1  0
 12 10  1  0
 12 16  1  0
 13 12  2  0
 15 16  1  0
 15 14  1  1
 17 15  1  0
 17 18  1  0
 19 17  2  0
M  END
$$$$
