CVA.pdb
     RDKit          3D

 19 18  0  0  1  0  0  0  0  0999 V2000
    7.2958  -16.7884   21.5191 N   0  0  0  0  0  0  0  0  0  0  0  0
    6.7632  -16.8227   22.8753 C   0  0  1  0  0  0  0  0  0  0  0  0
    6.9106  -18.2393   23.3913 C   0  0  0  0  0  0  0  0  0  0  0  0
    6.3202  -18.2931   25.0942 S   0  0  0  0  0  0  0  0  0  0  0  0
    7.5214  -15.8765   23.7456 C   0  0  0  0  0  0  0  0  0  0  0  0
    8.7565  -15.7342   23.5694 O   0  0  0  0  0  0  0  0  0  0  0  0
    6.1203  -12.3620   25.2350 C   0  0  0  0  0  0  0  0  0  0  0  0
    6.7517  -13.2331   26.2898 C   0  0  2  0  0  0  0  0  0  0  0  0
    7.5613  -12.4109   27.2697 C   0  0  0  0  0  0  0  0  0  0  0  0
    7.6320  -14.2676   25.6283 C   0  0  2  0  0  0  0  0  0  0  0  0
    6.8799  -15.1347   24.7663 N   0  0  0  0  0  0  0  0  0  0  0  0
    8.4183  -15.0353   26.6321 C   0  0  0  0  0  0  0  0  0  0  0  0
    7.7972  -15.8617   27.3479 O   0  0  0  0  0  0  0  0  0  0  0  0
   11.9961  -15.7744   27.2889 C   0  0  0  0  0  0  0  0  0  0  0  0
   10.5249  -15.7173   27.7045 C   0  0  2  0  0  0  0  0  0  0  0  0
    9.8036  -14.8710   26.8033 N   0  0  0  0  0  0  0  0  0  0  0  0
   10.5097  -15.2007   29.0991 C   0  0  0  0  0  0  0  0  0  0  0  0
   10.9625  -16.0348   30.1024 O   0  0  0  0  0  0  0  0  0  0  0  0
   10.1040  -14.0459   29.3909 O   0  0  0  0  0  0  0  0  0  0  0  0
  2  1  1  6
  3  2  1  0
  4  3  1  0
  5  2  1  0
  6  5  2  0
  8  7  1  6
  8 10  1  0
  9  8  1  0
 10 11  1  1
 11  5  1  0
 12 10  1  0
 12 16  1  0
 13 12  2  0
 15 16  1  0
 15 14  1  6
 17 15  1  0
 17 18  1  0
 19 17  2  0
M  END
$$$$
