CVA.pdb
     RDKit          3D

 19 18  0  0  1  0  0  0  0  0999 V2000
    8.4774  -15.6943   20.9960 N   0  0  0  0  0  0  0  0  0  0  0  0
    7.7865  -16.1028   22.2125 C   0  0  1  0  0  0  0  0  0  0  0  0
    7.9847  -17.5958   22.3744 C   0  0  0  0  0  0  0  0  0  0  0  0
    6.4254  -18.3259   22.9101 S   0  0  0  0  0  0  0  0  0  0  0  0
    8.3518  -15.3780   23.3885 C   0  0  0  0  0  0  0  0  0  0  0  0
    9.5869  -15.1572   23.4391 O   0  0  0  0  0  0  0  0  0  0  0  0
    6.4850  -12.3569   25.2346 C   0  0  0  0  0  0  0  0  0  0  0  0
    7.0458  -13.3375   26.2315 C   0  0  2  0  0  0  0  0  0  0  0  0
    7.6583  -12.6254   27.4187 C   0  0  0  0  0  0  0  0  0  0  0  0
    8.0813  -14.2061   25.5562 C   0  0  2  0  0  0  0  0  0  0  0  0
    7.5272  -14.9333   24.4495 N   0  0  0  0  0  0  0  0  0  0  0  0
    8.7515  -15.1108   26.5297 C   0  0  0  0  0  0  0  0  0  0  0  0
    8.0410  -15.9746   27.1043 O   0  0  0  0  0  0  0  0  0  0  0  0
   12.2514  -15.9840   27.4785 C   0  0  0  0  0  0  0  0  0  0  0  0
   10.7349  -16.0034   27.6797 C   0  0  2  0  0  0  0  0  0  0  0  0
   10.1241  -15.0336   26.8223 N   0  0  0  0  0  0  0  0  0  0  0  0
   10.5057  -15.7087   29.1194 C   0  0  0  0  0  0  0  0  0  0  0  0
    9.9457  -14.4899   29.4486 O   0  0  0  0  0  0  0  0  0  0  0  0
   10.8006  -16.5210   30.0340 O   0  0  0  0  0  0  0  0  0  0  0  0
  2  1  1  6
  3  2  1  0
  4  3  1  0
  5  2  1  0
  6  5  2  0
  8  7  1  6
  8 10  1  0
  9  8  1  0
 10 11  1  6
 11  5  1  0
 12 10  1  0
 12 16  1  0
 13 12  2  0
 15 16  1  0
 15 14  1  1
 17 15  1  0
 17 18  1  0
 19 17  2  0
M  END
$$$$
