CVA.pdb
     RDKit          3D

 19 18  0  0  1  0  0  0  0  0999 V2000
    8.3661  -15.1375   20.6680 N   0  0  0  0  0  0  0  0  0  0  0  0
    7.5018  -15.4750   21.7919 C   0  0  1  0  0  0  0  0  0  0  0  0
    7.3019  -16.9765   21.7834 C   0  0  0  0  0  0  0  0  0  0  0  0
    6.2583  -17.4076   20.3776 S   0  0  0  0  0  0  0  0  0  0  0  0
    8.1391  -15.0479   23.0722 C   0  0  0  0  0  0  0  0  0  0  0  0
    9.3666  -15.2483   23.2449 O   0  0  0  0  0  0  0  0  0  0  0  0
    6.6586  -12.0690   25.4208 C   0  0  0  0  0  0  0  0  0  0  0  0
    7.0986  -13.2641   26.2259 C   0  0  2  0  0  0  0  0  0  0  0  0
    7.8348  -12.8420   27.4795 C   0  0  0  0  0  0  0  0  0  0  0  0
    7.9833  -14.1460   25.3761 C   0  0  2  0  0  0  0  0  0  0  0  0
    7.3913  -14.4213   24.0977 N   0  0  0  0  0  0  0  0  0  0  0  0
    8.3538  -15.3970   26.0925 C   0  0  0  0  0  0  0  0  0  0  0  0
    7.4556  -16.2621   26.2534 O   0  0  0  0  0  0  0  0  0  0  0  0
   11.1018  -17.5734   26.6373 C   0  0  0  0  0  0  0  0  0  0  0  0
    9.9332  -16.8440   27.3028 C   0  0  2  0  0  0  0  0  0  0  0  0
    9.6478  -15.6389   26.5852 N   0  0  0  0  0  0  0  0  0  0  0  0
   10.3554  -16.5804   28.7043 C   0  0  0  0  0  0  0  0  0  0  0  0
   10.4428  -15.2651   29.1166 O   0  0  0  0  0  0  0  0  0  0  0  0
   10.6316  -17.5023   29.5150 O   0  0  0  0  0  0  0  0  0  0  0  0
  2  1  1  6
  3  2  1  0
  4  3  1  0
  5  2  1  0
  6  5  2  0
  8  7  1  6
  8 10  1  0
  9  8  1  0
 10 11  1  6
 11  5  1  0
 12 10  1  0
 12 16  1  0
 13 12  2  0
 15 16  1  0
 15 14  1  6
 17 15  1  0
 17 18  1  0
 19 17  2  0
M  END
$$$$
