CVA.pdb
     RDKit          3D

 19 18  0  0  1  0  0  0  0  0999 V2000
    9.2595  -17.4437   16.3427 N   0  0  0  0  0  0  0  0  0  0  0  0
    8.3429  -17.5119   17.4739 C   0  0  1  0  0  0  0  0  0  0  0  0
    8.2309  -18.9647   17.8878 C   0  0  0  0  0  0  0  0  0  0  0  0
    7.1404  -19.0700   19.3199 S   0  0  0  0  0  0  0  0  0  0  0  0
    8.8676  -16.6931   18.6062 C   0  0  0  0  0  0  0  0  0  0  0  0
   10.0971  -16.7123   18.8609 O   0  0  0  0  0  0  0  0  0  0  0  0
    7.3599  -13.0662   19.6342 C   0  0  0  0  0  0  0  0  0  0  0  0
    7.5840  -13.9604   20.8259 C   0  0  2  0  0  0  0  0  0  0  0  0
    8.1293  -13.1811   22.0035 C   0  0  0  0  0  0  0  0  0  0  0  0
    8.5382  -15.0701   20.4508 C   0  0  2  0  0  0  0  0  0  0  0  0
    8.0107  -15.8944   19.4006 N   0  0  0  0  0  0  0  0  0  0  0  0
    8.9302  -15.8758   21.6394 C   0  0  0  0  0  0  0  0  0  0  0  0
    8.0550  -16.6192   22.1516 O   0  0  0  0  0  0  0  0  0  0  0  0
   12.0637  -16.8033   23.4298 C   0  0  0  0  0  0  0  0  0  0  0  0
   10.5449  -16.6529   23.3252 C   0  0  2  0  0  0  0  0  0  0  0  0
   10.2197  -15.8342   22.1971 N   0  0  0  0  0  0  0  0  0  0  0  0
   10.1005  -16.0479   24.6091 C   0  0  0  0  0  0  0  0  0  0  0  0
   10.2578  -16.7911   25.7626 O   0  0  0  0  0  0  0  0  0  0  0  0
    9.5934  -14.8984   24.6784 O   0  0  0  0  0  0  0  0  0  0  0  0
  2  1  1  6
  3  2  1  0
  4  3  1  0
  5  2  1  0
  6  5  2  0
  8  7  1  6
  8 10  1  0
  9  8  1  0
 10 11  1  6
 11  5  1  0
 12 10  1  0
 12 16  1  0
 13 12  2  0
 15 16  1  0
 15 14  1  1
 17 15  1  0
 17 18  1  0
 19 17  2  0
M  END
$$$$
