CVA.pdb
     RDKit          3D

 19 18  0  0  1  0  0  0  0  0999 V2000
    5.1547  -12.7490   26.4553 N   0  0  0  0  0  0  0  0  0  0  0  0
    6.5486  -12.6018   26.0562 C   0  0  1  0  0  0  0  0  0  0  0  0
    7.3699  -12.4142   27.3151 C   0  0  0  0  0  0  0  0  0  0  0  0
    9.1090  -12.2991   26.8529 S   0  0  0  0  0  0  0  0  0  0  0  0
    7.0013  -13.8207   25.3233 C   0  0  0  0  0  0  0  0  0  0  0  0
    6.7015  -14.9546   25.7718 O   0  0  0  0  0  0  0  0  0  0  0  0
    6.9330  -14.0366   21.4203 C   0  0  0  0  0  0  0  0  0  0  0  0
    8.2259  -14.6318   21.9144 C   0  0  2  0  0  0  0  0  0  0  0  0
    8.5640  -15.9066   21.1713 C   0  0  0  0  0  0  0  0  0  0  0  0
    8.1202  -14.9069   23.3962 C   0  0  2  0  0  0  0  0  0  0  0  0
    7.7615  -13.7283   24.1329 N   0  0  0  0  0  0  0  0  0  0  0  0
    9.3648  -15.5293   23.9244 C   0  0  0  0  0  0  0  0  0  0  0  0
   10.3903  -14.8055   23.9979 O   0  0  0  0  0  0  0  0  0  0  0  0
   10.4411  -18.7962   25.4010 C   0  0  0  0  0  0  0  0  0  0  0  0
   10.6835  -17.4484   24.7190 C   0  0  2  0  0  0  0  0  0  0  0  0
    9.4309  -16.8718   24.3355 N   0  0  0  0  0  0  0  0  0  0  0  0
   11.5581  -17.7290   23.5492 C   0  0  0  0  0  0  0  0  0  0  0  0
   12.9236  -17.7546   23.7544 O   0  0  0  0  0  0  0  0  0  0  0  0
   11.1019  -17.9408   22.3958 O   0  0  0  0  0  0  0  0  0  0  0  0
  2  1  1  1
  3  2  1  0
  4  3  1  0
  5  2  1  0
  6  5  2  0
  8  7  1  6
  8 10  1  0
  9  8  1  0
 10 11  1  1
 11  5  1  0
 12 10  1  0
 12 16  1  0
 13 12  2  0
 15 16  1  0
 15 14  1  6
 17 15  1  0
 17 18  1  0
 19 17  2  0
M  END
$$$$
