CVA.pdb
     RDKit          3D

 19 18  0  0  1  0  0  0  0  0999 V2000
    5.1545  -12.9039   26.3980 N   0  0  0  0  0  0  0  0  0  0  0  0
    6.5497  -12.7658   25.9998 C   0  0  1  0  0  0  0  0  0  0  0  0
    7.3751  -12.6162   27.2611 C   0  0  0  0  0  0  0  0  0  0  0  0
    9.1200  -12.6094   26.8065 S   0  0  0  0  0  0  0  0  0  0  0  0
    6.9856  -13.9741   25.2397 C   0  0  0  0  0  0  0  0  0  0  0  0
    6.6438  -15.1122   25.6455 O   0  0  0  0  0  0  0  0  0  0  0  0
    6.9106  -14.2625   21.3806 C   0  0  0  0  0  0  0  0  0  0  0  0
    8.2415  -14.7834   21.8575 C   0  0  2  0  0  0  0  0  0  0  0  0
    8.6292  -16.0518   21.1279 C   0  0  0  0  0  0  0  0  0  0  0  0
    8.1788  -15.0386   23.3454 C   0  0  2  0  0  0  0  0  0  0  0  0
    7.7764  -13.8670   24.0707 N   0  0  0  0  0  0  0  0  0  0  0  0
    9.4631  -15.5897   23.8576 C   0  0  0  0  0  0  0  0  0  0  0  0
   10.4531  -14.8155   23.8962 O   0  0  0  0  0  0  0  0  0  0  0  0
   10.7439  -18.7661   25.3623 C   0  0  0  0  0  0  0  0  0  0  0  0
   10.8967  -17.4405   24.6141 C   0  0  2  0  0  0  0  0  0  0  0  0
    9.6034  -16.9194   24.2909 N   0  0  0  0  0  0  0  0  0  0  0  0
   11.7037  -17.7415   23.4016 C   0  0  0  0  0  0  0  0  0  0  0  0
   13.0690  -17.8842   23.5527 O   0  0  0  0  0  0  0  0  0  0  0  0
   11.1913  -17.8686   22.2594 O   0  0  0  0  0  0  0  0  0  0  0  0
  2  1  1  1
  3  2  1  0
  4  3  1  0
  5  2  1  0
  6  5  2  0
  8  7  1  6
  8 10  1  0
  9  8  1  0
 10 11  1  1
 11  5  1  0
 12 10  1  0
 12 16  1  0
 13 12  2  0
 15 16  1  0
 15 14  1  6
 17 15  1  0
 17 18  1  0
 19 17  2  0
M  END
$$$$
