CVA.pdb
     RDKit          3D

 19 18  0  0  1  0  0  0  0  0999 V2000
    8.5639  -17.7738   16.3661 N   0  0  0  0  0  0  0  0  0  0  0  0
    7.5536  -17.2308   17.2653 C   0  0  1  0  0  0  0  0  0  0  0  0
    6.6575  -18.3744   17.6941 C   0  0  0  0  0  0  0  0  0  0  0  0
    7.6545  -19.5765   18.5953 S   0  0  0  0  0  0  0  0  0  0  0  0
    8.2085  -16.6153   18.4570 C   0  0  0  0  0  0  0  0  0  0  0  0
    9.4191  -16.8571   18.6867 O   0  0  0  0  0  0  0  0  0  0  0  0
    7.1047  -12.9440   19.7660 C   0  0  0  0  0  0  0  0  0  0  0  0
    7.3660  -13.8983   20.9022 C   0  0  2  0  0  0  0  0  0  0  0  0
    8.0987  -13.2151   22.0370 C   0  0  0  0  0  0  0  0  0  0  0  0
    8.1701  -15.0739   20.3981 C   0  0  2  0  0  0  0  0  0  0  0  0
    7.4959  -15.7643   19.3354 N   0  0  0  0  0  0  0  0  0  0  0  0
    8.5400  -15.9958   21.5066 C   0  0  0  0  0  0  0  0  0  0  0  0
    7.6104  -16.6231   22.0751 O   0  0  0  0  0  0  0  0  0  0  0  0
   11.0290  -18.1897   22.6294 C   0  0  0  0  0  0  0  0  0  0  0  0
   10.1517  -17.0135   23.0622 C   0  0  2  0  0  0  0  0  0  0  0  0
    9.8667  -16.1848   21.9305 N   0  0  0  0  0  0  0  0  0  0  0  0
   10.9180  -16.2915   24.1126 C   0  0  0  0  0  0  0  0  0  0  0  0
   11.1567  -16.9471   25.3044 O   0  0  0  0  0  0  0  0  0  0  0  0
   11.3498  -15.1203   23.9537 O   0  0  0  0  0  0  0  0  0  0  0  0
  2  1  1  6
  3  2  1  0
  4  3  1  0
  5  2  1  0
  6  5  2  0
  8  7  1  6
  8 10  1  0
  9  8  1  0
 10 11  1  6
 11  5  1  0
 12 10  1  0
 12 16  1  0
 13 12  2  0
 15 16  1  0
 15 14  1  6
 17 15  1  0
 17 18  1  0
 19 17  2  0
M  END
$$$$
