CVA.pdb
     RDKit          3D

 19 18  0  0  1  0  0  0  0  0999 V2000
    6.9342  -16.9592   21.7910 N   0  0  0  0  0  0  0  0  0  0  0  0
    6.4913  -16.9285   23.1792 C   0  0  1  0  0  0  0  0  0  0  0  0
    6.5718  -18.3417   23.7188 C   0  0  0  0  0  0  0  0  0  0  0  0
    5.0349  -19.1958   23.3195 S   0  0  0  0  0  0  0  0  0  0  0  0
    7.3705  -16.0227   23.9756 C   0  0  0  0  0  0  0  0  0  0  0  0
    8.5885  -15.9345   23.6831 O   0  0  0  0  0  0  0  0  0  0  0  0
    6.1334  -12.5018   25.4983 C   0  0  0  0  0  0  0  0  0  0  0  0
    6.9235  -13.2980   26.5042 C   0  0  2  0  0  0  0  0  0  0  0  0
    7.8533  -12.4087   27.3017 C   0  0  0  0  0  0  0  0  0  0  0  0
    7.7147  -14.3687   25.7898 C   0  0  2  0  0  0  0  0  0  0  0  0
    6.8628  -15.2597   25.0543 N   0  0  0  0  0  0  0  0  0  0  0  0
    8.6038  -15.1061   26.7285 C   0  0  0  0  0  0  0  0  0  0  0  0
    8.0607  -15.8894   27.5486 O   0  0  0  0  0  0  0  0  0  0  0  0
   12.2759  -15.7098   27.0803 C   0  0  0  0  0  0  0  0  0  0  0  0
   10.8176  -15.8209   27.5292 C   0  0  2  0  0  0  0  0  0  0  0  0
   10.0016  -14.9591   26.7291 N   0  0  0  0  0  0  0  0  0  0  0  0
   10.7984  -15.4421   28.9673 C   0  0  0  0  0  0  0  0  0  0  0  0
   10.2652  -14.2137   29.3053 O   0  0  0  0  0  0  0  0  0  0  0  0
   11.2453  -16.1926   29.8731 O   0  0  0  0  0  0  0  0  0  0  0  0
  2  1  1  6
  3  2  1  0
  4  3  1  0
  5  2  1  0
  6  5  2  0
  8  7  1  6
  8 10  1  0
  9  8  1  0
 10 11  1  1
 11  5  1  0
 12 10  1  0
 12 16  1  0
 13 12  2  0
 15 16  1  0
 15 14  1  6
 17 15  1  0
 17 18  1  0
 19 17  2  0
M  END
$$$$
