CVA.pdb
     RDKit          3D

 19 18  0  0  1  0  0  0  0  0999 V2000
    8.9354  -17.3833   16.1364 N   0  0  0  0  0  0  0  0  0  0  0  0
    8.1690  -17.5160   17.3689 C   0  0  1  0  0  0  0  0  0  0  0  0
    8.2343  -18.9677   17.7967 C   0  0  0  0  0  0  0  0  0  0  0  0
    7.3381  -19.1478   19.3509 S   0  0  0  0  0  0  0  0  0  0  0  0
    8.7506  -16.6406   18.4286 C   0  0  0  0  0  0  0  0  0  0  0  0
    9.9984  -16.5374   18.5245 O   0  0  0  0  0  0  0  0  0  0  0  0
    7.3046  -13.0642   19.5381 C   0  0  0  0  0  0  0  0  0  0  0  0
    7.5588  -13.9561   20.7255 C   0  0  2  0  0  0  0  0  0  0  0  0
    8.1349  -13.1748   21.8871 C   0  0  0  0  0  0  0  0  0  0  0  0
    8.5024  -15.0672   20.3282 C   0  0  2  0  0  0  0  0  0  0  0  0
    7.9276  -15.9229   19.3292 N   0  0  0  0  0  0  0  0  0  0  0  0
    8.9652  -15.8384   21.5141 C   0  0  0  0  0  0  0  0  0  0  0  0
    8.1268  -16.5780   22.0895 O   0  0  0  0  0  0  0  0  0  0  0  0
   12.1889  -16.5324   23.2823 C   0  0  0  0  0  0  0  0  0  0  0  0
   10.6644  -16.5268   23.1549 C   0  0  2  0  0  0  0  0  0  0  0  0
   10.2813  -15.7691   22.0026 N   0  0  0  0  0  0  0  0  0  0  0  0
   10.1468  -15.9354   24.4176 C   0  0  0  0  0  0  0  0  0  0  0  0
   10.2819  -16.6707   25.5788 O   0  0  0  0  0  0  0  0  0  0  0  0
    9.5980  -14.8039   24.4624 O   0  0  0  0  0  0  0  0  0  0  0  0
  2  1  1  6
  3  2  1  0
  4  3  1  0
  5  2  1  0
  6  5  2  0
  8  7  1  6
  8 10  1  0
  9  8  1  0
 10 11  1  6
 11  5  1  0
 12 10  1  0
 12 16  1  0
 13 12  2  0
 15 16  1  0
 15 14  1  1
 17 15  1  0
 17 18  1  0
 19 17  2  0
M  END
$$$$
