CVA.pdb
     RDKit          3D

 19 18  0  0  1  0  0  0  0  0999 V2000
    5.1686  -13.3329   26.5157 N   0  0  0  0  0  0  0  0  0  0  0  0
    6.4677  -12.9835   25.9550 C   0  0  1  0  0  0  0  0  0  0  0  0
    7.4088  -12.7113   27.1103 C   0  0  0  0  0  0  0  0  0  0  0  0
    7.3766  -10.9450   27.4715 S   0  0  0  0  0  0  0  0  0  0  0  0
    6.9851  -14.1105   25.1244 C   0  0  0  0  0  0  0  0  0  0  0  0
    6.8739  -15.2876   25.5473 O   0  0  0  0  0  0  0  0  0  0  0  0
    6.9541  -14.0591   21.1443 C   0  0  0  0  0  0  0  0  0  0  0  0
    8.2602  -14.6231   21.6402 C   0  0  2  0  0  0  0  0  0  0  0  0
    8.6684  -15.8454   20.8458 C   0  0  0  0  0  0  0  0  0  0  0  0
    8.1341  -14.9736   23.1044 C   0  0  2  0  0  0  0  0  0  0  0  0
    7.5989  -13.8832   23.8693 N   0  0  0  0  0  0  0  0  0  0  0  0
    9.4273  -15.4554   23.6620 C   0  0  0  0  0  0  0  0  0  0  0  0
   10.3510  -14.6133   23.7980 O   0  0  0  0  0  0  0  0  0  0  0  0
   10.7490  -18.5099   25.3362 C   0  0  0  0  0  0  0  0  0  0  0  0
   10.9107  -17.1954   24.5704 C   0  0  2  0  0  0  0  0  0  0  0  0
    9.6461  -16.7931   24.0342 N   0  0  0  0  0  0  0  0  0  0  0  0
   11.9173  -17.4580   23.5075 C   0  0  0  0  0  0  0  0  0  0  0  0
   11.4688  -17.5713   22.2062 O   0  0  0  0  0  0  0  0  0  0  0  0
   13.1459  -17.5786   23.7509 O   0  0  0  0  0  0  0  0  0  0  0  0
  2  1  1  1
  3  2  1  0
  4  3  1  0
  5  2  1  0
  6  5  2  0
  8  7  1  6
  8 10  1  0
  9  8  1  0
 10 11  1  1
 11  5  1  0
 12 10  1  0
 12 16  1  0
 13 12  2  0
 15 16  1  0
 15 14  1  6
 17 15  1  0
 17 18  1  0
 19 17  2  0
M  END
$$$$
