CVA.pdb
     RDKit          3D

 19 18  0  0  1  0  0  0  0  0999 V2000
    7.5387  -16.5592   21.4198 N   0  0  0  0  0  0  0  0  0  0  0  0
    6.8706  -16.6206   22.7137 C   0  0  1  0  0  0  0  0  0  0  0  0
    6.8443  -18.0712   23.1491 C   0  0  0  0  0  0  0  0  0  0  0  0
    6.0111  -18.1754   24.7448 S   0  0  0  0  0  0  0  0  0  0  0  0
    7.6145  -15.7971   23.7118 C   0  0  0  0  0  0  0  0  0  0  0  0
    8.8692  -15.7668   23.6713 O   0  0  0  0  0  0  0  0  0  0  0  0
    6.1126  -12.3518   25.3189 C   0  0  0  0  0  0  0  0  0  0  0  0
    6.7686  -13.2452   26.3395 C   0  0  2  0  0  0  0  0  0  0  0  0
    7.5664  -12.4404   27.3431 C   0  0  0  0  0  0  0  0  0  0  0  0
    7.6666  -14.2371   25.6378 C   0  0  2  0  0  0  0  0  0  0  0  0
    6.9378  -15.0485   24.7044 N   0  0  0  0  0  0  0  0  0  0  0  0
    8.4275  -15.0664   26.6119 C   0  0  0  0  0  0  0  0  0  0  0  0
    7.7838  -15.9158   27.2792 O   0  0  0  0  0  0  0  0  0  0  0  0
   11.9805  -15.8930   27.3002 C   0  0  0  0  0  0  0  0  0  0  0  0
   10.5044  -15.8187   27.6953 C   0  0  2  0  0  0  0  0  0  0  0  0
    9.8132  -14.9345   26.8069 N   0  0  0  0  0  0  0  0  0  0  0  0
   10.4774  -15.3397   29.1031 C   0  0  0  0  0  0  0  0  0  0  0  0
   10.9592  -16.1854   30.0829 O   0  0  0  0  0  0  0  0  0  0  0  0
   10.0367  -14.2063   29.4263 O   0  0  0  0  0  0  0  0  0  0  0  0
  2  1  1  6
  3  2  1  0
  4  3  1  0
  5  2  1  0
  6  5  2  0
  8  7  1  6
  8 10  1  0
  9  8  1  0
 10 11  1  1
 11  5  1  0
 12 10  1  0
 12 16  1  0
 13 12  2  0
 15 16  1  0
 15 14  1  6
 17 15  1  0
 17 18  1  0
 19 17  2  0
M  END
$$$$
