CVA.pdb
     RDKit          3D

 19 18  0  0  1  0  0  0  0  0999 V2000
    8.0480  -14.8762   20.7084 N   0  0  0  0  0  0  0  0  0  0  0  0
    7.3678  -15.3151   21.9204 C   0  0  1  0  0  0  0  0  0  0  0  0
    7.4727  -16.8249   21.9853 C   0  0  0  0  0  0  0  0  0  0  0  0
    6.4149  -17.5283   20.7057 S   0  0  0  0  0  0  0  0  0  0  0  0
    8.0134  -14.7024   23.1185 C   0  0  0  0  0  0  0  0  0  0  0  0
    9.2531  -14.5026   23.1143 O   0  0  0  0  0  0  0  0  0  0  0  0
    6.4880  -11.8245   25.4766 C   0  0  0  0  0  0  0  0  0  0  0  0
    6.9705  -13.0034   26.2812 C   0  0  2  0  0  0  0  0  0  0  0  0
    7.6681  -12.5561   27.5480 C   0  0  0  0  0  0  0  0  0  0  0  0
    7.9071  -13.8384   25.4397 C   0  0  2  0  0  0  0  0  0  0  0  0
    7.2600  -14.3407   24.2609 N   0  0  0  0  0  0  0  0  0  0  0  0
    8.5262  -14.9322   26.2369 C   0  0  0  0  0  0  0  0  0  0  0  0
    7.7662  -15.8321   26.6769 O   0  0  0  0  0  0  0  0  0  0  0  0
   11.9046  -16.2999   26.8905 C   0  0  0  0  0  0  0  0  0  0  0  0
   10.4418  -16.0731   27.2771 C   0  0  2  0  0  0  0  0  0  0  0  0
    9.9039  -14.9918   26.5089 N   0  0  0  0  0  0  0  0  0  0  0  0
   10.4404  -15.7850   28.7362 C   0  0  0  0  0  0  0  0  0  0  0  0
   10.8124  -16.7998   29.5959 O   0  0  0  0  0  0  0  0  0  0  0  0
   10.1163  -14.6637   29.2065 O   0  0  0  0  0  0  0  0  0  0  0  0
  2  1  1  6
  3  2  1  0
  4  3  1  0
  5  2  1  0
  6  5  2  0
  8  7  1  6
  8 10  1  0
  9  8  1  0
 10 11  1  6
 11  5  1  0
 12 10  1  0
 12 16  1  0
 13 12  2  0
 15 16  1  0
 15 14  1  6
 17 15  1  0
 17 18  1  0
 19 17  2  0
M  END
$$$$
