CVA.pdb
     RDKit          3D

 19 18  0  0  1  0  0  0  0  0999 V2000
    7.9260  -14.7756   20.3147 N   0  0  0  0  0  0  0  0  0  0  0  0
    6.9634  -14.6322   21.3996 C   0  0  1  0  0  0  0  0  0  0  0  0
    6.1655  -15.9174   21.4790 C   0  0  0  0  0  0  0  0  0  0  0  0
    7.2845  -17.2600   21.9225 S   0  0  0  0  0  0  0  0  0  0  0  0
    7.6780  -14.3897   22.6873 C   0  0  0  0  0  0  0  0  0  0  0  0
    8.9299  -14.4797   22.7223 O   0  0  0  0  0  0  0  0  0  0  0  0
    6.5425  -11.7059   25.4407 C   0  0  0  0  0  0  0  0  0  0  0  0
    6.8781  -13.0280   26.0806 C   0  0  2  0  0  0  0  0  0  0  0  0
    7.6565  -12.8357   27.3645 C   0  0  0  0  0  0  0  0  0  0  0  0
    7.6751  -13.8691   25.1111 C   0  0  2  0  0  0  0  0  0  0  0  0
    6.9765  -14.0600   23.8717 N   0  0  0  0  0  0  0  0  0  0  0  0
    8.0803  -15.1652   25.7204 C   0  0  0  0  0  0  0  0  0  0  0  0
    7.1690  -15.9835   26.0050 O   0  0  0  0  0  0  0  0  0  0  0  0
   11.1035  -17.2362   25.9046 C   0  0  0  0  0  0  0  0  0  0  0  0
    9.7566  -16.7971   26.4821 C   0  0  2  0  0  0  0  0  0  0  0  0
    9.4203  -15.4984   25.9832 N   0  0  0  0  0  0  0  0  0  0  0  0
    9.9174  -16.8100   27.9606 C   0  0  0  0  0  0  0  0  0  0  0  0
   10.1785  -18.0206   28.5720 O   0  0  0  0  0  0  0  0  0  0  0  0
    9.8250  -15.7699   28.6627 O   0  0  0  0  0  0  0  0  0  0  0  0
  2  1  1  6
  3  2  1  0
  4  3  1  0
  5  2  1  0
  6  5  2  0
  8  7  1  6
  8 10  1  0
  9  8  1  0
 10 11  1  6
 11  5  1  0
 12 10  1  0
 12 16  1  0
 13 12  2  0
 15 16  1  0
 15 14  1  6
 17 15  1  0
 17 18  1  0
 19 17  2  0
M  END
$$$$
