PTL.pdb
     RDKit          3D

 23 23  0  0  1  0  0  0  0  0999 V2000
    9.3398  -14.7530   18.3289 N   0  0  0  0  0  0  0  0  0  0  0  0
    8.6920  -14.1821   17.1784 C   0  0  0  0  0  0  0  0  0  0  0  0
    7.4609  -13.5306   17.8189 C   0  0  0  0  0  0  0  0  0  0  0  0
    8.1282  -12.8345   19.0121 C   0  0  0  0  0  0  0  0  0  0  0  0
    9.0968  -13.9056   19.4541 C   0  0  1  0  0  0  0  0  0  0  0  0
    8.4738  -14.6270   20.5925 C   0  0  0  0  0  0  0  0  0  0  0  0
    7.4583  -14.1126   21.1124 O   0  0  0  0  0  0  0  0  0  0  0  0
    8.1154  -18.6352   23.5254 C   0  0  0  0  0  0  0  0  0  0  0  0
    8.8525  -17.9106   22.4466 C   0  0  1  0  0  0  0  0  0  0  0  0
    8.6045  -18.5694   21.2397 O   0  0  0  0  0  0  0  0  0  0  0  0
    8.3968  -16.4868   22.2551 C   0  0  2  0  0  0  0  0  0  0  0  0
    8.9501  -15.8394   21.1154 N   0  0  0  0  0  0  0  0  0  0  0  0
    8.7028  -15.7616   23.5155 C   0  0  0  0  0  0  0  0  0  0  0  0
    9.9063  -15.4463   23.6918 O   0  0  0  0  0  0  0  0  0  0  0  0
    5.5476  -11.9848   26.7569 C   0  0  0  0  0  0  0  0  0  0  0  0
    6.8378  -12.7033   26.6784 C   0  0  2  0  0  0  0  0  0  0  0  0
    7.7853  -11.9329   25.7404 C   0  0  0  0  0  0  0  0  0  0  0  0
    6.8669  -14.1115   26.2616 C   0  0  0  0  0  0  0  0  0  0  0  0
    8.0931  -14.7535   25.7652 C   0  0  2  0  0  0  0  0  0  0  0  0
    7.7362  -15.4294   24.4769 N   0  0  0  0  0  0  0  0  0  0  0  0
    8.8113  -15.7020   26.6124 C   0  0  0  0  0  0  0  0  0  0  0  0
    8.5020  -17.0745   26.6498 O   0  0  0  0  0  0  0  0  0  0  0  0
    9.7414  -15.3476   27.3508 O   0  0  0  0  0  0  0  0  0  0  0  0
  1  2  1  0
  2  3  1  0
  4  3  1  0
  5  1  1  0
  5  4  1  0
  5  6  1  1
  7  6  2  0
  9  8  1  1
  9 11  1  0
 10  9  1  0
 11 13  1  0
 11 12  1  6
 12  6  1  0
 13 20  1  0
 14 13  2  0
 16 15  1  6
 16 17  1  0
 18 16  1  0
 19 18  1  1
 19 21  1  0
 20 19  1  0
 21 23  2  0
 21 22  1  0
M  END
$$$$
