PTL.pdb
     RDKit          3D

 23 23  0  0  1  0  0  0  0  0999 V2000
    9.4135  -14.8448   18.4250 N   0  0  0  0  0  0  0  0  0  0  0  0
    8.9422  -14.5222   17.1048 C   0  0  0  0  0  0  0  0  0  0  0  0
    7.6504  -13.7608   17.4242 C   0  0  0  0  0  0  0  0  0  0  0  0
    8.1644  -12.8339   18.5335 C   0  0  0  0  0  0  0  0  0  0  0  0
    9.0386  -13.7882   19.3118 C   0  0  1  0  0  0  0  0  0  0  0  0
    8.2495  -14.2672   20.4747 C   0  0  0  0  0  0  0  0  0  0  0  0
    7.7179  -13.4009   21.2046 O   0  0  0  0  0  0  0  0  0  0  0  0
    6.4138  -18.1082   20.7653 C   0  0  0  0  0  0  0  0  0  0  0  0
    7.1060  -17.5641   21.9723 C   0  0  1  0  0  0  0  0  0  0  0  0
    8.3762  -18.1423   22.0364 O   0  0  0  0  0  0  0  0  0  0  0  0
    7.3197  -16.0729   21.9252 C   0  0  2  0  0  0  0  0  0  0  0  0
    8.0653  -15.6198   20.8014 N   0  0  0  0  0  0  0  0  0  0  0  0
    7.9545  -15.6862   23.2120 C   0  0  0  0  0  0  0  0  0  0  0  0
    9.1833  -15.4277   23.1647 O   0  0  0  0  0  0  0  0  0  0  0  0
    5.9157  -11.9700   27.4553 C   0  0  0  0  0  0  0  0  0  0  0  0
    7.0274  -12.8399   27.0143 C   0  0  2  0  0  0  0  0  0  0  0  0
    8.2256  -11.9594   26.6143 C   0  0  0  0  0  0  0  0  0  0  0  0
    6.8153  -13.8028   25.9256 C   0  0  0  0  0  0  0  0  0  0  0  0
    7.7999  -14.8464   25.6037 C   0  0  2  0  0  0  0  0  0  0  0  0
    7.2602  -15.6025   24.4284 N   0  0  0  0  0  0  0  0  0  0  0  0
    8.2098  -15.8007   26.6305 C   0  0  0  0  0  0  0  0  0  0  0  0
    7.7217  -17.1198   26.6819 O   0  0  0  0  0  0  0  0  0  0  0  0
    9.0180  -15.4993   27.5205 O   0  0  0  0  0  0  0  0  0  0  0  0
  1  2  1  0
  2  3  1  0
  4  3  1  0
  5  1  1  0
  5  4  1  0
  5  6  1  1
  7  6  2  0
  9  8  1  6
  9 11  1  0
 10  9  1  0
 11 13  1  0
 11 12  1  6
 12  6  1  0
 13 20  1  0
 14 13  2  0
 16 15  1  6
 16 17  1  0
 18 16  1  0
 19 18  1  1
 19 21  1  0
 20 19  1  0
 21 23  2  0
 21 22  1  0
M  END
$$$$
