PTL.pdb
     RDKit          3D

 23 23  0  0  1  0  0  0  0  0999 V2000
   11.3380  -18.7555   20.2340 N   0  0  0  0  0  0  0  0  0  0  0  0
   11.3109  -19.5777   19.0540 C   0  0  0  0  0  0  0  0  0  0  0  0
   10.6923  -18.6167   18.0320 C   0  0  0  0  0  0  0  0  0  0  0  0
   11.5172  -17.3577   18.3288 C   0  0  0  0  0  0  0  0  0  0  0  0
   11.5572  -17.3997   19.8379 C   0  0  1  0  0  0  0  0  0  0  0  0
   10.5053  -16.4783   20.3370 C   0  0  0  0  0  0  0  0  0  0  0  0
   10.5807  -15.2782   19.9904 O   0  0  0  0  0  0  0  0  0  0  0  0
    6.6064  -16.6238   19.9876 C   0  0  0  0  0  0  0  0  0  0  0  0
    7.0161  -16.5160   21.4203 C   0  0  1  0  0  0  0  0  0  0  0  0
    7.0010  -17.8007   21.9694 O   0  0  0  0  0  0  0  0  0  0  0  0
    8.4153  -15.9890   21.6104 C   0  0  2  0  0  0  0  0  0  0  0  0
    9.4415  -16.8682   21.1655 N   0  0  0  0  0  0  0  0  0  0  0  0
    8.5562  -15.6453   23.0492 C   0  0  0  0  0  0  0  0  0  0  0  0
    9.3313  -16.3750   23.7169 O   0  0  0  0  0  0  0  0  0  0  0  0
    5.8829  -11.7518   27.1147 C   0  0  0  0  0  0  0  0  0  0  0  0
    7.0914  -12.5219   26.7491 C   0  0  2  0  0  0  0  0  0  0  0  0
    8.3362  -11.6497   26.9954 C   0  0  0  0  0  0  0  0  0  0  0  0
    7.2186  -13.0864   25.3991 C   0  0  0  0  0  0  0  0  0  0  0  0
    8.0056  -14.2993   25.1311 C   0  0  2  0  0  0  0  0  0  0  0  0
    7.8828  -14.5792   23.6646 N   0  0  0  0  0  0  0  0  0  0  0  0
    7.7240  -15.5267   25.8707 C   0  0  0  0  0  0  0  0  0  0  0  0
    8.5684  -16.0143   26.8857 O   0  0  0  0  0  0  0  0  0  0  0  0
    6.7167  -16.2122   25.6441 O   0  0  0  0  0  0  0  0  0  0  0  0
  1  2  1  0
  2  3  1  0
  4  3  1  0
  5  1  1  0
  5  4  1  0
  5  6  1  1
  7  6  2  0
  9  8  1  6
  9 11  1  0
 10  9  1  0
 11 13  1  0
 11 12  1  1
 12  6  1  0
 13 20  1  0
 14 13  2  0
 16 15  1  6
 16 17  1  0
 18 16  1  0
 19 18  1  1
 19 21  1  0
 20 19  1  0
 21 23  2  0
 21 22  1  0
M  END
$$$$
