PTL.pdb
     RDKit          3D

 23 23  0  0  1  0  0  0  0  0999 V2000
    9.4611  -14.6034   18.1645 N   0  0  0  0  0  0  0  0  0  0  0  0
    8.8203  -14.4000   16.8928 C   0  0  0  0  0  0  0  0  0  0  0  0
    7.4311  -13.9201   17.3293 C   0  0  0  0  0  0  0  0  0  0  0  0
    7.8354  -12.8949   18.3966 C   0  0  0  0  0  0  0  0  0  0  0  0
    8.9532  -13.6383   19.0885 C   0  0  1  0  0  0  0  0  0  0  0  0
    8.3849  -14.2583   20.3121 C   0  0  0  0  0  0  0  0  0  0  0  0
    7.5626  -13.5824   20.9701 O   0  0  0  0  0  0  0  0  0  0  0  0
    8.0058  -18.4514   20.8895 C   0  0  0  0  0  0  0  0  0  0  0  0
    8.4281  -17.6249   22.0602 C   0  0  1  0  0  0  0  0  0  0  0  0
    9.8171  -17.7223   22.1763 O   0  0  0  0  0  0  0  0  0  0  0  0
    8.1162  -16.1582   21.9081 C   0  0  2  0  0  0  0  0  0  0  0  0
    8.7106  -15.5443   20.7706 N   0  0  0  0  0  0  0  0  0  0  0  0
    8.5184  -15.4967   23.1766 C   0  0  0  0  0  0  0  0  0  0  0  0
    9.6505  -14.9514   23.1789 O   0  0  0  0  0  0  0  0  0  0  0  0
    5.7151  -12.0807   27.2789 C   0  0  0  0  0  0  0  0  0  0  0  0
    6.9463  -12.8280   26.9430 C   0  0  2  0  0  0  0  0  0  0  0  0
    8.0983  -11.8284   26.7314 C   0  0  0  0  0  0  0  0  0  0  0  0
    6.9548  -13.7471   25.7974 C   0  0  0  0  0  0  0  0  0  0  0  0
    8.0821  -14.6531   25.5318 C   0  0  2  0  0  0  0  0  0  0  0  0
    7.7131  -15.4604   24.3250 N   0  0  0  0  0  0  0  0  0  0  0  0
    8.5505  -15.5572   26.5788 C   0  0  0  0  0  0  0  0  0  0  0  0
    8.1322  -16.8979   26.6698 O   0  0  0  0  0  0  0  0  0  0  0  0
    9.3500  -15.1906   27.4521 O   0  0  0  0  0  0  0  0  0  0  0  0
  1  2  1  0
  2  3  1  0
  4  3  1  0
  5  1  1  0
  5  4  1  0
  5  6  1  1
  7  6  2  0
  9  8  1  6
  9 11  1  0
 10  9  1  0
 11 13  1  0
 11 12  1  6
 12  6  1  0
 13 20  1  0
 14 13  2  0
 16 15  1  6
 16 17  1  0
 18 16  1  0
 19 18  1  1
 19 21  1  0
 20 19  1  0
 21 23  2  0
 21 22  1  0
M  END
$$$$
