PTL.pdb
     RDKit          3D

 23 23  0  0  1  0  0  0  0  0999 V2000
    8.9136  -14.6060   18.1197 N   0  0  0  0  0  0  0  0  0  0  0  0
    8.1804  -13.8428   17.1456 C   0  0  0  0  0  0  0  0  0  0  0  0
    7.1644  -13.1167   18.0351 C   0  0  0  0  0  0  0  0  0  0  0  0
    8.0975  -12.6365   19.1542 C   0  0  0  0  0  0  0  0  0  0  0  0
    8.9663  -13.8582   19.3367 C   0  0  1  0  0  0  0  0  0  0  0  0
    8.4336  -14.6137   20.4986 C   0  0  0  0  0  0  0  0  0  0  0  0
    7.2302  -14.4398   20.7945 O   0  0  0  0  0  0  0  0  0  0  0  0
    8.8607  -18.4835   21.2799 C   0  0  0  0  0  0  0  0  0  0  0  0
    9.1723  -17.6524   22.4817 C   0  0  1  0  0  0  0  0  0  0  0  0
   10.5622  -17.5721   22.5999 O   0  0  0  0  0  0  0  0  0  0  0  0
    8.6717  -16.2343   22.3816 C   0  0  2  0  0  0  0  0  0  0  0  0
    9.1907  -15.5028   21.2773 N   0  0  0  0  0  0  0  0  0  0  0  0
    8.9718  -15.5772   23.6802 C   0  0  0  0  0  0  0  0  0  0  0  0
   10.0356  -14.9100   23.7275 O   0  0  0  0  0  0  0  0  0  0  0  0
    8.2684  -11.8811   26.7703 C   0  0  0  0  0  0  0  0  0  0  0  0
    7.2253  -12.8030   26.2711 C   0  0  2  0  0  0  0  0  0  0  0  0
    5.8545  -12.3454   26.8029 C   0  0  0  0  0  0  0  0  0  0  0  0
    7.3337  -14.2435   26.5370 C   0  0  0  0  0  0  0  0  0  0  0  0
    8.5027  -15.0293   26.1152 C   0  0  2  0  0  0  0  0  0  0  0  0
    8.1444  -15.6706   24.8096 N   0  0  0  0  0  0  0  0  0  0  0  0
    9.0537  -16.0477   27.0053 C   0  0  0  0  0  0  0  0  0  0  0  0
    8.9465  -17.4263   26.7431 O   0  0  0  0  0  0  0  0  0  0  0  0
    9.6523  -15.7514   28.0494 O   0  0  0  0  0  0  0  0  0  0  0  0
  1  2  1  0
  2  3  1  0
  4  3  1  0
  5  1  1  0
  5  4  1  0
  5  6  1  1
  7  6  2  0
  9  8  1  6
  9 11  1  0
 10  9  1  0
 11 13  1  0
 11 12  1  6
 12  6  1  0
 13 20  1  0
 14 13  2  0
 16 15  1  1
 16 17  1  0
 18 16  1  0
 19 18  1  1
 19 21  1  0
 20 19  1  0
 21 23  2  0
 21 22  1  0
M  END
$$$$
