PTL.pdb
     RDKit          3D

 23 23  0  0  1  0  0  0  0  0999 V2000
    9.4013  -14.4105   18.5860 N   0  0  0  0  0  0  0  0  0  0  0  0
    8.7092  -13.9486   17.4127 C   0  0  0  0  0  0  0  0  0  0  0  0
    7.4018  -13.4272   18.0204 C   0  0  0  0  0  0  0  0  0  0  0  0
    7.9667  -12.6277   19.2016 C   0  0  0  0  0  0  0  0  0  0  0  0
    9.0456  -13.5677   19.6844 C   0  0  1  0  0  0  0  0  0  0  0  0
    8.4931  -14.3262   20.8349 C   0  0  0  0  0  0  0  0  0  0  0  0
    7.4204  -13.9160   21.3319 O   0  0  0  0  0  0  0  0  0  0  0  0
    8.5804  -18.4201   21.3300 C   0  0  0  0  0  0  0  0  0  0  0  0
    8.9722  -17.6406   22.5428 C   0  0  1  0  0  0  0  0  0  0  0  0
   10.3669  -17.6476   22.6260 O   0  0  0  0  0  0  0  0  0  0  0  0
    8.5567  -16.1928   22.4905 C   0  0  2  0  0  0  0  0  0  0  0  0
    9.0952  -15.4646   21.3932 N   0  0  0  0  0  0  0  0  0  0  0  0
    8.9246  -15.5899   23.7980 C   0  0  0  0  0  0  0  0  0  0  0  0
   10.0331  -14.9997   23.8405 O   0  0  0  0  0  0  0  0  0  0  0  0
    7.7689  -11.8032   26.0755 C   0  0  0  0  0  0  0  0  0  0  0  0
    6.9116  -13.0074   26.0304 C   0  0  2  0  0  0  0  0  0  0  0  0
    5.5203  -12.6545   26.5879 C   0  0  0  0  0  0  0  0  0  0  0  0
    7.3461  -14.2405   26.6999 C   0  0  0  0  0  0  0  0  0  0  0  0
    8.5080  -15.0129   26.2357 C   0  0  2  0  0  0  0  0  0  0  0  0
    8.1124  -15.6529   24.9404 N   0  0  0  0  0  0  0  0  0  0  0  0
    9.0988  -16.0290   27.1027 C   0  0  0  0  0  0  0  0  0  0  0  0
    9.8825  -15.7080   28.2269 O   0  0  0  0  0  0  0  0  0  0  0  0
    8.9405  -17.2405   26.8950 O   0  0  0  0  0  0  0  0  0  0  0  0
  1  2  1  0
  2  3  1  0
  4  3  1  0
  5  1  1  0
  5  4  1  0
  5  6  1  1
  7  6  2  0
  9  8  1  6
  9 11  1  0
 10  9  1  0
 11 13  1  0
 11 12  1  6
 12  6  1  0
 13 20  1  0
 14 13  2  0
 16 15  1  1
 16 17  1  0
 18 16  1  0
 19 18  1  1
 19 21  1  0
 20 19  1  0
 21 23  2  0
 21 22  1  0
M  END
$$$$
