PTL.pdb
     RDKit          3D

 23 23  0  0  1  0  0  0  0  0999 V2000
    9.2370  -14.7215   18.6705 N   0  0  0  0  0  0  0  0  0  0  0  0
    8.5979  -14.2858   17.4577 C   0  0  0  0  0  0  0  0  0  0  0  0
    7.4311  -13.4603   18.0124 C   0  0  0  0  0  0  0  0  0  0  0  0
    8.1758  -12.6416   19.0748 C   0  0  0  0  0  0  0  0  0  0  0  0
    9.0821  -13.6997   19.6579 C   0  0  1  0  0  0  0  0  0  0  0  0
    8.4433  -14.1962   20.9028 C   0  0  0  0  0  0  0  0  0  0  0  0
    8.0442  -13.3409   21.7246 O   0  0  0  0  0  0  0  0  0  0  0  0
    6.4492  -17.9425   21.0799 C   0  0  0  0  0  0  0  0  0  0  0  0
    7.2083  -17.5027   22.2892 C   0  0  1  0  0  0  0  0  0  0  0  0
    8.4479  -18.1472   22.2763 O   0  0  0  0  0  0  0  0  0  0  0  0
    7.4984  -16.0239   22.3155 C   0  0  2  0  0  0  0  0  0  0  0  0
    8.2613  -15.5535   21.2106 N   0  0  0  0  0  0  0  0  0  0  0  0
    8.1581  -15.7358   23.6155 C   0  0  0  0  0  0  0  0  0  0  0  0
    9.4145  -15.7238   23.6054 O   0  0  0  0  0  0  0  0  0  0  0  0
    7.9268  -11.8848   26.1125 C   0  0  0  0  0  0  0  0  0  0  0  0
    6.9273  -12.9639   26.2662 C   0  0  2  0  0  0  0  0  0  0  0  0
    5.7472  -12.4395   27.1049 C   0  0  0  0  0  0  0  0  0  0  0  0
    7.3270  -14.2550   26.8413 C   0  0  0  0  0  0  0  0  0  0  0  0
    8.1591  -15.2152   26.1011 C   0  0  2  0  0  0  0  0  0  0  0  0
    7.4577  -15.4866   24.8055 N   0  0  0  0  0  0  0  0  0  0  0  0
    8.5218  -16.4889   26.7169 C   0  0  0  0  0  0  0  0  0  0  0  0
    9.5190  -16.6004   27.7038 O   0  0  0  0  0  0  0  0  0  0  0  0
    7.9659  -17.5510   26.4024 O   0  0  0  0  0  0  0  0  0  0  0  0
  1  2  1  0
  2  3  1  0
  4  3  1  0
  5  1  1  0
  5  4  1  0
  5  6  1  1
  7  6  2  0
  9  8  1  6
  9 11  1  0
 10  9  1  0
 11 13  1  0
 11 12  1  6
 12  6  1  0
 13 20  1  0
 14 13  2  0
 16 15  1  1
 16 17  1  0
 18 16  1  0
 19 18  1  1
 19 21  1  0
 20 19  1  0
 21 23  2  0
 21 22  1  0
M  END
$$$$
