PTL.pdb
     RDKit          3D

 23 23  0  0  1  0  0  0  0  0999 V2000
    9.3558  -14.6010   18.6935 N   0  0  0  0  0  0  0  0  0  0  0  0
    8.7899  -14.2958   17.4067 C   0  0  0  0  0  0  0  0  0  0  0  0
    7.4814  -13.6058   17.8096 C   0  0  0  0  0  0  0  0  0  0  0  0
    8.0115  -12.6599   18.8948 C   0  0  0  0  0  0  0  0  0  0  0  0
    8.9798  -13.5713   19.6108 C   0  0  1  0  0  0  0  0  0  0  0  0
    8.2881  -14.0985   20.8141 C   0  0  0  0  0  0  0  0  0  0  0  0
    7.6855  -13.2746   21.5379 O   0  0  0  0  0  0  0  0  0  0  0  0
    6.7236  -18.0188   21.2080 C   0  0  0  0  0  0  0  0  0  0  0  0
    7.4639  -17.4534   22.3760 C   0  0  1  0  0  0  0  0  0  0  0  0
    8.7630  -17.9671   22.3509 O   0  0  0  0  0  0  0  0  0  0  0  0
    7.5995  -15.9528   22.3362 C   0  0  2  0  0  0  0  0  0  0  0  0
    8.2692  -15.4521   21.1851 N   0  0  0  0  0  0  0  0  0  0  0  0
    8.2718  -15.5457   23.5973 C   0  0  0  0  0  0  0  0  0  0  0  0
    9.5018  -15.3034   23.5129 O   0  0  0  0  0  0  0  0  0  0  0  0
    8.1630  -11.6921   25.7984 C   0  0  0  0  0  0  0  0  0  0  0  0
    7.0980  -12.6863   26.0521 C   0  0  2  0  0  0  0  0  0  0  0  0
    5.9849  -12.0275   26.8877 C   0  0  0  0  0  0  0  0  0  0  0  0
    7.4277  -13.9626   26.7000 C   0  0  0  0  0  0  0  0  0  0  0  0
    8.3092  -14.9547   26.0668 C   0  0  2  0  0  0  0  0  0  0  0  0
    7.6101  -15.4269   24.8290 N   0  0  0  0  0  0  0  0  0  0  0  0
    8.7592  -16.1176   26.8272 C   0  0  0  0  0  0  0  0  0  0  0  0
    8.3928  -17.4345   26.4916 O   0  0  0  0  0  0  0  0  0  0  0  0
    9.4957  -16.0082   27.8179 O   0  0  0  0  0  0  0  0  0  0  0  0
  1  2  1  0
  2  3  1  0
  4  3  1  0
  5  1  1  0
  5  4  1  0
  5  6  1  1
  7  6  2  0
  9  8  1  6
  9 11  1  0
 10  9  1  0
 11 13  1  0
 11 12  1  6
 12  6  1  0
 13 20  1  0
 14 13  2  0
 16 15  1  1
 16 17  1  0
 18 16  1  0
 19 18  1  1
 19 21  1  0
 20 19  1  0
 21 23  2  0
 21 22  1  0
M  END
$$$$
