PTL.pdb
     RDKit          3D

 23 23  0  0  1  0  0  0  0  0999 V2000
    9.2663  -14.7010   18.6172 N   0  0  0  0  0  0  0  0  0  0  0  0
    8.6676  -14.2586   17.3864 C   0  0  0  0  0  0  0  0  0  0  0  0
    7.4154  -13.5400   17.9022 C   0  0  0  0  0  0  0  0  0  0  0  0
    8.0384  -12.7185   19.0382 C   0  0  0  0  0  0  0  0  0  0  0  0
    8.9832  -13.7357   19.6327 C   0  0  1  0  0  0  0  0  0  0  0  0
    8.3118  -14.3281   20.8170 C   0  0  0  0  0  0  0  0  0  0  0  0
    7.4114  -13.6533   21.3647 O   0  0  0  0  0  0  0  0  0  0  0  0
    7.4819  -18.3614   21.4022 C   0  0  0  0  0  0  0  0  0  0  0  0
    8.0690  -17.6524   22.5788 C   0  0  1  0  0  0  0  0  0  0  0  0
    9.4312  -17.9590   22.6295 O   0  0  0  0  0  0  0  0  0  0  0  0
    7.9745  -16.1509   22.4882 C   0  0  2  0  0  0  0  0  0  0  0  0
    8.6226  -15.5872   21.3541 N   0  0  0  0  0  0  0  0  0  0  0  0
    8.5047  -15.6064   23.7652 C   0  0  0  0  0  0  0  0  0  0  0  0
    9.7120  -15.2580   23.7568 O   0  0  0  0  0  0  0  0  0  0  0  0
    7.8156  -11.7058   26.0352 C   0  0  0  0  0  0  0  0  0  0  0  0
    6.8865  -12.8495   26.1609 C   0  0  2  0  0  0  0  0  0  0  0  0
    5.6082  -12.3813   26.8805 C   0  0  0  0  0  0  0  0  0  0  0  0
    7.3298  -14.0827   26.8246 C   0  0  0  0  0  0  0  0  0  0  0  0
    8.3250  -14.9803   26.2197 C   0  0  2  0  0  0  0  0  0  0  0  0
    7.7377  -15.4724   24.9325 N   0  0  0  0  0  0  0  0  0  0  0  0
    8.8276  -16.1239   26.9765 C   0  0  0  0  0  0  0  0  0  0  0  0
    8.5863  -17.4561   26.5922 O   0  0  0  0  0  0  0  0  0  0  0  0
    9.5010  -15.9829   28.0074 O   0  0  0  0  0  0  0  0  0  0  0  0
  1  2  1  0
  2  3  1  0
  4  3  1  0
  5  1  1  0
  5  4  1  0
  5  6  1  1
  7  6  2  0
  9  8  1  6
  9 11  1  0
 10  9  1  0
 11 13  1  0
 11 12  1  6
 12  6  1  0
 13 20  1  0
 14 13  2  0
 16 15  1  1
 16 17  1  0
 18 16  1  0
 19 18  1  1
 19 21  1  0
 20 19  1  0
 21 23  2  0
 21 22  1  0
M  END
$$$$
