PTL.pdb
     RDKit          3D

 23 23  0  0  1  0  0  0  0  0999 V2000
    8.9897  -14.7495   18.0235 N   0  0  0  0  0  0  0  0  0  0  0  0
    8.3073  -14.1204   16.9245 C   0  0  0  0  0  0  0  0  0  0  0  0
    7.2014  -13.3520   17.6574 C   0  0  0  0  0  0  0  0  0  0  0  0
    8.0285  -12.7219   18.7854 C   0  0  0  0  0  0  0  0  0  0  0  0
    8.9227  -13.8809   19.1567 C   0  0  1  0  0  0  0  0  0  0  0  0
    8.3291  -14.5370   20.3490 C   0  0  0  0  0  0  0  0  0  0  0  0
    7.3112  -14.0080   20.8491 O   0  0  0  0  0  0  0  0  0  0  0  0
    8.2968  -18.6272   21.1112 C   0  0  0  0  0  0  0  0  0  0  0  0
    8.6498  -17.7655   22.2794 C   0  0  1  0  0  0  0  0  0  0  0  0
   10.0383  -17.7959   22.4319 O   0  0  0  0  0  0  0  0  0  0  0  0
    8.2739  -16.3173   22.0973 C   0  0  2  0  0  0  0  0  0  0  0  0
    8.8354  -15.7036   20.9431 N   0  0  0  0  0  0  0  0  0  0  0  0
    8.6537  -15.6113   23.3485 C   0  0  0  0  0  0  0  0  0  0  0  0
    9.7531  -15.0031   23.3263 O   0  0  0  0  0  0  0  0  0  0  0  0
    5.9521  -12.0214   27.2717 C   0  0  0  0  0  0  0  0  0  0  0  0
    7.1797  -12.7800   26.9480 C   0  0  2  0  0  0  0  0  0  0  0  0
    8.3188  -11.7880   26.6491 C   0  0  0  0  0  0  0  0  0  0  0  0
    7.1655  -13.7640   25.8575 C   0  0  0  0  0  0  0  0  0  0  0  0
    8.2191  -14.7787   25.7080 C   0  0  2  0  0  0  0  0  0  0  0  0
    7.8618  -15.5994   24.5068 N   0  0  0  0  0  0  0  0  0  0  0  0
    8.5265  -15.6766   26.8181 C   0  0  0  0  0  0  0  0  0  0  0  0
    7.9908  -16.9742   26.9181 O   0  0  0  0  0  0  0  0  0  0  0  0
    9.2835  -15.3428   27.7410 O   0  0  0  0  0  0  0  0  0  0  0  0
  1  2  1  0
  2  3  1  0
  4  3  1  0
  5  1  1  0
  5  4  1  0
  5  6  1  1
  7  6  2  0
  9  8  1  6
  9 11  1  0
 10  9  1  0
 11 13  1  0
 11 12  1  6
 12  6  1  0
 13 20  1  0
 14 13  2  0
 16 15  1  6
 16 17  1  0
 18 16  1  0
 19 18  1  1
 19 21  1  0
 20 19  1  0
 21 23  2  0
 21 22  1  0
M  END
$$$$
