CCV.pdb
     RDKit          3D

 20 19  0  0  1  0  0  0  0  0999 V2000
   20.0410  -14.1597  -17.0302 N   0  0  0  0  0  0  0  0  0  0  0  0
   18.7879  -13.5551  -16.6886 C   0  0  1  0  0  0  0  0  0  0  0  0
   17.8351  -14.5702  -16.0999 C   0  0  0  0  0  0  0  0  0  0  0  0
   17.3514  -15.6890  -17.4516 S   0  0  0  0  0  0  0  0  0  0  0  0
   19.0288  -12.4078  -15.7972 C   0  0  0  0  0  0  0  0  0  0  0  0
   19.8925  -12.4529  -14.9025 O   0  0  0  0  0  0  0  0  0  0  0  0
   18.2604  -11.2411  -15.9697 N   0  0  0  0  0  0  0  0  0  0  0  0
   18.5089  -10.1207  -15.0659 C   0  0  1  0  0  0  0  0  0  0  0  0
   19.3128   -9.1254  -15.8677 C   0  0  0  0  0  0  0  0  0  0  0  0
   19.5114   -7.5288  -15.0907 S   0  0  0  0  0  0  0  0  0  0  0  0
   17.2056   -9.5810  -14.6002 C   0  0  0  0  0  0  0  0  0  0  0  0
   16.2623   -9.4080  -15.4438 O   0  0  0  0  0  0  0  0  0  0  0  0
   14.4794  -10.6259  -12.2900 C   0  0  0  0  0  0  0  0  0  0  0  0
   14.9679   -9.2852  -11.8013 C   0  0  1  0  0  0  0  0  0  0  0  0
   15.8039   -9.4421  -10.5730 C   0  0  0  0  0  0  0  0  0  0  0  0
   15.6965   -8.5669  -12.9194 C   0  0  2  0  0  0  0  0  0  0  0  0
   16.9233   -9.2371  -13.2643 N   0  0  0  0  0  0  0  0  0  0  0  0
   16.0286   -7.1962  -12.4062 C   0  0  0  0  0  0  0  0  0  0  0  0
   15.1216   -6.3482  -12.2076 O   0  0  0  0  0  0  0  0  0  0  0  0
   17.3278   -6.7971  -12.1283 O   0  0  0  0  0  0  0  0  0  0  0  0
  2  1  1  1
  2  5  1  0
  3  2  1  0
  4  3  1  0
  5  6  2  0
  7  5  1  0
  7  8  1  0
  8  9  1  6
 10  9  1  0
 11  8  1  0
 11 12  2  0
 14 13  1  6
 14 15  1  0
 14 16  1  0
 16 18  1  0
 16 17  1  1
 17 11  1  0
 18 20  1  0
 19 18  2  0
M  END
$$$$
