CCV.pdb
     RDKit          3D

 20 19  0  0  1  0  0  0  0  0999 V2000
   22.6029  -10.3076  -15.2473 N   0  0  0  0  0  0  0  0  0  0  0  0
   21.5305   -9.5026  -15.7517 C   0  0  1  0  0  0  0  0  0  0  0  0
   20.2802  -10.3265  -15.9575 C   0  0  0  0  0  0  0  0  0  0  0  0
   20.4800  -11.2071  -17.5378 S   0  0  0  0  0  0  0  0  0  0  0  0
   21.3213   -8.3540  -14.8540 C   0  0  0  0  0  0  0  0  0  0  0  0
   21.5042   -8.4494  -13.6269 O   0  0  0  0  0  0  0  0  0  0  0  0
   20.9059   -7.1277  -15.4062 N   0  0  0  0  0  0  0  0  0  0  0  0
   20.7850   -5.9814  -14.5088 C   0  0  1  0  0  0  0  0  0  0  0  0
   22.1952   -5.4872  -14.2924 C   0  0  0  0  0  0  0  0  0  0  0  0
   22.3133   -3.9104  -13.4607 S   0  0  0  0  0  0  0  0  0  0  0  0
   19.9002   -4.9687  -15.1396 C   0  0  0  0  0  0  0  0  0  0  0  0
   20.0864   -4.6493  -16.3623 O   0  0  0  0  0  0  0  0  0  0  0  0
   15.7057   -2.5762  -15.5911 C   0  0  0  0  0  0  0  0  0  0  0  0
   16.5394   -3.6335  -14.9114 C   0  0  1  0  0  0  0  0  0  0  0  0
   16.1131   -5.0000  -15.3397 C   0  0  0  0  0  0  0  0  0  0  0  0
   18.0096   -3.3699  -15.1683 C   0  0  2  0  0  0  0  0  0  0  0  0
   18.8434   -4.3171  -14.4751 N   0  0  0  0  0  0  0  0  0  0  0  0
   18.3006   -1.9973  -14.6353 C   0  0  0  0  0  0  0  0  0  0  0  0
   18.6417   -1.8337  -13.4361 O   0  0  0  0  0  0  0  0  0  0  0  0
   18.2114   -0.8568  -15.4200 O   0  0  0  0  0  0  0  0  0  0  0  0
  2  1  1  1
  2  5  1  0
  3  2  1  0
  4  3  1  0
  5  6  2  0
  7  5  1  0
  7  8  1  0
  8  9  1  6
 10  9  1  0
 11  8  1  0
 11 12  2  0
 14 13  1  6
 14 15  1  0
 14 16  1  0
 16 18  1  0
 16 17  1  1
 17 11  1  0
 18 20  1  0
 19 18  2  0
M  END
$$$$
