CCV.pdb
     RDKit          3D

 20 19  0  0  1  0  0  0  0  0999 V2000
   27.6080  -21.8475  -15.8222 N   0  0  0  0  0  0  0  0  0  0  0  0
   26.5231  -22.7654  -16.0044 C   0  0  1  0  0  0  0  0  0  0  0  0
   27.0160  -24.1940  -16.0306 C   0  0  0  0  0  0  0  0  0  0  0  0
   28.3115  -24.2842  -17.3059 S   0  0  0  0  0  0  0  0  0  0  0  0
   25.5055  -22.5270  -14.9669 C   0  0  0  0  0  0  0  0  0  0  0  0
   25.8254  -22.2944  -13.7871 O   0  0  0  0  0  0  0  0  0  0  0  0
   24.1455  -22.5653  -15.3284 N   0  0  0  0  0  0  0  0  0  0  0  0
   23.1582  -22.2256  -14.3068 C   0  0  1  0  0  0  0  0  0  0  0  0
   23.3109  -20.7415  -14.0748 C   0  0  0  0  0  0  0  0  0  0  0  0
   22.1614  -20.0490  -12.8954 S   0  0  0  0  0  0  0  0  0  0  0  0
   21.8087  -22.6056  -14.7979 C   0  0  0  0  0  0  0  0  0  0  0  0
   21.4772  -22.3235  -15.9987 O   0  0  0  0  0  0  0  0  0  0  0  0
   20.2411  -25.9368  -15.1778 C   0  0  0  0  0  0  0  0  0  0  0  0
   19.2693  -25.1056  -14.3781 C   0  0  1  0  0  0  0  0  0  0  0  0
   19.2893  -25.5064  -12.9389 C   0  0  0  0  0  0  0  0  0  0  0  0
   19.5664  -23.6334  -14.5815 C   0  0  2  0  0  0  0  0  0  0  0  0
   20.8418  -23.2710  -14.0201 N   0  0  0  0  0  0  0  0  0  0  0  0
   18.4928  -22.8734  -13.8586 C   0  0  0  0  0  0  0  0  0  0  0  0
   18.7257  -22.3357  -12.7460 O   0  0  0  0  0  0  0  0  0  0  0  0
   17.2108  -22.7253  -14.3672 O   0  0  0  0  0  0  0  0  0  0  0  0
  2  1  1  1
  2  5  1  0
  3  2  1  0
  4  3  1  0
  5  6  2  0
  7  5  1  0
  7  8  1  0
  8  9  1  6
 10  9  1  0
 11  8  1  0
 11 12  2  0
 14 13  1  6
 14 15  1  0
 14 16  1  0
 16 18  1  0
 16 17  1  1
 17 11  1  0
 18 20  1  0
 19 18  2  0
M  END
$$$$
