CCV.pdb
     RDKit          3D

 20 19  0  0  1  0  0  0  0  0999 V2000
   15.5307  -14.5737  -16.6845 N   0  0  0  0  0  0  0  0  0  0  0  0
   16.2821  -13.9117  -15.6599 C   0  0  1  0  0  0  0  0  0  0  0  0
   17.4571  -14.7524  -15.2158 C   0  0  0  0  0  0  0  0  0  0  0  0
   16.8258  -15.9384  -13.9879 S   0  0  0  0  0  0  0  0  0  0  0  0
   16.6780  -12.5750  -16.1346 C   0  0  0  0  0  0  0  0  0  0  0  0
   17.1733  -12.4091  -17.2640 O   0  0  0  0  0  0  0  0  0  0  0  0
   16.4878  -11.4690  -15.2847 N   0  0  0  0  0  0  0  0  0  0  0  0
   16.8353  -10.1463  -15.7983 C   0  0  1  0  0  0  0  0  0  0  0  0
   15.6592   -9.2609  -15.4629 C   0  0  0  0  0  0  0  0  0  0  0  0
   16.0199   -7.5110  -15.4612 S   0  0  0  0  0  0  0  0  0  0  0  0
   18.1024   -9.7021  -15.1629 C   0  0  0  0  0  0  0  0  0  0  0  0
   18.2752   -9.8911  -13.9115 O   0  0  0  0  0  0  0  0  0  0  0  0
   22.7316   -8.0481  -15.3210 C   0  0  0  0  0  0  0  0  0  0  0  0
   21.5441   -8.6062  -16.0648 C   0  0  1  0  0  0  0  0  0  0  0  0
   21.8612   -9.9499  -16.6360 C   0  0  0  0  0  0  0  0  0  0  0  0
   20.3327   -8.6265  -15.1541 C   0  0  2  0  0  0  0  0  0  0  0  0
   19.1557   -9.0723  -15.8534 N   0  0  0  0  0  0  0  0  0  0  0  0
   20.1119   -7.2133  -14.6994 C   0  0  0  0  0  0  0  0  0  0  0  0
   20.7928   -6.7277  -13.7604 O   0  0  0  0  0  0  0  0  0  0  0  0
   19.1641   -6.3819  -15.2780 O   0  0  0  0  0  0  0  0  0  0  0  0
  2  1  1  6
  2  5  1  0
  3  2  1  0
  4  3  1  0
  5  6  2  0
  7  5  1  0
  7  8  1  0
  8  9  1  1
 10  9  1  0
 11  8  1  0
 11 12  2  0
 14 13  1  1
 14 15  1  0
 14 16  1  0
 16 18  1  0
 16 17  1  6
 17 11  1  0
 18 20  1  0
 19 18  2  0
M  END
$$$$
