CCV.pdb
     RDKit          3D

 20 19  0  0  1  0  0  0  0  0999 V2000
   18.5312  -13.0862  -15.5569 N   0  0  0  0  0  0  0  0  0  0  0  0
   18.1472  -11.9193  -16.2941 C   0  0  1  0  0  0  0  0  0  0  0  0
   16.6997  -11.9966  -16.7225 C   0  0  0  0  0  0  0  0  0  0  0  0
   16.6322  -13.1061  -18.1637 S   0  0  0  0  0  0  0  0  0  0  0  0
   18.4472  -10.7191  -15.4951 C   0  0  0  0  0  0  0  0  0  0  0  0
   18.3979  -10.7397  -14.2519 O   0  0  0  0  0  0  0  0  0  0  0  0
   18.7960   -9.5294  -16.1618 N   0  0  0  0  0  0  0  0  0  0  0  0
   19.1874   -8.3810  -15.3482 C   0  0  1  0  0  0  0  0  0  0  0  0
   20.6448   -8.5975  -15.0182 C   0  0  0  0  0  0  0  0  0  0  0  0
   21.4664   -7.1802  -14.3053 S   0  0  0  0  0  0  0  0  0  0  0  0
   18.9409   -7.1375  -16.1225 C   0  0  0  0  0  0  0  0  0  0  0  0
   19.4050   -7.0360  -17.3082 O   0  0  0  0  0  0  0  0  0  0  0  0
   15.7499   -5.6515  -17.3021 C   0  0  0  0  0  0  0  0  0  0  0  0
   16.4750   -4.5738  -16.5355 C   0  0  1  0  0  0  0  0  0  0  0  0
   15.8698   -4.3887  -15.1820 C   0  0  0  0  0  0  0  0  0  0  0  0
   17.9552   -4.8940  -16.4777 C   0  0  2  0  0  0  0  0  0  0  0  0
   18.2152   -6.0332  -15.6363 N   0  0  0  0  0  0  0  0  0  0  0  0
   18.6324   -3.6948  -15.8810 C   0  0  0  0  0  0  0  0  0  0  0  0
   19.0056   -3.7000  -14.6802 O   0  0  0  0  0  0  0  0  0  0  0  0
   18.8789   -2.5382  -16.6062 O   0  0  0  0  0  0  0  0  0  0  0  0
  2  1  1  1
  2  5  1  0
  3  2  1  0
  4  3  1  0
  5  6  2  0
  7  5  1  0
  7  8  1  0
  8  9  1  6
 10  9  1  0
 11  8  1  0
 11 12  2  0
 14 13  1  1
 14 15  1  0
 14 16  1  0
 16 18  1  0
 16 17  1  1
 17 11  1  0
 18 20  1  0
 19 18  2  0
M  END
$$$$
