CCV.pdb
     RDKit          3D

 20 19  0  0  1  0  0  0  0  0999 V2000
   20.3827  -12.8079  -17.5892 N   0  0  0  0  0  0  0  0  0  0  0  0
   20.5677  -11.4531  -18.0169 C   0  0  1  0  0  0  0  0  0  0  0  0
   20.0946  -11.2609  -19.4395 C   0  0  0  0  0  0  0  0  0  0  0  0
   21.4417  -11.8237  -20.5265 S   0  0  0  0  0  0  0  0  0  0  0  0
   19.9050  -10.5476  -17.0630 C   0  0  0  0  0  0  0  0  0  0  0  0
   18.6833  -10.6238  -16.8394 O   0  0  0  0  0  0  0  0  0  0  0  0
   20.6793   -9.5796  -16.3960 N   0  0  0  0  0  0  0  0  0  0  0  0
   19.9896   -8.6499  -15.5050 C   0  0  1  0  0  0  0  0  0  0  0  0
   20.6798   -8.7836  -14.1688 C   0  0  0  0  0  0  0  0  0  0  0  0
   20.1408   -7.6136  -12.9308 S   0  0  0  0  0  0  0  0  0  0  0  0
   20.0794   -7.2814  -16.0759 C   0  0  0  0  0  0  0  0  0  0  0  0
   21.2093   -6.8454  -16.4820 O   0  0  0  0  0  0  0  0  0  0  0  0
   18.5657   -5.6982  -19.0971 C   0  0  0  0  0  0  0  0  0  0  0  0
   18.1851   -4.8480  -17.9109 C   0  0  1  0  0  0  0  0  0  0  0  0
   16.7633   -5.0903  -17.5205 C   0  0  0  0  0  0  0  0  0  0  0  0
   19.1559   -5.0923  -16.7730 C   0  0  2  0  0  0  0  0  0  0  0  0
   18.9849   -6.4054  -16.2076 N   0  0  0  0  0  0  0  0  0  0  0  0
   18.8460   -4.0728  -15.7160 C   0  0  0  0  0  0  0  0  0  0  0  0
   19.1896   -2.8720  -15.8624 O   0  0  0  0  0  0  0  0  0  0  0  0
   18.1772   -4.3921  -14.5434 O   0  0  0  0  0  0  0  0  0  0  0  0
  2  1  1  1
  2  5  1  0
  3  2  1  0
  4  3  1  0
  5  6  2  0
  7  5  1  0
  7  8  1  0
  8  9  1  1
 10  9  1  0
 11  8  1  0
 11 12  2  0
 14 13  1  6
 14 15  1  0
 14 16  1  0
 16 18  1  0
 16 17  1  1
 17 11  1  0
 18 20  1  0
 19 18  2  0
M  END
$$$$
