CCV.pdb
     RDKit          3D

 20 19  0  0  1  0  0  0  0  0999 V2000
   17.1193  -12.1000  -15.2917 N   0  0  0  0  0  0  0  0  0  0  0  0
   16.7089  -10.7420  -15.0918 C   0  0  1  0  0  0  0  0  0  0  0  0
   15.2069  -10.6059  -15.1908 C   0  0  0  0  0  0  0  0  0  0  0  0
   14.7860  -10.6541  -16.9609 S   0  0  0  0  0  0  0  0  0  0  0  0
   17.2473  -10.2553  -13.8104 C   0  0  0  0  0  0  0  0  0  0  0  0
   17.3169  -10.9969  -12.8136 O   0  0  0  0  0  0  0  0  0  0  0  0
   17.6896   -8.9218  -13.7225 N   0  0  0  0  0  0  0  0  0  0  0  0
   18.1562   -8.4419  -12.4241 C   0  0  1  0  0  0  0  0  0  0  0  0
   19.5176   -7.8416  -12.6805 C   0  0  0  0  0  0  0  0  0  0  0  0
   20.1412   -6.8154  -11.3576 S   0  0  0  0  0  0  0  0  0  0  0  0
   17.1745   -7.4614  -11.8934 C   0  0  0  0  0  0  0  0  0  0  0  0
   16.7035   -6.5638  -12.6706 O   0  0  0  0  0  0  0  0  0  0  0  0
   13.7496   -7.5503  -10.6193 C   0  0  0  0  0  0  0  0  0  0  0  0
   14.5665   -6.9178   -9.5205 C   0  0  1  0  0  0  0  0  0  0  0  0
   14.7818   -7.8816   -8.3992 C   0  0  0  0  0  0  0  0  0  0  0  0
   15.8643   -6.3817  -10.0910 C   0  0  2  0  0  0  0  0  0  0  0  0
   16.7110   -7.4459  -10.5638 N   0  0  0  0  0  0  0  0  0  0  0  0
   16.5676   -5.6737   -8.9699 C   0  0  0  0  0  0  0  0  0  0  0  0
   17.5628   -6.1956   -8.4056 O   0  0  0  0  0  0  0  0  0  0  0  0
   16.1670   -4.4300   -8.5039 O   0  0  0  0  0  0  0  0  0  0  0  0
  2  1  1  1
  2  5  1  0
  3  2  1  0
  4  3  1  0
  5  6  2  0
  7  5  1  0
  7  8  1  0
  8  9  1  6
 10  9  1  0
 11  8  1  0
 11 12  2  0
 14 13  1  6
 14 15  1  0
 14 16  1  0
 16 18  1  0
 16 17  1  1
 17 11  1  0
 18 20  1  0
 19 18  2  0
M  END
$$$$
