CCV.pdb
     RDKit          3D

 20 19  0  0  1  0  0  0  0  0999 V2000
   32.8239  -24.4021  -15.5250 N   0  0  0  0  0  0  0  0  0  0  0  0
   32.2309  -25.2341  -16.5293 C   0  0  1  0  0  0  0  0  0  0  0  0
   33.1391  -26.3880  -16.8875 C   0  0  0  0  0  0  0  0  0  0  0  0
   32.3412  -27.2854  -18.2554 S   0  0  0  0  0  0  0  0  0  0  0  0
   30.8993  -25.6697  -16.0754 C   0  0  0  0  0  0  0  0  0  0  0  0
   30.5276  -25.4988  -14.9002 O   0  0  0  0  0  0  0  0  0  0  0  0
   30.0371  -26.2911  -16.9985 N   0  0  0  0  0  0  0  0  0  0  0  0
   28.6334  -26.4446  -16.6244 C   0  0  1  0  0  0  0  0  0  0  0  0
   28.0771  -25.0425  -16.5587 C   0  0  0  0  0  0  0  0  0  0  0  0
   26.2983  -24.9519  -16.4188 S   0  0  0  0  0  0  0  0  0  0  0  0
   27.9570  -27.2959  -17.6365 C   0  0  0  0  0  0  0  0  0  0  0  0
   28.1739  -27.0853  -18.8775 O   0  0  0  0  0  0  0  0  0  0  0  0
   26.3487  -31.0546  -16.6555 C   0  0  0  0  0  0  0  0  0  0  0  0
   26.9777  -30.6967  -17.9788 C   0  0  1  0  0  0  0  0  0  0  0  0
   26.5775  -31.6732  -19.0364 C   0  0  0  0  0  0  0  0  0  0  0  0
   26.6320  -29.2659  -18.3399 C   0  0  2  0  0  0  0  0  0  0  0  0
   27.0719  -28.3454  -17.3238 N   0  0  0  0  0  0  0  0  0  0  0  0
   25.1358  -29.1949  -18.4337 C   0  0  0  0  0  0  0  0  0  0  0  0
   24.4459  -28.8556  -17.4386 O   0  0  0  0  0  0  0  0  0  0  0  0
   24.4454  -29.4934  -19.5993 O   0  0  0  0  0  0  0  0  0  0  0  0
  2  1  1  1
  2  5  1  0
  3  2  1  0
  4  3  1  0
  5  6  2  0
  7  5  1  0
  7  8  1  0
  8  9  1  6
 10  9  1  0
 11  8  1  0
 11 12  2  0
 14 13  1  1
 14 15  1  0
 14 16  1  0
 16 18  1  0
 16 17  1  1
 17 11  1  0
 18 20  1  0
 19 18  2  0
M  END
$$$$
