CCV.pdb
     RDKit          3D

 20 19  0  0  1  0  0  0  0  0999 V2000
   17.4420  -12.2084  -16.8612 N   0  0  0  0  0  0  0  0  0  0  0  0
   17.7791  -10.8362  -17.0974 C   0  0  1  0  0  0  0  0  0  0  0  0
   16.5384   -9.9777  -17.1884 C   0  0  0  0  0  0  0  0  0  0  0  0
   15.7060  -10.4132  -18.7473 S   0  0  0  0  0  0  0  0  0  0  0  0
   18.7186  -10.3809  -16.0587 C   0  0  0  0  0  0  0  0  0  0  0  0
   18.8932  -11.0321  -15.0129 O   0  0  0  0  0  0  0  0  0  0  0  0
   19.4286   -9.1828  -16.2636 N   0  0  0  0  0  0  0  0  0  0  0  0
   20.4053   -8.7870  -15.2521 C   0  0  1  0  0  0  0  0  0  0  0  0
   21.5052   -9.8187  -15.3269 C   0  0  0  0  0  0  0  0  0  0  0  0
   22.9732   -9.4127  -14.3930 S   0  0  0  0  0  0  0  0  0  0  0  0
   20.8739   -7.4092  -15.5500 C   0  0  0  0  0  0  0  0  0  0  0  0
   21.1584   -7.0913  -16.7539 O   0  0  0  0  0  0  0  0  0  0  0  0
   19.3138   -4.2617  -13.9044 C   0  0  0  0  0  0  0  0  0  0  0  0
   20.1810   -4.1788  -15.1356 C   0  0  1  0  0  0  0  0  0  0  0  0
   20.5331   -2.7590  -15.4404 C   0  0  0  0  0  0  0  0  0  0  0  0
   21.4006   -5.0619  -14.9635 C   0  0  2  0  0  0  0  0  0  0  0  0
   21.0320   -6.4001  -14.5807 N   0  0  0  0  0  0  0  0  0  0  0  0
   22.2180   -4.4571  -13.8595 C   0  0  0  0  0  0  0  0  0  0  0  0
   22.9328   -3.4444  -14.0712 O   0  0  0  0  0  0  0  0  0  0  0  0
   22.2299   -4.9712  -12.5711 O   0  0  0  0  0  0  0  0  0  0  0  0
  2  1  1  1
  2  5  1  0
  3  2  1  0
  4  3  1  0
  5  6  2  0
  7  5  1  0
  7  8  1  0
  8  9  1  6
 10  9  1  0
 11  8  1  0
 11 12  2  0
 14 13  1  1
 14 15  1  0
 14 16  1  0
 16 18  1  0
 16 17  1  1
 17 11  1  0
 18 20  1  0
 19 18  2  0
M  END
$$$$
