CCV.pdb
     RDKit          3D

 20 19  0  0  1  0  0  0  0  0999 V2000
   21.9226  -15.7401  -20.3081 N   0  0  0  0  0  0  0  0  0  0  0  0
   20.9492  -14.8065  -20.7913 C   0  0  1  0  0  0  0  0  0  0  0  0
   19.5845  -15.4475  -20.8975 C   0  0  0  0  0  0  0  0  0  0  0  0
   19.4674  -16.1718  -22.5631 S   0  0  0  0  0  0  0  0  0  0  0  0
   20.9571  -13.6090  -19.9342 C   0  0  0  0  0  0  0  0  0  0  0  0
   20.9499  -13.7005  -18.6933 O   0  0  0  0  0  0  0  0  0  0  0  0
   20.9732  -12.3394  -20.5420 N   0  0  0  0  0  0  0  0  0  0  0  0
   21.0221  -11.1670  -19.6718 C   0  0  1  0  0  0  0  0  0  0  0  0
   22.4812  -10.7883  -19.5856 C   0  0  0  0  0  0  0  0  0  0  0  0
   23.2467  -10.4081  -21.1545 S   0  0  0  0  0  0  0  0  0  0  0  0
   20.1735  -10.0980  -20.2581 C   0  0  0  0  0  0  0  0  0  0  0  0
   20.2519   -9.8519  -21.5090 O   0  0  0  0  0  0  0  0  0  0  0  0
   16.3366   -9.6780  -20.0723 C   0  0  0  0  0  0  0  0  0  0  0  0
   17.0045   -8.3968  -19.6396 C   0  0  1  0  0  0  0  0  0  0  0  0
   16.9440   -8.2437  -18.1546 C   0  0  0  0  0  0  0  0  0  0  0  0
   18.4209   -8.3508  -20.1771 C   0  0  2  0  0  0  0  0  0  0  0  0
   19.2649   -9.3150  -19.5206 N   0  0  0  0  0  0  0  0  0  0  0  0
   18.9482   -6.9764  -19.8845 C   0  0  0  0  0  0  0  0  0  0  0  0
   18.5472   -5.9820  -20.5415 O   0  0  0  0  0  0  0  0  0  0  0  0
   19.8876   -6.7320  -18.8935 O   0  0  0  0  0  0  0  0  0  0  0  0
  2  1  1  1
  2  5  1  0
  3  2  1  0
  4  3  1  0
  5  6  2  0
  7  5  1  0
  7  8  1  0
  8  9  1  6
 10  9  1  0
 11  8  1  0
 11 12  2  0
 14 13  1  1
 14 15  1  0
 14 16  1  0
 16 18  1  0
 16 17  1  1
 17 11  1  0
 18 20  1  0
 19 18  2  0
M  END
$$$$
