CCV.pdb
     RDKit          3D

 20 19  0  0  1  0  0  0  0  0999 V2000
   17.6098  -14.6806  -17.7472 N   0  0  0  0  0  0  0  0  0  0  0  0
   17.4762  -13.2716  -17.9701 C   0  0  1  0  0  0  0  0  0  0  0  0
   16.2130  -12.7364  -17.3359 C   0  0  0  0  0  0  0  0  0  0  0  0
   14.8340  -13.1981  -18.4305 S   0  0  0  0  0  0  0  0  0  0  0  0
   18.6917  -12.5875  -17.4971 C   0  0  0  0  0  0  0  0  0  0  0  0
   19.2336  -12.8998  -16.4214 O   0  0  0  0  0  0  0  0  0  0  0  0
   19.2432  -11.5606  -18.2862 N   0  0  0  0  0  0  0  0  0  0  0  0
   20.4394  -10.8856  -17.7887 C   0  0  1  0  0  0  0  0  0  0  0  0
   21.2101  -10.4703  -19.0188 C   0  0  0  0  0  0  0  0  0  0  0  0
   22.5416   -9.3194  -18.7112 S   0  0  0  0  0  0  0  0  0  0  0  0
   20.0258   -9.7375  -16.9417 C   0  0  0  0  0  0  0  0  0  0  0  0
   19.0046   -9.0476  -17.2775 O   0  0  0  0  0  0  0  0  0  0  0  0
   21.2812   -9.1155  -12.9913 C   0  0  0  0  0  0  0  0  0  0  0  0
   20.0471   -8.4740  -13.5747 C   0  0  1  0  0  0  0  0  0  0  0  0
   19.6551   -7.2668  -12.7864 C   0  0  0  0  0  0  0  0  0  0  0  0
   20.2734   -8.1689  -15.0419 C   0  0  2  0  0  0  0  0  0  0  0  0
   20.6909   -9.3417  -15.7654 N   0  0  0  0  0  0  0  0  0  0  0  0
   21.3747   -7.1511  -15.1053 C   0  0  0  0  0  0  0  0  0  0  0  0
   21.1653   -5.9574  -14.7699 O   0  0  0  0  0  0  0  0  0  0  0  0
   22.6581   -7.4645  -15.5286 O   0  0  0  0  0  0  0  0  0  0  0  0
  2  1  1  1
  2  5  1  0
  3  2  1  0
  4  3  1  0
  5  6  2  0
  7  5  1  0
  7  8  1  0
  8  9  1  6
 10  9  1  0
 11  8  1  0
 11 12  2  0
 14 13  1  1
 14 15  1  0
 14 16  1  0
 16 18  1  0
 16 17  1  6
 17 11  1  0
 18 20  1  0
 19 18  2  0
M  END
$$$$
