CCV.pdb
     RDKit          3D

 20 19  0  0  1  0  0  0  0  0999 V2000
   22.2156  -13.8429  -16.5135 N   0  0  0  0  0  0  0  0  0  0  0  0
   21.6257  -12.6920  -17.1300 C   0  0  1  0  0  0  0  0  0  0  0  0
   20.4038  -13.0706  -17.9351 C   0  0  0  0  0  0  0  0  0  0  0  0
   19.8548  -11.5680  -18.8032 S   0  0  0  0  0  0  0  0  0  0  0  0
   21.3439  -11.6791  -16.0988 C   0  0  0  0  0  0  0  0  0  0  0  0
   20.5365  -11.8995  -15.1780 O   0  0  0  0  0  0  0  0  0  0  0  0
   22.0074  -10.4394  -16.1658 N   0  0  0  0  0  0  0  0  0  0  0  0
   21.6196   -9.4055  -15.2094 C   0  0  1  0  0  0  0  0  0  0  0  0
   22.8454   -9.1572  -14.3636 C   0  0  0  0  0  0  0  0  0  0  0  0
   24.1117  -10.4103  -14.4999 S   0  0  0  0  0  0  0  0  0  0  0  0
   21.1712   -8.2030  -15.9575 C   0  0  0  0  0  0  0  0  0  0  0  0
   21.6637   -7.9640  -17.1116 O   0  0  0  0  0  0  0  0  0  0  0  0
   17.4325   -6.8920  -15.8595 C   0  0  0  0  0  0  0  0  0  0  0  0
   18.4179   -6.5035  -16.9333 C   0  0  1  0  0  0  0  0  0  0  0  0
   17.8890   -5.3714  -17.7525 C   0  0  0  0  0  0  0  0  0  0  0  0
   19.7633   -6.1963  -16.3069 C   0  0  2  0  0  0  0  0  0  0  0  0
   20.2191   -7.2826  -15.4790 N   0  0  0  0  0  0  0  0  0  0  0  0
   19.5693   -4.9852  -15.4419 C   0  0  0  0  0  0  0  0  0  0  0  0
   19.5759   -3.8316  -15.9424 O   0  0  0  0  0  0  0  0  0  0  0  0
   19.3759   -5.0696  -14.0709 O   0  0  0  0  0  0  0  0  0  0  0  0
  2  1  1  1
  2  5  1  0
  3  2  1  0
  4  3  1  0
  5  6  2  0
  7  5  1  0
  7  8  1  0
  8  9  1  1
 10  9  1  0
 11  8  1  0
 11 12  2  0
 14 13  1  1
 14 15  1  0
 14 16  1  0
 16 18  1  0
 16 17  1  1
 17 11  1  0
 18 20  1  0
 19 18  2  0
M  END
$$$$
