CCV.pdb
     RDKit          3D

 20 19  0  0  1  0  0  0  0  0999 V2000
   22.4136  -13.8972  -16.8777 N   0  0  0  0  0  0  0  0  0  0  0  0
   22.7227  -12.7566  -16.0676 C   0  0  1  0  0  0  0  0  0  0  0  0
   24.2166  -12.5589  -15.9513 C   0  0  0  0  0  0  0  0  0  0  0  0
   24.8552  -13.9300  -14.9387 S   0  0  0  0  0  0  0  0  0  0  0  0
   22.0263  -11.5756  -16.6054 C   0  0  0  0  0  0  0  0  0  0  0  0
   21.6034  -11.5501  -17.7754 O   0  0  0  0  0  0  0  0  0  0  0  0
   21.8407  -10.4581  -15.7699 N   0  0  0  0  0  0  0  0  0  0  0  0
   21.0636   -9.3370  -16.2926 C   0  0  1  0  0  0  0  0  0  0  0  0
   19.6178   -9.7525  -16.1633 C   0  0  0  0  0  0  0  0  0  0  0  0
   18.4436   -8.4103  -16.2733 S   0  0  0  0  0  0  0  0  0  0  0  0
   21.3944   -8.1176  -15.5114 C   0  0  0  0  0  0  0  0  0  0  0  0
   21.4656   -8.1899  -14.2382 O   0  0  0  0  0  0  0  0  0  0  0  0
   24.2197   -5.4563  -16.3999 C   0  0  0  0  0  0  0  0  0  0  0  0
   22.9252   -4.7767  -16.0294 C   0  0  1  0  0  0  0  0  0  0  0  0
   22.2552   -4.2173  -17.2421 C   0  0  0  0  0  0  0  0  0  0  0  0
   22.0418   -5.7406  -15.2628 C   0  0  2  0  0  0  0  0  0  0  0  0
   21.6425   -6.8547  -16.0828 N   0  0  0  0  0  0  0  0  0  0  0  0
   20.8134   -4.9755  -14.8650 C   0  0  0  0  0  0  0  0  0  0  0  0
   19.7260   -5.1466  -15.4730 O   0  0  0  0  0  0  0  0  0  0  0  0
   20.8096   -4.0564  -13.8260 O   0  0  0  0  0  0  0  0  0  0  0  0
  2  1  1  6
  2  5  1  0
  3  2  1  0
  4  3  1  0
  5  6  2  0
  7  5  1  0
  7  8  1  0
  8  9  1  1
 10  9  1  0
 11  8  1  0
 11 12  2  0
 14 13  1  6
 14 15  1  0
 14 16  1  0
 16 18  1  0
 16 17  1  6
 17 11  1  0
 18 20  1  0
 19 18  2  0
M  END
$$$$
