VKR.pdb
     RDKit          3D

 28 27  0  0  1  0  0  0  0  0999 V2000
   32.8681  -12.7266  -21.6043 C   0  0  0  0  0  0  0  0  0  0  0  0
   32.7036  -14.1215  -21.0428 C   0  0  1  0  0  0  0  0  0  0  0  0
   33.1992  -15.1026  -22.0611 C   0  0  0  0  0  0  0  0  0  0  0  0
   33.4662  -14.2210  -19.7398 C   0  0  2  0  0  0  0  0  0  0  0  0
   33.3526  -15.5454  -19.1572 N   0  0  0  0  0  0  0  0  0  0  0  0
   32.9638  -13.1958  -18.7901 C   0  0  0  0  0  0  0  0  0  0  0  0
   31.9108  -13.4516  -18.1208 O   0  0  0  0  0  0  0  0  0  0  0  0
   33.6098  -11.9413  -18.5962 N   0  0  0  0  0  0  0  0  0  0  0  0
   33.0637  -10.9456  -17.6473 C   0  0  1  0  0  0  0  0  0  0  0  0
   34.2392  -10.0868  -17.2741 C   0  0  0  0  0  0  0  0  0  0  0  0
   34.5122   -9.9523  -15.8234 C   0  0  0  0  0  0  0  0  0  0  0  0
   35.7848   -9.1464  -15.5544 C   0  0  0  0  0  0  0  0  0  0  0  0
   36.0843   -9.1306  -14.0604 C   0  0  0  0  0  0  0  0  0  0  0  0
   37.2615   -8.3185  -13.8473 N   0  0  0  0  0  0  0  0  0  0  0  0
   31.9617  -10.2469  -18.3076 C   0  0  0  0  0  0  0  0  0  0  0  0
   32.1646   -9.7754  -19.4716 O   0  0  0  0  0  0  0  0  0  0  0  0
   23.1714   -9.5934  -18.1939 N   0  0  0  0  0  0  0  0  0  0  0  0
   23.6339  -10.1096  -19.4489 C   0  0  0  0  0  0  0  0  0  0  0  0
   22.8238  -10.1935  -20.4460 N   0  0  0  0  0  0  0  0  0  0  0  0
   24.9780  -10.5322  -19.6125 N   0  0  0  0  0  0  0  0  0  0  0  0
   25.9460  -10.4596  -18.5143 C   0  0  0  0  0  0  0  0  0  0  0  0
   27.2202   -9.8683  -19.0921 C   0  0  0  0  0  0  0  0  0  0  0  0
   28.2571   -9.7621  -18.0134 C   0  0  0  0  0  0  0  0  0  0  0  0
   29.6112   -9.3007  -18.4958 C   0  0  2  0  0  0  0  0  0  0  0  0
   30.6742  -10.0348  -17.7916 N   0  0  0  0  0  0  0  0  0  0  0  0
   29.7753   -7.8794  -18.1510 C   0  0  0  0  0  0  0  0  0  0  0  0
   30.2552   -7.5717  -17.0368 O   0  0  0  0  0  0  0  0  0  0  0  0
   29.4251   -6.8481  -19.0002 O   0  0  0  0  0  0  0  0  0  0  0  0
  2  1  1  6
  3  2  1  0
  4  2  1  0
  4  5  1  1
  6  7  2  0
  6  4  1  0
  8  6  1  0
  9  8  1  0
  9 10  1  6
 11 10  1  0
 12 11  1  0
 13 14  1  0
 13 12  1  0
 15 16  2  0
 15  9  1  0
 18 17  1  0
 19 18  2  0
 20 18  1  0
 21 22  1  0
 21 20  1  0
 22 23  1  0
 24 23  1  1
 24 25  1  0
 25 15  1  0
 26 24  1  0
 27 26  2  0
 28 26  1  0
M  END
$$$$
