VKR.pdb
     RDKit          3D

 28 27  0  0  1  0  0  0  0  0999 V2000
   28.6023  -17.4486  -19.1377 C   0  0  0  0  0  0  0  0  0  0  0  0
   28.2648  -15.9917  -19.3644 C   0  0  1  0  0  0  0  0  0  0  0  0
   28.9381  -15.5410  -20.6248 C   0  0  0  0  0  0  0  0  0  0  0  0
   26.7612  -15.8400  -19.4379 C   0  0  2  0  0  0  0  0  0  0  0  0
   26.3761  -14.4570  -19.6510 N   0  0  0  0  0  0  0  0  0  0  0  0
   26.1474  -16.3590  -18.1892 C   0  0  0  0  0  0  0  0  0  0  0  0
   26.3528  -15.7265  -17.1028 O   0  0  0  0  0  0  0  0  0  0  0  0
   25.3396  -17.5316  -18.1560 N   0  0  0  0  0  0  0  0  0  0  0  0
   24.7888  -18.0372  -16.8789 C   0  0  1  0  0  0  0  0  0  0  0  0
   23.4681  -18.6523  -17.2478 C   0  0  0  0  0  0  0  0  0  0  0  0
   22.7542  -19.3617  -16.1595 C   0  0  0  0  0  0  0  0  0  0  0  0
   21.5158  -20.0984  -16.6747 C   0  0  0  0  0  0  0  0  0  0  0  0
   20.7820  -20.7572  -15.5132 C   0  0  0  0  0  0  0  0  0  0  0  0
   19.5888  -21.3857  -16.0348 N   0  0  0  0  0  0  0  0  0  0  0  0
   25.7663  -18.9552  -16.2953 C   0  0  0  0  0  0  0  0  0  0  0  0
   26.3332  -19.7937  -17.0658 O   0  0  0  0  0  0  0  0  0  0  0  0
   25.7817  -19.0431   -9.8180 N   0  0  0  0  0  0  0  0  0  0  0  0
   25.5743  -20.4616   -9.8112 C   0  0  0  0  0  0  0  0  0  0  0  0
   24.4755  -20.9472   -9.3482 N   0  0  0  0  0  0  0  0  0  0  0  0
   26.5653  -21.3457  -10.3095 N   0  0  0  0  0  0  0  0  0  0  0  0
   27.8788  -20.8620  -10.7443 C   0  0  0  0  0  0  0  0  0  0  0  0
   27.9298  -21.0296  -12.2530 C   0  0  0  0  0  0  0  0  0  0  0  0
   27.0963  -19.9655  -12.9036 C   0  0  0  0  0  0  0  0  0  0  0  0
   27.1215  -19.9922  -14.4129 C   0  0  2  0  0  0  0  0  0  0  0  0
   26.1613  -19.0154  -14.9503 N   0  0  0  0  0  0  0  0  0  0  0  0
   26.6781  -21.3196  -14.8683 C   0  0  0  0  0  0  0  0  0  0  0  0
   25.4543  -21.5808  -14.8925 O   0  0  0  0  0  0  0  0  0  0  0  0
   27.5488  -22.3101  -15.2781 O   0  0  0  0  0  0  0  0  0  0  0  0
  2  1  1  6
  3  2  1  0
  4  2  1  0
  4  5  1  1
  6  7  2  0
  6  4  1  0
  8  6  1  0
  9  8  1  0
  9 10  1  6
 11 10  1  0
 12 11  1  0
 13 14  1  0
 13 12  1  0
 15 16  2  0
 15  9  1  0
 18 17  1  0
 19 18  2  0
 20 18  1  0
 21 22  1  0
 21 20  1  0
 22 23  1  0
 24 23  1  1
 24 25  1  0
 25 15  1  0
 26 24  1  0
 27 26  2  0
 28 26  1  0
M  END
$$$$
