VKR.pdb
     RDKit          3D

 28 27  0  0  1  0  0  0  0  0999 V2000
   26.7661   -9.9657  -15.4564 C   0  0  0  0  0  0  0  0  0  0  0  0
   26.7401  -11.3311  -16.1069 C   0  0  1  0  0  0  0  0  0  0  0  0
   28.0354  -12.0222  -15.8074 C   0  0  0  0  0  0  0  0  0  0  0  0
   25.5494  -12.1037  -15.5829 C   0  0  2  0  0  0  0  0  0  0  0  0
   25.5480  -13.4716  -16.0681 N   0  0  0  0  0  0  0  0  0  0  0  0
   24.2954  -11.4149  -15.9808 C   0  0  0  0  0  0  0  0  0  0  0  0
   23.8927  -11.5329  -17.1834 O   0  0  0  0  0  0  0  0  0  0  0  0
   23.5255  -10.6302  -15.0752 N   0  0  0  0  0  0  0  0  0  0  0  0
   22.2332  -10.0412  -15.4914 C   0  0  1  0  0  0  0  0  0  0  0  0
   21.2324  -10.5787  -14.5075 C   0  0  0  0  0  0  0  0  0  0  0  0
   20.5858  -11.8618  -14.8722 C   0  0  0  0  0  0  0  0  0  0  0  0
   19.4179  -11.6577  -15.8395 C   0  0  0  0  0  0  0  0  0  0  0  0
   18.6980  -12.9804  -16.0720 C   0  0  0  0  0  0  0  0  0  0  0  0
   17.7060  -12.7761  -17.1040 N   0  0  0  0  0  0  0  0  0  0  0  0
   22.3809   -8.5863  -15.5035 C   0  0  0  0  0  0  0  0  0  0  0  0
   22.8109   -8.0203  -14.4486 O   0  0  0  0  0  0  0  0  0  0  0  0
   20.9654   -3.1088  -22.0493 N   0  0  0  0  0  0  0  0  0  0  0  0
   20.1670   -3.2108  -20.8630 C   0  0  0  0  0  0  0  0  0  0  0  0
   18.8999   -2.9901  -20.9214 N   0  0  0  0  0  0  0  0  0  0  0  0
   20.7525   -3.5534  -19.6173 N   0  0  0  0  0  0  0  0  0  0  0  0
   22.1949   -3.7748  -19.4807 C   0  0  0  0  0  0  0  0  0  0  0  0
   22.4342   -4.2334  -18.0525 C   0  0  0  0  0  0  0  0  0  0  0  0
   22.1740   -5.7071  -17.9494 C   0  0  0  0  0  0  0  0  0  0  0  0
   22.3756   -6.2787  -16.5667 C   0  0  2  0  0  0  0  0  0  0  0  0
   22.0979   -7.7236  -16.5733 N   0  0  0  0  0  0  0  0  0  0  0  0
   21.3990   -5.6618  -15.6546 C   0  0  0  0  0  0  0  0  0  0  0  0
   20.2533   -6.1564  -15.5598 O   0  0  0  0  0  0  0  0  0  0  0  0
   21.6786   -4.5505  -14.8839 O   0  0  0  0  0  0  0  0  0  0  0  0
  2  1  1  1
  3  2  1  0
  4  2  1  0
  4  5  1  6
  6  7  2  0
  6  4  1  0
  8  6  1  0
  9  8  1  0
  9 10  1  1
 11 10  1  0
 12 11  1  0
 13 14  1  0
 13 12  1  0
 15 16  2  0
 15  9  1  0
 18 17  1  0
 19 18  2  0
 20 18  1  0
 21 22  1  0
 21 20  1  0
 22 23  1  0
 24 23  1  6
 24 25  1  0
 25 15  1  0
 26 24  1  0
 27 26  2  0
 28 26  1  0
M  END
$$$$
