VKR.pdb
     RDKit          3D

 28 27  0  0  1  0  0  0  0  0999 V2000
   25.4906  -24.5950  -16.9351 C   0  0  0  0  0  0  0  0  0  0  0  0
   24.5840  -23.9577  -15.9055 C   0  0  1  0  0  0  0  0  0  0  0  0
   24.8934  -24.5569  -14.5675 C   0  0  0  0  0  0  0  0  0  0  0  0
   24.7979  -22.4600  -15.9206 C   0  0  2  0  0  0  0  0  0  0  0  0
   26.1887  -22.1191  -15.6841 N   0  0  0  0  0  0  0  0  0  0  0  0
   23.9304  -21.8234  -14.8970 C   0  0  0  0  0  0  0  0  0  0  0  0
   24.4564  -21.4613  -13.7950 O   0  0  0  0  0  0  0  0  0  0  0  0
   22.5378  -21.6008  -15.0964 N   0  0  0  0  0  0  0  0  0  0  0  0
   21.7130  -20.9662  -14.0443 C   0  0  1  0  0  0  0  0  0  0  0  0
   21.1716  -19.7178  -14.6825 C   0  0  0  0  0  0  0  0  0  0  0  0
   20.2657  -18.8982  -13.8430 C   0  0  0  0  0  0  0  0  0  0  0  0
   19.6162  -17.7659  -14.6414 C   0  0  0  0  0  0  0  0  0  0  0  0
   18.6881  -16.9603  -13.7407 C   0  0  0  0  0  0  0  0  0  0  0  0
   18.1952  -15.8319  -14.4987 N   0  0  0  0  0  0  0  0  0  0  0  0
   20.7070  -21.9350  -13.6107 C   0  0  0  0  0  0  0  0  0  0  0  0
   20.0252  -22.5297  -14.5049 O   0  0  0  0  0  0  0  0  0  0  0  0
   17.9170  -25.2469   -5.6045 N   0  0  0  0  0  0  0  0  0  0  0  0
   17.3820  -26.0489   -6.6657 C   0  0  0  0  0  0  0  0  0  0  0  0
   16.7631  -27.1443   -6.3928 N   0  0  0  0  0  0  0  0  0  0  0  0
   17.5234  -25.6536   -8.0206 N   0  0  0  0  0  0  0  0  0  0  0  0
   18.6118  -24.7734   -8.4553 C   0  0  0  0  0  0  0  0  0  0  0  0
   18.4119  -24.5309   -9.9413 C   0  0  0  0  0  0  0  0  0  0  0  0
   19.4621  -23.5829  -10.4398 C   0  0  0  0  0  0  0  0  0  0  0  0
   19.3657  -23.2669  -11.9129 C   0  0  2  0  0  0  0  0  0  0  0  0
   20.4032  -22.2937  -12.2886 N   0  0  0  0  0  0  0  0  0  0  0  0
   18.0667  -22.6260  -12.1735 C   0  0  0  0  0  0  0  0  0  0  0  0
   17.9263  -21.4066  -11.9292 O   0  0  0  0  0  0  0  0  0  0  0  0
   16.9756  -23.3035  -12.6812 O   0  0  0  0  0  0  0  0  0  0  0  0
  2  1  1  6
  3  2  1  0
  4  2  1  0
  4  5  1  1
  6  7  2  0
  6  4  1  0
  8  6  1  0
  9  8  1  0
  9 10  1  6
 11 10  1  0
 12 11  1  0
 13 14  1  0
 13 12  1  0
 15 16  2  0
 15  9  1  0
 18 17  1  0
 19 18  2  0
 20 18  1  0
 21 22  1  0
 21 20  1  0
 22 23  1  0
 24 23  1  1
 24 25  1  0
 25 15  1  0
 26 24  1  0
 27 26  2  0
 28 26  1  0
M  END
$$$$
