VKR.pdb
     RDKit          3D

 28 27  0  0  1  0  0  0  0  0999 V2000
   23.3572  -21.5432   -9.4533 C   0  0  0  0  0  0  0  0  0  0  0  0
   23.6892  -20.7755  -10.7136 C   0  0  1  0  0  0  0  0  0  0  0  0
   22.9787  -19.4572  -10.6653 C   0  0  0  0  0  0  0  0  0  0  0  0
   25.1901  -20.6090  -10.8080 C   0  0  2  0  0  0  0  0  0  0  0  0
   25.7213  -19.9107   -9.6519 N   0  0  0  0  0  0  0  0  0  0  0  0
   25.5318  -19.8767  -12.0539 C   0  0  0  0  0  0  0  0  0  0  0  0
   25.7360  -18.6214  -11.9843 O   0  0  0  0  0  0  0  0  0  0  0  0
   25.6413  -20.5185  -13.3208 N   0  0  0  0  0  0  0  0  0  0  0  0
   25.9762  -19.7444  -14.5367 C   0  0  1  0  0  0  0  0  0  0  0  0
   27.0251  -20.5630  -15.2355 C   0  0  0  0  0  0  0  0  0  0  0  0
   27.5052  -20.0336  -16.5342 C   0  0  0  0  0  0  0  0  0  0  0  0
   28.6385  -20.8833  -17.1132 C   0  0  0  0  0  0  0  0  0  0  0  0
   29.2177  -20.2055  -18.3488 C   0  0  0  0  0  0  0  0  0  0  0  0
   28.1251  -19.8932  -19.2430 N   0  0  0  0  0  0  0  0  0  0  0  0
   24.7423  -19.5303  -15.2920 C   0  0  0  0  0  0  0  0  0  0  0  0
   23.9221  -20.4982  -15.3841 O   0  0  0  0  0  0  0  0  0  0  0  0
   21.3200  -12.6754  -20.1666 N   0  0  0  0  0  0  0  0  0  0  0  0
   20.4025  -13.7756  -20.2205 C   0  0  0  0  0  0  0  0  0  0  0  0
   19.2686  -13.6371  -20.8142 N   0  0  0  0  0  0  0  0  0  0  0  0
   20.7246  -15.0232  -19.6273 N   0  0  0  0  0  0  0  0  0  0  0  0
   21.9383  -15.2029  -18.8255 C   0  0  0  0  0  0  0  0  0  0  0  0
   21.8873  -16.6132  -18.2638 C   0  0  0  0  0  0  0  0  0  0  0  0
   23.1107  -16.8662  -17.4336 C   0  0  0  0  0  0  0  0  0  0  0  0
   23.1462  -18.2251  -16.7767 C   0  0  2  0  0  0  0  0  0  0  0  0
   24.3500  -18.3491  -15.9399 N   0  0  0  0  0  0  0  0  0  0  0  0
   23.2488  -19.2529  -17.8250 C   0  0  0  0  0  0  0  0  0  0  0  0
   24.3725  -19.5314  -18.3006 O   0  0  0  0  0  0  0  0  0  0  0  0
   22.1588  -19.9399  -18.3221 O   0  0  0  0  0  0  0  0  0  0  0  0
  2  1  1  1
  3  2  1  0
  4  2  1  0
  4  5  1  1
  6  7  2  0
  6  4  1  0
  8  6  1  0
  9  8  1  0
  9 10  1  6
 11 10  1  0
 12 11  1  0
 13 14  1  0
 13 12  1  0
 15 16  2  0
 15  9  1  0
 18 17  1  0
 19 18  2  0
 20 18  1  0
 21 22  1  0
 21 20  1  0
 22 23  1  0
 24 23  1  6
 24 25  1  0
 25 15  1  0
 26 24  1  0
 27 26  2  0
 28 26  1  0
M  END
$$$$
