VKR.pdb
     RDKit          3D

 28 27  0  0  1  0  0  0  0  0999 V2000
   26.2683  -19.3272  -18.0704 C   0  0  0  0  0  0  0  0  0  0  0  0
   25.1729  -19.8881  -17.1909 C   0  0  1  0  0  0  0  0  0  0  0  0
   24.7783  -21.2310  -17.7256 C   0  0  0  0  0  0  0  0  0  0  0  0
   25.6777  -19.9694  -15.7669 C   0  0  2  0  0  0  0  0  0  0  0  0
   26.8046  -20.8770  -15.6533 N   0  0  0  0  0  0  0  0  0  0  0  0
   24.5747  -20.4034  -14.8722 C   0  0  0  0  0  0  0  0  0  0  0  0
   24.5346  -21.6221  -14.5043 O   0  0  0  0  0  0  0  0  0  0  0  0
   23.5623  -19.5151  -14.4088 N   0  0  0  0  0  0  0  0  0  0  0  0
   22.5373  -19.9708  -13.4436 C   0  0  1  0  0  0  0  0  0  0  0  0
   22.0460  -18.7130  -12.7838 C   0  0  0  0  0  0  0  0  0  0  0  0
   20.8672  -18.8610  -11.8974 C   0  0  0  0  0  0  0  0  0  0  0  0
   21.2501  -19.4271  -10.5283 C   0  0  0  0  0  0  0  0  0  0  0  0
   19.9937  -19.7349   -9.7230 C   0  0  0  0  0  0  0  0  0  0  0  0
   20.4012  -20.2599   -8.4388 N   0  0  0  0  0  0  0  0  0  0  0  0
   21.5260  -20.7283  -14.1799 C   0  0  0  0  0  0  0  0  0  0  0  0
   21.1709  -20.2973  -15.3228 O   0  0  0  0  0  0  0  0  0  0  0  0
   18.8645  -28.7187  -12.7556 N   0  0  0  0  0  0  0  0  0  0  0  0
   19.9460  -27.8240  -13.0471 C   0  0  0  0  0  0  0  0  0  0  0  0
   21.1569  -28.1742  -12.7851 N   0  0  0  0  0  0  0  0  0  0  0  0
   19.7038  -26.5508  -13.6236 N   0  0  0  0  0  0  0  0  0  0  0  0
   18.3468  -26.0945  -13.9374 C   0  0  0  0  0  0  0  0  0  0  0  0
   18.4840  -24.7317  -14.5941 C   0  0  0  0  0  0  0  0  0  0  0  0
   19.6155  -23.9805  -13.9573 C   0  0  0  0  0  0  0  0  0  0  0  0
   19.8460  -22.6022  -14.5285 C   0  0  2  0  0  0  0  0  0  0  0  0
   20.8898  -21.9062  -13.7598 N   0  0  0  0  0  0  0  0  0  0  0  0
   18.6108  -21.8165  -14.3770 C   0  0  0  0  0  0  0  0  0  0  0  0
   17.8922  -21.6071  -15.3801 O   0  0  0  0  0  0  0  0  0  0  0  0
   18.1913  -21.2887  -13.1718 O   0  0  0  0  0  0  0  0  0  0  0  0
  2  1  1  6
  3  2  1  0
  4  2  1  0
  4  5  1  6
  6  7  2  0
  6  4  1  0
  8  6  1  0
  9  8  1  0
  9 10  1  6
 11 10  1  0
 12 11  1  0
 13 14  1  0
 13 12  1  0
 15 16  2  0
 15  9  1  0
 18 17  1  0
 19 18  2  0
 20 18  1  0
 21 22  1  0
 21 20  1  0
 22 23  1  0
 24 23  1  1
 24 25  1  0
 25 15  1  0
 26 24  1  0
 27 26  2  0
 28 26  1  0
M  END
$$$$
