VKR.pdb
     RDKit          3D

 28 27  0  0  1  0  0  0  0  0999 V2000
   26.3056  -20.8845   -5.3198 C   0  0  0  0  0  0  0  0  0  0  0  0
   26.1546  -20.9395   -6.8238 C   0  0  1  0  0  0  0  0  0  0  0  0
   24.7980  -20.4139   -7.1823 C   0  0  0  0  0  0  0  0  0  0  0  0
   27.2637  -20.1307   -7.4601 C   0  0  2  0  0  0  0  0  0  0  0  0
   27.2726  -18.7640   -6.9716 N   0  0  0  0  0  0  0  0  0  0  0  0
   27.1080  -20.1487   -8.9369 C   0  0  0  0  0  0  0  0  0  0  0  0
   26.5325  -19.1614   -9.4993 O   0  0  0  0  0  0  0  0  0  0  0  0
   27.5753  -21.2215   -9.7489 N   0  0  0  0  0  0  0  0  0  0  0  0
   27.5505  -21.1218  -11.2252 C   0  0  1  0  0  0  0  0  0  0  0  0
   28.6641  -22.0182  -11.6888 C   0  0  0  0  0  0  0  0  0  0  0  0
   30.0031  -21.7419  -11.1159 C   0  0  0  0  0  0  0  0  0  0  0  0
   31.0671  -22.6936  -11.6669 C   0  0  0  0  0  0  0  0  0  0  0  0
   32.4265  -22.3578  -11.0659 C   0  0  0  0  0  0  0  0  0  0  0  0
   33.3892  -23.3095  -11.5740 N   0  0  0  0  0  0  0  0  0  0  0  0
   26.2129  -21.4965  -11.6826 C   0  0  0  0  0  0  0  0  0  0  0  0
   25.5913  -22.3991  -11.0368 O   0  0  0  0  0  0  0  0  0  0  0  0
   18.6133  -21.2356  -12.8784 N   0  0  0  0  0  0  0  0  0  0  0  0
   18.8693  -21.2842  -11.4686 C   0  0  0  0  0  0  0  0  0  0  0  0
   18.0710  -21.9316  -10.6934 N   0  0  0  0  0  0  0  0  0  0  0  0
   19.9950  -20.6271  -10.9090 N   0  0  0  0  0  0  0  0  0  0  0  0
   20.8798  -19.7893  -11.7235 C   0  0  0  0  0  0  0  0  0  0  0  0
   21.7278  -20.7318  -12.5600 C   0  0  0  0  0  0  0  0  0  0  0  0
   23.1780  -20.5148  -12.2438 C   0  0  0  0  0  0  0  0  0  0  0  0
   24.1288  -21.2926  -13.1214 C   0  0  2  0  0  0  0  0  0  0  0  0
   25.5198  -20.9585  -12.7776 N   0  0  0  0  0  0  0  0  0  0  0  0
   23.9250  -20.8794  -14.5192 C   0  0  0  0  0  0  0  0  0  0  0  0
   24.7117  -20.0531  -15.0337 O   0  0  0  0  0  0  0  0  0  0  0  0
   22.8991  -21.3592  -15.3095 O   0  0  0  0  0  0  0  0  0  0  0  0
  2  1  1  1
  3  2  1  0
  4  2  1  0
  4  5  1  1
  6  7  2  0
  6  4  1  0
  8  6  1  0
  9  8  1  0
  9 10  1  6
 11 10  1  0
 12 11  1  0
 13 14  1  0
 13 12  1  0
 15 16  2  0
 15  9  1  0
 18 17  1  0
 19 18  2  0
 20 18  1  0
 21 22  1  0
 21 20  1  0
 22 23  1  0
 24 23  1  1
 24 25  1  0
 25 15  1  0
 26 24  1  0
 27 26  2  0
 28 26  1  0
M  END
$$$$
