VKR.pdb
     RDKit          3D

 28 27  0  0  1  0  0  0  0  0999 V2000
   26.3951  -18.5125  -15.8183 C   0  0  0  0  0  0  0  0  0  0  0  0
   27.1420  -19.6595  -16.4622 C   0  0  1  0  0  0  0  0  0  0  0  0
   28.2737  -19.0949  -17.2656 C   0  0  0  0  0  0  0  0  0  0  0  0
   27.6266  -20.6006  -15.3811 C   0  0  2  0  0  0  0  0  0  0  0  0
   28.2953  -21.7587  -15.9449 N   0  0  0  0  0  0  0  0  0  0  0  0
   26.4782  -21.0270  -14.5416 C   0  0  0  0  0  0  0  0  0  0  0  0
   25.6399  -21.8509  -15.0320 O   0  0  0  0  0  0  0  0  0  0  0  0
   26.2762  -20.5545  -13.2131 N   0  0  0  0  0  0  0  0  0  0  0  0
   25.1449  -21.0479  -12.3965 C   0  0  1  0  0  0  0  0  0  0  0  0
   25.5011  -20.6770  -10.9843 C   0  0  0  0  0  0  0  0  0  0  0  0
   24.4698  -20.9592   -9.9577 C   0  0  0  0  0  0  0  0  0  0  0  0
   24.9512  -20.5984   -8.5507 C   0  0  0  0  0  0  0  0  0  0  0  0
   23.8422  -20.8591   -7.5388 C   0  0  0  0  0  0  0  0  0  0  0  0
   24.2888  -20.3793   -6.2500 N   0  0  0  0  0  0  0  0  0  0  0  0
   23.9165  -20.4446  -12.9120 C   0  0  0  0  0  0  0  0  0  0  0  0
   23.8963  -19.1845  -13.0851 O   0  0  0  0  0  0  0  0  0  0  0  0
   18.1916  -25.7085  -16.3857 N   0  0  0  0  0  0  0  0  0  0  0  0
   18.3386  -25.7069  -14.9596 C   0  0  0  0  0  0  0  0  0  0  0  0
   17.9156  -26.7083  -14.2698 N   0  0  0  0  0  0  0  0  0  0  0  0
   18.9465  -24.6138  -14.2906 N   0  0  0  0  0  0  0  0  0  0  0  0
   19.5044  -23.4757  -15.0266 C   0  0  0  0  0  0  0  0  0  0  0  0
   20.1992  -22.5919  -14.0053 C   0  0  0  0  0  0  0  0  0  0  0  0
   20.7817  -21.3933  -14.6940 C   0  0  0  0  0  0  0  0  0  0  0  0
   21.5284  -20.4526  -13.7794 C   0  0  2  0  0  0  0  0  0  0  0  0
   22.7302  -21.1144  -13.2479 N   0  0  0  0  0  0  0  0  0  0  0  0
   20.6709  -20.1372  -12.6256 C   0  0  0  0  0  0  0  0  0  0  0  0
   20.8710  -20.7213  -11.5369 O   0  0  0  0  0  0  0  0  0  0  0  0
   19.6413  -19.2181  -12.6753 O   0  0  0  0  0  0  0  0  0  0  0  0
  2  1  1  1
  3  2  1  0
  4  2  1  0
  4  5  1  6
  6  7  2  0
  6  4  1  0
  8  6  1  0
  9  8  1  0
  9 10  1  1
 11 10  1  0
 12 11  1  0
 13 14  1  0
 13 12  1  0
 15 16  2  0
 15  9  1  0
 18 17  1  0
 19 18  2  0
 20 18  1  0
 21 22  1  0
 21 20  1  0
 22 23  1  0
 24 23  1  6
 24 25  1  0
 25 15  1  0
 26 24  1  0
 27 26  2  0
 28 26  1  0
M  END
$$$$
