VKR.pdb
     RDKit          3D

 28 27  0  0  1  0  0  0  0  0999 V2000
   20.9917  -25.2318  -20.2688 C   0  0  0  0  0  0  0  0  0  0  0  0
   21.3323  -26.6343  -19.8160 C   0  0  1  0  0  0  0  0  0  0  0  0
   22.4539  -27.1466  -20.6672 C   0  0  0  0  0  0  0  0  0  0  0  0
   21.7010  -26.6023  -18.3490 C   0  0  2  0  0  0  0  0  0  0  0  0
   22.8240  -25.7167  -18.1022 N   0  0  0  0  0  0  0  0  0  0  0  0
   22.0181  -27.9772  -17.8858 C   0  0  0  0  0  0  0  0  0  0  0  0
   21.1161  -28.8720  -17.9765 O   0  0  0  0  0  0  0  0  0  0  0  0
   23.2864  -28.3364  -17.3464 N   0  0  0  0  0  0  0  0  0  0  0  0
   23.5248  -29.6943  -16.8085 C   0  0  1  0  0  0  0  0  0  0  0  0
   25.0080  -29.9016  -16.9344 C   0  0  0  0  0  0  0  0  0  0  0  0
   25.5432  -31.1500  -16.3410 C   0  0  0  0  0  0  0  0  0  0  0  0
   27.0725  -31.1883  -16.3749 C   0  0  0  0  0  0  0  0  0  0  0  0
   27.5759  -32.4610  -15.7051 C   0  0  0  0  0  0  0  0  0  0  0  0
   29.0055  -32.5391  -15.9070 N   0  0  0  0  0  0  0  0  0  0  0  0
   22.9993  -29.7405  -15.4446 C   0  0  0  0  0  0  0  0  0  0  0  0
   23.4681  -28.9178  -14.5951 O   0  0  0  0  0  0  0  0  0  0  0  0
   15.2463  -31.9899  -11.5434 N   0  0  0  0  0  0  0  0  0  0  0  0
   16.1746  -31.6201  -10.5155 C   0  0  0  0  0  0  0  0  0  0  0  0
   15.7642  -31.4667   -9.3049 N   0  0  0  0  0  0  0  0  0  0  0  0
   17.5474  -31.4190  -10.8109 N   0  0  0  0  0  0  0  0  0  0  0  0
   18.0492  -31.4432  -12.1878 C   0  0  0  0  0  0  0  0  0  0  0  0
   19.5400  -31.1614  -12.1155 C   0  0  0  0  0  0  0  0  0  0  0  0
   20.0943  -31.0383  -13.5040 C   0  0  0  0  0  0  0  0  0  0  0  0
   21.5470  -30.6311  -13.5596 C   0  0  2  0  0  0  0  0  0  0  0  0
   22.0109  -30.6082  -14.9557 N   0  0  0  0  0  0  0  0  0  0  0  0
   22.3489  -31.6487  -12.8614 C   0  0  0  0  0  0  0  0  0  0  0  0
   22.7590  -32.6461  -13.4966 O   0  0  0  0  0  0  0  0  0  0  0  0
   22.6812  -31.5650  -11.5236 O   0  0  0  0  0  0  0  0  0  0  0  0
  2  1  1  6
  3  2  1  0
  4  2  1  0
  4  5  1  6
  6  7  2  0
  6  4  1  0
  8  6  1  0
  9  8  1  0
  9 10  1  1
 11 10  1  0
 12 11  1  0
 13 14  1  0
 13 12  1  0
 15 16  2  0
 15  9  1  0
 18 17  1  0
 19 18  2  0
 20 18  1  0
 21 22  1  0
 21 20  1  0
 22 23  1  0
 24 23  1  6
 24 25  1  0
 25 15  1  0
 26 24  1  0
 27 26  2  0
 28 26  1  0
M  END
$$$$
