VKR.pdb
     RDKit          3D

 28 27  0  0  1  0  0  0  0  0999 V2000
   25.5298  -26.7827  -18.0437 C   0  0  0  0  0  0  0  0  0  0  0  0
   24.6689  -25.8339  -17.2396 C   0  0  1  0  0  0  0  0  0  0  0  0
   24.3373  -26.4883  -15.9331 C   0  0  0  0  0  0  0  0  0  0  0  0
   25.4159  -24.5319  -17.0495 C   0  0  2  0  0  0  0  0  0  0  0  0
   26.6497  -24.7297  -16.3113 N   0  0  0  0  0  0  0  0  0  0  0  0
   24.5448  -23.5571  -16.3450 C   0  0  0  0  0  0  0  0  0  0  0  0
   24.7506  -23.3428  -15.1064 O   0  0  0  0  0  0  0  0  0  0  0  0
   23.4915  -22.8527  -16.9955 N   0  0  0  0  0  0  0  0  0  0  0  0
   22.6935  -21.8408  -16.2682 C   0  0  1  0  0  0  0  0  0  0  0  0
   22.4595  -20.7449  -17.2698 C   0  0  0  0  0  0  0  0  0  0  0  0
   23.5241  -19.7186  -17.3719 C   0  0  0  0  0  0  0  0  0  0  0  0
   23.2936  -18.7724  -18.5522 C   0  0  0  0  0  0  0  0  0  0  0  0
   24.4946  -17.8502  -18.7218 C   0  0  0  0  0  0  0  0  0  0  0  0
   24.3107  -17.0932  -19.9399 N   0  0  0  0  0  0  0  0  0  0  0  0
   21.4874  -22.4937  -15.7606 C   0  0  0  0  0  0  0  0  0  0  0  0
   20.9319  -23.3745  -16.4911 O   0  0  0  0  0  0  0  0  0  0  0  0
   18.9055  -25.2530   -7.7515 N   0  0  0  0  0  0  0  0  0  0  0  0
   18.5413  -26.1051   -8.8454 C   0  0  0  0  0  0  0  0  0  0  0  0
   18.2503  -27.3401   -8.6275 N   0  0  0  0  0  0  0  0  0  0  0  0
   18.4954  -25.6078  -10.1730 N   0  0  0  0  0  0  0  0  0  0  0  0
   18.8996  -24.2361  -10.4947 C   0  0  0  0  0  0  0  0  0  0  0  0
   18.6717  -24.0505  -11.9849 C   0  0  0  0  0  0  0  0  0  0  0  0
   19.8378  -23.3207  -12.5829 C   0  0  0  0  0  0  0  0  0  0  0  0
   19.6779  -22.9864  -14.0464 C   0  0  2  0  0  0  0  0  0  0  0  0
   20.8600  -22.2549  -14.5284 N   0  0  0  0  0  0  0  0  0  0  0  0
   18.5263  -22.0830  -14.2005 C   0  0  0  0  0  0  0  0  0  0  0  0
   18.7156  -20.8458  -14.2037 O   0  0  0  0  0  0  0  0  0  0  0  0
   17.2273  -22.5288  -14.3449 O   0  0  0  0  0  0  0  0  0  0  0  0
  2  1  1  6
  3  2  1  0
  4  2  1  0
  4  5  1  1
  6  7  2  0
  6  4  1  0
  8  6  1  0
  9  8  1  0
  9 10  1  6
 11 10  1  0
 12 11  1  0
 13 14  1  0
 13 12  1  0
 15 16  2  0
 15  9  1  0
 18 17  1  0
 19 18  2  0
 20 18  1  0
 21 22  1  0
 21 20  1  0
 22 23  1  0
 24 23  1  1
 24 25  1  0
 25 15  1  0
 26 24  1  0
 27 26  2  0
 28 26  1  0
M  END
$$$$
