VKR.pdb
     RDKit          3D

 28 27  0  0  1  0  0  0  0  0999 V2000
   28.8788  -26.5472  -17.9951 C   0  0  0  0  0  0  0  0  0  0  0  0
   28.1780  -25.3344  -17.4243 C   0  0  1  0  0  0  0  0  0  0  0  0
   27.4637  -25.7463  -16.1732 C   0  0  0  0  0  0  0  0  0  0  0  0
   29.2016  -24.2511  -17.1638 C   0  0  2  0  0  0  0  0  0  0  0  0
   30.2247  -24.6983  -16.2366 N   0  0  0  0  0  0  0  0  0  0  0  0
   28.5217  -23.0410  -16.6359 C   0  0  0  0  0  0  0  0  0  0  0  0
   28.5009  -22.8567  -15.3758 O   0  0  0  0  0  0  0  0  0  0  0  0
   27.8938  -22.0794  -17.4785 N   0  0  0  0  0  0  0  0  0  0  0  0
   27.2076  -20.9008  -16.9042 C   0  0  1  0  0  0  0  0  0  0  0  0
   27.5126  -19.7782  -17.8558 C   0  0  0  0  0  0  0  0  0  0  0  0
   28.8756  -19.2025  -17.7674 C   0  0  0  0  0  0  0  0  0  0  0  0
   29.0902  -18.0839  -18.7892 C   0  0  0  0  0  0  0  0  0  0  0  0
   30.5233  -17.5728  -18.7076 C   0  0  0  0  0  0  0  0  0  0  0  0
   30.6801  -16.5183  -19.6845 N   0  0  0  0  0  0  0  0  0  0  0  0
   25.7902  -21.2289  -16.7559 C   0  0  0  0  0  0  0  0  0  0  0  0
   25.2727  -22.0358  -17.5921 O   0  0  0  0  0  0  0  0  0  0  0  0
   18.7413  -22.8197  -12.3386 N   0  0  0  0  0  0  0  0  0  0  0  0
   19.2353  -23.9828  -13.0157 C   0  0  0  0  0  0  0  0  0  0  0  0
   18.4272  -24.9350  -13.3284 N   0  0  0  0  0  0  0  0  0  0  0  0
   20.6086  -24.1036  -13.3499 N   0  0  0  0  0  0  0  0  0  0  0  0
   21.5758  -23.0531  -13.0192 C   0  0  0  0  0  0  0  0  0  0  0  0
   21.7384  -22.1997  -14.2650 C   0  0  0  0  0  0  0  0  0  0  0  0
   23.1872  -21.8598  -14.4538 C   0  0  0  0  0  0  0  0  0  0  0  0
   23.4823  -21.0689  -15.7054 C   0  0  2  0  0  0  0  0  0  0  0  0
   24.9161  -20.7451  -15.7707 N   0  0  0  0  0  0  0  0  0  0  0  0
   22.7597  -19.7887  -15.6355 C   0  0  0  0  0  0  0  0  0  0  0  0
   23.3846  -18.7498  -15.3246 O   0  0  0  0  0  0  0  0  0  0  0  0
   21.4095  -19.6652  -15.8980 O   0  0  0  0  0  0  0  0  0  0  0  0
  2  1  1  1
  3  2  1  0
  4  2  1  0
  4  5  1  1
  6  7  2  0
  6  4  1  0
  8  6  1  0
  9  8  1  0
  9 10  1  6
 11 10  1  0
 12 11  1  0
 13 14  1  0
 13 12  1  0
 15 16  2  0
 15  9  1  0
 18 17  1  0
 19 18  2  0
 20 18  1  0
 21 22  1  0
 21 20  1  0
 22 23  1  0
 24 23  1  1
 24 25  1  0
 25 15  1  0
 26 24  1  0
 27 26  2  0
 28 26  1  0
M  END
$$$$
