VKR.pdb
     RDKit          3D

 28 27  0  0  1  0  0  0  0  0999 V2000
   25.0824  -20.2975  -19.1835 C   0  0  0  0  0  0  0  0  0  0  0  0
   26.4297  -19.7579  -18.7572 C   0  0  1  0  0  0  0  0  0  0  0  0
   27.4535  -20.1970  -19.7592 C   0  0  0  0  0  0  0  0  0  0  0  0
   26.3462  -18.2507  -18.6533 C   0  0  2  0  0  0  0  0  0  0  0  0
   27.6376  -17.6671  -18.3399 N   0  0  0  0  0  0  0  0  0  0  0  0
   25.3480  -17.8780  -17.6189 C   0  0  0  0  0  0  0  0  0  0  0  0
   25.6987  -17.9147  -16.3950 O   0  0  0  0  0  0  0  0  0  0  0  0
   24.0177  -17.4813  -17.9379 N   0  0  0  0  0  0  0  0  0  0  0  0
   23.0605  -17.1108  -16.8718 C   0  0  1  0  0  0  0  0  0  0  0  0
   22.3652  -15.8835  -17.3905 C   0  0  0  0  0  0  0  0  0  0  0  0
   22.7931  -14.5939  -16.7979 C   0  0  0  0  0  0  0  0  0  0  0  0
   22.1921  -13.3978  -17.5392 C   0  0  0  0  0  0  0  0  0  0  0  0
   22.7444  -12.0990  -16.9648 C   0  0  0  0  0  0  0  0  0  0  0  0
   22.1293  -10.9981  -17.6721 N   0  0  0  0  0  0  0  0  0  0  0  0
   22.1946  -18.2621  -16.6198 C   0  0  0  0  0  0  0  0  0  0  0  0
   21.8057  -18.9476  -17.6182 O   0  0  0  0  0  0  0  0  0  0  0  0
   17.4592  -21.3593  -11.9021 N   0  0  0  0  0  0  0  0  0  0  0  0
   17.8956  -22.7186  -11.7712 C   0  0  0  0  0  0  0  0  0  0  0  0
   17.0283  -23.6621  -11.6490 N   0  0  0  0  0  0  0  0  0  0  0  0
   19.2761  -23.0445  -11.7744 N   0  0  0  0  0  0  0  0  0  0  0  0
   20.3025  -22.0408  -12.0700 C   0  0  0  0  0  0  0  0  0  0  0  0
   20.0056  -21.5073  -13.4607 C   0  0  0  0  0  0  0  0  0  0  0  0
   20.9557  -20.3921  -13.7828 C   0  0  0  0  0  0  0  0  0  0  0  0
   20.8225  -19.8471  -15.1844 C   0  0  2  0  0  0  0  0  0  0  0  0
   21.7355  -18.7085  -15.3713 N   0  0  0  0  0  0  0  0  0  0  0  0
   19.4559  -19.3302  -15.3613 C   0  0  0  0  0  0  0  0  0  0  0  0
   19.1988  -18.1528  -15.0238 O   0  0  0  0  0  0  0  0  0  0  0  0
   18.4236  -20.0817  -15.8875 O   0  0  0  0  0  0  0  0  0  0  0  0
  2  1  1  6
  3  2  1  0
  4  2  1  0
  4  5  1  1
  6  7  2  0
  6  4  1  0
  8  6  1  0
  9  8  1  0
  9 10  1  6
 11 10  1  0
 12 11  1  0
 13 14  1  0
 13 12  1  0
 15 16  2  0
 15  9  1  0
 18 17  1  0
 19 18  2  0
 20 18  1  0
 21 22  1  0
 21 20  1  0
 22 23  1  0
 24 23  1  1
 24 25  1  0
 25 15  1  0
 26 24  1  0
 27 26  2  0
 28 26  1  0
M  END
$$$$
