VKR.pdb
     RDKit          3D

 28 27  0  0  1  0  0  0  0  0999 V2000
   16.3722  -13.6134  -15.3885 C   0  0  0  0  0  0  0  0  0  0  0  0
   16.0850  -14.5430  -16.5466 C   0  0  1  0  0  0  0  0  0  0  0  0
   14.6525  -14.9742  -16.4628 C   0  0  0  0  0  0  0  0  0  0  0  0
   16.3869  -13.8232  -17.8428 C   0  0  2  0  0  0  0  0  0  0  0  0
   15.9588  -14.5976  -18.9932 N   0  0  0  0  0  0  0  0  0  0  0  0
   17.8420  -13.5385  -17.9262 C   0  0  0  0  0  0  0  0  0  0  0  0
   18.3723  -12.8145  -17.0224 O   0  0  0  0  0  0  0  0  0  0  0  0
   18.6678  -14.0410  -18.9723 N   0  0  0  0  0  0  0  0  0  0  0  0
   20.1236  -13.7756  -18.9833 C   0  0  1  0  0  0  0  0  0  0  0  0
   20.6244  -14.4369  -20.2365 C   0  0  0  0  0  0  0  0  0  0  0  0
   22.0508  -14.2071  -20.5680 C   0  0  0  0  0  0  0  0  0  0  0  0
   22.9626  -15.2524  -19.9220 C   0  0  0  0  0  0  0  0  0  0  0  0
   24.4149  -14.9739  -20.2894 C   0  0  0  0  0  0  0  0  0  0  0  0
   25.2303  -16.0264  -19.7254 N   0  0  0  0  0  0  0  0  0  0  0  0
   20.3211  -12.3280  -18.9169 C   0  0  0  0  0  0  0  0  0  0  0  0
   19.5662  -11.5885  -19.6250 O   0  0  0  0  0  0  0  0  0  0  0  0
   21.7767   -6.2323  -12.6782 N   0  0  0  0  0  0  0  0  0  0  0  0
   21.7330   -5.5636  -13.9455 C   0  0  0  0  0  0  0  0  0  0  0  0
   21.6537   -4.2794  -13.9911 N   0  0  0  0  0  0  0  0  0  0  0  0
   21.7761   -6.2972  -15.1588 N   0  0  0  0  0  0  0  0  0  0  0  0
   21.4692   -7.7297  -15.2026 C   0  0  0  0  0  0  0  0  0  0  0  0
   21.5987   -8.1612  -16.6531 C   0  0  0  0  0  0  0  0  0  0  0  0
   21.2857   -9.6235  -16.7705 C   0  0  0  0  0  0  0  0  0  0  0  0
   21.4611  -10.1872  -18.1600 C   0  0  2  0  0  0  0  0  0  0  0  0
   21.2698  -11.6459  -18.1400 N   0  0  0  0  0  0  0  0  0  0  0  0
   22.8460   -9.9456  -18.5954 C   0  0  0  0  0  0  0  0  0  0  0  0
   23.7215  -10.8075  -18.3564 O   0  0  0  0  0  0  0  0  0  0  0  0
   23.2420   -8.8041  -19.2641 O   0  0  0  0  0  0  0  0  0  0  0  0
  2  1  1  1
  3  2  1  0
  4  2  1  0
  4  5  1  6
  6  7  2  0
  6  4  1  0
  8  6  1  0
  9  8  1  0
  9 10  1  6
 11 10  1  0
 12 11  1  0
 13 14  1  0
 13 12  1  0
 15 16  2  0
 15  9  1  0
 18 17  1  0
 19 18  2  0
 20 18  1  0
 21 22  1  0
 21 20  1  0
 22 23  1  0
 24 23  1  1
 24 25  1  0
 25 15  1  0
 26 24  1  0
 27 26  2  0
 28 26  1  0
M  END
$$$$
