SNN.pdb
     RDKit          3D

 23 22  0  0  1  0  0  0  0  0999 V2000
    8.4124  -14.2744   14.3733 O   0  0  0  0  0  0  0  0  0  0  0  0
    7.8495  -14.7364   15.5810 C   0  0  0  0  0  0  0  0  0  0  0  0
    8.5517  -14.0031   16.6802 C   0  0  2  0  0  0  0  0  0  0  0  0
    9.9348  -13.7257   16.4281 N   0  0  0  0  0  0  0  0  0  0  0  0
    8.3972  -14.7097   18.0072 C   0  0  0  0  0  0  0  0  0  0  0  0
    7.2726  -15.0550   18.4371 O   0  0  0  0  0  0  0  0  0  0  0  0
    8.2712  -19.0731   21.3944 N   0  0  0  0  0  0  0  0  0  0  0  0
    8.3031  -17.6611   21.1046 C   0  0  0  0  0  0  0  0  0  0  0  0
    7.9905  -16.8817   22.0287 O   0  0  0  0  0  0  0  0  0  0  0  0
    8.6900  -17.1397   19.7797 C   0  0  0  0  0  0  0  0  0  0  0  0
    9.6105  -15.9436   19.8327 C   0  0  2  0  0  0  0  0  0  0  0  0
    9.5383  -14.9968   18.7928 N   0  0  0  0  0  0  0  0  0  0  0  0
   10.9612  -16.2587   20.3443 C   0  0  0  0  0  0  0  0  0  0  0  0
   11.3366  -17.4820   20.3897 O   0  0  0  0  0  0  0  0  0  0  0  0
   15.4519  -14.5819   18.0170 N   0  0  0  0  0  0  0  0  0  0  0  0
   15.0474  -14.0342   19.2756 C   0  0  0  0  0  0  0  0  0  0  0  0
   15.9872  -13.5717   19.9751 O   0  0  0  0  0  0  0  0  0  0  0  0
   13.6372  -14.0155   19.7078 C   0  0  0  0  0  0  0  0  0  0  0  0
   13.2813  -15.3571   20.3074 C   0  0  2  0  0  0  0  0  0  0  0  0
   11.8828  -15.3104   20.7939 N   0  0  0  0  0  0  0  0  0  0  0  0
   14.0690  -15.6723   21.5213 C   0  0  0  0  0  0  0  0  0  0  0  0
   13.4822  -15.6169   22.8076 O   0  0  0  0  0  0  0  0  0  0  0  0
   15.2594  -15.9977   21.4979 O   0  0  0  0  0  0  0  0  0  0  0  0
  2  1  1  0
  3  4  1  6
  3  2  1  0
  5  3  1  0
  6  5  2  0
  7  8  1  0
  8  9  2  0
 10  8  1  0
 11 10  1  6
 11 12  1  0
 11 13  1  0
 12  5  1  0
 13 20  1  0
 14 13  2  0
 16 15  1  0
 17 16  2  0
 18 16  1  0
 19 18  1  1
 20 19  1  0
 21 19  1  0
 21 22  1  0
 23 21  2  0
M  END
$$$$
