SNN.pdb
     RDKit          3D

 23 22  0  0  1  0  0  0  0  0999 V2000
    8.4492  -19.9706   19.6907 O   0  0  0  0  0  0  0  0  0  0  0  0
    8.7336  -19.8847   21.0692 C   0  0  0  0  0  0  0  0  0  0  0  0
    9.0673  -18.4517   21.3416 C   0  0  2  0  0  0  0  0  0  0  0  0
   10.2002  -17.9521   20.6202 N   0  0  0  0  0  0  0  0  0  0  0  0
    9.2376  -18.1918   22.8206 C   0  0  0  0  0  0  0  0  0  0  0  0
   10.2506  -17.6079   23.2695 O   0  0  0  0  0  0  0  0  0  0  0  0
    6.5636  -18.6210   28.2104 N   0  0  0  0  0  0  0  0  0  0  0  0
    7.2330  -17.7372   27.2887 C   0  0  0  0  0  0  0  0  0  0  0  0
    7.9606  -16.8479   27.7774 O   0  0  0  0  0  0  0  0  0  0  0  0
    7.0804  -17.8649   25.8268 C   0  0  0  0  0  0  0  0  0  0  0  0
    8.2812  -18.4611   25.1314 C   0  0  2  0  0  0  0  0  0  0  0  0
    8.2389  -18.6093   23.7316 N   0  0  0  0  0  0  0  0  0  0  0  0
    8.9216  -19.5559   25.8908 C   0  0  0  0  0  0  0  0  0  0  0  0
    8.3045  -20.6716   26.0083 O   0  0  0  0  0  0  0  0  0  0  0  0
   13.2094  -20.3613   24.8292 N   0  0  0  0  0  0  0  0  0  0  0  0
   12.3554  -21.1321   25.6802 C   0  0  0  0  0  0  0  0  0  0  0  0
   11.8133  -22.1235   25.1236 O   0  0  0  0  0  0  0  0  0  0  0  0
   12.1371  -20.7852   27.0971 C   0  0  0  0  0  0  0  0  0  0  0  0
   10.6573  -20.5947   27.3418 C   0  0  2  0  0  0  0  0  0  0  0  0
   10.1726  -19.4716   26.5060 N   0  0  0  0  0  0  0  0  0  0  0  0
   10.3533  -20.1641   28.7258 C   0  0  0  0  0  0  0  0  0  0  0  0
   10.5910  -21.0211   29.8263 O   0  0  0  0  0  0  0  0  0  0  0  0
    9.8852  -19.0579   29.0099 O   0  0  0  0  0  0  0  0  0  0  0  0
  2  1  1  0
  3  4  1  6
  3  2  1  0
  5  3  1  0
  6  5  2  0
  7  8  1  0
  8  9  2  0
 10  8  1  0
 11 10  1  1
 11 12  1  0
 11 13  1  0
 12  5  1  0
 13 20  1  0
 14 13  2  0
 16 15  1  0
 17 16  2  0
 18 16  1  0
 19 18  1  1
 20 19  1  0
 21 19  1  0
 21 22  1  0
 23 21  2  0
M  END
$$$$
