SNN.pdb
     RDKit          3D

 23 22  0  0  1  0  0  0  0  0999 V2000
    7.5522  -14.0697   20.5432 O   0  0  0  0  0  0  0  0  0  0  0  0
    8.2880  -12.8955   20.2815 C   0  0  0  0  0  0  0  0  0  0  0  0
    8.6252  -12.9262   18.8239 C   0  0  2  0  0  0  0  0  0  0  0  0
    7.5307  -13.2617   17.9620 N   0  0  0  0  0  0  0  0  0  0  0  0
    9.8026  -13.8316   18.5446 C   0  0  0  0  0  0  0  0  0  0  0  0
    9.8856  -14.4869   17.4805 O   0  0  0  0  0  0  0  0  0  0  0  0
   14.3706  -16.1784   17.3921 N   0  0  0  0  0  0  0  0  0  0  0  0
   14.1313  -14.8173   17.8031 C   0  0  0  0  0  0  0  0  0  0  0  0
   15.1312  -14.1137   18.0569 O   0  0  0  0  0  0  0  0  0  0  0  0
   12.7703  -14.2600   17.9206 C   0  0  0  0  0  0  0  0  0  0  0  0
   12.1186  -14.5021   19.2613 C   0  0  2  0  0  0  0  0  0  0  0  0
   10.8437  -13.9516   19.4951 N   0  0  0  0  0  0  0  0  0  0  0  0
   13.0674  -14.4715   20.3945 C   0  0  0  0  0  0  0  0  0  0  0  0
   14.3104  -14.6783   20.1674 O   0  0  0  0  0  0  0  0  0  0  0  0
   11.4408  -16.1608   24.9127 N   0  0  0  0  0  0  0  0  0  0  0  0
   11.1673  -16.7806   23.6522 C   0  0  0  0  0  0  0  0  0  0  0  0
   10.2571  -17.6507   23.6797 O   0  0  0  0  0  0  0  0  0  0  0  0
   11.8984  -16.4184   22.4233 C   0  0  0  0  0  0  0  0  0  0  0  0
   12.8726  -15.3043   22.7324 C   0  0  2  0  0  0  0  0  0  0  0  0
   12.7118  -14.2313   21.7236 N   0  0  0  0  0  0  0  0  0  0  0  0
   14.2868  -15.7192   22.5868 C   0  0  0  0  0  0  0  0  0  0  0  0
   15.1708  -15.7012   23.6915 O   0  0  0  0  0  0  0  0  0  0  0  0
   14.7808  -16.1005   21.5219 O   0  0  0  0  0  0  0  0  0  0  0  0
  2  1  1  0
  3  4  1  6
  3  2  1  0
  5  3  1  0
  6  5  2  0
  7  8  1  0
  8  9  2  0
 10  8  1  0
 11 10  1  6
 11 12  1  0
 11 13  1  0
 12  5  1  0
 13 20  1  0
 14 13  2  0
 16 15  1  0
 17 16  2  0
 18 16  1  0
 19 18  1  6
 20 19  1  0
 21 19  1  0
 21 22  1  0
 23 21  2  0
M  END
$$$$
