SNN.pdb
     RDKit          3D

 23 22  0  0  1  0  0  0  0  0999 V2000
    8.9225  -18.7711   19.7039 O   0  0  0  0  0  0  0  0  0  0  0  0
    9.3545  -17.8047   20.6358 C   0  0  0  0  0  0  0  0  0  0  0  0
    8.6235  -16.5424   20.3024 C   0  0  2  0  0  0  0  0  0  0  0  0
    8.9014  -16.0146   18.9995 N   0  0  0  0  0  0  0  0  0  0  0  0
    8.8449  -15.4779   21.3521 C   0  0  0  0  0  0  0  0  0  0  0  0
    8.7151  -14.2608   21.0866 O   0  0  0  0  0  0  0  0  0  0  0  0
    7.6619  -12.5658   25.5186 N   0  0  0  0  0  0  0  0  0  0  0  0
    7.1442  -13.8650   25.1684 C   0  0  0  0  0  0  0  0  0  0  0  0
    6.4032  -14.4274   26.0014 O   0  0  0  0  0  0  0  0  0  0  0  0
    7.4617  -14.5169   23.8836 C   0  0  0  0  0  0  0  0  0  0  0  0
    8.8140  -15.1885   23.8506 C   0  0  2  0  0  0  0  0  0  0  0  0
    9.2055  -15.8476   22.6693 N   0  0  0  0  0  0  0  0  0  0  0  0
    9.1799  -15.8449   25.1236 C   0  0  0  0  0  0  0  0  0  0  0  0
    8.2622  -16.4094   25.8154 O   0  0  0  0  0  0  0  0  0  0  0  0
   10.6999  -13.5638   29.7763 N   0  0  0  0  0  0  0  0  0  0  0  0
    9.9532  -14.5799   29.0997 C   0  0  0  0  0  0  0  0  0  0  0  0
    9.3966  -15.4174   29.8581 O   0  0  0  0  0  0  0  0  0  0  0  0
    9.8481  -14.6304   27.6293 C   0  0  0  0  0  0  0  0  0  0  0  0
   10.6803  -15.7806   27.1090 C   0  0  2  0  0  0  0  0  0  0  0  0
   10.4736  -15.9006   25.6469 N   0  0  0  0  0  0  0  0  0  0  0  0
   10.2434  -17.0930   27.6381 C   0  0  0  0  0  0  0  0  0  0  0  0
   10.9663  -17.7435   28.6658 O   0  0  0  0  0  0  0  0  0  0  0  0
    9.2452  -17.6952   27.2326 O   0  0  0  0  0  0  0  0  0  0  0  0
  2  1  1  0
  3  4  1  6
  3  2  1  0
  5  3  1  0
  6  5  2  0
  7  8  1  0
  8  9  2  0
 10  8  1  0
 11 10  1  6
 11 12  1  0
 11 13  1  0
 12  5  1  0
 13 20  1  0
 14 13  2  0
 16 15  1  0
 17 16  2  0
 18 16  1  0
 19 18  1  1
 20 19  1  0
 21 19  1  0
 21 22  1  0
 23 21  2  0
M  END
$$$$
