SNN.pdb
     RDKit          3D

 23 22  0  0  1  0  0  0  0  0999 V2000
    3.5052  -25.4943   25.5865 O   0  0  0  0  0  0  0  0  0  0  0  0
    2.4215  -25.0091   26.3474 C   0  0  0  0  0  0  0  0  0  0  0  0
    1.2074  -25.1417   25.4829 C   0  0  2  0  0  0  0  0  0  0  0  0
    1.2704  -24.4212   24.2459 N   0  0  0  0  0  0  0  0  0  0  0  0
   -0.0522  -24.7759   26.2335 C   0  0  0  0  0  0  0  0  0  0  0  0
   -0.7846  -23.8309   25.8604 O   0  0  0  0  0  0  0  0  0  0  0  0
   -4.0315  -24.9848   29.6177 N   0  0  0  0  0  0  0  0  0  0  0  0
   -4.0806  -24.8460   28.1834 C   0  0  0  0  0  0  0  0  0  0  0  0
   -5.1795  -24.5370   27.6775 O   0  0  0  0  0  0  0  0  0  0  0  0
   -2.8927  -25.0522   27.3332 C   0  0  0  0  0  0  0  0  0  0  0  0
   -1.6305  -25.3625   28.1023 C   0  0  2  0  0  0  0  0  0  0  0  0
   -0.4279  -25.5084   27.3842 N   0  0  0  0  0  0  0  0  0  0  0  0
   -1.8397  -26.2918   29.2327 C   0  0  0  0  0  0  0  0  0  0  0  0
   -2.7046  -25.9929   30.1283 O   0  0  0  0  0  0  0  0  0  0  0  0
   -2.9794  -29.7435   30.7318 N   0  0  0  0  0  0  0  0  0  0  0  0
   -1.6582  -30.2871   30.6511 C   0  0  0  0  0  0  0  0  0  0  0  0
   -1.6107  -31.5399   30.5294 O   0  0  0  0  0  0  0  0  0  0  0  0
   -0.4539  -29.4370   30.7042 C   0  0  0  0  0  0  0  0  0  0  0  0
   -0.8708  -27.9855   30.7786 C   0  0  2  0  0  0  0  0  0  0  0  0
   -1.1554  -27.4965   29.4094 N   0  0  0  0  0  0  0  0  0  0  0  0
    0.2155  -27.0981   31.2538 C   0  0  0  0  0  0  0  0  0  0  0  0
    0.1576  -26.4923   32.5311 O   0  0  0  0  0  0  0  0  0  0  0  0
    1.2206  -26.8321   30.5887 O   0  0  0  0  0  0  0  0  0  0  0  0
  2  1  1  0
  3  4  1  6
  3  2  1  0
  5  3  1  0
  6  5  2  0
  7  8  1  0
  8  9  2  0
 10  8  1  0
 11 10  1  6
 11 12  1  0
 11 13  1  0
 12  5  1  0
 13 20  1  0
 14 13  2  0
 16 15  1  0
 17 16  2  0
 18 16  1  0
 19 18  1  6
 20 19  1  0
 21 19  1  0
 21 22  1  0
 23 21  2  0
M  END
$$$$
