SNN.pdb
     RDKit          3D

 23 22  0  0  1  0  0  0  0  0999 V2000
    8.0734  -19.0659   14.9249 O   0  0  0  0  0  0  0  0  0  0  0  0
    7.4571  -17.8531   15.2962 C   0  0  0  0  0  0  0  0  0  0  0  0
    8.5041  -16.7920   15.1666 C   0  0  2  0  0  0  0  0  0  0  0  0
    9.6558  -17.1756   14.4051 N   0  0  0  0  0  0  0  0  0  0  0  0
    8.9275  -16.2608   16.5166 C   0  0  0  0  0  0  0  0  0  0  0  0
   10.0418  -16.5468   17.0117 O   0  0  0  0  0  0  0  0  0  0  0  0
    6.9997  -12.4276   21.1639 N   0  0  0  0  0  0  0  0  0  0  0  0
    7.8655  -13.2555   20.3617 C   0  0  0  0  0  0  0  0  0  0  0  0
    8.9896  -13.5289   20.8317 O   0  0  0  0  0  0  0  0  0  0  0  0
    7.4571  -13.7709   19.0410 C   0  0  0  0  0  0  0  0  0  0  0  0
    8.2719  -14.9478   18.5596 C   0  0  2  0  0  0  0  0  0  0  0  0
    8.0583  -15.4189   17.2497 N   0  0  0  0  0  0  0  0  0  0  0  0
    8.5016  -15.9733   19.5993 C   0  0  0  0  0  0  0  0  0  0  0  0
    8.0048  -17.1422   19.4368 O   0  0  0  0  0  0  0  0  0  0  0  0
   12.1692  -19.3710   21.9874 N   0  0  0  0  0  0  0  0  0  0  0  0
   10.8025  -19.0032   21.7769 C   0  0  0  0  0  0  0  0  0  0  0  0
    9.9662  -19.6978   22.4129 O   0  0  0  0  0  0  0  0  0  0  0  0
   10.4155  -17.8937   20.8851 C   0  0  0  0  0  0  0  0  0  0  0  0
    9.5506  -16.9174   21.6500 C   0  0  2  0  0  0  0  0  0  0  0  0
    9.2318  -15.7676   20.7719 N   0  0  0  0  0  0  0  0  0  0  0  0
   10.2543  -16.3024   22.7988 C   0  0  0  0  0  0  0  0  0  0  0  0
   11.3329  -15.4082   22.6010 O   0  0  0  0  0  0  0  0  0  0  0  0
    9.9577  -16.5189   23.9772 O   0  0  0  0  0  0  0  0  0  0  0  0
  2  1  1  0
  3  4  1  1
  3  2  1  0
  5  3  1  0
  6  5  2  0
  7  8  1  0
  8  9  2  0
 10  8  1  0
 11 10  1  1
 11 12  1  0
 11 13  1  0
 12  5  1  0
 13 20  1  0
 14 13  2  0
 16 15  1  0
 17 16  2  0
 18 16  1  0
 19 18  1  6
 20 19  1  0
 21 19  1  0
 21 22  1  0
 23 21  2  0
M  END
$$$$
