SNN.pdb
     RDKit          3D

 23 22  0  0  1  0  0  0  0  0999 V2000
    9.7884  -15.1844   16.3639 O   0  0  0  0  0  0  0  0  0  0  0  0
    8.4600  -15.6121   16.5667 C   0  0  0  0  0  0  0  0  0  0  0  0
    7.7196  -14.4365   17.1224 C   0  0  2  0  0  0  0  0  0  0  0  0
    7.4665  -13.3870   16.1800 N   0  0  0  0  0  0  0  0  0  0  0  0
    8.4025  -13.8788   18.3498 C   0  0  0  0  0  0  0  0  0  0  0  0
    8.0074  -12.8227   18.8949 O   0  0  0  0  0  0  0  0  0  0  0  0
    8.6775  -14.1011   23.7094 N   0  0  0  0  0  0  0  0  0  0  0  0
    9.1550  -14.9745   22.6664 C   0  0  0  0  0  0  0  0  0  0  0  0
    9.9695  -15.8624   22.9941 O   0  0  0  0  0  0  0  0  0  0  0  0
    8.7089  -14.8430   21.2663 C   0  0  0  0  0  0  0  0  0  0  0  0
    9.8316  -14.6293   20.2790 C   0  0  2  0  0  0  0  0  0  0  0  0
    9.5131  -14.5536   18.9093 N   0  0  0  0  0  0  0  0  0  0  0  0
   11.0722  -15.3535   20.6279 C   0  0  0  0  0  0  0  0  0  0  0  0
   11.0627  -16.6339   20.6284 O   0  0  0  0  0  0  0  0  0  0  0  0
   15.8884  -15.6519   18.9630 N   0  0  0  0  0  0  0  0  0  0  0  0
   15.3601  -14.3239   18.8923 C   0  0  0  0  0  0  0  0  0  0  0  0
   16.0256  -13.5299   18.1761 O   0  0  0  0  0  0  0  0  0  0  0  0
   14.1300  -13.9284   19.6040 C   0  0  0  0  0  0  0  0  0  0  0  0
   13.5269  -15.1439   20.2710 C   0  0  2  0  0  0  0  0  0  0  0  0
   12.2817  -14.7425   20.9660 N   0  0  0  0  0  0  0  0  0  0  0  0
   14.3781  -15.6881   21.3538 C   0  0  0  0  0  0  0  0  0  0  0  0
   13.8896  -15.8086   22.6762 O   0  0  0  0  0  0  0  0  0  0  0  0
   15.5410  -16.0656   21.1845 O   0  0  0  0  0  0  0  0  0  0  0  0
  2  1  1  0
  3  4  1  6
  3  2  1  0
  5  3  1  0
  6  5  2  0
  7  8  1  0
  8  9  2  0
 10  8  1  0
 11 10  1  1
 11 12  1  0
 11 13  1  0
 12  5  1  0
 13 20  1  0
 14 13  2  0
 16 15  1  0
 17 16  2  0
 18 16  1  0
 19 18  1  1
 20 19  1  0
 21 19  1  0
 21 22  1  0
 23 21  2  0
M  END
$$$$
