SNN.pdb
     RDKit          3D

 23 22  0  0  1  0  0  0  0  0999 V2000
    8.8825  -18.1564   17.3279 O   0  0  0  0  0  0  0  0  0  0  0  0
   10.2488  -18.4405   17.5309 C   0  0  0  0  0  0  0  0  0  0  0  0
   10.5032  -18.2598   18.9944 C   0  0  2  0  0  0  0  0  0  0  0  0
    9.7001  -19.0832   19.8490 N   0  0  0  0  0  0  0  0  0  0  0  0
   10.3811  -16.8105   19.4051 C   0  0  0  0  0  0  0  0  0  0  0  0
   11.3411  -16.0146   19.2880 O   0  0  0  0  0  0  0  0  0  0  0  0
    8.4837  -11.8399   19.5062 N   0  0  0  0  0  0  0  0  0  0  0  0
    7.6557  -12.8475   20.1211 C   0  0  0  0  0  0  0  0  0  0  0  0
    6.8513  -12.4680   20.9974 O   0  0  0  0  0  0  0  0  0  0  0  0
    7.7380  -14.2707   19.7414 C   0  0  0  0  0  0  0  0  0  0  0  0
    8.9079  -15.0051   20.3522 C   0  0  2  0  0  0  0  0  0  0  0  0
    9.1617  -16.3255   19.9337 N   0  0  0  0  0  0  0  0  0  0  0  0
    9.0988  -14.7215   21.7904 C   0  0  0  0  0  0  0  0  0  0  0  0
    9.2037  -13.5041   22.1730 O   0  0  0  0  0  0  0  0  0  0  0  0
    7.7400  -17.4610   23.9696 N   0  0  0  0  0  0  0  0  0  0  0  0
    7.2865  -16.3517   24.7516 C   0  0  0  0  0  0  0  0  0  0  0  0
    6.1765  -16.5272   25.3204 O   0  0  0  0  0  0  0  0  0  0  0  0
    8.0678  -15.1068   24.8770 C   0  0  0  0  0  0  0  0  0  0  0  0
    9.4053  -15.2865   24.1954 C   0  0  2  0  0  0  0  0  0  0  0  0
    9.1774  -15.6943   22.7894 N   0  0  0  0  0  0  0  0  0  0  0  0
   10.1963  -16.4017   24.7645 C   0  0  0  0  0  0  0  0  0  0  0  0
   10.3230  -17.6324   24.0778 O   0  0  0  0  0  0  0  0  0  0  0  0
   10.7855  -16.3386   25.8473 O   0  0  0  0  0  0  0  0  0  0  0  0
  2  1  1  0
  3  4  1  1
  3  2  1  0
  5  3  1  0
  6  5  2  0
  7  8  1  0
  8  9  2  0
 10  8  1  0
 11 10  1  1
 11 12  1  0
 11 13  1  0
 12  5  1  0
 13 20  1  0
 14 13  2  0
 16 15  1  0
 17 16  2  0
 18 16  1  0
 19 18  1  1
 20 19  1  0
 21 19  1  0
 21 22  1  0
 23 21  2  0
M  END
$$$$
