SNN.pdb
     RDKit          3D

 23 22  0  0  1  0  0  0  0  0999 V2000
    9.7454  -19.6904   18.7331 O   0  0  0  0  0  0  0  0  0  0  0  0
    8.7607  -18.9381   18.0600 C   0  0  0  0  0  0  0  0  0  0  0  0
    9.4637  -17.7556   17.4715 C   0  0  2  0  0  0  0  0  0  0  0  0
   10.5915  -18.0769   16.6480 N   0  0  0  0  0  0  0  0  0  0  0  0
    9.8645  -16.7606   18.5360 C   0  0  0  0  0  0  0  0  0  0  0  0
   11.0550  -16.6446   18.9076 O   0  0  0  0  0  0  0  0  0  0  0  0
    7.6641  -11.8150   19.2981 N   0  0  0  0  0  0  0  0  0  0  0  0
    7.6050  -13.2550   19.3406 C   0  0  0  0  0  0  0  0  0  0  0  0
    7.1709  -13.8383   18.3255 O   0  0  0  0  0  0  0  0  0  0  0  0
    8.0382  -14.0244   20.5225 C   0  0  0  0  0  0  0  0  0  0  0  0
    9.0894  -15.0678   20.2275 C   0  0  2  0  0  0  0  0  0  0  0  0
    8.8858  -15.9329   19.1351 N   0  0  0  0  0  0  0  0  0  0  0  0
    9.6849  -15.6672   21.4405 C   0  0  0  0  0  0  0  0  0  0  0  0
    9.2132  -16.7733   21.8804 O   0  0  0  0  0  0  0  0  0  0  0  0
   12.3532  -17.5304   25.2228 N   0  0  0  0  0  0  0  0  0  0  0  0
   11.1268  -17.9167   24.5946 C   0  0  0  0  0  0  0  0  0  0  0  0
   10.6652  -19.0243   24.9775 O   0  0  0  0  0  0  0  0  0  0  0  0
   10.4630  -17.0743   23.5819 C   0  0  0  0  0  0  0  0  0  0  0  0
   11.3125  -15.8523   23.3151 C   0  0  2  0  0  0  0  0  0  0  0  0
   10.7435  -15.1134   22.1640 N   0  0  0  0  0  0  0  0  0  0  0  0
   12.6858  -16.1904   22.8761 C   0  0  0  0  0  0  0  0  0  0  0  0
   13.1121  -15.9374   21.5508 O   0  0  0  0  0  0  0  0  0  0  0  0
   13.5328  -16.7014   23.6143 O   0  0  0  0  0  0  0  0  0  0  0  0
  2  1  1  0
  3  4  1  1
  3  2  1  0
  5  3  1  0
  6  5  2  0
  7  8  1  0
  8  9  2  0
 10  8  1  0
 11 10  1  1
 11 12  1  0
 11 13  1  0
 12  5  1  0
 13 20  1  0
 14 13  2  0
 16 15  1  0
 17 16  2  0
 18 16  1  0
 19 18  1  6
 20 19  1  0
 21 19  1  0
 21 22  1  0
 23 21  2  0
M  END
$$$$
