SNN.pdb
     RDKit          3D

 23 22  0  0  1  0  0  0  0  0999 V2000
    7.0091  -11.5007   27.2345 O   0  0  0  0  0  0  0  0  0  0  0  0
    7.7694  -12.1776   26.2585 C   0  0  0  0  0  0  0  0  0  0  0  0
    6.8148  -12.5587   25.1711 C   0  0  2  0  0  0  0  0  0  0  0  0
    5.4356  -12.3080   25.4687 N   0  0  0  0  0  0  0  0  0  0  0  0
    7.0013  -13.9971   24.7465 C   0  0  0  0  0  0  0  0  0  0  0  0
    6.1214  -14.6060   24.0956 O   0  0  0  0  0  0  0  0  0  0  0  0
   10.9158  -15.6641   21.0890 N   0  0  0  0  0  0  0  0  0  0  0  0
    9.6953  -15.8747   21.8271 C   0  0  0  0  0  0  0  0  0  0  0  0
    9.0861  -16.9464   21.6285 O   0  0  0  0  0  0  0  0  0  0  0  0
    9.1743  -14.8797   22.7838 C   0  0  0  0  0  0  0  0  0  0  0  0
    9.0111  -15.4038   24.1907 C   0  0  2  0  0  0  0  0  0  0  0  0
    8.1912  -14.6850   25.0819 N   0  0  0  0  0  0  0  0  0  0  0  0
   10.2498  -15.9808   24.7546 C   0  0  0  0  0  0  0  0  0  0  0  0
   11.3452  -15.8516   24.1043 O   0  0  0  0  0  0  0  0  0  0  0  0
    9.6666  -15.9986   28.3235 N   0  0  0  0  0  0  0  0  0  0  0  0
   10.9081  -15.2871   28.3212 C   0  0  0  0  0  0  0  0  0  0  0  0
   10.9907  -14.3693   29.1798 O   0  0  0  0  0  0  0  0  0  0  0  0
   11.9996  -15.6140   27.3843 C   0  0  0  0  0  0  0  0  0  0  0  0
   11.6412  -16.8676   26.6187 C   0  0  2  0  0  0  0  0  0  0  0  0
   10.3258  -16.6724   25.9656 N   0  0  0  0  0  0  0  0  0  0  0  0
   11.4297  -18.0394   27.4994 C   0  0  0  0  0  0  0  0  0  0  0  0
   12.4915  -18.5813   28.2616 O   0  0  0  0  0  0  0  0  0  0  0  0
   10.3428  -18.6099   27.6283 O   0  0  0  0  0  0  0  0  0  0  0  0
  2  1  1  0
  3  4  1  1
  3  2  1  0
  5  3  1  0
  6  5  2  0
  7  8  1  0
  8  9  2  0
 10  8  1  0
 11 10  1  6
 11 12  1  0
 11 13  1  0
 12  5  1  0
 13 20  1  0
 14 13  2  0
 16 15  1  0
 17 16  2  0
 18 16  1  0
 19 18  1  1
 20 19  1  0
 21 19  1  0
 21 22  1  0
 23 21  2  0
M  END
$$$$
