SNN.pdb
     RDKit          3D

 23 22  0  0  1  0  0  0  0  0999 V2000
   13.1097  -18.6920   19.7358 O   0  0  0  0  0  0  0  0  0  0  0  0
   12.5772  -17.8355   18.7501 C   0  0  0  0  0  0  0  0  0  0  0  0
   13.3498  -16.5573   18.8413 C   0  0  2  0  0  0  0  0  0  0  0  0
   14.6683  -16.6123   18.2828 N   0  0  0  0  0  0  0  0  0  0  0  0
   13.4082  -16.0431   20.2612 C   0  0  0  0  0  0  0  0  0  0  0  0
   14.3743  -15.3585   20.6694 O   0  0  0  0  0  0  0  0  0  0  0  0
    9.5859  -16.9146   22.6232 N   0  0  0  0  0  0  0  0  0  0  0  0
    9.7910  -15.5067   22.8570 C   0  0  0  0  0  0  0  0  0  0  0  0
    8.7814  -14.8176   23.1117 O   0  0  0  0  0  0  0  0  0  0  0  0
   11.1298  -14.8890   22.8060 C   0  0  0  0  0  0  0  0  0  0  0  0
   12.2434  -15.8566   22.4828 C   0  0  2  0  0  0  0  0  0  0  0  0
   12.3555  -16.3309   21.1616 N   0  0  0  0  0  0  0  0  0  0  0  0
   12.5079  -16.8351   23.5588 C   0  0  0  0  0  0  0  0  0  0  0  0
   12.5292  -16.4297   24.7731 O   0  0  0  0  0  0  0  0  0  0  0  0
   10.5650  -19.4213   24.3383 N   0  0  0  0  0  0  0  0  0  0  0  0
   11.4128  -20.5613   24.1673 C   0  0  0  0  0  0  0  0  0  0  0  0
   10.8040  -21.6430   23.9538 O   0  0  0  0  0  0  0  0  0  0  0  0
   12.8832  -20.4644   24.2345 C   0  0  0  0  0  0  0  0  0  0  0  0
   13.2782  -19.0229   24.4629 C   0  0  2  0  0  0  0  0  0  0  0  0
   12.7432  -18.1967   23.3557 N   0  0  0  0  0  0  0  0  0  0  0  0
   14.7418  -18.8086   24.3906 C   0  0  0  0  0  0  0  0  0  0  0  0
   15.3699  -18.4630   23.1707 O   0  0  0  0  0  0  0  0  0  0  0  0
   15.4963  -18.9123   25.3618 O   0  0  0  0  0  0  0  0  0  0  0  0
  2  1  1  0
  3  4  1  1
  3  2  1  0
  5  3  1  0
  6  5  2  0
  7  8  1  0
  8  9  2  0
 10  8  1  0
 11 10  1  1
 11 12  1  0
 11 13  1  0
 12  5  1  0
 13 20  1  0
 14 13  2  0
 16 15  1  0
 17 16  2  0
 18 16  1  0
 19 18  1  6
 20 19  1  0
 21 19  1  0
 21 22  1  0
 23 21  2  0
M  END
$$$$
