SNN.pdb
     RDKit          3D

 23 22  0  0  1  0  0  0  0  0999 V2000
    6.4699  -12.8948   16.8284 O   0  0  0  0  0  0  0  0  0  0  0  0
    7.6447  -12.7812   17.6001 C   0  0  0  0  0  0  0  0  0  0  0  0
    8.6312  -13.7381   17.0083 C   0  0  2  0  0  0  0  0  0  0  0  0
    8.0892  -14.6245   16.0215 N   0  0  0  0  0  0  0  0  0  0  0  0
    9.3496  -14.5282   18.0776 C   0  0  0  0  0  0  0  0  0  0  0  0
    9.9835  -13.9596   18.9961 O   0  0  0  0  0  0  0  0  0  0  0  0
    7.0780  -18.7764   18.4463 N   0  0  0  0  0  0  0  0  0  0  0  0
    7.9927  -18.2048   19.4031 C   0  0  0  0  0  0  0  0  0  0  0  0
    7.5014  -17.7265   20.4467 O   0  0  0  0  0  0  0  0  0  0  0  0
    9.4506  -18.1804   19.1784 C   0  0  0  0  0  0  0  0  0  0  0  0
   10.0126  -16.8014   18.9265 C   0  0  2  0  0  0  0  0  0  0  0  0
    9.3137  -15.9424   18.0564 N   0  0  0  0  0  0  0  0  0  0  0  0
   11.4879  -16.7707   18.8382 C   0  0  0  0  0  0  0  0  0  0  0  0
   12.0653  -17.4131   17.8930 O   0  0  0  0  0  0  0  0  0  0  0  0
   16.0310  -14.0146   17.7614 N   0  0  0  0  0  0  0  0  0  0  0  0
   15.4868  -14.2105   19.0703 C   0  0  0  0  0  0  0  0  0  0  0  0
   16.3351  -14.1944   20.0012 O   0  0  0  0  0  0  0  0  0  0  0  0
   14.0435  -14.4112   19.2995 C   0  0  0  0  0  0  0  0  0  0  0  0
   13.7529  -15.8927   19.3822 C   0  0  2  0  0  0  0  0  0  0  0  0
   12.3236  -16.0840   19.7217 N   0  0  0  0  0  0  0  0  0  0  0  0
   14.4734  -16.5598   20.4909 C   0  0  0  0  0  0  0  0  0  0  0  0
   15.7128  -17.2064   20.2721 O   0  0  0  0  0  0  0  0  0  0  0  0
   14.0564  -16.5972   21.6520 O   0  0  0  0  0  0  0  0  0  0  0  0
  2  1  1  0
  3  4  1  6
  3  2  1  0
  5  3  1  0
  6  5  2  0
  7  8  1  0
  8  9  2  0
 10  8  1  0
 11 10  1  6
 11 12  1  0
 11 13  1  0
 12  5  1  0
 13 20  1  0
 14 13  2  0
 16 15  1  0
 17 16  2  0
 18 16  1  0
 19 18  1  1
 20 19  1  0
 21 19  1  0
 21 22  1  0
 23 21  2  0
M  END
$$$$
