RAD.pdb
     RDKit          3D

 25 24  0  0  1  0  0  0  0  0999 V2000
   28.1716  -27.5924  -16.3812 N   0  0  0  0  0  0  0  0  0  0  0  0
   29.5115  -27.6397  -16.8774 C   0  0  0  0  0  0  0  0  0  0  0  0
   29.9423  -28.6867  -17.5126 N   0  0  0  0  0  0  0  0  0  0  0  0
   30.4133  -26.5577  -16.6989 N   0  0  0  0  0  0  0  0  0  0  0  0
   29.9691  -25.3585  -16.0215 C   0  0  0  0  0  0  0  0  0  0  0  0
   29.9664  -24.2125  -17.0161 C   0  0  0  0  0  0  0  0  0  0  0  0
   29.3531  -22.9784  -16.3844 C   0  0  0  0  0  0  0  0  0  0  0  0
   27.9750  -22.7163  -16.9582 C   0  0  2  0  0  0  0  0  0  0  0  0
   28.1101  -22.7281  -18.3979 N   0  0  0  0  0  0  0  0  0  0  0  0
   27.5659  -21.3908  -16.4411 C   0  0  0  0  0  0  0  0  0  0  0  0
   28.4845  -20.5725  -16.1609 O   0  0  0  0  0  0  0  0  0  0  0  0
   30.9224  -28.7146  -17.8765 C   0  0  0  0  0  0  0  0  0  0  0  0
   26.3016  -18.7565  -17.1203 C   0  0  2  0  0  0  0  0  0  0  0  0
   25.8673  -19.6075  -15.9199 N   0  0  0  0  0  0  0  0  0  0  0  0
   26.2312  -20.9716  -16.2379 C   0  0  0  0  0  0  0  0  0  0  0  0
   24.3960  -19.4777  -15.6987 O   0  0  0  0  0  0  0  0  0  0  0  0
   23.8507  -18.3594  -15.5194 N   0  0  0  0  0  0  0  0  0  0  0  0
   23.5360  -20.6115  -15.6796 C   0  0  2  0  0  0  0  0  0  0  0  0
   22.1018  -20.4412  -15.4550 C   0  0  0  0  0  0  0  0  0  0  0  0
   21.9807  -19.3668  -14.4015 C   0  0  0  0  0  0  0  0  0  0  0  0
   20.5775  -19.1625  -14.0146 O   0  0  0  0  0  0  0  0  0  0  0  0
   19.6481  -19.8622  -14.4806 C   0  0  0  0  0  0  0  0  0  0  0  0
   21.4496  -20.1077  -16.7232 O   0  0  0  0  0  0  0  0  0  0  0  0
   21.8913  -19.2009  -17.4702 O   0  0  0  0  0  0  0  0  0  0  0  0
   20.2683  -18.1541  -13.0966 O   0  0  0  0  0  0  0  0  0  0  0  0
  2  3  2  0
  2  1  1  0
  4  2  1  0
  5  4  1  0
  6  5  1  0
  7  8  1  0
  7  6  1  0
  8 10  1  0
  8  9  1  6
 10 14  1  0
 11 10  2  0
 13 14  1  0
 13 15  1  0
 13 12  1  1
 15 16  2  0
 17 15  1  0
 17 18  1  0
 18 22  1  0
 18 19  1  1
 20 24  1  0
 20 19  1  0
 21 20  2  0
 22 23  2  0
 22 25  1  0
M  END
$$$$
