RAD.pdb
     RDKit          3D

 25 24  0  0  1  0  0  0  0  0999 V2000
   29.2255  -20.9100   -9.7774 N   0  0  0  0  0  0  0  0  0  0  0  0
   29.3530  -21.3355  -11.1363 C   0  0  0  0  0  0  0  0  0  0  0  0
   30.4712  -21.1732  -11.7755 N   0  0  0  0  0  0  0  0  0  0  0  0
   28.2765  -21.9454  -11.8327 N   0  0  0  0  0  0  0  0  0  0  0  0
   27.0672  -21.1916  -12.0852 C   0  0  0  0  0  0  0  0  0  0  0  0
   26.2138  -21.2096  -10.8306 C   0  0  0  0  0  0  0  0  0  0  0  0
   24.9333  -20.4320  -11.0626 C   0  0  0  0  0  0  0  0  0  0  0  0
   24.0581  -21.1394  -12.0777 C   0  0  2  0  0  0  0  0  0  0  0  0
   24.9298  -21.9722  -12.8764 N   0  0  0  0  0  0  0  0  0  0  0  0
   23.4150  -20.0698  -12.8740 C   0  0  0  0  0  0  0  0  0  0  0  0
   22.6785  -19.2535  -12.2550 O   0  0  0  0  0  0  0  0  0  0  0  0
   30.5591  -21.4869  -12.7693 C   0  0  0  0  0  0  0  0  0  0  0  0
   23.5435  -18.7317  -16.3528 C   0  0  2  0  0  0  0  0  0  0  0  0
   22.7895  -18.9352  -15.0324 N   0  0  0  0  0  0  0  0  0  0  0  0
   23.5613  -19.8921  -14.2689 C   0  0  0  0  0  0  0  0  0  0  0  0
   21.4095  -19.4414  -15.2970 O   0  0  0  0  0  0  0  0  0  0  0  0
   20.5522  -18.7423  -15.8940 N   0  0  0  0  0  0  0  0  0  0  0  0
   20.9939  -20.7397  -14.8880 C   0  0  1  0  0  0  0  0  0  0  0  0
   19.6284  -21.1899  -15.1506 C   0  0  0  0  0  0  0  0  0  0  0  0
   19.7332  -22.6729  -15.4123 C   0  0  0  0  0  0  0  0  0  0  0  0
   18.4081  -23.2617  -15.6527 O   0  0  0  0  0  0  0  0  0  0  0  0
   17.3685  -22.5642  -15.7101 C   0  0  0  0  0  0  0  0  0  0  0  0
   18.7774  -20.8455  -14.0094 O   0  0  0  0  0  0  0  0  0  0  0  0
   17.7080  -20.2053  -14.1574 O   0  0  0  0  0  0  0  0  0  0  0  0
   18.3028  -24.6455  -15.8227 O   0  0  0  0  0  0  0  0  0  0  0  0
  2  3  2  0
  2  1  1  0
  4  2  1  0
  5  4  1  0
  6  5  1  0
  7  8  1  0
  7  6  1  0
  8 10  1  0
  8  9  1  6
 10 14  1  0
 11 10  2  0
 13 14  1  0
 13 15  1  0
 13 12  1  1
 15 16  2  0
 17 15  1  0
 17 18  1  0
 18 22  1  0
 18 19  1  1
 20 24  1  0
 20 19  1  0
 21 20  2  0
 22 23  2  0
 22 25  1  0
M  END
$$$$
