RAD.pdb
     RDKit          3D

 25 24  0  0  1  0  0  0  0  0999 V2000
   24.4448  -20.6491  -11.9214 N   0  0  0  0  0  0  0  0  0  0  0  0
   25.4701  -20.9422  -10.9693 C   0  0  0  0  0  0  0  0  0  0  0  0
   25.2486  -20.8011   -9.6979 N   0  0  0  0  0  0  0  0  0  0  0  0
   26.7550  -21.3944  -11.3699 N   0  0  0  0  0  0  0  0  0  0  0  0
   27.1587  -21.2722  -12.7542 C   0  0  0  0  0  0  0  0  0  0  0  0
   27.9425  -19.9833  -12.9187 C   0  0  0  0  0  0  0  0  0  0  0  0
   27.5885  -19.3253  -14.2378 C   0  0  0  0  0  0  0  0  0  0  0  0
   27.4572  -20.3652  -15.3324 C   0  0  2  0  0  0  0  0  0  0  0  0
   28.5928  -20.1958  -16.2115 N   0  0  0  0  0  0  0  0  0  0  0  0
   26.1721  -20.0804  -16.0101 C   0  0  0  0  0  0  0  0  0  0  0  0
   25.9205  -18.8752  -16.2864 O   0  0  0  0  0  0  0  0  0  0  0  0
   26.0007  -21.0217   -9.0055 C   0  0  0  0  0  0  0  0  0  0  0  0
   23.7088  -21.7833  -18.0748 C   0  0  1  0  0  0  0  0  0  0  0  0
   23.9453  -20.7192  -16.9952 N   0  0  0  0  0  0  0  0  0  0  0  0
   25.2085  -21.0497  -16.3710 C   0  0  0  0  0  0  0  0  0  0  0  0
   22.8307  -20.7337  -16.0012 O   0  0  0  0  0  0  0  0  0  0  0  0
   23.0019  -21.1341  -14.8220 N   0  0  0  0  0  0  0  0  0  0  0  0
   21.5189  -20.2954  -16.3366 C   0  0  1  0  0  0  0  0  0  0  0  0
   20.4635  -20.2970  -15.3254 C   0  0  0  0  0  0  0  0  0  0  0  0
   20.9560  -19.3908  -14.2232 C   0  0  0  0  0  0  0  0  0  0  0  0
   19.9894  -19.3307  -13.1175 O   0  0  0  0  0  0  0  0  0  0  0  0
   18.8949  -19.9401  -13.1542 C   0  0  0  0  0  0  0  0  0  0  0  0
   19.2063  -19.8611  -15.9374 O   0  0  0  0  0  0  0  0  0  0  0  0
   19.1491  -18.8385  -16.6630 O   0  0  0  0  0  0  0  0  0  0  0  0
   20.3003  -18.5687  -11.9871 O   0  0  0  0  0  0  0  0  0  0  0  0
  2  3  2  0
  2  1  1  0
  4  2  1  0
  5  4  1  0
  6  5  1  0
  7  8  1  0
  7  6  1  0
  8 10  1  0
  8  9  1  6
 10 14  1  0
 11 10  2  0
 13 14  1  0
 13 15  1  0
 13 12  1  6
 15 16  2  0
 17 15  1  0
 17 18  1  0
 18 22  1  0
 18 19  1  6
 20 24  1  0
 20 19  1  0
 21 20  2  0
 22 23  2  0
 22 25  1  0
M  END
$$$$
