RAD.pdb
     RDKit          3D

 25 24  0  0  1  0  0  0  0  0999 V2000
   19.3510  -13.4446  -19.1831 N   0  0  0  0  0  0  0  0  0  0  0  0
   19.8573  -13.9727  -17.9548 C   0  0  0  0  0  0  0  0  0  0  0  0
   20.7083  -14.9530  -17.9601 N   0  0  0  0  0  0  0  0  0  0  0  0
   19.4559  -13.4530  -16.6960 N   0  0  0  0  0  0  0  0  0  0  0  0
   19.7307  -12.0698  -16.3708 C   0  0  0  0  0  0  0  0  0  0  0  0
   18.6109  -11.2095  -16.9263 C   0  0  0  0  0  0  0  0  0  0  0  0
   18.8630   -9.7518  -16.5948 C   0  0  0  0  0  0  0  0  0  0  0  0
   18.7349   -9.5159  -15.1033 C   0  0  2  0  0  0  0  0  0  0  0  0
   17.3340   -9.6579  -14.7741 N   0  0  0  0  0  0  0  0  0  0  0  0
   19.2333   -8.1422  -14.8659 C   0  0  0  0  0  0  0  0  0  0  0  0
   18.5368   -7.1904  -15.3142 O   0  0  0  0  0  0  0  0  0  0  0  0
   21.0742  -15.3366  -17.0585 C   0  0  0  0  0  0  0  0  0  0  0  0
   22.1845   -6.5506  -13.1814 C   0  0  1  0  0  0  0  0  0  0  0  0
   20.8717   -6.4543  -13.9693 N   0  0  0  0  0  0  0  0  0  0  0  0
   20.4242   -7.8146  -14.1782 C   0  0  0  0  0  0  0  0  0  0  0  0
   21.0981   -5.7538  -15.2687 O   0  0  0  0  0  0  0  0  0  0  0  0
   21.2811   -6.3881  -16.3384 N   0  0  0  0  0  0  0  0  0  0  0  0
   21.1181   -4.3339  -15.3636 C   0  0  1  0  0  0  0  0  0  0  0  0
   21.1980   -3.6867  -16.6717 C   0  0  0  0  0  0  0  0  0  0  0  0
   19.9189   -4.0532  -17.3847 C   0  0  0  0  0  0  0  0  0  0  0  0
   19.7881   -3.3134  -18.6481 O   0  0  0  0  0  0  0  0  0  0  0  0
   20.6643   -3.3607  -19.5429 C   0  0  0  0  0  0  0  0  0  0  0  0
   21.3855   -2.2458  -16.4881 O   0  0  0  0  0  0  0  0  0  0  0  0
   21.0195   -1.6647  -15.4375 O   0  0  0  0  0  0  0  0  0  0  0  0
   18.6489   -2.5307  -18.8594 O   0  0  0  0  0  0  0  0  0  0  0  0
  2  3  2  0
  2  1  1  0
  4  2  1  0
  5  4  1  0
  6  5  1  0
  7  8  1  0
  7  6  1  0
  8 10  1  0
  8  9  1  6
 10 14  1  0
 11 10  2  0
 13 14  1  0
 13 15  1  0
 13 12  1  1
 15 16  2  0
 17 15  1  0
 17 18  1  0
 18 22  1  0
 18 19  1  6
 20 24  1  0
 20 19  1  0
 21 20  2  0
 22 23  2  0
 22 25  1  0
M  END
$$$$
