RAD.pdb
     RDKit          3D

 25 24  0  0  1  0  0  0  0  0999 V2000
   20.3647  -16.1279  -14.4614 N   0  0  0  0  0  0  0  0  0  0  0  0
   20.7633  -16.1532  -15.8341 C   0  0  0  0  0  0  0  0  0  0  0  0
   21.0037  -17.2813  -16.4298 N   0  0  0  0  0  0  0  0  0  0  0  0
   20.9096  -14.9616  -16.5921 N   0  0  0  0  0  0  0  0  0  0  0  0
   20.5094  -13.6941  -16.0197 C   0  0  0  0  0  0  0  0  0  0  0  0
   19.1108  -13.3624  -16.5063 C   0  0  0  0  0  0  0  0  0  0  0  0
   18.6717  -12.0225  -15.9494 C   0  0  0  0  0  0  0  0  0  0  0  0
   17.3614  -11.5898  -16.5762 C   0  0  2  0  0  0  0  0  0  0  0  0
   17.2654  -12.2599  -17.8540 N   0  0  0  0  0  0  0  0  0  0  0  0
   17.4453  -10.1184  -16.7161 C   0  0  0  0  0  0  0  0  0  0  0  0
   18.2798   -9.6647  -17.5467 O   0  0  0  0  0  0  0  0  0  0  0  0
   21.2993  -17.2938  -17.4329 C   0  0  0  0  0  0  0  0  0  0  0  0
   15.5437   -7.1289  -15.5456 C   0  0  1  0  0  0  0  0  0  0  0  0
   16.8189   -7.7523  -16.1277 N   0  0  0  0  0  0  0  0  0  0  0  0
   16.6662   -9.1852  -15.9946 C   0  0  0  0  0  0  0  0  0  0  0  0
   18.0191   -7.2649  -15.3843 O   0  0  0  0  0  0  0  0  0  0  0  0
   18.6658   -8.0142  -14.6094 N   0  0  0  0  0  0  0  0  0  0  0  0
   18.4926   -5.9291  -15.5145 C   0  0  1  0  0  0  0  0  0  0  0  0
   19.6492   -5.4817  -14.7411 C   0  0  0  0  0  0  0  0  0  0  0  0
   20.8108   -6.3124  -15.2306 C   0  0  0  0  0  0  0  0  0  0  0  0
   22.0682   -5.8846  -14.6010 O   0  0  0  0  0  0  0  0  0  0  0  0
   22.7680   -4.9572  -15.0707 C   0  0  0  0  0  0  0  0  0  0  0  0
   19.8279   -4.0401  -14.9277 O   0  0  0  0  0  0  0  0  0  0  0  0
   19.5104   -3.4726  -16.0013 O   0  0  0  0  0  0  0  0  0  0  0  0
   22.4988   -6.5335  -13.4396 O   0  0  0  0  0  0  0  0  0  0  0  0
  2  3  2  0
  2  1  1  0
  4  2  1  0
  5  4  1  0
  6  5  1  0
  7  8  1  0
  7  6  1  0
  8 10  1  0
  8  9  1  6
 10 14  1  0
 11 10  2  0
 13 14  1  0
 13 15  1  0
 13 12  1  6
 15 16  2  0
 17 15  1  0
 17 18  1  0
 18 22  1  0
 18 19  1  1
 20 24  1  0
 20 19  1  0
 21 20  2  0
 22 23  2  0
 22 25  1  0
M  END
$$$$
