RAD.pdb
     RDKit          3D

 25 24  0  0  1  0  0  0  0  0999 V2000
   26.4104  -20.5800   -9.1524 N   0  0  0  0  0  0  0  0  0  0  0  0
   25.1826  -21.0189   -9.7386 C   0  0  0  0  0  0  0  0  0  0  0  0
   24.0580  -20.8586   -9.1101 N   0  0  0  0  0  0  0  0  0  0  0  0
   25.1434  -21.6390  -11.0152 N   0  0  0  0  0  0  0  0  0  0  0  0
   26.2002  -21.3820  -11.9699 C   0  0  0  0  0  0  0  0  0  0  0  0
   25.9945  -19.9994  -12.5605 C   0  0  0  0  0  0  0  0  0  0  0  0
   27.0192  -19.7415  -13.6475 C   0  0  0  0  0  0  0  0  0  0  0  0
   26.7786  -20.6551  -14.8326 C   0  0  2  0  0  0  0  0  0  0  0  0
   28.0739  -21.1279  -15.2685 N   0  0  0  0  0  0  0  0  0  0  0  0
   26.1083  -19.8225  -15.8569 C   0  0  0  0  0  0  0  0  0  0  0  0
   26.7308  -18.8065  -16.2719 O   0  0  0  0  0  0  0  0  0  0  0  0
   23.1650  -21.1991   -9.5349 C   0  0  0  0  0  0  0  0  0  0  0  0
   23.7467  -20.1131  -18.5294 C   0  0  1  0  0  0  0  0  0  0  0  0
   24.1956  -19.2090  -17.3741 N   0  0  0  0  0  0  0  0  0  0  0  0
   24.8299  -20.0761  -16.4045 C   0  0  0  0  0  0  0  0  0  0  0  0
   23.0198  -18.5040  -16.7817 O   0  0  0  0  0  0  0  0  0  0  0  0
   22.3840  -18.9821  -15.8083 N   0  0  0  0  0  0  0  0  0  0  0  0
   22.5588  -17.2560  -17.2871 C   0  0  1  0  0  0  0  0  0  0  0  0
   21.3875  -16.6121  -16.6957 C   0  0  0  0  0  0  0  0  0  0  0  0
   21.6611  -15.1292  -16.7652 C   0  0  0  0  0  0  0  0  0  0  0  0
   20.4993  -14.3557  -16.3044 O   0  0  0  0  0  0  0  0  0  0  0  0
   19.5101  -14.8984  -15.7589 C   0  0  0  0  0  0  0  0  0  0  0  0
   20.1867  -17.0306  -17.4224 O   0  0  0  0  0  0  0  0  0  0  0  0
   20.1748  -17.1206  -18.6743 O   0  0  0  0  0  0  0  0  0  0  0  0
   20.4966  -12.9686  -16.4802 O   0  0  0  0  0  0  0  0  0  0  0  0
  2  3  2  0
  2  1  1  0
  4  2  1  0
  5  4  1  0
  6  5  1  0
  7  8  1  0
  7  6  1  0
  8 10  1  0
  8  9  1  6
 10 14  1  0
 11 10  2  0
 13 14  1  0
 13 15  1  0
 13 12  1  6
 15 16  2  0
 17 15  1  0
 17 18  1  0
 18 22  1  0
 18 19  1  6
 20 24  1  0
 20 19  1  0
 21 20  2  0
 22 23  2  0
 22 25  1  0
M  END
$$$$
