RAD.pdb
     RDKit          3D

 25 24  0  0  1  0  0  0  0  0999 V2000
   32.6992  -23.3586  -12.3392 N   0  0  0  0  0  0  0  0  0  0  0  0
   32.1593  -22.2573  -11.6047 C   0  0  0  0  0  0  0  0  0  0  0  0
   32.8953  -21.6073  -10.7555 N   0  0  0  0  0  0  0  0  0  0  0  0
   30.8142  -21.8347  -11.7723 N   0  0  0  0  0  0  0  0  0  0  0  0
   30.2473  -21.7574  -13.1016 C   0  0  0  0  0  0  0  0  0  0  0  0
   29.7825  -20.3342  -13.3485 C   0  0  0  0  0  0  0  0  0  0  0  0
   28.2742  -20.2511  -13.2203 C   0  0  0  0  0  0  0  0  0  0  0  0
   27.6416  -21.5992  -13.5019 C   0  0  2  0  0  0  0  0  0  0  0  0
   27.6168  -21.7598  -14.9389 N   0  0  0  0  0  0  0  0  0  0  0  0
   26.2826  -21.5392  -12.9178 C   0  0  0  0  0  0  0  0  0  0  0  0
   25.3081  -21.6087  -13.7163 O   0  0  0  0  0  0  0  0  0  0  0  0
   32.4899  -20.8144  -10.2071 C   0  0  0  0  0  0  0  0  0  0  0  0
   24.7919  -20.7828   -9.5770 C   0  0  2  0  0  0  0  0  0  0  0  0
   24.6478  -21.2801  -11.0211 N   0  0  0  0  0  0  0  0  0  0  0  0
   25.9923  -21.4110  -11.5402 C   0  0  0  0  0  0  0  0  0  0  0  0
   23.8495  -20.3079  -11.8261 O   0  0  0  0  0  0  0  0  0  0  0  0
   24.3144  -19.1894  -12.1625 N   0  0  0  0  0  0  0  0  0  0  0  0
   22.5232  -20.5965  -12.2539 C   0  0  1  0  0  0  0  0  0  0  0  0
   21.7645  -19.6044  -13.0130 C   0  0  0  0  0  0  0  0  0  0  0  0
   22.5897  -19.3172  -14.2440 C   0  0  0  0  0  0  0  0  0  0  0  0
   22.1899  -20.1839  -15.3618 O   0  0  0  0  0  0  0  0  0  0  0  0
   21.0206  -20.1951  -15.8124 C   0  0  0  0  0  0  0  0  0  0  0  0
   20.4294  -20.1330  -13.3013 O   0  0  0  0  0  0  0  0  0  0  0  0
   19.4808  -19.3786  -13.6274 O   0  0  0  0  0  0  0  0  0  0  0  0
   23.1451  -21.0243  -15.9420 O   0  0  0  0  0  0  0  0  0  0  0  0
  2  3  2  0
  2  1  1  0
  4  2  1  0
  5  4  1  0
  6  5  1  0
  7  8  1  0
  7  6  1  0
  8 10  1  0
  8  9  1  6
 10 14  1  0
 11 10  2  0
 13 14  1  0
 13 15  1  0
 13 12  1  1
 15 16  2  0
 17 15  1  0
 17 18  1  0
 18 22  1  0
 18 19  1  1
 20 24  1  0
 20 19  1  0
 21 20  2  0
 22 23  2  0
 22 25  1  0
M  END
$$$$
