RAD.pdb
     RDKit          3D

 25 24  0  0  1  0  0  0  0  0999 V2000
   25.5286  -19.6394   -9.0737 N   0  0  0  0  0  0  0  0  0  0  0  0
   25.6404  -21.0399   -9.3383 C   0  0  0  0  0  0  0  0  0  0  0  0
   25.0458  -21.9045   -8.5739 N   0  0  0  0  0  0  0  0  0  0  0  0
   26.3955  -21.5355  -10.4337 N   0  0  0  0  0  0  0  0  0  0  0  0
   26.6760  -20.6719  -11.5605 C   0  0  0  0  0  0  0  0  0  0  0  0
   25.3661  -20.3256  -12.2438 C   0  0  0  0  0  0  0  0  0  0  0  0
   25.6213  -19.3991  -13.4163 C   0  0  0  0  0  0  0  0  0  0  0  0
   25.4396  -20.1378  -14.7270 C   0  0  2  0  0  0  0  0  0  0  0  0
   26.6939  -20.7974  -15.0150 N   0  0  0  0  0  0  0  0  0  0  0  0
   25.1027  -19.1040  -15.7318 C   0  0  0  0  0  0  0  0  0  0  0  0
   24.2525  -18.2327  -15.3999 O   0  0  0  0  0  0  0  0  0  0  0  0
   25.1370  -22.9281   -8.7678 C   0  0  0  0  0  0  0  0  0  0  0  0
   26.1364  -18.2415  -19.2336 C   0  0  2  0  0  0  0  0  0  0  0  0
   25.2346  -18.0393  -18.0090 N   0  0  0  0  0  0  0  0  0  0  0  0
   25.6572  -19.0168  -17.0292 C   0  0  0  0  0  0  0  0  0  0  0  0
   23.8020  -18.2333  -18.3836 O   0  0  0  0  0  0  0  0  0  0  0  0
   23.2652  -19.3700  -18.3768 N   0  0  0  0  0  0  0  0  0  0  0  0
   22.9710  -17.1434  -18.7669 C   0  0  1  0  0  0  0  0  0  0  0  0
   21.5503  -17.3613  -19.0321 C   0  0  0  0  0  0  0  0  0  0  0  0
   20.9677  -17.8652  -17.7338 C   0  0  0  0  0  0  0  0  0  0  0  0
   19.5138  -18.0504  -17.8442 O   0  0  0  0  0  0  0  0  0  0  0  0
   18.8811  -17.7589  -18.8860 C   0  0  0  0  0  0  0  0  0  0  0  0
   20.9501  -16.1135  -19.5093 O   0  0  0  0  0  0  0  0  0  0  0  0
   21.6038  -15.0426  -19.5466 O   0  0  0  0  0  0  0  0  0  0  0  0
   18.8124  -18.5686  -16.7512 O   0  0  0  0  0  0  0  0  0  0  0  0
  2  3  2  0
  2  1  1  0
  4  2  1  0
  5  4  1  0
  6  5  1  0
  7  8  1  0
  7  6  1  0
  8 10  1  0
  8  9  1  6
 10 14  1  0
 11 10  2  0
 13 14  1  0
 13 15  1  0
 13 12  1  1
 15 16  2  0
 17 15  1  0
 17 18  1  0
 18 22  1  0
 18 19  1  6
 20 24  1  0
 20 19  1  0
 21 20  2  0
 22 23  2  0
 22 25  1  0
M  END
$$$$
