RAD.pdb
     RDKit          3D

 25 24  0  0  1  0  0  0  0  0999 V2000
   20.8781  -22.0597   -9.4924 N   0  0  0  0  0  0  0  0  0  0  0  0
   21.2616  -21.9484   -8.1196 C   0  0  0  0  0  0  0  0  0  0  0  0
   20.6552  -22.6451   -7.2074 N   0  0  0  0  0  0  0  0  0  0  0  0
   22.3080  -21.0835   -7.7037 N   0  0  0  0  0  0  0  0  0  0  0  0
   22.9740  -20.2444   -8.6766 C   0  0  0  0  0  0  0  0  0  0  0  0
   23.9396  -21.1004   -9.4750 C   0  0  0  0  0  0  0  0  0  0  0  0
   24.6402  -20.2551  -10.5205 C   0  0  0  0  0  0  0  0  0  0  0  0
   25.4421  -21.1308  -11.4623 C   0  0  2  0  0  0  0  0  0  0  0  0
   26.8344  -20.9617  -11.1102 N   0  0  0  0  0  0  0  0  0  0  0  0
   25.1419  -20.6402  -12.8265 C   0  0  0  0  0  0  0  0  0  0  0  0
   25.5163  -19.4700  -13.1139 O   0  0  0  0  0  0  0  0  0  0  0  0
   20.9209  -22.5391   -6.2015 C   0  0  0  0  0  0  0  0  0  0  0  0
   24.4683  -22.0313  -16.1229 C   0  0  1  0  0  0  0  0  0  0  0  0
   24.2204  -20.8643  -15.1583 N   0  0  0  0  0  0  0  0  0  0  0  0
   24.4712  -21.3778  -13.8288 C   0  0  0  0  0  0  0  0  0  0  0  0
   22.8169  -20.3715  -15.2919 O   0  0  0  0  0  0  0  0  0  0  0  0
   21.8815  -20.8442  -14.5979 N   0  0  0  0  0  0  0  0  0  0  0  0
   22.4659  -19.3424  -16.2103 C   0  0  1  0  0  0  0  0  0  0  0  0
   21.0773  -18.9001  -16.3214 C   0  0  0  0  0  0  0  0  0  0  0  0
   21.1428  -17.4074  -16.5369 C   0  0  0  0  0  0  0  0  0  0  0  0
   20.1293  -16.7125  -15.7304 O   0  0  0  0  0  0  0  0  0  0  0  0
   19.3550  -17.3256  -14.9591 C   0  0  0  0  0  0  0  0  0  0  0  0
   20.4223  -19.6304  -17.4090 O   0  0  0  0  0  0  0  0  0  0  0  0
   21.0767  -20.1022  -18.3706 O   0  0  0  0  0  0  0  0  0  0  0  0
   20.0249  -15.3215  -15.8264 O   0  0  0  0  0  0  0  0  0  0  0  0
  2  3  2  0
  2  1  1  0
  4  2  1  0
  5  4  1  0
  6  5  1  0
  7  8  1  0
  7  6  1  0
  8 10  1  0
  8  9  1  1
 10 14  1  0
 11 10  2  0
 13 14  1  0
 13 15  1  0
 13 12  1  6
 15 16  2  0
 17 15  1  0
 17 18  1  0
 18 22  1  0
 18 19  1  6
 20 24  1  0
 20 19  1  0
 21 20  2  0
 22 23  2  0
 22 25  1  0
M  END
$$$$
