RAD.pdb
     RDKit          3D

 25 24  0  0  1  0  0  0  0  0999 V2000
    7.8029  -17.9223    1.1402 N   0  0  0  0  0  0  0  0  0  0  0  0
    8.2803  -19.0928    0.4724 C   0  0  0  0  0  0  0  0  0  0  0  0
    7.8513  -19.3952   -0.7150 N   0  0  0  0  0  0  0  0  0  0  0  0
    9.2310  -19.9601    1.0722 N   0  0  0  0  0  0  0  0  0  0  0  0
    9.8064  -19.6162    2.3547 C   0  0  0  0  0  0  0  0  0  0  0  0
   10.9784  -18.6800    2.1249 C   0  0  0  0  0  0  0  0  0  0  0  0
   12.2447  -19.2825    2.7008 C   0  0  0  0  0  0  0  0  0  0  0  0
   13.1731  -18.1931    3.1988 C   0  0  2  0  0  0  0  0  0  0  0  0
   13.3464  -17.2581    2.1094 N   0  0  0  0  0  0  0  0  0  0  0  0
   14.4364  -18.8729    3.5647 C   0  0  0  0  0  0  0  0  0  0  0  0
   15.1353  -19.3371    2.6224 O   0  0  0  0  0  0  0  0  0  0  0  0
    8.2184  -20.2421   -1.2068 C   0  0  0  0  0  0  0  0  0  0  0  0
   16.4723  -19.3700    6.6630 C   0  0  1  0  0  0  0  0  0  0  0  0
   16.1788  -19.6841    5.1903 N   0  0  0  0  0  0  0  0  0  0  0  0
   14.9191  -19.0417    4.8826 C   0  0  0  0  0  0  0  0  0  0  0  0
   16.0979  -21.1608    4.9822 O   0  0  0  0  0  0  0  0  0  0  0  0
   14.9945  -21.7595    4.9158 N   0  0  0  0  0  0  0  0  0  0  0  0
   17.2637  -21.9660    4.8481 C   0  0  1  0  0  0  0  0  0  0  0  0
   17.1409  -23.4109    4.6654 C   0  0  0  0  0  0  0  0  0  0  0  0
   18.2930  -23.8067    3.7739 C   0  0  0  0  0  0  0  0  0  0  0  0
   18.2770  -25.2507    3.5001 O   0  0  0  0  0  0  0  0  0  0  0  0
   17.3970  -26.0093    3.9701 C   0  0  0  0  0  0  0  0  0  0  0  0
   17.1489  -24.0668    5.9749 O   0  0  0  0  0  0  0  0  0  0  0  0
   17.6726  -23.5237    6.9781 O   0  0  0  0  0  0  0  0  0  0  0  0
   19.2762  -25.7971    2.6889 O   0  0  0  0  0  0  0  0  0  0  0  0
  2  3  2  0
  2  1  1  0
  4  2  1  0
  5  4  1  0
  6  5  1  0
  7  8  1  0
  7  6  1  0
  8 10  1  0
  8  9  1  6
 10 14  1  0
 11 10  2  0
 13 14  1  0
 13 15  1  0
 13 12  1  6
 15 16  2  0
 17 15  1  0
 17 18  1  0
 18 22  1  0
 18 19  1  1
 20 24  1  0
 20 19  1  0
 21 20  2  0
 22 23  2  0
 22 25  1  0
M  END
$$$$
