RAD.pdb
     RDKit          3D

 25 24  0  0  1  0  0  0  0  0999 V2000
   22.6525  -21.2756  -10.9827 N   0  0  0  0  0  0  0  0  0  0  0  0
   23.3705  -21.1121   -9.7573 C   0  0  0  0  0  0  0  0  0  0  0  0
   22.7748  -21.2833   -8.6166 N   0  0  0  0  0  0  0  0  0  0  0  0
   24.7461  -20.7613   -9.7381 N   0  0  0  0  0  0  0  0  0  0  0  0
   25.4722  -20.6387  -10.9839 C   0  0  0  0  0  0  0  0  0  0  0  0
   26.9281  -20.3481  -10.6700 C   0  0  0  0  0  0  0  0  0  0  0  0
   27.6677  -19.9722  -11.9389 C   0  0  0  0  0  0  0  0  0  0  0  0
   27.3536  -20.9554  -13.0485 C   0  0  2  0  0  0  0  0  0  0  0  0
   28.6191  -21.3795  -13.6050 N   0  0  0  0  0  0  0  0  0  0  0  0
   26.5281  -20.2121  -14.0272 C   0  0  0  0  0  0  0  0  0  0  0  0
   26.5233  -18.9534  -13.9395 O   0  0  0  0  0  0  0  0  0  0  0  0
   23.2958  -21.1292   -7.7230 C   0  0  0  0  0  0  0  0  0  0  0  0
   24.9189  -20.8547  -17.2849 C   0  0  1  0  0  0  0  0  0  0  0  0
   24.9640  -20.0310  -15.9914 N   0  0  0  0  0  0  0  0  0  0  0  0
   25.7478  -20.8002  -15.0488 C   0  0  0  0  0  0  0  0  0  0  0  0
   23.5810  -19.7952  -15.4794 O   0  0  0  0  0  0  0  0  0  0  0  0
   23.0160  -20.6070  -14.7036 N   0  0  0  0  0  0  0  0  0  0  0  0
   22.8319  -18.6408  -15.8423 C   0  0  1  0  0  0  0  0  0  0  0  0
   21.4848  -18.4429  -15.3108 C   0  0  0  0  0  0  0  0  0  0  0  0
   21.1325  -17.0083  -15.6217 C   0  0  0  0  0  0  0  0  0  0  0  0
   19.7751  -16.6858  -15.1592 O   0  0  0  0  0  0  0  0  0  0  0  0
   19.1031  -17.4782  -14.4584 C   0  0  0  0  0  0  0  0  0  0  0  0
   20.5781  -19.4226  -15.9133 O   0  0  0  0  0  0  0  0  0  0  0  0
   20.5586  -19.6244  -17.1520 O   0  0  0  0  0  0  0  0  0  0  0  0
   19.2142  -15.4547  -15.5124 O   0  0  0  0  0  0  0  0  0  0  0  0
  2  3  2  0
  2  1  1  0
  4  2  1  0
  5  4  1  0
  6  5  1  0
  7  8  1  0
  7  6  1  0
  8 10  1  0
  8  9  1  6
 10 14  1  0
 11 10  2  0
 13 14  1  0
 13 15  1  0
 13 12  1  6
 15 16  2  0
 17 15  1  0
 17 18  1  0
 18 22  1  0
 18 19  1  6
 20 24  1  0
 20 19  1  0
 21 20  2  0
 22 23  2  0
 22 25  1  0
M  END
$$$$
