RAD.pdb
     RDKit          3D

 25 24  0  0  1  0  0  0  0  0999 V2000
   21.5158  -28.7301  -12.8731 N   0  0  0  0  0  0  0  0  0  0  0  0
   20.8730  -29.3166  -14.0074 C   0  0  0  0  0  0  0  0  0  0  0  0
   21.2837  -30.4524  -14.4834 N   0  0  0  0  0  0  0  0  0  0  0  0
   19.7735  -28.6895  -14.6505 N   0  0  0  0  0  0  0  0  0  0  0  0
   19.3683  -27.3607  -14.2451 C   0  0  0  0  0  0  0  0  0  0  0  0
   18.3537  -27.4842  -13.1235 C   0  0  0  0  0  0  0  0  0  0  0  0
   19.0075  -27.1614  -11.7944 C   0  0  0  0  0  0  0  0  0  0  0  0
   19.0586  -25.6623  -11.5771 C   0  0  2  0  0  0  0  0  0  0  0  0
   20.1625  -25.1609  -12.3653 N   0  0  0  0  0  0  0  0  0  0  0  0
   19.2700  -25.4702  -10.1245 C   0  0  0  0  0  0  0  0  0  0  0  0
   20.3117  -25.9741   -9.6216 O   0  0  0  0  0  0  0  0  0  0  0  0
   20.8879  -30.8215  -15.3783 C   0  0  0  0  0  0  0  0  0  0  0  0
   18.4730  -23.0083   -7.6515 C   0  0  2  0  0  0  0  0  0  0  0  0
   18.7005  -24.5100   -7.8682 N   0  0  0  0  0  0  0  0  0  0  0  0
   18.3991  -24.7684   -9.2599 C   0  0  0  0  0  0  0  0  0  0  0  0
   17.8132  -25.3034   -6.9662 O   0  0  0  0  0  0  0  0  0  0  0  0
   16.6565  -25.6506   -7.3152 N   0  0  0  0  0  0  0  0  0  0  0  0
   18.2302  -25.7073   -5.6669 C   0  0  2  0  0  0  0  0  0  0  0  0
   17.2745  -26.3211   -4.7470 C   0  0  0  0  0  0  0  0  0  0  0  0
   18.0926  -26.8023   -3.5731 C   0  0  0  0  0  0  0  0  0  0  0  0
   17.2534  -27.5207   -2.6036 O   0  0  0  0  0  0  0  0  0  0  0  0
   16.2871  -26.9734   -2.0229 C   0  0  0  0  0  0  0  0  0  0  0  0
   16.2452  -25.3411   -4.3934 O   0  0  0  0  0  0  0  0  0  0  0  0
   16.4571  -24.1068   -4.4779 O   0  0  0  0  0  0  0  0  0  0  0  0
   17.5419  -28.8590   -2.3192 O   0  0  0  0  0  0  0  0  0  0  0  0
  2  3  2  0
  2  1  1  0
  4  2  1  0
  5  4  1  0
  6  5  1  0
  7  8  1  0
  7  6  1  0
  8 10  1  0
  8  9  1  6
 10 14  1  0
 11 10  2  0
 13 14  1  0
 13 15  1  0
 13 12  1  6
 15 16  2  0
 17 15  1  0
 17 18  1  0
 18 22  1  0
 18 19  1  1
 20 24  1  0
 20 19  1  0
 21 20  2  0
 22 23  2  0
 22 25  1  0
M  END
$$$$
