RAD.pdb
     RDKit          3D

 25 24  0  0  1  0  0  0  0  0999 V2000
   21.1274  -13.4813  -21.6696 N   0  0  0  0  0  0  0  0  0  0  0  0
   19.8998  -13.0708  -22.2764 C   0  0  0  0  0  0  0  0  0  0  0  0
   19.1215  -13.9415  -22.8433 N   0  0  0  0  0  0  0  0  0  0  0  0
   19.4870  -11.7123  -22.2831 N   0  0  0  0  0  0  0  0  0  0  0  0
   19.0981  -11.0750  -21.0434 C   0  0  0  0  0  0  0  0  0  0  0  0
   20.3207  -10.9629  -20.1515 C   0  0  0  0  0  0  0  0  0  0  0  0
   19.9580  -10.2567  -18.8600 C   0  0  0  0  0  0  0  0  0  0  0  0
   19.9135  -11.2423  -17.7095 C   0  0  2  0  0  0  0  0  0  0  0  0
   18.5379  -11.6666  -17.5726 N   0  0  0  0  0  0  0  0  0  0  0  0
   20.3957  -10.5012  -16.5220 C   0  0  0  0  0  0  0  0  0  0  0  0
   19.5897   -9.6978  -15.9771 O   0  0  0  0  0  0  0  0  0  0  0  0
   18.2272  -13.6348  -23.2906 C   0  0  0  0  0  0  0  0  0  0  0  0
   23.4803  -10.4347  -14.3947 C   0  0  1  0  0  0  0  0  0  0  0  0
   22.1220   -9.8536  -14.8081 N   0  0  0  0  0  0  0  0  0  0  0  0
   21.6839  -10.6232  -15.9527 C   0  0  0  0  0  0  0  0  0  0  0  0
   22.2606   -8.4064  -15.1503 O   0  0  0  0  0  0  0  0  0  0  0  0
   22.5461   -8.0269  -16.3141 N   0  0  0  0  0  0  0  0  0  0  0  0
   22.0766   -7.3833  -14.1783 C   0  0  1  0  0  0  0  0  0  0  0  0
   22.1788   -5.9773  -14.5641 C   0  0  0  0  0  0  0  0  0  0  0  0
   21.1981   -5.7951  -15.6972 C   0  0  0  0  0  0  0  0  0  0  0  0
   21.1311   -4.3878  -16.1164 O   0  0  0  0  0  0  0  0  0  0  0  0
   21.8676   -3.5065  -15.6151 C   0  0  0  0  0  0  0  0  0  0  0  0
   21.9047   -5.1343  -13.3983 O   0  0  0  0  0  0  0  0  0  0  0  0
   21.2090   -5.5471  -12.4385 O   0  0  0  0  0  0  0  0  0  0  0  0
   20.2156   -4.0193  -17.1069 O   0  0  0  0  0  0  0  0  0  0  0  0
  2  3  2  0
  2  1  1  0
  4  2  1  0
  5  4  1  0
  6  5  1  0
  7  8  1  0
  7  6  1  0
  8 10  1  0
  8  9  1  1
 10 14  1  0
 11 10  2  0
 13 14  1  0
 13 15  1  0
 13 12  1  1
 15 16  2  0
 17 15  1  0
 17 18  1  0
 18 22  1  0
 18 19  1  1
 20 24  1  0
 20 19  1  0
 21 20  2  0
 22 23  2  0
 22 25  1  0
M  END
$$$$
