RAD.pdb
     RDKit          3D

 25 24  0  0  1  0  0  0  0  0999 V2000
   20.8727  -22.1904  -14.3462 N   0  0  0  0  0  0  0  0  0  0  0  0
   20.8845  -22.7343  -13.0241 C   0  0  0  0  0  0  0  0  0  0  0  0
   20.2200  -23.8153  -12.7503 N   0  0  0  0  0  0  0  0  0  0  0  0
   21.6145  -22.1229  -11.9709 N   0  0  0  0  0  0  0  0  0  0  0  0
   22.0639  -20.7543  -12.1103 C   0  0  0  0  0  0  0  0  0  0  0  0
   22.8382  -20.3689  -10.8634 C   0  0  0  0  0  0  0  0  0  0  0  0
   24.1795  -19.7762  -11.2478 C   0  0  0  0  0  0  0  0  0  0  0  0
   25.2131  -20.8704  -11.4253 C   0  0  2  0  0  0  0  0  0  0  0  0
   25.8122  -21.0969  -10.1288 N   0  0  0  0  0  0  0  0  0  0  0  0
   26.1863  -20.3524  -12.4133 C   0  0  0  0  0  0  0  0  0  0  0  0
   26.8219  -19.3073  -12.1035 O   0  0  0  0  0  0  0  0  0  0  0  0
   20.2031  -24.1891  -11.7737 C   0  0  0  0  0  0  0  0  0  0  0  0
   28.4041  -21.3095  -15.0005 C   0  0  1  0  0  0  0  0  0  0  0  0
   27.2905  -20.3057  -14.6751 N   0  0  0  0  0  0  0  0  0  0  0  0
   26.4585  -20.9352  -13.6722 C   0  0  0  0  0  0  0  0  0  0  0  0
   26.5064  -19.9857  -15.9053 O   0  0  0  0  0  0  0  0  0  0  0  0
   25.6504  -20.7810  -16.3689 N   0  0  0  0  0  0  0  0  0  0  0  0
   26.6868  -18.7657  -16.6154 C   0  0  1  0  0  0  0  0  0  0  0  0
   25.8742  -18.4760  -17.7952 C   0  0  0  0  0  0  0  0  0  0  0  0
   25.5725  -16.9984  -17.7275 C   0  0  0  0  0  0  0  0  0  0  0  0
   24.4136  -16.7352  -16.8626 O   0  0  0  0  0  0  0  0  0  0  0  0
   23.7848  -17.6562  -16.2908 C   0  0  0  0  0  0  0  0  0  0  0  0
   26.6059  -18.8796  -18.9980 O   0  0  0  0  0  0  0  0  0  0  0  0
   26.0083  -19.2765  -20.0279 O   0  0  0  0  0  0  0  0  0  0  0  0
   23.9981  -15.4139  -16.6709 O   0  0  0  0  0  0  0  0  0  0  0  0
  2  3  2  0
  2  1  1  0
  4  2  1  0
  5  4  1  0
  6  5  1  0
  7  8  1  0
  7  6  1  0
  8 10  1  0
  8  9  1  1
 10 14  1  0
 11 10  2  0
 13 14  1  0
 13 15  1  0
 13 12  1  1
 15 16  2  0
 17 15  1  0
 17 18  1  0
 18 22  1  0
 18 19  1  6
 20 24  1  0
 20 19  1  0
 21 20  2  0
 22 23  2  0
 22 25  1  0
M  END
$$$$
