RAD.pdb
     RDKit          3D

 25 24  0  0  1  0  0  0  0  0999 V2000
   27.1207  -21.6314  -10.9299 N   0  0  0  0  0  0  0  0  0  0  0  0
   25.8435  -21.0315  -10.7005 C   0  0  0  0  0  0  0  0  0  0  0  0
   25.4068  -20.8534   -9.4910 N   0  0  0  0  0  0  0  0  0  0  0  0
   25.0119  -20.6111  -11.7718 N   0  0  0  0  0  0  0  0  0  0  0  0
   25.4428  -20.8181  -13.1377 C   0  0  0  0  0  0  0  0  0  0  0  0
   24.2392  -21.2198  -13.9701 C   0  0  0  0  0  0  0  0  0  0  0  0
   23.3139  -20.0327  -14.1513 C   0  0  0  0  0  0  0  0  0  0  0  0
   21.8674  -20.4843  -14.1716 C   0  0  2  0  0  0  0  0  0  0  0  0
   21.8755  -21.9098  -14.4148 N   0  0  0  0  0  0  0  0  0  0  0  0
   21.2221  -19.7289  -15.2692 C   0  0  0  0  0  0  0  0  0  0  0  0
   21.5608  -20.0229  -16.4486 O   0  0  0  0  0  0  0  0  0  0  0  0
   24.4382  -20.4934   -9.3293 C   0  0  0  0  0  0  0  0  0  0  0  0
   18.4515  -17.2436  -15.6271 C   0  0  1  0  0  0  0  0  0  0  0  0
   19.6613  -17.9894  -16.2047 N   0  0  0  0  0  0  0  0  0  0  0  0
   20.2594  -18.7077  -15.0998 C   0  0  0  0  0  0  0  0  0  0  0  0
   20.6267  -17.0218  -16.8066 O   0  0  0  0  0  0  0  0  0  0  0  0
   21.8558  -17.0660  -16.5464 N   0  0  0  0  0  0  0  0  0  0  0  0
   20.2064  -16.0011  -17.7049 C   0  0  1  0  0  0  0  0  0  0  0  0
   21.1781  -15.0513  -18.2434 C   0  0  0  0  0  0  0  0  0  0  0  0
   22.1896  -15.8857  -18.9914 C   0  0  0  0  0  0  0  0  0  0  0  0
   23.1372  -15.0346  -19.7250 O   0  0  0  0  0  0  0  0  0  0  0  0
   23.6231  -15.3747  -20.8290 C   0  0  0  0  0  0  0  0  0  0  0  0
   20.4831  -14.0687  -19.0779 O   0  0  0  0  0  0  0  0  0  0  0  0
   19.4785  -14.3817  -19.7622 O   0  0  0  0  0  0  0  0  0  0  0  0
   23.5095  -13.8048  -19.1736 O   0  0  0  0  0  0  0  0  0  0  0  0
  2  3  2  0
  2  1  1  0
  4  2  1  0
  5  4  1  0
  6  5  1  0
  7  8  1  0
  7  6  1  0
  8 10  1  0
  8  9  1  6
 10 14  1  0
 11 10  2  0
 13 14  1  0
 13 15  1  0
 13 12  1  6
 15 16  2  0
 17 15  1  0
 17 18  1  0
 18 22  1  0
 18 19  1  1
 20 24  1  0
 20 19  1  0
 21 20  2  0
 22 23  2  0
 22 25  1  0
M  END
$$$$
