LDP.pdb
     RDKit          3D

 24 24  0  0  1  0  0  0  0  0999 V2000
    9.7913  -13.6624   19.3147 C   0  0  0  0  0  0  0  0  0  0  0  0
    8.3124  -13.6249   18.9896 C   0  0  2  0  0  0  0  0  0  0  0  0
    7.9696  -12.2318   18.5572 C   0  0  0  0  0  0  0  0  0  0  0  0
    7.5590  -14.0454   20.2270 C   0  0  0  0  0  0  0  0  0  0  0  0
    7.8505  -15.4672   20.6412 C   0  0  2  0  0  0  0  0  0  0  0  0
    7.0276  -16.3336   19.8082 N   0  0  0  0  0  0  0  0  0  0  0  0
    7.3703  -15.6172   22.0423 C   0  0  0  0  0  0  0  0  0  0  0  0
    6.1894  -15.3264   22.3852 O   0  0  0  0  0  0  0  0  0  0  0  0
    8.2142  -16.1006   23.0915 N   0  0  0  0  0  0  0  0  0  0  0  0
    7.7783  -16.1071   24.4965 C   0  0  1  0  0  0  0  0  0  0  0  0
    7.8857  -17.5369   24.9371 C   0  0  0  0  0  0  0  0  0  0  0  0
    6.7239  -18.2656   24.3330 C   0  0  0  0  0  0  0  0  0  0  0  0
    5.5660  -17.7837   24.4521 O   0  0  0  0  0  0  0  0  0  0  0  0
    8.4727  -15.1308   25.3116 C   0  0  0  0  0  0  0  0  0  0  0  0
    9.7114  -14.9801   25.0086 O   0  0  0  0  0  0  0  0  0  0  0  0
    6.8483  -19.4488   23.6453 O   0  0  0  0  0  0  0  0  0  0  0  0
    7.9522  -14.3536   26.3671 N   0  0  0  0  0  0  0  0  0  0  0  0
    6.6288  -14.1086   26.8757 C   0  0  0  0  0  0  0  0  0  0  0  0
    6.6011  -12.5942   26.8898 C   0  0  0  0  0  0  0  0  0  0  0  0
    7.9184  -12.3153   27.5962 C   0  0  0  0  0  0  0  0  0  0  0  0
    8.7467  -13.5440   27.2754 C   0  0  1  0  0  0  0  0  0  0  0  0
    9.1068  -14.2880   28.5071 C   0  0  0  0  0  0  0  0  0  0  0  0
    9.9944  -13.6709   29.3783 O   0  0  0  0  0  0  0  0  0  0  0  0
    8.6773  -15.4092   28.8112 O   0  0  0  0  0  0  0  0  0  0  0  0
  2  1  1  1
  2  3  1  0
  4  2  1  0
  4  5  1  0
  5  6  1  6
  5  7  1  0
  7  8  2  0
  9  7  1  0
  9 10  1  0
 10 11  1  1
 12 11  1  0
 13 12  2  0
 14 10  1  0
 14 15  2  0
 16 12  1  0
 17 14  1  0
 18 17  1  0
 19 18  1  0
 20 19  1  0
 21 20  1  0
 21 17  1  0
 21 22  1  1
 23 22  1  0
 24 22  2  0
M  END
$$$$
