LDP.pdb
     RDKit          3D

 24 24  0  0  1  0  0  0  0  0999 V2000
    9.1682  -12.8033   18.5765 C   0  0  0  0  0  0  0  0  0  0  0  0
    7.8696  -13.5780   18.6658 C   0  0  2  0  0  0  0  0  0  0  0  0
    6.8163  -12.7999   17.9376 C   0  0  0  0  0  0  0  0  0  0  0  0
    7.5431  -13.7608   20.1271 C   0  0  0  0  0  0  0  0  0  0  0  0
    8.6660  -14.3995   20.9077 C   0  0  2  0  0  0  0  0  0  0  0  0
    8.9460  -15.6848   20.2820 N   0  0  0  0  0  0  0  0  0  0  0  0
    8.1407  -14.6787   22.2723 C   0  0  0  0  0  0  0  0  0  0  0  0
    7.5408  -13.8020   22.9565 O   0  0  0  0  0  0  0  0  0  0  0  0
    8.2806  -15.9578   22.8978 N   0  0  0  0  0  0  0  0  0  0  0  0
    7.8540  -16.1931   24.2858 C   0  0  1  0  0  0  0  0  0  0  0  0
    7.6562  -17.6761   24.3926 C   0  0  0  0  0  0  0  0  0  0  0  0
    7.3824  -17.9747   25.8354 C   0  0  0  0  0  0  0  0  0  0  0  0
    6.1930  -17.9660   26.2507 O   0  0  0  0  0  0  0  0  0  0  0  0
    8.7401  -15.5922   25.2624 C   0  0  0  0  0  0  0  0  0  0  0  0
    9.9822  -15.8611   25.0794 O   0  0  0  0  0  0  0  0  0  0  0  0
    8.3686  -18.2621   26.7484 O   0  0  0  0  0  0  0  0  0  0  0  0
    8.3968  -14.7707   26.3561 N   0  0  0  0  0  0  0  0  0  0  0  0
    7.1530  -14.3282   26.9282 C   0  0  0  0  0  0  0  0  0  0  0  0
    7.3740  -12.8305   26.9755 C   0  0  0  0  0  0  0  0  0  0  0  0
    8.7467  -12.7893   27.6284 C   0  0  0  0  0  0  0  0  0  0  0  0
    9.3491  -14.1268   27.2452 C   0  0  1  0  0  0  0  0  0  0  0  0
    9.6322  -14.9538   28.4436 C   0  0  0  0  0  0  0  0  0  0  0  0
    8.9388  -16.1510   28.5602 O   0  0  0  0  0  0  0  0  0  0  0  0
   10.4344  -14.6563   29.3390 O   0  0  0  0  0  0  0  0  0  0  0  0
  2  1  1  1
  2  3  1  0
  4  2  1  0
  4  5  1  0
  5  6  1  6
  5  7  1  0
  7  8  2  0
  9  7  1  0
  9 10  1  0
 10 11  1  1
 12 11  1  0
 13 12  2  0
 14 10  1  0
 14 15  2  0
 16 12  1  0
 17 14  1  0
 18 17  1  0
 19 18  1  0
 20 19  1  0
 21 20  1  0
 21 17  1  0
 21 22  1  1
 23 22  1  0
 24 22  2  0
M  END
$$$$
