LDP.pdb
     RDKit          3D

 24 24  0  0  1  0  0  0  0  0999 V2000
    9.6094  -13.2789   19.6906 C   0  0  0  0  0  0  0  0  0  0  0  0
    8.2222  -13.3797   19.0906 C   0  0  2  0  0  0  0  0  0  0  0  0
    7.7633  -11.9939   18.7524 C   0  0  0  0  0  0  0  0  0  0  0  0
    7.3299  -14.0497   20.1057 C   0  0  0  0  0  0  0  0  0  0  0  0
    7.7932  -15.4382   20.4739 C   0  0  2  0  0  0  0  0  0  0  0  0
    7.0660  -16.3720   19.6248 N   0  0  0  0  0  0  0  0  0  0  0  0
    7.3549  -15.6836   21.8752 C   0  0  0  0  0  0  0  0  0  0  0  0
    6.1356  -15.7091   22.2058 O   0  0  0  0  0  0  0  0  0  0  0  0
    8.2855  -15.9069   22.9388 N   0  0  0  0  0  0  0  0  0  0  0  0
    7.8413  -16.1403   24.3216 C   0  0  1  0  0  0  0  0  0  0  0  0
    7.8907  -17.6280   24.5069 C   0  0  0  0  0  0  0  0  0  0  0  0
    7.1319  -17.9344   25.7623 C   0  0  0  0  0  0  0  0  0  0  0  0
    7.2128  -19.0870   26.2645 O   0  0  0  0  0  0  0  0  0  0  0  0
    8.5680  -15.3484   25.2934 C   0  0  0  0  0  0  0  0  0  0  0  0
    9.8451  -15.4278   25.1854 O   0  0  0  0  0  0  0  0  0  0  0  0
    6.3390  -17.0173   26.4094 O   0  0  0  0  0  0  0  0  0  0  0  0
    8.0416  -14.5266   26.3115 N   0  0  0  0  0  0  0  0  0  0  0  0
    6.7139  -14.1179   26.6860 C   0  0  0  0  0  0  0  0  0  0  0  0
    6.8804  -12.6134   26.7426 C   0  0  0  0  0  0  0  0  0  0  0  0
    8.1390  -12.5215   27.5909 C   0  0  0  0  0  0  0  0  0  0  0  0
    8.8315  -13.8431   27.3218 C   0  0  1  0  0  0  0  0  0  0  0  0
    8.9580  -14.6478   28.5615 C   0  0  0  0  0  0  0  0  0  0  0  0
    9.8469  -14.1865   29.5232 O   0  0  0  0  0  0  0  0  0  0  0  0
    8.3343  -15.6913   28.7981 O   0  0  0  0  0  0  0  0  0  0  0  0
  2  1  1  1
  2  3  1  0
  4  2  1  0
  4  5  1  0
  5  6  1  6
  5  7  1  0
  7  8  2  0
  9  7  1  0
  9 10  1  0
 10 11  1  1
 12 11  1  0
 13 12  2  0
 14 10  1  0
 14 15  2  0
 16 12  1  0
 17 14  1  0
 18 17  1  0
 19 18  1  0
 20 19  1  0
 21 20  1  0
 21 17  1  0
 21 22  1  1
 23 22  1  0
 24 22  2  0
M  END
$$$$
