LDP.pdb
     RDKit          3D

 24 24  0  0  1  0  0  0  0  0999 V2000
    9.6464  -13.4717   19.6296 C   0  0  0  0  0  0  0  0  0  0  0  0
    8.2793  -13.5003   18.9780 C   0  0  2  0  0  0  0  0  0  0  0  0
    7.9220  -12.0972   18.5919 C   0  0  0  0  0  0  0  0  0  0  0  0
    7.3088  -14.0886   19.9718 C   0  0  0  0  0  0  0  0  0  0  0  0
    7.7828  -15.3968   20.5566 C   0  0  2  0  0  0  0  0  0  0  0  0
    7.0775  -16.4607   19.8547 N   0  0  0  0  0  0  0  0  0  0  0  0
    7.3286  -15.4273   21.9740 C   0  0  0  0  0  0  0  0  0  0  0  0
    6.2112  -14.9601   22.3343 O   0  0  0  0  0  0  0  0  0  0  0  0
    8.1273  -15.9880   23.0202 N   0  0  0  0  0  0  0  0  0  0  0  0
    7.6771  -15.9949   24.4206 C   0  0  1  0  0  0  0  0  0  0  0  0
    7.4999  -17.4424   24.7717 C   0  0  0  0  0  0  0  0  0  0  0  0
    6.3370  -17.9441   23.9705 C   0  0  0  0  0  0  0  0  0  0  0  0
    5.1894  -17.4732   24.1903 O   0  0  0  0  0  0  0  0  0  0  0  0
    8.5344  -15.2225   25.2971 C   0  0  0  0  0  0  0  0  0  0  0  0
    9.7612  -15.1737   24.9215 O   0  0  0  0  0  0  0  0  0  0  0  0
    6.4499  -18.9041   22.9937 O   0  0  0  0  0  0  0  0  0  0  0  0
    8.1784  -14.5408   26.4794 N   0  0  0  0  0  0  0  0  0  0  0  0
    6.9486  -14.3632   27.2045 C   0  0  0  0  0  0  0  0  0  0  0  0
    6.9114  -12.8554   27.3443 C   0  0  0  0  0  0  0  0  0  0  0  0
    8.3204  -12.6058   27.8586 C   0  0  0  0  0  0  0  0  0  0  0  0
    9.0983  -13.7886   27.3160 C   0  0  1  0  0  0  0  0  0  0  0  0
    9.6519  -14.6191   28.4133 C   0  0  0  0  0  0  0  0  0  0  0  0
   10.6223  -14.0352   29.2164 O   0  0  0  0  0  0  0  0  0  0  0  0
    9.3144  -15.7845   28.6622 O   0  0  0  0  0  0  0  0  0  0  0  0
  2  1  1  1
  2  3  1  0
  4  2  1  0
  4  5  1  0
  5  6  1  6
  5  7  1  0
  7  8  2  0
  9  7  1  0
  9 10  1  0
 10 11  1  1
 12 11  1  0
 13 12  2  0
 14 10  1  0
 14 15  2  0
 16 12  1  0
 17 14  1  0
 18 17  1  0
 19 18  1  0
 20 19  1  0
 21 20  1  0
 21 17  1  0
 21 22  1  1
 23 22  1  0
 24 22  2  0
M  END
$$$$
