LDP.pdb
     RDKit          3D

 24 24  0  0  1  0  0  0  0  0999 V2000
    7.6524  -11.9020   19.5763 C   0  0  0  0  0  0  0  0  0  0  0  0
    8.5381  -13.0728   19.9492 C   0  0  2  0  0  0  0  0  0  0  0  0
    9.8823  -12.8524   19.3250 C   0  0  0  0  0  0  0  0  0  0  0  0
    7.8712  -14.3307   19.4506 C   0  0  0  0  0  0  0  0  0  0  0  0
    8.3926  -15.5799   20.1181 C   0  0  2  0  0  0  0  0  0  0  0  0
    7.9659  -16.7105   19.3048 N   0  0  0  0  0  0  0  0  0  0  0  0
    7.6971  -15.6928   21.4294 C   0  0  0  0  0  0  0  0  0  0  0  0
    6.5121  -16.1200   21.5296 O   0  0  0  0  0  0  0  0  0  0  0  0
    8.3249  -15.3255   22.6614 N   0  0  0  0  0  0  0  0  0  0  0  0
    7.7481  -15.6900   23.9646 C   0  0  1  0  0  0  0  0  0  0  0  0
    7.5944  -17.1816   23.9256 C   0  0  0  0  0  0  0  0  0  0  0  0
    7.0386  -17.5955   25.2543 C   0  0  0  0  0  0  0  0  0  0  0  0
    7.8287  -17.9608   26.1651 O   0  0  0  0  0  0  0  0  0  0  0  0
    8.4909  -15.1508   25.0858 C   0  0  0  0  0  0  0  0  0  0  0  0
    9.7483  -15.4094   25.0552 O   0  0  0  0  0  0  0  0  0  0  0  0
    5.6951  -17.6006   25.5435 O   0  0  0  0  0  0  0  0  0  0  0  0
    7.9983  -14.3972   26.1714 N   0  0  0  0  0  0  0  0  0  0  0  0
    6.6822  -14.0807   26.6590 C   0  0  0  0  0  0  0  0  0  0  0  0
    6.7678  -12.5720   26.7617 C   0  0  0  0  0  0  0  0  0  0  0  0
    8.0802  -12.4355   27.5174 C   0  0  0  0  0  0  0  0  0  0  0  0
    8.8233  -13.7038   27.1463 C   0  0  1  0  0  0  0  0  0  0  0  0
    9.0890  -14.5421   28.3409 C   0  0  0  0  0  0  0  0  0  0  0  0
    8.4876  -15.7930   28.3782 O   0  0  0  0  0  0  0  0  0  0  0  0
    9.8013  -14.2099   29.2981 O   0  0  0  0  0  0  0  0  0  0  0  0
  2  1  1  6
  2  3  1  0
  4  2  1  0
  4  5  1  0
  5  6  1  6
  5  7  1  0
  7  8  2  0
  9  7  1  0
  9 10  1  0
 10 11  1  1
 12 11  1  0
 13 12  2  0
 14 10  1  0
 14 15  2  0
 16 12  1  0
 17 14  1  0
 18 17  1  0
 19 18  1  0
 20 19  1  0
 21 20  1  0
 21 17  1  0
 21 22  1  1
 23 22  1  0
 24 22  2  0
M  END
$$$$
