LDP.pdb
     RDKit          3D

 24 24  0  0  1  0  0  0  0  0999 V2000
    7.2725  -12.0523   19.2623 C   0  0  0  0  0  0  0  0  0  0  0  0
    7.9866  -13.1306   20.0507 C   0  0  2  0  0  0  0  0  0  0  0  0
    9.4376  -12.7640   20.1257 C   0  0  0  0  0  0  0  0  0  0  0  0
    7.7604  -14.4434   19.3429 C   0  0  0  0  0  0  0  0  0  0  0  0
    8.3287  -15.6239   20.0924 C   0  0  2  0  0  0  0  0  0  0  0  0
    7.9208  -16.8240   19.3745 N   0  0  0  0  0  0  0  0  0  0  0  0
    7.6588  -15.6564   21.4214 C   0  0  0  0  0  0  0  0  0  0  0  0
    6.4196  -15.8695   21.5470 O   0  0  0  0  0  0  0  0  0  0  0  0
    8.3742  -15.4487   22.6428 N   0  0  0  0  0  0  0  0  0  0  0  0
    7.7659  -15.7221   23.9539 C   0  0  1  0  0  0  0  0  0  0  0  0
    7.6379  -17.2149   24.0267 C   0  0  0  0  0  0  0  0  0  0  0  0
    7.1391  -17.5411   25.4018 C   0  0  0  0  0  0  0  0  0  0  0  0
    5.9015  -17.4998   25.6334 O   0  0  0  0  0  0  0  0  0  0  0  0
    8.4670  -15.0842   25.0500 C   0  0  0  0  0  0  0  0  0  0  0  0
    9.7421  -15.2308   25.0133 O   0  0  0  0  0  0  0  0  0  0  0  0
    7.9658  -17.8883   26.4432 O   0  0  0  0  0  0  0  0  0  0  0  0
    7.9182  -14.3439   26.1176 N   0  0  0  0  0  0  0  0  0  0  0  0
    6.5791  -14.0102   26.5243 C   0  0  0  0  0  0  0  0  0  0  0  0
    6.6874  -12.5061   26.6669 C   0  0  0  0  0  0  0  0  0  0  0  0
    7.9491  -12.4138   27.5106 C   0  0  0  0  0  0  0  0  0  0  0  0
    8.6901  -13.6893   27.1605 C   0  0  1  0  0  0  0  0  0  0  0  0
    8.8591  -14.5586   28.3505 C   0  0  0  0  0  0  0  0  0  0  0  0
    9.6980  -14.0945   29.3548 O   0  0  0  0  0  0  0  0  0  0  0  0
    8.3115  -15.6578   28.5112 O   0  0  0  0  0  0  0  0  0  0  0  0
  2  1  1  6
  2  3  1  0
  4  2  1  0
  4  5  1  0
  5  6  1  6
  5  7  1  0
  7  8  2  0
  9  7  1  0
  9 10  1  0
 10 11  1  1
 12 11  1  0
 13 12  2  0
 14 10  1  0
 14 15  2  0
 16 12  1  0
 17 14  1  0
 18 17  1  0
 19 18  1  0
 20 19  1  0
 21 20  1  0
 21 17  1  0
 21 22  1  1
 23 22  1  0
 24 22  2  0
M  END
$$$$
