LDP.pdb
     RDKit          3D

 24 24  0  0  1  0  0  0  0  0999 V2000
    7.5370  -11.9336   27.5408 C   0  0  0  0  0  0  0  0  0  0  0  0
    6.7450  -12.7841   26.5693 C   0  0  2  0  0  0  0  0  0  0  0  0
    5.3239  -12.3096   26.5919 C   0  0  0  0  0  0  0  0  0  0  0  0
    6.8784  -14.2227   27.0033 C   0  0  0  0  0  0  0  0  0  0  0  0
    6.6044  -15.2035   25.8893 C   0  0  2  0  0  0  0  0  0  0  0  0
    6.9631  -16.5256   26.3844 N   0  0  0  0  0  0  0  0  0  0  0  0
    7.5458  -14.8767   24.7834 C   0  0  0  0  0  0  0  0  0  0  0  0
    7.5402  -13.7545   24.2025 O   0  0  0  0  0  0  0  0  0  0  0  0
    8.5181  -15.8115   24.3064 N   0  0  0  0  0  0  0  0  0  0  0  0
    9.3262  -15.5455   23.1063 C   0  0  1  0  0  0  0  0  0  0  0  0
   10.4611  -16.5242   23.1691 C   0  0  0  0  0  0  0  0  0  0  0  0
   11.4228  -16.1437   22.0846 C   0  0  0  0  0  0  0  0  0  0  0  0
   11.3103  -16.6752   20.9479 O   0  0  0  0  0  0  0  0  0  0  0  0
    8.5467  -15.5447   21.8848 C   0  0  0  0  0  0  0  0  0  0  0  0
    7.6215  -16.4345   21.8523 O   0  0  0  0  0  0  0  0  0  0  0  0
   12.4379  -15.2339   22.2592 O   0  0  0  0  0  0  0  0  0  0  0  0
    8.6895  -14.6999   20.7646 N   0  0  0  0  0  0  0  0  0  0  0  0
    9.6294  -13.6761   20.3925 C   0  0  0  0  0  0  0  0  0  0  0  0
    8.6934  -12.5330   20.0583 C   0  0  0  0  0  0  0  0  0  0  0  0
    7.7166  -13.2541   19.1429 C   0  0  0  0  0  0  0  0  0  0  0  0
    7.8093  -14.6940   19.6083 C   0  0  1  0  0  0  0  0  0  0  0  0
    8.3105  -15.5786   18.5282 C   0  0  0  0  0  0  0  0  0  0  0  0
    7.4333  -15.8642   17.4907 O   0  0  0  0  0  0  0  0  0  0  0  0
    9.4439  -16.0761   18.4857 O   0  0  0  0  0  0  0  0  0  0  0  0
  2  1  1  1
  2  3  1  0
  4  2  1  0
  4  5  1  0
  5  6  1  1
  5  7  1  0
  7  8  2  0
  9  7  1  0
  9 10  1  0
 10 11  1  6
 12 11  1  0
 13 12  2  0
 14 10  1  0
 14 15  2  0
 16 12  1  0
 17 14  1  0
 18 17  1  0
 19 18  1  0
 20 19  1  0
 21 20  1  0
 21 17  1  0
 21 22  1  6
 23 22  1  0
 24 22  2  0
M  END
$$$$
