LDP.pdb
     RDKit          3D

 24 24  0  0  1  0  0  0  0  0999 V2000
    9.7174  -13.3020   19.3487 C   0  0  0  0  0  0  0  0  0  0  0  0
    8.2713  -13.4281   18.9160 C   0  0  2  0  0  0  0  0  0  0  0  0
    7.7797  -12.0624   18.5438 C   0  0  0  0  0  0  0  0  0  0  0  0
    7.4980  -14.0248   20.0655 C   0  0  0  0  0  0  0  0  0  0  0  0
    7.9458  -15.4229   20.4160 C   0  0  2  0  0  0  0  0  0  0  0  0
    7.2654  -16.3322   19.5037 N   0  0  0  0  0  0  0  0  0  0  0  0
    7.4372  -15.7101   21.7853 C   0  0  0  0  0  0  0  0  0  0  0  0
    6.2072  -15.8666   22.0288 O   0  0  0  0  0  0  0  0  0  0  0  0
    8.3078  -15.8279   22.9144 N   0  0  0  0  0  0  0  0  0  0  0  0
    7.7892  -16.0378   24.2749 C   0  0  1  0  0  0  0  0  0  0  0  0
    7.7166  -17.5263   24.4450 C   0  0  0  0  0  0  0  0  0  0  0  0
    7.3523  -17.7823   25.8760 C   0  0  0  0  0  0  0  0  0  0  0  0
    6.1775  -17.5446   26.2639 O   0  0  0  0  0  0  0  0  0  0  0  0
    8.5329  -15.3122   25.2850 C   0  0  0  0  0  0  0  0  0  0  0  0
    9.7986  -15.5266   25.2597 O   0  0  0  0  0  0  0  0  0  0  0  0
    8.2388  -18.2691   26.8064 O   0  0  0  0  0  0  0  0  0  0  0  0
    8.0331  -14.4249   26.2607 N   0  0  0  0  0  0  0  0  0  0  0  0
    6.7213  -13.9420   26.6009 C   0  0  0  0  0  0  0  0  0  0  0  0
    6.9547  -12.4454   26.5959 C   0  0  0  0  0  0  0  0  0  0  0  0
    8.2070  -12.3733   27.4553 C   0  0  0  0  0  0  0  0  0  0  0  0
    8.8422  -13.7347   27.2511 C   0  0  1  0  0  0  0  0  0  0  0  0
    8.9192  -14.4904   28.5252 C   0  0  0  0  0  0  0  0  0  0  0  0
    8.1524  -15.6439   28.6200 O   0  0  0  0  0  0  0  0  0  0  0  0
    9.6111  -14.1696   29.5010 O   0  0  0  0  0  0  0  0  0  0  0  0
  2  1  1  1
  2  3  1  0
  4  2  1  0
  4  5  1  0
  5  6  1  6
  5  7  1  0
  7  8  2  0
  9  7  1  0
  9 10  1  0
 10 11  1  1
 12 11  1  0
 13 12  2  0
 14 10  1  0
 14 15  2  0
 16 12  1  0
 17 14  1  0
 18 17  1  0
 19 18  1  0
 20 19  1  0
 21 20  1  0
 21 17  1  0
 21 22  1  1
 23 22  1  0
 24 22  2  0
M  END
$$$$
