LDP.pdb
     RDKit          3D

 24 24  0  0  1  0  0  0  0  0999 V2000
    5.8737  -11.8249   25.8772 C   0  0  0  0  0  0  0  0  0  0  0  0
    6.4899  -12.6459   26.9910 C   0  0  2  0  0  0  0  0  0  0  0  0
    7.3038  -11.7249   27.8480 C   0  0  0  0  0  0  0  0  0  0  0  0
    7.3254  -13.7292   26.3553 C   0  0  0  0  0  0  0  0  0  0  0  0
    6.5364  -14.6092   25.4167 C   0  0  2  0  0  0  0  0  0  0  0  0
    5.7089  -15.4806   26.2400 N   0  0  0  0  0  0  0  0  0  0  0  0
    7.5178  -15.4749   24.7070 C   0  0  0  0  0  0  0  0  0  0  0  0
    8.0095  -16.5114   25.2368 O   0  0  0  0  0  0  0  0  0  0  0  0
    7.9677  -15.1901   23.3792 N   0  0  0  0  0  0  0  0  0  0  0  0
    8.9976  -16.0059   22.7176 C   0  0  1  0  0  0  0  0  0  0  0  0
    8.8222  -15.7501   21.2501 C   0  0  0  0  0  0  0  0  0  0  0  0
    7.5362  -16.4048   20.8461 C   0  0  0  0  0  0  0  0  0  0  0  0
    7.3925  -17.6432   21.0278 O   0  0  0  0  0  0  0  0  0  0  0  0
   10.3265  -15.7871   23.2526 C   0  0  0  0  0  0  0  0  0  0  0  0
   10.5455  -14.5816   23.6365 O   0  0  0  0  0  0  0  0  0  0  0  0
    6.4861  -15.7232   20.2792 O   0  0  0  0  0  0  0  0  0  0  0  0
   11.3708  -16.7245   23.3926 N   0  0  0  0  0  0  0  0  0  0  0  0
   11.4678  -18.1511   23.2331 C   0  0  0  0  0  0  0  0  0  0  0  0
   12.0895  -18.5476   24.5562 C   0  0  0  0  0  0  0  0  0  0  0  0
   13.2388  -17.5537   24.6132 C   0  0  0  0  0  0  0  0  0  0  0  0
   12.7367  -16.3996   23.7680 C   0  0  1  0  0  0  0  0  0  0  0  0
   13.5996  -16.1854   22.5807 C   0  0  0  0  0  0  0  0  0  0  0  0
   13.1209  -16.6495   21.3628 O   0  0  0  0  0  0  0  0  0  0  0  0
   14.7056  -15.6282   22.5972 O   0  0  0  0  0  0  0  0  0  0  0  0
  2  1  1  6
  2  3  1  0
  4  2  1  0
  4  5  1  0
  5  6  1  1
  5  7  1  0
  7  8  2  0
  9  7  1  0
  9 10  1  0
 10 11  1  6
 12 11  1  0
 13 12  2  0
 14 10  1  0
 14 15  2  0
 16 12  1  0
 17 14  1  0
 18 17  1  0
 19 18  1  0
 20 19  1  0
 21 20  1  0
 21 17  1  0
 21 22  1  6
 23 22  1  0
 24 22  2  0
M  END
$$$$
