LDP.pdb
     RDKit          3D

 24 24  0  0  1  0  0  0  0  0999 V2000
    9.6968  -13.2821   19.3254 C   0  0  0  0  0  0  0  0  0  0  0  0
    8.2609  -13.4275   18.8656 C   0  0  2  0  0  0  0  0  0  0  0  0
    7.7595  -12.0692   18.4798 C   0  0  0  0  0  0  0  0  0  0  0  0
    7.4732  -14.0304   20.0021 C   0  0  0  0  0  0  0  0  0  0  0  0
    7.9508  -15.4100   20.3851 C   0  0  2  0  0  0  0  0  0  0  0  0
    7.2874  -16.3551   19.4970 N   0  0  0  0  0  0  0  0  0  0  0  0
    7.4515  -15.6744   21.7623 C   0  0  0  0  0  0  0  0  0  0  0  0
    6.2188  -15.7057   22.0383 O   0  0  0  0  0  0  0  0  0  0  0  0
    8.3345  -15.9106   22.8629 N   0  0  0  0  0  0  0  0  0  0  0  0
    7.8332  -16.0963   24.2333 C   0  0  1  0  0  0  0  0  0  0  0  0
    7.6614  -17.5777   24.3940 C   0  0  0  0  0  0  0  0  0  0  0  0
    7.2802  -17.8179   25.8233 C   0  0  0  0  0  0  0  0  0  0  0  0
    6.1094  -17.5475   26.2017 O   0  0  0  0  0  0  0  0  0  0  0  0
    8.6479  -15.4331   25.2314 C   0  0  0  0  0  0  0  0  0  0  0  0
    9.9104  -15.6157   25.0840 O   0  0  0  0  0  0  0  0  0  0  0  0
    8.1469  -18.3240   26.7621 O   0  0  0  0  0  0  0  0  0  0  0  0
    8.2183  -14.6346   26.3116 N   0  0  0  0  0  0  0  0  0  0  0  0
    6.9310  -14.2389   26.8180 C   0  0  0  0  0  0  0  0  0  0  0  0
    7.0995  -12.7353   26.8904 C   0  0  0  0  0  0  0  0  0  0  0  0
    8.4322  -12.6563   27.6183 C   0  0  0  0  0  0  0  0  0  0  0  0
    9.0986  -13.9694   27.2574 C   0  0  1  0  0  0  0  0  0  0  0  0
    9.3427  -14.7993   28.4624 C   0  0  0  0  0  0  0  0  0  0  0  0
   10.2916  -14.3360   29.3639 O   0  0  0  0  0  0  0  0  0  0  0  0
    8.7671  -15.8654   28.7196 O   0  0  0  0  0  0  0  0  0  0  0  0
  2  1  1  1
  2  3  1  0
  4  2  1  0
  4  5  1  0
  5  6  1  6
  5  7  1  0
  7  8  2  0
  9  7  1  0
  9 10  1  0
 10 11  1  1
 12 11  1  0
 13 12  2  0
 14 10  1  0
 14 15  2  0
 16 12  1  0
 17 14  1  0
 18 17  1  0
 19 18  1  0
 20 19  1  0
 21 20  1  0
 21 17  1  0
 21 22  1  1
 23 22  1  0
 24 22  2  0
M  END
$$$$
