LDP.pdb
     RDKit          3D

 24 24  0  0  1  0  0  0  0  0999 V2000
    9.7531  -13.4381   19.4179 C   0  0  0  0  0  0  0  0  0  0  0  0
    8.2430  -13.3692   19.3212 C   0  0  2  0  0  0  0  0  0  0  0  0
    7.8597  -11.9396   19.0877 C   0  0  0  0  0  0  0  0  0  0  0  0
    7.6747  -13.9148   20.6077 C   0  0  0  0  0  0  0  0  0  0  0  0
    7.9553  -15.3852   20.8005 C   0  0  2  0  0  0  0  0  0  0  0  0
    7.0596  -16.1127   19.9115 N   0  0  0  0  0  0  0  0  0  0  0  0
    7.5609  -15.7220   22.1958 C   0  0  0  0  0  0  0  0  0  0  0  0
    6.3735  -15.5978   22.6096 O   0  0  0  0  0  0  0  0  0  0  0  0
    8.5003  -16.2086   23.1590 N   0  0  0  0  0  0  0  0  0  0  0  0
    8.1247  -16.4344   24.5632 C   0  0  1  0  0  0  0  0  0  0  0  0
    7.7498  -17.8845   24.6438 C   0  0  0  0  0  0  0  0  0  0  0  0
    7.3902  -18.1611   26.0721 C   0  0  0  0  0  0  0  0  0  0  0  0
    8.2750  -18.5956   26.8565 O   0  0  0  0  0  0  0  0  0  0  0  0
    9.1310  -15.9789   25.5011 C   0  0  0  0  0  0  0  0  0  0  0  0
   10.3286  -16.3273   25.1960 O   0  0  0  0  0  0  0  0  0  0  0  0
    6.1307  -17.9657   26.5860 O   0  0  0  0  0  0  0  0  0  0  0  0
    8.9433  -15.2189   26.6742 N   0  0  0  0  0  0  0  0  0  0  0  0
    7.7884  -14.7449   27.3895 C   0  0  0  0  0  0  0  0  0  0  0  0
    8.1117  -13.2703   27.5143 C   0  0  0  0  0  0  0  0  0  0  0  0
    9.5375  -13.3585   28.0354 C   0  0  0  0  0  0  0  0  0  0  0  0
   10.0127  -14.6988   27.5095 C   0  0  1  0  0  0  0  0  0  0  0  0
   10.3475  -15.6252   28.6185 C   0  0  0  0  0  0  0  0  0  0  0  0
   11.4142  -15.2714   29.4338 O   0  0  0  0  0  0  0  0  0  0  0  0
    9.7502  -16.6813   28.8671 O   0  0  0  0  0  0  0  0  0  0  0  0
  2  1  1  1
  2  3  1  0
  4  2  1  0
  4  5  1  0
  5  6  1  6
  5  7  1  0
  7  8  2  0
  9  7  1  0
  9 10  1  0
 10 11  1  6
 12 11  1  0
 13 12  2  0
 14 10  1  0
 14 15  2  0
 16 12  1  0
 17 14  1  0
 18 17  1  0
 19 18  1  0
 20 19  1  0
 21 20  1  0
 21 17  1  0
 21 22  1  1
 23 22  1  0
 24 22  2  0
M  END
$$$$
