LDP.pdb
     RDKit          3D

 24 24  0  0  1  0  0  0  0  0999 V2000
    9.3027  -12.8408   18.5815 C   0  0  0  0  0  0  0  0  0  0  0  0
    8.0550  -13.6994   18.5571 C   0  0  2  0  0  0  0  0  0  0  0  0
    7.0246  -12.9936   17.7292 C   0  0  0  0  0  0  0  0  0  0  0  0
    7.6078  -13.9010   19.9836 C   0  0  0  0  0  0  0  0  0  0  0  0
    8.6771  -14.5106   20.8571 C   0  0  2  0  0  0  0  0  0  0  0  0
    8.9905  -15.8198   20.3004 N   0  0  0  0  0  0  0  0  0  0  0  0
    8.0664  -14.7357   22.1959 C   0  0  0  0  0  0  0  0  0  0  0  0
    7.4097  -13.8389   22.7969 O   0  0  0  0  0  0  0  0  0  0  0  0
    8.1830  -15.9818   22.8890 N   0  0  0  0  0  0  0  0  0  0  0  0
    7.6830  -16.1554   24.2615 C   0  0  1  0  0  0  0  0  0  0  0  0
    7.4900  -17.6336   24.4279 C   0  0  0  0  0  0  0  0  0  0  0  0
    7.2151  -17.8746   25.8812 C   0  0  0  0  0  0  0  0  0  0  0  0
    6.1390  -17.4524   26.3822 O   0  0  0  0  0  0  0  0  0  0  0  0
    8.5103  -15.5008   25.2549 C   0  0  0  0  0  0  0  0  0  0  0  0
    9.7546  -15.8107   25.1883 O   0  0  0  0  0  0  0  0  0  0  0  0
    8.0820  -18.5399   26.7145 O   0  0  0  0  0  0  0  0  0  0  0  0
    8.1097  -14.5897   26.2542 N   0  0  0  0  0  0  0  0  0  0  0  0
    6.8544  -13.9901   26.6214 C   0  0  0  0  0  0  0  0  0  0  0  0
    7.2307  -12.5230   26.6419 C   0  0  0  0  0  0  0  0  0  0  0  0
    8.4941  -12.5890   27.4855 C   0  0  0  0  0  0  0  0  0  0  0  0
    8.9929  -14.0007   27.2466 C   0  0  1  0  0  0  0  0  0  0  0  0
    9.0116  -14.7861   28.5048 C   0  0  0  0  0  0  0  0  0  0  0  0
    9.9474  -14.4184   29.4623 O   0  0  0  0  0  0  0  0  0  0  0  0
    8.2603  -15.7370   28.7601 O   0  0  0  0  0  0  0  0  0  0  0  0
  2  1  1  1
  2  3  1  0
  4  2  1  0
  4  5  1  0
  5  6  1  6
  5  7  1  0
  7  8  2  0
  9  7  1  0
  9 10  1  0
 10 11  1  1
 12 11  1  0
 13 12  2  0
 14 10  1  0
 14 15  2  0
 16 12  1  0
 17 14  1  0
 18 17  1  0
 19 18  1  0
 20 19  1  0
 21 20  1  0
 21 17  1  0
 21 22  1  1
 23 22  1  0
 24 22  2  0
M  END
$$$$
