LDP.pdb
     RDKit          3D

 24 24  0  0  1  0  0  0  0  0999 V2000
    7.4599  -11.8006   19.3648 C   0  0  0  0  0  0  0  0  0  0  0  0
    8.2281  -12.9295   20.0204 C   0  0  2  0  0  0  0  0  0  0  0  0
    9.6899  -12.6780   19.8081 C   0  0  0  0  0  0  0  0  0  0  0  0
    7.7694  -14.2225   19.3933 C   0  0  0  0  0  0  0  0  0  0  0  0
    8.3700  -15.4423   20.0486 C   0  0  2  0  0  0  0  0  0  0  0  0
    8.0013  -16.5921   19.2336 N   0  0  0  0  0  0  0  0  0  0  0  0
    7.6962  -15.6020   21.3664 C   0  0  0  0  0  0  0  0  0  0  0  0
    6.5084  -16.0202   21.4702 O   0  0  0  0  0  0  0  0  0  0  0  0
    8.3497  -15.2927   22.6010 N   0  0  0  0  0  0  0  0  0  0  0  0
    7.7336  -15.5962   23.9018 C   0  0  1  0  0  0  0  0  0  0  0  0
    7.5531  -17.0852   23.9159 C   0  0  0  0  0  0  0  0  0  0  0  0
    7.1020  -17.4546   25.2965 C   0  0  0  0  0  0  0  0  0  0  0  0
    5.8793  -17.3692   25.5878 O   0  0  0  0  0  0  0  0  0  0  0  0
    8.4579  -15.0272   25.0204 C   0  0  0  0  0  0  0  0  0  0  0  0
    9.7267  -15.2195   24.9764 O   0  0  0  0  0  0  0  0  0  0  0  0
    7.9575  -17.8882   26.2807 O   0  0  0  0  0  0  0  0  0  0  0  0
    7.9370  -14.3083   26.1163 N   0  0  0  0  0  0  0  0  0  0  0  0
    6.6093  -14.0381   26.6002 C   0  0  0  0  0  0  0  0  0  0  0  0
    6.6516  -12.5298   26.7316 C   0  0  0  0  0  0  0  0  0  0  0  0
    7.9546  -12.3708   27.4992 C   0  0  0  0  0  0  0  0  0  0  0  0
    8.7356  -13.6105   27.1099 C   0  0  1  0  0  0  0  0  0  0  0  0
    9.0168  -14.4634   28.2905 C   0  0  0  0  0  0  0  0  0  0  0  0
    8.4634  -15.7368   28.2931 O   0  0  0  0  0  0  0  0  0  0  0  0
    9.7026  -14.1249   29.2646 O   0  0  0  0  0  0  0  0  0  0  0  0
  2  1  1  6
  2  3  1  0
  4  2  1  0
  4  5  1  0
  5  6  1  6
  5  7  1  0
  7  8  2  0
  9  7  1  0
  9 10  1  0
 10 11  1  1
 12 11  1  0
 13 12  2  0
 14 10  1  0
 14 15  2  0
 16 12  1  0
 17 14  1  0
 18 17  1  0
 19 18  1  0
 20 19  1  0
 21 20  1  0
 21 17  1  0
 21 22  1  1
 23 22  1  0
 24 22  2  0
M  END
$$$$
