SGA.pdb
     RDKit          3D

 16 15  0  0  1  0  0  0  0  0999 V2000
    8.7909  -12.6981   18.3094 O   0  0  0  0  0  0  0  0  0  0  0  0
    8.1445  -12.8085   19.5397 C   0  0  0  0  0  0  0  0  0  0  0  0
    8.1535  -14.2326   20.0131 C   0  0  2  0  0  0  0  0  0  0  0  0
    7.4707  -15.1217   19.0938 N   0  0  0  0  0  0  0  0  0  0  0  0
    7.6227  -14.4385   21.3525 C   0  0  0  0  0  0  0  0  0  0  0  0
    6.3772  -14.7070   21.4591 O   0  0  0  0  0  0  0  0  0  0  0  0
    8.3614  -14.3692   22.5608 N   0  0  0  0  0  0  0  0  0  0  0  0
    7.7843  -14.6257   23.8625 C   0  0  0  0  0  0  0  0  0  0  0  0
    8.8636  -14.4896   24.8924 C   0  0  0  0  0  0  0  0  0  0  0  0
   10.0890  -14.5625   24.5805 O   0  0  0  0  0  0  0  0  0  0  0  0
    8.9774  -13.3724   28.4282 C   0  0  0  0  0  0  0  0  0  0  0  0
    9.6105  -14.1013   27.2430 C   0  0  2  0  0  0  0  0  0  0  0  0
    8.5718  -14.2734   26.2615 N   0  0  0  0  0  0  0  0  0  0  0  0
   10.1297  -15.4136   27.7303 C   0  0  0  0  0  0  0  0  0  0  0  0
    9.4817  -16.4705   27.5265 O   0  0  0  0  0  0  0  0  0  0  0  0
   11.3267  -15.4584   28.4067 O   0  0  0  0  0  0  0  0  0  0  0  0
  2  1  1  0
  3  2  1  0
  3  4  1  6
  5  3  1  0
  6  5  2  0
  7  5  1  0
  8  7  1  0
  9 13  1  0
  9  8  1  0
 10  9  2  0
 12 11  1  1
 12 13  1  0
 12 14  1  0
 14 16  1  0
 15 14  2  0
M  END
$$$$
