SGA.pdb
     RDKit          3D

 16 15  0  0  1  0  0  0  0  0999 V2000
    8.8004  -17.3847   19.7959 O   0  0  0  0  0  0  0  0  0  0  0  0
    9.9371  -17.4868   20.5967 C   0  0  0  0  0  0  0  0  0  0  0  0
    9.5902  -18.0837   21.9292 C   0  0  2  0  0  0  0  0  0  0  0  0
    8.9716  -19.3887   21.8028 N   0  0  0  0  0  0  0  0  0  0  0  0
    8.7576  -17.2461   22.7798 C   0  0  0  0  0  0  0  0  0  0  0  0
    9.2570  -16.1446   23.1943 O   0  0  0  0  0  0  0  0  0  0  0  0
    7.4339  -17.5378   23.1963 N   0  0  0  0  0  0  0  0  0  0  0  0
    6.6518  -16.6578   24.0372 C   0  0  0  0  0  0  0  0  0  0  0  0
    6.6587  -17.2075   25.4308 C   0  0  0  0  0  0  0  0  0  0  0  0
    5.8126  -16.8312   26.2948 O   0  0  0  0  0  0  0  0  0  0  0  0
    7.0307  -20.1251   27.0868 C   0  0  0  0  0  0  0  0  0  0  0  0
    7.6015  -18.7106   27.1875 C   0  0  2  0  0  0  0  0  0  0  0  0
    7.6067  -18.1716   25.8528 N   0  0  0  0  0  0  0  0  0  0  0  0
    8.9823  -18.8074   27.7470 C   0  0  0  0  0  0  0  0  0  0  0  0
    9.9771  -18.4947   27.0462 O   0  0  0  0  0  0  0  0  0  0  0  0
    9.1593  -19.2428   29.0398 O   0  0  0  0  0  0  0  0  0  0  0  0
  2  1  1  0
  3  2  1  0
  3  4  1  6
  5  3  1  0
  6  5  2  0
  7  5  1  0
  8  7  1  0
  9 13  1  0
  9  8  1  0
 10  9  2  0
 12 11  1  6
 12 13  1  0
 12 14  1  0
 14 16  1  0
 15 14  2  0
M  END
$$$$
