SGA.pdb
     RDKit          3D

 16 15  0  0  1  0  0  0  0  0999 V2000
    8.2927  -14.6711   18.0945 O   0  0  0  0  0  0  0  0  0  0  0  0
    7.1890  -13.8652   18.3701 C   0  0  0  0  0  0  0  0  0  0  0  0
    7.3762  -13.1440   19.6728 C   0  0  2  0  0  0  0  0  0  0  0  0
    8.6217  -12.4034   19.7172 N   0  0  0  0  0  0  0  0  0  0  0  0
    7.2820  -13.9825   20.8587 C   0  0  0  0  0  0  0  0  0  0  0  0
    6.1462  -14.5068   21.1224 O   0  0  0  0  0  0  0  0  0  0  0  0
    8.3390  -14.2759   21.7572 N   0  0  0  0  0  0  0  0  0  0  0  0
    8.2044  -15.1841   22.8753 C   0  0  0  0  0  0  0  0  0  0  0  0
    8.5997  -14.4572   24.1241 C   0  0  0  0  0  0  0  0  0  0  0  0
    9.8155  -14.2506   24.4128 O   0  0  0  0  0  0  0  0  0  0  0  0
    6.7519  -12.5589   26.7463 C   0  0  0  0  0  0  0  0  0  0  0  0
    8.0199  -13.2313   26.2206 C   0  0  2  0  0  0  0  0  0  0  0  0
    7.6398  -13.9655   25.0423 N   0  0  0  0  0  0  0  0  0  0  0  0
    8.5409  -14.1359   27.2881 C   0  0  0  0  0  0  0  0  0  0  0  0
    9.0397  -13.6605   28.3387 O   0  0  0  0  0  0  0  0  0  0  0  0
    8.4712  -15.4986   27.1134 O   0  0  0  0  0  0  0  0  0  0  0  0
  2  1  1  0
  3  2  1  0
  3  4  1  6
  5  3  1  0
  6  5  2  0
  7  5  1  0
  8  7  1  0
  9 13  1  0
  9  8  1  0
 10  9  2  0
 12 11  1  1
 12 13  1  0
 12 14  1  0
 14 16  1  0
 15 14  2  0
M  END
$$$$
