SGA.pdb
     RDKit          3D

 16 15  0  0  1  0  0  0  0  0999 V2000
    4.5352  -19.2194   22.6244 O   0  0  0  0  0  0  0  0  0  0  0  0
    5.5608  -18.3428   22.2733 C   0  0  0  0  0  0  0  0  0  0  0  0
    6.7711  -18.5792   23.1286 C   0  0  2  0  0  0  0  0  0  0  0  0
    6.4606  -18.5374   24.5441 N   0  0  0  0  0  0  0  0  0  0  0  0
    7.8935  -17.6912   22.8642 C   0  0  0  0  0  0  0  0  0  0  0  0
    8.3432  -17.6480   21.6682 O   0  0  0  0  0  0  0  0  0  0  0  0
    8.5415  -16.8623   23.8148 N   0  0  0  0  0  0  0  0  0  0  0  0
    9.6425  -15.9834   23.4853 C   0  0  0  0  0  0  0  0  0  0  0  0
    9.9352  -15.1259   24.6784 C   0  0  0  0  0  0  0  0  0  0  0  0
   11.0999  -14.6829   24.9051 O   0  0  0  0  0  0  0  0  0  0  0  0
    7.9949  -13.3904   27.3126 C   0  0  0  0  0  0  0  0  0  0  0  0
    9.2469  -14.1473   26.8698 C   0  0  2  0  0  0  0  0  0  0  0  0
    8.9304  -14.7678   25.6102 N   0  0  0  0  0  0  0  0  0  0  0  0
    9.5691  -15.1617   27.9170 C   0  0  0  0  0  0  0  0  0  0  0  0
    9.3940  -16.3856   27.6937 O   0  0  0  0  0  0  0  0  0  0  0  0
   10.0609  -14.7461   29.1326 O   0  0  0  0  0  0  0  0  0  0  0  0
  2  1  1  0
  3  2  1  0
  3  4  1  1
  5  3  1  0
  6  5  2  0
  7  5  1  0
  8  7  1  0
  9 13  1  0
  9  8  1  0
 10  9  2  0
 12 11  1  1
 12 13  1  0
 12 14  1  0
 14 16  1  0
 15 14  2  0
M  END
$$$$
