SGA.pdb
     RDKit          3D

 16 15  0  0  1  0  0  0  0  0999 V2000
    9.3318  -19.9218   17.3595 O   0  0  0  0  0  0  0  0  0  0  0  0
    8.2557  -19.1795   17.8440 C   0  0  0  0  0  0  0  0  0  0  0  0
    8.4401  -18.8755   19.3020 C   0  0  2  0  0  0  0  0  0  0  0  0
    7.3203  -18.1399   19.8561 N   0  0  0  0  0  0  0  0  0  0  0  0
    9.6741  -18.1786   19.6334 C   0  0  0  0  0  0  0  0  0  0  0  0
   10.7752  -18.7873   19.4061 O   0  0  0  0  0  0  0  0  0  0  0  0
    9.7725  -16.8778   20.1890 N   0  0  0  0  0  0  0  0  0  0  0  0
   11.0288  -16.2634   20.5595 C   0  0  0  0  0  0  0  0  0  0  0  0
   10.9385  -15.8303   21.9908 C   0  0  0  0  0  0  0  0  0  0  0  0
   11.9409  -15.3571   22.6035 O   0  0  0  0  0  0  0  0  0  0  0  0
    8.1542  -15.2103   24.3611 C   0  0  0  0  0  0  0  0  0  0  0  0
    9.6366  -15.4664   24.0899 C   0  0  2  0  0  0  0  0  0  0  0  0
    9.7339  -15.9269   22.7297 N   0  0  0  0  0  0  0  0  0  0  0  0
   10.1121  -16.5005   25.0562 C   0  0  0  0  0  0  0  0  0  0  0  0
   10.1982  -16.2361   26.2814 O   0  0  0  0  0  0  0  0  0  0  0  0
   10.4567  -17.7498   24.5947 O   0  0  0  0  0  0  0  0  0  0  0  0
  2  1  1  0
  3  2  1  0
  3  4  1  6
  5  3  1  0
  6  5  2  0
  7  5  1  0
  8  7  1  0
  9 13  1  0
  9  8  1  0
 10  9  2  0
 12 11  1  1
 12 13  1  0
 12 14  1  0
 14 16  1  0
 15 14  2  0
M  END
$$$$
