SGA.pdb
     RDKit          3D

 16 15  0  0  1  0  0  0  0  0999 V2000
    7.5888  -15.8930   17.2990 O   0  0  0  0  0  0  0  0  0  0  0  0
    6.5878  -15.0250   17.7330 C   0  0  0  0  0  0  0  0  0  0  0  0
    7.1839  -13.7396   18.2276 C   0  0  2  0  0  0  0  0  0  0  0  0
    7.9285  -13.0458   17.1951 N   0  0  0  0  0  0  0  0  0  0  0  0
    8.0216  -13.8658   19.4110 C   0  0  0  0  0  0  0  0  0  0  0  0
    9.2856  -13.7554   19.2541 O   0  0  0  0  0  0  0  0  0  0  0  0
    7.5656  -14.1016   20.7328 N   0  0  0  0  0  0  0  0  0  0  0  0
    8.4252  -14.0376   21.8947 C   0  0  0  0  0  0  0  0  0  0  0  0
    9.2073  -15.3129   21.9741 C   0  0  0  0  0  0  0  0  0  0  0  0
    8.9587  -16.2904   21.2081 O   0  0  0  0  0  0  0  0  0  0  0  0
   12.4816  -16.3436   22.9971 C   0  0  0  0  0  0  0  0  0  0  0  0
   11.0007  -16.7225   22.9893 C   0  0  2  0  0  0  0  0  0  0  0  0
   10.2600  -15.4912   22.9049 N   0  0  0  0  0  0  0  0  0  0  0  0
   10.7041  -17.4571   24.2548 C   0  0  0  0  0  0  0  0  0  0  0  0
   11.2332  -18.5737   24.4823 O   0  0  0  0  0  0  0  0  0  0  0  0
    9.8446  -16.9014   25.1739 O   0  0  0  0  0  0  0  0  0  0  0  0
  2  1  1  0
  3  2  1  0
  3  4  1  6
  5  3  1  0
  6  5  2  0
  7  5  1  0
  8  7  1  0
  9 13  1  0
  9  8  1  0
 10  9  2  0
 12 11  1  1
 12 13  1  0
 12 14  1  0
 14 16  1  0
 15 14  2  0
M  END
$$$$
