SGA.pdb
     RDKit          3D

 16 15  0  0  1  0  0  0  0  0999 V2000
    7.7260  -13.5161   17.1091 O   0  0  0  0  0  0  0  0  0  0  0  0
    8.3244  -13.6390   18.3622 C   0  0  0  0  0  0  0  0  0  0  0  0
    7.5124  -14.5388   19.2473 C   0  0  2  0  0  0  0  0  0  0  0  0
    6.1712  -14.0324   19.4636 N   0  0  0  0  0  0  0  0  0  0  0  0
    8.1170  -14.8420   20.5360 C   0  0  0  0  0  0  0  0  0  0  0  0
    8.1358  -13.9118   21.4129 O   0  0  0  0  0  0  0  0  0  0  0  0
    8.6921  -16.0814   20.9150 N   0  0  0  0  0  0  0  0  0  0  0  0
   10.0613  -16.2203   21.3612 C   0  0  0  0  0  0  0  0  0  0  0  0
   10.1059  -15.9601   22.8359 C   0  0  0  0  0  0  0  0  0  0  0  0
   11.1583  -16.1599   23.5116 O   0  0  0  0  0  0  0  0  0  0  0  0
    7.8185  -14.3308   25.2806 C   0  0  0  0  0  0  0  0  0  0  0  0
    9.0331  -15.2012   24.9590 C   0  0  2  0  0  0  0  0  0  0  0  0
    8.9795  -15.4797   23.5478 N   0  0  0  0  0  0  0  0  0  0  0  0
    8.9351  -16.4508   25.7702 C   0  0  0  0  0  0  0  0  0  0  0  0
    8.2522  -17.4233   25.3623 O   0  0  0  0  0  0  0  0  0  0  0  0
    9.5999  -16.5310   26.9719 O   0  0  0  0  0  0  0  0  0  0  0  0
  2  1  1  0
  3  2  1  0
  3  4  1  1
  5  3  1  0
  6  5  2  0
  7  5  1  0
  8  7  1  0
  9 13  1  0
  9  8  1  0
 10  9  2  0
 12 11  1  1
 12 13  1  0
 12 14  1  0
 14 16  1  0
 15 14  2  0
M  END
$$$$
