SGA.pdb
     RDKit          3D

 16 15  0  0  1  0  0  0  0  0999 V2000
    5.5211  -20.0439   22.5626 O   0  0  0  0  0  0  0  0  0  0  0  0
    4.7550  -19.2035   23.3691 C   0  0  0  0  0  0  0  0  0  0  0  0
    4.6133  -17.8508   22.7348 C   0  0  2  0  0  0  0  0  0  0  0  0
    3.7050  -17.8659   21.6050 N   0  0  0  0  0  0  0  0  0  0  0  0
    5.8645  -17.2289   22.3274 C   0  0  0  0  0  0  0  0  0  0  0  0
    6.3020  -17.4948   21.1558 O   0  0  0  0  0  0  0  0  0  0  0  0
    6.6514  -16.3487   23.1126 N   0  0  0  0  0  0  0  0  0  0  0  0
    7.9874  -15.9326   22.7449 C   0  0  0  0  0  0  0  0  0  0  0  0
    8.4755  -14.9538   23.7687 C   0  0  0  0  0  0  0  0  0  0  0  0
    9.7059  -14.6782   23.8869 O   0  0  0  0  0  0  0  0  0  0  0  0
    6.8908  -12.6991   26.2818 C   0  0  0  0  0  0  0  0  0  0  0  0
    8.0685  -13.5366   25.7836 C   0  0  2  0  0  0  0  0  0  0  0  0
    7.5911  -14.2891   24.6532 N   0  0  0  0  0  0  0  0  0  0  0  0
    8.5034  -14.4320   26.8963 C   0  0  0  0  0  0  0  0  0  0  0  0
    9.0521  -13.9547   27.9209 O   0  0  0  0  0  0  0  0  0  0  0  0
    8.2989  -15.7883   26.7924 O   0  0  0  0  0  0  0  0  0  0  0  0
  2  1  1  0
  3  2  1  0
  3  4  1  6
  5  3  1  0
  6  5  2  0
  7  5  1  0
  8  7  1  0
  9 13  1  0
  9  8  1  0
 10  9  2  0
 12 11  1  1
 12 13  1  0
 12 14  1  0
 14 16  1  0
 15 14  2  0
M  END
$$$$
