SGA.pdb
     RDKit          3D

 16 15  0  0  1  0  0  0  0  0999 V2000
    3.3911  -22.5125   19.2214 O   0  0  0  0  0  0  0  0  0  0  0  0
    2.3143  -21.7104   18.8459 C   0  0  0  0  0  0  0  0  0  0  0  0
    2.7610  -20.2927   18.6392 C   0  0  2  0  0  0  0  0  0  0  0  0
    3.5774  -20.1412   17.4508 N   0  0  0  0  0  0  0  0  0  0  0  0
    3.4567  -19.6964   19.7700 C   0  0  0  0  0  0  0  0  0  0  0  0
    4.7255  -19.8431   19.8267 O   0  0  0  0  0  0  0  0  0  0  0  0
    2.8563  -18.9620   20.8240 N   0  0  0  0  0  0  0  0  0  0  0  0
    3.6081  -18.3586   21.9028 C   0  0  0  0  0  0  0  0  0  0  0  0
    4.0256  -19.4413   22.8503 C   0  0  0  0  0  0  0  0  0  0  0  0
    4.6477  -19.1792   23.9219 O   0  0  0  0  0  0  0  0  0  0  0  0
    3.2754  -23.0574   23.2184 C   0  0  0  0  0  0  0  0  0  0  0  0
    4.1656  -21.8476   23.5016 C   0  0  2  0  0  0  0  0  0  0  0  0
    3.7479  -20.8072   22.5988 N   0  0  0  0  0  0  0  0  0  0  0  0
    5.5832  -22.2491   23.2599 C   0  0  0  0  0  0  0  0  0  0  0  0
    6.1535  -21.9547   22.1799 O   0  0  0  0  0  0  0  0  0  0  0  0
    6.2637  -22.9464   24.2311 O   0  0  0  0  0  0  0  0  0  0  0  0
  2  1  1  0
  3  2  1  0
  3  4  1  6
  5  3  1  0
  6  5  2  0
  7  5  1  0
  8  7  1  0
  9 13  1  0
  9  8  1  0
 10  9  2  0
 12 11  1  6
 12 13  1  0
 12 14  1  0
 14 16  1  0
 15 14  2  0
M  END
$$$$
