SGA.pdb
     RDKit          3D

 16 15  0  0  1  0  0  0  0  0999 V2000
    7.2646  -20.7493   22.6818 O   0  0  0  0  0  0  0  0  0  0  0  0
    6.7922  -20.0678   21.5610 C   0  0  0  0  0  0  0  0  0  0  0  0
    7.3038  -18.6570   21.5485 C   0  0  2  0  0  0  0  0  0  0  0  0
    8.7523  -18.5974   21.5604 N   0  0  0  0  0  0  0  0  0  0  0  0
    6.7867  -17.8062   22.6100 C   0  0  0  0  0  0  0  0  0  0  0  0
    5.5184  -17.7587   22.7636 O   0  0  0  0  0  0  0  0  0  0  0  0
    7.5622  -17.0182   23.4979 N   0  0  0  0  0  0  0  0  0  0  0  0
    6.9915  -16.2330   24.5707 C   0  0  0  0  0  0  0  0  0  0  0  0
    8.1090  -15.5705   25.3168 C   0  0  0  0  0  0  0  0  0  0  0  0
    9.3216  -15.8302   25.0598 O   0  0  0  0  0  0  0  0  0  0  0  0
    8.3192  -12.6613   27.6140 C   0  0  0  0  0  0  0  0  0  0  0  0
    8.9408  -13.9068   26.9824 C   0  0  2  0  0  0  0  0  0  0  0  0
    7.8691  -14.6242   26.3431 N   0  0  0  0  0  0  0  0  0  0  0  0
    9.5700  -14.7127   28.0704 C   0  0  0  0  0  0  0  0  0  0  0  0
    9.0053  -15.7476   28.5047 O   0  0  0  0  0  0  0  0  0  0  0  0
   10.7766  -14.3134   28.5966 O   0  0  0  0  0  0  0  0  0  0  0  0
  2  1  1  0
  3  2  1  0
  3  4  1  1
  5  3  1  0
  6  5  2  0
  7  5  1  0
  8  7  1  0
  9 13  1  0
  9  8  1  0
 10  9  2  0
 12 11  1  1
 12 13  1  0
 12 14  1  0
 14 16  1  0
 15 14  2  0
M  END
$$$$
