SGA.pdb
     RDKit          3D

 16 15  0  0  1  0  0  0  0  0999 V2000
    9.5959  -16.0097   15.8510 O   0  0  0  0  0  0  0  0  0  0  0  0
    9.4799  -15.2988   17.0447 C   0  0  0  0  0  0  0  0  0  0  0  0
    8.1398  -14.6288   17.1302 C   0  0  2  0  0  0  0  0  0  0  0  0
    8.0511  -13.4651   16.2701 N   0  0  0  0  0  0  0  0  0  0  0  0
    7.7234  -14.2565   18.4742 C   0  0  0  0  0  0  0  0  0  0  0  0
    8.0788  -13.1065   18.9050 O   0  0  0  0  0  0  0  0  0  0  0  0
    6.9546  -15.0544   19.3589 N   0  0  0  0  0  0  0  0  0  0  0  0
    6.4494  -14.5759   20.6273 C   0  0  0  0  0  0  0  0  0  0  0  0
    7.5321  -14.7226   21.6523 C   0  0  0  0  0  0  0  0  0  0  0  0
    8.6532  -15.2354   21.3618 O   0  0  0  0  0  0  0  0  0  0  0  0
    7.9259  -13.7112   25.2298 C   0  0  0  0  0  0  0  0  0  0  0  0
    8.3949  -14.4559   23.9800 C   0  0  2  0  0  0  0  0  0  0  0  0
    7.3597  -14.2980   22.9925 N   0  0  0  0  0  0  0  0  0  0  0  0
    8.5943  -15.8902   24.3433 C   0  0  0  0  0  0  0  0  0  0  0  0
    9.6392  -16.2580   24.9362 O   0  0  0  0  0  0  0  0  0  0  0  0
    7.6231  -16.8104   24.0234 O   0  0  0  0  0  0  0  0  0  0  0  0
  2  1  1  0
  3  2  1  0
  3  4  1  6
  5  3  1  0
  6  5  2  0
  7  5  1  0
  8  7  1  0
  9 13  1  0
  9  8  1  0
 10  9  2  0
 12 11  1  1
 12 13  1  0
 12 14  1  0
 14 16  1  0
 15 14  2  0
M  END
$$$$
