SGA.pdb
     RDKit          3D

 16 15  0  0  1  0  0  0  0  0999 V2000
    9.1281  -17.2039   17.4259 O   0  0  0  0  0  0  0  0  0  0  0  0
    8.4787  -16.2079   18.1540 C   0  0  0  0  0  0  0  0  0  0  0  0
    8.3962  -16.5853   19.6042 C   0  0  2  0  0  0  0  0  0  0  0  0
    7.4753  -17.6809   19.8356 N   0  0  0  0  0  0  0  0  0  0  0  0
    8.0661  -15.4916   20.5060 C   0  0  0  0  0  0  0  0  0  0  0  0
    8.9534  -14.5897   20.6898 O   0  0  0  0  0  0  0  0  0  0  0  0
    6.8439  -15.3297   21.2063 N   0  0  0  0  0  0  0  0  0  0  0  0
    6.5841  -14.2307   22.1107 C   0  0  0  0  0  0  0  0  0  0  0  0
    6.9054  -14.6795   23.5034 C   0  0  0  0  0  0  0  0  0  0  0  0
    6.7056  -13.9283   24.5033 O   0  0  0  0  0  0  0  0  0  0  0  0
    7.1152  -17.7539   25.3044 C   0  0  0  0  0  0  0  0  0  0  0  0
    7.7668  -16.3848   25.1109 C   0  0  2  0  0  0  0  0  0  0  0  0
    7.4464  -15.9604   23.7733 N   0  0  0  0  0  0  0  0  0  0  0  0
    9.2394  -16.5420   25.3001 C   0  0  0  0  0  0  0  0  0  0  0  0
    9.7126  -16.7928   26.4367 O   0  0  0  0  0  0  0  0  0  0  0  0
   10.0783  -16.4101   24.2179 O   0  0  0  0  0  0  0  0  0  0  0  0
  2  1  1  0
  3  2  1  0
  3  4  1  6
  5  3  1  0
  6  5  2  0
  7  5  1  0
  8  7  1  0
  9 13  1  0
  9  8  1  0
 10  9  2  0
 12 11  1  6
 12 13  1  0
 12 14  1  0
 14 16  1  0
 15 14  2  0
M  END
$$$$
