NPW.pdb
     RDKit          3D

 30 32  0  0  1  0  0  0  0  0999 V2000
    6.9378  -14.0944   15.0036 N   0  0  0  0  0  0  0  0  0  0  0  0
    7.7873  -13.6094   16.0563 C   0  0  0  0  0  0  0  0  0  0  0  0
    8.6575  -12.7877   15.7171 O   0  0  0  0  0  0  0  0  0  0  0  0
    7.6478  -14.0454   17.4446 C   0  0  0  0  0  0  0  0  0  0  0  0
    8.5892  -15.1239   17.8377 C   0  0  2  0  0  0  0  0  0  0  0  0
    8.2411  -16.3933   17.1747 N   0  0  0  0  0  0  0  0  0  0  0  0
    8.6006  -15.3761   19.3337 C   0  0  0  0  0  0  0  0  0  0  0  0
    9.1885  -14.5424   20.0327 O   0  0  0  0  0  0  0  0  0  0  0  0
    7.9733  -16.5043   19.9189 N   0  0  0  0  0  0  0  0  0  0  0  0
    6.8950  -17.2176   19.1926 C   0  0  0  0  0  0  0  0  0  0  0  0
    6.9104  -18.6351   19.7749 C   0  0  0  0  0  0  0  0  0  0  0  0
    8.1970  -18.6476   20.6260 C   0  0  0  0  0  0  0  0  0  0  0  0
    8.0837  -17.2104   21.1449 C   0  0  1  0  0  0  0  0  0  0  0  0
    9.0701  -16.8618   22.1276 C   0  0  0  0  0  0  0  0  0  0  0  0
   10.2790  -16.7164   21.8784 O   0  0  0  0  0  0  0  0  0  0  0  0
    8.7332  -16.6437   23.5253 N   0  0  0  0  0  0  0  0  0  0  0  0
    9.7076  -16.2564   24.4869 C   0  0  1  0  0  0  0  0  0  0  0  0
    9.5112  -14.8321   24.9277 C   0  0  0  0  0  0  0  0  0  0  0  0
    8.1622  -14.5456   25.4356 C   0  0  0  0  0  0  0  0  0  0  0  0
    7.1535  -15.5165   25.5418 C   0  0  0  0  0  0  0  0  0  0  0  0
    6.0832  -14.9052   26.0601 N   0  0  0  0  0  0  0  0  0  0  0  0
    6.3637  -13.5956   26.2862 C   0  0  0  0  0  0  0  0  0  0  0  0
    5.6112  -12.5627   26.7916 C   0  0  0  0  0  0  0  0  0  0  0  0
    6.1035  -11.2855   26.9295 C   0  0  0  0  0  0  0  0  0  0  0  0
    7.4173  -11.0502   26.5356 C   0  0  0  0  0  0  0  0  0  0  0  0
    8.1994  -12.0623   26.0243 C   0  0  0  0  0  0  0  0  0  0  0  0
    7.6802  -13.3378   25.8971 C   0  0  0  0  0  0  0  0  0  0  0  0
    9.7584  -17.1491   25.6640 C   0  0  0  0  0  0  0  0  0  0  0  0
   10.8077  -17.0727   26.5513 O   0  0  0  0  0  0  0  0  0  0  0  0
    8.8493  -17.9793   25.8561 O   0  0  0  0  0  0  0  0  0  0  0  0
  2  1  1  0
  3  2  2  0
  4  2  1  0
  4  5  1  0
  5  6  1  6
  7  5  1  0
  7  8  2  0
  9  7  1  0
 10  9  1  0
 11 12  1  0
 11 10  1  0
 12 13  1  0
 13  9  1  0
 13 14  1  6
 14 15  2  0
 16 14  1  0
 16 17  1  0
 17 28  1  0
 17 18  1  1
 19 18  1  0
 20 19  2  0
 21 22  1  0
 21 20  1  0
 22 27  2  0
 23 22  1  0
 23 24  2  0
 24 25  1  0
 25 26  2  0
 27 19  1  0
 27 26  1  0
 28 29  1  0
 30 28  2  0
M  END
$$$$
