NPW.pdb
     RDKit          3D

 30 32  0  0  1  0  0  0  0  0999 V2000
    8.1936  -12.3385   16.7461 N   0  0  0  0  0  0  0  0  0  0  0  0
    8.0285  -13.7571   16.5863 C   0  0  0  0  0  0  0  0  0  0  0  0
    8.1908  -14.1966   15.4340 O   0  0  0  0  0  0  0  0  0  0  0  0
    7.6918  -14.6410   17.7010 C   0  0  0  0  0  0  0  0  0  0  0  0
    8.8408  -15.4243   18.2206 C   0  0  2  0  0  0  0  0  0  0  0  0
    8.9132  -16.7455   17.5715 N   0  0  0  0  0  0  0  0  0  0  0  0
    8.7655  -15.6529   19.7185 C   0  0  0  0  0  0  0  0  0  0  0  0
    8.9498  -14.6661   20.4406 O   0  0  0  0  0  0  0  0  0  0  0  0
    8.4973  -16.9262   20.2803 N   0  0  0  0  0  0  0  0  0  0  0  0
    7.7548  -17.9442   19.4984 C   0  0  0  0  0  0  0  0  0  0  0  0
    8.1869  -19.2848   20.1024 C   0  0  0  0  0  0  0  0  0  0  0  0
    9.3511  -18.8877   21.0334 C   0  0  0  0  0  0  0  0  0  0  0  0
    8.7488  -17.5662   21.5216 C   0  0  1  0  0  0  0  0  0  0  0  0
    9.5049  -16.9246   22.5592 C   0  0  0  0  0  0  0  0  0  0  0  0
   10.4106  -16.0993   22.3510 O   0  0  0  0  0  0  0  0  0  0  0  0
    9.2710  -17.1890   23.9699 N   0  0  0  0  0  0  0  0  0  0  0  0
    9.9167  -16.4450   24.9964 C   0  0  1  0  0  0  0  0  0  0  0  0
    9.6577  -14.9705   24.8544 C   0  0  0  0  0  0  0  0  0  0  0  0
    8.2621  -14.5833   25.1038 C   0  0  0  0  0  0  0  0  0  0  0  0
    7.1820  -15.4745   25.0002 C   0  0  0  0  0  0  0  0  0  0  0  0
    6.0815  -14.7848   25.3184 N   0  0  0  0  0  0  0  0  0  0  0  0
    6.4110  -13.5014   25.6170 C   0  0  0  0  0  0  0  0  0  0  0  0
    5.6555  -12.4157   25.9901 C   0  0  0  0  0  0  0  0  0  0  0  0
    6.2066  -11.1806   26.2415 C   0  0  0  0  0  0  0  0  0  0  0  0
    7.5851  -11.0452   26.1069 C   0  0  0  0  0  0  0  0  0  0  0  0
    8.3722  -12.1123   25.7340 C   0  0  0  0  0  0  0  0  0  0  0  0
    7.7929  -13.3439   25.4880 C   0  0  0  0  0  0  0  0  0  0  0  0
    9.5610  -16.8934   26.3593 C   0  0  0  0  0  0  0  0  0  0  0  0
   10.3153  -16.4998   27.4411 O   0  0  0  0  0  0  0  0  0  0  0  0
    8.5748  -17.6348   26.5338 O   0  0  0  0  0  0  0  0  0  0  0  0
  2  1  1  0
  3  2  2  0
  4  2  1  0
  4  5  1  0
  5  6  1  6
  7  5  1  0
  7  8  2  0
  9  7  1  0
 10  9  1  0
 11 12  1  0
 11 10  1  0
 12 13  1  0
 13  9  1  0
 13 14  1  1
 14 15  2  0
 16 14  1  0
 16 17  1  0
 17 28  1  0
 17 18  1  1
 19 18  1  0
 20 19  2  0
 21 22  1  0
 21 20  1  0
 22 27  2  0
 23 22  1  0
 23 24  2  0
 24 25  1  0
 25 26  2  0
 27 19  1  0
 27 26  1  0
 28 29  1  0
 30 28  2  0
M  END
$$$$
