NPW.pdb
     RDKit          3D

 30 32  0  0  1  0  0  0  0  0999 V2000
    7.8523  -19.0352   16.6746 N   0  0  0  0  0  0  0  0  0  0  0  0
    7.6371  -19.3441   18.0615 C   0  0  0  0  0  0  0  0  0  0  0  0
    6.9969  -20.3851   18.2933 O   0  0  0  0  0  0  0  0  0  0  0  0
    8.1354  -18.4965   19.1434 C   0  0  0  0  0  0  0  0  0  0  0  0
    8.7738  -17.2384   18.6815 C   0  0  2  0  0  0  0  0  0  0  0  0
    9.8707  -17.5206   17.7385 N   0  0  0  0  0  0  0  0  0  0  0  0
    9.3489  -16.4194   19.8218 C   0  0  0  0  0  0  0  0  0  0  0  0
   10.4348  -16.7927   20.2807 O   0  0  0  0  0  0  0  0  0  0  0  0
    8.6895  -15.2801   20.3470 N   0  0  0  0  0  0  0  0  0  0  0  0
    8.0890  -14.2791   19.4325 C   0  0  0  0  0  0  0  0  0  0  0  0
    6.9960  -13.6018   20.2665 C   0  0  0  0  0  0  0  0  0  0  0  0
    6.9260  -14.4837   21.5302 C   0  0  0  0  0  0  0  0  0  0  0  0
    8.4292  -14.7593   21.6412 C   0  0  1  0  0  0  0  0  0  0  0  0
    8.8093  -15.4701   22.8287 C   0  0  0  0  0  0  0  0  0  0  0  0
    8.3944  -16.6041   23.1233 O   0  0  0  0  0  0  0  0  0  0  0  0
    9.7309  -14.9148   23.8069 N   0  0  0  0  0  0  0  0  0  0  0  0
    9.9756  -15.5449   25.0589 C   0  0  1  0  0  0  0  0  0  0  0  0
    8.7247  -16.1649   25.6176 C   0  0  0  0  0  0  0  0  0  0  0  0
    7.6131  -15.2182   25.7846 C   0  0  0  0  0  0  0  0  0  0  0  0
    6.2719  -15.5480   25.5322 C   0  0  0  0  0  0  0  0  0  0  0  0
    5.5479  -14.4594   25.8127 N   0  0  0  0  0  0  0  0  0  0  0  0
    6.3641  -13.4566   26.2289 C   0  0  0  0  0  0  0  0  0  0  0  0
    6.1141  -12.1630   26.6199 C   0  0  0  0  0  0  0  0  0  0  0  0
    7.1133  -11.2985   27.0029 C   0  0  0  0  0  0  0  0  0  0  0  0
    8.4222  -11.7710   26.9868 C   0  0  0  0  0  0  0  0  0  0  0  0
    8.7084  -13.0616   26.5998 C   0  0  0  0  0  0  0  0  0  0  0  0
    7.6849  -13.9109   26.2203 C   0  0  0  0  0  0  0  0  0  0  0  0
   11.0603  -16.5478   25.0096 C   0  0  0  0  0  0  0  0  0  0  0  0
   11.7585  -16.7621   23.8430 O   0  0  0  0  0  0  0  0  0  0  0  0
   11.3456  -17.2076   26.0274 O   0  0  0  0  0  0  0  0  0  0  0  0
  2  1  1  0
  3  2  2  0
  4  2  1  0
  4  5  1  0
  5  6  1  6
  7  5  1  0
  7  8  2  0
  9  7  1  0
 10  9  1  0
 11 12  1  0
 11 10  1  0
 12 13  1  0
 13  9  1  0
 13 14  1  1
 14 15  2  0
 16 14  1  0
 16 17  1  0
 17 28  1  0
 17 18  1  6
 19 18  1  0
 20 19  2  0
 21 22  1  0
 21 20  1  0
 22 27  2  0
 23 22  1  0
 23 24  2  0
 24 25  1  0
 25 26  2  0
 27 19  1  0
 27 26  1  0
 28 29  1  0
 30 28  2  0
M  END
$$$$
