NPW.pdb
     RDKit          3D

 30 32  0  0  1  0  0  0  0  0999 V2000
   12.0610  -19.4202   18.0898 N   0  0  0  0  0  0  0  0  0  0  0  0
   11.8392  -18.0500   17.7178 C   0  0  0  0  0  0  0  0  0  0  0  0
   12.8527  -17.3307   17.6639 O   0  0  0  0  0  0  0  0  0  0  0  0
   10.5098  -17.5210   17.4175 C   0  0  0  0  0  0  0  0  0  0  0  0
    9.4909  -17.8202   18.4548 C   0  0  2  0  0  0  0  0  0  0  0  0
    8.1318  -17.5615   17.9472 N   0  0  0  0  0  0  0  0  0  0  0  0
    9.6752  -16.9938   19.7137 C   0  0  0  0  0  0  0  0  0  0  0  0
   10.7553  -17.1143   20.3037 O   0  0  0  0  0  0  0  0  0  0  0  0
    8.6715  -16.1213   20.2036 N   0  0  0  0  0  0  0  0  0  0  0  0
    7.5196  -15.7539   19.3449 C   0  0  0  0  0  0  0  0  0  0  0  0
    6.4106  -15.3708   20.3308 C   0  0  0  0  0  0  0  0  0  0  0  0
    6.9898  -15.8069   21.6924 C   0  0  0  0  0  0  0  0  0  0  0  0
    8.4410  -15.4065   21.4076 C   0  0  1  0  0  0  0  0  0  0  0  0
    9.3172  -15.5333   22.5373 C   0  0  0  0  0  0  0  0  0  0  0  0
   10.5061  -15.1705   22.5395 O   0  0  0  0  0  0  0  0  0  0  0  0
    8.8809  -16.1067   23.8003 N   0  0  0  0  0  0  0  0  0  0  0  0
    9.7780  -16.3225   24.8834 C   0  0  1  0  0  0  0  0  0  0  0  0
    9.6488  -15.2490   25.9284 C   0  0  0  0  0  0  0  0  0  0  0  0
    8.2604  -14.8668   26.2222 C   0  0  0  0  0  0  0  0  0  0  0  0
    7.1827  -15.7649   26.1660 C   0  0  0  0  0  0  0  0  0  0  0  0
    6.0899  -15.0778   26.5149 N   0  0  0  0  0  0  0  0  0  0  0  0
    6.4221  -13.7894   26.7879 C   0  0  0  0  0  0  0  0  0  0  0  0
    5.6736  -12.7038   27.1754 C   0  0  0  0  0  0  0  0  0  0  0  0
    6.2259  -11.4630   27.3940 C   0  0  0  0  0  0  0  0  0  0  0  0
    7.5980  -11.3215   27.2098 C   0  0  0  0  0  0  0  0  0  0  0  0
    8.3779  -12.3884   26.8212 C   0  0  0  0  0  0  0  0  0  0  0  0
    7.7976  -13.6257   26.6091 C   0  0  0  0  0  0  0  0  0  0  0  0
    9.6373  -17.6558   25.5058 C   0  0  0  0  0  0  0  0  0  0  0  0
   10.6028  -18.1288   26.3651 O   0  0  0  0  0  0  0  0  0  0  0  0
    8.6415  -18.3603   25.2514 O   0  0  0  0  0  0  0  0  0  0  0  0
  2  1  1  0
  3  2  2  0
  4  2  1  0
  4  5  1  0
  5  6  1  6
  7  5  1  0
  7  8  2  0
  9  7  1  0
 10  9  1  0
 11 12  1  0
 11 10  1  0
 12 13  1  0
 13  9  1  0
 13 14  1  1
 14 15  2  0
 16 14  1  0
 16 17  1  0
 17 28  1  0
 17 18  1  1
 19 18  1  0
 20 19  2  0
 21 22  1  0
 21 20  1  0
 22 27  2  0
 23 22  1  0
 23 24  2  0
 24 25  1  0
 25 26  2  0
 27 19  1  0
 27 26  1  0
 28 29  1  0
 30 28  2  0
M  END
$$$$
