NPW.pdb
     RDKit          3D

 30 32  0  0  1  0  0  0  0  0999 V2000
   12.2580  -19.0361   21.2031 N   0  0  0  0  0  0  0  0  0  0  0  0
   12.3647  -18.1765   20.0564 C   0  0  0  0  0  0  0  0  0  0  0  0
   13.4613  -17.6097   19.9024 O   0  0  0  0  0  0  0  0  0  0  0  0
   11.2610  -17.9727   19.1198 C   0  0  0  0  0  0  0  0  0  0  0  0
    9.9185  -17.9908   19.7533 C   0  0  2  0  0  0  0  0  0  0  0  0
    8.8634  -17.7326   18.7573 N   0  0  0  0  0  0  0  0  0  0  0  0
    9.7746  -16.9552   20.8526 C   0  0  0  0  0  0  0  0  0  0  0  0
   10.6463  -16.9520   21.7298 O   0  0  0  0  0  0  0  0  0  0  0  0
    8.7025  -16.0290   20.8883 N   0  0  0  0  0  0  0  0  0  0  0  0
    7.8209  -15.8637   19.7074 C   0  0  0  0  0  0  0  0  0  0  0  0
    6.5061  -15.3237   20.2805 C   0  0  0  0  0  0  0  0  0  0  0  0
    6.7032  -15.4728   21.8032 C   0  0  0  0  0  0  0  0  0  0  0  0
    8.1890  -15.0998   21.8300 C   0  0  1  0  0  0  0  0  0  0  0  0
    8.7410  -14.9833   23.1498 C   0  0  0  0  0  0  0  0  0  0  0  0
    8.5112  -14.0341   23.9185 O   0  0  0  0  0  0  0  0  0  0  0  0
    9.6325  -15.9853   23.7119 N   0  0  0  0  0  0  0  0  0  0  0  0
    9.9849  -15.9966   25.0903 C   0  0  1  0  0  0  0  0  0  0  0  0
    8.8319  -16.4352   25.9503 C   0  0  0  0  0  0  0  0  0  0  0  0
    7.7103  -15.4858   25.9736 C   0  0  0  0  0  0  0  0  0  0  0  0
    6.3908  -15.8397   25.6498 C   0  0  0  0  0  0  0  0  0  0  0  0
    5.6477  -14.7388   25.8039 N   0  0  0  0  0  0  0  0  0  0  0  0
    6.4312  -13.7055   26.2079 C   0  0  0  0  0  0  0  0  0  0  0  0
    6.1529  -12.3899   26.4916 C   0  0  0  0  0  0  0  0  0  0  0  0
    7.1214  -11.4957   26.8850 C   0  0  0  0  0  0  0  0  0  0  0  0
    8.4286  -11.9607   26.9936 C   0  0  0  0  0  0  0  0  0  0  0  0
    8.7429  -13.2728   26.7163 C   0  0  0  0  0  0  0  0  0  0  0  0
    7.7498  -14.1516   26.3236 C   0  0  0  0  0  0  0  0  0  0  0  0
   11.1782  -16.8176   25.3847 C   0  0  0  0  0  0  0  0  0  0  0  0
   11.7968  -17.5316   24.3838 O   0  0  0  0  0  0  0  0  0  0  0  0
   11.6284  -16.8688   26.5455 O   0  0  0  0  0  0  0  0  0  0  0  0
  2  1  1  0
  3  2  2  0
  4  2  1  0
  4  5  1  0
  5  6  1  6
  7  5  1  0
  7  8  2  0
  9  7  1  0
 10  9  1  0
 11 12  1  0
 11 10  1  0
 12 13  1  0
 13  9  1  0
 13 14  1  1
 14 15  2  0
 16 14  1  0
 16 17  1  0
 17 28  1  0
 17 18  1  1
 19 18  1  0
 20 19  2  0
 21 22  1  0
 21 20  1  0
 22 27  2  0
 23 22  1  0
 23 24  2  0
 24 25  1  0
 25 26  2  0
 27 19  1  0
 27 26  1  0
 28 29  1  0
 30 28  2  0
M  END
$$$$
