NPW.pdb
     RDKit          3D

 30 32  0  0  1  0  0  0  0  0999 V2000
   11.7175  -19.6305   19.2499 N   0  0  0  0  0  0  0  0  0  0  0  0
   11.2171  -18.7198   18.2573 C   0  0  0  0  0  0  0  0  0  0  0  0
   11.9491  -18.5386   17.2679 O   0  0  0  0  0  0  0  0  0  0  0  0
    9.9284  -18.0422   18.3888 C   0  0  0  0  0  0  0  0  0  0  0  0
    9.2598  -18.2618   19.6958 C   0  0  2  0  0  0  0  0  0  0  0  0
    7.8030  -18.4040   19.5241 N   0  0  0  0  0  0  0  0  0  0  0  0
    9.4975  -17.1270   20.6743 C   0  0  0  0  0  0  0  0  0  0  0  0
   10.5319  -17.1837   21.3495 O   0  0  0  0  0  0  0  0  0  0  0  0
    8.5912  -16.0471   20.8201 N   0  0  0  0  0  0  0  0  0  0  0  0
    7.6033  -15.7542   19.7537 C   0  0  0  0  0  0  0  0  0  0  0  0
    6.4683  -15.0161   20.4719 C   0  0  0  0  0  0  0  0  0  0  0  0
    6.8307  -15.1862   21.9617 C   0  0  0  0  0  0  0  0  0  0  0  0
    8.3474  -15.0455   21.7954 C   0  0  1  0  0  0  0  0  0  0  0  0
    9.0725  -15.0087   23.0335 C   0  0  0  0  0  0  0  0  0  0  0  0
    9.6476  -13.9982   23.4729 O   0  0  0  0  0  0  0  0  0  0  0  0
    9.1981  -16.1720   23.8970 N   0  0  0  0  0  0  0  0  0  0  0  0
    9.9582  -16.1433   25.0993 C   0  0  1  0  0  0  0  0  0  0  0  0
    9.0714  -16.1864   26.3131 C   0  0  0  0  0  0  0  0  0  0  0  0
    7.8522  -15.3752   26.1900 C   0  0  0  0  0  0  0  0  0  0  0  0
    6.6018  -15.9071   25.8362 C   0  0  0  0  0  0  0  0  0  0  0  0
    5.7334  -14.8904   25.8475 N   0  0  0  0  0  0  0  0  0  0  0  0
    6.3718  -13.7414   26.1896 C   0  0  0  0  0  0  0  0  0  0  0  0
    5.9328  -12.4470   26.3325 C   0  0  0  0  0  0  0  0  0  0  0  0
    6.7708  -11.4150   26.6865 C   0  0  0  0  0  0  0  0  0  0  0  0
    8.1125  -11.7138   26.9038 C   0  0  0  0  0  0  0  0  0  0  0  0
    8.5864  -13.0001   26.7688 C   0  0  0  0  0  0  0  0  0  0  0  0
    7.7223  -14.0196   26.4128 C   0  0  0  0  0  0  0  0  0  0  0  0
   10.9759  -17.2125   25.1766 C   0  0  0  0  0  0  0  0  0  0  0  0
   11.9204  -17.2041   26.1775 O   0  0  0  0  0  0  0  0  0  0  0  0
   10.9841  -18.1272   24.3304 O   0  0  0  0  0  0  0  0  0  0  0  0
  2  1  1  0
  3  2  2  0
  4  2  1  0
  4  5  1  0
  5  6  1  6
  7  5  1  0
  7  8  2  0
  9  7  1  0
 10  9  1  0
 11 12  1  0
 11 10  1  0
 12 13  1  0
 13  9  1  0
 13 14  1  1
 14 15  2  0
 16 14  1  0
 16 17  1  0
 17 28  1  0
 17 18  1  1
 19 18  1  0
 20 19  2  0
 21 22  1  0
 21 20  1  0
 22 27  2  0
 23 22  1  0
 23 24  2  0
 24 25  1  0
 25 26  2  0
 27 19  1  0
 27 26  1  0
 28 29  1  0
 30 28  2  0
M  END
$$$$
