NPW.pdb
     RDKit          3D

 30 32  0  0  1  0  0  0  0  0999 V2000
    9.8674  -17.0287   15.1996 N   0  0  0  0  0  0  0  0  0  0  0  0
    9.3986  -17.6313   16.4171 C   0  0  0  0  0  0  0  0  0  0  0  0
    8.8540  -18.7434   16.2983 O   0  0  0  0  0  0  0  0  0  0  0  0
    9.5471  -16.9886   17.7217 C   0  0  0  0  0  0  0  0  0  0  0  0
   10.0768  -15.6033   17.6571 C   0  0  2  0  0  0  0  0  0  0  0  0
   11.4215  -15.5819   17.0542 N   0  0  0  0  0  0  0  0  0  0  0  0
   10.1760  -14.9490   19.0223 C   0  0  0  0  0  0  0  0  0  0  0  0
   11.2828  -14.9789   19.5731 O   0  0  0  0  0  0  0  0  0  0  0  0
    9.0670  -14.3286   19.6500 N   0  0  0  0  0  0  0  0  0  0  0  0
    8.2751  -13.3068   18.9235 C   0  0  0  0  0  0  0  0  0  0  0  0
    6.8981  -13.3368   19.5955 C   0  0  0  0  0  0  0  0  0  0  0  0
    6.9806  -14.5821   20.5022 C   0  0  0  0  0  0  0  0  0  0  0  0
    8.4431  -14.4026   20.9224 C   0  0  1  0  0  0  0  0  0  0  0  0
    8.8842  -15.3314   21.9237 C   0  0  0  0  0  0  0  0  0  0  0  0
    9.2597  -16.4908   21.6798 O   0  0  0  0  0  0  0  0  0  0  0  0
    8.9318  -14.9888   23.3362 N   0  0  0  0  0  0  0  0  0  0  0  0
    9.4512  -15.8820   24.3143 C   0  0  1  0  0  0  0  0  0  0  0  0
    9.2836  -15.3347   25.7048 C   0  0  0  0  0  0  0  0  0  0  0  0
    7.9086  -14.9240   26.0224 C   0  0  0  0  0  0  0  0  0  0  0  0
    6.7964  -15.7687   25.8781 C   0  0  0  0  0  0  0  0  0  0  0  0
    5.7284  -15.0717   26.2800 N   0  0  0  0  0  0  0  0  0  0  0  0
    6.1090  -13.8277   26.6703 C   0  0  0  0  0  0  0  0  0  0  0  0
    5.4006  -12.7516   27.1489 C   0  0  0  0  0  0  0  0  0  0  0  0
    5.9998  -11.5590   27.4823 C   0  0  0  0  0  0  0  0  0  0  0  0
    7.3784  -11.4577   27.3210 C   0  0  0  0  0  0  0  0  0  0  0  0
    8.1189  -12.5163   26.8432 C   0  0  0  0  0  0  0  0  0  0  0  0
    7.4918  -13.7049   26.5164 C   0  0  0  0  0  0  0  0  0  0  0  0
    8.8773  -17.2417   24.2318 C   0  0  0  0  0  0  0  0  0  0  0  0
    9.4957  -18.2981   24.8609 O   0  0  0  0  0  0  0  0  0  0  0  0
    7.8290  -17.4375   23.5874 O   0  0  0  0  0  0  0  0  0  0  0  0
  2  1  1  0
  3  2  2  0
  4  2  1  0
  4  5  1  0
  5  6  1  1
  7  5  1  0
  7  8  2  0
  9  7  1  0
 10  9  1  0
 11 12  1  0
 11 10  1  0
 12 13  1  0
 13  9  1  0
 13 14  1  1
 14 15  2  0
 16 14  1  0
 16 17  1  0
 17 28  1  0
 17 18  1  1
 19 18  1  0
 20 19  2  0
 21 22  1  0
 21 20  1  0
 22 27  2  0
 23 22  1  0
 23 24  2  0
 24 25  1  0
 25 26  2  0
 27 19  1  0
 27 26  1  0
 28 29  1  0
 30 28  2  0
M  END
$$$$
