NPW.pdb
     RDKit          3D

 30 32  0  0  1  0  0  0  0  0999 V2000
    8.9709  -13.4153   15.8270 N   0  0  0  0  0  0  0  0  0  0  0  0
    7.7056  -13.8816   16.3237 C   0  0  0  0  0  0  0  0  0  0  0  0
    6.6969  -13.4018   15.7763 O   0  0  0  0  0  0  0  0  0  0  0  0
    7.5962  -14.8601   17.4043 C   0  0  0  0  0  0  0  0  0  0  0  0
    8.9022  -15.3594   17.9031 C   0  0  2  0  0  0  0  0  0  0  0  0
    9.2892  -16.6019   17.2114 N   0  0  0  0  0  0  0  0  0  0  0  0
    8.8895  -15.6486   19.3924 C   0  0  0  0  0  0  0  0  0  0  0  0
    9.0720  -14.6856   20.1464 O   0  0  0  0  0  0  0  0  0  0  0  0
    8.6795  -16.9505   19.9118 N   0  0  0  0  0  0  0  0  0  0  0  0
    7.9939  -17.9783   19.0918 C   0  0  0  0  0  0  0  0  0  0  0  0
    8.4863  -19.3146   19.6580 C   0  0  0  0  0  0  0  0  0  0  0  0
    9.6224  -18.8908   20.6116 C   0  0  0  0  0  0  0  0  0  0  0  0
    8.9523  -17.6162   21.1350 C   0  0  1  0  0  0  0  0  0  0  0  0
    9.6680  -16.9715   22.1991 C   0  0  0  0  0  0  0  0  0  0  0  0
   10.7884  -16.4497   22.0675 O   0  0  0  0  0  0  0  0  0  0  0  0
    9.1333  -16.8706   23.5476 N   0  0  0  0  0  0  0  0  0  0  0  0
    9.8399  -16.2160   24.5947 C   0  0  1  0  0  0  0  0  0  0  0  0
    9.4942  -14.7541   24.6631 C   0  0  0  0  0  0  0  0  0  0  0  0
    8.1421  -14.4842   25.1719 C   0  0  0  0  0  0  0  0  0  0  0  0
    7.1212  -15.4476   25.2038 C   0  0  0  0  0  0  0  0  0  0  0  0
    6.0513  -14.8576   25.7471 N   0  0  0  0  0  0  0  0  0  0  0  0
    6.3438  -13.5685   26.0597 C   0  0  0  0  0  0  0  0  0  0  0  0
    5.5966  -12.5609   26.6210 C   0  0  0  0  0  0  0  0  0  0  0  0
    6.1015  -11.3012   26.8460 C   0  0  0  0  0  0  0  0  0  0  0  0
    7.4229  -11.0572   26.4839 C   0  0  0  0  0  0  0  0  0  0  0  0
    8.1999  -12.0441   25.9184 C   0  0  0  0  0  0  0  0  0  0  0  0
    7.6680  -13.3025   25.7039 C   0  0  0  0  0  0  0  0  0  0  0  0
    9.6451  -16.8456   25.9178 C   0  0  0  0  0  0  0  0  0  0  0  0
   10.4777  -16.5321   26.9678 O   0  0  0  0  0  0  0  0  0  0  0  0
    8.7244  -17.6682   26.0869 O   0  0  0  0  0  0  0  0  0  0  0  0
  2  1  1  0
  3  2  2  0
  4  2  1  0
  4  5  1  0
  5  6  1  6
  7  5  1  0
  7  8  2  0
  9  7  1  0
 10  9  1  0
 11 12  1  0
 11 10  1  0
 12 13  1  0
 13  9  1  0
 13 14  1  1
 14 15  2  0
 16 14  1  0
 16 17  1  0
 17 28  1  0
 17 18  1  1
 19 18  1  0
 20 19  2  0
 21 22  1  0
 21 20  1  0
 22 27  2  0
 23 22  1  0
 23 24  2  0
 24 25  1  0
 25 26  2  0
 27 19  1  0
 27 26  1  0
 28 29  1  0
 30 28  2  0
M  END
$$$$
