NPW.pdb
     RDKit          3D

 30 32  0  0  1  0  0  0  0  0999 V2000
    8.4309  -21.8832   19.6925 N   0  0  0  0  0  0  0  0  0  0  0  0
    7.8249  -20.5862   19.5665 C   0  0  0  0  0  0  0  0  0  0  0  0
    6.7876  -20.5354   18.8818 O   0  0  0  0  0  0  0  0  0  0  0  0
    8.3820  -19.3920   20.1996 C   0  0  0  0  0  0  0  0  0  0  0  0
    8.6418  -18.2736   19.2586 C   0  0  2  0  0  0  0  0  0  0  0  0
    9.5739  -18.6873   18.1945 N   0  0  0  0  0  0  0  0  0  0  0  0
    9.2378  -17.0578   19.9429 C   0  0  0  0  0  0  0  0  0  0  0  0
   10.4618  -17.0644   20.1194 O   0  0  0  0  0  0  0  0  0  0  0  0
    8.4474  -15.9596   20.3647 N   0  0  0  0  0  0  0  0  0  0  0  0
    7.3439  -15.4630   19.5076 C   0  0  0  0  0  0  0  0  0  0  0  0
    6.3825  -14.7705   20.4796 C   0  0  0  0  0  0  0  0  0  0  0  0
    6.9380  -15.1701   21.8621 C   0  0  0  0  0  0  0  0  0  0  0  0
    8.4221  -15.0939   21.4889 C   0  0  1  0  0  0  0  0  0  0  0  0
    9.3160  -15.2741   22.5973 C   0  0  0  0  0  0  0  0  0  0  0  0
   10.3241  -14.5754   22.7985 O   0  0  0  0  0  0  0  0  0  0  0  0
    9.1145  -16.3081   23.5997 N   0  0  0  0  0  0  0  0  0  0  0  0
    9.8882  -16.3668   24.7923 C   0  0  1  0  0  0  0  0  0  0  0  0
    9.7982  -15.0837   25.5713 C   0  0  0  0  0  0  0  0  0  0  0  0
    8.4264  -14.5846   25.7420 C   0  0  0  0  0  0  0  0  0  0  0  0
    7.2852  -15.3822   25.5610 C   0  0  0  0  0  0  0  0  0  0  0  0
    6.2277  -14.6067   25.8224 N   0  0  0  0  0  0  0  0  0  0  0  0
    6.6426  -13.3579   26.1587 C   0  0  0  0  0  0  0  0  0  0  0  0
    5.9574  -12.2169   26.5013 C   0  0  0  0  0  0  0  0  0  0  0  0
    6.5917  -11.0341   26.8031 C   0  0  0  0  0  0  0  0  0  0  0  0
    7.9823  -11.0121   26.7535 C   0  0  0  0  0  0  0  0  0  0  0  0
    8.7004  -12.1373   26.4132 C   0  0  0  0  0  0  0  0  0  0  0  0
    8.0380  -13.3142   26.1152 C   0  0  0  0  0  0  0  0  0  0  0  0
    9.5432  -17.5124   25.6604 C   0  0  0  0  0  0  0  0  0  0  0  0
    8.5167  -18.3624   25.3170 O   0  0  0  0  0  0  0  0  0  0  0  0
   10.1813  -17.7117   26.7120 O   0  0  0  0  0  0  0  0  0  0  0  0
  2  1  1  0
  3  2  2  0
  4  2  1  0
  4  5  1  0
  5  6  1  6
  7  5  1  0
  7  8  2  0
  9  7  1  0
 10  9  1  0
 11 12  1  0
 11 10  1  0
 12 13  1  0
 13  9  1  0
 13 14  1  1
 14 15  2  0
 16 14  1  0
 16 17  1  0
 17 28  1  0
 17 18  1  1
 19 18  1  0
 20 19  2  0
 21 22  1  0
 21 20  1  0
 22 27  2  0
 23 22  1  0
 23 24  2  0
 24 25  1  0
 25 26  2  0
 27 19  1  0
 27 26  1  0
 28 29  1  0
 30 28  2  0
M  END
$$$$
