TNT.pdb
     RDKit          3D

 23 22  0  0  1  0  0  0  0  0999 V2000
    9.3452  -14.5134   16.8753 C   0  0  0  0  0  0  0  0  0  0  0  0
    7.8683  -14.6374   17.2695 C   0  0  1  0  0  0  0  0  0  0  0  0
    7.7306  -15.9738   17.6838 O   0  0  0  0  0  0  0  0  0  0  0  0
    7.6071  -13.7615   18.4794 C   0  0  2  0  0  0  0  0  0  0  0  0
    7.7864  -12.3857   18.0528 N   0  0  0  0  0  0  0  0  0  0  0  0
    8.6972  -14.0929   19.4692 C   0  0  0  0  0  0  0  0  0  0  0  0
    9.8486  -13.6087   19.3583 O   0  0  0  0  0  0  0  0  0  0  0  0
   10.0045  -15.1710   24.7826 N   0  0  0  0  0  0  0  0  0  0  0  0
    9.8821  -16.1928   23.8136 C   0  0  0  0  0  0  0  0  0  0  0  0
   10.6237  -17.1993   23.9208 O   0  0  0  0  0  0  0  0  0  0  0  0
    8.8938  -16.0216   22.7333 C   0  0  0  0  0  0  0  0  0  0  0  0
    9.4414  -15.2353   21.5677 C   0  0  2  0  0  0  0  0  0  0  0  0
    8.4507  -14.9680   20.5625 N   0  0  0  0  0  0  0  0  0  0  0  0
   10.6296  -15.9467   21.0007 C   0  0  0  0  0  0  0  0  0  0  0  0
   10.3787  -16.9925   20.3533 O   0  0  0  0  0  0  0  0  0  0  0  0
   13.5487  -13.8414   19.2168 C   0  0  0  0  0  0  0  0  0  0  0  0
   13.2565  -15.3051   19.0937 C   0  0  1  0  0  0  0  0  0  0  0  0
   14.2719  -15.8737   18.3375 O   0  0  0  0  0  0  0  0  0  0  0  0
   13.0761  -16.0146   20.4057 C   0  0  2  0  0  0  0  0  0  0  0  0
   11.9642  -15.4900   21.1699 N   0  0  0  0  0  0  0  0  0  0  0  0
   14.3125  -16.1038   21.2066 C   0  0  0  0  0  0  0  0  0  0  0  0
   15.4308  -16.6594   20.5936 O   0  0  0  0  0  0  0  0  0  0  0  0
   14.4343  -15.7254   22.3777 O   0  0  0  0  0  0  0  0  0  0  0  0
  2  1  1  1
  2  4  1  0
  3  2  1  0
  4  6  1  0
  4  5  1  6
  6 13  1  0
  6  7  2  0
  8  9  1  0
  9 11  1  0
 10  9  2  0
 12 11  1  1
 12 14  1  0
 13 12  1  0
 14 20  1  0
 14 15  2  0
 17 16  1  1
 17 19  1  0
 17 18  1  0
 19 21  1  0
 19 20  1  1
 21 22  1  0
 23 21  2  0
M  END
$$$$
