TNT.pdb
     RDKit          3D

 23 22  0  0  1  0  0  0  0  0999 V2000
    8.7154  -16.0686   17.2514 C   0  0  0  0  0  0  0  0  0  0  0  0
    8.6641  -14.5488   17.0522 C   0  0  1  0  0  0  0  0  0  0  0  0
    7.8187  -14.3724   15.9427 O   0  0  0  0  0  0  0  0  0  0  0  0
    7.9758  -13.9191   18.2476 C   0  0  2  0  0  0  0  0  0  0  0  0
    7.8221  -12.5064   17.9520 N   0  0  0  0  0  0  0  0  0  0  0  0
    8.9434  -14.0565   19.3977 C   0  0  0  0  0  0  0  0  0  0  0  0
    9.9503  -13.3154   19.4955 O   0  0  0  0  0  0  0  0  0  0  0  0
    7.5586  -13.7717   22.7327 N   0  0  0  0  0  0  0  0  0  0  0  0
    7.8429  -15.0362   23.2971 C   0  0  0  0  0  0  0  0  0  0  0  0
    7.1420  -15.4216   24.2639 O   0  0  0  0  0  0  0  0  0  0  0  0
    8.9430  -15.8309   22.7217 C   0  0  0  0  0  0  0  0  0  0  0  0
    9.6045  -15.1421   21.5534 C   0  0  2  0  0  0  0  0  0  0  0  0
    8.7418  -15.0346   20.4099 N   0  0  0  0  0  0  0  0  0  0  0  0
   10.8834  -15.8440   21.2199 C   0  0  0  0  0  0  0  0  0  0  0  0
   10.7717  -17.0515   20.8953 O   0  0  0  0  0  0  0  0  0  0  0  0
   13.1866  -14.8337   18.5748 C   0  0  0  0  0  0  0  0  0  0  0  0
   14.0730  -15.1698   19.7343 C   0  0  1  0  0  0  0  0  0  0  0  0
   14.6765  -13.9933   20.1561 O   0  0  0  0  0  0  0  0  0  0  0  0
   13.3767  -15.8739   20.8642 C   0  0  2  0  0  0  0  0  0  0  0  0
   12.1535  -15.2088   21.2604 N   0  0  0  0  0  0  0  0  0  0  0  0
   14.2550  -16.1613   22.0148 C   0  0  0  0  0  0  0  0  0  0  0  0
   15.4193  -16.8801   21.7647 O   0  0  0  0  0  0  0  0  0  0  0  0
   14.0393  -15.8153   23.1825 O   0  0  0  0  0  0  0  0  0  0  0  0
  2  1  1  1
  2  4  1  0
  3  2  1  0
  4  6  1  0
  4  5  1  6
  6 13  1  0
  6  7  2  0
  8  9  1  0
  9 11  1  0
 10  9  2  0
 12 11  1  1
 12 14  1  0
 13 12  1  0
 14 20  1  0
 14 15  2  0
 17 16  1  6
 17 19  1  0
 17 18  1  0
 19 21  1  0
 19 20  1  1
 21 22  1  0
 23 21  2  0
M  END
$$$$
