TNT.pdb
     RDKit          3D

 23 22  0  0  1  0  0  0  0  0999 V2000
    4.7048  -19.4520   22.9719 C   0  0  0  0  0  0  0  0  0  0  0  0
    5.4746  -20.2948   21.9477 C   0  0  1  0  0  0  0  0  0  0  0  0
    5.2790  -21.6208   22.3718 O   0  0  0  0  0  0  0  0  0  0  0  0
    4.8084  -20.1521   20.5931 C   0  0  2  0  0  0  0  0  0  0  0  0
    4.9850  -18.7726   20.1775 N   0  0  0  0  0  0  0  0  0  0  0  0
    3.3367  -20.3863   20.8328 C   0  0  0  0  0  0  0  0  0  0  0  0
    2.5890  -19.4690   21.2475 O   0  0  0  0  0  0  0  0  0  0  0  0
   -0.7090  -21.3159   19.1233 N   0  0  0  0  0  0  0  0  0  0  0  0
   -0.2657  -22.6576   19.0848 C   0  0  0  0  0  0  0  0  0  0  0  0
   -0.8305  -23.4428   18.2854 O   0  0  0  0  0  0  0  0  0  0  0  0
    0.8320  -23.0607   19.9824 C   0  0  0  0  0  0  0  0  0  0  0  0
    1.3533  -21.9121   20.8105 C   0  0  2  0  0  0  0  0  0  0  0  0
    2.7508  -21.6597   20.5943 N   0  0  0  0  0  0  0  0  0  0  0  0
    1.0511  -22.1614   22.2548 C   0  0  0  0  0  0  0  0  0  0  0  0
    1.9922  -22.6435   22.9314 O   0  0  0  0  0  0  0  0  0  0  0  0
   -1.1250  -19.6453   24.5967 C   0  0  0  0  0  0  0  0  0  0  0  0
   -1.4916  -21.0858   24.7801 C   0  0  1  0  0  0  0  0  0  0  0  0
   -2.7338  -21.2809   24.1925 O   0  0  0  0  0  0  0  0  0  0  0  0
   -0.4709  -22.0572   24.2589 C   0  0  2  0  0  0  0  0  0  0  0  0
   -0.2096  -21.8802   22.8462 N   0  0  0  0  0  0  0  0  0  0  0  0
   -0.7608  -23.4630   24.6022 C   0  0  0  0  0  0  0  0  0  0  0  0
   -0.8620  -23.7821   25.9523 O   0  0  0  0  0  0  0  0  0  0  0  0
   -0.9202  -24.3795   23.7870 O   0  0  0  0  0  0  0  0  0  0  0  0
  2  1  1  1
  2  4  1  0
  3  2  1  0
  4  6  1  0
  4  5  1  1
  6 13  1  0
  6  7  2  0
  8  9  1  0
  9 11  1  0
 10  9  2  0
 12 11  1  6
 12 14  1  0
 13 12  1  0
 14 20  1  0
 14 15  2  0
 17 16  1  6
 17 19  1  0
 17 18  1  0
 19 21  1  0
 19 20  1  6
 21 22  1  0
 23 21  2  0
M  END
$$$$
