TNT.pdb
     RDKit          3D

 23 22  0  0  1  0  0  0  0  0999 V2000
    7.6797  -12.2722   19.1184 C   0  0  0  0  0  0  0  0  0  0  0  0
    8.7590  -13.2774   19.5386 C   0  0  1  0  0  0  0  0  0  0  0  0
    8.0457  -14.3045   20.1810 O   0  0  0  0  0  0  0  0  0  0  0  0
    9.3859  -13.8748   18.2938 C   0  0  2  0  0  0  0  0  0  0  0  0
    8.3571  -14.6599   17.6366 N   0  0  0  0  0  0  0  0  0  0  0  0
   10.4557  -14.8190   18.7857 C   0  0  0  0  0  0  0  0  0  0  0  0
   10.2227  -16.0401   18.9509 O   0  0  0  0  0  0  0  0  0  0  0  0
   15.0684  -13.6030   17.2615 N   0  0  0  0  0  0  0  0  0  0  0  0
   14.4913  -14.7503   17.8521 C   0  0  0  0  0  0  0  0  0  0  0  0
   14.2698  -15.7435   17.1179 O   0  0  0  0  0  0  0  0  0  0  0  0
   14.1822  -14.7185   19.2931 C   0  0  0  0  0  0  0  0  0  0  0  0
   12.7898  -15.2144   19.5969 C   0  0  2  0  0  0  0  0  0  0  0  0
   11.7661  -14.3507   19.0779 N   0  0  0  0  0  0  0  0  0  0  0  0
   12.6456  -15.4223   21.0719 C   0  0  0  0  0  0  0  0  0  0  0  0
   13.2714  -14.6123   21.7984 O   0  0  0  0  0  0  0  0  0  0  0  0
    9.4683  -15.5403   23.2782 C   0  0  0  0  0  0  0  0  0  0  0  0
   10.2874  -16.7753   23.4950 C   0  0  1  0  0  0  0  0  0  0  0  0
    9.6466  -17.8229   22.8484 O   0  0  0  0  0  0  0  0  0  0  0  0
   11.7222  -16.6517   23.0668 C   0  0  2  0  0  0  0  0  0  0  0  0
   11.8586  -16.4605   21.6384 N   0  0  0  0  0  0  0  0  0  0  0  0
   12.5870  -17.7360   23.5711 C   0  0  0  0  0  0  0  0  0  0  0  0
   12.6640  -17.9014   24.9501 O   0  0  0  0  0  0  0  0  0  0  0  0
   13.2486  -18.5083   22.8672 O   0  0  0  0  0  0  0  0  0  0  0  0
  2  1  1  6
  2  4  1  0
  3  2  1  0
  4  6  1  0
  4  5  1  1
  6 13  1  0
  6  7  2  0
  8  9  1  0
  9 11  1  0
 10  9  2  0
 12 11  1  1
 12 14  1  0
 13 12  1  0
 14 20  1  0
 14 15  2  0
 17 16  1  6
 17 19  1  0
 17 18  1  0
 19 21  1  0
 19 20  1  6
 21 22  1  0
 23 21  2  0
M  END
$$$$
