TNT.pdb
     RDKit          3D

 23 22  0  0  1  0  0  0  0  0999 V2000
    8.0282  -14.1680   15.9600 C   0  0  0  0  0  0  0  0  0  0  0  0
    8.5363  -14.6253   17.3328 C   0  0  1  0  0  0  0  0  0  0  0  0
    9.8950  -14.2642   17.3381 O   0  0  0  0  0  0  0  0  0  0  0  0
    7.8488  -13.8077   18.4090 C   0  0  2  0  0  0  0  0  0  0  0  0
    8.2078  -12.4199   18.1807 N   0  0  0  0  0  0  0  0  0  0  0  0
    8.4671  -14.2449   19.7146 C   0  0  0  0  0  0  0  0  0  0  0  0
    9.3458  -13.5548   20.2839 O   0  0  0  0  0  0  0  0  0  0  0  0
    6.0437  -15.9789   20.9903 N   0  0  0  0  0  0  0  0  0  0  0  0
    6.4893  -16.9766   21.8870 C   0  0  0  0  0  0  0  0  0  0  0  0
    5.6371  -17.7651   22.3630 O   0  0  0  0  0  0  0  0  0  0  0  0
    7.9255  -17.0369   22.2135 C   0  0  0  0  0  0  0  0  0  0  0  0
    8.7223  -15.9603   21.5186 C   0  0  2  0  0  0  0  0  0  0  0  0
    8.0702  -15.4578   20.3415 N   0  0  0  0  0  0  0  0  0  0  0  0
   10.0954  -16.4730   21.2164 C   0  0  0  0  0  0  0  0  0  0  0  0
   10.2022  -17.7205   21.1277 O   0  0  0  0  0  0  0  0  0  0  0  0
   12.4234  -14.7470   18.6032 C   0  0  0  0  0  0  0  0  0  0  0  0
   13.2656  -15.2427   19.7381 C   0  0  1  0  0  0  0  0  0  0  0  0
   13.8182  -14.1351   20.3658 O   0  0  0  0  0  0  0  0  0  0  0  0
   12.5385  -16.1278   20.7102 C   0  0  2  0  0  0  0  0  0  0  0  0
   11.2211  -15.6250   21.0376 N   0  0  0  0  0  0  0  0  0  0  0  0
   13.3257  -16.4591   21.9139 C   0  0  0  0  0  0  0  0  0  0  0  0
   14.5197  -17.1474   21.7256 O   0  0  0  0  0  0  0  0  0  0  0  0
   13.0093  -16.1748   23.0753 O   0  0  0  0  0  0  0  0  0  0  0  0
  2  1  1  6
  2  4  1  0
  3  2  1  0
  4  6  1  0
  4  5  1  6
  6 13  1  0
  6  7  2  0
  8  9  1  0
  9 11  1  0
 10  9  2  0
 12 11  1  6
 12 14  1  0
 13 12  1  0
 14 20  1  0
 14 15  2  0
 17 16  1  6
 17 19  1  0
 17 18  1  0
 19 21  1  0
 19 20  1  1
 21 22  1  0
 23 21  2  0
M  END
$$$$
