TNT.pdb
     RDKit          3D

 23 22  0  0  1  0  0  0  0  0999 V2000
    8.6258  -12.4116   20.1303 C   0  0  0  0  0  0  0  0  0  0  0  0
    7.8233  -13.2703   19.1451 C   0  0  1  0  0  0  0  0  0  0  0  0
    8.0171  -12.6444   17.9012 O   0  0  0  0  0  0  0  0  0  0  0  0
    8.4576  -14.6450   19.0612 C   0  0  2  0  0  0  0  0  0  0  0  0
    7.6853  -15.4097   18.0992 N   0  0  0  0  0  0  0  0  0  0  0  0
    8.2652  -15.2695   20.4217 C   0  0  0  0  0  0  0  0  0  0  0  0
    7.1338  -15.6401   20.8155 O   0  0  0  0  0  0  0  0  0  0  0  0
   10.5142  -17.0637   20.3294 N   0  0  0  0  0  0  0  0  0  0  0  0
   10.9115  -17.6568   21.5494 C   0  0  0  0  0  0  0  0  0  0  0  0
   11.7415  -18.5969   21.5056 O   0  0  0  0  0  0  0  0  0  0  0  0
   10.3316  -17.1411   22.8027 C   0  0  0  0  0  0  0  0  0  0  0  0
    9.2321  -16.1364   22.5609 C   0  0  2  0  0  0  0  0  0  0  0  0
    9.3659  -15.4576   21.3021 N   0  0  0  0  0  0  0  0  0  0  0  0
    9.1743  -15.1753   23.7065 C   0  0  0  0  0  0  0  0  0  0  0  0
   10.0073  -14.2369   23.6709 O   0  0  0  0  0  0  0  0  0  0  0  0
    6.4828  -12.7547   24.9696 C   0  0  0  0  0  0  0  0  0  0  0  0
    6.8451  -13.7325   26.0447 C   0  0  1  0  0  0  0  0  0  0  0  0
    5.8395  -14.6875   26.0997 O   0  0  0  0  0  0  0  0  0  0  0  0
    8.2002  -14.3605   25.8816 C   0  0  2  0  0  0  0  0  0  0  0  0
    8.2477  -15.2945   24.7767 N   0  0  0  0  0  0  0  0  0  0  0  0
    8.7390  -14.9400   27.1274 C   0  0  0  0  0  0  0  0  0  0  0  0
    8.9189  -14.0795   28.2054 O   0  0  0  0  0  0  0  0  0  0  0  0
    9.0437  -16.1277   27.2898 O   0  0  0  0  0  0  0  0  0  0  0  0
  2  1  1  1
  2  4  1  0
  3  2  1  0
  4  6  1  0
  4  5  1  6
  6 13  1  0
  6  7  2  0
  8  9  1  0
  9 11  1  0
 10  9  2  0
 12 11  1  1
 12 14  1  0
 13 12  1  0
 14 20  1  0
 14 15  2  0
 17 16  1  6
 17 19  1  0
 17 18  1  0
 19 21  1  0
 19 20  1  6
 21 22  1  0
 23 21  2  0
M  END
$$$$
