TNT.pdb
     RDKit          3D

 23 22  0  0  1  0  0  0  0  0999 V2000
    9.1790  -12.7722   19.0615 C   0  0  0  0  0  0  0  0  0  0  0  0
    8.2887  -13.6962   18.2216 C   0  0  1  0  0  0  0  0  0  0  0  0
    8.0381  -12.9640   17.0478 O   0  0  0  0  0  0  0  0  0  0  0  0
    9.0878  -14.9225   17.8255 C   0  0  2  0  0  0  0  0  0  0  0  0
    8.2374  -15.7216   16.9624 N   0  0  0  0  0  0  0  0  0  0  0  0
    9.3178  -15.6927   19.1030 C   0  0  0  0  0  0  0  0  0  0  0  0
    8.3780  -16.2814   19.6882 O   0  0  0  0  0  0  0  0  0  0  0  0
   12.0819  -18.9198   22.4870 N   0  0  0  0  0  0  0  0  0  0  0  0
   12.5773  -17.6074   22.3126 C   0  0  0  0  0  0  0  0  0  0  0  0
   13.2230  -17.0904   23.2561 O   0  0  0  0  0  0  0  0  0  0  0  0
   12.3098  -16.9195   21.0365 C   0  0  0  0  0  0  0  0  0  0  0  0
   10.8648  -16.5093   20.8924 C   0  0  2  0  0  0  0  0  0  0  0  0
   10.6130  -15.7747   19.6841 N   0  0  0  0  0  0  0  0  0  0  0  0
   10.4407  -15.7437   22.1063 C   0  0  0  0  0  0  0  0  0  0  0  0
   11.1255  -14.7262   22.3736 O   0  0  0  0  0  0  0  0  0  0  0  0
    7.2360  -13.9230   23.0167 C   0  0  0  0  0  0  0  0  0  0  0  0
    7.5319  -14.9367   24.0787 C   0  0  1  0  0  0  0  0  0  0  0  0
    6.6536  -15.9970   23.9032 O   0  0  0  0  0  0  0  0  0  0  0  0
    8.9611  -15.3985   24.1152 C   0  0  2  0  0  0  0  0  0  0  0  0
    9.3392  -16.1222   22.9199 N   0  0  0  0  0  0  0  0  0  0  0  0
    9.3170  -16.1288   25.3473 C   0  0  0  0  0  0  0  0  0  0  0  0
    9.1034  -15.4786   26.5583 O   0  0  0  0  0  0  0  0  0  0  0  0
    9.7900  -17.2708   25.3898 O   0  0  0  0  0  0  0  0  0  0  0  0
  2  1  1  1
  2  4  1  0
  3  2  1  0
  4  6  1  0
  4  5  1  6
  6 13  1  0
  6  7  2  0
  8  9  1  0
  9 11  1  0
 10  9  2  0
 12 11  1  1
 12 14  1  0
 13 12  1  0
 14 20  1  0
 14 15  2  0
 17 16  1  6
 17 19  1  0
 17 18  1  0
 19 21  1  0
 19 20  1  6
 21 22  1  0
 23 21  2  0
M  END
$$$$
