TNT.pdb
     RDKit          3D

 23 22  0  0  1  0  0  0  0  0999 V2000
    8.6701  -12.3859   20.3900 C   0  0  0  0  0  0  0  0  0  0  0  0
    7.7932  -13.3205   19.5476 C   0  0  1  0  0  0  0  0  0  0  0  0
    7.9609  -12.8600   18.2299 O   0  0  0  0  0  0  0  0  0  0  0  0
    8.3666  -14.7227   19.6112 C   0  0  2  0  0  0  0  0  0  0  0  0
    7.5509  -15.5536   18.7445 N   0  0  0  0  0  0  0  0  0  0  0  0
    8.1635  -15.1852   21.0334 C   0  0  0  0  0  0  0  0  0  0  0  0
    7.0165  -15.4019   21.4917 O   0  0  0  0  0  0  0  0  0  0  0  0
    8.8011  -18.5611   22.1130 N   0  0  0  0  0  0  0  0  0  0  0  0
   10.0752  -18.1728   22.5864 C   0  0  0  0  0  0  0  0  0  0  0  0
   11.0727  -18.8301   22.2023 O   0  0  0  0  0  0  0  0  0  0  0  0
   10.1631  -17.0211   23.5022 C   0  0  0  0  0  0  0  0  0  0  0  0
    9.1239  -15.9674   23.2079 C   0  0  2  0  0  0  0  0  0  0  0  0
    9.2714  -15.3904   21.9008 N   0  0  0  0  0  0  0  0  0  0  0  0
    9.1529  -14.9252   24.2814 C   0  0  0  0  0  0  0  0  0  0  0  0
   10.2032  -14.2409   24.3459 O   0  0  0  0  0  0  0  0  0  0  0  0
    6.3706  -12.1361   25.4082 C   0  0  0  0  0  0  0  0  0  0  0  0
    6.8077  -13.0680   26.4960 C   0  0  1  0  0  0  0  0  0  0  0  0
    5.7954  -13.9989   26.6832 O   0  0  0  0  0  0  0  0  0  0  0  0
    8.1338  -13.7302   26.2505 C   0  0  2  0  0  0  0  0  0  0  0  0
    8.0761  -14.7044   25.1814 N   0  0  0  0  0  0  0  0  0  0  0  0
    8.7593  -14.2754   27.4709 C   0  0  0  0  0  0  0  0  0  0  0  0
    8.9146  -13.4104   28.5492 O   0  0  0  0  0  0  0  0  0  0  0  0
    9.1568  -15.4381   27.6119 O   0  0  0  0  0  0  0  0  0  0  0  0
  2  1  1  1
  2  4  1  0
  3  2  1  0
  4  6  1  0
  4  5  1  6
  6 13  1  0
  6  7  2  0
  8  9  1  0
  9 11  1  0
 10  9  2  0
 12 11  1  1
 12 14  1  0
 13 12  1  0
 14 20  1  0
 14 15  2  0
 17 16  1  6
 17 19  1  0
 17 18  1  0
 19 21  1  0
 19 20  1  6
 21 22  1  0
 23 21  2  0
M  END
$$$$
