TNT.pdb
     RDKit          3D

 23 22  0  0  1  0  0  0  0  0999 V2000
    8.4745  -12.5417   20.2108 C   0  0  0  0  0  0  0  0  0  0  0  0
    7.8249  -13.4480   19.1579 C   0  0  1  0  0  0  0  0  0  0  0  0
    8.2819  -12.9371   17.9304 O   0  0  0  0  0  0  0  0  0  0  0  0
    8.3877  -14.8489   19.3002 C   0  0  2  0  0  0  0  0  0  0  0  0
    7.7439  -15.6685   18.2899 N   0  0  0  0  0  0  0  0  0  0  0  0
    7.9391  -15.3355   20.6567 C   0  0  0  0  0  0  0  0  0  0  0  0
    6.7298  -15.5571   20.9033 O   0  0  0  0  0  0  0  0  0  0  0  0
   11.1485  -16.3637   22.4727 N   0  0  0  0  0  0  0  0  0  0  0  0
   10.4830  -17.5177   22.9452 C   0  0  0  0  0  0  0  0  0  0  0  0
   11.1417  -18.5816   23.0393 O   0  0  0  0  0  0  0  0  0  0  0  0
    9.0564  -17.4099   23.3007 C   0  0  0  0  0  0  0  0  0  0  0  0
    8.4850  -16.0477   22.9927 C   0  0  2  0  0  0  0  0  0  0  0  0
    8.8783  -15.5587   21.7006 N   0  0  0  0  0  0  0  0  0  0  0  0
    8.8560  -15.0932   24.0840 C   0  0  0  0  0  0  0  0  0  0  0  0
    9.9462  -14.4902   23.9310 O   0  0  0  0  0  0  0  0  0  0  0  0
    5.9599  -13.2091   26.5859 C   0  0  0  0  0  0  0  0  0  0  0  0
    7.3577  -12.7630   26.2858 C   0  0  1  0  0  0  0  0  0  0  0  0
    7.7020  -11.8007   27.2248 O   0  0  0  0  0  0  0  0  0  0  0  0
    8.3665  -13.8752   26.2336 C   0  0  2  0  0  0  0  0  0  0  0  0
    8.0455  -14.8663   25.2286 N   0  0  0  0  0  0  0  0  0  0  0  0
    8.6476  -14.4830   27.5487 C   0  0  0  0  0  0  0  0  0  0  0  0
    9.1427  -13.6476   28.5447 O   0  0  0  0  0  0  0  0  0  0  0  0
    8.4792  -15.6741   27.8362 O   0  0  0  0  0  0  0  0  0  0  0  0
  2  1  1  1
  2  4  1  0
  3  2  1  0
  4  6  1  0
  4  5  1  6
  6 13  1  0
  6  7  2  0
  8  9  1  0
  9 11  1  0
 10  9  2  0
 12 11  1  1
 12 14  1  0
 13 12  1  0
 14 20  1  0
 14 15  2  0
 17 16  1  1
 17 19  1  0
 17 18  1  0
 19 21  1  0
 19 20  1  6
 21 22  1  0
 23 21  2  0
M  END
$$$$
