TNT.pdb
     RDKit          3D

 23 22  0  0  1  0  0  0  0  0999 V2000
    9.4519  -12.7176   18.1569 C   0  0  0  0  0  0  0  0  0  0  0  0
    9.1200  -13.2999   19.5363 C   0  0  1  0  0  0  0  0  0  0  0  0
    8.6092  -12.2084   20.2603 O   0  0  0  0  0  0  0  0  0  0  0  0
    7.9965  -14.3072   19.3874 C   0  0  2  0  0  0  0  0  0  0  0  0
    6.8258  -13.5732   18.9428 N   0  0  0  0  0  0  0  0  0  0  0  0
    7.7251  -14.8279   20.7779 C   0  0  0  0  0  0  0  0  0  0  0  0
    6.7102  -14.4706   21.4219 O   0  0  0  0  0  0  0  0  0  0  0  0
   11.1753  -17.5513   21.6856 N   0  0  0  0  0  0  0  0  0  0  0  0
   10.4553  -17.6003   22.9010 C   0  0  0  0  0  0  0  0  0  0  0  0
   11.1054  -17.5610   23.9736 O   0  0  0  0  0  0  0  0  0  0  0  0
    8.9853  -17.6943   22.8434 C   0  0  0  0  0  0  0  0  0  0  0  0
    8.3259  -16.3479   22.6728 C   0  0  2  0  0  0  0  0  0  0  0  0
    8.6158  -15.7435   21.4024 N   0  0  0  0  0  0  0  0  0  0  0  0
    8.7100  -15.4568   23.8121 C   0  0  0  0  0  0  0  0  0  0  0  0
    9.8427  -14.9226   23.7260 O   0  0  0  0  0  0  0  0  0  0  0  0
    6.8262  -12.3080   25.3607 C   0  0  0  0  0  0  0  0  0  0  0  0
    7.0978  -13.3830   26.3675 C   0  0  1  0  0  0  0  0  0  0  0  0
    5.9119  -14.0739   26.5742 O   0  0  0  0  0  0  0  0  0  0  0  0
    8.2234  -14.3077   25.9999 C   0  0  2  0  0  0  0  0  0  0  0  0
    7.8670  -15.2148   24.9297 N   0  0  0  0  0  0  0  0  0  0  0  0
    8.8148  -15.0105   27.1551 C   0  0  0  0  0  0  0  0  0  0  0  0
    8.9276  -16.3943   27.0704 O   0  0  0  0  0  0  0  0  0  0  0  0
    9.2172  -14.4688   28.1917 O   0  0  0  0  0  0  0  0  0  0  0  0
  2  1  1  6
  2  4  1  0
  3  2  1  0
  4  6  1  0
  4  5  1  1
  6 13  1  0
  6  7  2  0
  8  9  1  0
  9 11  1  0
 10  9  2  0
 12 11  1  1
 12 14  1  0
 13 12  1  0
 14 20  1  0
 14 15  2  0
 17 16  1  6
 17 19  1  0
 17 18  1  0
 19 21  1  0
 19 20  1  6
 21 22  1  0
 23 21  2  0
M  END
$$$$
