TNT.pdb
     RDKit          3D

 23 22  0  0  1  0  0  0  0  0999 V2000
    8.9023  -12.4267   19.3183 C   0  0  0  0  0  0  0  0  0  0  0  0
    8.2037  -13.4825   18.4528 C   0  0  1  0  0  0  0  0  0  0  0  0
    7.3213  -12.7422   17.6468 O   0  0  0  0  0  0  0  0  0  0  0  0
    9.2270  -14.1198   17.5330 C   0  0  2  0  0  0  0  0  0  0  0  0
    8.4961  -14.9689   16.6102 N   0  0  0  0  0  0  0  0  0  0  0  0
   10.0763  -15.0037   18.4135 C   0  0  0  0  0  0  0  0  0  0  0  0
    9.6537  -16.1081   18.8310 O   0  0  0  0  0  0  0  0  0  0  0  0
   14.9160  -14.1541   17.7305 N   0  0  0  0  0  0  0  0  0  0  0  0
   14.2369  -15.2296   18.3471 C   0  0  0  0  0  0  0  0  0  0  0  0
   14.1741  -16.3197   17.7288 O   0  0  0  0  0  0  0  0  0  0  0  0
   13.6413  -15.0137   19.6781 C   0  0  0  0  0  0  0  0  0  0  0  0
   12.1769  -15.3749   19.7220 C   0  0  2  0  0  0  0  0  0  0  0  0
   11.3872  -14.6094   18.7979 N   0  0  0  0  0  0  0  0  0  0  0  0
   11.6728  -15.2431   21.1248 C   0  0  0  0  0  0  0  0  0  0  0  0
   12.1666  -14.3024   21.7934 O   0  0  0  0  0  0  0  0  0  0  0  0
    8.2708  -14.4546   22.2503 C   0  0  0  0  0  0  0  0  0  0  0  0
    8.6835  -15.6757   23.0131 C   0  0  1  0  0  0  0  0  0  0  0  0
    7.9774  -16.7525   22.4953 O   0  0  0  0  0  0  0  0  0  0  0  0
   10.1637  -15.9326   23.0199 C   0  0  2  0  0  0  0  0  0  0  0  0
   10.7000  -16.1123   21.6874 N   0  0  0  0  0  0  0  0  0  0  0  0
   10.5739  -17.0126   23.9382 C   0  0  0  0  0  0  0  0  0  0  0  0
   11.3406  -18.0446   23.4071 O   0  0  0  0  0  0  0  0  0  0  0  0
   10.2907  -17.0743   25.1406 O   0  0  0  0  0  0  0  0  0  0  0  0
  2  1  1  1
  2  4  1  0
  3  2  1  0
  4  6  1  0
  4  5  1  6
  6 13  1  0
  6  7  2  0
  8  9  1  0
  9 11  1  0
 10  9  2  0
 12 11  1  1
 12 14  1  0
 13 12  1  0
 14 20  1  0
 14 15  2  0
 17 16  1  6
 17 19  1  0
 17 18  1  0
 19 21  1  0
 19 20  1  6
 21 22  1  0
 23 21  2  0
M  END
$$$$
