TNT.pdb
     RDKit          3D

 23 22  0  0  1  0  0  0  0  0999 V2000
    7.4562  -12.1340   18.8998 C   0  0  0  0  0  0  0  0  0  0  0  0
    8.6235  -13.0674   19.2435 C   0  0  1  0  0  0  0  0  0  0  0  0
    8.0296  -14.1117   19.9737 O   0  0  0  0  0  0  0  0  0  0  0  0
    9.1676  -13.6669   17.9614 C   0  0  2  0  0  0  0  0  0  0  0  0
    8.1003  -14.4588   17.3779 N   0  0  0  0  0  0  0  0  0  0  0  0
   10.2724  -14.6046   18.3833 C   0  0  0  0  0  0  0  0  0  0  0  0
   10.0718  -15.8364   18.5054 O   0  0  0  0  0  0  0  0  0  0  0  0
   15.1059  -16.6809   18.5814 N   0  0  0  0  0  0  0  0  0  0  0  0
   15.1038  -15.3576   19.0782 C   0  0  0  0  0  0  0  0  0  0  0  0
   16.0369  -15.0133   19.8433 O   0  0  0  0  0  0  0  0  0  0  0  0
   14.0099  -14.4567   18.6724 C   0  0  0  0  0  0  0  0  0  0  0  0
   12.6511  -14.9852   19.0611 C   0  0  2  0  0  0  0  0  0  0  0  0
   11.5802  -14.1177   18.6562 N   0  0  0  0  0  0  0  0  0  0  0  0
   12.6227  -15.2524   20.5333 C   0  0  0  0  0  0  0  0  0  0  0  0
   13.2416  -14.4262   21.2474 O   0  0  0  0  0  0  0  0  0  0  0  0
    9.5195  -15.6667   22.8121 C   0  0  0  0  0  0  0  0  0  0  0  0
   10.4507  -16.8252   22.9969 C   0  0  1  0  0  0  0  0  0  0  0  0
    9.8923  -17.9196   22.3513 O   0  0  0  0  0  0  0  0  0  0  0  0
   11.8588  -16.5687   22.5402 C   0  0  2  0  0  0  0  0  0  0  0  0
   11.9474  -16.3611   21.1103 N   0  0  0  0  0  0  0  0  0  0  0  0
   12.8299  -17.5705   23.0211 C   0  0  0  0  0  0  0  0  0  0  0  0
   12.9296  -17.7533   24.3965 O   0  0  0  0  0  0  0  0  0  0  0  0
   13.5620  -18.2596   22.3007 O   0  0  0  0  0  0  0  0  0  0  0  0
  2  1  1  6
  2  4  1  0
  3  2  1  0
  4  6  1  0
  4  5  1  1
  6 13  1  0
  6  7  2  0
  8  9  1  0
  9 11  1  0
 10  9  2  0
 12 11  1  1
 12 14  1  0
 13 12  1  0
 14 20  1  0
 14 15  2  0
 17 16  1  6
 17 19  1  0
 17 18  1  0
 19 21  1  0
 19 20  1  6
 21 22  1  0
 23 21  2  0
M  END
$$$$
