TNT.pdb
     RDKit          3D

 23 22  0  0  1  0  0  0  0  0999 V2000
    8.6738  -12.3984   18.2251 C   0  0  0  0  0  0  0  0  0  0  0  0
    8.1433  -13.0584   19.5038 C   0  0  1  0  0  0  0  0  0  0  0  0
    6.7450  -12.9886   19.3761 O   0  0  0  0  0  0  0  0  0  0  0  0
    8.5239  -14.5262   19.4939 C   0  0  2  0  0  0  0  0  0  0  0  0
    7.7654  -15.1531   18.4269 N   0  0  0  0  0  0  0  0  0  0  0  0
    8.0368  -15.0854   20.8085 C   0  0  0  0  0  0  0  0  0  0  0  0
    6.8304  -15.3775   20.9865 O   0  0  0  0  0  0  0  0  0  0  0  0
   11.4552  -17.3981   22.7395 N   0  0  0  0  0  0  0  0  0  0  0  0
   10.4988  -17.1943   23.7602 C   0  0  0  0  0  0  0  0  0  0  0  0
   10.9149  -16.9944   24.9270 O   0  0  0  0  0  0  0  0  0  0  0  0
    9.0696  -17.2274   23.4005 C   0  0  0  0  0  0  0  0  0  0  0  0
    8.5057  -15.8515   23.1442 C   0  0  2  0  0  0  0  0  0  0  0  0
    8.9352  -15.2991   21.8897 N   0  0  0  0  0  0  0  0  0  0  0  0
    8.8442  -14.9525   24.2916 C   0  0  0  0  0  0  0  0  0  0  0  0
    9.9279  -14.3271   24.1905 O   0  0  0  0  0  0  0  0  0  0  0  0
    6.9816  -11.8693   25.8374 C   0  0  0  0  0  0  0  0  0  0  0  0
    7.1868  -12.9655   26.8371 C   0  0  1  0  0  0  0  0  0  0  0  0
    5.9859  -13.6500   26.9619 O   0  0  0  0  0  0  0  0  0  0  0  0
    8.3248  -13.8927   26.5167 C   0  0  2  0  0  0  0  0  0  0  0  0
    8.0114  -14.7989   25.4323 N   0  0  0  0  0  0  0  0  0  0  0  0
    8.8657  -14.5969   27.6955 C   0  0  0  0  0  0  0  0  0  0  0  0
    9.3159  -13.8152   28.7544 O   0  0  0  0  0  0  0  0  0  0  0  0
    8.9516  -15.8247   27.8173 O   0  0  0  0  0  0  0  0  0  0  0  0
  2  1  1  6
  2  4  1  0
  3  2  1  0
  4  6  1  0
  4  5  1  6
  6 13  1  0
  6  7  2  0
  8  9  1  0
  9 11  1  0
 10  9  2  0
 12 11  1  1
 12 14  1  0
 13 12  1  0
 14 20  1  0
 14 15  2  0
 17 16  1  6
 17 19  1  0
 17 18  1  0
 19 21  1  0
 19 20  1  6
 21 22  1  0
 23 21  2  0
M  END
$$$$
