KTW.pdb
     RDKit          3D

 31 32  0  0  1  0  0  0  0  0999 V2000
   28.4874  -19.9085  -16.1311 N   0  0  0  0  0  0  0  0  0  0  0  0
   28.5582  -18.9108  -15.1138 C   0  0  1  0  0  0  0  0  0  0  0  0
   28.8783  -17.5544  -15.6866 C   0  0  0  0  0  0  0  0  0  0  0  0
   29.3716  -17.6285  -17.1011 C   0  0  0  0  0  0  0  0  0  0  0  0
   28.3998  -17.1178  -18.1151 C   0  0  0  0  0  0  0  0  0  0  0  0
   28.9492  -17.0531  -19.5176 C   0  0  0  0  0  0  0  0  0  0  0  0
   27.9370  -16.6081  -20.4553 N   0  0  0  0  0  0  0  0  0  0  0  0
   27.3056  -18.8952  -14.3158 C   0  0  0  0  0  0  0  0  0  0  0  0
   26.2588  -18.3321  -14.7346 O   0  0  0  0  0  0  0  0  0  0  0  0
   24.7274  -20.0785  -14.3163 C   0  0  0  0  0  0  0  0  0  0  0  0
   25.1509  -20.6456  -12.9812 C   0  0  1  0  0  0  0  0  0  0  0  0
   25.7648  -21.8703  -13.2321 O   0  0  0  0  0  0  0  0  0  0  0  0
   26.1031  -19.7364  -12.2528 C   0  0  2  0  0  0  0  0  0  0  0  0
   27.2789  -19.5346  -13.0347 N   0  0  0  0  0  0  0  0  0  0  0  0
   26.4255  -20.4139  -10.9436 C   0  0  0  0  0  0  0  0  0  0  0  0
   27.6199  -20.6942  -10.6835 O   0  0  0  0  0  0  0  0  0  0  0  0
   25.4114  -20.7372  -10.0091 N   0  0  0  0  0  0  0  0  0  0  0  0
   25.7350  -21.1061   -8.6390 C   0  0  1  0  0  0  0  0  0  0  0  0
   26.7157  -20.1469   -8.0903 C   0  0  0  0  0  0  0  0  0  0  0  0
   26.8655  -20.1060   -6.6423 C   0  0  0  0  0  0  0  0  0  0  0  0
   25.8253  -20.1247   -5.6999 C   0  0  0  0  0  0  0  0  0  0  0  0
   26.3966  -20.0455   -4.5009 N   0  0  0  0  0  0  0  0  0  0  0  0
   27.7332  -19.9779   -4.6118 C   0  0  0  0  0  0  0  0  0  0  0  0
   28.7343  -19.8972   -3.6586 C   0  0  0  0  0  0  0  0  0  0  0  0
   30.0681  -19.8516   -3.9969 C   0  0  0  0  0  0  0  0  0  0  0  0
   30.3897  -19.8891   -5.3422 C   0  0  0  0  0  0  0  0  0  0  0  0
   29.4132  -19.9685   -6.3029 C   0  0  0  0  0  0  0  0  0  0  0  0
   28.0744  -20.0140   -5.9686 C   0  0  0  0  0  0  0  0  0  0  0  0
   24.5332  -21.4007   -7.8746 C   0  0  0  0  0  0  0  0  0  0  0  0
   23.3219  -20.7976   -8.2861 O   0  0  0  0  0  0  0  0  0  0  0  0
   24.4257  -22.1362   -6.8756 O   0  0  0  0  0  0  0  0  0  0  0  0
  2  1  1  6
  3  2  1  0
  3  4  1  0
  5  4  1  0
  6  5  1  0
  7  6  1  0
  8  9  2  0
  8  2  1  0
 11 10  1  6
 11 13  1  0
 12 11  1  0
 13 14  1  6
 14  8  1  0
 15 13  1  0
 15 17  1  0
 16 15  2  0
 18 17  1  0
 18 29  1  0
 18 19  1  1
 19 20  1  0
 20 28  1  0
 21 20  2  0
 21 22  1  0
 22 23  1  0
 23 24  2  0
 24 25  1  0
 26 25  2  0
 27 26  1  0
 28 27  2  0
 28 23  1  0
 29 30  1  0
 31 29  2  0
M  END
$$$$
