KTW.pdb
     RDKit          3D

 31 32  0  0  1  0  0  0  0  0999 V2000
   24.5323  -19.3524  -16.4375 N   0  0  0  0  0  0  0  0  0  0  0  0
   24.4765  -18.5663  -15.2482 C   0  0  1  0  0  0  0  0  0  0  0  0
   23.5742  -17.3710  -15.4136 C   0  0  0  0  0  0  0  0  0  0  0  0
   23.9503  -16.5244  -16.5933 C   0  0  0  0  0  0  0  0  0  0  0  0
   22.8113  -16.2105  -17.5084 C   0  0  0  0  0  0  0  0  0  0  0  0
   23.1839  -15.3362  -18.6788 C   0  0  0  0  0  0  0  0  0  0  0  0
   24.6100  -15.0762  -18.7038 N   0  0  0  0  0  0  0  0  0  0  0  0
   24.0781  -19.4069  -14.0903 C   0  0  0  0  0  0  0  0  0  0  0  0
   22.9930  -20.0476  -14.0773 O   0  0  0  0  0  0  0  0  0  0  0  0
   24.5469  -22.1018  -14.0352 C   0  0  0  0  0  0  0  0  0  0  0  0
   25.4351  -21.8441  -12.8402 C   0  0  1  0  0  0  0  0  0  0  0  0
   26.7325  -21.6837  -13.3205 O   0  0  0  0  0  0  0  0  0  0  0  0
   25.0181  -20.6175  -12.0751 C   0  0  2  0  0  0  0  0  0  0  0  0
   24.9450  -19.4962  -12.9538 N   0  0  0  0  0  0  0  0  0  0  0  0
   26.0592  -20.4065  -11.0034 C   0  0  0  0  0  0  0  0  0  0  0  0
   26.8478  -19.4368  -11.1061 O   0  0  0  0  0  0  0  0  0  0  0  0
   26.1619  -21.2771   -9.8910 N   0  0  0  0  0  0  0  0  0  0  0  0
   26.8373  -20.8666   -8.6689 C   0  0  1  0  0  0  0  0  0  0  0  0
   26.3147  -19.5544   -8.2356 C   0  0  0  0  0  0  0  0  0  0  0  0
   27.0680  -18.8456   -7.2104 C   0  0  0  0  0  0  0  0  0  0  0  0
   27.1886  -17.4528   -7.0838 C   0  0  0  0  0  0  0  0  0  0  0  0
   27.9807  -17.2330   -6.0376 N   0  0  0  0  0  0  0  0  0  0  0  0
   28.3753  -18.3915   -5.4850 C   0  0  0  0  0  0  0  0  0  0  0  0
   29.1793  -18.6645   -4.3912 C   0  0  0  0  0  0  0  0  0  0  0  0
   29.4487  -19.9508   -3.9808 C   0  0  0  0  0  0  0  0  0  0  0  0
   28.8836  -20.9859   -4.7044 C   0  0  0  0  0  0  0  0  0  0  0  0
   28.0843  -20.7376   -5.7918 C   0  0  0  0  0  0  0  0  0  0  0  0
   27.8118  -19.4494   -6.2074 C   0  0  0  0  0  0  0  0  0  0  0  0
   26.8939  -21.9558   -7.7066 C   0  0  0  0  0  0  0  0  0  0  0  0
   28.1679  -22.3947   -7.2768 O   0  0  0  0  0  0  0  0  0  0  0  0
   25.9403  -22.5717   -7.1948 O   0  0  0  0  0  0  0  0  0  0  0  0
  2  1  1  6
  3  2  1  0
  3  4  1  0
  5  4  1  0
  6  5  1  0
  7  6  1  0
  8  9  2  0
  8  2  1  0
 11 10  1  6
 11 13  1  0
 12 11  1  0
 13 14  1  6
 14  8  1  0
 15 13  1  0
 15 17  1  0
 16 15  2  0
 18 17  1  0
 18 29  1  0
 18 19  1  1
 19 20  1  0
 20 28  1  0
 21 20  2  0
 21 22  1  0
 22 23  1  0
 23 24  2  0
 24 25  1  0
 26 25  2  0
 27 26  1  0
 28 27  2  0
 28 23  1  0
 29 30  1  0
 31 29  2  0
M  END
$$$$
