KTW.pdb
     RDKit          3D

 31 32  0  0  1  0  0  0  0  0999 V2000
   28.0214  -23.6423  -16.6449 N   0  0  0  0  0  0  0  0  0  0  0  0
   29.0289  -22.8234  -16.0535 C   0  0  1  0  0  0  0  0  0  0  0  0
   30.0607  -22.3942  -17.0643 C   0  0  0  0  0  0  0  0  0  0  0  0
   30.6591  -23.5537  -17.8041 C   0  0  0  0  0  0  0  0  0  0  0  0
   31.8656  -24.1414  -17.1466 C   0  0  0  0  0  0  0  0  0  0  0  0
   32.4321  -25.3431  -17.8593 C   0  0  0  0  0  0  0  0  0  0  0  0
   33.6160  -25.8399  -17.1859 N   0  0  0  0  0  0  0  0  0  0  0  0
   28.4124  -21.6624  -15.3620 C   0  0  0  0  0  0  0  0  0  0  0  0
   28.8091  -20.4832  -15.5625 O   0  0  0  0  0  0  0  0  0  0  0  0
   25.4342  -20.0311  -15.7049 C   0  0  0  0  0  0  0  0  0  0  0  0
   25.3336  -20.5669  -14.2956 C   0  0  1  0  0  0  0  0  0  0  0  0
   24.5843  -21.7393  -14.3551 O   0  0  0  0  0  0  0  0  0  0  0  0
   26.6844  -20.8535  -13.6979 C   0  0  2  0  0  0  0  0  0  0  0  0
   27.3381  -21.8810  -14.4405 N   0  0  0  0  0  0  0  0  0  0  0  0
   26.4398  -21.2800  -12.2712 C   0  0  0  0  0  0  0  0  0  0  0  0
   27.1637  -22.1746  -11.7728 O   0  0  0  0  0  0  0  0  0  0  0  0
   25.4150  -20.6929  -11.4895 N   0  0  0  0  0  0  0  0  0  0  0  0
   25.3018  -20.9635  -10.0639 C   0  0  1  0  0  0  0  0  0  0  0  0
   26.6136  -20.7518   -9.4180 C   0  0  0  0  0  0  0  0  0  0  0  0
   26.6098  -20.4306   -7.9974 C   0  0  0  0  0  0  0  0  0  0  0  0
   25.4752  -20.2539   -7.1901 C   0  0  0  0  0  0  0  0  0  0  0  0
   25.9180  -19.9483   -5.9732 N   0  0  0  0  0  0  0  0  0  0  0  0
   27.2602  -19.9177   -5.9467 C   0  0  0  0  0  0  0  0  0  0  0  0
   28.1564  -19.6630   -4.9222 C   0  0  0  0  0  0  0  0  0  0  0  0
   29.5193  -19.6984   -5.1135 C   0  0  0  0  0  0  0  0  0  0  0  0
   29.9808  -20.0012   -6.3822 C   0  0  0  0  0  0  0  0  0  0  0  0
   29.1100  -20.2563   -7.4116 C   0  0  0  0  0  0  0  0  0  0  0  0
   27.7425  -20.2215   -7.2248 C   0  0  0  0  0  0  0  0  0  0  0  0
   24.1254  -20.3227   -9.4976 C   0  0  0  0  0  0  0  0  0  0  0  0
   23.4953  -20.9486   -8.3968 O   0  0  0  0  0  0  0  0  0  0  0  0
   23.5829  -19.2635   -9.8640 O   0  0  0  0  0  0  0  0  0  0  0  0
  2  1  1  6
  3  2  1  0
  3  4  1  0
  5  4  1  0
  6  5  1  0
  7  6  1  0
  8  9  2  0
  8  2  1  0
 11 10  1  6
 11 13  1  0
 12 11  1  0
 13 14  1  6
 14  8  1  0
 15 13  1  0
 15 17  1  0
 16 15  2  0
 18 17  1  0
 18 29  1  0
 18 19  1  1
 19 20  1  0
 20 28  1  0
 21 20  2  0
 21 22  1  0
 22 23  1  0
 23 24  2  0
 24 25  1  0
 26 25  2  0
 27 26  1  0
 28 27  2  0
 28 23  1  0
 29 30  1  0
 31 29  2  0
M  END
$$$$
