KTW.pdb
     RDKit          3D

 31 32  0  0  1  0  0  0  0  0999 V2000
   18.3189  -13.7574  -18.0131 N   0  0  0  0  0  0  0  0  0  0  0  0
   19.4458  -13.0390  -17.5138 C   0  0  1  0  0  0  0  0  0  0  0  0
   20.7199  -13.4550  -18.2023 C   0  0  0  0  0  0  0  0  0  0  0  0
   20.5993  -14.7872  -18.8809 C   0  0  0  0  0  0  0  0  0  0  0  0
   21.8453  -15.2357  -19.5733 C   0  0  0  0  0  0  0  0  0  0  0  0
   21.7200  -16.5691  -20.2655 C   0  0  0  0  0  0  0  0  0  0  0  0
   22.9644  -16.9429  -20.9089 N   0  0  0  0  0  0  0  0  0  0  0  0
   19.2126  -11.5756  -17.6139 C   0  0  0  0  0  0  0  0  0  0  0  0
   18.9616  -11.0173  -18.7155 O   0  0  0  0  0  0  0  0  0  0  0  0
   16.6078   -9.5887  -15.8999 C   0  0  0  0  0  0  0  0  0  0  0  0
   17.9376   -9.0409  -15.4364 C   0  0  1  0  0  0  0  0  0  0  0  0
   18.2052   -9.6103  -14.1940 O   0  0  0  0  0  0  0  0  0  0  0  0
   19.0511   -9.3619  -16.3961 C   0  0  2  0  0  0  0  0  0  0  0  0
   19.2737  -10.7704  -16.4312 N   0  0  0  0  0  0  0  0  0  0  0  0
   20.2712   -8.6268  -15.8980 C   0  0  0  0  0  0  0  0  0  0  0  0
   21.3782   -9.2163  -15.9015 O   0  0  0  0  0  0  0  0  0  0  0  0
   20.1905   -7.2926  -15.4297 N   0  0  0  0  0  0  0  0  0  0  0  0
   21.3873   -6.5324  -15.1011 C   0  0  1  0  0  0  0  0  0  0  0  0
   22.3787   -6.6835  -16.1859 C   0  0  0  0  0  0  0  0  0  0  0  0
   23.5133   -5.7705  -16.1801 C   0  0  0  0  0  0  0  0  0  0  0  0
   24.0194   -5.0835  -15.0655 C   0  0  0  0  0  0  0  0  0  0  0  0
   25.0340   -4.3426  -15.5037 N   0  0  0  0  0  0  0  0  0  0  0  0
   25.2122   -4.5092  -16.8242 C   0  0  0  0  0  0  0  0  0  0  0  0
   26.1328   -3.9679  -17.7056 C   0  0  0  0  0  0  0  0  0  0  0  0
   26.1468   -4.2923  -19.0435 C   0  0  0  0  0  0  0  0  0  0  0  0
   25.1974   -5.1920  -19.4947 C   0  0  0  0  0  0  0  0  0  0  0  0
   24.2757   -5.7397  -18.6383 C   0  0  0  0  0  0  0  0  0  0  0  0
   24.2575   -5.4171  -17.2960 C   0  0  0  0  0  0  0  0  0  0  0  0
   21.0515   -5.1967  -14.6337 C   0  0  0  0  0  0  0  0  0  0  0  0
   21.8529   -4.6302  -13.6152 O   0  0  0  0  0  0  0  0  0  0  0  0
   20.1241   -4.4629  -15.0235 O   0  0  0  0  0  0  0  0  0  0  0  0
  2  1  1  6
  3  2  1  0
  3  4  1  0
  5  4  1  0
  6  5  1  0
  7  6  1  0
  8  9  2  0
  8  2  1  0
 11 10  1  6
 11 13  1  0
 12 11  1  0
 13 14  1  1
 14  8  1  0
 15 13  1  0
 15 17  1  0
 16 15  2  0
 18 17  1  0
 18 29  1  0
 18 19  1  6
 19 20  1  0
 20 28  1  0
 21 20  2  0
 21 22  1  0
 22 23  1  0
 23 24  2  0
 24 25  1  0
 26 25  2  0
 27 26  1  0
 28 27  2  0
 28 23  1  0
 29 30  1  0
 31 29  2  0
M  END
$$$$
