KTW.pdb
     RDKit          3D

 31 32  0  0  1  0  0  0  0  0999 V2000
   22.2738  -20.1424  -16.2329 N   0  0  0  0  0  0  0  0  0  0  0  0
   22.5636  -19.2765  -15.1367 C   0  0  1  0  0  0  0  0  0  0  0  0
   21.4687  -18.2633  -14.9241 C   0  0  0  0  0  0  0  0  0  0  0  0
   21.6241  -17.0553  -15.7993 C   0  0  0  0  0  0  0  0  0  0  0  0
   20.5747  -16.0115  -15.5928 C   0  0  0  0  0  0  0  0  0  0  0  0
   19.3314  -16.2152  -16.4209 C   0  0  0  0  0  0  0  0  0  0  0  0
   18.3325  -15.2083  -16.1201 N   0  0  0  0  0  0  0  0  0  0  0  0
   22.8340  -20.0679  -13.9092 C   0  0  0  0  0  0  0  0  0  0  0  0
   21.9036  -20.4690  -13.1598 O   0  0  0  0  0  0  0  0  0  0  0  0
   24.3249  -23.3061  -13.8191 C   0  0  0  0  0  0  0  0  0  0  0  0
   25.2447  -22.4597  -12.9700 C   0  0  1  0  0  0  0  0  0  0  0  0
   26.3349  -22.1148  -13.7650 O   0  0  0  0  0  0  0  0  0  0  0  0
   24.5673  -21.2151  -12.4639 C   0  0  2  0  0  0  0  0  0  0  0  0
   24.1859  -20.3871  -13.5609 N   0  0  0  0  0  0  0  0  0  0  0  0
   25.5643  -20.5174  -11.5717 C   0  0  0  0  0  0  0  0  0  0  0  0
   26.2022  -19.5373  -12.0249 O   0  0  0  0  0  0  0  0  0  0  0  0
   25.7919  -20.9454  -10.2409 N   0  0  0  0  0  0  0  0  0  0  0  0
   26.8413  -20.3531   -9.4247 C   0  0  1  0  0  0  0  0  0  0  0  0
   26.3966  -20.2980   -8.0168 C   0  0  0  0  0  0  0  0  0  0  0  0
   27.2994  -19.6739   -7.0595 C   0  0  0  0  0  0  0  0  0  0  0  0
   27.5765  -18.3019   -6.9536 C   0  0  0  0  0  0  0  0  0  0  0  0
   28.4675  -18.1682   -5.9745 N   0  0  0  0  0  0  0  0  0  0  0  0
   28.7795  -19.3624   -5.4458 C   0  0  0  0  0  0  0  0  0  0  0  0
   29.6339  -19.7200   -4.4164 C   0  0  0  0  0  0  0  0  0  0  0  0
   29.7970  -21.0278   -4.0185 C   0  0  0  0  0  0  0  0  0  0  0  0
   29.0700  -21.9966   -4.6875 C   0  0  0  0  0  0  0  0  0  0  0  0
   28.2183  -21.6641   -5.7105 C   0  0  0  0  0  0  0  0  0  0  0  0
   28.0518  -20.3540   -6.1135 C   0  0  0  0  0  0  0  0  0  0  0  0
   28.1390  -20.9334   -9.7320 C   0  0  0  0  0  0  0  0  0  0  0  0
   29.2888  -20.3045   -9.2000 O   0  0  0  0  0  0  0  0  0  0  0  0
   28.3796  -21.9416  -10.4221 O   0  0  0  0  0  0  0  0  0  0  0  0
  2  1  1  6
  3  2  1  0
  3  4  1  0
  5  4  1  0
  6  5  1  0
  7  6  1  0
  8  9  2  0
  8  2  1  0
 11 10  1  6
 11 13  1  0
 12 11  1  0
 13 14  1  6
 14  8  1  0
 15 13  1  0
 15 17  1  0
 16 15  2  0
 18 17  1  0
 18 29  1  0
 18 19  1  1
 19 20  1  0
 20 28  1  0
 21 20  2  0
 21 22  1  0
 22 23  1  0
 23 24  2  0
 24 25  1  0
 26 25  2  0
 27 26  1  0
 28 27  2  0
 28 23  1  0
 29 30  1  0
 31 29  2  0
M  END
$$$$
