KTW.pdb
     RDKit          3D

 31 32  0  0  1  0  0  0  0  0999 V2000
   27.4018  -21.5310  -16.4922 N   0  0  0  0  0  0  0  0  0  0  0  0
   27.3984  -20.1064  -16.4160 C   0  0  1  0  0  0  0  0  0  0  0  0
   27.1841  -19.4778  -17.7685 C   0  0  0  0  0  0  0  0  0  0  0  0
   28.4194  -18.8099  -18.2953 C   0  0  0  0  0  0  0  0  0  0  0  0
   28.4501  -17.3302  -18.0881 C   0  0  0  0  0  0  0  0  0  0  0  0
   29.6765  -16.6548  -18.6470 C   0  0  0  0  0  0  0  0  0  0  0  0
   30.3453  -15.8635  -17.6328 N   0  0  0  0  0  0  0  0  0  0  0  0
   26.3954  -19.6435  -15.4231 C   0  0  0  0  0  0  0  0  0  0  0  0
   25.4424  -18.8850  -15.7465 O   0  0  0  0  0  0  0  0  0  0  0  0
   24.6652  -22.2801  -13.8707 C   0  0  0  0  0  0  0  0  0  0  0  0
   24.2827  -20.8432  -13.6020 C   0  0  1  0  0  0  0  0  0  0  0  0
   23.2745  -20.8599  -12.6413 O   0  0  0  0  0  0  0  0  0  0  0  0
   25.4462  -20.0273  -13.1076 C   0  0  2  0  0  0  0  0  0  0  0  0
   26.5080  -20.0657  -14.0592 N   0  0  0  0  0  0  0  0  0  0  0  0
   25.8673  -20.6348  -11.7922 C   0  0  0  0  0  0  0  0  0  0  0  0
   26.6030  -21.6505  -11.8008 O   0  0  0  0  0  0  0  0  0  0  0  0
   25.4504  -20.0835  -10.5560 N   0  0  0  0  0  0  0  0  0  0  0  0
   25.8507  -20.6777   -9.2891 C   0  0  1  0  0  0  0  0  0  0  0  0
   26.9719  -19.9048   -8.7163 C   0  0  0  0  0  0  0  0  0  0  0  0
   27.5235  -20.3729   -7.4524 C   0  0  0  0  0  0  0  0  0  0  0  0
   27.5746  -21.7049   -7.0123 C   0  0  0  0  0  0  0  0  0  0  0  0
   28.1283  -21.6850   -5.8027 N   0  0  0  0  0  0  0  0  0  0  0  0
   28.4358  -20.4297   -5.4383 C   0  0  0  0  0  0  0  0  0  0  0  0
   29.0275  -19.9205   -4.2946 C   0  0  0  0  0  0  0  0  0  0  0  0
   29.2684  -18.5752   -4.1294 C   0  0  0  0  0  0  0  0  0  0  0  0
   28.8963  -17.7266   -5.1570 C   0  0  0  0  0  0  0  0  0  0  0  0
   28.3082  -18.2102   -6.2985 C   0  0  0  0  0  0  0  0  0  0  0  0
   28.0642  -19.5584   -6.4685 C   0  0  0  0  0  0  0  0  0  0  0  0
   24.6953  -20.9678   -8.4546 C   0  0  0  0  0  0  0  0  0  0  0  0
   23.4502  -20.4121   -8.8306 O   0  0  0  0  0  0  0  0  0  0  0  0
   24.6554  -21.6622   -7.4218 O   0  0  0  0  0  0  0  0  0  0  0  0
  2  1  1  6
  3  2  1  0
  3  4  1  0
  5  4  1  0
  6  5  1  0
  7  6  1  0
  8  9  2  0
  8  2  1  0
 11 10  1  1
 11 13  1  0
 12 11  1  0
 13 14  1  6
 14  8  1  0
 15 13  1  0
 15 17  1  0
 16 15  2  0
 18 17  1  0
 18 29  1  0
 18 19  1  1
 19 20  1  0
 20 28  1  0
 21 20  2  0
 21 22  1  0
 22 23  1  0
 23 24  2  0
 24 25  1  0
 26 25  2  0
 27 26  1  0
 28 27  2  0
 28 23  1  0
 29 30  1  0
 31 29  2  0
M  END
$$$$
