KTW.pdb
     RDKit          3D

 31 32  0  0  1  0  0  0  0  0999 V2000
   28.0925  -21.1800  -15.5010 N   0  0  0  0  0  0  0  0  0  0  0  0
   28.5654  -19.9730  -14.9053 C   0  0  1  0  0  0  0  0  0  0  0  0
   28.9771  -18.9637  -15.9456 C   0  0  0  0  0  0  0  0  0  0  0  0
   29.1453  -19.5741  -17.3053 C   0  0  0  0  0  0  0  0  0  0  0  0
   28.2223  -19.0208  -18.3423 C   0  0  0  0  0  0  0  0  0  0  0  0
   28.4990  -19.5137  -19.7399 C   0  0  0  0  0  0  0  0  0  0  0  0
   27.4710  -19.0732  -20.6625 N   0  0  0  0  0  0  0  0  0  0  0  0
   27.5496  -19.4244  -13.9707 C   0  0  0  0  0  0  0  0  0  0  0  0
   27.3326  -18.1865  -13.8783 O   0  0  0  0  0  0  0  0  0  0  0  0
   24.1326  -19.5902  -14.1651 C   0  0  0  0  0  0  0  0  0  0  0  0
   24.4086  -20.3072  -12.8639 C   0  0  1  0  0  0  0  0  0  0  0  0
   24.3881  -21.6729  -13.1359 O   0  0  0  0  0  0  0  0  0  0  0  0
   25.7384  -19.9236  -12.2736 C   0  0  2  0  0  0  0  0  0  0  0  0
   26.7929  -20.3202  -13.1486 N   0  0  0  0  0  0  0  0  0  0  0  0
   25.8361  -20.6290  -10.9433 C   0  0  0  0  0  0  0  0  0  0  0  0
   26.3815  -21.7572  -10.8933 O   0  0  0  0  0  0  0  0  0  0  0  0
   25.3269  -20.0449   -9.7577 N   0  0  0  0  0  0  0  0  0  0  0  0
   25.3116  -20.7768   -8.4998 C   0  0  1  0  0  0  0  0  0  0  0  0
   25.9786  -19.9726   -7.4552 C   0  0  0  0  0  0  0  0  0  0  0  0
   27.3774  -20.2703   -7.1804 C   0  0  0  0  0  0  0  0  0  0  0  0
   28.2844  -20.8797   -8.0616 C   0  0  0  0  0  0  0  0  0  0  0  0
   29.4375  -20.9873   -7.4065 N   0  0  0  0  0  0  0  0  0  0  0  0
   29.3303  -20.4873   -6.1649 C   0  0  0  0  0  0  0  0  0  0  0  0
   30.2495  -20.3695   -5.1360 C   0  0  0  0  0  0  0  0  0  0  0  0
   29.9266  -19.8006   -3.9246 C   0  0  0  0  0  0  0  0  0  0  0  0
   28.6327  -19.3398   -3.7576 C   0  0  0  0  0  0  0  0  0  0  0  0
   27.7061  -19.4472   -4.7639 C   0  0  0  0  0  0  0  0  0  0  0  0
   28.0250  -20.0174   -5.9803 C   0  0  0  0  0  0  0  0  0  0  0  0
   23.9949  -21.3320   -8.2290 C   0  0  0  0  0  0  0  0  0  0  0  0
   23.8445  -22.1545   -7.0883 O   0  0  0  0  0  0  0  0  0  0  0  0
   22.9502  -21.1740   -8.8880 O   0  0  0  0  0  0  0  0  0  0  0  0
  2  1  1  6
  3  2  1  0
  3  4  1  0
  5  4  1  0
  6  5  1  0
  7  6  1  0
  8  9  2  0
  8  2  1  0
 11 10  1  6
 11 13  1  0
 12 11  1  0
 13 14  1  6
 14  8  1  0
 15 13  1  0
 15 17  1  0
 16 15  2  0
 18 17  1  0
 18 29  1  0
 18 19  1  1
 19 20  1  0
 20 28  1  0
 21 20  2  0
 21 22  1  0
 22 23  1  0
 23 24  2  0
 24 25  1  0
 26 25  2  0
 27 26  1  0
 28 27  2  0
 28 23  1  0
 29 30  1  0
 31 29  2  0
M  END
$$$$
