KTW.pdb
     RDKit          3D

 31 32  0  0  1  0  0  0  0  0999 V2000
   28.5014  -20.2018  -16.6631 N   0  0  0  0  0  0  0  0  0  0  0  0
   28.7838  -18.8589  -16.2730 C   0  0  1  0  0  0  0  0  0  0  0  0
   28.7545  -17.9198  -17.4511 C   0  0  0  0  0  0  0  0  0  0  0  0
   29.3885  -18.5114  -18.6749 C   0  0  0  0  0  0  0  0  0  0  0  0
   28.4743  -19.3781  -19.4788 C   0  0  0  0  0  0  0  0  0  0  0  0
   29.0745  -19.8779  -20.7683 C   0  0  0  0  0  0  0  0  0  0  0  0
   28.6764  -21.2465  -21.0341 N   0  0  0  0  0  0  0  0  0  0  0  0
   27.8574  -18.4271  -15.1953 C   0  0  0  0  0  0  0  0  0  0  0  0
   27.1617  -17.3813  -15.2976 O   0  0  0  0  0  0  0  0  0  0  0  0
   25.0891  -18.2786  -14.7221 C   0  0  0  0  0  0  0  0  0  0  0  0
   25.3798  -19.2494  -13.6013 C   0  0  1  0  0  0  0  0  0  0  0  0
   25.2912  -20.5321  -14.1364 O   0  0  0  0  0  0  0  0  0  0  0  0
   26.7448  -19.0379  -13.0047 C   0  0  2  0  0  0  0  0  0  0  0  0
   27.7467  -19.2148  -14.0045 N   0  0  0  0  0  0  0  0  0  0  0  0
   26.8905  -20.0528  -11.8976 C   0  0  0  0  0  0  0  0  0  0  0  0
   27.9865  -20.6464  -11.7591 O   0  0  0  0  0  0  0  0  0  0  0  0
   25.8201  -20.3457  -11.0177 N   0  0  0  0  0  0  0  0  0  0  0  0
   25.9929  -21.2506   -9.8909 C   0  0  1  0  0  0  0  0  0  0  0  0
   27.2136  -20.8798   -9.1458 C   0  0  0  0  0  0  0  0  0  0  0  0
   27.0835  -20.6994   -7.7065 C   0  0  0  0  0  0  0  0  0  0  0  0
   25.9120  -20.8685   -6.9519 C   0  0  0  0  0  0  0  0  0  0  0  0
   26.2262  -20.5797   -5.6917 N   0  0  0  0  0  0  0  0  0  0  0  0
   27.5204  -20.2372   -5.5881 C   0  0  0  0  0  0  0  0  0  0  0  0
   28.2935  -19.8737   -4.4983 C   0  0  0  0  0  0  0  0  0  0  0  0
   29.6312  -19.5703   -4.6157 C   0  0  0  0  0  0  0  0  0  0  0  0
   30.1958  -19.6393   -5.8770 C   0  0  0  0  0  0  0  0  0  0  0  0
   29.4477  -19.9968   -6.9703 C   0  0  0  0  0  0  0  0  0  0  0  0
   28.1057  -20.3015   -6.8577 C   0  0  0  0  0  0  0  0  0  0  0  0
   24.7474  -21.4271   -9.1608 C   0  0  0  0  0  0  0  0  0  0  0  0
   24.6577  -22.5105   -8.2560 O   0  0  0  0  0  0  0  0  0  0  0  0
   23.7183  -20.7294   -9.2283 O   0  0  0  0  0  0  0  0  0  0  0  0
  2  1  1  6
  3  2  1  0
  3  4  1  0
  5  4  1  0
  6  5  1  0
  7  6  1  0
  8  9  2  0
  8  2  1  0
 11 10  1  6
 11 13  1  0
 12 11  1  0
 13 14  1  6
 14  8  1  0
 15 13  1  0
 15 17  1  0
 16 15  2  0
 18 17  1  0
 18 29  1  0
 18 19  1  1
 19 20  1  0
 20 28  1  0
 21 20  2  0
 21 22  1  0
 22 23  1  0
 23 24  2  0
 24 25  1  0
 26 25  2  0
 27 26  1  0
 28 27  2  0
 28 23  1  0
 29 30  1  0
 31 29  2  0
M  END
$$$$
