KTW.pdb
     RDKit          3D

 31 32  0  0  1  0  0  0  0  0999 V2000
   24.3895  -26.5508  -17.0549 N   0  0  0  0  0  0  0  0  0  0  0  0
   24.1510  -25.1635  -16.8226 C   0  0  1  0  0  0  0  0  0  0  0  0
   22.6854  -24.8773  -16.6215 C   0  0  0  0  0  0  0  0  0  0  0  0
   22.0895  -25.6822  -15.5049 C   0  0  0  0  0  0  0  0  0  0  0  0
   20.6583  -25.3625  -15.2170 C   0  0  0  0  0  0  0  0  0  0  0  0
   19.7044  -26.4945  -15.5023 C   0  0  0  0  0  0  0  0  0  0  0  0
   18.3543  -26.1548  -15.0973 N   0  0  0  0  0  0  0  0  0  0  0  0
   24.9726  -24.6807  -15.6833 C   0  0  0  0  0  0  0  0  0  0  0  0
   25.6983  -25.4610  -15.0106 O   0  0  0  0  0  0  0  0  0  0  0  0
   27.6065  -22.0731  -15.8362 C   0  0  0  0  0  0  0  0  0  0  0  0
   26.5590  -21.5776  -14.8664 C   0  0  1  0  0  0  0  0  0  0  0  0
   25.7421  -20.6905  -15.5629 O   0  0  0  0  0  0  0  0  0  0  0  0
   25.7304  -22.6993  -14.3014 C   0  0  2  0  0  0  0  0  0  0  0  0
   24.9442  -23.2923  -15.3334 N   0  0  0  0  0  0  0  0  0  0  0  0
   24.8591  -22.0908  -13.2302 C   0  0  0  0  0  0  0  0  0  0  0  0
   23.6892  -21.7464  -13.5227 O   0  0  0  0  0  0  0  0  0  0  0  0
   25.3343  -21.9025  -11.9093 N   0  0  0  0  0  0  0  0  0  0  0  0
   24.5313  -21.2183  -10.9067 C   0  0  1  0  0  0  0  0  0  0  0  0
   25.0998  -21.4698   -9.5665 C   0  0  0  0  0  0  0  0  0  0  0  0
   26.4875  -21.0841   -9.3511 C   0  0  0  0  0  0  0  0  0  0  0  0
   27.5520  -21.2835  -10.2441 C   0  0  0  0  0  0  0  0  0  0  0  0
   28.6431  -20.8109   -9.6471 N   0  0  0  0  0  0  0  0  0  0  0  0
   28.3491  -20.3217   -8.4317 C   0  0  0  0  0  0  0  0  0  0  0  0
   29.1381  -19.7260   -7.4621 C   0  0  0  0  0  0  0  0  0  0  0  0
   28.6199  -19.2748   -6.2691 C   0  0  0  0  0  0  0  0  0  0  0  0
   27.2618  -19.4351   -6.0589 C   0  0  0  0  0  0  0  0  0  0  0  0
   26.4619  -20.0232   -7.0061 C   0  0  0  0  0  0  0  0  0  0  0  0
   26.9771  -20.4777   -8.2038 C   0  0  0  0  0  0  0  0  0  0  0  0
   24.2447  -19.8492  -11.3056 C   0  0  0  0  0  0  0  0  0  0  0  0
   23.1615  -19.1897  -10.6793 O   0  0  0  0  0  0  0  0  0  0  0  0
   24.8450  -19.1594  -12.1506 O   0  0  0  0  0  0  0  0  0  0  0  0
  2  1  1  1
  3  2  1  0
  3  4  1  0
  5  4  1  0
  6  5  1  0
  7  6  1  0
  8  9  2  0
  8  2  1  0
 11 10  1  6
 11 13  1  0
 12 11  1  0
 13 14  1  6
 14  8  1  0
 15 13  1  0
 15 17  1  0
 16 15  2  0
 18 17  1  0
 18 29  1  0
 18 19  1  1
 19 20  1  0
 20 28  1  0
 21 20  2  0
 21 22  1  0
 22 23  1  0
 23 24  2  0
 24 25  1  0
 26 25  2  0
 27 26  1  0
 28 27  2  0
 28 23  1  0
 29 30  1  0
 31 29  2  0
M  END
$$$$
