KTW.pdb
     RDKit          3D

 31 32  0  0  1  0  0  0  0  0999 V2000
   22.5685  -17.6814  -19.5394 N   0  0  0  0  0  0  0  0  0  0  0  0
   22.5011  -17.4735  -18.1296 C   0  0  1  0  0  0  0  0  0  0  0  0
   21.2008  -16.8291  -17.7242 C   0  0  0  0  0  0  0  0  0  0  0  0
   20.3300  -16.5000  -18.9002 C   0  0  0  0  0  0  0  0  0  0  0  0
   19.8792  -15.0760  -18.9477 C   0  0  0  0  0  0  0  0  0  0  0  0
   20.4209  -14.2967  -20.1191 C   0  0  0  0  0  0  0  0  0  0  0  0
   19.8172  -12.9807  -20.1953 N   0  0  0  0  0  0  0  0  0  0  0  0
   22.7380  -18.7490  -17.4063 C   0  0  0  0  0  0  0  0  0  0  0  0
   22.0961  -19.7978  -17.6824 O   0  0  0  0  0  0  0  0  0  0  0  0
   23.9435  -21.1639  -17.9754 C   0  0  0  0  0  0  0  0  0  0  0  0
   24.8806  -20.8457  -16.8335 C   0  0  1  0  0  0  0  0  0  0  0  0
   25.9723  -20.1713  -17.3746 O   0  0  0  0  0  0  0  0  0  0  0  0
   24.2253  -19.9947  -15.7797 C   0  0  2  0  0  0  0  0  0  0  0  0
   23.7204  -18.7961  -16.3654 N   0  0  0  0  0  0  0  0  0  0  0  0
   25.2865  -19.6961  -14.7493 C   0  0  0  0  0  0  0  0  0  0  0  0
   25.6291  -18.5048  -14.5589 O   0  0  0  0  0  0  0  0  0  0  0  0
   25.8989  -20.7288  -13.9980 N   0  0  0  0  0  0  0  0  0  0  0  0
   26.7635  -20.4302  -12.8660 C   0  0  1  0  0  0  0  0  0  0  0  0
   26.1217  -19.4082  -12.0137 C   0  0  0  0  0  0  0  0  0  0  0  0
   25.4299  -19.8776  -10.8212 C   0  0  0  0  0  0  0  0  0  0  0  0
   26.0223  -20.1901   -9.5876 C   0  0  0  0  0  0  0  0  0  0  0  0
   25.0418  -20.6021   -8.7882 N   0  0  0  0  0  0  0  0  0  0  0  0
   23.8609  -20.5742   -9.4267 C   0  0  0  0  0  0  0  0  0  0  0  0
   22.5798  -20.8945   -9.0099 C   0  0  0  0  0  0  0  0  0  0  0  0
   21.4871  -20.7771   -9.8392 C   0  0  0  0  0  0  0  0  0  0  0  0
   21.7061  -20.3211  -11.1271 C   0  0  0  0  0  0  0  0  0  0  0  0
   22.9675  -19.9986  -11.5605 C   0  0  0  0  0  0  0  0  0  0  0  0
   24.0663  -20.1152  -10.7327 C   0  0  0  0  0  0  0  0  0  0  0  0
   27.2648  -21.6485  -12.2498 C   0  0  0  0  0  0  0  0  0  0  0  0
   28.5023  -21.5853  -11.5678 O   0  0  0  0  0  0  0  0  0  0  0  0
   26.7327  -22.7743  -12.2423 O   0  0  0  0  0  0  0  0  0  0  0  0
  2  1  1  6
  3  2  1  0
  3  4  1  0
  5  4  1  0
  6  5  1  0
  7  6  1  0
  8  9  2  0
  8  2  1  0
 11 10  1  6
 11 13  1  0
 12 11  1  0
 13 14  1  6
 14  8  1  0
 15 13  1  0
 15 17  1  0
 16 15  2  0
 18 17  1  0
 18 29  1  0
 18 19  1  1
 19 20  1  0
 20 28  1  0
 21 20  2  0
 21 22  1  0
 22 23  1  0
 23 24  2  0
 24 25  1  0
 26 25  2  0
 27 26  1  0
 28 27  2  0
 28 23  1  0
 29 30  1  0
 31 29  2  0
M  END
$$$$
