KTW.pdb
     RDKit          3D

 31 32  0  0  1  0  0  0  0  0999 V2000
   27.3124  -24.0403  -17.0344 N   0  0  0  0  0  0  0  0  0  0  0  0
   26.6322  -23.1713  -16.1303 C   0  0  1  0  0  0  0  0  0  0  0  0
   27.0668  -21.7388  -16.3029 C   0  0  0  0  0  0  0  0  0  0  0  0
   28.5088  -21.6181  -16.6975 C   0  0  0  0  0  0  0  0  0  0  0  0
   28.7215  -21.1530  -18.1017 C   0  0  0  0  0  0  0  0  0  0  0  0
   30.1606  -20.8605  -18.4429 C   0  0  0  0  0  0  0  0  0  0  0  0
   30.2903  -20.4027  -19.8124 N   0  0  0  0  0  0  0  0  0  0  0  0
   25.1617  -23.3263  -16.2707 C   0  0  0  0  0  0  0  0  0  0  0  0
   24.6540  -24.0749  -17.1482 O   0  0  0  0  0  0  0  0  0  0  0  0
   23.2488  -25.1881  -15.7854 C   0  0  0  0  0  0  0  0  0  0  0  0
   22.5044  -24.1571  -14.9692 C   0  0  1  0  0  0  0  0  0  0  0  0
   22.8289  -24.3793  -13.6332 O   0  0  0  0  0  0  0  0  0  0  0  0
   22.8718  -22.7505  -15.3571 C   0  0  2  0  0  0  0  0  0  0  0  0
   24.2908  -22.6085  -15.3892 N   0  0  0  0  0  0  0  0  0  0  0  0
   22.2540  -21.8449  -14.3204 C   0  0  0  0  0  0  0  0  0  0  0  0
   22.9788  -21.3877  -13.4047 O   0  0  0  0  0  0  0  0  0  0  0  0
   20.8800  -21.5035  -14.3615 N   0  0  0  0  0  0  0  0  0  0  0  0
   20.3171  -20.5200  -13.4482 C   0  0  1  0  0  0  0  0  0  0  0  0
   21.1682  -19.3123  -13.4412 C   0  0  0  0  0  0  0  0  0  0  0  0
   21.1387  -18.4727  -14.6309 C   0  0  0  0  0  0  0  0  0  0  0  0
   20.0750  -17.6545  -15.0425 C   0  0  0  0  0  0  0  0  0  0  0  0
   20.4518  -17.0870  -16.1854 N   0  0  0  0  0  0  0  0  0  0  0  0
   21.6857  -17.4864  -16.5335 C   0  0  0  0  0  0  0  0  0  0  0  0
   22.4888  -17.1629  -17.6141 C   0  0  0  0  0  0  0  0  0  0  0  0
   23.7521  -17.6867  -17.7728 C   0  0  0  0  0  0  0  0  0  0  0  0
   24.2087  -18.5632  -16.8045 C   0  0  0  0  0  0  0  0  0  0  0  0
   23.4290  -18.8976  -15.7260 C   0  0  0  0  0  0  0  0  0  0  0  0
   22.1613  -18.3753  -15.5628 C   0  0  0  0  0  0  0  0  0  0  0  0
   18.8845  -20.3718  -13.6506 C   0  0  0  0  0  0  0  0  0  0  0  0
   18.3173  -20.9422  -14.8140 O   0  0  0  0  0  0  0  0  0  0  0  0
   18.0658  -19.7922  -12.9129 O   0  0  0  0  0  0  0  0  0  0  0  0
  2  1  1  6
  3  2  1  0
  3  4  1  0
  5  4  1  0
  6  5  1  0
  7  6  1  0
  8  9  2  0
  8  2  1  0
 11 10  1  6
 11 13  1  0
 12 11  1  0
 13 14  1  1
 14  8  1  0
 15 13  1  0
 15 17  1  0
 16 15  2  0
 18 17  1  0
 18 29  1  0
 18 19  1  6
 19 20  1  0
 20 28  1  0
 21 20  2  0
 21 22  1  0
 22 23  1  0
 23 24  2  0
 24 25  1  0
 26 25  2  0
 27 26  1  0
 28 27  2  0
 28 23  1  0
 29 30  1  0
 31 29  2  0
M  END
$$$$
