KTW.pdb
     RDKit          3D

 31 32  0  0  1  0  0  0  0  0999 V2000
   26.0276  -19.2948  -17.0004 N   0  0  0  0  0  0  0  0  0  0  0  0
   25.1268  -20.1663  -16.3189 C   0  0  1  0  0  0  0  0  0  0  0  0
   24.2526  -20.9263  -17.2825 C   0  0  0  0  0  0  0  0  0  0  0  0
   23.3912  -20.0229  -18.1141 C   0  0  0  0  0  0  0  0  0  0  0  0
   22.3476  -19.2878  -17.3371 C   0  0  0  0  0  0  0  0  0  0  0  0
   21.4740  -18.3891  -18.1751 C   0  0  0  0  0  0  0  0  0  0  0  0
   20.5802  -17.6064  -17.3441 N   0  0  0  0  0  0  0  0  0  0  0  0
   25.8727  -21.0746  -15.4108 C   0  0  0  0  0  0  0  0  0  0  0  0
   26.4989  -22.0788  -15.8439 O   0  0  0  0  0  0  0  0  0  0  0  0
   28.4686  -20.5126  -14.9428 C   0  0  0  0  0  0  0  0  0  0  0  0
   28.2047  -20.5210  -13.4550 C   0  0  1  0  0  0  0  0  0  0  0  0
   28.1483  -19.1925  -13.0410 O   0  0  0  0  0  0  0  0  0  0  0  0
   26.9175  -21.2191  -13.1092 C   0  0  2  0  0  0  0  0  0  0  0  0
   25.8848  -20.8090  -14.0035 N   0  0  0  0  0  0  0  0  0  0  0  0
   26.5925  -20.8382  -11.6857 C   0  0  0  0  0  0  0  0  0  0  0  0
   25.9976  -19.7558  -11.4680 O   0  0  0  0  0  0  0  0  0  0  0  0
   26.9442  -21.6744  -10.5980 N   0  0  0  0  0  0  0  0  0  0  0  0
   26.7542  -21.2441   -9.2207 C   0  0  1  0  0  0  0  0  0  0  0  0
   27.8288  -20.3012   -8.8478 C   0  0  0  0  0  0  0  0  0  0  0  0
   27.7047  -19.6281   -7.5623 C   0  0  0  0  0  0  0  0  0  0  0  0
   26.7489  -18.6575   -7.2232 C   0  0  0  0  0  0  0  0  0  0  0  0
   27.0078  -18.2899   -5.9709 N   0  0  0  0  0  0  0  0  0  0  0  0
   28.0650  -18.9601   -5.4848 C   0  0  0  0  0  0  0  0  0  0  0  0
   28.6888  -18.9268   -4.2490 C   0  0  0  0  0  0  0  0  0  0  0  0
   29.7708  -19.7241   -3.9512 C   0  0  0  0  0  0  0  0  0  0  0  0
   30.2290  -20.5779   -4.9389 C   0  0  0  0  0  0  0  0  0  0  0  0
   29.6258  -20.6264   -6.1704 C   0  0  0  0  0  0  0  0  0  0  0  0
   28.5408  -19.8284   -6.4739 C   0  0  0  0  0  0  0  0  0  0  0  0
   25.3708  -20.8710   -8.9711 C   0  0  0  0  0  0  0  0  0  0  0  0
   24.6813  -20.1663   -9.9852 O   0  0  0  0  0  0  0  0  0  0  0  0
   24.6918  -21.0969   -7.9520 O   0  0  0  0  0  0  0  0  0  0  0  0
  2  1  1  6
  3  2  1  0
  3  4  1  0
  5  4  1  0
  6  5  1  0
  7  6  1  0
  8  9  2  0
  8  2  1  0
 11 10  1  6
 11 13  1  0
 12 11  1  0
 13 14  1  6
 14  8  1  0
 15 13  1  0
 15 17  1  0
 16 15  2  0
 18 17  1  0
 18 29  1  0
 18 19  1  6
 19 20  1  0
 20 28  1  0
 21 20  2  0
 21 22  1  0
 22 23  1  0
 23 24  2  0
 24 25  1  0
 26 25  2  0
 27 26  1  0
 28 27  2  0
 28 23  1  0
 29 30  1  0
 31 29  2  0
M  END
$$$$
