KTW.pdb
     RDKit          3D

 31 32  0  0  1  0  0  0  0  0999 V2000
   25.4749  -22.0088  -17.4983 N   0  0  0  0  0  0  0  0  0  0  0  0
   25.6438  -22.6352  -16.2277 C   0  0  1  0  0  0  0  0  0  0  0  0
   26.2922  -23.9892  -16.3572 C   0  0  0  0  0  0  0  0  0  0  0  0
   25.9931  -24.6476  -17.6712 C   0  0  0  0  0  0  0  0  0  0  0  0
   26.6346  -25.9862  -17.8444 C   0  0  0  0  0  0  0  0  0  0  0  0
   25.9373  -27.1036  -17.1109 C   0  0  0  0  0  0  0  0  0  0  0  0
   26.6046  -28.3713  -17.3336 N   0  0  0  0  0  0  0  0  0  0  0  0
   26.3964  -21.7448  -15.3075 C   0  0  0  0  0  0  0  0  0  0  0  0
   27.2348  -20.9058  -15.7335 O   0  0  0  0  0  0  0  0  0  0  0  0
   27.0347  -19.0406  -14.4078 C   0  0  0  0  0  0  0  0  0  0  0  0
   26.4828  -19.5888  -13.1124 C   0  0  1  0  0  0  0  0  0  0  0  0
   25.0994  -19.4348  -13.1582 O   0  0  0  0  0  0  0  0  0  0  0  0
   26.8292  -21.0395  -12.9147 C   0  0  2  0  0  0  0  0  0  0  0  0
   26.1692  -21.8365  -13.8965 N   0  0  0  0  0  0  0  0  0  0  0  0
   26.3777  -21.4019  -11.5213 C   0  0  0  0  0  0  0  0  0  0  0  0
   25.1568  -21.5962  -11.3104 O   0  0  0  0  0  0  0  0  0  0  0  0
   27.3005  -21.5259  -10.4540 N   0  0  0  0  0  0  0  0  0  0  0  0
   27.0024  -20.9981   -9.1308 C   0  0  1  0  0  0  0  0  0  0  0  0
   28.1815  -20.2734   -8.6138 C   0  0  0  0  0  0  0  0  0  0  0  0
   28.0716  -19.6905   -7.2837 C   0  0  0  0  0  0  0  0  0  0  0  0
   27.3368  -18.5456   -6.9379 C   0  0  0  0  0  0  0  0  0  0  0  0
   27.5291  -18.3488   -5.6362 N   0  0  0  0  0  0  0  0  0  0  0  0
   28.3375  -19.2911   -5.1246 C   0  0  0  0  0  0  0  0  0  0  0  0
   28.8060  -19.5049   -3.8392 C   0  0  0  0  0  0  0  0  0  0  0  0
   29.6302  -20.5618   -3.5247 C   0  0  0  0  0  0  0  0  0  0  0  0
   29.9863  -21.4233   -4.5472 C   0  0  0  0  0  0  0  0  0  0  0  0
   29.5337  -21.2294   -5.8279 C   0  0  0  0  0  0  0  0  0  0  0  0
   28.7073  -20.1707   -6.1483 C   0  0  0  0  0  0  0  0  0  0  0  0
   25.7045  -20.3423   -9.1052 C   0  0  0  0  0  0  0  0  0  0  0  0
   24.7399  -20.8180   -8.1866 O   0  0  0  0  0  0  0  0  0  0  0  0
   25.3180  -19.3881   -9.8056 O   0  0  0  0  0  0  0  0  0  0  0  0
  2  1  1  6
  3  2  1  0
  3  4  1  0
  5  4  1  0
  6  5  1  0
  7  6  1  0
  8  9  2  0
  8  2  1  0
 11 10  1  6
 11 13  1  0
 12 11  1  0
 13 14  1  6
 14  8  1  0
 15 13  1  0
 15 17  1  0
 16 15  2  0
 18 17  1  0
 18 29  1  0
 18 19  1  6
 19 20  1  0
 20 28  1  0
 21 20  2  0
 21 22  1  0
 22 23  1  0
 23 24  2  0
 24 25  1  0
 26 25  2  0
 27 26  1  0
 28 27  2  0
 28 23  1  0
 29 30  1  0
 31 29  2  0
M  END
$$$$
