KTW.pdb
     RDKit          3D

 31 32  0  0  1  0  0  0  0  0999 V2000
   26.5185  -18.7491  -17.4337 N   0  0  0  0  0  0  0  0  0  0  0  0
   26.9691  -17.8163  -16.4527 C   0  0  1  0  0  0  0  0  0  0  0  0
   27.1531  -16.4398  -17.0374 C   0  0  0  0  0  0  0  0  0  0  0  0
   28.5962  -16.0968  -17.2597 C   0  0  0  0  0  0  0  0  0  0  0  0
   29.4211  -17.2299  -17.7781 C   0  0  0  0  0  0  0  0  0  0  0  0
   30.7686  -16.8170  -18.3134 C   0  0  0  0  0  0  0  0  0  0  0  0
   31.3702  -15.7935  -17.4812 N   0  0  0  0  0  0  0  0  0  0  0  0
   26.0488  -17.8061  -15.2869 C   0  0  0  0  0  0  0  0  0  0  0  0
   25.0177  -17.0819  -15.2615 O   0  0  0  0  0  0  0  0  0  0  0  0
   23.5862  -19.0094  -14.8103 C   0  0  0  0  0  0  0  0  0  0  0  0
   24.2434  -19.6981  -13.6368 C   0  0  1  0  0  0  0  0  0  0  0  0
   24.6684  -20.9480  -14.0803 O   0  0  0  0  0  0  0  0  0  0  0  0
   25.4151  -18.9196  -13.1032 C   0  0  2  0  0  0  0  0  0  0  0  0
   26.3344  -18.6385  -14.1571 N   0  0  0  0  0  0  0  0  0  0  0  0
   26.0501  -19.7780  -12.0370 C   0  0  0  0  0  0  0  0  0  0  0  0
   27.0076  -20.5251  -12.3500 O   0  0  0  0  0  0  0  0  0  0  0  0
   25.5883  -19.7563  -10.6983 N   0  0  0  0  0  0  0  0  0  0  0  0
   26.1598  -20.6326   -9.6865 C   0  0  1  0  0  0  0  0  0  0  0  0
   27.0403  -19.8475   -8.7970 C   0  0  0  0  0  0  0  0  0  0  0  0
   27.0585  -20.2153   -7.3880 C   0  0  0  0  0  0  0  0  0  0  0  0
   26.2508  -21.1849   -6.7733 C   0  0  0  0  0  0  0  0  0  0  0  0
   26.5698  -21.1827   -5.4816 N   0  0  0  0  0  0  0  0  0  0  0  0
   27.5280  -20.2770   -5.2275 C   0  0  0  0  0  0  0  0  0  0  0  0
   28.1784  -19.9269   -4.0562 C   0  0  0  0  0  0  0  0  0  0  0  0
   29.1596  -18.9618   -4.0215 C   0  0  0  0  0  0  0  0  0  0  0  0
   29.4865  -18.3372   -5.2120 C   0  0  0  0  0  0  0  0  0  0  0  0
   28.8541  -18.6685   -6.3838 C   0  0  0  0  0  0  0  0  0  0  0  0
   27.8692  -19.6353   -6.4235 C   0  0  0  0  0  0  0  0  0  0  0  0
   25.1433  -21.4889   -9.0957 C   0  0  0  0  0  0  0  0  0  0  0  0
   25.5712  -22.6525   -8.4150 O   0  0  0  0  0  0  0  0  0  0  0  0
   23.9086  -21.3283   -9.1096 O   0  0  0  0  0  0  0  0  0  0  0  0
  2  1  1  6
  3  2  1  0
  3  4  1  0
  5  4  1  0
  6  5  1  0
  7  6  1  0
  8  9  2  0
  8  2  1  0
 11 10  1  6
 11 13  1  0
 12 11  1  0
 13 14  1  6
 14  8  1  0
 15 13  1  0
 15 17  1  0
 16 15  2  0
 18 17  1  0
 18 29  1  0
 18 19  1  1
 19 20  1  0
 20 28  1  0
 21 20  2  0
 21 22  1  0
 22 23  1  0
 23 24  2  0
 24 25  1  0
 26 25  2  0
 27 26  1  0
 28 27  2  0
 28 23  1  0
 29 30  1  0
 31 29  2  0
M  END
$$$$
