CLQ.pdb
     RDKit          3D

 24 23  0  0  1  0  0  0  0  0999 V2000
    7.4851  -16.5782   21.8970 N   0  0  0  0  0  0  0  0  0  0  0  0
    8.6434  -15.7160   21.9260 C   0  0  1  0  0  0  0  0  0  0  0  0
    8.4770  -14.5468   20.9752 C   0  0  0  0  0  0  0  0  0  0  0  0
    7.5228  -15.0687   19.5350 S   0  0  0  0  0  0  0  0  0  0  0  0
    8.9446  -15.2340   23.2982 C   0  0  0  0  0  0  0  0  0  0  0  0
   10.0479  -14.6455   23.4598 O   0  0  0  0  0  0  0  0  0  0  0  0
    7.9743  -11.8830   25.6053 C   0  0  0  0  0  0  0  0  0  0  0  0
    6.9168  -12.9963   25.7328 C   0  0  2  0  0  0  0  0  0  0  0  0
    5.6979  -12.4244   26.3805 C   0  0  0  0  0  0  0  0  0  0  0  0
    7.4897  -14.1722   26.4656 C   0  0  0  0  0  0  0  0  0  0  0  0
    8.4385  -15.0240   25.7070 C   0  0  2  0  0  0  0  0  0  0  0  0
    8.0688  -15.4054   24.3924 N   0  0  0  0  0  0  0  0  0  0  0  0
    8.7617  -16.2074   26.5718 C   0  0  0  0  0  0  0  0  0  0  0  0
    8.9635  -15.9737   27.7865 O   0  0  0  0  0  0  0  0  0  0  0  0
   11.6792  -19.4350   22.8480 N   0  0  0  0  0  0  0  0  0  0  0  0
   12.5310  -19.6309   23.9611 C   0  0  0  0  0  0  0  0  0  0  0  0
   13.5274  -20.3764   23.8786 O   0  0  0  0  0  0  0  0  0  0  0  0
   12.2048  -18.9243   25.2281 C   0  0  0  0  0  0  0  0  0  0  0  0
   10.9788  -18.0643   25.0035 C   0  0  0  0  0  0  0  0  0  0  0  0
   10.0682  -18.2550   26.1992 C   0  0  2  0  0  0  0  0  0  0  0  0
    8.8440  -17.5285   26.0832 N   0  0  0  0  0  0  0  0  0  0  0  0
   10.7342  -17.9033   27.4624 C   0  0  0  0  0  0  0  0  0  0  0  0
   11.1019  -16.7329   27.7446 O   0  0  0  0  0  0  0  0  0  0  0  0
   10.9801  -18.8868   28.4025 O   0  0  0  0  0  0  0  0  0  0  0  0
  2  1  1  1
  3  2  1  0
  4  3  1  0
  5  6  2  0
  5  2  1  0
  8 10  1  0
  8  7  1  1
  9  8  1  0
 11 10  1  1
 11 12  1  0
 12  5  1  0
 13 11  1  0
 14 13  2  0
 16 15  1  0
 17 16  2  0
 18 16  1  0
 19 18  1  0
 20 19  1  6
 20 21  1  0
 21 13  1  0
 22 24  1  0
 22 20  1  0
 23 22  2  0
M  END
$$$$
