CLQ.pdb
     RDKit          3D

 24 23  0  0  1  0  0  0  0  0999 V2000
    8.0981  -18.3354   17.1843 N   0  0  0  0  0  0  0  0  0  0  0  0
    7.3908  -17.9745   18.3906 C   0  0  1  0  0  0  0  0  0  0  0  0
    6.7505  -19.1900   19.0318 C   0  0  0  0  0  0  0  0  0  0  0  0
    8.0358  -20.2999   19.6428 S   0  0  0  0  0  0  0  0  0  0  0  0
    8.2685  -17.2733   19.3621 C   0  0  0  0  0  0  0  0  0  0  0  0
    9.5029  -17.5192   19.2867 O   0  0  0  0  0  0  0  0  0  0  0  0
    8.5040  -12.8480   19.9751 C   0  0  0  0  0  0  0  0  0  0  0  0
    7.4826  -13.4440   20.9629 C   0  0  2  0  0  0  0  0  0  0  0  0
    6.8271  -12.3248   21.7044 C   0  0  0  0  0  0  0  0  0  0  0  0
    8.1509  -14.4454   21.8565 C   0  0  0  0  0  0  0  0  0  0  0  0
    8.6653  -15.6737   21.2024 C   0  0  2  0  0  0  0  0  0  0  0  0
    7.7866  -16.3709   20.3352 N   0  0  0  0  0  0  0  0  0  0  0  0
    9.2137  -16.5568   22.2850 C   0  0  0  0  0  0  0  0  0  0  0  0
    8.3738  -17.1523   22.9997 O   0  0  0  0  0  0  0  0  0  0  0  0
   12.8619  -20.9617   21.9771 N   0  0  0  0  0  0  0  0  0  0  0  0
   13.3655  -19.7134   21.5401 C   0  0  0  0  0  0  0  0  0  0  0  0
   14.2947  -19.6553   20.7103 O   0  0  0  0  0  0  0  0  0  0  0  0
   12.7565  -18.4765   22.0971 C   0  0  0  0  0  0  0  0  0  0  0  0
   11.6674  -18.8678   23.0737 C   0  0  0  0  0  0  0  0  0  0  0  0
   11.0313  -17.5884   23.5774 C   0  0  2  0  0  0  0  0  0  0  0  0
   10.5936  -16.7348   22.5192 N   0  0  0  0  0  0  0  0  0  0  0  0
   11.9259  -16.8433   24.4760 C   0  0  0  0  0  0  0  0  0  0  0  0
   12.2597  -15.6458   24.2779 O   0  0  0  0  0  0  0  0  0  0  0  0
   12.4388  -17.4647   25.5995 O   0  0  0  0  0  0  0  0  0  0  0  0
  2  1  1  6
  3  2  1  0
  4  3  1  0
  5  6  2  0
  5  2  1  0
  8 10  1  0
  8  7  1  6
  9  8  1  0
 11 10  1  1
 11 12  1  0
 12  5  1  0
 13 11  1  0
 14 13  2  0
 16 15  1  0
 17 16  2  0
 18 16  1  0
 19 18  1  0
 20 19  1  6
 20 21  1  0
 21 13  1  0
 22 24  1  0
 22 20  1  0
 23 22  2  0
M  END
$$$$
