CLQ.pdb
     RDKit          3D

 24 23  0  0  1  0  0  0  0  0999 V2000
    9.7232  -17.8328   16.0369 N   0  0  0  0  0  0  0  0  0  0  0  0
    9.1354  -18.2119   17.3004 C   0  0  1  0  0  0  0  0  0  0  0  0
    9.4492  -19.6566   17.6363 C   0  0  0  0  0  0  0  0  0  0  0  0
    8.7081  -20.0834   19.2256 S   0  0  0  0  0  0  0  0  0  0  0  0
    9.5620  -17.3147   18.4045 C   0  0  0  0  0  0  0  0  0  0  0  0
   10.7901  -17.0350   18.4613 O   0  0  0  0  0  0  0  0  0  0  0  0
    8.3478  -12.9696   19.6503 C   0  0  0  0  0  0  0  0  0  0  0  0
    7.3694  -14.0526   20.1442 C   0  0  2  0  0  0  0  0  0  0  0  0
    6.2146  -13.3822   20.8144 C   0  0  0  0  0  0  0  0  0  0  0  0
    8.0852  -15.0345   21.0226 C   0  0  0  0  0  0  0  0  0  0  0  0
    9.1106  -15.8821   20.3657 C   0  0  2  0  0  0  0  0  0  0  0  0
    8.6713  -16.7814   19.3614 N   0  0  0  0  0  0  0  0  0  0  0  0
    9.8763  -16.5763   21.4540 C   0  0  0  0  0  0  0  0  0  0  0  0
    9.4628  -17.7099   21.7929 O   0  0  0  0  0  0  0  0  0  0  0  0
   15.9179  -16.1584   22.7628 N   0  0  0  0  0  0  0  0  0  0  0  0
   15.4794  -17.0843   23.7392 C   0  0  0  0  0  0  0  0  0  0  0  0
   16.2950  -17.6479   24.4959 O   0  0  0  0  0  0  0  0  0  0  0  0
   14.0225  -17.3651   23.8366 C   0  0  0  0  0  0  0  0  0  0  0  0
   13.2928  -16.5050   22.8263 C   0  0  0  0  0  0  0  0  0  0  0  0
   11.8171  -16.8280   22.9401 C   0  0  2  0  0  0  0  0  0  0  0  0
   11.0064  -16.0178   22.0878 N   0  0  0  0  0  0  0  0  0  0  0  0
   11.3344  -16.7255   24.3255 C   0  0  0  0  0  0  0  0  0  0  0  0
   10.7476  -15.7073   24.7768 O   0  0  0  0  0  0  0  0  0  0  0  0
   11.5213  -17.7843   25.1947 O   0  0  0  0  0  0  0  0  0  0  0  0
  2  1  1  6
  3  2  1  0
  4  3  1  0
  5  6  2  0
  5  2  1  0
  8 10  1  0
  8  7  1  1
  9  8  1  0
 11 10  1  1
 11 12  1  0
 12  5  1  0
 13 11  1  0
 14 13  2  0
 16 15  1  0
 17 16  2  0
 18 16  1  0
 19 18  1  0
 20 19  1  1
 20 21  1  0
 21 13  1  0
 22 24  1  0
 22 20  1  0
 23 22  2  0
M  END
$$$$
