CLQ.pdb
     RDKit          3D

 24 23  0  0  1  0  0  0  0  0999 V2000
    9.7350  -15.5617   20.1032 N   0  0  0  0  0  0  0  0  0  0  0  0
    8.7156  -15.9869   21.0337 C   0  0  1  0  0  0  0  0  0  0  0  0
    8.6129  -17.4989   21.0768 C   0  0  0  0  0  0  0  0  0  0  0  0
    7.8774  -18.0998   19.5423 S   0  0  0  0  0  0  0  0  0  0  0  0
    8.9421  -15.4400   22.3959 C   0  0  0  0  0  0  0  0  0  0  0  0
   10.1344  -15.4226   22.8056 O   0  0  0  0  0  0  0  0  0  0  0  0
    6.0508  -12.6933   27.2259 C   0  0  0  0  0  0  0  0  0  0  0  0
    7.3481  -13.2228   26.5851 C   0  0  2  0  0  0  0  0  0  0  0  0
    8.3989  -12.1662   26.6927 C   0  0  0  0  0  0  0  0  0  0  0  0
    7.0856  -13.6665   25.1771 C   0  0  0  0  0  0  0  0  0  0  0  0
    8.1642  -14.4437   24.5184 C   0  0  2  0  0  0  0  0  0  0  0  0
    7.9046  -14.9548   23.2216 N   0  0  0  0  0  0  0  0  0  0  0  0
    8.5870  -15.5177   25.4778 C   0  0  0  0  0  0  0  0  0  0  0  0
    7.6997  -16.3260   25.8387 O   0  0  0  0  0  0  0  0  0  0  0  0
   11.8733  -19.9862   23.6404 N   0  0  0  0  0  0  0  0  0  0  0  0
   12.1808  -18.8630   24.4445 C   0  0  0  0  0  0  0  0  0  0  0  0
   13.3642  -18.5762   24.7144 O   0  0  0  0  0  0  0  0  0  0  0  0
   11.0556  -18.0369   24.9567 C   0  0  0  0  0  0  0  0  0  0  0  0
   11.4057  -17.5461   26.3458 C   0  0  0  0  0  0  0  0  0  0  0  0
   10.2328  -16.7270   26.8444 C   0  0  2  0  0  0  0  0  0  0  0  0
    9.9026  -15.6458   25.9714 N   0  0  0  0  0  0  0  0  0  0  0  0
   10.4557  -16.2140   28.2045 C   0  0  0  0  0  0  0  0  0  0  0  0
   10.4751  -14.9865   28.4831 O   0  0  0  0  0  0  0  0  0  0  0  0
   10.6562  -17.1014   29.2455 O   0  0  0  0  0  0  0  0  0  0  0  0
  2  1  1  6
  3  2  1  0
  4  3  1  0
  5  6  2  0
  5  2  1  0
  8 10  1  0
  8  7  1  6
  9  8  1  0
 11 10  1  1
 11 12  1  0
 12  5  1  0
 13 11  1  0
 14 13  2  0
 16 15  1  0
 17 16  2  0
 18 16  1  0
 19 18  1  0
 20 19  1  6
 20 21  1  0
 21 13  1  0
 22 24  1  0
 22 20  1  0
 23 22  2  0
M  END
$$$$
