CLQ.pdb
     RDKit          3D

 24 23  0  0  1  0  0  0  0  0999 V2000
    8.6726  -14.5067   19.3433 N   0  0  0  0  0  0  0  0  0  0  0  0
    7.5771  -14.3364   20.2688 C   0  0  1  0  0  0  0  0  0  0  0  0
    6.5836  -15.4758   20.1536 C   0  0  0  0  0  0  0  0  0  0  0  0
    7.3185  -16.9884   20.8086 S   0  0  0  0  0  0  0  0  0  0  0  0
    8.0488  -14.1948   21.6701 C   0  0  0  0  0  0  0  0  0  0  0  0
    9.2407  -14.5350   21.9010 O   0  0  0  0  0  0  0  0  0  0  0  0
    6.1950  -12.4959   27.3928 C   0  0  0  0  0  0  0  0  0  0  0  0
    7.3283  -12.9857   26.4709 C   0  0  2  0  0  0  0  0  0  0  0  0
    8.5668  -12.2114   26.7848 C   0  0  0  0  0  0  0  0  0  0  0  0
    6.9065  -12.8867   25.0355 C   0  0  0  0  0  0  0  0  0  0  0  0
    7.6956  -13.6783   24.0598 C   0  0  2  0  0  0  0  0  0  0  0  0
    7.2374  -13.7089   22.7184 N   0  0  0  0  0  0  0  0  0  0  0  0
    7.8606  -15.0547   24.6350 C   0  0  0  0  0  0  0  0  0  0  0  0
    6.8159  -15.7344   24.7672 O   0  0  0  0  0  0  0  0  0  0  0  0
   11.3330  -19.3693   22.9733 N   0  0  0  0  0  0  0  0  0  0  0  0
   11.6643  -17.9936   22.9513 C   0  0  0  0  0  0  0  0  0  0  0  0
   12.5952  -17.5729   22.2359 O   0  0  0  0  0  0  0  0  0  0  0  0
   10.8729  -17.0669   23.8032 C   0  0  0  0  0  0  0  0  0  0  0  0
    9.9032  -17.8796   24.6352 C   0  0  0  0  0  0  0  0  0  0  0  0
    9.1769  -16.9163   25.5516 C   0  0  2  0  0  0  0  0  0  0  0  0
    9.1071  -15.5928   25.0192 N   0  0  0  0  0  0  0  0  0  0  0  0
    9.7720  -16.8778   26.8960 C   0  0  0  0  0  0  0  0  0  0  0  0
    9.9960  -17.9107   27.5799 O   0  0  0  0  0  0  0  0  0  0  0  0
   10.1109  -15.6614   27.4590 O   0  0  0  0  0  0  0  0  0  0  0  0
  2  1  1  6
  3  2  1  0
  4  3  1  0
  5  6  2  0
  5  2  1  0
  8 10  1  0
  8  7  1  1
  9  8  1  0
 11 10  1  1
 11 12  1  0
 12  5  1  0
 13 11  1  0
 14 13  2  0
 16 15  1  0
 17 16  2  0
 18 16  1  0
 19 18  1  0
 20 19  1  6
 20 21  1  0
 21 13  1  0
 22 24  1  0
 22 20  1  0
 23 22  2  0
M  END
$$$$
