CLQ.pdb
     RDKit          3D

 24 23  0  0  1  0  0  0  0  0999 V2000
    9.7037  -19.0621   16.5330 N   0  0  0  0  0  0  0  0  0  0  0  0
    8.7630  -18.9222   17.6198 C   0  0  1  0  0  0  0  0  0  0  0  0
    8.5936  -20.2309   18.3664 C   0  0  0  0  0  0  0  0  0  0  0  0
    7.3874  -21.2647   17.5099 S   0  0  0  0  0  0  0  0  0  0  0  0
    9.1496  -17.8344   18.5544 C   0  0  0  0  0  0  0  0  0  0  0  0
   10.3797  -17.5691   18.6330 O   0  0  0  0  0  0  0  0  0  0  0  0
    6.8082  -12.9881   21.7206 C   0  0  0  0  0  0  0  0  0  0  0  0
    8.0232  -13.7760   21.1945 C   0  0  2  0  0  0  0  0  0  0  0  0
    8.8707  -12.8562   20.3772 C   0  0  0  0  0  0  0  0  0  0  0  0
    7.5663  -14.9931   20.4475 C   0  0  0  0  0  0  0  0  0  0  0  0
    8.6119  -15.9886   20.1056 C   0  0  2  0  0  0  0  0  0  0  0  0
    8.2199  -17.1105   19.3323 N   0  0  0  0  0  0  0  0  0  0  0  0
    9.2803  -16.3888   21.3884 C   0  0  0  0  0  0  0  0  0  0  0  0
    8.6676  -17.2156   22.1039 O   0  0  0  0  0  0  0  0  0  0  0  0
   14.8972  -14.8026   22.6514 N   0  0  0  0  0  0  0  0  0  0  0  0
   14.5464  -15.7859   21.6959 C   0  0  0  0  0  0  0  0  0  0  0  0
   15.2909  -16.0260   20.7246 O   0  0  0  0  0  0  0  0  0  0  0  0
   13.2684  -16.5224   21.8829 C   0  0  0  0  0  0  0  0  0  0  0  0
   12.5877  -16.0058   23.1329 C   0  0  0  0  0  0  0  0  0  0  0  0
   11.1165  -16.3496   23.0211 C   0  0  2  0  0  0  0  0  0  0  0  0
   10.5310  -15.8849   21.8040 N   0  0  0  0  0  0  0  0  0  0  0  0
   10.3428  -15.8459   24.1659 C   0  0  0  0  0  0  0  0  0  0  0  0
    9.6290  -14.8103   24.1126 O   0  0  0  0  0  0  0  0  0  0  0  0
   10.3841  -16.5236   25.3702 O   0  0  0  0  0  0  0  0  0  0  0  0
  2  1  1  6
  3  2  1  0
  4  3  1  0
  5  6  2  0
  5  2  1  0
  8 10  1  0
  8  7  1  6
  9  8  1  0
 11 10  1  1
 11 12  1  0
 12  5  1  0
 13 11  1  0
 14 13  2  0
 16 15  1  0
 17 16  2  0
 18 16  1  0
 19 18  1  0
 20 19  1  1
 20 21  1  0
 21 13  1  0
 22 24  1  0
 22 20  1  0
 23 22  2  0
M  END
$$$$
