CLQ.pdb
     RDKit          3D

 24 23  0  0  1  0  0  0  0  0999 V2000
   10.2663  -18.5045   15.7993 N   0  0  0  0  0  0  0  0  0  0  0  0
    9.0501  -18.2322   16.5291 C   0  0  1  0  0  0  0  0  0  0  0  0
    8.3766  -19.5183   16.9659 C   0  0  0  0  0  0  0  0  0  0  0  0
    9.3432  -20.2924   18.2787 S   0  0  0  0  0  0  0  0  0  0  0  0
    9.2878  -17.3449   17.6963 C   0  0  0  0  0  0  0  0  0  0  0  0
   10.4825  -17.2289   18.0824 O   0  0  0  0  0  0  0  0  0  0  0  0
    6.6099  -13.0247   21.3275 C   0  0  0  0  0  0  0  0  0  0  0  0
    7.8760  -13.6763   20.7389 C   0  0  2  0  0  0  0  0  0  0  0  0
    8.7509  -12.6010   20.1817 C   0  0  0  0  0  0  0  0  0  0  0  0
    7.4993  -14.7237   19.7343 C   0  0  0  0  0  0  0  0  0  0  0  0
    8.5388  -15.7315   19.4105 C   0  0  2  0  0  0  0  0  0  0  0  0
    8.2582  -16.6496   18.3670 N   0  0  0  0  0  0  0  0  0  0  0  0
    8.9018  -16.4226   20.6924 C   0  0  0  0  0  0  0  0  0  0  0  0
    8.4049  -17.5586   20.8754 O   0  0  0  0  0  0  0  0  0  0  0  0
   12.7879  -20.3123   20.8782 N   0  0  0  0  0  0  0  0  0  0  0  0
   13.3320  -19.1812   21.5319 C   0  0  0  0  0  0  0  0  0  0  0  0
   14.5341  -18.8801   21.3918 O   0  0  0  0  0  0  0  0  0  0  0  0
   12.4317  -18.3644   22.3882 C   0  0  0  0  0  0  0  0  0  0  0  0
   11.5912  -17.4728   21.4985 C   0  0  0  0  0  0  0  0  0  0  0  0
   10.6508  -16.6957   22.3968 C   0  0  2  0  0  0  0  0  0  0  0  0
    9.7534  -15.8587   21.6659 N   0  0  0  0  0  0  0  0  0  0  0  0
   11.3759  -15.8925   23.3927 C   0  0  0  0  0  0  0  0  0  0  0  0
   11.5785  -14.6565   23.2654 O   0  0  0  0  0  0  0  0  0  0  0  0
   11.8693  -16.4995   24.5326 O   0  0  0  0  0  0  0  0  0  0  0  0
  2  1  1  1
  3  2  1  0
  4  3  1  0
  5  6  2  0
  5  2  1  0
  8 10  1  0
  8  7  1  6
  9  8  1  0
 11 10  1  1
 11 12  1  0
 12  5  1  0
 13 11  1  0
 14 13  2  0
 16 15  1  0
 17 16  2  0
 18 16  1  0
 19 18  1  0
 20 19  1  6
 20 21  1  0
 21 13  1  0
 22 24  1  0
 22 20  1  0
 23 22  2  0
M  END
$$$$
