CLQ.pdb
     RDKit          3D

 24 23  0  0  1  0  0  0  0  0999 V2000
   10.6337  -17.9892   16.4890 N   0  0  0  0  0  0  0  0  0  0  0  0
    9.5463  -18.0774   17.4353 C   0  0  1  0  0  0  0  0  0  0  0  0
    9.2011  -19.5227   17.7363 C   0  0  0  0  0  0  0  0  0  0  0  0
    8.7253  -20.3619   16.2110 S   0  0  0  0  0  0  0  0  0  0  0  0
    9.8386  -17.3384   18.6900 C   0  0  0  0  0  0  0  0  0  0  0  0
   11.0469  -17.2892   19.0471 O   0  0  0  0  0  0  0  0  0  0  0  0
    8.7678  -12.9655   19.8046 C   0  0  0  0  0  0  0  0  0  0  0  0
    7.6566  -13.9784   20.1413 C   0  0  2  0  0  0  0  0  0  0  0  0
    6.4559  -13.2281   20.6183 C   0  0  0  0  0  0  0  0  0  0  0  0
    8.1609  -14.9912   21.1251 C   0  0  0  0  0  0  0  0  0  0  0  0
    9.1751  -15.9507   20.6230 C   0  0  2  0  0  0  0  0  0  0  0  0
    8.8451  -16.7096   19.4718 N   0  0  0  0  0  0  0  0  0  0  0  0
    9.5758  -16.8190   21.7798 C   0  0  0  0  0  0  0  0  0  0  0  0
    8.9705  -17.9104   21.8957 O   0  0  0  0  0  0  0  0  0  0  0  0
   15.1596  -18.3209   23.0478 N   0  0  0  0  0  0  0  0  0  0  0  0
   14.5328  -18.9291   24.1613 C   0  0  0  0  0  0  0  0  0  0  0  0
   15.1740  -19.6801   24.9231 O   0  0  0  0  0  0  0  0  0  0  0  0
   13.0917  -18.6479   24.3962 C   0  0  0  0  0  0  0  0  0  0  0  0
   12.5945  -17.7170   23.3103 C   0  0  0  0  0  0  0  0  0  0  0  0
   11.1263  -17.4555   23.5768 C   0  0  2  0  0  0  0  0  0  0  0  0
   10.5752  -16.4630   22.7100 N   0  0  0  0  0  0  0  0  0  0  0  0
   10.8769  -17.0824   24.9774 C   0  0  0  0  0  0  0  0  0  0  0  0
   10.4571  -15.9472   25.3235 O   0  0  0  0  0  0  0  0  0  0  0  0
   11.1066  -18.0044   25.9817 O   0  0  0  0  0  0  0  0  0  0  0  0
  2  1  1  6
  3  2  1  0
  4  3  1  0
  5  6  2  0
  5  2  1  0
  8 10  1  0
  8  7  1  1
  9  8  1  0
 11 10  1  1
 11 12  1  0
 12  5  1  0
 13 11  1  0
 14 13  2  0
 16 15  1  0
 17 16  2  0
 18 16  1  0
 19 18  1  0
 20 19  1  1
 20 21  1  0
 21 13  1  0
 22 24  1  0
 22 20  1  0
 23 22  2  0
M  END
$$$$
