CLQ.pdb
     RDKit          3D

 24 23  0  0  1  0  0  0  0  0999 V2000
    7.6743  -15.3319   20.3301 N   0  0  0  0  0  0  0  0  0  0  0  0
    7.1147  -15.6739   21.6169 C   0  0  1  0  0  0  0  0  0  0  0  0
    7.1259  -17.1741   21.8352 C   0  0  0  0  0  0  0  0  0  0  0  0
    6.2927  -17.5663   23.3874 S   0  0  0  0  0  0  0  0  0  0  0  0
    7.8115  -14.9792   22.7295 C   0  0  0  0  0  0  0  0  0  0  0  0
    9.0491  -14.7852   22.5862 O   0  0  0  0  0  0  0  0  0  0  0  0
    7.4203  -10.9719   25.2292 C   0  0  0  0  0  0  0  0  0  0  0  0
    6.3978  -12.0493   25.6388 C   0  0  2  0  0  0  0  0  0  0  0  0
    5.5110  -11.4860   26.7010 C   0  0  0  0  0  0  0  0  0  0  0  0
    7.1065  -13.3042   26.0523 C   0  0  0  0  0  0  0  0  0  0  0  0
    7.8818  -14.0024   24.9974 C   0  0  2  0  0  0  0  0  0  0  0  0
    7.1597  -14.5427   23.9034 N   0  0  0  0  0  0  0  0  0  0  0  0
    8.7329  -15.0328   25.6804 C   0  0  0  0  0  0  0  0  0  0  0  0
    9.2534  -14.6954   26.7695 O   0  0  0  0  0  0  0  0  0  0  0  0
    7.3881  -20.5412   27.4025 N   0  0  0  0  0  0  0  0  0  0  0  0
    8.2016  -19.8820   28.3545 C   0  0  0  0  0  0  0  0  0  0  0  0
    8.3336  -20.3397   29.5072 O   0  0  0  0  0  0  0  0  0  0  0  0
    8.8926  -18.6316   27.9422 C   0  0  0  0  0  0  0  0  0  0  0  0
    8.5315  -18.3282   26.5033 C   0  0  0  0  0  0  0  0  0  0  0  0
    9.5470  -17.3315   25.9833 C   0  0  2  0  0  0  0  0  0  0  0  0
    8.9604  -16.3238   25.1584 N   0  0  0  0  0  0  0  0  0  0  0  0
   10.6440  -17.9885   25.2568 C   0  0  0  0  0  0  0  0  0  0  0  0
   11.4978  -18.7245   25.8173 O   0  0  0  0  0  0  0  0  0  0  0  0
   10.7661  -17.8056   23.8919 O   0  0  0  0  0  0  0  0  0  0  0  0
  2  1  1  6
  3  2  1  0
  4  3  1  0
  5  6  2  0
  5  2  1  0
  8 10  1  0
  8  7  1  1
  9  8  1  0
 11 10  1  1
 11 12  1  0
 12  5  1  0
 13 11  1  0
 14 13  2  0
 16 15  1  0
 17 16  2  0
 18 16  1  0
 19 18  1  0
 20 19  1  6
 20 21  1  0
 21 13  1  0
 22 24  1  0
 22 20  1  0
 23 22  2  0
M  END
$$$$
