CLQ.pdb
     RDKit          3D

 24 23  0  0  1  0  0  0  0  0999 V2000
    8.4734  -17.7787   15.1048 N   0  0  0  0  0  0  0  0  0  0  0  0
    9.7513  -17.1072   15.0624 C   0  0  1  0  0  0  0  0  0  0  0  0
    9.9737  -16.4424   13.7180 C   0  0  0  0  0  0  0  0  0  0  0  0
    8.3855  -15.9529   13.0145 S   0  0  0  0  0  0  0  0  0  0  0  0
    9.8991  -16.1211   16.1632 C   0  0  0  0  0  0  0  0  0  0  0  0
   11.0221  -15.5577   16.2687 O   0  0  0  0  0  0  0  0  0  0  0  0
    6.8903  -13.2181   20.8217 C   0  0  0  0  0  0  0  0  0  0  0  0
    8.1907  -13.4983   20.0443 C   0  0  2  0  0  0  0  0  0  0  0  0
    8.8062  -12.1929   19.6580 C   0  0  0  0  0  0  0  0  0  0  0  0
    7.9122  -14.3986   18.8781 C   0  0  0  0  0  0  0  0  0  0  0  0
    9.0937  -14.9996   18.2116 C   0  0  2  0  0  0  0  0  0  0  0  0
    8.8615  -15.8022   17.0660 N   0  0  0  0  0  0  0  0  0  0  0  0
    9.8755  -15.7275   19.2658 C   0  0  0  0  0  0  0  0  0  0  0  0
    9.4110  -16.8275   19.6469 O   0  0  0  0  0  0  0  0  0  0  0  0
   15.9617  -15.6039   20.0633 N   0  0  0  0  0  0  0  0  0  0  0  0
   15.1504  -14.4623   19.8603 C   0  0  0  0  0  0  0  0  0  0  0  0
   15.6335  -13.4107   19.3953 O   0  0  0  0  0  0  0  0  0  0  0  0
   13.7095  -14.5524   20.2161 C   0  0  0  0  0  0  0  0  0  0  0  0
   13.3355  -16.0121   20.3646 C   0  0  0  0  0  0  0  0  0  0  0  0
   11.8551  -16.0692   20.6811 C   0  0  2  0  0  0  0  0  0  0  0  0
   11.0739  -15.2350   19.8245 N   0  0  0  0  0  0  0  0  0  0  0  0
   11.5772  -15.7337   22.0858 C   0  0  0  0  0  0  0  0  0  0  0  0
   10.8033  -14.8029   22.4315 O   0  0  0  0  0  0  0  0  0  0  0  0
   12.1822  -16.4600   23.0947 O   0  0  0  0  0  0  0  0  0  0  0  0
  2  1  1  6
  3  2  1  0
  4  3  1  0
  5  6  2  0
  5  2  1  0
  8 10  1  0
  8  7  1  6
  9  8  1  0
 11 10  1  1
 11 12  1  0
 12  5  1  0
 13 11  1  0
 14 13  2  0
 16 15  1  0
 17 16  2  0
 18 16  1  0
 19 18  1  0
 20 19  1  6
 20 21  1  0
 21 13  1  0
 22 24  1  0
 22 20  1  0
 23 22  2  0
M  END
$$$$
