CLQ.pdb
     RDKit          3D

 24 23  0  0  1  0  0  0  0  0999 V2000
    7.1539  -16.7519   21.1832 N   0  0  0  0  0  0  0  0  0  0  0  0
    6.9085  -16.7718   22.6062 C   0  0  1  0  0  0  0  0  0  0  0  0
    7.1124  -18.1621   23.1756 C   0  0  0  0  0  0  0  0  0  0  0  0
    6.6734  -18.1699   24.9261 S   0  0  0  0  0  0  0  0  0  0  0  0
    7.7479  -15.7830   23.3300 C   0  0  0  0  0  0  0  0  0  0  0  0
    8.9374  -15.6546   22.9321 O   0  0  0  0  0  0  0  0  0  0  0  0
    7.0989  -11.3168   24.6092 C   0  0  0  0  0  0  0  0  0  0  0  0
    6.4784  -12.3567   25.5618 C   0  0  2  0  0  0  0  0  0  0  0  0
    5.6821  -11.6365   26.6008 C   0  0  0  0  0  0  0  0  0  0  0  0
    7.5482  -13.2396   26.1312 C   0  0  0  0  0  0  0  0  0  0  0  0
    8.1560  -14.2232   25.2015 C   0  0  2  0  0  0  0  0  0  0  0  0
    7.2775  -15.0073   24.4118 N   0  0  0  0  0  0  0  0  0  0  0  0
    9.1031  -15.0664   26.0044 C   0  0  0  0  0  0  0  0  0  0  0  0
   10.0781  -14.4732   26.5225 O   0  0  0  0  0  0  0  0  0  0  0  0
    8.2164  -20.5233   28.9301 N   0  0  0  0  0  0  0  0  0  0  0  0
    9.5416  -20.1829   29.2920 C   0  0  0  0  0  0  0  0  0  0  0  0
   10.1753  -20.8727   30.1155 O   0  0  0  0  0  0  0  0  0  0  0  0
   10.1549  -18.9828   28.6639 C   0  0  0  0  0  0  0  0  0  0  0  0
    9.1324  -18.3331   27.7555 C   0  0  0  0  0  0  0  0  0  0  0  0
    9.8111  -17.1609   27.0769 C   0  0  2  0  0  0  0  0  0  0  0  0
    8.9410  -16.4556   26.1906 N   0  0  0  0  0  0  0  0  0  0  0  0
   11.0269  -17.5680   26.3565 C   0  0  0  0  0  0  0  0  0  0  0  0
   11.0989  -17.6184   25.1007 O   0  0  0  0  0  0  0  0  0  0  0  0
   12.1591  -17.9172   27.0689 O   0  0  0  0  0  0  0  0  0  0  0  0
  2  1  1  6
  3  2  1  0
  4  3  1  0
  5  6  2  0
  5  2  1  0
  8 10  1  0
  8  7  1  6
  9  8  1  0
 11 10  1  1
 11 12  1  0
 12  5  1  0
 13 11  1  0
 14 13  2  0
 16 15  1  0
 17 16  2  0
 18 16  1  0
 19 18  1  0
 20 19  1  6
 20 21  1  0
 21 13  1  0
 22 24  1  0
 22 20  1  0
 23 22  2  0
M  END
$$$$
