QKH.pdb
     RDKit          3D

 29 29  0  0  1  0  0  0  0  0999 V2000
    6.0318  -13.6035   16.3724 N   0  0  0  0  0  0  0  0  0  0  0  0
    7.1026  -13.3749   15.4744 C   0  0  0  0  0  0  0  0  0  0  0  0
    6.8820  -13.2566   14.2488 O   0  0  0  0  0  0  0  0  0  0  0  0
    8.4646  -13.2784   15.9880 C   0  0  0  0  0  0  0  0  0  0  0  0
    8.5805  -13.6634   17.4477 C   0  0  0  0  0  0  0  0  0  0  0  0
    9.5301  -14.8371   17.5125 C   0  0  2  0  0  0  0  0  0  0  0  0
    9.0815  -15.8388   16.5985 N   0  0  0  0  0  0  0  0  0  0  0  0
    9.6836  -15.3524   18.8954 C   0  0  0  0  0  0  0  0  0  0  0  0
   10.0799  -14.6404   19.8426 O   0  0  0  0  0  0  0  0  0  0  0  0
    9.3742  -16.7037   19.1779 N   0  0  0  0  0  0  0  0  0  0  0  0
    9.4455  -17.2717   20.5332 C   0  0  1  0  0  0  0  0  0  0  0  0
    8.7467  -18.6019   20.5723 C   0  0  0  0  0  0  0  0  0  0  0  0
    7.3206  -18.4505   20.1324 C   0  0  0  0  0  0  0  0  0  0  0  0
    6.5953  -19.8051   20.1262 C   0  0  0  0  0  0  0  0  0  0  0  0
    5.1556  -19.6083   19.7975 C   0  0  0  0  0  0  0  0  0  0  0  0
    4.4284  -20.8762   19.7953 N   0  0  0  0  0  0  0  0  0  0  0  0
   10.8349  -17.2699   21.0140 C   0  0  0  0  0  0  0  0  0  0  0  0
   11.7449  -17.9975   20.5591 O   0  0  0  0  0  0  0  0  0  0  0  0
   11.2531  -16.3868   22.0905 N   0  0  0  0  0  0  0  0  0  0  0  0
   12.5614  -16.4825   22.6822 C   0  0  1  0  0  0  0  0  0  0  0  0
   13.4824  -15.3551   22.3996 C   0  0  0  0  0  0  0  0  0  0  0  0
   13.8697  -15.1231   21.0154 C   0  0  0  0  0  0  0  0  0  0  0  0
   13.5299  -15.8061   19.8906 C   0  0  0  0  0  0  0  0  0  0  0  0
   14.1058  -15.2045   18.8000 N   0  0  0  0  0  0  0  0  0  0  0  0
   14.7793  -14.1704   19.3017 C   0  0  0  0  0  0  0  0  0  0  0  0
   14.6551  -14.0988   20.6213 N   0  0  0  0  0  0  0  0  0  0  0  0
   12.4740  -16.7973   24.1427 C   0  0  0  0  0  0  0  0  0  0  0  0
   11.2746  -16.9648   24.8139 O   0  0  0  0  0  0  0  0  0  0  0  0
   13.5360  -16.9181   24.8035 O   0  0  0  0  0  0  0  0  0  0  0  0
  2  1  1  0
  2  3  2  0
  4  2  1  0
  5  4  1  0
  5  6  1  0
  6  7  1  6
  8  6  1  0
  8  9  2  0
 10  8  1  0
 11 10  1  0
 11 12  1  6
 13 12  1  0
 13 14  1  0
 15 14  1  0
 16 15  1  0
 17 11  1  0
 18 17  2  0
 19 17  1  0
 20 19  1  0
 20 27  1  0
 20 21  1  1
 22 23  2  0
 22 21  1  0
 24 23  1  0
 25 26  2  0
 25 24  1  0
 26 22  1  0
 27 28  1  0
 29 27  2  0
M  END
$$$$
