QKH.pdb
     RDKit          3D

 29 29  0  0  1  0  0  0  0  0999 V2000
   17.1632  -11.8060   15.9681 N   0  0  0  0  0  0  0  0  0  0  0  0
   16.8935  -13.0857   15.4252 C   0  0  0  0  0  0  0  0  0  0  0  0
   16.7842  -13.2344   14.1880 O   0  0  0  0  0  0  0  0  0  0  0  0
   16.7438  -14.2295   16.3183 C   0  0  0  0  0  0  0  0  0  0  0  0
   15.7925  -13.9690   17.4670 C   0  0  0  0  0  0  0  0  0  0  0  0
   15.0078  -15.2431   17.6776 C   0  0  2  0  0  0  0  0  0  0  0  0
   14.1712  -15.4577   16.5401 N   0  0  0  0  0  0  0  0  0  0  0  0
   14.2471  -15.2236   18.9513 C   0  0  0  0  0  0  0  0  0  0  0  0
   14.7890  -15.0278   20.0600 O   0  0  0  0  0  0  0  0  0  0  0  0
   12.8480  -15.4329   18.9351 N   0  0  0  0  0  0  0  0  0  0  0  0
   12.0316  -15.4616   20.1587 C   0  0  1  0  0  0  0  0  0  0  0  0
   10.5728  -15.3740   19.8075 C   0  0  0  0  0  0  0  0  0  0  0  0
   10.3152  -14.1596   18.9653 C   0  0  0  0  0  0  0  0  0  0  0  0
    8.8245  -14.0338   18.6148 C   0  0  0  0  0  0  0  0  0  0  0  0
    8.6201  -12.9040   17.6654 C   0  0  0  0  0  0  0  0  0  0  0  0
    7.2094  -12.7457   17.3168 N   0  0  0  0  0  0  0  0  0  0  0  0
   12.4147  -16.6047   21.0001 C   0  0  0  0  0  0  0  0  0  0  0  0
   13.0225  -17.6176   20.5886 O   0  0  0  0  0  0  0  0  0  0  0  0
   12.0981  -16.6291   22.4188 N   0  0  0  0  0  0  0  0  0  0  0  0
   13.0437  -17.0981   23.3970 C   0  0  1  0  0  0  0  0  0  0  0  0
   14.3864  -16.4703   23.3506 C   0  0  0  0  0  0  0  0  0  0  0  0
   15.4218  -17.1345   22.5717 C   0  0  0  0  0  0  0  0  0  0  0  0
   15.3091  -18.0774   21.5994 C   0  0  0  0  0  0  0  0  0  0  0  0
   16.5563  -18.3892   21.1193 N   0  0  0  0  0  0  0  0  0  0  0  0
   17.3890  -17.6206   21.8196 C   0  0  0  0  0  0  0  0  0  0  0  0
   16.7380  -16.8621   22.6931 N   0  0  0  0  0  0  0  0  0  0  0  0
   12.4530  -17.0842   24.7720 C   0  0  0  0  0  0  0  0  0  0  0  0
   12.8717  -17.9265   25.7881 O   0  0  0  0  0  0  0  0  0  0  0  0
   11.5298  -16.2712   25.0292 O   0  0  0  0  0  0  0  0  0  0  0  0
  2  1  1  0
  2  3  2  0
  4  2  1  0
  5  4  1  0
  5  6  1  0
  6  7  1  6
  8  6  1  0
  8  9  2  0
 10  8  1  0
 11 10  1  0
 11 12  1  6
 13 12  1  0
 13 14  1  0
 15 14  1  0
 16 15  1  0
 17 11  1  0
 18 17  2  0
 19 17  1  0
 20 19  1  0
 20 27  1  0
 20 21  1  1
 22 23  2  0
 22 21  1  0
 24 23  1  0
 25 26  2  0
 25 24  1  0
 26 22  1  0
 27 28  1  0
 29 27  2  0
M  END
$$$$
