QKH.pdb
     RDKit          3D

 29 29  0  0  1  0  0  0  0  0999 V2000
   14.2309  -14.1286   20.1368 N   0  0  0  0  0  0  0  0  0  0  0  0
   13.8548  -14.6200   18.8630 C   0  0  0  0  0  0  0  0  0  0  0  0
   14.7293  -14.9109   18.0172 O   0  0  0  0  0  0  0  0  0  0  0  0
   12.4409  -14.7847   18.5438 C   0  0  0  0  0  0  0  0  0  0  0  0
   11.5290  -14.5325   19.7259 C   0  0  0  0  0  0  0  0  0  0  0  0
   10.1329  -14.9050   19.2836 C   0  0  2  0  0  0  0  0  0  0  0  0
    9.5607  -13.7936   18.5927 N   0  0  0  0  0  0  0  0  0  0  0  0
    9.2948  -15.3661   20.4178 C   0  0  0  0  0  0  0  0  0  0  0  0
    8.5568  -14.5973   21.0701 O   0  0  0  0  0  0  0  0  0  0  0  0
    9.3155  -16.7294   20.7953 N   0  0  0  0  0  0  0  0  0  0  0  0
    8.6715  -17.2275   22.0208 C   0  0  1  0  0  0  0  0  0  0  0  0
    8.2690  -18.6648   21.8443 C   0  0  0  0  0  0  0  0  0  0  0  0
    7.7461  -19.2184   23.1367 C   0  0  0  0  0  0  0  0  0  0  0  0
    7.1852  -20.6362   22.9463 C   0  0  0  0  0  0  0  0  0  0  0  0
    6.7085  -21.1728   24.2518 C   0  0  0  0  0  0  0  0  0  0  0  0
    6.2554  -22.5571   24.1288 N   0  0  0  0  0  0  0  0  0  0  0  0
    9.5148  -16.9433   23.1911 C   0  0  0  0  0  0  0  0  0  0  0  0
   10.7503  -17.1322   23.2391 O   0  0  0  0  0  0  0  0  0  0  0  0
    8.9416  -16.4035   24.4133 N   0  0  0  0  0  0  0  0  0  0  0  0
    9.7516  -16.1229   25.5691 C   0  0  1  0  0  0  0  0  0  0  0  0
    9.3487  -14.9411   26.3692 C   0  0  0  0  0  0  0  0  0  0  0  0
    9.9908  -14.7423   27.6606 C   0  0  0  0  0  0  0  0  0  0  0  0
   10.8353  -15.5565   28.3470 C   0  0  0  0  0  0  0  0  0  0  0  0
   11.2188  -14.9390   29.5110 N   0  0  0  0  0  0  0  0  0  0  0  0
   10.5916  -13.7640   29.4920 C   0  0  0  0  0  0  0  0  0  0  0  0
    9.8523  -13.6210   28.3988 N   0  0  0  0  0  0  0  0  0  0  0  0
    9.9380  -17.3466   26.4103 C   0  0  0  0  0  0  0  0  0  0  0  0
   11.1347  -17.6705   27.0269 O   0  0  0  0  0  0  0  0  0  0  0  0
    8.9664  -18.1270   26.5725 O   0  0  0  0  0  0  0  0  0  0  0  0
  2  1  1  0
  2  3  2  0
  4  2  1  0
  5  4  1  0
  5  6  1  0
  6  7  1  1
  8  6  1  0
  8  9  2  0
 10  8  1  0
 11 10  1  0
 11 12  1  6
 13 12  1  0
 13 14  1  0
 15 14  1  0
 16 15  1  0
 17 11  1  0
 18 17  2  0
 19 17  1  0
 20 19  1  0
 20 27  1  0
 20 21  1  1
 22 23  2  0
 22 21  1  0
 24 23  1  0
 25 26  2  0
 25 24  1  0
 26 22  1  0
 27 28  1  0
 29 27  2  0
M  END
$$$$
