QKH.pdb
     RDKit          3D

 29 29  0  0  1  0  0  0  0  0999 V2000
   13.3765  -23.5231   12.4403 N   0  0  0  0  0  0  0  0  0  0  0  0
   13.7385  -22.1541   12.4417 C   0  0  0  0  0  0  0  0  0  0  0  0
   14.9443  -21.8218   12.4200 O   0  0  0  0  0  0  0  0  0  0  0  0
   12.6960  -21.1340   12.4689 C   0  0  0  0  0  0  0  0  0  0  0  0
   12.4588  -20.5598   13.8497 C   0  0  0  0  0  0  0  0  0  0  0  0
   10.9707  -20.3279   13.9729 C   0  0  2  0  0  0  0  0  0  0  0  0
   10.6103  -19.2224   13.1435 N   0  0  0  0  0  0  0  0  0  0  0  0
   10.5518  -20.1441   15.3844 C   0  0  0  0  0  0  0  0  0  0  0  0
   11.1061  -19.3310   16.1543 O   0  0  0  0  0  0  0  0  0  0  0  0
    9.4818  -20.9107   15.9031 N   0  0  0  0  0  0  0  0  0  0  0  0
    9.0143  -20.7898   17.2929 C   0  0  1  0  0  0  0  0  0  0  0  0
    7.6679  -21.4409   17.4426 C   0  0  0  0  0  0  0  0  0  0  0  0
    6.6398  -20.6928   16.6468 C   0  0  0  0  0  0  0  0  0  0  0  0
    5.2535  -21.3414   16.7825 C   0  0  0  0  0  0  0  0  0  0  0  0
    4.2846  -20.6620   15.8774 C   0  0  0  0  0  0  0  0  0  0  0  0
    2.9740  -21.3082   15.9133 N   0  0  0  0  0  0  0  0  0  0  0  0
   10.0530  -21.2577   18.2223 C   0  0  0  0  0  0  0  0  0  0  0  0
   10.7756  -22.2610   18.0333 O   0  0  0  0  0  0  0  0  0  0  0  0
   10.3144  -20.5549   19.4678 N   0  0  0  0  0  0  0  0  0  0  0  0
   11.3639  -20.9662   20.3625 C   0  0  1  0  0  0  0  0  0  0  0  0
   12.7051  -20.3948   20.0911 C   0  0  0  0  0  0  0  0  0  0  0  0
   13.7964  -20.7679   20.9797 C   0  0  0  0  0  0  0  0  0  0  0  0
   13.7639  -21.4209   22.1712 C   0  0  0  0  0  0  0  0  0  0  0  0
   15.0442  -21.5841   22.6372 N   0  0  0  0  0  0  0  0  0  0  0  0
   15.8156  -21.0222   21.7079 C   0  0  0  0  0  0  0  0  0  0  0  0
   15.0963  -20.5276   20.7078 N   0  0  0  0  0  0  0  0  0  0  0  0
   10.9517  -20.8042   21.7921 C   0  0  0  0  0  0  0  0  0  0  0  0
    9.7617  -20.2107   22.1778 O   0  0  0  0  0  0  0  0  0  0  0  0
   11.7161  -21.2243   22.6968 O   0  0  0  0  0  0  0  0  0  0  0  0
  2  1  1  0
  2  3  2  0
  4  2  1  0
  5  4  1  0
  5  6  1  0
  6  7  1  6
  8  6  1  0
  8  9  2  0
 10  8  1  0
 11 10  1  0
 11 12  1  6
 13 12  1  0
 13 14  1  0
 15 14  1  0
 16 15  1  0
 17 11  1  0
 18 17  2  0
 19 17  1  0
 20 19  1  0
 20 27  1  0
 20 21  1  6
 22 23  2  0
 22 21  1  0
 24 23  1  0
 25 26  2  0
 25 24  1  0
 26 22  1  0
 27 28  1  0
 29 27  2  0
M  END
$$$$
