QKH.pdb
     RDKit          3D

 29 29  0  0  1  0  0  0  0  0999 V2000
   13.7627  -17.0977   14.7195 N   0  0  0  0  0  0  0  0  0  0  0  0
   12.7281  -17.3229   13.7792 C   0  0  0  0  0  0  0  0  0  0  0  0
   13.0060  -17.6286   12.5985 O   0  0  0  0  0  0  0  0  0  0  0  0
   11.3360  -17.1960   14.1965 C   0  0  0  0  0  0  0  0  0  0  0  0
   11.1817  -16.8521   15.6630 C   0  0  0  0  0  0  0  0  0  0  0  0
    9.6975  -16.7764   15.9366 C   0  0  2  0  0  0  0  0  0  0  0  0
    9.1531  -15.6783   15.2033 N   0  0  0  0  0  0  0  0  0  0  0  0
    9.4033  -16.6961   17.3887 C   0  0  0  0  0  0  0  0  0  0  0  0
    9.5196  -15.6393   18.0451 O   0  0  0  0  0  0  0  0  0  0  0  0
    8.9714  -17.8518   18.0810 N   0  0  0  0  0  0  0  0  0  0  0  0
    8.7847  -17.8844   19.5400 C   0  0  1  0  0  0  0  0  0  0  0  0
    7.8668  -19.0132   19.9174 C   0  0  0  0  0  0  0  0  0  0  0  0
    7.6496  -19.0296   21.4016 C   0  0  0  0  0  0  0  0  0  0  0  0
    6.7003  -20.1664   21.8107 C   0  0  0  0  0  0  0  0  0  0  0  0
    6.4153  -20.0887   23.2709 C   0  0  0  0  0  0  0  0  0  0  0  0
    5.4881  -21.1372   23.6924 N   0  0  0  0  0  0  0  0  0  0  0  0
   10.0877  -17.8708   20.2208 C   0  0  0  0  0  0  0  0  0  0  0  0
   11.0090  -18.6897   20.0080 O   0  0  0  0  0  0  0  0  0  0  0  0
   10.3979  -16.8645   21.2232 N   0  0  0  0  0  0  0  0  0  0  0  0
   11.6660  -16.8399   21.9032 C   0  0  1  0  0  0  0  0  0  0  0  0
   12.4755  -15.6115   21.7165 C   0  0  0  0  0  0  0  0  0  0  0  0
   12.8885  -15.2676   20.3635 C   0  0  0  0  0  0  0  0  0  0  0  0
   13.2952  -16.0725   19.3467 C   0  0  0  0  0  0  0  0  0  0  0  0
   13.5538  -15.3093   18.2360 N   0  0  0  0  0  0  0  0  0  0  0  0
   13.2937  -14.0597   18.6174 C   0  0  0  0  0  0  0  0  0  0  0  0
   12.8947  -14.0067   19.8823 N   0  0  0  0  0  0  0  0  0  0  0  0
   11.5151  -17.2119   23.3449 C   0  0  0  0  0  0  0  0  0  0  0  0
   12.5888  -17.3864   24.2016 O   0  0  0  0  0  0  0  0  0  0  0  0
   10.3605  -17.3770   23.8129 O   0  0  0  0  0  0  0  0  0  0  0  0
  2  1  1  0
  2  3  2  0
  4  2  1  0
  5  4  1  0
  5  6  1  0
  6  7  1  6
  8  6  1  0
  8  9  2  0
 10  8  1  0
 11 10  1  0
 11 12  1  6
 13 12  1  0
 13 14  1  0
 15 14  1  0
 16 15  1  0
 17 11  1  0
 18 17  2  0
 19 17  1  0
 20 19  1  0
 20 27  1  0
 20 21  1  1
 22 23  2  0
 22 21  1  0
 24 23  1  0
 25 26  2  0
 25 24  1  0
 26 22  1  0
 27 28  1  0
 29 27  2  0
M  END
$$$$
