QKH.pdb
     RDKit          3D

 29 29  0  0  1  0  0  0  0  0999 V2000
   17.9546  -12.2798   17.3992 N   0  0  0  0  0  0  0  0  0  0  0  0
   17.9492  -13.4418   16.5898 C   0  0  0  0  0  0  0  0  0  0  0  0
   18.9145  -13.6860   15.8327 O   0  0  0  0  0  0  0  0  0  0  0  0
   16.8104  -14.3520   16.6448 C   0  0  0  0  0  0  0  0  0  0  0  0
   15.7372  -13.9069   17.6156 C   0  0  0  0  0  0  0  0  0  0  0  0
   14.9047  -15.1279   17.9310 C   0  0  2  0  0  0  0  0  0  0  0  0
   14.3702  -15.6441   16.7113 N   0  0  0  0  0  0  0  0  0  0  0  0
   13.8544  -14.8396   18.9386 C   0  0  0  0  0  0  0  0  0  0  0  0
   14.1155  -14.4300   20.0898 O   0  0  0  0  0  0  0  0  0  0  0  0
   12.4926  -15.0287   18.6050 N   0  0  0  0  0  0  0  0  0  0  0  0
   11.3956  -14.7574   19.5471 C   0  0  1  0  0  0  0  0  0  0  0  0
   10.1478  -14.3902   18.7938 C   0  0  0  0  0  0  0  0  0  0  0  0
    9.0527  -14.0266   19.7522 C   0  0  0  0  0  0  0  0  0  0  0  0
    7.7643  -13.6489   19.0050 C   0  0  0  0  0  0  0  0  0  0  0  0
    6.6829  -13.3402   19.9821 C   0  0  0  0  0  0  0  0  0  0  0  0
    5.4819  -12.8439   19.3129 N   0  0  0  0  0  0  0  0  0  0  0  0
   11.2577  -15.8670   20.5018 C   0  0  0  0  0  0  0  0  0  0  0  0
   11.3717  -17.0769   20.2059 O   0  0  0  0  0  0  0  0  0  0  0  0
   10.9689  -15.6159   21.9043 N   0  0  0  0  0  0  0  0  0  0  0  0
   11.2536  -16.5929   22.9219 C   0  0  1  0  0  0  0  0  0  0  0  0
   12.6677  -16.6756   23.3608 C   0  0  0  0  0  0  0  0  0  0  0  0
   13.0189  -17.6975   24.3364 C   0  0  0  0  0  0  0  0  0  0  0  0
   12.2373  -18.6348   24.9346 C   0  0  0  0  0  0  0  0  0  0  0  0
   13.0083  -19.4103   25.7635 N   0  0  0  0  0  0  0  0  0  0  0  0
   14.2391  -18.9158   25.6398 C   0  0  0  0  0  0  0  0  0  0  0  0
   14.2734  -17.8932   24.7941 N   0  0  0  0  0  0  0  0  0  0  0  0
   10.3040  -16.4700   24.0720 C   0  0  0  0  0  0  0  0  0  0  0  0
   10.1703  -15.3176   24.8279 O   0  0  0  0  0  0  0  0  0  0  0  0
    9.5865  -17.4558   24.3765 O   0  0  0  0  0  0  0  0  0  0  0  0
  2  1  1  0
  2  3  2  0
  4  2  1  0
  5  4  1  0
  5  6  1  0
  6  7  1  6
  8  6  1  0
  8  9  2  0
 10  8  1  0
 11 10  1  0
 11 12  1  6
 13 12  1  0
 13 14  1  0
 15 14  1  0
 16 15  1  0
 17 11  1  0
 18 17  2  0
 19 17  1  0
 20 19  1  0
 20 27  1  0
 20 21  1  1
 22 23  2  0
 22 21  1  0
 24 23  1  0
 25 26  2  0
 25 24  1  0
 26 22  1  0
 27 28  1  0
 29 27  2  0
M  END
$$$$
