QKH.pdb
     RDKit          3D

 29 29  0  0  1  0  0  0  0  0999 V2000
   13.0957  -13.0487   20.2204 N   0  0  0  0  0  0  0  0  0  0  0  0
   12.8887  -13.8017   19.0391 C   0  0  0  0  0  0  0  0  0  0  0  0
   13.8446  -14.0381   18.2676 O   0  0  0  0  0  0  0  0  0  0  0  0
   11.5534  -14.2999   18.7279 C   0  0  0  0  0  0  0  0  0  0  0  0
   10.5137  -13.9012   19.7538 C   0  0  0  0  0  0  0  0  0  0  0  0
    9.1943  -14.4598   19.2734 C   0  0  2  0  0  0  0  0  0  0  0  0
    8.5240  -13.4560   18.5099 N   0  0  0  0  0  0  0  0  0  0  0  0
    8.3674  -14.9736   20.3931 C   0  0  0  0  0  0  0  0  0  0  0  0
    7.4633  -14.2997   20.9313 O   0  0  0  0  0  0  0  0  0  0  0  0
    8.5937  -16.2789   20.8897 N   0  0  0  0  0  0  0  0  0  0  0  0
    7.8447  -16.8417   22.0241 C   0  0  1  0  0  0  0  0  0  0  0  0
    7.5594  -18.2975   21.7824 C   0  0  0  0  0  0  0  0  0  0  0  0
    6.8155  -18.8796   22.9477 C   0  0  0  0  0  0  0  0  0  0  0  0
    6.4543  -20.3517   22.6958 C   0  0  0  0  0  0  0  0  0  0  0  0
    5.6893  -20.8919   23.8544 C   0  0  0  0  0  0  0  0  0  0  0  0
    5.3933  -22.3133   23.6852 N   0  0  0  0  0  0  0  0  0  0  0  0
    8.5255  -16.5296   23.2892 C   0  0  0  0  0  0  0  0  0  0  0  0
    9.7595  -16.6193   23.4728 O   0  0  0  0  0  0  0  0  0  0  0  0
    7.7764  -16.0794   24.4510 N   0  0  0  0  0  0  0  0  0  0  0  0
    8.4180  -15.8302   25.7148 C   0  0  1  0  0  0  0  0  0  0  0  0
    7.6920  -14.9283   26.6413 C   0  0  0  0  0  0  0  0  0  0  0  0
    7.5643  -13.5271   26.2669 C   0  0  0  0  0  0  0  0  0  0  0  0
    8.2337  -12.8142   25.3231 C   0  0  0  0  0  0  0  0  0  0  0  0
    7.7556  -11.5282   25.2983 N   0  0  0  0  0  0  0  0  0  0  0  0
    6.8064  -11.5032   26.2326 C   0  0  0  0  0  0  0  0  0  0  0  0
    6.6717  -12.6831   26.8258 N   0  0  0  0  0  0  0  0  0  0  0  0
    8.8366  -17.1082   26.3713 C   0  0  0  0  0  0  0  0  0  0  0  0
    9.9412  -17.2113   27.1998 O   0  0  0  0  0  0  0  0  0  0  0  0
    8.1591  -18.1469   26.1679 O   0  0  0  0  0  0  0  0  0  0  0  0
  2  1  1  0
  2  3  2  0
  4  2  1  0
  5  4  1  0
  5  6  1  0
  6  7  1  1
  8  6  1  0
  8  9  2  0
 10  8  1  0
 11 10  1  0
 11 12  1  6
 13 12  1  0
 13 14  1  0
 15 14  1  0
 16 15  1  0
 17 11  1  0
 18 17  2  0
 19 17  1  0
 20 19  1  0
 20 27  1  0
 20 21  1  1
 22 23  2  0
 22 21  1  0
 24 23  1  0
 25 26  2  0
 25 24  1  0
 26 22  1  0
 27 28  1  0
 29 27  2  0
M  END
$$$$
