QKH.pdb
     RDKit          3D

 29 29  0  0  1  0  0  0  0  0999 V2000
    6.8807  -12.4415   18.4147 N   0  0  0  0  0  0  0  0  0  0  0  0
    7.4799  -13.5074   17.7004 C   0  0  0  0  0  0  0  0  0  0  0  0
    7.3163  -13.6075   16.4643 O   0  0  0  0  0  0  0  0  0  0  0  0
    8.2889  -14.4882   18.4158 C   0  0  0  0  0  0  0  0  0  0  0  0
    8.0733  -14.4606   19.9142 C   0  0  0  0  0  0  0  0  0  0  0  0
    9.1985  -15.2603   20.5289 C   0  0  2  0  0  0  0  0  0  0  0  0
    9.6038  -16.2671   19.6004 N   0  0  0  0  0  0  0  0  0  0  0  0
    8.8252  -15.8195   21.8516 C   0  0  0  0  0  0  0  0  0  0  0  0
    8.2078  -15.1602   22.7149 O   0  0  0  0  0  0  0  0  0  0  0  0
    9.1722  -17.1531   22.1717 N   0  0  0  0  0  0  0  0  0  0  0  0
    8.8246  -17.7814   23.4559 C   0  0  1  0  0  0  0  0  0  0  0  0
    9.1059  -19.2569   23.4010 C   0  0  0  0  0  0  0  0  0  0  0  0
    8.6424  -19.9195   24.6644 C   0  0  0  0  0  0  0  0  0  0  0  0
    8.9667  -21.4214   24.6543 C   0  0  0  0  0  0  0  0  0  0  0  0
    8.3757  -22.0762   25.8549 C   0  0  0  0  0  0  0  0  0  0  0  0
    8.7609  -23.4836   25.9417 N   0  0  0  0  0  0  0  0  0  0  0  0
    9.4577  -17.0551   24.5663 C   0  0  0  0  0  0  0  0  0  0  0  0
   10.6318  -16.6238   24.5553 O   0  0  0  0  0  0  0  0  0  0  0  0
    8.7289  -16.7825   25.7944 N   0  0  0  0  0  0  0  0  0  0  0  0
    9.2984  -15.9898   26.8519 C   0  0  1  0  0  0  0  0  0  0  0  0
    8.3782  -15.0283   27.5060 C   0  0  0  0  0  0  0  0  0  0  0  0
    7.5905  -14.1511   26.6517 C   0  0  0  0  0  0  0  0  0  0  0  0
    7.6422  -13.9716   25.3055 C   0  0  0  0  0  0  0  0  0  0  0  0
    6.6838  -13.0644   24.9290 N   0  0  0  0  0  0  0  0  0  0  0  0
    6.0786  -12.7221   26.0653 C   0  0  0  0  0  0  0  0  0  0  0  0
    6.6001  -13.3562   27.1084 N   0  0  0  0  0  0  0  0  0  0  0  0
   10.0268  -16.8466   27.8393 C   0  0  0  0  0  0  0  0  0  0  0  0
   10.7394  -16.3346   28.9104 O   0  0  0  0  0  0  0  0  0  0  0  0
    9.9974  -18.0952   27.6995 O   0  0  0  0  0  0  0  0  0  0  0  0
  2  1  1  0
  2  3  2  0
  4  2  1  0
  5  4  1  0
  5  6  1  0
  6  7  1  6
  8  6  1  0
  8  9  2  0
 10  8  1  0
 11 10  1  0
 11 12  1  6
 13 12  1  0
 13 14  1  0
 15 14  1  0
 16 15  1  0
 17 11  1  0
 18 17  2  0
 19 17  1  0
 20 19  1  0
 20 27  1  0
 20 21  1  1
 22 23  2  0
 22 21  1  0
 24 23  1  0
 25 26  2  0
 25 24  1  0
 26 22  1  0
 27 28  1  0
 29 27  2  0
M  END
$$$$
