QKH.pdb
     RDKit          3D

 29 29  0  0  1  0  0  0  0  0999 V2000
    8.3716  -12.5219   17.7187 N   0  0  0  0  0  0  0  0  0  0  0  0
    8.0077  -13.6114   16.8905 C   0  0  0  0  0  0  0  0  0  0  0  0
    8.1262  -13.5250   15.6482 O   0  0  0  0  0  0  0  0  0  0  0  0
    7.4934  -14.8352   17.4957 C   0  0  0  0  0  0  0  0  0  0  0  0
    7.3720  -14.7503   19.0025 C   0  0  0  0  0  0  0  0  0  0  0  0
    8.2476  -15.8432   19.5703 C   0  0  2  0  0  0  0  0  0  0  0  0
    7.8576  -17.0887   18.9901 N   0  0  0  0  0  0  0  0  0  0  0  0
    8.2143  -15.8680   21.0534 C   0  0  0  0  0  0  0  0  0  0  0  0
    8.4520  -14.8600   21.7524 O   0  0  0  0  0  0  0  0  0  0  0  0
    7.9027  -17.0724   21.7272 N   0  0  0  0  0  0  0  0  0  0  0  0
    7.9209  -17.1938   23.1933 C   0  0  1  0  0  0  0  0  0  0  0  0
    6.8837  -18.1850   23.6416 C   0  0  0  0  0  0  0  0  0  0  0  0
    5.5177  -17.7315   23.2193 C   0  0  0  0  0  0  0  0  0  0  0  0
    4.7231  -18.8826   22.5832 C   0  0  0  0  0  0  0  0  0  0  0  0
    3.3453  -18.4244   22.2496 C   0  0  0  0  0  0  0  0  0  0  0  0
    2.5652  -19.4875   21.6187 N   0  0  0  0  0  0  0  0  0  0  0  0
    9.2894  -17.4487   23.6665 C   0  0  0  0  0  0  0  0  0  0  0  0
    9.7922  -18.5854   23.8072 O   0  0  0  0  0  0  0  0  0  0  0  0
   10.1777  -16.3515   24.0138 N   0  0  0  0  0  0  0  0  0  0  0  0
   10.4356  -15.9914   25.3830 C   0  0  1  0  0  0  0  0  0  0  0  0
    9.4338  -15.1003   26.0165 C   0  0  0  0  0  0  0  0  0  0  0  0
    9.6125  -14.7660   27.4222 C   0  0  0  0  0  0  0  0  0  0  0  0
   10.5880  -15.1447   28.2895 C   0  0  0  0  0  0  0  0  0  0  0  0
   10.3671  -14.5568   29.5096 N   0  0  0  0  0  0  0  0  0  0  0  0
    9.2593  -13.8364   29.3413 C   0  0  0  0  0  0  0  0  0  0  0  0
    8.7886  -13.9434   28.1048 N   0  0  0  0  0  0  0  0  0  0  0  0
   10.7331  -17.1998   26.2143 C   0  0  0  0  0  0  0  0  0  0  0  0
    9.7898  -18.1682   26.5132 O   0  0  0  0  0  0  0  0  0  0  0  0
   11.8943  -17.3541   26.6695 O   0  0  0  0  0  0  0  0  0  0  0  0
  2  1  1  0
  2  3  2  0
  4  2  1  0
  5  4  1  0
  5  6  1  0
  6  7  1  6
  8  6  1  0
  8  9  2  0
 10  8  1  0
 11 10  1  0
 11 12  1  6
 13 12  1  0
 13 14  1  0
 15 14  1  0
 16 15  1  0
 17 11  1  0
 18 17  2  0
 19 17  1  0
 20 19  1  0
 20 27  1  0
 20 21  1  1
 22 23  2  0
 22 21  1  0
 24 23  1  0
 25 26  2  0
 25 24  1  0
 26 22  1  0
 27 28  1  0
 29 27  2  0
M  END
$$$$
