QKH.pdb
     RDKit          3D

 29 29  0  0  1  0  0  0  0  0999 V2000
   11.2431  -15.4455   11.4668 N   0  0  0  0  0  0  0  0  0  0  0  0
   12.5064  -14.8062   11.4423 C   0  0  0  0  0  0  0  0  0  0  0  0
   12.8026  -14.0329   10.5048 O   0  0  0  0  0  0  0  0  0  0  0  0
   13.4602  -15.0555   12.5177 C   0  0  0  0  0  0  0  0  0  0  0  0
   12.9594  -16.0539   13.5399 C   0  0  0  0  0  0  0  0  0  0  0  0
   14.0427  -16.1845   14.5853 C   0  0  2  0  0  0  0  0  0  0  0  0
   14.7709  -17.3886   14.3408 N   0  0  0  0  0  0  0  0  0  0  0  0
   13.4967  -16.1163   15.9632 C   0  0  0  0  0  0  0  0  0  0  0  0
   12.9658  -15.0862   16.4304 O   0  0  0  0  0  0  0  0  0  0  0  0
   13.5687  -17.2530   16.8024 N   0  0  0  0  0  0  0  0  0  0  0  0
   13.1631  -17.2274   18.2164 C   0  0  1  0  0  0  0  0  0  0  0  0
   11.7291  -17.6576   18.3494 C   0  0  0  0  0  0  0  0  0  0  0  0
   11.5517  -19.0435   17.8035 C   0  0  0  0  0  0  0  0  0  0  0  0
   10.1126  -19.5410   18.0100 C   0  0  0  0  0  0  0  0  0  0  0  0
    9.9361  -20.8684   17.3570 C   0  0  0  0  0  0  0  0  0  0  0  0
    8.6038  -21.4153   17.6068 N   0  0  0  0  0  0  0  0  0  0  0  0
   14.1286  -17.9732   19.0370 C   0  0  0  0  0  0  0  0  0  0  0  0
   15.0657  -18.6639   18.5795 O   0  0  0  0  0  0  0  0  0  0  0  0
   14.0503  -17.9527   20.4886 N   0  0  0  0  0  0  0  0  0  0  0  0
   14.3530  -19.1166   21.2789 C   0  0  1  0  0  0  0  0  0  0  0  0
   13.8449  -20.4059   20.7513 C   0  0  0  0  0  0  0  0  0  0  0  0
   14.1742  -21.6191   21.4858 C   0  0  0  0  0  0  0  0  0  0  0  0
   14.2206  -21.8393   22.8261 C   0  0  0  0  0  0  0  0  0  0  0  0
   14.5468  -23.1512   23.0620 N   0  0  0  0  0  0  0  0  0  0  0  0
   14.6877  -23.6868   21.8504 C   0  0  0  0  0  0  0  0  0  0  0  0
   14.4707  -22.7943   20.8921 N   0  0  0  0  0  0  0  0  0  0  0  0
   15.8080  -19.1735   21.6245 C   0  0  0  0  0  0  0  0  0  0  0  0
   16.7002  -18.1567   21.3289 O   0  0  0  0  0  0  0  0  0  0  0  0
   16.2541  -20.1905   22.2128 O   0  0  0  0  0  0  0  0  0  0  0  0
  2  1  1  0
  2  3  2  0
  4  2  1  0
  5  4  1  0
  5  6  1  0
  6  7  1  1
  8  6  1  0
  8  9  2  0
 10  8  1  0
 11 10  1  0
 11 12  1  6
 13 12  1  0
 13 14  1  0
 15 14  1  0
 16 15  1  0
 17 11  1  0
 18 17  2  0
 19 17  1  0
 20 19  1  0
 20 27  1  0
 20 21  1  6
 22 23  2  0
 22 21  1  0
 24 23  1  0
 25 26  2  0
 25 24  1  0
 26 22  1  0
 27 28  1  0
 29 27  2  0
M  END
$$$$
