QKH.pdb
     RDKit          3D

 29 29  0  0  1  0  0  0  0  0999 V2000
   13.0744  -19.3809   17.1856 N   0  0  0  0  0  0  0  0  0  0  0  0
   12.3332  -18.6424   16.2314 C   0  0  0  0  0  0  0  0  0  0  0  0
   12.4143  -18.9249   15.0155 O   0  0  0  0  0  0  0  0  0  0  0  0
   11.4744  -17.5500   16.6757 C   0  0  0  0  0  0  0  0  0  0  0  0
   11.5576  -17.2938   18.1656 C   0  0  0  0  0  0  0  0  0  0  0  0
   10.4655  -18.1169   18.8086 C   0  0  2  0  0  0  0  0  0  0  0  0
    9.2007  -17.6282   18.3599 N   0  0  0  0  0  0  0  0  0  0  0  0
   10.5798  -18.1337   20.2878 C   0  0  0  0  0  0  0  0  0  0  0  0
   10.7266  -17.0951   20.9668 O   0  0  0  0  0  0  0  0  0  0  0  0
   10.5231  -19.3656   20.9810 N   0  0  0  0  0  0  0  0  0  0  0  0
   10.6951  -19.4694   22.4385 C   0  0  1  0  0  0  0  0  0  0  0  0
   10.1894  -20.7989   22.9241 C   0  0  0  0  0  0  0  0  0  0  0  0
   10.3047  -20.8824   24.4174 C   0  0  0  0  0  0  0  0  0  0  0  0
    9.9626  -22.2928   24.9222 C   0  0  0  0  0  0  0  0  0  0  0  0
   10.0036  -22.3227   26.4111 C   0  0  0  0  0  0  0  0  0  0  0  0
    8.8456  -21.6464   26.9927 N   0  0  0  0  0  0  0  0  0  0  0  0
   12.0783  -19.1408   22.8130 C   0  0  0  0  0  0  0  0  0  0  0  0
   13.0936  -19.6994   22.3421 O   0  0  0  0  0  0  0  0  0  0  0  0
   12.3625  -18.1048   23.7926 N   0  0  0  0  0  0  0  0  0  0  0  0
   13.7104  -17.7635   24.1633 C   0  0  1  0  0  0  0  0  0  0  0  0
   14.1100  -16.3558   23.9229 C   0  0  0  0  0  0  0  0  0  0  0  0
   14.0947  -15.8688   22.5509 C   0  0  0  0  0  0  0  0  0  0  0  0
   13.8025  -16.5257   21.3976 C   0  0  0  0  0  0  0  0  0  0  0  0
   13.8850  -15.6528   20.3419 N   0  0  0  0  0  0  0  0  0  0  0  0
   14.2259  -14.4887   20.8925 C   0  0  0  0  0  0  0  0  0  0  0  0
   14.3573  -14.5897   22.2096 N   0  0  0  0  0  0  0  0  0  0  0  0
   14.0207  -18.2163   25.5556 C   0  0  0  0  0  0  0  0  0  0  0  0
   13.0929  -18.8301   26.3801 O   0  0  0  0  0  0  0  0  0  0  0  0
   15.1783  -18.0358   26.0102 O   0  0  0  0  0  0  0  0  0  0  0  0
  2  1  1  0
  2  3  2  0
  4  2  1  0
  5  4  1  0
  5  6  1  0
  6  7  1  1
  8  6  1  0
  8  9  2  0
 10  8  1  0
 11 10  1  0
 11 12  1  6
 13 12  1  0
 13 14  1  0
 15 14  1  0
 16 15  1  0
 17 11  1  0
 18 17  2  0
 19 17  1  0
 20 19  1  0
 20 27  1  0
 20 21  1  1
 22 23  2  0
 22 21  1  0
 24 23  1  0
 25 26  2  0
 25 24  1  0
 26 22  1  0
 27 28  1  0
 29 27  2  0
M  END
$$$$
