GHI.pdb
     RDKit          3D

 23 23  0  0  1  0  0  0  0  0999 V2000
   12.2072  -26.9376    1.7147 N   0  0  0  0  0  0  0  0  0  0  0  0
   12.3068  -25.9249    2.7151 C   0  0  0  0  0  0  0  0  0  0  0  0
   13.4165  -24.9547    2.4252 C   0  0  0  0  0  0  0  0  0  0  0  0
   14.6231  -25.2986    2.5080 O   0  0  0  0  0  0  0  0  0  0  0  0
   13.1496  -23.6096    2.0458 N   0  0  0  0  0  0  0  0  0  0  0  0
   14.1662  -22.6573    1.7136 C   0  0  1  0  0  0  0  0  0  0  0  0
   13.6817  -21.6388    0.6863 C   0  0  0  0  0  0  0  0  0  0  0  0
   13.8385  -22.1286   -0.6877 C   0  0  0  0  0  0  0  0  0  0  0  0
   14.4742  -23.2946   -1.0592 C   0  0  0  0  0  0  0  0  0  0  0  0
   14.4071  -23.3891   -2.3987 N   0  0  0  0  0  0  0  0  0  0  0  0
   13.7588  -22.3366   -2.8847 C   0  0  0  0  0  0  0  0  0  0  0  0
   13.4142  -21.5696   -1.8292 N   0  0  0  0  0  0  0  0  0  0  0  0
   14.7624  -22.0017    2.8930 C   0  0  0  0  0  0  0  0  0  0  0  0
   13.9748  -21.5494    3.7641 O   0  0  0  0  0  0  0  0  0  0  0  0
   19.6780  -23.6163    4.7885 C   0  0  0  0  0  0  0  0  0  0  0  0
   18.2402  -23.1670    4.5749 C   0  0  0  0  0  0  0  0  0  0  0  0
   18.0974  -21.6818    4.5690 C   0  0  2  0  0  0  0  0  0  0  0  0
   18.6530  -21.1312    5.8532 C   0  0  0  0  0  0  0  0  0  0  0  0
   16.6747  -21.2957    4.3186 C   0  0  2  0  0  0  0  0  0  0  0  0
   16.1544  -21.8564    3.0942 N   0  0  0  0  0  0  0  0  0  0  0  0
   16.4326  -19.8444    4.3616 C   0  0  0  0  0  0  0  0  0  0  0  0
   16.0207  -19.2174    5.5461 O   0  0  0  0  0  0  0  0  0  0  0  0
   16.5792  -19.1061    3.3608 O   0  0  0  0  0  0  0  0  0  0  0  0
  2  3  1  0
  2  1  1  0
  3  5  1  0
  4  3  2  0
  5  6  1  0
  6 13  1  0
  7  8  1  0
  6  7  1  6
  8 12  1  0
  9 10  1  0
  9  8  2  0
 10 11  1  0
 11 12  2  0
 13 14  2  0
 13 20  1  0
 15 16  1  0
 17 16  1  0
 17 18  1  1
 19 17  1  0
 19 21  1  0
 19 20  1  6
 21 22  1  0
 23 21  2  0
M  END
$$$$
