GHI.pdb
     RDKit          3D

 23 23  0  0  1  0  0  0  0  0999 V2000
   20.0679  -12.7430  -18.2785 N   0  0  0  0  0  0  0  0  0  0  0  0
   21.0205  -11.7967  -17.7955 C   0  0  0  0  0  0  0  0  0  0  0  0
   20.3599  -10.5693  -17.2352 C   0  0  0  0  0  0  0  0  0  0  0  0
   19.7586   -9.7536  -17.9795 O   0  0  0  0  0  0  0  0  0  0  0  0
   20.3868  -10.2790  -15.8424 N   0  0  0  0  0  0  0  0  0  0  0  0
   19.8319   -9.0926  -15.2636 C   0  0  1  0  0  0  0  0  0  0  0  0
   18.8111   -9.4109  -14.1756 C   0  0  0  0  0  0  0  0  0  0  0  0
   17.6760  -10.1805  -14.6967 C   0  0  0  0  0  0  0  0  0  0  0  0
   17.4735  -10.5223  -16.0172 C   0  0  0  0  0  0  0  0  0  0  0  0
   16.3283  -11.2231  -16.0881 N   0  0  0  0  0  0  0  0  0  0  0  0
   15.8030  -11.3368  -14.8734 C   0  0  0  0  0  0  0  0  0  0  0  0
   16.6355  -10.6949  -14.0272 N   0  0  0  0  0  0  0  0  0  0  0  0
   20.8532   -8.1383  -14.7916 C   0  0  0  0  0  0  0  0  0  0  0  0
   21.7578   -8.5837  -14.0386 O   0  0  0  0  0  0  0  0  0  0  0  0
   24.2885   -6.7443  -16.6479 C   0  0  0  0  0  0  0  0  0  0  0  0
   22.9730   -6.0500  -16.9677 C   0  0  0  0  0  0  0  0  0  0  0  0
   22.5288   -5.1315  -15.8791 C   0  0  2  0  0  0  0  0  0  0  0  0
   23.6772   -4.2425  -15.4892 C   0  0  0  0  0  0  0  0  0  0  0  0
   21.9622   -5.9125  -14.7367 C   0  0  2  0  0  0  0  0  0  0  0  0
   20.8694   -6.7670  -15.1360 N   0  0  0  0  0  0  0  0  0  0  0  0
   21.5719   -5.0860  -13.5828 C   0  0  0  0  0  0  0  0  0  0  0  0
   22.5210   -4.6781  -12.6348 O   0  0  0  0  0  0  0  0  0  0  0  0
   20.3930   -4.7103  -13.3900 O   0  0  0  0  0  0  0  0  0  0  0  0
  2  3  1  0
  2  1  1  0
  3  5  1  0
  4  3  2  0
  5  6  1  0
  6 13  1  0
  7  8  1  0
  6  7  1  1
  8 12  1  0
  9 10  1  0
  9  8  2  0
 10 11  1  0
 11 12  2  0
 13 14  2  0
 13 20  1  0
 15 16  1  0
 17 16  1  0
 17 18  1  1
 19 17  1  0
 19 21  1  0
 19 20  1  6
 21 22  1  0
 23 21  2  0
M  END
$$$$
