GHI.pdb
     RDKit          3D

 23 23  0  0  1  0  0  0  0  0999 V2000
   25.6959  -27.3307  -17.1180 N   0  0  0  0  0  0  0  0  0  0  0  0
   24.7094  -26.3492  -16.8020 C   0  0  0  0  0  0  0  0  0  0  0  0
   25.2969  -25.1762  -16.0701 C   0  0  0  0  0  0  0  0  0  0  0  0
   25.9194  -25.3266  -14.9880 O   0  0  0  0  0  0  0  0  0  0  0  0
   25.1741  -23.8494  -16.5692 N   0  0  0  0  0  0  0  0  0  0  0  0
   25.7248  -22.6982  -15.9195 C   0  0  1  0  0  0  0  0  0  0  0  0
   25.8394  -21.5076  -16.8664 C   0  0  0  0  0  0  0  0  0  0  0  0
   26.7026  -20.4542  -16.3210 C   0  0  0  0  0  0  0  0  0  0  0  0
   27.3824  -20.5105  -15.1225 C   0  0  0  0  0  0  0  0  0  0  0  0
   28.0587  -19.3572  -14.9803 N   0  0  0  0  0  0  0  0  0  0  0  0
   27.8347  -18.5800  -16.0339 C   0  0  0  0  0  0  0  0  0  0  0  0
   27.0027  -19.2602  -16.8502 N   0  0  0  0  0  0  0  0  0  0  0  0
   25.0237  -22.3382  -14.6723 C   0  0  0  0  0  0  0  0  0  0  0  0
   23.7660  -22.3804  -14.6821 O   0  0  0  0  0  0  0  0  0  0  0  0
   25.7945  -20.6839   -8.6963 C   0  0  0  0  0  0  0  0  0  0  0  0
   24.9610  -20.9499   -9.9409 C   0  0  0  0  0  0  0  0  0  0  0  0
   25.7930  -21.3363  -11.1176 C   0  0  2  0  0  0  0  0  0  0  0  0
   26.8920  -20.3252  -11.2937 C   0  0  0  0  0  0  0  0  0  0  0  0
   24.9347  -21.5042  -12.3306 C   0  0  2  0  0  0  0  0  0  0  0  0
   25.6816  -21.9530  -13.4815 N   0  0  0  0  0  0  0  0  0  0  0  0
   24.1379  -20.3135  -12.6686 C   0  0  0  0  0  0  0  0  0  0  0  0
   24.6406  -19.3323  -13.5349 O   0  0  0  0  0  0  0  0  0  0  0  0
   22.9897  -20.1174  -12.2088 O   0  0  0  0  0  0  0  0  0  0  0  0
  2  3  1  0
  2  1  1  0
  3  5  1  0
  4  3  2  0
  5  6  1  0
  6 13  1  0
  7  8  1  0
  6  7  1  6
  8 12  1  0
  9 10  1  0
  9  8  2  0
 10 11  1  0
 11 12  2  0
 13 14  2  0
 13 20  1  0
 15 16  1  0
 17 16  1  0
 17 18  1  6
 19 17  1  0
 19 21  1  0
 19 20  1  6
 21 22  1  0
 23 21  2  0
M  END
$$$$
