GHI.pdb
     RDKit          3D

 23 23  0  0  1  0  0  0  0  0999 V2000
   14.1963  -23.1658   -3.9835 N   0  0  0  0  0  0  0  0  0  0  0  0
   13.3375  -23.2888   -2.8505 C   0  0  0  0  0  0  0  0  0  0  0  0
   13.4814  -22.1288   -1.9068 C   0  0  0  0  0  0  0  0  0  0  0  0
   14.4159  -21.2969   -2.0321 O   0  0  0  0  0  0  0  0  0  0  0  0
   12.5689  -21.9233   -0.8346 N   0  0  0  0  0  0  0  0  0  0  0  0
   12.6805  -20.8574    0.1152 C   0  0  1  0  0  0  0  0  0  0  0  0
   11.3175  -20.2929    0.5036 C   0  0  0  0  0  0  0  0  0  0  0  0
   10.7273  -19.4934   -0.5756 C   0  0  0  0  0  0  0  0  0  0  0  0
   11.4183  -18.9143   -1.6191 C   0  0  0  0  0  0  0  0  0  0  0  0
   10.5276  -18.2695   -2.3927 N   0  0  0  0  0  0  0  0  0  0  0  0
    9.3099  -18.4172   -1.8831 C   0  0  0  0  0  0  0  0  0  0  0  0
    9.4418  -19.1685   -0.7698 N   0  0  0  0  0  0  0  0  0  0  0  0
   13.4829  -21.2115    1.3015 C   0  0  0  0  0  0  0  0  0  0  0  0
   13.3777  -22.3855    1.7422 O   0  0  0  0  0  0  0  0  0  0  0  0
   18.5214  -19.2523    2.0313 C   0  0  0  0  0  0  0  0  0  0  0  0
   17.2703  -20.1172    1.9941 C   0  0  0  0  0  0  0  0  0  0  0  0
   16.4236  -19.9552    3.2120 C   0  0  2  0  0  0  0  0  0  0  0  0
   17.2346  -20.3203    4.4245 C   0  0  0  0  0  0  0  0  0  0  0  0
   15.1604  -20.7440    3.0776 C   0  0  2  0  0  0  0  0  0  0  0  0
   14.3529  -20.3131    1.9612 N   0  0  0  0  0  0  0  0  0  0  0  0
   14.3521  -20.7923    4.3068 C   0  0  0  0  0  0  0  0  0  0  0  0
   14.5229  -21.8235    5.2414 O   0  0  0  0  0  0  0  0  0  0  0  0
   13.4848  -19.9307    4.5782 O   0  0  0  0  0  0  0  0  0  0  0  0
  2  3  1  0
  2  1  1  0
  3  5  1  0
  4  3  2  0
  5  6  1  0
  6 13  1  0
  7  8  1  0
  6  7  1  1
  8 12  1  0
  9 10  1  0
  9  8  2  0
 10 11  1  0
 11 12  2  0
 13 14  2  0
 13 20  1  0
 15 16  1  0
 17 16  1  0
 17 18  1  1
 19 17  1  0
 19 21  1  0
 19 20  1  6
 21 22  1  0
 23 21  2  0
M  END
$$$$
