GHI.pdb
     RDKit          3D

 23 23  0  0  1  0  0  0  0  0999 V2000
   27.5775  -22.0518  -15.2993 N   0  0  0  0  0  0  0  0  0  0  0  0
   28.2967  -21.0491  -14.5826 C   0  0  0  0  0  0  0  0  0  0  0  0
   27.4799  -20.4585  -13.4688 C   0  0  0  0  0  0  0  0  0  0  0  0
   27.7547  -19.3314  -12.9838 O   0  0  0  0  0  0  0  0  0  0  0  0
   26.3639  -21.1478  -12.9172 N   0  0  0  0  0  0  0  0  0  0  0  0
   25.4781  -20.5826  -11.9443 C   0  0  1  0  0  0  0  0  0  0  0  0
   24.0137  -20.7594  -12.3335 C   0  0  0  0  0  0  0  0  0  0  0  0
   23.6608  -19.9654  -13.5156 C   0  0  0  0  0  0  0  0  0  0  0  0
   24.4935  -19.0826  -14.1706 C   0  0  0  0  0  0  0  0  0  0  0  0
   23.8055  -18.5564  -15.1989 N   0  0  0  0  0  0  0  0  0  0  0  0
   22.5799  -19.0681  -15.2195 C   0  0  0  0  0  0  0  0  0  0  0  0
   22.5002  -19.9304  -14.1845 N   0  0  0  0  0  0  0  0  0  0  0  0
   25.7386  -21.0544  -10.5709 C   0  0  0  0  0  0  0  0  0  0  0  0
   25.9295  -22.2877  -10.4088 O   0  0  0  0  0  0  0  0  0  0  0  0
   28.6651  -18.5522   -6.7271 C   0  0  0  0  0  0  0  0  0  0  0  0
   27.9364  -19.5444   -7.6212 C   0  0  0  0  0  0  0  0  0  0  0  0
   26.5508  -19.8331   -7.1489 C   0  0  2  0  0  0  0  0  0  0  0  0
   26.6131  -20.3661   -5.7442 C   0  0  0  0  0  0  0  0  0  0  0  0
   25.8538  -20.7473   -8.1053 C   0  0  2  0  0  0  0  0  0  0  0  0
   25.7847  -20.2051   -9.4414 N   0  0  0  0  0  0  0  0  0  0  0  0
   24.5194  -21.1772   -7.6565 C   0  0  0  0  0  0  0  0  0  0  0  0
   24.3659  -22.2852   -6.8112 O   0  0  0  0  0  0  0  0  0  0  0  0
   23.4697  -20.5869   -7.9997 O   0  0  0  0  0  0  0  0  0  0  0  0
  2  3  1  0
  2  1  1  0
  3  5  1  0
  4  3  2  0
  5  6  1  0
  6 13  1  0
  7  8  1  0
  6  7  1  6
  8 12  1  0
  9 10  1  0
  9  8  2  0
 10 11  1  0
 11 12  2  0
 13 14  2  0
 13 20  1  0
 15 16  1  0
 17 16  1  0
 17 18  1  1
 19 17  1  0
 19 21  1  0
 19 20  1  6
 21 22  1  0
 23 21  2  0
M  END
$$$$
