GHI.pdb
     RDKit          3D

 23 23  0  0  1  0  0  0  0  0999 V2000
   23.4586  -19.9853  -18.4993 N   0  0  0  0  0  0  0  0  0  0  0  0
   23.3301  -19.4175  -17.1965 C   0  0  0  0  0  0  0  0  0  0  0  0
   24.5249  -19.7110  -16.3344 C   0  0  0  0  0  0  0  0  0  0  0  0
   24.7726  -20.8778  -15.9368 O   0  0  0  0  0  0  0  0  0  0  0  0
   25.4239  -18.6838  -15.9328 N   0  0  0  0  0  0  0  0  0  0  0  0
   26.5219  -18.8897  -15.0368 C   0  0  1  0  0  0  0  0  0  0  0  0
   27.6430  -17.8806  -15.2652 C   0  0  0  0  0  0  0  0  0  0  0  0
   28.1958  -17.9726  -16.6210 C   0  0  0  0  0  0  0  0  0  0  0  0
   29.1363  -18.8869  -17.0466 C   0  0  0  0  0  0  0  0  0  0  0  0
   29.3820  -18.6471  -18.3466 N   0  0  0  0  0  0  0  0  0  0  0  0
   28.6394  -17.6247  -18.7561 C   0  0  0  0  0  0  0  0  0  0  0  0
   27.9158  -17.2177  -17.6922 N   0  0  0  0  0  0  0  0  0  0  0  0
   26.1182  -18.9454  -13.6189 C   0  0  0  0  0  0  0  0  0  0  0  0
   25.4792  -17.9633  -13.1597 O   0  0  0  0  0  0  0  0  0  0  0  0
   22.7324  -21.2689   -9.6835 C   0  0  0  0  0  0  0  0  0  0  0  0
   24.0749  -20.5800   -9.8786 C   0  0  0  0  0  0  0  0  0  0  0  0
   24.6013  -20.7304  -11.2666 C   0  0  2  0  0  0  0  0  0  0  0  0
   24.6375  -22.1913  -11.6212 C   0  0  0  0  0  0  0  0  0  0  0  0
   25.9263  -20.0499  -11.3984 C   0  0  2  0  0  0  0  0  0  0  0  0
   26.4074  -20.0302  -12.7593 N   0  0  0  0  0  0  0  0  0  0  0  0
   26.9621  -20.5781  -10.4957 C   0  0  0  0  0  0  0  0  0  0  0  0
   26.9128  -20.3267   -9.1172 O   0  0  0  0  0  0  0  0  0  0  0  0
   27.9247  -21.2675  -10.9036 O   0  0  0  0  0  0  0  0  0  0  0  0
  2  3  1  0
  2  1  1  0
  3  5  1  0
  4  3  2  0
  5  6  1  0
  6 13  1  0
  7  8  1  0
  6  7  1  1
  8 12  1  0
  9 10  1  0
  9  8  2  0
 10 11  1  0
 11 12  2  0
 13 14  2  0
 13 20  1  0
 15 16  1  0
 17 16  1  0
 17 18  1  1
 19 17  1  0
 19 21  1  0
 19 20  1  6
 21 22  1  0
 23 21  2  0
M  END
$$$$
