GHI.pdb
     RDKit          3D

 23 23  0  0  1  0  0  0  0  0999 V2000
   15.2346  -14.2400  -15.6706 N   0  0  0  0  0  0  0  0  0  0  0  0
   15.5254  -13.0616  -14.9202 C   0  0  0  0  0  0  0  0  0  0  0  0
   16.6125  -12.2432  -15.5567 C   0  0  0  0  0  0  0  0  0  0  0  0
   17.6278  -12.7861  -16.0623 O   0  0  0  0  0  0  0  0  0  0  0  0
   16.5393  -10.8234  -15.6140 N   0  0  0  0  0  0  0  0  0  0  0  0
   17.4085  -10.0109  -16.4111 C   0  0  1  0  0  0  0  0  0  0  0  0
   16.6343   -9.1470  -17.4018 C   0  0  0  0  0  0  0  0  0  0  0  0
   15.9897   -9.9525  -18.4449 C   0  0  0  0  0  0  0  0  0  0  0  0
   16.6060  -10.4504  -19.5736 C   0  0  0  0  0  0  0  0  0  0  0  0
   15.6847  -11.1320  -20.2766 N   0  0  0  0  0  0  0  0  0  0  0  0
   14.5191  -11.0847  -19.6414 C   0  0  0  0  0  0  0  0  0  0  0  0
   14.7153  -10.3600  -18.5201 N   0  0  0  0  0  0  0  0  0  0  0  0
   18.3566   -9.2103  -15.6132 C   0  0  0  0  0  0  0  0  0  0  0  0
   17.9096   -8.6385  -14.5851 O   0  0  0  0  0  0  0  0  0  0  0  0
   23.2586  -10.9687  -14.5052 C   0  0  0  0  0  0  0  0  0  0  0  0
   21.8909  -10.3102  -14.6080 C   0  0  0  0  0  0  0  0  0  0  0  0
   21.9736   -8.8722  -14.9972 C   0  0  2  0  0  0  0  0  0  0  0  0
   22.8719   -8.1535  -14.0290 C   0  0  0  0  0  0  0  0  0  0  0  0
   20.6045   -8.2792  -15.0962 C   0  0  2  0  0  0  0  0  0  0  0  0
   19.7236   -9.0532  -15.9383 N   0  0  0  0  0  0  0  0  0  0  0  0
   20.5935   -6.8652  -15.5051 C   0  0  0  0  0  0  0  0  0  0  0  0
   20.7309   -5.8403  -14.5582 O   0  0  0  0  0  0  0  0  0  0  0  0
   20.4633   -6.5091  -16.6986 O   0  0  0  0  0  0  0  0  0  0  0  0
  2  3  1  0
  2  1  1  0
  3  5  1  0
  4  3  2  0
  5  6  1  0
  6 13  1  0
  7  8  1  0
  6  7  1  1
  8 12  1  0
  9 10  1  0
  9  8  2  0
 10 11  1  0
 11 12  2  0
 13 14  2  0
 13 20  1  0
 15 16  1  0
 17 16  1  0
 17 18  1  1
 19 17  1  0
 19 21  1  0
 19 20  1  6
 21 22  1  0
 23 21  2  0
M  END
$$$$
