GHI.pdb
     RDKit          3D

 23 23  0  0  1  0  0  0  0  0999 V2000
   22.6790  -17.2488  -17.4403 N   0  0  0  0  0  0  0  0  0  0  0  0
   23.3952  -16.9050  -16.2549 C   0  0  0  0  0  0  0  0  0  0  0  0
   24.3559  -17.9847  -15.8450 C   0  0  0  0  0  0  0  0  0  0  0  0
   23.9505  -19.1259  -15.5066 O   0  0  0  0  0  0  0  0  0  0  0  0
   25.7611  -17.7621  -15.8224 N   0  0  0  0  0  0  0  0  0  0  0  0
   26.7162  -18.7346  -15.3834 C   0  0  1  0  0  0  0  0  0  0  0  0
   28.1169  -18.4384  -15.9103 C   0  0  0  0  0  0  0  0  0  0  0  0
   28.2131  -18.6463  -17.3593 C   0  0  0  0  0  0  0  0  0  0  0  0
   27.1881  -19.0621  -18.1829 C   0  0  0  0  0  0  0  0  0  0  0  0
   27.6714  -19.1313  -19.4356 N   0  0  0  0  0  0  0  0  0  0  0  0
   28.9519  -18.7782  -19.4362 C   0  0  0  0  0  0  0  0  0  0  0  0
   29.2753  -18.4827  -18.1598 N   0  0  0  0  0  0  0  0  0  0  0  0
   26.7145  -18.9392  -13.9223 C   0  0  0  0  0  0  0  0  0  0  0  0
   26.8803  -17.9254  -13.1955 O   0  0  0  0  0  0  0  0  0  0  0  0
   22.7710  -20.7782  -11.3410 C   0  0  0  0  0  0  0  0  0  0  0  0
   24.0847  -20.1689  -11.8079 C   0  0  0  0  0  0  0  0  0  0  0  0
   25.2732  -20.9451  -11.3484 C   0  0  2  0  0  0  0  0  0  0  0  0
   25.2319  -21.0628   -9.8498 C   0  0  0  0  0  0  0  0  0  0  0  0
   26.5322  -20.3256  -11.8652 C   0  0  2  0  0  0  0  0  0  0  0  0
   26.5387  -20.1981  -13.3032 N   0  0  0  0  0  0  0  0  0  0  0  0
   27.7602  -20.9935  -11.4040 C   0  0  0  0  0  0  0  0  0  0  0  0
   28.2159  -20.8345  -10.0875 O   0  0  0  0  0  0  0  0  0  0  0  0
   28.4506  -21.7257  -12.1492 O   0  0  0  0  0  0  0  0  0  0  0  0
  2  3  1  0
  2  1  1  0
  3  5  1  0
  4  3  2  0
  5  6  1  0
  6 13  1  0
  7  8  1  0
  6  7  1  1
  8 12  1  0
  9 10  1  0
  9  8  2  0
 10 11  1  0
 11 12  2  0
 13 14  2  0
 13 20  1  0
 15 16  1  0
 17 16  1  0
 17 18  1  1
 19 17  1  0
 19 21  1  0
 19 20  1  6
 21 22  1  0
 23 21  2  0
M  END
$$$$
