GHI.pdb
     RDKit          3D

 23 23  0  0  1  0  0  0  0  0999 V2000
   16.2684  -12.0674  -15.7382 N   0  0  0  0  0  0  0  0  0  0  0  0
   16.1615  -10.8299  -15.0357 C   0  0  0  0  0  0  0  0  0  0  0  0
   17.1746   -9.8260  -15.5071 C   0  0  0  0  0  0  0  0  0  0  0  0
   18.1494  -10.1687  -16.2237 O   0  0  0  0  0  0  0  0  0  0  0  0
   17.0742   -8.4488  -15.1637 N   0  0  0  0  0  0  0  0  0  0  0  0
   18.0073   -7.4497  -15.5902 C   0  0  1  0  0  0  0  0  0  0  0  0
   17.3072   -6.2169  -16.1534 C   0  0  0  0  0  0  0  0  0  0  0  0
   16.5896   -6.5144  -17.3979 C   0  0  0  0  0  0  0  0  0  0  0  0
   16.6299   -7.7096  -18.0846 C   0  0  0  0  0  0  0  0  0  0  0  0
   15.8434   -7.5865  -19.1680 N   0  0  0  0  0  0  0  0  0  0  0  0
   15.3116   -6.3696  -19.1930 C   0  0  0  0  0  0  0  0  0  0  0  0
   15.7743   -5.7196  -18.1046 N   0  0  0  0  0  0  0  0  0  0  0  0
   18.9953   -7.0911  -14.5549 C   0  0  0  0  0  0  0  0  0  0  0  0
   18.5628   -6.8671  -13.3945 O   0  0  0  0  0  0  0  0  0  0  0  0
   23.8949   -9.5111  -14.3727 C   0  0  0  0  0  0  0  0  0  0  0  0
   23.0067   -8.2986  -14.6087 C   0  0  0  0  0  0  0  0  0  0  0  0
   22.1584   -7.9692  -13.4264 C   0  0  2  0  0  0  0  0  0  0  0  0
   21.3652   -9.1863  -13.0382 C   0  0  0  0  0  0  0  0  0  0  0  0
   21.3124   -6.7691  -13.7097 C   0  0  2  0  0  0  0  0  0  0  0  0
   20.3849   -6.9871  -14.7942 N   0  0  0  0  0  0  0  0  0  0  0  0
   22.0820   -5.5344  -13.9332 C   0  0  0  0  0  0  0  0  0  0  0  0
   21.9936   -4.8403  -15.1482 O   0  0  0  0  0  0  0  0  0  0  0  0
   22.8427   -5.0473  -13.0658 O   0  0  0  0  0  0  0  0  0  0  0  0
  2  3  1  0
  2  1  1  0
  3  5  1  0
  4  3  2  0
  5  6  1  0
  6 13  1  0
  7  8  1  0
  6  7  1  1
  8 12  1  0
  9 10  1  0
  9  8  2  0
 10 11  1  0
 11 12  2  0
 13 14  2  0
 13 20  1  0
 15 16  1  0
 17 16  1  0
 17 18  1  6
 19 17  1  0
 19 21  1  0
 19 20  1  6
 21 22  1  0
 23 21  2  0
M  END
$$$$
