GHI.pdb
     RDKit          3D

 23 23  0  0  1  0  0  0  0  0999 V2000
   21.5850  -14.4012  -21.6751 N   0  0  0  0  0  0  0  0  0  0  0  0
   20.9661  -13.1155  -21.6904 C   0  0  0  0  0  0  0  0  0  0  0  0
   21.1939  -12.3660  -20.4086 C   0  0  0  0  0  0  0  0  0  0  0  0
   20.6649  -12.7394  -19.3307 O   0  0  0  0  0  0  0  0  0  0  0  0
   22.0156  -11.2053  -20.3603 N   0  0  0  0  0  0  0  0  0  0  0  0
   22.3278  -10.4981  -19.1549 C   0  0  1  0  0  0  0  0  0  0  0  0
   23.8197  -10.5382  -18.8387 C   0  0  0  0  0  0  0  0  0  0  0  0
   24.2892  -11.9041  -18.5815 C   0  0  0  0  0  0  0  0  0  0  0  0
   23.9670  -12.6727  -17.4829 C   0  0  0  0  0  0  0  0  0  0  0  0
   24.5911  -13.8564  -17.6136 N   0  0  0  0  0  0  0  0  0  0  0  0
   25.2898  -13.8660  -18.7432 C   0  0  0  0  0  0  0  0  0  0  0  0
   25.0990  -12.6657  -19.3298 N   0  0  0  0  0  0  0  0  0  0  0  0
   21.8017   -9.1199  -19.1315 C   0  0  0  0  0  0  0  0  0  0  0  0
   22.1593   -8.3478  -20.0588 O   0  0  0  0  0  0  0  0  0  0  0  0
   17.0783   -5.6949  -19.1798 C   0  0  0  0  0  0  0  0  0  0  0  0
   18.4904   -5.8193  -18.6271 C   0  0  0  0  0  0  0  0  0  0  0  0
   18.9781   -7.2293  -18.6093 C   0  0  2  0  0  0  0  0  0  0  0  0
   18.0720   -8.0500  -17.7337 C   0  0  0  0  0  0  0  0  0  0  0  0
   20.4145   -7.2791  -18.1968 C   0  0  2  0  0  0  0  0  0  0  0  0
   20.9281   -8.6268  -18.1352 N   0  0  0  0  0  0  0  0  0  0  0  0
   20.7017   -6.5629  -16.9432 C   0  0  0  0  0  0  0  0  0  0  0  0
   21.0715   -7.2594  -15.7839 O   0  0  0  0  0  0  0  0  0  0  0  0
   20.6321   -5.3162  -16.8474 O   0  0  0  0  0  0  0  0  0  0  0  0
  2  3  1  0
  2  1  1  0
  3  5  1  0
  4  3  2  0
  5  6  1  0
  6 13  1  0
  7  8  1  0
  6  7  1  6
  8 12  1  0
  9 10  1  0
  9  8  2  0
 10 11  1  0
 11 12  2  0
 13 14  2  0
 13 20  1  0
 15 16  1  0
 17 16  1  0
 17 18  1  1
 19 17  1  0
 19 21  1  0
 19 20  1  1
 21 22  1  0
 23 21  2  0
M  END
$$$$
