GHI.pdb
     RDKit          3D

 23 23  0  0  1  0  0  0  0  0999 V2000
   21.3829  -11.9924  -18.0570 N   0  0  0  0  0  0  0  0  0  0  0  0
   20.2445  -11.9069  -17.2008 C   0  0  0  0  0  0  0  0  0  0  0  0
   19.8935  -10.4837  -16.8719 C   0  0  0  0  0  0  0  0  0  0  0  0
   19.7102   -9.6302  -17.7769 O   0  0  0  0  0  0  0  0  0  0  0  0
   19.7540  -10.0429  -15.5262 N   0  0  0  0  0  0  0  0  0  0  0  0
   19.3078   -8.7331  -15.1576 C   0  0  1  0  0  0  0  0  0  0  0  0
   18.0890   -8.7812  -14.2414 C   0  0  0  0  0  0  0  0  0  0  0  0
   16.8843   -9.2207  -14.9540 C   0  0  0  0  0  0  0  0  0  0  0  0
   16.1341   -8.4511  -15.8180 C   0  0  0  0  0  0  0  0  0  0  0  0
   15.1170   -9.2089  -16.2640 N   0  0  0  0  0  0  0  0  0  0  0  0
   15.1943  -10.4181  -15.7199 C   0  0  0  0  0  0  0  0  0  0  0  0
   16.2802  -10.4163  -14.9187 N   0  0  0  0  0  0  0  0  0  0  0  0
   20.3780   -7.8856  -14.5982 C   0  0  0  0  0  0  0  0  0  0  0  0
   20.9352   -8.2792  -13.5407 O   0  0  0  0  0  0  0  0  0  0  0  0
   25.2260   -4.7772  -16.3632 C   0  0  0  0  0  0  0  0  0  0  0  0
   24.1811   -5.0385  -15.2886 C   0  0  0  0  0  0  0  0  0  0  0  0
   22.9740   -5.7368  -15.8189 C   0  0  2  0  0  0  0  0  0  0  0  0
   22.3983   -4.9298  -16.9496 C   0  0  0  0  0  0  0  0  0  0  0  0
   21.9990   -6.0027  -14.7167 C   0  0  2  0  0  0  0  0  0  0  0  0
   20.8056   -6.6699  -15.1800 N   0  0  0  0  0  0  0  0  0  0  0  0
   21.6469   -4.8098  -13.9294 C   0  0  0  0  0  0  0  0  0  0  0  0
   20.3425   -4.2959  -13.9443 O   0  0  0  0  0  0  0  0  0  0  0  0
   22.4786   -4.2017  -13.2175 O   0  0  0  0  0  0  0  0  0  0  0  0
  2  3  1  0
  2  1  1  0
  3  5  1  0
  4  3  2  0
  5  6  1  0
  6 13  1  0
  7  8  1  0
  6  7  1  1
  8 12  1  0
  9 10  1  0
  9  8  2  0
 10 11  1  0
 11 12  2  0
 13 14  2  0
 13 20  1  0
 15 16  1  0
 17 16  1  0
 17 18  1  6
 19 17  1  0
 19 21  1  0
 19 20  1  6
 21 22  1  0
 23 21  2  0
M  END
$$$$
