GHI.pdb
     RDKit          3D

 23 23  0  0  1  0  0  0  0  0999 V2000
   15.3529  -13.5396  -16.9673 N   0  0  0  0  0  0  0  0  0  0  0  0
   16.0220  -12.7159  -16.0133 C   0  0  0  0  0  0  0  0  0  0  0  0
   16.9517  -11.7357  -16.6702 C   0  0  0  0  0  0  0  0  0  0  0  0
   17.7435  -12.0945  -17.5787 O   0  0  0  0  0  0  0  0  0  0  0  0
   16.9755  -10.3639  -16.2930 N   0  0  0  0  0  0  0  0  0  0  0  0
   17.8588   -9.3936  -16.8666 C   0  0  1  0  0  0  0  0  0  0  0  0
   17.1007   -8.2072  -17.4539 C   0  0  0  0  0  0  0  0  0  0  0  0
   16.1790   -8.6179  -18.5188 C   0  0  0  0  0  0  0  0  0  0  0  0
   14.8833   -9.0540  -18.3383 C   0  0  0  0  0  0  0  0  0  0  0  0
   14.3725   -9.3339  -19.5501 N   0  0  0  0  0  0  0  0  0  0  0  0
   15.2876   -9.0936  -20.4824 C   0  0  0  0  0  0  0  0  0  0  0  0
   16.3913   -8.6553  -19.8414 N   0  0  0  0  0  0  0  0  0  0  0  0
   18.9269   -8.9579  -15.9470 C   0  0  0  0  0  0  0  0  0  0  0  0
   18.6256   -8.8213  -14.7328 O   0  0  0  0  0  0  0  0  0  0  0  0
   23.0549  -11.6521  -14.8264 C   0  0  0  0  0  0  0  0  0  0  0  0
   21.9202  -10.6541  -15.0035 C   0  0  0  0  0  0  0  0  0  0  0  0
   22.4064   -9.2885  -15.3569 C   0  0  2  0  0  0  0  0  0  0  0  0
   23.5004   -8.8958  -14.4029 C   0  0  0  0  0  0  0  0  0  0  0  0
   21.2662   -8.3216  -15.3903 C   0  0  2  0  0  0  0  0  0  0  0  0
   20.2545   -8.6890  -16.3524 N   0  0  0  0  0  0  0  0  0  0  0  0
   21.6756   -6.9212  -15.5858 C   0  0  0  0  0  0  0  0  0  0  0  0
   21.9115   -6.0797  -14.4894 O   0  0  0  0  0  0  0  0  0  0  0  0
   21.8319   -6.4163  -16.7211 O   0  0  0  0  0  0  0  0  0  0  0  0
  2  3  1  0
  2  1  1  0
  3  5  1  0
  4  3  2  0
  5  6  1  0
  6 13  1  0
  7  8  1  0
  6  7  1  1
  8 12  1  0
  9 10  1  0
  9  8  2  0
 10 11  1  0
 11 12  2  0
 13 14  2  0
 13 20  1  0
 15 16  1  0
 17 16  1  0
 17 18  1  1
 19 17  1  0
 19 21  1  0
 19 20  1  6
 21 22  1  0
 23 21  2  0
M  END
$$$$
