GHI.pdb
     RDKit          3D

 23 23  0  0  1  0  0  0  0  0999 V2000
   22.7058  -11.3652  -18.8352 N   0  0  0  0  0  0  0  0  0  0  0  0
   21.2964  -11.5270  -18.6813 C   0  0  0  0  0  0  0  0  0  0  0  0
   20.7094  -10.4981  -17.7574 C   0  0  0  0  0  0  0  0  0  0  0  0
   20.2300   -9.4223  -18.1979 O   0  0  0  0  0  0  0  0  0  0  0  0
   20.6714  -10.6969  -16.3490 N   0  0  0  0  0  0  0  0  0  0  0  0
   20.1159   -9.7547  -15.4247 C   0  0  1  0  0  0  0  0  0  0  0  0
   19.4349  -10.4436  -14.2462 C   0  0  0  0  0  0  0  0  0  0  0  0
   18.1350  -11.0119  -14.6196 C   0  0  0  0  0  0  0  0  0  0  0  0
   17.5343  -10.9039  -15.8562 C   0  0  0  0  0  0  0  0  0  0  0  0
   16.3595  -11.5551  -15.7994 N   0  0  0  0  0  0  0  0  0  0  0  0
   16.1952  -12.0667  -14.5847 C   0  0  0  0  0  0  0  0  0  0  0  0
   17.2880  -11.7289  -13.8685 N   0  0  0  0  0  0  0  0  0  0  0  0
   21.0826   -8.7344  -14.9763 C   0  0  0  0  0  0  0  0  0  0  0  0
   22.2012   -9.1380  -14.5644 O   0  0  0  0  0  0  0  0  0  0  0  0
   23.6768   -3.7077  -16.7586 C   0  0  0  0  0  0  0  0  0  0  0  0
   23.2616   -4.5560  -15.5658 C   0  0  0  0  0  0  0  0  0  0  0  0
   22.2162   -5.5624  -15.9128 C   0  0  2  0  0  0  0  0  0  0  0  0
   21.0346   -4.8536  -16.5151 C   0  0  0  0  0  0  0  0  0  0  0  0
   21.8711   -6.3897  -14.7160 C   0  0  2  0  0  0  0  0  0  0  0  0
   20.8224   -7.3447  -14.9848 N   0  0  0  0  0  0  0  0  0  0  0  0
   21.5506   -5.6002  -13.5156 C   0  0  0  0  0  0  0  0  0  0  0  0
   22.5536   -4.9161  -12.8143 O   0  0  0  0  0  0  0  0  0  0  0  0
   20.3864   -5.4995  -13.0654 O   0  0  0  0  0  0  0  0  0  0  0  0
  2  3  1  0
  2  1  1  0
  3  5  1  0
  4  3  2  0
  5  6  1  0
  6 13  1  0
  7  8  1  0
  6  7  1  1
  8 12  1  0
  9 10  1  0
  9  8  2  0
 10 11  1  0
 11 12  2  0
 13 14  2  0
 13 20  1  0
 15 16  1  0
 17 16  1  0
 17 18  1  1
 19 17  1  0
 19 21  1  0
 19 20  1  6
 21 22  1  0
 23 21  2  0
M  END
$$$$
