GHI.pdb
     RDKit          3D

 23 23  0  0  1  0  0  0  0  0999 V2000
   18.4709  -15.2117  -17.8405 N   0  0  0  0  0  0  0  0  0  0  0  0
   19.3044  -14.6071  -18.8284 C   0  0  0  0  0  0  0  0  0  0  0  0
   19.3926  -13.1175  -18.6551 C   0  0  0  0  0  0  0  0  0  0  0  0
   20.1277  -12.4160  -19.3959 O   0  0  0  0  0  0  0  0  0  0  0  0
   18.6501  -12.4395  -17.6483 N   0  0  0  0  0  0  0  0  0  0  0  0
   18.6458  -11.0172  -17.4813 C   0  0  1  0  0  0  0  0  0  0  0  0
   17.2417  -10.4323  -17.5975 C   0  0  0  0  0  0  0  0  0  0  0  0
   16.7580  -10.4384  -18.9825 C   0  0  0  0  0  0  0  0  0  0  0  0
   16.9188   -9.4179  -19.8960 C   0  0  0  0  0  0  0  0  0  0  0  0
   16.3393   -9.8027  -21.0466 N   0  0  0  0  0  0  0  0  0  0  0  0
   15.8224  -11.0171  -20.8973 C   0  0  0  0  0  0  0  0  0  0  0  0
   16.0836  -11.3988  -19.6295 N   0  0  0  0  0  0  0  0  0  0  0  0
   19.3231  -10.5702  -16.2492 C   0  0  0  0  0  0  0  0  0  0  0  0
   18.8650  -10.9857  -15.1532 O   0  0  0  0  0  0  0  0  0  0  0  0
   23.9862  -11.8380  -15.0228 C   0  0  0  0  0  0  0  0  0  0  0  0
   22.5637  -11.3011  -15.0794 C   0  0  0  0  0  0  0  0  0  0  0  0
   22.5021   -9.8194  -14.9157 C   0  0  2  0  0  0  0  0  0  0  0  0
   23.1945   -9.4386  -13.6363 C   0  0  0  0  0  0  0  0  0  0  0  0
   21.0863   -9.3445  -14.9939 C   0  0  2  0  0  0  0  0  0  0  0  0
   20.4456   -9.7106  -16.2347 N   0  0  0  0  0  0  0  0  0  0  0  0
   20.9239   -7.9040  -14.7381 C   0  0  0  0  0  0  0  0  0  0  0  0
   20.9049   -6.9824  -15.7946 O   0  0  0  0  0  0  0  0  0  0  0  0
   20.7964   -7.4338  -13.5845 O   0  0  0  0  0  0  0  0  0  0  0  0
  2  3  1  0
  2  1  1  0
  3  5  1  0
  4  3  2  0
  5  6  1  0
  6 13  1  0
  7  8  1  0
  6  7  1  1
  8 12  1  0
  9 10  1  0
  9  8  2  0
 10 11  1  0
 11 12  2  0
 13 14  2  0
 13 20  1  0
 15 16  1  0
 17 16  1  0
 17 18  1  1
 19 17  1  0
 19 21  1  0
 19 20  1  6
 21 22  1  0
 23 21  2  0
M  END
$$$$
