GHI.pdb
     RDKit          3D

 23 23  0  0  1  0  0  0  0  0999 V2000
   23.4866  -18.2741  -17.8569 N   0  0  0  0  0  0  0  0  0  0  0  0
   24.8895  -18.2611  -17.5965 C   0  0  0  0  0  0  0  0  0  0  0  0
   25.2695  -19.2287  -16.5120 C   0  0  0  0  0  0  0  0  0  0  0  0
   24.6729  -20.3275  -16.3785 O   0  0  0  0  0  0  0  0  0  0  0  0
   26.3176  -18.9434  -15.5929 N   0  0  0  0  0  0  0  0  0  0  0  0
   26.8179  -19.8839  -14.6359 C   0  0  1  0  0  0  0  0  0  0  0  0
   28.3373  -20.0068  -14.6957 C   0  0  0  0  0  0  0  0  0  0  0  0
   28.7929  -20.5585  -15.9765 C   0  0  0  0  0  0  0  0  0  0  0  0
   29.0885  -21.8827  -16.2233 C   0  0  0  0  0  0  0  0  0  0  0  0
   29.4686  -21.9851  -17.5088 N   0  0  0  0  0  0  0  0  0  0  0  0
   29.4252  -20.7866  -18.0800 C   0  0  0  0  0  0  0  0  0  0  0  0
   29.0101  -19.9186  -17.1337 N   0  0  0  0  0  0  0  0  0  0  0  0
   26.3445  -19.6295  -13.2620 C   0  0  0  0  0  0  0  0  0  0  0  0
   26.5840  -18.4974  -12.7673 O   0  0  0  0  0  0  0  0  0  0  0  0
   21.5143  -19.6315   -9.9231 C   0  0  0  0  0  0  0  0  0  0  0  0
   23.0343  -19.6977   -9.9390 C   0  0  0  0  0  0  0  0  0  0  0  0
   23.5739  -20.1947  -11.2382 C   0  0  2  0  0  0  0  0  0  0  0  0
   22.9604  -21.5331  -11.5438 C   0  0  0  0  0  0  0  0  0  0  0  0
   25.0689  -20.2147  -11.2084 C   0  0  2  0  0  0  0  0  0  0  0  0
   25.6448  -20.5782  -12.4813 N   0  0  0  0  0  0  0  0  0  0  0  0
   25.6343  -21.0463  -10.1334 C   0  0  0  0  0  0  0  0  0  0  0  0
   26.2281  -22.2844  -10.4169 O   0  0  0  0  0  0  0  0  0  0  0  0
   25.6153  -20.6984   -8.9306 O   0  0  0  0  0  0  0  0  0  0  0  0
  2  3  1  0
  2  1  1  0
  3  5  1  0
  4  3  2  0
  5  6  1  0
  6 13  1  0
  7  8  1  0
  6  7  1  1
  8 12  1  0
  9 10  1  0
  9  8  2  0
 10 11  1  0
 11 12  2  0
 13 14  2  0
 13 20  1  0
 15 16  1  0
 17 16  1  0
 17 18  1  1
 19 17  1  0
 19 21  1  0
 19 20  1  6
 21 22  1  0
 23 21  2  0
M  END
$$$$
