FWK.pdb
     RDKit          3D

 35 37  0  0  1  0  0  0  0  0999 V2000
    9.4896  -16.6383   20.1447 N   0  0  0  0  0  0  0  0  0  0  0  0
   10.5975  -15.9968   20.7924 C   0  0  1  0  0  0  0  0  0  0  0  0
   10.8287  -14.5989   20.2506 C   0  0  0  0  0  0  0  0  0  0  0  0
    9.5375  -13.8771   20.2047 C   0  0  0  0  0  0  0  0  0  0  0  0
    8.9689  -13.3022   21.3068 C   0  0  0  0  0  0  0  0  0  0  0  0
    7.7691  -12.6388   21.2323 C   0  0  0  0  0  0  0  0  0  0  0  0
    7.1245  -12.5525   20.0130 C   0  0  0  0  0  0  0  0  0  0  0  0
    7.6891  -13.1328   18.8770 C   0  0  0  0  0  0  0  0  0  0  0  0
    8.8977  -13.7918   18.9929 C   0  0  0  0  0  0  0  0  0  0  0  0
   10.3569  -15.8597   22.2640 C   0  0  0  0  0  0  0  0  0  0  0  0
   11.2158  -15.3146   23.0020 O   0  0  0  0  0  0  0  0  0  0  0  0
    9.1388  -16.3609   22.7931 N   0  0  0  0  0  0  0  0  0  0  0  0
    8.7955  -16.1647   24.1904 C   0  0  1  0  0  0  0  0  0  0  0  0
    7.2931  -16.3043   24.3270 C   0  0  0  0  0  0  0  0  0  0  0  0
    6.8087  -15.2789   25.2656 C   0  0  0  0  0  0  0  0  0  0  0  0
    5.8256  -15.4175   26.2056 C   0  0  0  0  0  0  0  0  0  0  0  0
    5.7031  -14.2419   26.8373 N   0  0  0  0  0  0  0  0  0  0  0  0
    6.5746  -13.3353   26.3421 C   0  0  0  0  0  0  0  0  0  0  0  0
    6.8356  -12.0153   26.6466 C   0  0  0  0  0  0  0  0  0  0  0  0
    7.8078  -11.2928   25.9701 C   0  0  0  0  0  0  0  0  0  0  0  0
    8.4960  -11.9641   24.9806 C   0  0  0  0  0  0  0  0  0  0  0  0
    8.2490  -13.2756   24.6656 C   0  0  0  0  0  0  0  0  0  0  0  0
    7.2753  -13.9919   25.3463 C   0  0  0  0  0  0  0  0  0  0  0  0
    9.4412  -17.2228   25.0303 C   0  0  0  0  0  0  0  0  0  0  0  0
    9.3579  -17.2266   26.2745 O   0  0  0  0  0  0  0  0  0  0  0  0
   10.1616  -18.2393   24.3832 N   0  0  0  0  0  0  0  0  0  0  0  0
   10.8819  -19.3087   25.0864 C   0  0  1  0  0  0  0  0  0  0  0  0
   11.3573  -20.2593   24.0243 C   0  0  0  0  0  0  0  0  0  0  0  0
   12.1757  -21.3898   24.5397 C   0  0  0  0  0  0  0  0  0  0  0  0
   12.5566  -22.3890   23.4742 C   0  0  0  0  0  0  0  0  0  0  0  0
   13.4010  -23.4934   24.0970 C   0  0  0  0  0  0  0  0  0  0  0  0
   12.9374  -24.8035   23.6795 N   0  0  0  0  0  0  0  0  0  0  0  0
   11.9696  -18.6773   25.8356 C   0  0  0  0  0  0  0  0  0  0  0  0
   12.3706  -17.3668   25.6270 O   0  0  0  0  0  0  0  0  0  0  0  0
   12.5767  -19.3424   26.7115 O   0  0  0  0  0  0  0  0  0  0  0  0
  2  1  1  6
  2  3  1  0
  3  4  1  0
  4  5  2  0
  5  6  1  0
  7  6  2  0
  8  7  1  0
  9  8  2  0
  9  4  1  0
 10  2  1  0
 11 10  2  0
 12 10  1  0
 13 12  1  0
 13 14  1  6
 14 15  1  0
 15 23  1  0
 15 16  2  0
 16 17  1  0
 18 19  2  0
 18 17  1  0
 20 19  1  0
 21 20  2  0
 22 21  1  0
 22 23  2  0
 23 18  1  0
 24 26  1  0
 24 13  1  0
 25 24  2  0
 27 33  1  0
 27 26  1  0
 27 28  1  6
 28 29  1  0
 29 30  1  0
 31 30  1  0
 32 31  1  0
 33 34  1  0
 35 33  2  0
M  END
$$$$
