FWK.pdb
     RDKit          3D

 35 37  0  0  1  0  0  0  0  0999 V2000
   10.6582  -15.8457   18.3565 N   0  0  0  0  0  0  0  0  0  0  0  0
    9.6907  -16.5451   19.1522 C   0  0  1  0  0  0  0  0  0  0  0  0
    9.9474  -18.0401   19.1581 C   0  0  0  0  0  0  0  0  0  0  0  0
    9.7775  -18.5665   17.7853 C   0  0  0  0  0  0  0  0  0  0  0  0
    8.5521  -18.7850   17.2205 C   0  0  0  0  0  0  0  0  0  0  0  0
    8.4268  -19.2745   15.9438 C   0  0  0  0  0  0  0  0  0  0  0  0
    9.5685  -19.5515   15.2162 C   0  0  0  0  0  0  0  0  0  0  0  0
   10.8280  -19.3349   15.7756 C   0  0  0  0  0  0  0  0  0  0  0  0
   10.9123  -18.8414   17.0631 C   0  0  0  0  0  0  0  0  0  0  0  0
    9.7336  -16.0897   20.5781 C   0  0  0  0  0  0  0  0  0  0  0  0
   10.7901  -15.6120   21.0628 O   0  0  0  0  0  0  0  0  0  0  0  0
    8.5533  -16.2142   21.3566 N   0  0  0  0  0  0  0  0  0  0  0  0
    8.5073  -15.7292   22.7247 C   0  0  1  0  0  0  0  0  0  0  0  0
    7.0834  -15.3064   23.0234 C   0  0  0  0  0  0  0  0  0  0  0  0
    6.9856  -14.9582   24.4505 C   0  0  0  0  0  0  0  0  0  0  0  0
    6.6515  -15.7899   25.4829 C   0  0  0  0  0  0  0  0  0  0  0  0
    6.6808  -15.0654   26.6100 N   0  0  0  0  0  0  0  0  0  0  0  0
    7.0236  -13.7840   26.3507 C   0  0  0  0  0  0  0  0  0  0  0  0
    7.1888  -12.6724   27.1510 C   0  0  0  0  0  0  0  0  0  0  0  0
    7.5543  -11.4438   26.6204 C   0  0  0  0  0  0  0  0  0  0  0  0
    7.7425  -11.3950   25.2546 C   0  0  0  0  0  0  0  0  0  0  0  0
    7.5824  -12.4900   24.4450 C   0  0  0  0  0  0  0  0  0  0  0  0
    7.2168  -13.7156   24.9826 C   0  0  0  0  0  0  0  0  0  0  0  0
    8.8761  -16.8293   23.6711 C   0  0  0  0  0  0  0  0  0  0  0  0
    8.3663  -17.9652   23.6010 O   0  0  0  0  0  0  0  0  0  0  0  0
    9.8291  -16.5601   24.6663 N   0  0  0  0  0  0  0  0  0  0  0  0
   10.5196  -17.5984   25.4424 C   0  0  1  0  0  0  0  0  0  0  0  0
   11.8957  -17.7152   24.8504 C   0  0  0  0  0  0  0  0  0  0  0  0
   12.7794  -18.6874   25.5486 C   0  0  0  0  0  0  0  0  0  0  0  0
   14.1224  -18.8629   24.8821 C   0  0  0  0  0  0  0  0  0  0  0  0
   14.9529  -19.8629   25.6764 C   0  0  0  0  0  0  0  0  0  0  0  0
   16.2753  -20.0184   25.0995 N   0  0  0  0  0  0  0  0  0  0  0  0
   10.5193  -17.1650   26.8407 C   0  0  0  0  0  0  0  0  0  0  0  0
   10.7925  -18.0195   27.8975 O   0  0  0  0  0  0  0  0  0  0  0  0
   10.2612  -15.9654   27.1101 O   0  0  0  0  0  0  0  0  0  0  0  0
  2  1  1  6
  2  3  1  0
  3  4  1  0
  4  5  2  0
  5  6  1  0
  7  6  2  0
  8  7  1  0
  9  8  2  0
  9  4  1  0
 10  2  1  0
 11 10  2  0
 12 10  1  0
 13 12  1  0
 13 14  1  1
 14 15  1  0
 15 23  1  0
 15 16  2  0
 16 17  1  0
 18 19  2  0
 18 17  1  0
 20 19  1  0
 21 20  2  0
 22 21  1  0
 22 23  2  0
 23 18  1  0
 24 26  1  0
 24 13  1  0
 25 24  2  0
 27 33  1  0
 27 26  1  0
 27 28  1  6
 28 29  1  0
 29 30  1  0
 31 30  1  0
 32 31  1  0
 33 34  1  0
 35 33  2  0
M  END
$$$$
