FWK.pdb
     RDKit          3D

 35 37  0  0  1  0  0  0  0  0999 V2000
    9.0876  -17.1287   18.7442 N   0  0  0  0  0  0  0  0  0  0  0  0
    8.4903  -17.7546   19.8887 C   0  0  1  0  0  0  0  0  0  0  0  0
    8.9245  -19.2017   20.0246 C   0  0  0  0  0  0  0  0  0  0  0  0
    8.4068  -19.9733   18.8726 C   0  0  0  0  0  0  0  0  0  0  0  0
    7.1971  -20.6095   18.8887 C   0  0  0  0  0  0  0  0  0  0  0  0
    6.7440  -21.3181   17.8035 C   0  0  0  0  0  0  0  0  0  0  0  0
    7.5321  -21.3874   16.6705 C   0  0  0  0  0  0  0  0  0  0  0  0
    8.7698  -20.7446   16.6351 C   0  0  0  0  0  0  0  0  0  0  0  0
    9.1905  -20.0416   17.7474 C   0  0  0  0  0  0  0  0  0  0  0  0
    8.8886  -17.0592   21.1536 C   0  0  0  0  0  0  0  0  0  0  0  0
   10.0348  -16.5574   21.2711 O   0  0  0  0  0  0  0  0  0  0  0  0
    7.9383  -16.9862   22.2055 N   0  0  0  0  0  0  0  0  0  0  0  0
    8.2773  -16.3694   23.4757 C   0  0  1  0  0  0  0  0  0  0  0  0
    6.9904  -16.1365   24.2408 C   0  0  0  0  0  0  0  0  0  0  0  0
    7.3075  -15.4229   25.4887 C   0  0  0  0  0  0  0  0  0  0  0  0
    7.5982  -15.9750   26.7052 C   0  0  0  0  0  0  0  0  0  0  0  0
    7.8208  -14.9687   27.5619 N   0  0  0  0  0  0  0  0  0  0  0  0
    7.6856  -13.7729   26.9467 C   0  0  0  0  0  0  0  0  0  0  0  0
    7.8093  -12.4698   27.3824 C   0  0  0  0  0  0  0  0  0  0  0  0
    7.6138  -11.3962   26.5257 C   0  0  0  0  0  0  0  0  0  0  0  0
    7.2903  -11.7022   25.2200 C   0  0  0  0  0  0  0  0  0  0  0  0
    7.1634  -12.9915   24.7707 C   0  0  0  0  0  0  0  0  0  0  0  0
    7.3604  -14.0602   25.6332 C   0  0  0  0  0  0  0  0  0  0  0  0
    9.1383  -17.2930   24.2804 C   0  0  0  0  0  0  0  0  0  0  0  0
    8.8463  -18.4930   24.4524 O   0  0  0  0  0  0  0  0  0  0  0  0
   10.3112  -16.7782   24.8553 N   0  0  0  0  0  0  0  0  0  0  0  0
   11.3217  -17.6012   25.5325 C   0  0  1  0  0  0  0  0  0  0  0  0
   12.6468  -17.1959   24.9517 C   0  0  0  0  0  0  0  0  0  0  0  0
   13.8082  -17.9478   25.4988 C   0  0  0  0  0  0  0  0  0  0  0  0
   15.1298  -17.5262   24.9036 C   0  0  0  0  0  0  0  0  0  0  0  0
   16.2468  -18.3671   25.5085 C   0  0  0  0  0  0  0  0  0  0  0  0
   17.5053  -18.1332   24.8251 N   0  0  0  0  0  0  0  0  0  0  0  0
   11.2059  -17.3346   26.9672 C   0  0  0  0  0  0  0  0  0  0  0  0
   10.7183  -16.1417   27.4781 O   0  0  0  0  0  0  0  0  0  0  0  0
   11.5613  -18.2193   27.7853 O   0  0  0  0  0  0  0  0  0  0  0  0
  2  1  1  6
  2  3  1  0
  3  4  1  0
  4  5  2  0
  5  6  1  0
  7  6  2  0
  8  7  1  0
  9  8  2  0
  9  4  1  0
 10  2  1  0
 11 10  2  0
 12 10  1  0
 13 12  1  0
 13 14  1  1
 14 15  1  0
 15 23  1  0
 15 16  2  0
 16 17  1  0
 18 19  2  0
 18 17  1  0
 20 19  1  0
 21 20  2  0
 22 21  1  0
 22 23  2  0
 23 18  1  0
 24 26  1  0
 24 13  1  0
 25 24  2  0
 27 33  1  0
 27 26  1  0
 27 28  1  6
 28 29  1  0
 29 30  1  0
 31 30  1  0
 32 31  1  0
 33 34  1  0
 35 33  2  0
M  END
$$$$
