FWK.pdb
     RDKit          3D

 35 37  0  0  1  0  0  0  0  0999 V2000
    8.7111  -16.1608   21.3288 N   0  0  0  0  0  0  0  0  0  0  0  0
    9.3878  -14.9895   21.8070 C   0  0  1  0  0  0  0  0  0  0  0  0
    8.4504  -13.8005   21.8982 C   0  0  0  0  0  0  0  0  0  0  0  0
    7.9486  -13.4739   20.5447 C   0  0  0  0  0  0  0  0  0  0  0  0
    6.7521  -13.9302   20.0665 C   0  0  0  0  0  0  0  0  0  0  0  0
    6.3135  -13.6098   18.8055 C   0  0  0  0  0  0  0  0  0  0  0  0
    7.1029  -12.8071   18.0042 C   0  0  0  0  0  0  0  0  0  0  0  0
    8.3272  -12.3316   18.4746 C   0  0  0  0  0  0  0  0  0  0  0  0
    8.7335  -12.6763   19.7492 C   0  0  0  0  0  0  0  0  0  0  0  0
    9.9460  -15.2108   23.1788 C   0  0  0  0  0  0  0  0  0  0  0  0
   10.8167  -14.4339   23.6453 O   0  0  0  0  0  0  0  0  0  0  0  0
    9.4643  -16.3163   23.9276 N   0  0  0  0  0  0  0  0  0  0  0  0
    9.9718  -16.5931   25.2597 C   0  0  1  0  0  0  0  0  0  0  0  0
    8.8237  -17.1169   26.0982 C   0  0  0  0  0  0  0  0  0  0  0  0
    7.7285  -16.1338   26.0628 C   0  0  0  0  0  0  0  0  0  0  0  0
    6.4432  -16.3433   25.6467 C   0  0  0  0  0  0  0  0  0  0  0  0
    5.7828  -15.1845   25.7781 N   0  0  0  0  0  0  0  0  0  0  0  0
    6.5936  -14.2203   26.2674 C   0  0  0  0  0  0  0  0  0  0  0  0
    6.3965  -12.8900   26.5752 C   0  0  0  0  0  0  0  0  0  0  0  0
    7.4216  -12.1013   27.0769 C   0  0  0  0  0  0  0  0  0  0  0  0
    8.6436  -12.7178   27.2502 C   0  0  0  0  0  0  0  0  0  0  0  0
    8.8564  -14.0385   26.9493 C   0  0  0  0  0  0  0  0  0  0  0  0
    7.8265  -14.8212   26.4480 C   0  0  0  0  0  0  0  0  0  0  0  0
   11.0260  -17.6545   25.1963 C   0  0  0  0  0  0  0  0  0  0  0  0
   11.5746  -17.9834   24.1259 O   0  0  0  0  0  0  0  0  0  0  0  0
   11.4004  -18.2934   26.3891 N   0  0  0  0  0  0  0  0  0  0  0  0
   12.3003  -19.4524   26.4507 C   0  0  1  0  0  0  0  0  0  0  0  0
   12.1737  -20.0049   27.8422 C   0  0  0  0  0  0  0  0  0  0  0  0
   12.7427  -19.1280   28.9008 C   0  0  0  0  0  0  0  0  0  0  0  0
   12.6139  -19.7040   30.2901 C   0  0  0  0  0  0  0  0  0  0  0  0
   13.2753  -18.7636   31.2896 C   0  0  0  0  0  0  0  0  0  0  0  0
   12.4568  -18.6038   32.4770 N   0  0  0  0  0  0  0  0  0  0  0  0
   11.8727  -20.3878   25.4089 C   0  0  0  0  0  0  0  0  0  0  0  0
   12.7593  -21.0303   24.5588 O   0  0  0  0  0  0  0  0  0  0  0  0
   10.6479  -20.6289   25.2675 O   0  0  0  0  0  0  0  0  0  0  0  0
  2  1  1  1
  2  3  1  0
  3  4  1  0
  4  5  2  0
  5  6  1  0
  7  6  2  0
  8  7  1  0
  9  8  2  0
  9  4  1  0
 10  2  1  0
 11 10  2  0
 12 10  1  0
 13 12  1  0
 13 14  1  1
 14 15  1  0
 15 23  1  0
 15 16  2  0
 16 17  1  0
 18 19  2  0
 18 17  1  0
 20 19  1  0
 21 20  2  0
 22 21  1  0
 22 23  2  0
 23 18  1  0
 24 26  1  0
 24 13  1  0
 25 24  2  0
 27 33  1  0
 27 26  1  0
 27 28  1  1
 28 29  1  0
 29 30  1  0
 31 30  1  0
 32 31  1  0
 33 34  1  0
 35 33  2  0
M  END
$$$$
