FWK.pdb
     RDKit          3D

 35 37  0  0  1  0  0  0  0  0999 V2000
    8.2026  -16.6718   20.2413 N   0  0  0  0  0  0  0  0  0  0  0  0
    8.5127  -17.6167   21.2755 C   0  0  1  0  0  0  0  0  0  0  0  0
    9.4001  -18.7351   20.7631 C   0  0  0  0  0  0  0  0  0  0  0  0
    8.6288  -19.5703   19.8154 C   0  0  0  0  0  0  0  0  0  0  0  0
    7.7004  -20.4880   20.2206 C   0  0  0  0  0  0  0  0  0  0  0  0
    7.0004  -21.2485   19.3168 C   0  0  0  0  0  0  0  0  0  0  0  0
    7.2430  -21.0791   17.9669 C   0  0  0  0  0  0  0  0  0  0  0  0
    8.1867  -20.1474   17.5340 C   0  0  0  0  0  0  0  0  0  0  0  0
    8.8704  -19.4014   18.4745 C   0  0  0  0  0  0  0  0  0  0  0  0
    9.2461  -16.9605   22.4042 C   0  0  0  0  0  0  0  0  0  0  0  0
   10.1933  -16.1676   22.1730 O   0  0  0  0  0  0  0  0  0  0  0  0
    8.8404  -17.2607   23.7308 N   0  0  0  0  0  0  0  0  0  0  0  0
    9.5722  -16.7381   24.8711 C   0  0  1  0  0  0  0  0  0  0  0  0
    8.6080  -16.6263   26.0344 C   0  0  0  0  0  0  0  0  0  0  0  0
    7.5984  -15.6045   25.7121 C   0  0  0  0  0  0  0  0  0  0  0  0
    6.3595  -15.8088   25.1712 C   0  0  0  0  0  0  0  0  0  0  0  0
    5.7735  -14.6105   25.0417 N   0  0  0  0  0  0  0  0  0  0  0  0
    6.5882  -13.6254   25.4803 C   0  0  0  0  0  0  0  0  0  0  0  0
    6.4525  -12.2547   25.5572 C   0  0  0  0  0  0  0  0  0  0  0  0
    7.4654  -11.4520   26.0618 C   0  0  0  0  0  0  0  0  0  0  0  0
    8.6106  -12.0973   26.4805 C   0  0  0  0  0  0  0  0  0  0  0  0
    8.7617  -13.4583   26.4110 C   0  0  0  0  0  0  0  0  0  0  0  0
    7.7445  -14.2547   25.9053 C   0  0  0  0  0  0  0  0  0  0  0  0
   10.6635  -17.6873   25.2586 C   0  0  0  0  0  0  0  0  0  0  0  0
   10.4324  -18.8691   25.5827 O   0  0  0  0  0  0  0  0  0  0  0  0
   11.9869  -17.2188   25.2528 N   0  0  0  0  0  0  0  0  0  0  0  0
   13.1548  -18.0577   25.5515 C   0  0  1  0  0  0  0  0  0  0  0  0
   14.3438  -17.3332   24.9867 C   0  0  0  0  0  0  0  0  0  0  0  0
   15.6480  -17.9941   25.2620 C   0  0  0  0  0  0  0  0  0  0  0  0
   16.8234  -17.2873   24.6314 C   0  0  0  0  0  0  0  0  0  0  0  0
   18.1021  -18.0512   24.9509 C   0  0  0  0  0  0  0  0  0  0  0  0
   19.2402  -17.4776   24.2572 N   0  0  0  0  0  0  0  0  0  0  0  0
   13.2074  -18.2239   27.0050 C   0  0  0  0  0  0  0  0  0  0  0  0
   12.4619  -17.4516   27.8822 O   0  0  0  0  0  0  0  0  0  0  0  0
   13.9591  -19.1037   27.4941 O   0  0  0  0  0  0  0  0  0  0  0  0
  2  1  1  6
  2  3  1  0
  3  4  1  0
  4  5  2  0
  5  6  1  0
  7  6  2  0
  8  7  1  0
  9  8  2  0
  9  4  1  0
 10  2  1  0
 11 10  2  0
 12 10  1  0
 13 12  1  0
 13 14  1  1
 14 15  1  0
 15 23  1  0
 15 16  2  0
 16 17  1  0
 18 19  2  0
 18 17  1  0
 20 19  1  0
 21 20  2  0
 22 21  1  0
 22 23  2  0
 23 18  1  0
 24 26  1  0
 24 13  1  0
 25 24  2  0
 27 33  1  0
 27 26  1  0
 27 28  1  1
 28 29  1  0
 29 30  1  0
 31 30  1  0
 32 31  1  0
 33 34  1  0
 35 33  2  0
M  END
$$$$
