FWK.pdb
     RDKit          3D

 35 37  0  0  1  0  0  0  0  0999 V2000
    8.0811  -16.4194   21.4169 N   0  0  0  0  0  0  0  0  0  0  0  0
    9.2298  -15.6274   21.7507 C   0  0  1  0  0  0  0  0  0  0  0  0
    8.9453  -14.1439   21.6127 C   0  0  0  0  0  0  0  0  0  0  0  0
    8.1799  -13.9109   20.3676 C   0  0  0  0  0  0  0  0  0  0  0  0
    6.8144  -13.8580   20.3346 C   0  0  0  0  0  0  0  0  0  0  0  0
    6.1323  -13.6402   19.1630 C   0  0  0  0  0  0  0  0  0  0  0  0
    6.8465  -13.4708   17.9922 C   0  0  0  0  0  0  0  0  0  0  0  0
    8.2406  -13.5214   18.0059 C   0  0  0  0  0  0  0  0  0  0  0  0
    8.8902  -13.7427   19.2048 C   0  0  0  0  0  0  0  0  0  0  0  0
    9.6528  -15.8602   23.1682 C   0  0  0  0  0  0  0  0  0  0  0  0
   10.6812  -15.3016   23.6262 O   0  0  0  0  0  0  0  0  0  0  0  0
    8.8618  -16.7243   23.9698 N   0  0  0  0  0  0  0  0  0  0  0  0
    9.2526  -17.0448   25.3312 C   0  0  1  0  0  0  0  0  0  0  0  0
    8.0056  -17.0305   26.1915 C   0  0  0  0  0  0  0  0  0  0  0  0
    7.3820  -15.7005   26.0941 C   0  0  0  0  0  0  0  0  0  0  0  0
    6.2705  -15.3597   25.3746 C   0  0  0  0  0  0  0  0  0  0  0  0
    6.0529  -14.0510   25.5643 N   0  0  0  0  0  0  0  0  0  0  0  0
    6.9863  -13.5211   26.3857 C   0  0  0  0  0  0  0  0  0  0  0  0
    7.1960  -12.2493   26.8774 C   0  0  0  0  0  0  0  0  0  0  0  0
    8.2559  -11.9647   27.7261 C   0  0  0  0  0  0  0  0  0  0  0  0
    9.0849  -13.0188   28.0498 C   0  0  0  0  0  0  0  0  0  0  0  0
    8.8907  -14.2885   27.5699 C   0  0  0  0  0  0  0  0  0  0  0  0
    7.8286  -14.5658   26.7216 C   0  0  0  0  0  0  0  0  0  0  0  0
    9.8414  -18.4204   25.3850 C   0  0  0  0  0  0  0  0  0  0  0  0
    9.1973  -19.4328   25.0457 O   0  0  0  0  0  0  0  0  0  0  0  0
   11.1639  -18.5617   25.8344 N   0  0  0  0  0  0  0  0  0  0  0  0
   11.8388  -19.8552   26.0026 C   0  0  1  0  0  0  0  0  0  0  0  0
   13.2799  -19.6229   25.6464 C   0  0  0  0  0  0  0  0  0  0  0  0
   14.1538  -20.8124   25.8329 C   0  0  0  0  0  0  0  0  0  0  0  0
   15.6116  -20.5349   25.5564 C   0  0  0  0  0  0  0  0  0  0  0  0
   16.4198  -21.8052   25.7886 C   0  0  0  0  0  0  0  0  0  0  0  0
   17.8120  -21.6114   25.4284 N   0  0  0  0  0  0  0  0  0  0  0  0
   11.6394  -20.2696   27.3924 C   0  0  0  0  0  0  0  0  0  0  0  0
   11.6490  -21.5961   27.7951 O   0  0  0  0  0  0  0  0  0  0  0  0
   11.4497  -19.3927   28.2718 O   0  0  0  0  0  0  0  0  0  0  0  0
  2  1  1  1
  2  3  1  0
  3  4  1  0
  4  5  2  0
  5  6  1  0
  7  6  2  0
  8  7  1  0
  9  8  2  0
  9  4  1  0
 10  2  1  0
 11 10  2  0
 12 10  1  0
 13 12  1  0
 13 14  1  1
 14 15  1  0
 15 23  1  0
 15 16  2  0
 16 17  1  0
 18 19  2  0
 18 17  1  0
 20 19  1  0
 21 20  2  0
 22 21  1  0
 22 23  2  0
 23 18  1  0
 24 26  1  0
 24 13  1  0
 25 24  2  0
 27 33  1  0
 27 26  1  0
 27 28  1  1
 28 29  1  0
 29 30  1  0
 31 30  1  0
 32 31  1  0
 33 34  1  0
 35 33  2  0
M  END
$$$$
