FWK.pdb
     RDKit          3D

 35 37  0  0  1  0  0  0  0  0999 V2000
    7.7150  -16.1765   21.2393 N   0  0  0  0  0  0  0  0  0  0  0  0
    8.9026  -15.3992   21.4486 C   0  0  1  0  0  0  0  0  0  0  0  0
    8.6122  -13.9111   21.4014 C   0  0  0  0  0  0  0  0  0  0  0  0
    7.9826  -13.5811   20.1032 C   0  0  0  0  0  0  0  0  0  0  0  0
    7.6764  -12.3022   19.7306 C   0  0  0  0  0  0  0  0  0  0  0  0
    7.0921  -12.0276   18.5188 C   0  0  0  0  0  0  0  0  0  0  0  0
    6.8087  -13.0714   17.6586 C   0  0  0  0  0  0  0  0  0  0  0  0
    7.1139  -14.3835   18.0212 C   0  0  0  0  0  0  0  0  0  0  0  0
    7.7014  -14.6187   19.2492 C   0  0  0  0  0  0  0  0  0  0  0  0
    9.5046  -15.6836   22.7899 C   0  0  0  0  0  0  0  0  0  0  0  0
   10.5170  -15.0501   23.1811 O   0  0  0  0  0  0  0  0  0  0  0  0
    8.9002  -16.6826   23.5970 N   0  0  0  0  0  0  0  0  0  0  0  0
    9.4302  -17.0018   24.9108 C   0  0  1  0  0  0  0  0  0  0  0  0
    8.2625  -17.1297   25.8678 C   0  0  0  0  0  0  0  0  0  0  0  0
    7.5824  -15.8271   25.9568 C   0  0  0  0  0  0  0  0  0  0  0  0
    6.3303  -15.5161   25.5045 C   0  0  0  0  0  0  0  0  0  0  0  0
    6.1088  -14.2248   25.7865 N   0  0  0  0  0  0  0  0  0  0  0  0
    7.1758  -13.6775   26.4098 C   0  0  0  0  0  0  0  0  0  0  0  0
    7.4376  -12.4125   26.8942 C   0  0  0  0  0  0  0  0  0  0  0  0
    8.6433  -12.1052   27.5078 C   0  0  0  0  0  0  0  0  0  0  0  0
    9.5620  -13.1297   27.6065 C   0  0  0  0  0  0  0  0  0  0  0  0
    9.3178  -14.3922   27.1305 C   0  0  0  0  0  0  0  0  0  0  0  0
    8.1097  -14.6923   26.5180 C   0  0  0  0  0  0  0  0  0  0  0  0
   10.1460  -18.3163   24.8693 C   0  0  0  0  0  0  0  0  0  0  0  0
    9.5591  -19.3847   24.6063 O   0  0  0  0  0  0  0  0  0  0  0  0
   11.5240  -18.3330   25.1372 N   0  0  0  0  0  0  0  0  0  0  0  0
   12.3417  -19.5529   25.1508 C   0  0  1  0  0  0  0  0  0  0  0  0
   13.6609  -19.1773   24.5373 C   0  0  0  0  0  0  0  0  0  0  0  0
   14.6618  -20.2778   24.5219 C   0  0  0  0  0  0  0  0  0  0  0  0
   15.9234  -19.9307   23.7692 C   0  0  0  0  0  0  0  0  0  0  0  0
   17.1160  -20.0260   24.7122 C   0  0  0  0  0  0  0  0  0  0  0  0
   18.3459  -19.6545   24.0379 N   0  0  0  0  0  0  0  0  0  0  0  0
   12.4476  -19.9870   26.5448 C   0  0  0  0  0  0  0  0  0  0  0  0
   12.6892  -21.3019   26.9114 O   0  0  0  0  0  0  0  0  0  0  0  0
   12.3153  -19.1389   27.4622 O   0  0  0  0  0  0  0  0  0  0  0  0
  2  1  1  1
  2  3  1  0
  3  4  1  0
  4  5  2  0
  5  6  1  0
  7  6  2  0
  8  7  1  0
  9  8  2  0
  9  4  1  0
 10  2  1  0
 11 10  2  0
 12 10  1  0
 13 12  1  0
 13 14  1  1
 14 15  1  0
 15 23  1  0
 15 16  2  0
 16 17  1  0
 18 19  2  0
 18 17  1  0
 20 19  1  0
 21 20  2  0
 22 21  1  0
 22 23  2  0
 23 18  1  0
 24 26  1  0
 24 13  1  0
 25 24  2  0
 27 33  1  0
 27 26  1  0
 27 28  1  1
 28 29  1  0
 29 30  1  0
 31 30  1  0
 32 31  1  0
 33 34  1  0
 35 33  2  0
M  END
$$$$
