FWK.pdb
     RDKit          3D

 35 37  0  0  1  0  0  0  0  0999 V2000
    9.7519  -16.0428   19.6841 N   0  0  0  0  0  0  0  0  0  0  0  0
   10.6605  -15.1405   20.3311 C   0  0  1  0  0  0  0  0  0  0  0  0
   10.4717  -13.7151   19.8477 C   0  0  0  0  0  0  0  0  0  0  0  0
    9.3551  -13.6763   18.8771 C   0  0  0  0  0  0  0  0  0  0  0  0
    8.9542  -14.7706   18.1627 C   0  0  0  0  0  0  0  0  0  0  0  0
    7.9141  -14.7031   17.2689 C   0  0  0  0  0  0  0  0  0  0  0  0
    7.2599  -13.4991   17.0902 C   0  0  0  0  0  0  0  0  0  0  0  0
    7.6545  -12.3712   17.8103 C   0  0  0  0  0  0  0  0  0  0  0  0
    8.7056  -12.4797   18.7002 C   0  0  0  0  0  0  0  0  0  0  0  0
   10.4474  -15.1301   21.8132 C   0  0  0  0  0  0  0  0  0  0  0  0
   11.2151  -14.4756   22.5627 O   0  0  0  0  0  0  0  0  0  0  0  0
    9.3606  -15.8767   22.3388 N   0  0  0  0  0  0  0  0  0  0  0  0
    8.9426  -15.7142   23.7200 C   0  0  1  0  0  0  0  0  0  0  0  0
    7.4285  -15.6680   23.7481 C   0  0  0  0  0  0  0  0  0  0  0  0
    6.9955  -15.2441   25.0897 C   0  0  0  0  0  0  0  0  0  0  0  0
    6.3675  -16.0069   26.0347 C   0  0  0  0  0  0  0  0  0  0  0  0
    6.1534  -15.2284   27.1043 N   0  0  0  0  0  0  0  0  0  0  0  0
    6.6209  -13.9781   26.8920 C   0  0  0  0  0  0  0  0  0  0  0  0
    6.6416  -12.8360   27.6654 C   0  0  0  0  0  0  0  0  0  0  0  0
    7.1962  -11.6530   27.1986 C   0  0  0  0  0  0  0  0  0  0  0  0
    7.7232  -11.6817   25.9240 C   0  0  0  0  0  0  0  0  0  0  0  0
    7.7107  -12.8082   25.1422 C   0  0  0  0  0  0  0  0  0  0  0  0
    7.1545  -13.9876   25.6157 C   0  0  0  0  0  0  0  0  0  0  0  0
    9.3890  -16.8902   24.5323 C   0  0  0  0  0  0  0  0  0  0  0  0
    8.8585  -17.1855   25.6215 O   0  0  0  0  0  0  0  0  0  0  0  0
   10.4411  -17.6788   24.0401 N   0  0  0  0  0  0  0  0  0  0  0  0
   10.9871  -18.8477   24.7419 C   0  0  1  0  0  0  0  0  0  0  0  0
   11.9285  -19.5110   23.7768 C   0  0  0  0  0  0  0  0  0  0  0  0
   11.3009  -19.9076   22.4875 C   0  0  0  0  0  0  0  0  0  0  0  0
   12.2634  -20.5674   21.5300 C   0  0  0  0  0  0  0  0  0  0  0  0
   11.5179  -20.9733   20.2650 C   0  0  0  0  0  0  0  0  0  0  0  0
   12.4226  -21.5496   19.2878 N   0  0  0  0  0  0  0  0  0  0  0  0
   11.6433  -18.3563   25.9548 C   0  0  0  0  0  0  0  0  0  0  0  0
   12.1882  -17.0859   26.0584 O   0  0  0  0  0  0  0  0  0  0  0  0
   11.7235  -19.1106   26.9562 O   0  0  0  0  0  0  0  0  0  0  0  0
  2  1  1  6
  2  3  1  0
  3  4  1  0
  4  5  2  0
  5  6  1  0
  7  6  2  0
  8  7  1  0
  9  8  2  0
  9  4  1  0
 10  2  1  0
 11 10  2  0
 12 10  1  0
 13 12  1  0
 13 14  1  6
 14 15  1  0
 15 23  1  0
 15 16  2  0
 16 17  1  0
 18 19  2  0
 18 17  1  0
 20 19  1  0
 21 20  2  0
 22 21  1  0
 22 23  2  0
 23 18  1  0
 24 26  1  0
 24 13  1  0
 25 24  2  0
 27 33  1  0
 27 26  1  0
 27 28  1  6
 28 29  1  0
 29 30  1  0
 31 30  1  0
 32 31  1  0
 33 34  1  0
 35 33  2  0
M  END
$$$$
