FWK.pdb
     RDKit          3D

 35 37  0  0  1  0  0  0  0  0999 V2000
    7.3166  -19.1694   28.4538 N   0  0  0  0  0  0  0  0  0  0  0  0
    7.8484  -17.8987   28.0527 C   0  0  1  0  0  0  0  0  0  0  0  0
    9.2129  -17.6454   28.6651 C   0  0  0  0  0  0  0  0  0  0  0  0
    9.5547  -16.2136   28.5119 C   0  0  0  0  0  0  0  0  0  0  0  0
   10.8418  -15.7642   28.4128 C   0  0  0  0  0  0  0  0  0  0  0  0
   11.1272  -14.4287   28.2714 C   0  0  0  0  0  0  0  0  0  0  0  0
   10.0863  -13.5208   28.2287 C   0  0  0  0  0  0  0  0  0  0  0  0
    8.7660  -13.9603   28.3283 C   0  0  0  0  0  0  0  0  0  0  0  0
    8.5199  -15.3123   28.4696 C   0  0  0  0  0  0  0  0  0  0  0  0
    8.0178  -17.8290   26.5665 C   0  0  0  0  0  0  0  0  0  0  0  0
    8.5535  -18.7783   25.9411 O   0  0  0  0  0  0  0  0  0  0  0  0
    7.5579  -16.6668   25.8939 N   0  0  0  0  0  0  0  0  0  0  0  0
    7.6578  -16.5519   24.4497 C   0  0  1  0  0  0  0  0  0  0  0  0
    6.9150  -15.3007   24.0275 C   0  0  0  0  0  0  0  0  0  0  0  0
    6.8568  -15.2617   22.5570 C   0  0  0  0  0  0  0  0  0  0  0  0
    6.2952  -16.1922   21.7275 C   0  0  0  0  0  0  0  0  0  0  0  0
    6.4666  -15.7656   20.4686 N   0  0  0  0  0  0  0  0  0  0  0  0
    7.1230  -14.5844   20.4448 C   0  0  0  0  0  0  0  0  0  0  0  0
    7.5314  -13.7539   19.4218 C   0  0  0  0  0  0  0  0  0  0  0  0
    8.2047  -12.5675   19.6747 C   0  0  0  0  0  0  0  0  0  0  0  0
    8.4424  -12.2656   20.9997 C   0  0  0  0  0  0  0  0  0  0  0  0
    8.0433  -13.0799   22.0283 C   0  0  0  0  0  0  0  0  0  0  0  0
    7.3704  -14.2648   21.7678 C   0  0  0  0  0  0  0  0  0  0  0  0
    9.0918  -16.4025   24.0454 C   0  0  0  0  0  0  0  0  0  0  0  0
    9.8998  -15.7172   24.7030 O   0  0  0  0  0  0  0  0  0  0  0  0
    9.5287  -17.0612   22.8851 N   0  0  0  0  0  0  0  0  0  0  0  0
   10.9418  -17.2687   22.5431 C   0  0  1  0  0  0  0  0  0  0  0  0
   10.9520  -17.9105   21.1846 C   0  0  0  0  0  0  0  0  0  0  0  0
   12.3100  -18.2489   20.6800 C   0  0  0  0  0  0  0  0  0  0  0  0
   12.2943  -18.9783   19.3585 C   0  0  0  0  0  0  0  0  0  0  0  0
   13.7238  -19.3041   18.9450 C   0  0  0  0  0  0  0  0  0  0  0  0
   13.8836  -20.7241   18.6924 N   0  0  0  0  0  0  0  0  0  0  0  0
   11.5915  -15.9572   22.5752 C   0  0  0  0  0  0  0  0  0  0  0  0
   11.0336  -14.8224   22.0072 O   0  0  0  0  0  0  0  0  0  0  0  0
   12.7073  -15.8401   23.1406 O   0  0  0  0  0  0  0  0  0  0  0  0
  2  1  1  6
  2  3  1  0
  3  4  1  0
  4  5  2  0
  5  6  1  0
  7  6  2  0
  8  7  1  0
  9  8  2  0
  9  4  1  0
 10  2  1  0
 11 10  2  0
 12 10  1  0
 13 12  1  0
 13 14  1  1
 14 15  1  0
 15 23  1  0
 15 16  2  0
 16 17  1  0
 18 19  2  0
 18 17  1  0
 20 19  1  0
 21 20  2  0
 22 21  1  0
 22 23  2  0
 23 18  1  0
 24 26  1  0
 24 13  1  0
 25 24  2  0
 27 33  1  0
 27 26  1  0
 27 28  1  6
 28 29  1  0
 29 30  1  0
 31 30  1  0
 32 31  1  0
 33 34  1  0
 35 33  2  0
M  END
$$$$
