FWK.pdb
     RDKit          3D

 35 37  0  0  1  0  0  0  0  0999 V2000
    8.1522  -16.3763   21.4589 N   0  0  0  0  0  0  0  0  0  0  0  0
    9.1318  -15.3967   21.8320 C   0  0  1  0  0  0  0  0  0  0  0  0
    8.5197  -14.0147   21.9598 C   0  0  0  0  0  0  0  0  0  0  0  0
    7.9014  -13.6371   20.6692 C   0  0  0  0  0  0  0  0  0  0  0  0
    6.5915  -13.8898   20.3716 C   0  0  0  0  0  0  0  0  0  0  0  0
    6.0464  -13.5271   19.1648 C   0  0  0  0  0  0  0  0  0  0  0  0
    6.8439  -12.8921   18.2319 C   0  0  0  0  0  0  0  0  0  0  0  0
    8.1832  -12.6256   18.5174 C   0  0  0  0  0  0  0  0  0  0  0  0
    8.6945  -13.0062   19.7430 C   0  0  0  0  0  0  0  0  0  0  0  0
    9.7468  -15.7255   23.1572 C   0  0  0  0  0  0  0  0  0  0  0  0
   10.8016  -15.1528   23.5298 O   0  0  0  0  0  0  0  0  0  0  0  0
    9.1055  -16.6959   23.9708 N   0  0  0  0  0  0  0  0  0  0  0  0
    9.6001  -16.9977   25.3023 C   0  0  1  0  0  0  0  0  0  0  0  0
    8.4121  -17.0546   26.2408 C   0  0  0  0  0  0  0  0  0  0  0  0
    7.5932  -15.8483   26.0369 C   0  0  0  0  0  0  0  0  0  0  0  0
    6.3852  -15.7674   25.4018 C   0  0  0  0  0  0  0  0  0  0  0  0
    5.9945  -14.4860   25.4403 N   0  0  0  0  0  0  0  0  0  0  0  0
    6.9076  -13.7225   26.0805 C   0  0  0  0  0  0  0  0  0  0  0  0
    6.9696  -12.3763   26.3758 C   0  0  0  0  0  0  0  0  0  0  0  0
    8.0459  -11.8323   27.0617 C   0  0  0  0  0  0  0  0  0  0  0  0
    9.0463  -12.7078   27.4304 C   0  0  0  0  0  0  0  0  0  0  0  0
    9.0002  -14.0482   27.1449 C   0  0  0  0  0  0  0  0  0  0  0  0
    7.9207  -14.5852   26.4587 C   0  0  0  0  0  0  0  0  0  0  0  0
   10.2660  -18.3388   25.3100 C   0  0  0  0  0  0  0  0  0  0  0  0
    9.6841  -19.3720   24.9240 O   0  0  0  0  0  0  0  0  0  0  0  0
   11.5899  -18.4224   25.7697 N   0  0  0  0  0  0  0  0  0  0  0  0
   12.3404  -19.6798   25.8832 C   0  0  1  0  0  0  0  0  0  0  0  0
   13.7826  -19.3265   25.6534 C   0  0  0  0  0  0  0  0  0  0  0  0
   14.7360  -20.4279   25.9559 C   0  0  0  0  0  0  0  0  0  0  0  0
   15.6443  -20.7693   24.7996 C   0  0  0  0  0  0  0  0  0  0  0  0
   16.5140  -21.9620   25.1763 C   0  0  0  0  0  0  0  0  0  0  0  0
   17.7057  -21.5359   25.8860 N   0  0  0  0  0  0  0  0  0  0  0  0
   12.0764  -20.2220   27.2171 C   0  0  0  0  0  0  0  0  0  0  0  0
   12.1571  -21.5738   27.5137 O   0  0  0  0  0  0  0  0  0  0  0  0
   11.7610  -19.4372   28.1459 O   0  0  0  0  0  0  0  0  0  0  0  0
  2  1  1  1
  2  3  1  0
  3  4  1  0
  4  5  2  0
  5  6  1  0
  7  6  2  0
  8  7  1  0
  9  8  2  0
  9  4  1  0
 10  2  1  0
 11 10  2  0
 12 10  1  0
 13 12  1  0
 13 14  1  1
 14 15  1  0
 15 23  1  0
 15 16  2  0
 16 17  1  0
 18 19  2  0
 18 17  1  0
 20 19  1  0
 21 20  2  0
 22 21  1  0
 22 23  2  0
 23 18  1  0
 24 26  1  0
 24 13  1  0
 25 24  2  0
 27 33  1  0
 27 26  1  0
 27 28  1  1
 28 29  1  0
 29 30  1  0
 31 30  1  0
 32 31  1  0
 33 34  1  0
 35 33  2  0
M  END
$$$$
