FWK.pdb
     RDKit          3D

 35 37  0  0  1  0  0  0  0  0999 V2000
    7.9166  -16.3098   21.5446 N   0  0  0  0  0  0  0  0  0  0  0  0
    9.3275  -16.1037   21.7036 C   0  0  1  0  0  0  0  0  0  0  0  0
    9.7366  -14.7005   21.2981 C   0  0  0  0  0  0  0  0  0  0  0  0
    8.7058  -14.1359   20.3986 C   0  0  0  0  0  0  0  0  0  0  0  0
    8.4642  -14.6270   19.1460 C   0  0  0  0  0  0  0  0  0  0  0  0
    7.5004  -14.0814   18.3345 C   0  0  0  0  0  0  0  0  0  0  0  0
    6.7595  -13.0111   18.7984 C   0  0  0  0  0  0  0  0  0  0  0  0
    6.9916  -12.4961   20.0740 C   0  0  0  0  0  0  0  0  0  0  0  0
    7.9702  -13.0726   20.8603 C   0  0  0  0  0  0  0  0  0  0  0  0
    9.7418  -16.2833   23.1314 C   0  0  0  0  0  0  0  0  0  0  0  0
   10.8751  -15.9024   23.5187 O   0  0  0  0  0  0  0  0  0  0  0  0
    8.8215  -16.8919   24.0243 N   0  0  0  0  0  0  0  0  0  0  0  0
    9.1086  -16.9817   25.4450 C   0  0  1  0  0  0  0  0  0  0  0  0
    7.8039  -16.8161   26.1973 C   0  0  0  0  0  0  0  0  0  0  0  0
    7.2146  -15.5162   25.8365 C   0  0  0  0  0  0  0  0  0  0  0  0
    6.1229  -15.2954   25.0436 C   0  0  0  0  0  0  0  0  0  0  0  0
    5.9345  -13.9702   24.9767 N   0  0  0  0  0  0  0  0  0  0  0  0
    6.8678  -13.3133   25.7007 C   0  0  0  0  0  0  0  0  0  0  0  0
    7.1008  -11.9758   25.9457 C   0  0  0  0  0  0  0  0  0  0  0  0
    8.1542  -11.5571   26.7456 C   0  0  0  0  0  0  0  0  0  0  0  0
    8.9522  -12.5475   27.2801 C   0  0  0  0  0  0  0  0  0  0  0  0
    8.7344  -13.8810   27.0466 C   0  0  0  0  0  0  0  0  0  0  0  0
    7.6790  -14.2924   26.2456 C   0  0  0  0  0  0  0  0  0  0  0  0
    9.6672  -18.3322   25.7707 C   0  0  0  0  0  0  0  0  0  0  0  0
    8.9525  -19.3529   25.8199 O   0  0  0  0  0  0  0  0  0  0  0  0
   11.0433  -18.4396   26.0272 N   0  0  0  0  0  0  0  0  0  0  0  0
   11.7172  -19.6981   26.3718 C   0  0  1  0  0  0  0  0  0  0  0  0
   13.0961  -19.6078   25.7817 C   0  0  0  0  0  0  0  0  0  0  0  0
   13.7529  -20.9245   25.5617 C   0  0  0  0  0  0  0  0  0  0  0  0
   14.3757  -21.0629   24.1936 C   0  0  0  0  0  0  0  0  0  0  0  0
   15.1233  -22.3876   24.1113 C   0  0  0  0  0  0  0  0  0  0  0  0
   16.5354  -22.2087   24.3930 N   0  0  0  0  0  0  0  0  0  0  0  0
   11.7118  -19.8060   27.8317 C   0  0  0  0  0  0  0  0  0  0  0  0
   11.7085  -18.7032   28.6717 O   0  0  0  0  0  0  0  0  0  0  0  0
   11.7098  -20.9450   28.3617 O   0  0  0  0  0  0  0  0  0  0  0  0
  2  1  1  1
  2  3  1  0
  3  4  1  0
  4  5  2  0
  5  6  1  0
  7  6  2  0
  8  7  1  0
  9  8  2  0
  9  4  1  0
 10  2  1  0
 11 10  2  0
 12 10  1  0
 13 12  1  0
 13 14  1  1
 14 15  1  0
 15 23  1  0
 15 16  2  0
 16 17  1  0
 18 19  2  0
 18 17  1  0
 20 19  1  0
 21 20  2  0
 22 21  1  0
 22 23  2  0
 23 18  1  0
 24 26  1  0
 24 13  1  0
 25 24  2  0
 27 33  1  0
 27 26  1  0
 27 28  1  1
 28 29  1  0
 29 30  1  0
 31 30  1  0
 32 31  1  0
 33 34  1  0
 35 33  2  0
M  END
$$$$
