FWK.pdb
     RDKit          3D

 35 37  0  0  1  0  0  0  0  0999 V2000
   11.1472  -16.1191   20.6601 N   0  0  0  0  0  0  0  0  0  0  0  0
   10.1220  -15.6600   21.5526 C   0  0  1  0  0  0  0  0  0  0  0  0
    8.7361  -15.9495   21.0081 C   0  0  0  0  0  0  0  0  0  0  0  0
    8.0985  -14.6765   20.6040 C   0  0  0  0  0  0  0  0  0  0  0  0
    8.7342  -13.4692   20.6853 C   0  0  0  0  0  0  0  0  0  0  0  0
    8.1158  -12.3047   20.3025 C   0  0  0  0  0  0  0  0  0  0  0  0
    6.8204  -12.3586   19.8244 C   0  0  0  0  0  0  0  0  0  0  0  0
    6.1550  -13.5815   19.7339 C   0  0  0  0  0  0  0  0  0  0  0  0
    6.8114  -14.7310   20.1290 C   0  0  0  0  0  0  0  0  0  0  0  0
   10.2191  -16.3413   22.8825 C   0  0  0  0  0  0  0  0  0  0  0  0
   11.3048  -16.8490   23.2606 O   0  0  0  0  0  0  0  0  0  0  0  0
    9.0558  -16.3945   23.6942 N   0  0  0  0  0  0  0  0  0  0  0  0
    9.1465  -16.7139   25.1080 C   0  0  1  0  0  0  0  0  0  0  0  0
    7.7475  -16.6709   25.6879 C   0  0  0  0  0  0  0  0  0  0  0  0
    7.2565  -15.2843   25.6299 C   0  0  0  0  0  0  0  0  0  0  0  0
    6.2631  -14.7922   24.8298 C   0  0  0  0  0  0  0  0  0  0  0  0
    6.1414  -13.4844   25.0962 N   0  0  0  0  0  0  0  0  0  0  0  0
    7.0234  -13.1017   26.0460 C   0  0  0  0  0  0  0  0  0  0  0  0
    7.2890  -11.8913   26.6524 C   0  0  0  0  0  0  0  0  0  0  0  0
    8.2719  -11.7660   27.6234 C   0  0  0  0  0  0  0  0  0  0  0  0
    8.9660  -12.9133   27.9477 C   0  0  0  0  0  0  0  0  0  0  0  0
    8.7146  -14.1238   27.3548 C   0  0  0  0  0  0  0  0  0  0  0  0
    7.7301  -14.2417   26.3845 C   0  0  0  0  0  0  0  0  0  0  0  0
    9.6839  -18.1000   25.2869 C   0  0  0  0  0  0  0  0  0  0  0  0
    9.2786  -19.0629   24.6062 O   0  0  0  0  0  0  0  0  0  0  0  0
   10.6770  -18.3092   26.2569 N   0  0  0  0  0  0  0  0  0  0  0  0
   11.3061  -19.6102   26.5187 C   0  0  1  0  0  0  0  0  0  0  0  0
   12.6177  -19.5940   25.7860 C   0  0  0  0  0  0  0  0  0  0  0  0
   13.3964  -20.8565   25.9010 C   0  0  0  0  0  0  0  0  0  0  0  0
   14.6777  -20.8457   25.1032 C   0  0  0  0  0  0  0  0  0  0  0  0
   15.4065  -22.1686   25.3012 C   0  0  0  0  0  0  0  0  0  0  0  0
   16.5541  -22.2698   24.4190 N   0  0  0  0  0  0  0  0  0  0  0  0
   11.4486  -19.7374   27.9701 C   0  0  0  0  0  0  0  0  0  0  0  0
   11.7088  -20.9435   28.6019 O   0  0  0  0  0  0  0  0  0  0  0  0
   11.3320  -18.7137   28.6891 O   0  0  0  0  0  0  0  0  0  0  0  0
  2  1  1  6
  2  3  1  0
  3  4  1  0
  4  5  2  0
  5  6  1  0
  7  6  2  0
  8  7  1  0
  9  8  2  0
  9  4  1  0
 10  2  1  0
 11 10  2  0
 12 10  1  0
 13 12  1  0
 13 14  1  6
 14 15  1  0
 15 23  1  0
 15 16  2  0
 16 17  1  0
 18 19  2  0
 18 17  1  0
 20 19  1  0
 21 20  2  0
 22 21  1  0
 22 23  2  0
 23 18  1  0
 24 26  1  0
 24 13  1  0
 25 24  2  0
 27 33  1  0
 27 26  1  0
 27 28  1  6
 28 29  1  0
 29 30  1  0
 31 30  1  0
 32 31  1  0
 33 34  1  0
 35 33  2  0
M  END
$$$$
