FWK.pdb
     RDKit          3D

 35 37  0  0  1  0  0  0  0  0999 V2000
    9.7875  -18.3772   18.9646 N   0  0  0  0  0  0  0  0  0  0  0  0
    9.0488  -18.6101   20.1723 C   0  0  1  0  0  0  0  0  0  0  0  0
    9.3103  -19.9967   20.7289 C   0  0  0  0  0  0  0  0  0  0  0  0
    8.8049  -21.0064   19.7720 C   0  0  0  0  0  0  0  0  0  0  0  0
    8.8633  -22.3508   20.0117 C   0  0  0  0  0  0  0  0  0  0  0  0
    8.3857  -23.2635   19.1039 C   0  0  0  0  0  0  0  0  0  0  0  0
    7.8339  -22.8083   17.9215 C   0  0  0  0  0  0  0  0  0  0  0  0
    7.7654  -21.4399   17.6590 C   0  0  0  0  0  0  0  0  0  0  0  0
    8.2567  -20.5533   18.5976 C   0  0  0  0  0  0  0  0  0  0  0  0
    9.4350  -17.6322   21.2386 C   0  0  0  0  0  0  0  0  0  0  0  0
   10.6188  -17.2194   21.3260 O   0  0  0  0  0  0  0  0  0  0  0  0
    8.4300  -17.1912   22.1387 N   0  0  0  0  0  0  0  0  0  0  0  0
    8.7315  -16.2218   23.1770 C   0  0  1  0  0  0  0  0  0  0  0  0
    7.4570  -15.4680   23.4975 C   0  0  0  0  0  0  0  0  0  0  0  0
    7.8055  -14.2560   24.2569 C   0  0  0  0  0  0  0  0  0  0  0  0
    8.8117  -13.3713   23.9849 C   0  0  0  0  0  0  0  0  0  0  0  0
    8.7764  -12.4184   24.9266 N   0  0  0  0  0  0  0  0  0  0  0  0
    7.7787  -12.6490   25.8087 C   0  0  0  0  0  0  0  0  0  0  0  0
    7.3386  -11.9769   26.9303 C   0  0  0  0  0  0  0  0  0  0  0  0
    6.2647  -12.4377   27.6779 C   0  0  0  0  0  0  0  0  0  0  0  0
    5.6638  -13.5998   27.2400 C   0  0  0  0  0  0  0  0  0  0  0  0
    6.0886  -14.2799   26.1277 C   0  0  0  0  0  0  0  0  0  0  0  0
    7.1633  -13.8131   25.3848 C   0  0  0  0  0  0  0  0  0  0  0  0
    9.1832  -16.9250   24.4193 C   0  0  0  0  0  0  0  0  0  0  0  0
    8.4140  -17.6325   25.0996 O   0  0  0  0  0  0  0  0  0  0  0  0
   10.5201  -16.7748   24.8210 N   0  0  0  0  0  0  0  0  0  0  0  0
   11.0812  -17.3696   26.0409 C   0  0  1  0  0  0  0  0  0  0  0  0
   12.5679  -17.1691   25.9565 C   0  0  0  0  0  0  0  0  0  0  0  0
   13.3595  -18.4246   26.0595 C   0  0  0  0  0  0  0  0  0  0  0  0
   14.4360  -18.5428   25.0079 C   0  0  0  0  0  0  0  0  0  0  0  0
   15.0162  -19.9511   25.0359 C   0  0  0  0  0  0  0  0  0  0  0  0
   15.9541  -20.1512   23.9469 N   0  0  0  0  0  0  0  0  0  0  0  0
   10.4628  -16.6871   27.1787 C   0  0  0  0  0  0  0  0  0  0  0  0
    9.8346  -15.4559   27.0722 O   0  0  0  0  0  0  0  0  0  0  0  0
   10.4953  -17.2310   28.3107 O   0  0  0  0  0  0  0  0  0  0  0  0
  2  1  1  6
  2  3  1  0
  3  4  1  0
  4  5  2  0
  5  6  1  0
  7  6  2  0
  8  7  1  0
  9  8  2  0
  9  4  1  0
 10  2  1  0
 11 10  2  0
 12 10  1  0
 13 12  1  0
 13 14  1  1
 14 15  1  0
 15 23  1  0
 15 16  2  0
 16 17  1  0
 18 19  2  0
 18 17  1  0
 20 19  1  0
 21 20  2  0
 22 21  1  0
 22 23  2  0
 23 18  1  0
 24 26  1  0
 24 13  1  0
 25 24  2  0
 27 33  1  0
 27 26  1  0
 27 28  1  6
 28 29  1  0
 29 30  1  0
 31 30  1  0
 32 31  1  0
 33 34  1  0
 35 33  2  0
M  END
$$$$
