FWK.pdb
     RDKit          3D

 35 37  0  0  1  0  0  0  0  0999 V2000
    7.2499  -17.1732   21.2963 N   0  0  0  0  0  0  0  0  0  0  0  0
    8.6808  -17.1556   21.1927 C   0  0  1  0  0  0  0  0  0  0  0  0
    9.1534  -16.1638   20.1468 C   0  0  0  0  0  0  0  0  0  0  0  0
    8.4925  -14.8604   20.3812 C   0  0  0  0  0  0  0  0  0  0  0  0
    8.6570  -13.7853   19.5533 C   0  0  0  0  0  0  0  0  0  0  0  0
    8.0300  -12.5884   19.7974 C   0  0  0  0  0  0  0  0  0  0  0  0
    7.2146  -12.4720   20.9070 C   0  0  0  0  0  0  0  0  0  0  0  0
    7.0343  -13.5582   21.7636 C   0  0  0  0  0  0  0  0  0  0  0  0
    7.6825  -14.7456   21.4838 C   0  0  0  0  0  0  0  0  0  0  0  0
    9.3111  -16.7543   22.4904 C   0  0  0  0  0  0  0  0  0  0  0  0
   10.3862  -16.1036   22.5022 O   0  0  0  0  0  0  0  0  0  0  0  0
    8.6609  -17.1296   23.6951 N   0  0  0  0  0  0  0  0  0  0  0  0
    9.3077  -16.9420   24.9817 C   0  0  1  0  0  0  0  0  0  0  0  0
    8.2332  -16.9421   26.0498 C   0  0  0  0  0  0  0  0  0  0  0  0
    7.3341  -15.8008   25.8128 C   0  0  0  0  0  0  0  0  0  0  0  0
    6.0974  -15.8301   25.2306 C   0  0  0  0  0  0  0  0  0  0  0  0
    5.6310  -14.5738   25.2111 N   0  0  0  0  0  0  0  0  0  0  0  0
    6.5222  -13.7200   25.7621 C   0  0  0  0  0  0  0  0  0  0  0  0
    6.5142  -12.3569   25.9740 C   0  0  0  0  0  0  0  0  0  0  0  0
    7.5834  -11.7095   26.5760 C   0  0  0  0  0  0  0  0  0  0  0  0
    8.6503  -12.5004   26.9493 C   0  0  0  0  0  0  0  0  0  0  0  0
    8.6742  -13.8563   26.7461 C   0  0  0  0  0  0  0  0  0  0  0  0
    7.6013  -14.4970   26.1435 C   0  0  0  0  0  0  0  0  0  0  0  0
   10.2403  -18.0805   25.2574 C   0  0  0  0  0  0  0  0  0  0  0  0
    9.8339  -19.2479   25.4214 O   0  0  0  0  0  0  0  0  0  0  0  0
   11.6163  -17.8113   25.3311 N   0  0  0  0  0  0  0  0  0  0  0  0
   12.6441  -18.8425   25.5239 C   0  0  1  0  0  0  0  0  0  0  0  0
   13.6489  -18.6401   24.4253 C   0  0  0  0  0  0  0  0  0  0  0  0
   14.2811  -17.2934   24.4175 C   0  0  0  0  0  0  0  0  0  0  0  0
   15.3360  -17.1323   23.3498 C   0  0  0  0  0  0  0  0  0  0  0  0
   15.9260  -15.7301   23.4310 C   0  0  0  0  0  0  0  0  0  0  0  0
   16.8926  -15.5082   22.3718 N   0  0  0  0  0  0  0  0  0  0  0  0
   13.1987  -18.6548   26.8657 C   0  0  0  0  0  0  0  0  0  0  0  0
   12.8113  -17.6233   27.7069 O   0  0  0  0  0  0  0  0  0  0  0  0
   14.0672  -19.4586   27.2874 O   0  0  0  0  0  0  0  0  0  0  0  0
  2  1  1  1
  2  3  1  0
  3  4  1  0
  4  5  2  0
  5  6  1  0
  7  6  2  0
  8  7  1  0
  9  8  2  0
  9  4  1  0
 10  2  1  0
 11 10  2  0
 12 10  1  0
 13 12  1  0
 13 14  1  1
 14 15  1  0
 15 23  1  0
 15 16  2  0
 16 17  1  0
 18 19  2  0
 18 17  1  0
 20 19  1  0
 21 20  2  0
 22 21  1  0
 22 23  2  0
 23 18  1  0
 24 26  1  0
 24 13  1  0
 25 24  2  0
 27 33  1  0
 27 26  1  0
 27 28  1  6
 28 29  1  0
 29 30  1  0
 31 30  1  0
 32 31  1  0
 33 34  1  0
 35 33  2  0
M  END
$$$$
