KPN.pdb
     RDKit          3D

 25 25  0  0  1  0  0  0  0  0999 V2000
   22.1431  -18.6864  -15.0363 N   0  0  0  0  0  0  0  0  0  0  0  0
   22.8721  -17.7942  -15.9314 C   0  0  1  0  0  0  0  0  0  0  0  0
   22.0298  -17.5257  -17.1726 C   0  0  0  0  0  0  0  0  0  0  0  0
   21.8569  -18.7144  -18.0374 C   0  0  0  0  0  0  0  0  0  0  0  0
   21.2638  -19.9317  -17.4513 C   0  0  0  0  0  0  0  0  0  0  0  0
   20.9801  -21.0633  -18.3726 C   0  0  0  0  0  0  0  0  0  0  0  0
   20.5316  -22.1999  -17.5555 N   0  0  0  0  0  0  0  0  0  0  0  0
   23.0983  -16.5209  -15.1965 C   0  0  0  0  0  0  0  0  0  0  0  0
   22.0623  -16.0012  -14.6522 O   0  0  0  0  0  0  0  0  0  0  0  0
   24.3556  -15.8832  -15.0756 N   0  0  0  0  0  0  0  0  0  0  0  0
   25.6071  -16.6665  -15.0711 C   0  0  0  0  0  0  0  0  0  0  0  0
   26.5806  -15.8449  -15.8502 C   0  0  0  0  0  0  0  0  0  0  0  0
   26.0425  -14.4582  -15.7780 C   0  0  0  0  0  0  0  0  0  0  0  0
   24.7920  -14.5500  -14.8967 C   0  0  1  0  0  0  0  0  0  0  0  0
   23.9050  -13.4795  -15.3676 C   0  0  0  0  0  0  0  0  0  0  0  0
   23.2213  -13.4450  -16.3950 O   0  0  0  0  0  0  0  0  0  0  0  0
   21.3679   -8.8469  -14.9562 N   0  0  0  0  0  0  0  0  0  0  0  0
   22.1878   -9.0452  -13.8140 C   0  0  0  0  0  0  0  0  0  0  0  0
   22.1664   -8.1714  -12.9178 O   0  0  0  0  0  0  0  0  0  0  0  0
   23.0375  -10.2227  -13.6665 C   0  0  0  0  0  0  0  0  0  0  0  0
   22.9387  -11.2093  -14.7955 C   0  0  2  0  0  0  0  0  0  0  0  0
   23.8203  -12.3194  -14.5234 N   0  0  0  0  0  0  0  0  0  0  0  0
   23.2537  -10.5154  -16.0415 C   0  0  0  0  0  0  0  0  0  0  0  0
   24.4335  -10.2344  -16.3280 O   0  0  0  0  0  0  0  0  0  0  0  0
   22.2510  -10.1626  -16.9156 O   0  0  0  0  0  0  0  0  0  0  0  0
  2  1  1  1
  3  2  1  0
  4  3  1  0
  4  5  1  0
  6  5  1  0
  6  7  1  0
  8  2  1  0
  9  8  2  0
 10  8  1  0
 10 14  1  0
 11 10  1  0
 12 11  1  0
 12 13  1  0
 13 14  1  0
 15 22  1  0
 14 15  1  6
 16 15  2  0
 18 17  1  0
 18 19  2  0
 20 18  1  0
 21 22  1  0
 21 20  1  1
 23 21  1  0
 24 23  2  0
 25 23  1  0
M  END
$$$$
