KPN.pdb
     RDKit          3D

 25 25  0  0  1  0  0  0  0  0999 V2000
   19.4321  -10.9879  -14.9082 N   0  0  0  0  0  0  0  0  0  0  0  0
   19.2150   -9.5467  -14.9745 C   0  0  1  0  0  0  0  0  0  0  0  0
   17.8555   -9.2694  -15.6043 C   0  0  0  0  0  0  0  0  0  0  0  0
   17.7765   -9.6534  -17.0316 C   0  0  0  0  0  0  0  0  0  0  0  0
   16.5070   -9.4344  -17.7509 C   0  0  0  0  0  0  0  0  0  0  0  0
   16.4416   -9.8771  -19.1684 C   0  0  0  0  0  0  0  0  0  0  0  0
   15.0642   -9.6667  -19.6365 N   0  0  0  0  0  0  0  0  0  0  0  0
   19.2325   -9.0337  -13.5784 C   0  0  0  0  0  0  0  0  0  0  0  0
   18.4764   -9.6509  -12.7495 O   0  0  0  0  0  0  0  0  0  0  0  0
   20.0153   -7.9390  -13.1414 N   0  0  0  0  0  0  0  0  0  0  0  0
   21.3791   -7.7238  -13.6645 C   0  0  0  0  0  0  0  0  0  0  0  0
   21.5063   -6.2438  -13.8159 C   0  0  0  0  0  0  0  0  0  0  0  0
   20.4827   -5.6833  -12.8908 C   0  0  0  0  0  0  0  0  0  0  0  0
   19.8462   -6.8954  -12.2021 C   0  0  1  0  0  0  0  0  0  0  0  0
   18.4724   -6.4863  -11.8864 C   0  0  0  0  0  0  0  0  0  0  0  0
   17.4508   -6.6404  -12.5620 O   0  0  0  0  0  0  0  0  0  0  0  0
   14.5859   -4.7509   -8.7864 N   0  0  0  0  0  0  0  0  0  0  0  0
   15.1497   -6.0454   -8.6356 C   0  0  0  0  0  0  0  0  0  0  0  0
   14.5119   -6.8884   -7.9651 O   0  0  0  0  0  0  0  0  0  0  0  0
   16.4313   -6.4055   -9.2340 C   0  0  0  0  0  0  0  0  0  0  0  0
   17.0060   -5.3645  -10.1525 C   0  0  2  0  0  0  0  0  0  0  0  0
   18.2916   -5.8190  -10.6263 N   0  0  0  0  0  0  0  0  0  0  0  0
   17.0739   -4.0984   -9.4274 C   0  0  0  0  0  0  0  0  0  0  0  0
   18.0635   -3.8269   -8.7204 O   0  0  0  0  0  0  0  0  0  0  0  0
   16.0452   -3.1886   -9.5157 O   0  0  0  0  0  0  0  0  0  0  0  0
  2  1  1  1
  3  2  1  0
  4  3  1  0
  4  5  1  0
  6  5  1  0
  6  7  1  0
  8  2  1  0
  9  8  2  0
 10  8  1  0
 10 14  1  0
 11 10  1  0
 12 11  1  0
 12 13  1  0
 13 14  1  0
 15 22  1  0
 14 15  1  6
 16 15  2  0
 18 17  1  0
 18 19  2  0
 20 18  1  0
 21 22  1  0
 21 20  1  1
 23 21  1  0
 24 23  2  0
 25 23  1  0
M  END
$$$$
