KPN.pdb
     RDKit          3D

 25 25  0  0  1  0  0  0  0  0999 V2000
   29.5918  -23.7398  -16.2426 N   0  0  0  0  0  0  0  0  0  0  0  0
   28.7217  -22.7244  -16.8263 C   0  0  1  0  0  0  0  0  0  0  0  0
   27.8440  -23.3652  -17.8944 C   0  0  0  0  0  0  0  0  0  0  0  0
   28.1645  -24.7880  -18.1467 C   0  0  0  0  0  0  0  0  0  0  0  0
   27.1379  -25.8050  -17.8488 C   0  0  0  0  0  0  0  0  0  0  0  0
   27.4476  -27.2128  -18.2117 C   0  0  0  0  0  0  0  0  0  0  0  0
   26.3272  -28.0466  -17.7534 N   0  0  0  0  0  0  0  0  0  0  0  0
   27.8674  -22.1934  -15.7305 C   0  0  0  0  0  0  0  0  0  0  0  0
   27.3248  -23.0715  -14.9729 O   0  0  0  0  0  0  0  0  0  0  0  0
   27.6363  -20.8172  -15.4960 N   0  0  0  0  0  0  0  0  0  0  0  0
   28.7221  -19.8283  -15.6469 C   0  0  0  0  0  0  0  0  0  0  0  0
   28.0727  -18.6313  -16.2593 C   0  0  0  0  0  0  0  0  0  0  0  0
   26.6294  -18.7740  -15.9212 C   0  0  0  0  0  0  0  0  0  0  0  0
   26.5328  -20.0433  -15.0679 C   0  0  1  0  0  0  0  0  0  0  0  0
   25.1909  -20.5812  -15.3217 C   0  0  0  0  0  0  0  0  0  0  0  0
   24.8667  -21.5251  -16.0483 O   0  0  0  0  0  0  0  0  0  0  0  0
   20.2289  -21.6573  -14.1941 N   0  0  0  0  0  0  0  0  0  0  0  0
   21.3622  -22.1743  -13.5124 C   0  0  0  0  0  0  0  0  0  0  0  0
   21.2053  -23.1939  -12.8032 O   0  0  0  0  0  0  0  0  0  0  0  0
   22.6790  -21.5541  -13.6196 C   0  0  0  0  0  0  0  0  0  0  0  0
   22.7623  -20.4342  -14.6180 C   0  0  2  0  0  0  0  0  0  0  0  0
   24.1125  -19.9241  -14.6353 N   0  0  0  0  0  0  0  0  0  0  0  0
   21.7695  -19.4244  -14.2602 C   0  0  0  0  0  0  0  0  0  0  0  0
   20.6031  -19.5036  -14.6919 O   0  0  0  0  0  0  0  0  0  0  0  0
   22.1095  -18.3720  -13.4413 O   0  0  0  0  0  0  0  0  0  0  0  0
  2  1  1  1
  3  2  1  0
  4  3  1  0
  4  5  1  0
  6  5  1  0
  6  7  1  0
  8  2  1  0
  9  8  2  0
 10  8  1  0
 10 14  1  0
 11 10  1  0
 12 11  1  0
 12 13  1  0
 13 14  1  0
 15 22  1  0
 14 15  1  6
 16 15  2  0
 18 17  1  0
 18 19  2  0
 20 18  1  0
 21 22  1  0
 21 20  1  1
 23 21  1  0
 24 23  2  0
 25 23  1  0
M  END
$$$$
