KPN.pdb
     RDKit          3D

 25 25  0  0  1  0  0  0  0  0999 V2000
   20.9349  -14.0003  -16.5983 N   0  0  0  0  0  0  0  0  0  0  0  0
   21.4338  -12.7917  -17.2456 C   0  0  1  0  0  0  0  0  0  0  0  0
   20.4795  -12.3865  -18.3623 C   0  0  0  0  0  0  0  0  0  0  0  0
   20.2574  -13.4524  -19.3650 C   0  0  0  0  0  0  0  0  0  0  0  0
   21.4170  -13.9582  -20.1242 C   0  0  0  0  0  0  0  0  0  0  0  0
   21.1576  -15.0040  -21.1482 C   0  0  0  0  0  0  0  0  0  0  0  0
   19.9179  -14.6412  -21.8498 N   0  0  0  0  0  0  0  0  0  0  0  0
   21.4751  -11.7231  -16.2118 C   0  0  0  0  0  0  0  0  0  0  0  0
   20.3593  -11.1460  -15.9635 O   0  0  0  0  0  0  0  0  0  0  0  0
   22.6439  -11.3307  -15.5175 N   0  0  0  0  0  0  0  0  0  0  0  0
   23.6814  -12.3179  -15.1585 C   0  0  0  0  0  0  0  0  0  0  0  0
   24.9787  -11.6072  -15.3623 C   0  0  0  0  0  0  0  0  0  0  0  0
   24.6305  -10.1615  -15.2812 C   0  0  0  0  0  0  0  0  0  0  0  0
   23.1296  -10.1188  -14.9741 C   0  0  1  0  0  0  0  0  0  0  0  0
   22.6460   -8.8684  -15.5715 C   0  0  0  0  0  0  0  0  0  0  0  0
   22.3703   -8.6379  -16.7526 O   0  0  0  0  0  0  0  0  0  0  0  0
   20.5633   -4.1198  -15.8159 N   0  0  0  0  0  0  0  0  0  0  0  0
   19.8236   -5.3090  -15.5811 C   0  0  0  0  0  0  0  0  0  0  0  0
   18.5841   -5.2723  -15.7529 O   0  0  0  0  0  0  0  0  0  0  0  0
   20.4657   -6.5477  -15.1525 C   0  0  0  0  0  0  0  0  0  0  0  0
   21.9649   -6.4797  -15.0761 C   0  0  2  0  0  0  0  0  0  0  0  0
   22.4697   -7.7678  -14.6641 N   0  0  0  0  0  0  0  0  0  0  0  0
   22.3303   -5.3990  -14.1640 C   0  0  0  0  0  0  0  0  0  0  0  0
   22.5152   -5.6288  -12.9532 O   0  0  0  0  0  0  0  0  0  0  0  0
   22.4753   -4.1125  -14.6304 O   0  0  0  0  0  0  0  0  0  0  0  0
  2  1  1  1
  3  2  1  0
  4  3  1  0
  4  5  1  0
  6  5  1  0
  6  7  1  0
  8  2  1  0
  9  8  2  0
 10  8  1  0
 10 14  1  0
 11 10  1  0
 12 11  1  0
 12 13  1  0
 13 14  1  0
 15 22  1  0
 14 15  1  6
 16 15  2  0
 18 17  1  0
 18 19  2  0
 20 18  1  0
 21 22  1  0
 21 20  1  1
 23 21  1  0
 24 23  2  0
 25 23  1  0
M  END
$$$$
