KPN.pdb
     RDKit          3D

 25 25  0  0  1  0  0  0  0  0999 V2000
   22.3150  -21.3230  -14.8760 N   0  0  0  0  0  0  0  0  0  0  0  0
   21.2556  -20.7160  -14.0774 C   0  0  1  0  0  0  0  0  0  0  0  0
   19.9534  -20.7343  -14.8686 C   0  0  0  0  0  0  0  0  0  0  0  0
   19.9851  -19.8813  -16.0778 C   0  0  0  0  0  0  0  0  0  0  0  0
   19.7671  -18.4303  -15.9223 C   0  0  0  0  0  0  0  0  0  0  0  0
   19.7675  -17.6047  -17.1584 C   0  0  0  0  0  0  0  0  0  0  0  0
   19.6315  -16.1982  -16.7534 N   0  0  0  0  0  0  0  0  0  0  0  0
   21.1042  -21.5390  -12.8476 C   0  0  0  0  0  0  0  0  0  0  0  0
   20.8478  -22.7793  -13.0364 O   0  0  0  0  0  0  0  0  0  0  0  0
   21.2259  -21.0345  -11.5312 N   0  0  0  0  0  0  0  0  0  0  0  0
   22.0429  -19.8375  -11.2492 C   0  0  0  0  0  0  0  0  0  0  0  0
   21.2789  -19.0835  -10.2112 C   0  0  0  0  0  0  0  0  0  0  0  0
   20.4035  -20.1059   -9.5740 C   0  0  0  0  0  0  0  0  0  0  0  0
   20.7584  -21.4312  -10.2569 C   0  0  1  0  0  0  0  0  0  0  0  0
   19.5312  -22.2350  -10.2072 C   0  0  0  0  0  0  0  0  0  0  0  0
   18.4936  -22.0936  -10.8610 O   0  0  0  0  0  0  0  0  0  0  0  0
   18.1345  -24.6303   -5.6236 N   0  0  0  0  0  0  0  0  0  0  0  0
   19.0452  -24.5880   -6.7123 C   0  0  0  0  0  0  0  0  0  0  0  0
   20.1401  -24.0065   -6.5387 O   0  0  0  0  0  0  0  0  0  0  0  0
   18.7370  -25.1960   -8.0029 C   0  0  0  0  0  0  0  0  0  0  0  0
   18.4112  -24.2148   -9.0934 C   0  0  2  0  0  0  0  0  0  0  0  0
   19.5370  -23.3301   -9.2764 N   0  0  0  0  0  0  0  0  0  0  0  0
   17.1816  -23.5152   -8.7302 C   0  0  0  0  0  0  0  0  0  0  0  0
   16.0698  -24.0032   -9.0109 O   0  0  0  0  0  0  0  0  0  0  0  0
   17.2351  -22.3074   -8.0729 O   0  0  0  0  0  0  0  0  0  0  0  0
  2  1  1  6
  3  2  1  0
  4  3  1  0
  4  5  1  0
  6  5  1  0
  6  7  1  0
  8  2  1  0
  9  8  2  0
 10  8  1  0
 10 14  1  0
 11 10  1  0
 12 11  1  0
 12 13  1  0
 13 14  1  0
 15 22  1  0
 14 15  1  6
 16 15  2  0
 18 17  1  0
 18 19  2  0
 20 18  1  0
 21 22  1  0
 21 20  1  1
 23 21  1  0
 24 23  2  0
 25 23  1  0
M  END
$$$$
