KPN.pdb
     RDKit          3D

 25 25  0  0  1  0  0  0  0  0999 V2000
   18.6734  -12.7973  -15.6595 N   0  0  0  0  0  0  0  0  0  0  0  0
   19.6532  -11.9178  -16.2881 C   0  0  1  0  0  0  0  0  0  0  0  0
   19.0716  -11.3553  -17.5793 C   0  0  0  0  0  0  0  0  0  0  0  0
   18.0448  -12.2268  -18.1934 C   0  0  0  0  0  0  0  0  0  0  0  0
   18.0482  -12.3945  -19.6593 C   0  0  0  0  0  0  0  0  0  0  0  0
   17.0040  -13.2741  -20.2471 C   0  0  0  0  0  0  0  0  0  0  0  0
   17.2502  -13.3501  -21.6943 N   0  0  0  0  0  0  0  0  0  0  0  0
   19.9230  -10.8070  -15.3364 C   0  0  0  0  0  0  0  0  0  0  0  0
   18.9397  -10.0193  -15.1077 O   0  0  0  0  0  0  0  0  0  0  0  0
   21.1666  -10.5895  -14.6974 N   0  0  0  0  0  0  0  0  0  0  0  0
   22.0232  -11.7234  -14.2969 C   0  0  0  0  0  0  0  0  0  0  0  0
   23.4186  -11.2723  -14.5781 C   0  0  0  0  0  0  0  0  0  0  0  0
   23.3370   -9.7853  -14.5866 C   0  0  0  0  0  0  0  0  0  0  0  0
   21.8794   -9.4537  -14.2483 C   0  0  1  0  0  0  0  0  0  0  0  0
   21.6061   -8.1761  -14.9172 C   0  0  0  0  0  0  0  0  0  0  0  0
   21.5107   -7.9474  -16.1266 O   0  0  0  0  0  0  0  0  0  0  0  0
   19.1328   -2.8300  -13.5469 N   0  0  0  0  0  0  0  0  0  0  0  0
   19.5743   -3.8326  -14.4503 C   0  0  0  0  0  0  0  0  0  0  0  0
   19.6627   -3.5321  -15.6624 O   0  0  0  0  0  0  0  0  0  0  0  0
   19.9199   -5.1785  -14.0039 C   0  0  0  0  0  0  0  0  0  0  0  0
   21.2211   -5.7007  -14.5442 C   0  0  2  0  0  0  0  0  0  0  0  0
   21.4256   -7.0423  -14.0525 N   0  0  0  0  0  0  0  0  0  0  0  0
   22.2839   -4.7767  -14.1566 C   0  0  0  0  0  0  0  0  0  0  0  0
   22.8884   -4.9254  -13.0771 O   0  0  0  0  0  0  0  0  0  0  0  0
   22.6314   -3.7296  -14.9791 O   0  0  0  0  0  0  0  0  0  0  0  0
  2  1  1  1
  3  2  1  0
  4  3  1  0
  4  5  1  0
  6  5  1  0
  6  7  1  0
  8  2  1  0
  9  8  2  0
 10  8  1  0
 10 14  1  0
 11 10  1  0
 12 11  1  0
 12 13  1  0
 13 14  1  0
 15 22  1  0
 14 15  1  6
 16 15  2  0
 18 17  1  0
 18 19  2  0
 20 18  1  0
 21 22  1  0
 21 20  1  1
 23 21  1  0
 24 23  2  0
 25 23  1  0
M  END
$$$$
