KPN.pdb
     RDKit          3D

 25 25  0  0  1  0  0  0  0  0999 V2000
   29.6375  -25.5688  -16.5133 N   0  0  0  0  0  0  0  0  0  0  0  0
   29.1118  -24.4539  -17.2939 C   0  0  1  0  0  0  0  0  0  0  0  0
   28.2762  -24.9950  -18.4476 C   0  0  0  0  0  0  0  0  0  0  0  0
   29.0822  -25.6359  -19.5108 C   0  0  0  0  0  0  0  0  0  0  0  0
   29.9842  -24.7912  -20.3170 C   0  0  0  0  0  0  0  0  0  0  0  0
   30.7237  -25.4489  -21.4261 C   0  0  0  0  0  0  0  0  0  0  0  0
   31.6026  -24.4396  -22.0341 N   0  0  0  0  0  0  0  0  0  0  0  0
   28.2497  -23.6491  -16.3875 C   0  0  0  0  0  0  0  0  0  0  0  0
   27.3834  -24.3083  -15.7132 O   0  0  0  0  0  0  0  0  0  0  0  0
   28.3395  -22.2445  -16.2417 N   0  0  0  0  0  0  0  0  0  0  0  0
   29.5776  -21.5220  -16.5949 C   0  0  0  0  0  0  0  0  0  0  0  0
   29.1164  -20.2496  -17.2257 C   0  0  0  0  0  0  0  0  0  0  0  0
   27.7301  -20.0597  -16.7159 C   0  0  0  0  0  0  0  0  0  0  0  0
   27.4835  -21.2289  -15.7562 C   0  0  1  0  0  0  0  0  0  0  0  0
   26.0383  -21.4792  -15.8117 C   0  0  0  0  0  0  0  0  0  0  0  0
   25.3916  -22.0528  -16.6931 O   0  0  0  0  0  0  0  0  0  0  0  0
   21.0564  -21.1642  -14.0355 N   0  0  0  0  0  0  0  0  0  0  0  0
   21.9574  -20.7666  -13.0125 C   0  0  0  0  0  0  0  0  0  0  0  0
   21.4811  -20.4772  -11.8915 O   0  0  0  0  0  0  0  0  0  0  0  0
   23.3976  -20.6901  -13.2367 C   0  0  0  0  0  0  0  0  0  0  0  0
   23.8395  -21.1168  -14.6080 C   0  0  2  0  0  0  0  0  0  0  0  0
   25.2751  -20.9939  -14.6947 N   0  0  0  0  0  0  0  0  0  0  0  0
   23.1311  -20.3037  -15.5932 C   0  0  0  0  0  0  0  0  0  0  0  0
   23.5845  -19.1970  -15.9433 O   0  0  0  0  0  0  0  0  0  0  0  0
   21.9533  -20.7497  -16.1477 O   0  0  0  0  0  0  0  0  0  0  0  0
  2  1  1  1
  3  2  1  0
  4  3  1  0
  4  5  1  0
  6  5  1  0
  6  7  1  0
  8  2  1  0
  9  8  2  0
 10  8  1  0
 10 14  1  0
 11 10  1  0
 12 11  1  0
 12 13  1  0
 13 14  1  0
 15 22  1  0
 14 15  1  6
 16 15  2  0
 18 17  1  0
 18 19  2  0
 20 18  1  0
 21 22  1  0
 21 20  1  1
 23 21  1  0
 24 23  2  0
 25 23  1  0
M  END
$$$$
