KPN.pdb
     RDKit          3D

 25 25  0  0  1  0  0  0  0  0999 V2000
   28.7966  -23.2891  -18.1829 N   0  0  0  0  0  0  0  0  0  0  0  0
   27.5903  -22.5004  -17.9554 C   0  0  1  0  0  0  0  0  0  0  0  0
   26.3664  -23.3364  -18.3094 C   0  0  0  0  0  0  0  0  0  0  0  0
   25.1289  -22.5381  -18.4578 C   0  0  0  0  0  0  0  0  0  0  0  0
   25.2134  -21.2248  -19.1250 C   0  0  0  0  0  0  0  0  0  0  0  0
   23.9764  -20.4018  -19.1692 C   0  0  0  0  0  0  0  0  0  0  0  0
   24.2952  -19.1584  -19.8854 N   0  0  0  0  0  0  0  0  0  0  0  0
   27.5568  -22.1534  -16.5094 C   0  0  0  0  0  0  0  0  0  0  0  0
   27.3291  -23.1266  -15.7090 O   0  0  0  0  0  0  0  0  0  0  0  0
   27.7574  -20.8494  -15.9981 N   0  0  0  0  0  0  0  0  0  0  0  0
   28.5620  -19.8583  -16.7397 C   0  0  0  0  0  0  0  0  0  0  0  0
   27.8537  -18.5588  -16.5417 C   0  0  0  0  0  0  0  0  0  0  0  0
   27.0504  -18.7549  -15.3031 C   0  0  0  0  0  0  0  0  0  0  0  0
   27.3897  -20.1675  -14.8150 C   0  0  1  0  0  0  0  0  0  0  0  0
   26.1893  -20.6343  -14.1110 C   0  0  0  0  0  0  0  0  0  0  0  0
   25.1446  -21.0851  -14.5901 O   0  0  0  0  0  0  0  0  0  0  0  0
   24.6965  -21.0335   -8.1046 N   0  0  0  0  0  0  0  0  0  0  0  0
   24.3638  -20.7888   -9.4632 C   0  0  0  0  0  0  0  0  0  0  0  0
   23.1666  -20.9169   -9.8061 O   0  0  0  0  0  0  0  0  0  0  0  0
   25.3684  -20.3992  -10.4476 C   0  0  0  0  0  0  0  0  0  0  0  0
   25.1256  -20.9315  -11.8317 C   0  0  2  0  0  0  0  0  0  0  0  0
   26.2346  -20.5573  -12.6765 N   0  0  0  0  0  0  0  0  0  0  0  0
   23.8426  -20.4173  -12.3036 C   0  0  0  0  0  0  0  0  0  0  0  0
   23.7350  -19.2337  -12.6785 O   0  0  0  0  0  0  0  0  0  0  0  0
   22.7355  -21.2337  -12.3404 O   0  0  0  0  0  0  0  0  0  0  0  0
  2  1  1  1
  3  2  1  0
  4  3  1  0
  4  5  1  0
  6  5  1  0
  6  7  1  0
  8  2  1  0
  9  8  2  0
 10  8  1  0
 10 14  1  0
 11 10  1  0
 12 11  1  0
 12 13  1  0
 13 14  1  0
 15 22  1  0
 14 15  1  6
 16 15  2  0
 18 17  1  0
 18 19  2  0
 20 18  1  0
 21 22  1  0
 21 20  1  1
 23 21  1  0
 24 23  2  0
 25 23  1  0
M  END
$$$$
