KPN.pdb
     RDKit          3D

 25 25  0  0  1  0  0  0  0  0999 V2000
   23.0522  -13.7452  -18.2460 N   0  0  0  0  0  0  0  0  0  0  0  0
   23.8021  -12.5260  -18.5288 C   0  0  1  0  0  0  0  0  0  0  0  0
   23.3201  -11.9310  -19.8462 C   0  0  0  0  0  0  0  0  0  0  0  0
   23.9169  -12.5743  -21.0382 C   0  0  0  0  0  0  0  0  0  0  0  0
   23.4911  -13.9431  -21.3875 C   0  0  0  0  0  0  0  0  0  0  0  0
   24.0455  -14.5321  -22.6346 C   0  0  0  0  0  0  0  0  0  0  0  0
   24.9380  -15.6339  -22.2472 N   0  0  0  0  0  0  0  0  0  0  0  0
   23.5279  -11.5728  -17.4204 C   0  0  0  0  0  0  0  0  0  0  0  0
   22.2942  -11.2974  -17.2160 O   0  0  0  0  0  0  0  0  0  0  0  0
   24.5277  -10.9802  -16.6134 N   0  0  0  0  0  0  0  0  0  0  0  0
   25.7865  -11.6929  -16.3180 C   0  0  0  0  0  0  0  0  0  0  0  0
   26.8447  -10.6400  -16.3530 C   0  0  0  0  0  0  0  0  0  0  0  0
   26.1128   -9.3653  -16.1140 C   0  0  0  0  0  0  0  0  0  0  0  0
   24.6504   -9.7681  -15.8952 C   0  0  1  0  0  0  0  0  0  0  0  0
   23.8580   -8.6235  -16.3606 C   0  0  0  0  0  0  0  0  0  0  0  0
   23.6006   -8.2887  -17.5206 O   0  0  0  0  0  0  0  0  0  0  0  0
   20.1305   -4.9910  -15.9467 N   0  0  0  0  0  0  0  0  0  0  0  0
   19.9700   -6.3778  -16.2061 C   0  0  0  0  0  0  0  0  0  0  0  0
   18.8721   -6.7652  -16.6663 O   0  0  0  0  0  0  0  0  0  0  0  0
   21.0369   -7.3410  -15.9524 C   0  0  0  0  0  0  0  0  0  0  0  0
   22.3622   -6.7263  -15.6004 C   0  0  2  0  0  0  0  0  0  0  0  0
   23.3095   -7.7820  -15.3326 N   0  0  0  0  0  0  0  0  0  0  0  0
   22.1654   -5.8273  -14.4662 C   0  0  0  0  0  0  0  0  0  0  0  0
   22.2833   -6.2471  -13.2988 O   0  0  0  0  0  0  0  0  0  0  0  0
   21.8470   -4.5045  -14.6724 O   0  0  0  0  0  0  0  0  0  0  0  0
  2  1  1  1
  3  2  1  0
  4  3  1  0
  4  5  1  0
  6  5  1  0
  6  7  1  0
  8  2  1  0
  9  8  2  0
 10  8  1  0
 10 14  1  0
 11 10  1  0
 12 11  1  0
 12 13  1  0
 13 14  1  0
 15 22  1  0
 14 15  1  6
 16 15  2  0
 18 17  1  0
 18 19  2  0
 20 18  1  0
 21 22  1  0
 21 20  1  1
 23 21  1  0
 24 23  2  0
 25 23  1  0
M  END
$$$$
