KPN.pdb
     RDKit          3D

 25 25  0  0  1  0  0  0  0  0999 V2000
   15.8208  -23.6527    0.0645 N   0  0  0  0  0  0  0  0  0  0  0  0
   14.9493  -22.8760    0.9397 C   0  0  1  0  0  0  0  0  0  0  0  0
   13.7204  -23.7048    1.2931 C   0  0  0  0  0  0  0  0  0  0  0  0
   12.6225  -23.5826    0.3080 C   0  0  0  0  0  0  0  0  0  0  0  0
   12.8144  -24.1604   -1.0360 C   0  0  0  0  0  0  0  0  0  0  0  0
   11.6829  -24.0494   -1.9936 C   0  0  0  0  0  0  0  0  0  0  0  0
   12.1075  -24.6693   -3.2570 N   0  0  0  0  0  0  0  0  0  0  0  0
   15.7207  -22.5749    2.1753 C   0  0  0  0  0  0  0  0  0  0  0  0
   15.8134  -23.5324    3.0204 O   0  0  0  0  0  0  0  0  0  0  0  0
   16.3329  -21.3288    2.4487 N   0  0  0  0  0  0  0  0  0  0  0  0
   16.6644  -20.3901    1.3585 C   0  0  0  0  0  0  0  0  0  0  0  0
   16.3623  -19.0354    1.9092 C   0  0  0  0  0  0  0  0  0  0  0  0
   16.4146  -19.2116    3.3870 C   0  0  0  0  0  0  0  0  0  0  0  0
   16.8062  -20.6763    3.6107 C   0  0  1  0  0  0  0  0  0  0  0  0
   16.1959  -21.0506    4.8921 C   0  0  0  0  0  0  0  0  0  0  0  0
   15.0159  -21.3245    5.1297 O   0  0  0  0  0  0  0  0  0  0  0  0
   18.4591  -24.3897    6.7613 N   0  0  0  0  0  0  0  0  0  0  0  0
   17.4158  -23.7392    7.4718 C   0  0  0  0  0  0  0  0  0  0  0  0
   16.3467  -24.3661    7.6480 O   0  0  0  0  0  0  0  0  0  0  0  0
   17.5616  -22.3825    7.9899 C   0  0  0  0  0  0  0  0  0  0  0  0
   16.6410  -21.3730    7.3645 C   0  0  2  0  0  0  0  0  0  0  0  0
   17.0874  -21.1058    6.0180 N   0  0  0  0  0  0  0  0  0  0  0  0
   16.6198  -20.1832    8.2113 C   0  0  0  0  0  0  0  0  0  0  0  0
   17.5308  -19.3363    8.1349 O   0  0  0  0  0  0  0  0  0  0  0  0
   15.5929  -19.9820    9.1050 O   0  0  0  0  0  0  0  0  0  0  0  0
  2  1  1  6
  3  2  1  0
  4  3  1  0
  4  5  1  0
  6  5  1  0
  6  7  1  0
  8  2  1  0
  9  8  2  0
 10  8  1  0
 10 14  1  0
 11 10  1  0
 12 11  1  0
 12 13  1  0
 13 14  1  0
 15 22  1  0
 14 15  1  1
 16 15  2  0
 18 17  1  0
 18 19  2  0
 20 18  1  0
 21 22  1  0
 21 20  1  1
 23 21  1  0
 24 23  2  0
 25 23  1  0
M  END
$$$$
