KPN.pdb
     RDKit          3D

 25 25  0  0  1  0  0  0  0  0999 V2000
   25.9505  -21.0788  -10.2935 N   0  0  0  0  0  0  0  0  0  0  0  0
   25.0548  -20.8236  -11.4165 C   0  0  1  0  0  0  0  0  0  0  0  0
   23.8375  -20.0497  -10.9256 C   0  0  0  0  0  0  0  0  0  0  0  0
   22.8890  -20.8747  -10.1442 C   0  0  0  0  0  0  0  0  0  0  0  0
   22.7479  -20.6085   -8.6998 C   0  0  0  0  0  0  0  0  0  0  0  0
   21.5481  -21.1618   -8.0187 C   0  0  0  0  0  0  0  0  0  0  0  0
   21.9316  -22.4471   -7.4174 N   0  0  0  0  0  0  0  0  0  0  0  0
   25.8062  -20.0001  -12.4012 C   0  0  0  0  0  0  0  0  0  0  0  0
   25.7112  -18.7317  -12.2532 O   0  0  0  0  0  0  0  0  0  0  0  0
   26.5903  -20.5325  -13.4519 N   0  0  0  0  0  0  0  0  0  0  0  0
   27.4028  -21.7489  -13.2519 C   0  0  0  0  0  0  0  0  0  0  0  0
   27.2814  -22.5099  -14.5308 C   0  0  0  0  0  0  0  0  0  0  0  0
   26.8990  -21.4852  -15.5415 C   0  0  0  0  0  0  0  0  0  0  0  0
   26.8743  -20.1530  -14.7843 C   0  0  1  0  0  0  0  0  0  0  0  0
   25.8781  -19.3291  -15.4793 C   0  0  0  0  0  0  0  0  0  0  0  0
   26.0656  -18.3617  -16.2230 O   0  0  0  0  0  0  0  0  0  0  0  0
   22.1406  -21.4493  -14.9393 N   0  0  0  0  0  0  0  0  0  0  0  0
   22.3256  -21.3931  -16.3460 C   0  0  0  0  0  0  0  0  0  0  0  0
   21.9413  -22.3703  -17.0276 O   0  0  0  0  0  0  0  0  0  0  0  0
   22.9418  -20.2430  -17.0000 C   0  0  0  0  0  0  0  0  0  0  0  0
   23.4179  -19.1715  -16.0603 C   0  0  2  0  0  0  0  0  0  0  0  0
   24.5045  -19.6953  -15.2676 N   0  0  0  0  0  0  0  0  0  0  0  0
   22.2819  -18.7257  -15.2578 C   0  0  0  0  0  0  0  0  0  0  0  0
   21.3503  -18.0848  -15.7816 O   0  0  0  0  0  0  0  0  0  0  0  0
   22.2257  -19.0079  -13.9121 O   0  0  0  0  0  0  0  0  0  0  0  0
  2  1  1  1
  3  2  1  0
  4  3  1  0
  4  5  1  0
  6  5  1  0
  6  7  1  0
  8  2  1  0
  9  8  2  0
 10  8  1  0
 10 14  1  0
 11 10  1  0
 12 11  1  0
 12 13  1  0
 13 14  1  0
 15 22  1  0
 14 15  1  6
 16 15  2  0
 18 17  1  0
 18 19  2  0
 20 18  1  0
 21 22  1  0
 21 20  1  6
 23 21  1  0
 24 23  2  0
 25 23  1  0
M  END
$$$$
