KPN.pdb
     RDKit          3D

 25 25  0  0  1  0  0  0  0  0999 V2000
   27.0523  -20.5435  -17.8702 N   0  0  0  0  0  0  0  0  0  0  0  0
   27.2406  -19.6693  -16.7173 C   0  0  1  0  0  0  0  0  0  0  0  0
   26.3434  -18.4459  -16.8596 C   0  0  0  0  0  0  0  0  0  0  0  0
   26.5438  -17.7111  -18.1288 C   0  0  0  0  0  0  0  0  0  0  0  0
   25.7662  -16.4786  -18.3596 C   0  0  0  0  0  0  0  0  0  0  0  0
   26.0105  -15.7463  -19.6299 C   0  0  0  0  0  0  0  0  0  0  0  0
   25.1124  -14.5829  -19.6520 N   0  0  0  0  0  0  0  0  0  0  0  0
   26.8441  -20.4415  -15.5094 C   0  0  0  0  0  0  0  0  0  0  0  0
   25.6211  -20.8187  -15.4670 O   0  0  0  0  0  0  0  0  0  0  0  0
   27.7212  -20.7658  -14.4475 N   0  0  0  0  0  0  0  0  0  0  0  0
   29.1534  -21.0233  -14.6973 C   0  0  0  0  0  0  0  0  0  0  0  0
   29.8652  -20.4054  -13.5392 C   0  0  0  0  0  0  0  0  0  0  0  0
   28.8376  -20.3316  -12.4639 C   0  0  0  0  0  0  0  0  0  0  0  0
   27.5789  -20.9749  -13.0562 C   0  0  1  0  0  0  0  0  0  0  0  0
   26.4525  -20.3151  -12.3852 C   0  0  0  0  0  0  0  0  0  0  0  0
   26.1837  -19.1110  -12.3407 O   0  0  0  0  0  0  0  0  0  0  0  0
   22.0546  -19.9862   -9.5307 N   0  0  0  0  0  0  0  0  0  0  0  0
   22.0150  -21.0250  -10.4980 C   0  0  0  0  0  0  0  0  0  0  0  0
   20.9166  -21.5865  -10.7110 O   0  0  0  0  0  0  0  0  0  0  0  0
   23.2043  -21.4429  -11.2337 C   0  0  0  0  0  0  0  0  0  0  0  0
   24.4565  -20.6947  -10.8730 C   0  0  2  0  0  0  0  0  0  0  0  0
   25.5428  -21.1828  -11.6886 N   0  0  0  0  0  0  0  0  0  0  0  0
   24.6930  -20.8576   -9.4409 C   0  0  0  0  0  0  0  0  0  0  0  0
   25.3280  -21.8406   -9.0126 O   0  0  0  0  0  0  0  0  0  0  0  0
   24.2174  -19.9270   -8.5456 O   0  0  0  0  0  0  0  0  0  0  0  0
  2  1  1  6
  3  2  1  0
  4  3  1  0
  4  5  1  0
  6  5  1  0
  6  7  1  0
  8  2  1  0
  9  8  2  0
 10  8  1  0
 10 14  1  0
 11 10  1  0
 12 11  1  0
 12 13  1  0
 13 14  1  0
 15 22  1  0
 14 15  1  1
 16 15  2  0
 18 17  1  0
 18 19  2  0
 20 18  1  0
 21 22  1  0
 21 20  1  6
 23 21  1  0
 24 23  2  0
 25 23  1  0
M  END
$$$$
