KPN.pdb
     RDKit          3D

 25 25  0  0  1  0  0  0  0  0999 V2000
   24.8373  -15.2190  -16.6052 N   0  0  0  0  0  0  0  0  0  0  0  0
   24.5922  -13.9909  -17.3538 C   0  0  1  0  0  0  0  0  0  0  0  0
   23.5784  -14.2663  -18.4576 C   0  0  0  0  0  0  0  0  0  0  0  0
   23.2239  -15.6972  -18.5903 C   0  0  0  0  0  0  0  0  0  0  0  0
   22.2720  -16.0923  -19.6461 C   0  0  0  0  0  0  0  0  0  0  0  0
   21.9175  -17.5328  -19.7399 C   0  0  0  0  0  0  0  0  0  0  0  0
   20.9421  -17.6803  -20.8297 N   0  0  0  0  0  0  0  0  0  0  0  0
   24.0329  -12.9969  -16.3989 C   0  0  0  0  0  0  0  0  0  0  0  0
   22.7692  -13.0635  -16.2033 O   0  0  0  0  0  0  0  0  0  0  0  0
   24.8025  -12.0205  -15.7233 N   0  0  0  0  0  0  0  0  0  0  0  0
   26.2063  -12.2846  -15.3501 C   0  0  0  0  0  0  0  0  0  0  0  0
   26.9176  -10.9921  -15.5807 C   0  0  0  0  0  0  0  0  0  0  0  0
   25.8452   -9.9601  -15.5303 C   0  0  0  0  0  0  0  0  0  0  0  0
   24.5559  -10.7252  -15.2121 C   0  0  1  0  0  0  0  0  0  0  0  0
   23.4783   -9.9467  -15.8343 C   0  0  0  0  0  0  0  0  0  0  0  0
   23.2541   -9.7691  -17.0353 O   0  0  0  0  0  0  0  0  0  0  0  0
   18.0624   -8.7796  -15.8174 N   0  0  0  0  0  0  0  0  0  0  0  0
   18.9754   -8.3076  -14.8376 C   0  0  0  0  0  0  0  0  0  0  0  0
   18.6862   -7.2546  -14.2254 O   0  0  0  0  0  0  0  0  0  0  0  0
   20.2184   -9.0105  -14.5359 C   0  0  0  0  0  0  0  0  0  0  0  0
   21.3945   -8.5845  -15.3685 C   0  0  2  0  0  0  0  0  0  0  0  0
   22.5639   -9.3074  -14.9284 N   0  0  0  0  0  0  0  0  0  0  0  0
   21.5368   -7.1352  -15.2558 C   0  0  0  0  0  0  0  0  0  0  0  0
   22.3534   -6.6403  -14.4550 O   0  0  0  0  0  0  0  0  0  0  0  0
   20.7703   -6.2971  -16.0329 O   0  0  0  0  0  0  0  0  0  0  0  0
  2  1  1  1
  3  2  1  0
  4  3  1  0
  4  5  1  0
  6  5  1  0
  6  7  1  0
  8  2  1  0
  9  8  2  0
 10  8  1  0
 10 14  1  0
 11 10  1  0
 12 11  1  0
 12 13  1  0
 13 14  1  0
 15 22  1  0
 14 15  1  6
 16 15  2  0
 18 17  1  0
 18 19  2  0
 20 18  1  0
 21 22  1  0
 21 20  1  1
 23 21  1  0
 24 23  2  0
 25 23  1  0
M  END
$$$$
