KPN.pdb
     RDKit          3D

 25 25  0  0  1  0  0  0  0  0999 V2000
   24.1603  -25.2277  -13.1112 N   0  0  0  0  0  0  0  0  0  0  0  0
   24.0513  -24.6903  -14.4632 C   0  0  1  0  0  0  0  0  0  0  0  0
   22.6977  -25.0711  -15.0502 C   0  0  0  0  0  0  0  0  0  0  0  0
   22.2092  -26.3934  -14.5988 C   0  0  0  0  0  0  0  0  0  0  0  0
   21.0503  -26.4426  -13.6869 C   0  0  0  0  0  0  0  0  0  0  0  0
   20.4752  -27.7801  -13.3871 C   0  0  0  0  0  0  0  0  0  0  0  0
   19.3532  -27.5833  -12.4580 N   0  0  0  0  0  0  0  0  0  0  0  0
   24.1516  -23.2100  -14.3585 C   0  0  0  0  0  0  0  0  0  0  0  0
   23.3398  -22.6541  -13.5389 O   0  0  0  0  0  0  0  0  0  0  0  0
   25.0665  -22.4193  -15.0932 N   0  0  0  0  0  0  0  0  0  0  0  0
   26.4054  -22.9340  -15.4424 C   0  0  0  0  0  0  0  0  0  0  0  0
   26.6668  -22.4275  -16.8225 C   0  0  0  0  0  0  0  0  0  0  0  0
   25.7695  -21.2475  -16.9647 C   0  0  0  0  0  0  0  0  0  0  0  0
   25.0659  -21.1032  -15.6108 C   0  0  1  0  0  0  0  0  0  0  0  0
   23.7641  -20.4958  -15.9119 C   0  0  0  0  0  0  0  0  0  0  0  0
   22.8140  -20.9835  -16.5312 O   0  0  0  0  0  0  0  0  0  0  0  0
   20.1452  -16.4862  -13.8757 N   0  0  0  0  0  0  0  0  0  0  0  0
   21.2043  -16.3437  -14.8108 C   0  0  0  0  0  0  0  0  0  0  0  0
   21.0858  -15.4734  -15.7029 O   0  0  0  0  0  0  0  0  0  0  0  0
   22.4033  -17.1740  -14.7543 C   0  0  0  0  0  0  0  0  0  0  0  0
   22.3154  -18.4518  -15.5400 C   0  0  2  0  0  0  0  0  0  0  0  0
   23.5685  -19.1587  -15.4225 N   0  0  0  0  0  0  0  0  0  0  0  0
   21.9679  -18.1205  -16.9194 C   0  0  0  0  0  0  0  0  0  0  0  0
   22.8365  -17.6962  -17.7059 O   0  0  0  0  0  0  0  0  0  0  0  0
   20.6761  -18.2727  -17.3685 O   0  0  0  0  0  0  0  0  0  0  0  0
  2  1  1  1
  3  2  1  0
  4  3  1  0
  4  5  1  0
  6  5  1  0
  6  7  1  0
  8  2  1  0
  9  8  2  0
 10  8  1  0
 10 14  1  0
 11 10  1  0
 12 11  1  0
 12 13  1  0
 13 14  1  0
 15 22  1  0
 14 15  1  6
 16 15  2  0
 18 17  1  0
 18 19  2  0
 20 18  1  0
 21 22  1  0
 21 20  1  1
 23 21  1  0
 24 23  2  0
 25 23  1  0
M  END
$$$$
