TWM.pdb
     RDKit          3D

 30 31  0  0  1  0  0  0  0  0999 V2000
   10.1610  -20.7004   21.0979 C   0  0  0  0  0  0  0  0  0  0  0  0
   11.1723  -20.1088   20.1370 C   0  0  1  0  0  0  0  0  0  0  0  0
   11.4409  -21.0086   19.1437 O   0  0  0  0  0  0  0  0  0  0  0  0
   10.7644  -18.7519   19.6581 C   0  0  2  0  0  0  0  0  0  0  0  0
   11.5499  -18.2431   18.5849 N   0  0  0  0  0  0  0  0  0  0  0  0
   10.6599  -17.8075   20.8217 C   0  0  0  0  0  0  0  0  0  0  0  0
   11.6587  -17.1487   21.2300 O   0  0  0  0  0  0  0  0  0  0  0  0
    9.4378  -17.6186   21.5126 N   0  0  0  0  0  0  0  0  0  0  0  0
    9.3150  -16.7246   22.6713 C   0  0  1  0  0  0  0  0  0  0  0  0
    8.0363  -15.9671   22.6146 C   0  0  0  0  0  0  0  0  0  0  0  0
    7.9934  -14.7202   23.3981 C   0  0  0  0  0  0  0  0  0  0  0  0
    8.6785  -13.5375   23.0225 C   0  0  0  0  0  0  0  0  0  0  0  0
    8.4346  -12.5955   23.9353 N   0  0  0  0  0  0  0  0  0  0  0  0
    7.6463  -13.0412   24.8904 C   0  0  0  0  0  0  0  0  0  0  0  0
    7.1421  -12.4264   26.0134 C   0  0  0  0  0  0  0  0  0  0  0  0
    6.3339  -13.1854   26.8251 C   0  0  0  0  0  0  0  0  0  0  0  0
    6.0322  -14.5050   26.5409 C   0  0  0  0  0  0  0  0  0  0  0  0
    6.5410  -15.1076   25.4108 C   0  0  0  0  0  0  0  0  0  0  0  0
    7.3628  -14.3802   24.5608 C   0  0  0  0  0  0  0  0  0  0  0  0
    9.7064  -17.3283   23.9360 C   0  0  0  0  0  0  0  0  0  0  0  0
    9.6535  -18.5473   24.2158 O   0  0  0  0  0  0  0  0  0  0  0  0
    9.1379  -13.2968   29.8503 C   0  0  0  0  0  0  0  0  0  0  0  0
   10.1872  -13.7626   28.5052 S   0  0  0  0  0  0  0  0  0  0  0  0
   10.5288  -15.4939   28.2988 C   0  0  0  0  0  0  0  0  0  0  0  0
   11.2445  -15.8860   27.0866 C   0  0  0  0  0  0  0  0  0  0  0  0
   10.7562  -16.9884   26.2105 C   0  0  2  0  0  0  0  0  0  0  0  0
   10.2165  -16.4603   24.9774 N   0  0  0  0  0  0  0  0  0  0  0  0
    9.9275  -17.9995   26.8173 C   0  0  0  0  0  0  0  0  0  0  0  0
    8.6735  -18.0514   26.5845 O   0  0  0  0  0  0  0  0  0  0  0  0
   10.4188  -18.9666   27.6876 O   0  0  0  0  0  0  0  0  0  0  0  0
  2  1  1  1
  2  3  1  0
  4  2  1  0
  4  5  1  6
  6  7  2  0
  6  4  1  0
  8  6  1  0
  9  8  1  0
 10 11  1  0
  9 10  1  1
 11 19  1  0
 11 12  2  0
 12 13  1  0
 14 13  1  0
 14 15  2  0
 16 15  1  0
 17 16  2  0
 18 19  2  0
 18 17  1  0
 19 14  1  0
 20 21  2  0
 20  9  1  0
 23 22  1  0
 24 23  1  0
 25 24  1  0
 26 25  1  1
 26 27  1  0
 27 20  1  0
 28 26  1  0
 29 28  2  0
 30 28  1  0
M  END
$$$$
