TWM.pdb
     RDKit          3D

 30 31  0  0  1  0  0  0  0  0999 V2000
   11.3604  -19.2896   18.4388 C   0  0  0  0  0  0  0  0  0  0  0  0
   11.0835  -18.5345   19.7230 C   0  0  1  0  0  0  0  0  0  0  0  0
   12.0377  -18.8444   20.6513 O   0  0  0  0  0  0  0  0  0  0  0  0
   10.8961  -17.0700   19.4837 C   0  0  2  0  0  0  0  0  0  0  0  0
   11.9592  -16.4471   18.7701 N   0  0  0  0  0  0  0  0  0  0  0  0
   10.5571  -16.3789   20.7737 C   0  0  0  0  0  0  0  0  0  0  0  0
   11.4053  -15.6690   21.3859 O   0  0  0  0  0  0  0  0  0  0  0  0
    9.2731  -16.4971   21.3601 N   0  0  0  0  0  0  0  0  0  0  0  0
    8.9660  -15.9823   22.7008 C   0  0  1  0  0  0  0  0  0  0  0  0
    7.5079  -16.0788   22.9772 C   0  0  0  0  0  0  0  0  0  0  0  0
    7.0478  -15.4464   24.2258 C   0  0  0  0  0  0  0  0  0  0  0  0
    6.4625  -16.1670   25.2970 C   0  0  0  0  0  0  0  0  0  0  0  0
    6.1607  -15.3092   26.2732 N   0  0  0  0  0  0  0  0  0  0  0  0
    6.4916  -14.0764   25.9522 C   0  0  0  0  0  0  0  0  0  0  0  0
    6.3674  -12.8930   26.6430 C   0  0  0  0  0  0  0  0  0  0  0  0
    6.8176  -11.7577   26.0131 C   0  0  0  0  0  0  0  0  0  0  0  0
    7.3712  -11.7866   24.7459 C   0  0  0  0  0  0  0  0  0  0  0  0
    7.4930  -12.9793   24.0665 C   0  0  0  0  0  0  0  0  0  0  0  0
    7.0516  -14.1525   24.6628 C   0  0  0  0  0  0  0  0  0  0  0  0
    9.8963  -16.4125   23.7336 C   0  0  0  0  0  0  0  0  0  0  0  0
   11.1451  -16.3607   23.6654 O   0  0  0  0  0  0  0  0  0  0  0  0
    9.4747  -13.4246   29.2404 C   0  0  0  0  0  0  0  0  0  0  0  0
   10.9931  -13.8719   28.4519 S   0  0  0  0  0  0  0  0  0  0  0  0
   10.8896  -14.8981   27.0053 C   0  0  0  0  0  0  0  0  0  0  0  0
   10.0819  -16.1111   27.1125 C   0  0  0  0  0  0  0  0  0  0  0  0
   10.1865  -17.2127   26.1140 C   0  0  2  0  0  0  0  0  0  0  0  0
    9.3501  -16.9430   24.9659 N   0  0  0  0  0  0  0  0  0  0  0  0
   10.0767  -18.5638   26.6038 C   0  0  0  0  0  0  0  0  0  0  0  0
    9.0264  -19.2581   26.3933 O   0  0  0  0  0  0  0  0  0  0  0  0
   11.0795  -19.1947   27.3321 O   0  0  0  0  0  0  0  0  0  0  0  0
  2  1  1  6
  2  3  1  0
  4  2  1  0
  4  5  1  1
  6  7  2  0
  6  4  1  0
  8  6  1  0
  9  8  1  0
 10 11  1  0
  9 10  1  1
 11 19  1  0
 11 12  2  0
 12 13  1  0
 14 13  1  0
 14 15  2  0
 16 15  1  0
 17 16  2  0
 18 19  2  0
 18 17  1  0
 19 14  1  0
 20 21  2  0
 20  9  1  0
 23 22  1  0
 24 23  1  0
 25 24  1  0
 26 25  1  1
 26 27  1  0
 27 20  1  0
 28 26  1  0
 29 28  2  0
 30 28  1  0
M  END
$$$$
