TWM.pdb
     RDKit          3D

 30 31  0  0  1  0  0  0  0  0999 V2000
   10.0870  -18.9875   17.7700 C   0  0  0  0  0  0  0  0  0  0  0  0
   10.1511  -18.3320   19.1346 C   0  0  1  0  0  0  0  0  0  0  0  0
   11.4204  -18.4326   19.6317 O   0  0  0  0  0  0  0  0  0  0  0  0
    9.5944  -16.9439   19.1171 C   0  0  2  0  0  0  0  0  0  0  0  0
   10.1726  -16.0876   18.1374 N   0  0  0  0  0  0  0  0  0  0  0  0
    9.6159  -16.3654   20.5034 C   0  0  0  0  0  0  0  0  0  0  0  0
   10.5032  -15.5391   20.8610 O   0  0  0  0  0  0  0  0  0  0  0  0
    8.6440  -16.7249   21.4692 N   0  0  0  0  0  0  0  0  0  0  0  0
    8.7789  -16.3834   22.8912 C   0  0  1  0  0  0  0  0  0  0  0  0
    7.5125  -16.6634   23.6191 C   0  0  0  0  0  0  0  0  0  0  0  0
    7.0081  -15.5737   24.4726 C   0  0  0  0  0  0  0  0  0  0  0  0
    5.9972  -15.7512   25.4503 C   0  0  0  0  0  0  0  0  0  0  0  0
    5.7719  -14.5798   26.0479 N   0  0  0  0  0  0  0  0  0  0  0  0
    6.5421  -13.6317   25.5579 C   0  0  0  0  0  0  0  0  0  0  0  0
    6.6487  -12.2957   25.8696 C   0  0  0  0  0  0  0  0  0  0  0  0
    7.5674  -11.5645   25.1559 C   0  0  0  0  0  0  0  0  0  0  0  0
    8.3547  -12.1293   24.1688 C   0  0  0  0  0  0  0  0  0  0  0  0
    8.2404  -13.4695   23.8691 C   0  0  0  0  0  0  0  0  0  0  0  0
    7.3251  -14.2485   24.5637 C   0  0  0  0  0  0  0  0  0  0  0  0
   10.0325  -16.8126   23.4925 C   0  0  0  0  0  0  0  0  0  0  0  0
   10.5970  -17.9144   23.3071 O   0  0  0  0  0  0  0  0  0  0  0  0
    9.6407  -12.6380   28.8883 C   0  0  0  0  0  0  0  0  0  0  0  0
   10.5829  -14.0575   28.4146 S   0  0  0  0  0  0  0  0  0  0  0  0
    9.9271  -15.0752   27.1143 C   0  0  0  0  0  0  0  0  0  0  0  0
   10.6865  -16.2746   26.7675 C   0  0  0  0  0  0  0  0  0  0  0  0
   11.4847  -16.3606   25.5118 C   0  0  2  0  0  0  0  0  0  0  0  0
   10.7123  -15.8937   24.3822 N   0  0  0  0  0  0  0  0  0  0  0  0
   12.1918  -17.5908   25.2590 C   0  0  0  0  0  0  0  0  0  0  0  0
   11.9330  -18.3006   24.2300 O   0  0  0  0  0  0  0  0  0  0  0  0
   13.1799  -18.0893   26.1012 O   0  0  0  0  0  0  0  0  0  0  0  0
  2  1  1  6
  2  3  1  0
  4  2  1  0
  4  5  1  6
  6  7  2  0
  6  4  1  0
  8  6  1  0
  9  8  1  0
 10 11  1  0
  9 10  1  1
 11 19  1  0
 11 12  2  0
 12 13  1  0
 14 13  1  0
 14 15  2  0
 16 15  1  0
 17 16  2  0
 18 19  2  0
 18 17  1  0
 19 14  1  0
 20 21  2  0
 20  9  1  0
 23 22  1  0
 24 23  1  0
 25 24  1  0
 26 25  1  1
 26 27  1  0
 27 20  1  0
 28 26  1  0
 29 28  2  0
 30 28  1  0
M  END
$$$$
