TWM.pdb
     RDKit          3D

 30 31  0  0  1  0  0  0  0  0999 V2000
    9.6116  -16.4784   18.7171 C   0  0  0  0  0  0  0  0  0  0  0  0
    9.4427  -15.0248   18.3242 C   0  0  1  0  0  0  0  0  0  0  0  0
    9.3711  -14.9238   16.9629 O   0  0  0  0  0  0  0  0  0  0  0  0
    8.3160  -14.3718   19.0599 C   0  0  2  0  0  0  0  0  0  0  0  0
    7.9383  -13.0966   18.5511 N   0  0  0  0  0  0  0  0  0  0  0  0
    8.6019  -14.3656   20.5347 C   0  0  0  0  0  0  0  0  0  0  0  0
    9.2861  -13.4481   21.0714 O   0  0  0  0  0  0  0  0  0  0  0  0
    8.1196  -15.3906   21.3851 N   0  0  0  0  0  0  0  0  0  0  0  0
    8.3853  -15.4096   22.8294 C   0  0  1  0  0  0  0  0  0  0  0  0
    7.2379  -16.0048   23.5649 C   0  0  0  0  0  0  0  0  0  0  0  0
    6.5524  -15.1124   24.5159 C   0  0  0  0  0  0  0  0  0  0  0  0
    5.3930  -15.4859   25.2410 C   0  0  0  0  0  0  0  0  0  0  0  0
    5.0240  -14.4614   26.0118 N   0  0  0  0  0  0  0  0  0  0  0  0
    5.8331  -13.4332   25.8685 C   0  0  0  0  0  0  0  0  0  0  0  0
    5.8347  -12.1892   26.4564 C   0  0  0  0  0  0  0  0  0  0  0  0
    6.8371  -11.3277   26.0806 C   0  0  0  0  0  0  0  0  0  0  0  0
    7.8050  -11.6789   25.1571 C   0  0  0  0  0  0  0  0  0  0  0  0
    7.7939  -12.9295   24.5784 C   0  0  0  0  0  0  0  0  0  0  0  0
    6.8001  -13.8339   24.9270 C   0  0  0  0  0  0  0  0  0  0  0  0
    9.7307  -15.8356   23.1838 C   0  0  0  0  0  0  0  0  0  0  0  0
   10.5190  -16.4691   22.4462 O   0  0  0  0  0  0  0  0  0  0  0  0
   10.5683  -14.6254   30.3229 C   0  0  0  0  0  0  0  0  0  0  0  0
   11.5211  -14.4257   28.8465 S   0  0  0  0  0  0  0  0  0  0  0  0
   11.0890  -15.4400   27.4533 C   0  0  0  0  0  0  0  0  0  0  0  0
   11.8888  -15.2734   26.2417 C   0  0  0  0  0  0  0  0  0  0  0  0
   11.5232  -15.9462   24.9630 C   0  0  2  0  0  0  0  0  0  0  0  0
   10.2284  -15.4978   24.5016 N   0  0  0  0  0  0  0  0  0  0  0  0
   11.6984  -17.3751   24.8923 C   0  0  0  0  0  0  0  0  0  0  0  0
   10.6936  -18.1615   24.8535 O   0  0  0  0  0  0  0  0  0  0  0  0
   12.9455  -17.9902   24.8700 O   0  0  0  0  0  0  0  0  0  0  0  0
  2  1  1  6
  2  3  1  0
  4  2  1  0
  4  5  1  6
  6  7  2  0
  6  4  1  0
  8  6  1  0
  9  8  1  0
 10 11  1  0
  9 10  1  1
 11 19  1  0
 11 12  2  0
 12 13  1  0
 14 13  1  0
 14 15  2  0
 16 15  1  0
 17 16  2  0
 18 19  2  0
 18 17  1  0
 19 14  1  0
 20 21  2  0
 20  9  1  0
 23 22  1  0
 24 23  1  0
 25 24  1  0
 26 25  1  1
 26 27  1  0
 27 20  1  0
 28 26  1  0
 29 28  2  0
 30 28  1  0
M  END
$$$$
