TWM.pdb
     RDKit          3D

 30 31  0  0  1  0  0  0  0  0999 V2000
   10.4184  -21.2480   18.9804 C   0  0  0  0  0  0  0  0  0  0  0  0
   10.4354  -20.1007   19.9701 C   0  0  1  0  0  0  0  0  0  0  0  0
   11.5431  -20.1981   20.7650 O   0  0  0  0  0  0  0  0  0  0  0  0
   10.2633  -18.7762   19.2969 C   0  0  2  0  0  0  0  0  0  0  0  0
   11.1829  -18.5271   18.2388 N   0  0  0  0  0  0  0  0  0  0  0  0
   10.2234  -17.6804   20.3239 C   0  0  0  0  0  0  0  0  0  0  0  0
   11.2002  -16.8955   20.4911 O   0  0  0  0  0  0  0  0  0  0  0  0
    9.0902  -17.4835   21.1507 N   0  0  0  0  0  0  0  0  0  0  0  0
    9.0620  -16.4865   22.2286 C   0  0  1  0  0  0  0  0  0  0  0  0
    7.7980  -15.7040   22.1848 C   0  0  0  0  0  0  0  0  0  0  0  0
    7.7441  -14.5215   23.0619 C   0  0  0  0  0  0  0  0  0  0  0  0
    8.3430  -13.2788   22.7357 C   0  0  0  0  0  0  0  0  0  0  0  0
    8.1125  -12.4204   23.7307 N   0  0  0  0  0  0  0  0  0  0  0  0
    7.4119  -12.9767   24.6959 C   0  0  0  0  0  0  0  0  0  0  0  0
    6.9522  -12.4737   25.8913 C   0  0  0  0  0  0  0  0  0  0  0  0
    6.2379  -13.3328   26.6913 C   0  0  0  0  0  0  0  0  0  0  0  0
    5.9848  -14.6429   26.3268 C   0  0  0  0  0  0  0  0  0  0  0  0
    6.4479  -15.1330   25.1250 C   0  0  0  0  0  0  0  0  0  0  0  0
    7.1748  -14.3018   24.2837 C   0  0  0  0  0  0  0  0  0  0  0  0
    9.5236  -16.9845   23.5156 C   0  0  0  0  0  0  0  0  0  0  0  0
    9.3852  -18.1525   23.9439 O   0  0  0  0  0  0  0  0  0  0  0  0
    9.7830  -12.5814   28.3367 C   0  0  0  0  0  0  0  0  0  0  0  0
   10.5260  -13.9908   29.1040 S   0  0  0  0  0  0  0  0  0  0  0  0
   10.7932  -15.4253   28.0904 C   0  0  0  0  0  0  0  0  0  0  0  0
   10.4739  -15.2990   26.6700 C   0  0  0  0  0  0  0  0  0  0  0  0
   10.6187  -16.4462   25.7295 C   0  0  2  0  0  0  0  0  0  0  0  0
   10.2185  -16.0654   24.3934 N   0  0  0  0  0  0  0  0  0  0  0  0
   10.0892  -17.7190   26.1503 C   0  0  0  0  0  0  0  0  0  0  0  0
   10.8443  -18.6088   26.6675 O   0  0  0  0  0  0  0  0  0  0  0  0
    8.7493  -18.0680   26.0201 O   0  0  0  0  0  0  0  0  0  0  0  0
  2  1  1  6
  2  3  1  0
  4  2  1  0
  4  5  1  6
  6  7  2  0
  6  4  1  0
  8  6  1  0
  9  8  1  0
 10 11  1  0
  9 10  1  1
 11 19  1  0
 11 12  2  0
 12 13  1  0
 14 13  1  0
 14 15  2  0
 16 15  1  0
 17 16  2  0
 18 19  2  0
 18 17  1  0
 19 14  1  0
 20 21  2  0
 20  9  1  0
 23 22  1  0
 24 23  1  0
 25 24  1  0
 26 25  1  1
 26 27  1  0
 27 20  1  0
 28 26  1  0
 29 28  2  0
 30 28  1  0
M  END
$$$$
