TWM.pdb
     RDKit          3D

 30 31  0  0  1  0  0  0  0  0999 V2000
   11.1835  -19.4484   20.8606 C   0  0  0  0  0  0  0  0  0  0  0  0
   11.9706  -18.5011   19.9779 C   0  0  1  0  0  0  0  0  0  0  0  0
   12.3968  -19.1638   18.8609 O   0  0  0  0  0  0  0  0  0  0  0  0
   11.2225  -17.2347   19.7065 C   0  0  2  0  0  0  0  0  0  0  0  0
   11.8806  -16.3387   18.8169 N   0  0  0  0  0  0  0  0  0  0  0  0
   10.8103  -16.5951   21.0018 C   0  0  0  0  0  0  0  0  0  0  0  0
   11.5992  -15.8517   21.6522 O   0  0  0  0  0  0  0  0  0  0  0  0
    9.5208  -16.8017   21.5504 N   0  0  0  0  0  0  0  0  0  0  0  0
    9.1315  -16.2874   22.8698 C   0  0  1  0  0  0  0  0  0  0  0  0
    7.6894  -15.9240   22.8853 C   0  0  0  0  0  0  0  0  0  0  0  0
    7.1974  -15.3014   24.1266 C   0  0  0  0  0  0  0  0  0  0  0  0
    6.6709  -16.0403   25.2157 C   0  0  0  0  0  0  0  0  0  0  0  0
    6.3192  -15.1870   26.1793 N   0  0  0  0  0  0  0  0  0  0  0  0
    6.5632  -13.9408   25.8334 C   0  0  0  0  0  0  0  0  0  0  0  0
    6.3645  -12.7560   26.5042 C   0  0  0  0  0  0  0  0  0  0  0  0
    6.7315  -11.6046   25.8501 C   0  0  0  0  0  0  0  0  0  0  0  0
    7.2759  -11.6192   24.5786 C   0  0  0  0  0  0  0  0  0  0  0  0
    7.4729  -12.8132   23.9194 C   0  0  0  0  0  0  0  0  0  0  0  0
    7.1169  -14.0025   24.5405 C   0  0  0  0  0  0  0  0  0  0  0  0
    9.6657  -17.0482   23.9892 C   0  0  0  0  0  0  0  0  0  0  0  0
    9.7899  -18.2928   24.0389 O   0  0  0  0  0  0  0  0  0  0  0  0
   10.8870  -13.7442   29.8375 C   0  0  0  0  0  0  0  0  0  0  0  0
   10.0176  -13.5890   28.3054 S   0  0  0  0  0  0  0  0  0  0  0  0
    9.4215  -15.0830   27.5508 C   0  0  0  0  0  0  0  0  0  0  0  0
   10.3214  -16.2342   27.5643 C   0  0  0  0  0  0  0  0  0  0  0  0
   10.6353  -16.9977   26.3233 C   0  0  2  0  0  0  0  0  0  0  0  0
   10.1102  -16.3194   25.1594 N   0  0  0  0  0  0  0  0  0  0  0  0
   10.3732  -18.4149   26.3330 C   0  0  0  0  0  0  0  0  0  0  0  0
   10.9658  -19.1895   27.1566 O   0  0  0  0  0  0  0  0  0  0  0  0
    9.4823  -19.0316   25.4611 O   0  0  0  0  0  0  0  0  0  0  0  0
  2  1  1  6
  2  3  1  0
  4  2  1  0
  4  5  1  1
  6  7  2  0
  6  4  1  0
  8  6  1  0
  9  8  1  0
 10 11  1  0
  9 10  1  6
 11 19  1  0
 11 12  2  0
 12 13  1  0
 14 13  1  0
 14 15  2  0
 16 15  1  0
 17 16  2  0
 18 19  2  0
 18 17  1  0
 19 14  1  0
 20 21  2  0
 20  9  1  0
 23 22  1  0
 24 23  1  0
 25 24  1  0
 26 25  1  1
 26 27  1  0
 27 20  1  0
 28 26  1  0
 29 28  2  0
 30 28  1  0
M  END
$$$$
