TWM.pdb
     RDKit          3D

 30 31  0  0  1  0  0  0  0  0999 V2000
   11.4613  -18.5826   17.7368 C   0  0  0  0  0  0  0  0  0  0  0  0
   11.2098  -17.9393   19.0855 C   0  0  1  0  0  0  0  0  0  0  0  0
   12.3827  -17.8654   19.7834 O   0  0  0  0  0  0  0  0  0  0  0  0
   10.4735  -16.6434   18.9606 C   0  0  2  0  0  0  0  0  0  0  0  0
   11.0861  -15.6971   18.0908 N   0  0  0  0  0  0  0  0  0  0  0  0
   10.1709  -16.0921   20.3250 C   0  0  0  0  0  0  0  0  0  0  0  0
   10.7951  -15.0952   20.7883 O   0  0  0  0  0  0  0  0  0  0  0  0
    9.1754  -16.6693   21.1510 N   0  0  0  0  0  0  0  0  0  0  0  0
    8.8892  -16.1776   22.5049 C   0  0  1  0  0  0  0  0  0  0  0  0
    7.4618  -16.4068   22.8542 C   0  0  0  0  0  0  0  0  0  0  0  0
    6.9522  -15.6438   24.0069 C   0  0  0  0  0  0  0  0  0  0  0  0
    6.0856  -16.1923   24.9853 C   0  0  0  0  0  0  0  0  0  0  0  0
    5.8137  -15.2501   25.8900 N   0  0  0  0  0  0  0  0  0  0  0  0
    6.4212  -14.1177   25.6055 C   0  0  0  0  0  0  0  0  0  0  0  0
    6.4271  -12.9025   26.2508 C   0  0  0  0  0  0  0  0  0  0  0  0
    7.1774  -11.9021   25.6811 C   0  0  0  0  0  0  0  0  0  0  0  0
    7.8974  -12.0917   24.5154 C   0  0  0  0  0  0  0  0  0  0  0  0
    7.8856  -13.3150   23.8811 C   0  0  0  0  0  0  0  0  0  0  0  0
    7.1415  -14.3558   24.4195 C   0  0  0  0  0  0  0  0  0  0  0  0
    9.9056  -16.5142   23.4902 C   0  0  0  0  0  0  0  0  0  0  0  0
   10.7179  -17.4635   23.4129 O   0  0  0  0  0  0  0  0  0  0  0  0
    9.8945  -12.7755   29.0733 C   0  0  0  0  0  0  0  0  0  0  0  0
   10.9881  -14.1044   29.4799 S   0  0  0  0  0  0  0  0  0  0  0  0
   11.2926  -15.3237   28.2240 C   0  0  0  0  0  0  0  0  0  0  0  0
   10.6754  -15.0961   26.9191 C   0  0  0  0  0  0  0  0  0  0  0  0
   10.8367  -16.0635   25.7968 C   0  0  2  0  0  0  0  0  0  0  0  0
   10.0126  -15.6828   24.6715 N   0  0  0  0  0  0  0  0  0  0  0  0
   10.7653  -17.4671   26.1164 C   0  0  0  0  0  0  0  0  0  0  0  0
    9.6561  -18.0975   26.0733 O   0  0  0  0  0  0  0  0  0  0  0  0
   11.8715  -18.2203   26.4945 O   0  0  0  0  0  0  0  0  0  0  0  0
  2  1  1  6
  2  3  1  0
  4  2  1  0
  4  5  1  6
  6  7  2  0
  6  4  1  0
  8  6  1  0
  9  8  1  0
 10 11  1  0
  9 10  1  1
 11 19  1  0
 11 12  2  0
 12 13  1  0
 14 13  1  0
 14 15  2  0
 16 15  1  0
 17 16  2  0
 18 19  2  0
 18 17  1  0
 19 14  1  0
 20 21  2  0
 20  9  1  0
 23 22  1  0
 24 23  1  0
 25 24  1  0
 26 25  1  1
 26 27  1  0
 27 20  1  0
 28 26  1  0
 29 28  2  0
 30 28  1  0
M  END
$$$$
