TWM.pdb
     RDKit          3D

 30 31  0  0  1  0  0  0  0  0999 V2000
    7.7760  -14.3795   16.2186 C   0  0  0  0  0  0  0  0  0  0  0  0
    8.1206  -14.7400   17.6494 C   0  0  1  0  0  0  0  0  0  0  0  0
    9.3034  -15.4246   17.6769 O   0  0  0  0  0  0  0  0  0  0  0  0
    8.0643  -13.5522   18.5566 C   0  0  2  0  0  0  0  0  0  0  0  0
    8.7514  -12.4039   18.0701 N   0  0  0  0  0  0  0  0  0  0  0  0
    8.4736  -13.9488   19.9466 C   0  0  0  0  0  0  0  0  0  0  0  0
    9.6527  -13.7683   20.3652 O   0  0  0  0  0  0  0  0  0  0  0  0
    7.5555  -14.5454   20.8453 N   0  0  0  0  0  0  0  0  0  0  0  0
    7.9322  -14.9539   22.2048 C   0  0  1  0  0  0  0  0  0  0  0  0
    6.7555  -14.8995   23.1126 C   0  0  0  0  0  0  0  0  0  0  0  0
    7.0583  -14.8036   24.5513 C   0  0  0  0  0  0  0  0  0  0  0  0
    7.3648  -15.9254   25.3616 C   0  0  0  0  0  0  0  0  0  0  0  0
    7.5904  -15.5029   26.6068 N   0  0  0  0  0  0  0  0  0  0  0  0
    7.4625  -14.1966   26.7041 C   0  0  0  0  0  0  0  0  0  0  0  0
    7.6028  -13.3471   27.7774 C   0  0  0  0  0  0  0  0  0  0  0  0
    7.3951  -12.0097   27.5403 C   0  0  0  0  0  0  0  0  0  0  0  0
    7.0606  -11.5248   26.2888 C   0  0  0  0  0  0  0  0  0  0  0  0
    6.9269  -12.3861   25.2215 C   0  0  0  0  0  0  0  0  0  0  0  0
    7.1268  -13.7464   25.4131 C   0  0  0  0  0  0  0  0  0  0  0  0
    8.7953  -16.1241   22.2596 C   0  0  0  0  0  0  0  0  0  0  0  0
    8.8379  -17.0458   21.4137 O   0  0  0  0  0  0  0  0  0  0  0  0
   12.6147  -14.3499   19.0249 C   0  0  0  0  0  0  0  0  0  0  0  0
   13.5782  -14.4294   20.5057 S   0  0  0  0  0  0  0  0  0  0  0  0
   13.0672  -15.5899   21.7501 C   0  0  0  0  0  0  0  0  0  0  0  0
   11.6649  -15.5451   22.1589 C   0  0  0  0  0  0  0  0  0  0  0  0
   11.1197  -16.4725   23.1904 C   0  0  2  0  0  0  0  0  0  0  0  0
    9.7038  -16.2499   23.3807 N   0  0  0  0  0  0  0  0  0  0  0  0
   11.8553  -16.5985   24.4235 C   0  0  0  0  0  0  0  0  0  0  0  0
   12.7504  -17.4970   24.5683 O   0  0  0  0  0  0  0  0  0  0  0  0
   11.6444  -15.7756   25.5246 O   0  0  0  0  0  0  0  0  0  0  0  0
  2  1  1  6
  2  3  1  0
  4  2  1  0
  4  5  1  6
  6  7  2  0
  6  4  1  0
  8  6  1  0
  9  8  1  0
 10 11  1  0
  9 10  1  1
 11 19  1  0
 11 12  2  0
 12 13  1  0
 14 13  1  0
 14 15  2  0
 16 15  1  0
 17 16  2  0
 18 19  2  0
 18 17  1  0
 19 14  1  0
 20 21  2  0
 20  9  1  0
 23 22  1  0
 24 23  1  0
 25 24  1  0
 26 25  1  1
 26 27  1  0
 27 20  1  0
 28 26  1  0
 29 28  2  0
 30 28  1  0
M  END
$$$$
