TWM.pdb
     RDKit          3D

 30 31  0  0  1  0  0  0  0  0999 V2000
   11.2368  -19.6309   18.6909 C   0  0  0  0  0  0  0  0  0  0  0  0
   10.8920  -18.7108   19.8444 C   0  0  1  0  0  0  0  0  0  0  0  0
   11.8099  -18.8671   20.8451 O   0  0  0  0  0  0  0  0  0  0  0  0
   10.6912  -17.2984   19.3950 C   0  0  2  0  0  0  0  0  0  0  0  0
   11.7579  -16.7693   18.6143 N   0  0  0  0  0  0  0  0  0  0  0  0
   10.3238  -16.4344   20.5678 C   0  0  0  0  0  0  0  0  0  0  0  0
   11.1325  -15.5872   21.0436 O   0  0  0  0  0  0  0  0  0  0  0  0
    9.0564  -16.5360   21.1921 N   0  0  0  0  0  0  0  0  0  0  0  0
    8.6966  -15.7541   22.3821 C   0  0  1  0  0  0  0  0  0  0  0  0
    7.2602  -15.9434   22.7180 C   0  0  0  0  0  0  0  0  0  0  0  0
    6.8149  -15.3503   23.9911 C   0  0  0  0  0  0  0  0  0  0  0  0
    6.2292  -16.1018   25.0405 C   0  0  0  0  0  0  0  0  0  0  0  0
    5.9428  -15.2755   26.0481 N   0  0  0  0  0  0  0  0  0  0  0  0
    6.2844  -14.0357   25.7679 C   0  0  0  0  0  0  0  0  0  0  0  0
    6.1771  -12.8759   26.5003 C   0  0  0  0  0  0  0  0  0  0  0  0
    6.6349  -11.7240   25.9072 C   0  0  0  0  0  0  0  0  0  0  0  0
    7.1799  -11.7143   24.6359 C   0  0  0  0  0  0  0  0  0  0  0  0
    7.2848  -12.8837   23.9146 C   0  0  0  0  0  0  0  0  0  0  0  0
    6.8351  -14.0725   24.4727 C   0  0  0  0  0  0  0  0  0  0  0  0
    9.6737  -15.8198   23.4583 C   0  0  0  0  0  0  0  0  0  0  0  0
   10.5856  -14.9900   23.6743 O   0  0  0  0  0  0  0  0  0  0  0  0
   11.5399  -12.8277   28.3585 C   0  0  0  0  0  0  0  0  0  0  0  0
   11.1621  -14.5384   28.5996 S   0  0  0  0  0  0  0  0  0  0  0  0
   11.6457  -15.6692   27.3174 C   0  0  0  0  0  0  0  0  0  0  0  0
   10.7514  -15.7855   26.1676 C   0  0  0  0  0  0  0  0  0  0  0  0
   10.5390  -17.0847   25.4687 C   0  0  2  0  0  0  0  0  0  0  0  0
    9.5971  -16.9326   24.3823 N   0  0  0  0  0  0  0  0  0  0  0  0
   10.2938  -18.2453   26.2874 C   0  0  0  0  0  0  0  0  0  0  0  0
    9.1755  -18.8594   26.2427 O   0  0  0  0  0  0  0  0  0  0  0  0
   11.2317  -18.7661   27.1724 O   0  0  0  0  0  0  0  0  0  0  0  0
  2  1  1  6
  2  3  1  0
  4  2  1  0
  4  5  1  1
  6  7  2  0
  6  4  1  0
  8  6  1  0
  9  8  1  0
 10 11  1  0
  9 10  1  1
 11 19  1  0
 11 12  2  0
 12 13  1  0
 14 13  1  0
 14 15  2  0
 16 15  1  0
 17 16  2  0
 18 19  2  0
 18 17  1  0
 19 14  1  0
 20 21  2  0
 20  9  1  0
 23 22  1  0
 24 23  1  0
 25 24  1  0
 26 25  1  1
 26 27  1  0
 27 20  1  0
 28 26  1  0
 29 28  2  0
 30 28  1  0
M  END
$$$$
