TWM.pdb
     RDKit          3D

 30 31  0  0  1  0  0  0  0  0999 V2000
   10.7991  -20.5218   18.6472 C   0  0  0  0  0  0  0  0  0  0  0  0
   10.7549  -19.6486   19.8848 C   0  0  1  0  0  0  0  0  0  0  0  0
   11.8543  -19.8951   20.6586 O   0  0  0  0  0  0  0  0  0  0  0  0
   10.5378  -18.2077   19.5475 C   0  0  2  0  0  0  0  0  0  0  0  0
   11.4780  -17.6687   18.6240 N   0  0  0  0  0  0  0  0  0  0  0  0
   10.4080  -17.4001   20.8076 C   0  0  0  0  0  0  0  0  0  0  0  0
   11.3336  -16.6333   21.1994 O   0  0  0  0  0  0  0  0  0  0  0  0
    9.2438  -17.4672   21.6117 N   0  0  0  0  0  0  0  0  0  0  0  0
    9.0924  -16.6917   22.8497 C   0  0  1  0  0  0  0  0  0  0  0  0
    7.7116  -16.1511   22.9631 C   0  0  0  0  0  0  0  0  0  0  0  0
    7.6064  -14.7380   23.3663 C   0  0  0  0  0  0  0  0  0  0  0  0
    8.0400  -13.6597   22.5548 C   0  0  0  0  0  0  0  0  0  0  0  0
    7.8043  -12.5173   23.2025 N   0  0  0  0  0  0  0  0  0  0  0  0
    7.2508  -12.7333   24.3769 C   0  0  0  0  0  0  0  0  0  0  0  0
    6.8428  -11.8646   25.3628 C   0  0  0  0  0  0  0  0  0  0  0  0
    6.2941  -12.4227   26.4922 C   0  0  0  0  0  0  0  0  0  0  0  0
    6.1519  -13.7900   26.6458 C   0  0  0  0  0  0  0  0  0  0  0  0
    6.5614  -14.6488   25.6490 C   0  0  0  0  0  0  0  0  0  0  0  0
    7.1221  -14.1307   24.4896 C   0  0  0  0  0  0  0  0  0  0  0  0
    9.6908  -17.3136   24.0212 C   0  0  0  0  0  0  0  0  0  0  0  0
    9.7572  -18.5430   24.2472 O   0  0  0  0  0  0  0  0  0  0  0  0
   10.0953  -12.6831   29.1723 C   0  0  0  0  0  0  0  0  0  0  0  0
   10.5546  -13.6317   27.7522 S   0  0  0  0  0  0  0  0  0  0  0  0
   11.3074  -15.2155   28.0379 C   0  0  0  0  0  0  0  0  0  0  0  0
   11.7671  -15.9501   26.8612 C   0  0  0  0  0  0  0  0  0  0  0  0
   10.9212  -16.9871   26.2053 C   0  0  2  0  0  0  0  0  0  0  0  0
   10.2787  -16.4516   25.0259 N   0  0  0  0  0  0  0  0  0  0  0  0
   10.0364  -17.7511   27.0484 C   0  0  0  0  0  0  0  0  0  0  0  0
    8.7718  -17.5832   27.0007 O   0  0  0  0  0  0  0  0  0  0  0  0
   10.4836  -18.7002   27.9613 O   0  0  0  0  0  0  0  0  0  0  0  0
  2  1  1  6
  2  3  1  0
  4  2  1  0
  4  5  1  1
  6  7  2  0
  6  4  1  0
  8  6  1  0
  9  8  1  0
 10 11  1  0
  9 10  1  1
 11 19  1  0
 11 12  2  0
 12 13  1  0
 14 13  1  0
 14 15  2  0
 16 15  1  0
 17 16  2  0
 18 19  2  0
 18 17  1  0
 19 14  1  0
 20 21  2  0
 20  9  1  0
 23 22  1  0
 24 23  1  0
 25 24  1  0
 26 25  1  1
 26 27  1  0
 27 20  1  0
 28 26  1  0
 29 28  2  0
 30 28  1  0
M  END
$$$$
