TWM.pdb
     RDKit          3D

 30 31  0  0  1  0  0  0  0  0999 V2000
   10.7775  -19.6241   18.2984 C   0  0  0  0  0  0  0  0  0  0  0  0
   10.6624  -18.8330   19.5857 C   0  0  1  0  0  0  0  0  0  0  0  0
   11.5872  -19.2848   20.4850 O   0  0  0  0  0  0  0  0  0  0  0  0
   10.6952  -17.3576   19.3425 C   0  0  2  0  0  0  0  0  0  0  0  0
   11.8404  -16.9014   18.6299 N   0  0  0  0  0  0  0  0  0  0  0  0
   10.4603  -16.6204   20.6302 C   0  0  0  0  0  0  0  0  0  0  0  0
   11.4173  -16.1313   21.2958 O   0  0  0  0  0  0  0  0  0  0  0  0
    9.1559  -16.4458   21.1543 N   0  0  0  0  0  0  0  0  0  0  0  0
    8.9076  -15.8546   22.4756 C   0  0  1  0  0  0  0  0  0  0  0  0
    7.4742  -15.4865   22.6233 C   0  0  0  0  0  0  0  0  0  0  0  0
    7.0783  -14.9634   23.9424 C   0  0  0  0  0  0  0  0  0  0  0  0
    6.5139  -15.7673   24.9644 C   0  0  0  0  0  0  0  0  0  0  0  0
    6.2719  -14.9979   26.0272 N   0  0  0  0  0  0  0  0  0  0  0  0
    6.6241  -13.7487   25.8091 C   0  0  0  0  0  0  0  0  0  0  0  0
    6.5579  -12.6326   26.6112 C   0  0  0  0  0  0  0  0  0  0  0  0
    7.0150  -11.4542   26.0721 C   0  0  0  0  0  0  0  0  0  0  0  0
    7.5202  -11.3771   24.7867 C   0  0  0  0  0  0  0  0  0  0  0  0
    7.5842  -12.5034   23.9952 C   0  0  0  0  0  0  0  0  0  0  0  0
    7.1335  -13.7167   24.4971 C   0  0  0  0  0  0  0  0  0  0  0  0
    9.5603  -16.5509   23.5740 C   0  0  0  0  0  0  0  0  0  0  0  0
    9.4435  -17.7672   23.8456 O   0  0  0  0  0  0  0  0  0  0  0  0
    9.9176  -12.9615   29.0584 C   0  0  0  0  0  0  0  0  0  0  0  0
   10.5650  -14.5369   28.5825 S   0  0  0  0  0  0  0  0  0  0  0  0
    9.6828  -15.4368   27.3302 C   0  0  0  0  0  0  0  0  0  0  0  0
   10.3732  -16.5727   26.7232 C   0  0  0  0  0  0  0  0  0  0  0  0
   11.2007  -16.4201   25.4930 C   0  0  2  0  0  0  0  0  0  0  0  0
   10.4380  -15.7895   24.4389 N   0  0  0  0  0  0  0  0  0  0  0  0
   11.9531  -17.5683   25.0538 C   0  0  0  0  0  0  0  0  0  0  0  0
   11.8206  -18.0304   23.8712 O   0  0  0  0  0  0  0  0  0  0  0  0
   12.8525  -18.2477   25.8684 O   0  0  0  0  0  0  0  0  0  0  0  0
  2  1  1  6
  2  3  1  0
  4  2  1  0
  4  5  1  1
  6  7  2  0
  6  4  1  0
  8  6  1  0
  9  8  1  0
 10 11  1  0
  9 10  1  1
 11 19  1  0
 11 12  2  0
 12 13  1  0
 14 13  1  0
 14 15  2  0
 16 15  1  0
 17 16  2  0
 18 19  2  0
 18 17  1  0
 19 14  1  0
 20 21  2  0
 20  9  1  0
 23 22  1  0
 24 23  1  0
 25 24  1  0
 26 25  1  1
 26 27  1  0
 27 20  1  0
 28 26  1  0
 29 28  2  0
 30 28  1  0
M  END
$$$$
