HQP.pdb
     RDKit          3D

 27 28  0  0  1  0  0  0  0  0999 V2000
    7.7271  -13.8515   19.1816 N   0  0  0  0  0  0  0  0  0  0  0  0
    8.6160  -14.0657   20.2845 C   0  0  1  0  0  0  0  0  0  0  0  0
    9.5982  -12.9252   20.4661 C   0  0  0  0  0  0  0  0  0  0  0  0
   10.9167  -13.4164   19.9748 C   0  0  0  0  0  0  0  0  0  0  0  0
   11.2483  -13.9138   18.7349 C   0  0  0  0  0  0  0  0  0  0  0  0
   12.5486  -14.2366   18.7329 N   0  0  0  0  0  0  0  0  0  0  0  0
   13.0261  -13.9465   19.9526 C   0  0  0  0  0  0  0  0  0  0  0  0
   12.0321  -13.4434   20.7195 N   0  0  0  0  0  0  0  0  0  0  0  0
    7.8518  -14.1761   21.5756 C   0  0  0  0  0  0  0  0  0  0  0  0
    6.9984  -13.3125   21.8958 O   0  0  0  0  0  0  0  0  0  0  0  0
    7.4161  -19.4492   24.6168 N   0  0  0  0  0  0  0  0  0  0  0  0
    6.8737  -18.5934   25.6090 C   0  0  0  0  0  0  0  0  0  0  0  0
    6.5982  -19.1054   26.7249 O   0  0  0  0  0  0  0  0  0  0  0  0
    6.6504  -17.1559   25.3160 C   0  0  0  0  0  0  0  0  0  0  0  0
    7.2784  -16.8296   23.9951 C   0  0  0  0  0  0  0  0  0  0  0  0
    7.3602  -15.3074   23.7851 C   0  0  2  0  0  0  0  0  0  0  0  0
    8.0662  -15.2485   22.4672 N   0  0  0  0  0  0  0  0  0  0  0  0
    8.1910  -14.7684   24.8468 C   0  0  0  0  0  0  0  0  0  0  0  0
    9.3156  -15.4281   24.9974 O   0  0  0  0  0  0  0  0  0  0  0  0
    8.0262  -13.7016   25.7235 N   0  0  0  0  0  0  0  0  0  0  0  0
    7.4951  -12.3734   25.1866 C   0  0  0  0  0  0  0  0  0  0  0  0
    6.3268  -12.2054   26.1241 C   0  0  0  0  0  0  0  0  0  0  0  0
    6.7130  -12.9192   27.3991 C   0  0  0  0  0  0  0  0  0  0  0  0
    8.1688  -13.3368   27.0772 C   0  0  1  0  0  0  0  0  0  0  0  0
    8.6977  -14.1924   28.0868 C   0  0  0  0  0  0  0  0  0  0  0  0
    9.0124  -13.5995   29.3366 O   0  0  0  0  0  0  0  0  0  0  0  0
    8.9172  -15.3884   28.0102 O   0  0  0  0  0  0  0  0  0  0  0  0
  2  3  1  0
  2  1  1  6
  4  3  1  0
  5  4  2  0
  6  7  1  0
  6  5  1  0
  7  8  2  0
  8  4  1  0
  9 10  2  0
  9  2  1  0
 12 11  1  0
 12 14  1  0
 13 12  2  0
 16 15  1  1
 15 14  1  0
 16 17  1  0
 17  9  1  0
 18 16  1  0
 19 18  2  0
 20 21  1  0
 20 18  1  0
 22 21  1  0
 23 22  1  0
 24 23  1  0
 24 20  1  0
 24 25  1  1
 26 25  1  0
 27 25  2  0
M  END
$$$$
