HQP.pdb
     RDKit          3D

 27 28  0  0  1  0  0  0  0  0999 V2000
    8.1932  -17.2265   17.3785 N   0  0  0  0  0  0  0  0  0  0  0  0
    8.2393  -16.3694   18.5257 C   0  0  1  0  0  0  0  0  0  0  0  0
    7.1633  -15.3018   18.4940 C   0  0  0  0  0  0  0  0  0  0  0  0
    7.5041  -14.3870   17.3680 C   0  0  0  0  0  0  0  0  0  0  0  0
    7.9439  -13.0835   17.4138 C   0  0  0  0  0  0  0  0  0  0  0  0
    8.1269  -12.6453   16.1611 N   0  0  0  0  0  0  0  0  0  0  0  0
    7.8071  -13.6579   15.3413 C   0  0  0  0  0  0  0  0  0  0  0  0
    7.4244  -14.7289   16.0733 N   0  0  0  0  0  0  0  0  0  0  0  0
    8.0204  -17.1540   19.7904 C   0  0  0  0  0  0  0  0  0  0  0  0
    7.1410  -18.0483   19.8506 O   0  0  0  0  0  0  0  0  0  0  0  0
    8.8187  -22.2663   22.4866 N   0  0  0  0  0  0  0  0  0  0  0  0
    9.0351  -21.4970   21.3152 C   0  0  0  0  0  0  0  0  0  0  0  0
    9.7784  -21.9919   20.4286 O   0  0  0  0  0  0  0  0  0  0  0  0
    8.3981  -20.1649   21.1670 C   0  0  0  0  0  0  0  0  0  0  0  0
    9.4224  -19.1068   21.4441 C   0  0  0  0  0  0  0  0  0  0  0  0
    8.7762  -17.8720   22.0962 C   0  0  2  0  0  0  0  0  0  0  0  0
    8.7917  -16.9137   20.9473 N   0  0  0  0  0  0  0  0  0  0  0  0
    9.6630  -17.4292   23.1572 C   0  0  0  0  0  0  0  0  0  0  0  0
   10.8376  -18.0134   23.1154 O   0  0  0  0  0  0  0  0  0  0  0  0
    9.5089  -16.5174   24.1957 N   0  0  0  0  0  0  0  0  0  0  0  0
    8.4480  -15.4246   24.0741 C   0  0  0  0  0  0  0  0  0  0  0  0
    7.6984  -15.6985   25.3528 C   0  0  0  0  0  0  0  0  0  0  0  0
    8.7095  -16.2926   26.3064 C   0  0  0  0  0  0  0  0  0  0  0  0
   10.0079  -16.1821   25.4702 C   0  0  1  0  0  0  0  0  0  0  0  0
   11.0932  -16.8506   26.1077 C   0  0  0  0  0  0  0  0  0  0  0  0
   11.3100  -18.2086   25.7593 O   0  0  0  0  0  0  0  0  0  0  0  0
   11.8709  -16.3950   26.9276 O   0  0  0  0  0  0  0  0  0  0  0  0
  2  3  1  0
  2  1  1  6
  4  3  1  0
  5  4  2  0
  6  7  1  0
  6  5  1  0
  7  8  2  0
  8  4  1  0
  9 10  2  0
  9  2  1  0
 12 11  1  0
 12 14  1  0
 13 12  2  0
 16 15  1  6
 15 14  1  0
 16 17  1  0
 17  9  1  0
 18 16  1  0
 19 18  2  0
 20 21  1  0
 20 18  1  0
 22 21  1  0
 23 22  1  0
 24 23  1  0
 24 20  1  0
 24 25  1  1
 26 25  1  0
 27 25  2  0
M  END
$$$$
