HQP.pdb
     RDKit          3D

 27 28  0  0  1  0  0  0  0  0999 V2000
    7.6459  -16.9590   20.1089 N   0  0  0  0  0  0  0  0  0  0  0  0
    7.6914  -15.6767   20.7462 C   0  0  1  0  0  0  0  0  0  0  0  0
    6.9249  -14.6199   19.9755 C   0  0  0  0  0  0  0  0  0  0  0  0
    7.7493  -14.2823   18.7808 C   0  0  0  0  0  0  0  0  0  0  0  0
    8.5327  -13.1733   18.5544 C   0  0  0  0  0  0  0  0  0  0  0  0
    9.0968  -13.2830   17.3442 N   0  0  0  0  0  0  0  0  0  0  0  0
    8.6742  -14.4429   16.8187 C   0  0  0  0  0  0  0  0  0  0  0  0
    7.8481  -15.0611   17.6931 N   0  0  0  0  0  0  0  0  0  0  0  0
    7.0708  -15.7360   22.1153 C   0  0  0  0  0  0  0  0  0  0  0  0
    5.8976  -16.1543   22.2741 O   0  0  0  0  0  0  0  0  0  0  0  0
    7.5729  -19.7208   25.0569 N   0  0  0  0  0  0  0  0  0  0  0  0
    7.0380  -19.0089   26.1605 C   0  0  0  0  0  0  0  0  0  0  0  0
    6.7952  -19.6640   27.2071 O   0  0  0  0  0  0  0  0  0  0  0  0
    6.7846  -17.5504   26.0578 C   0  0  0  0  0  0  0  0  0  0  0  0
    7.2370  -17.0758   24.7103 C   0  0  0  0  0  0  0  0  0  0  0  0
    7.2212  -15.5391   24.6337 C   0  0  2  0  0  0  0  0  0  0  0  0
    7.7819  -15.3257   23.2630 N   0  0  0  0  0  0  0  0  0  0  0  0
    8.1307  -15.0458   25.6522 C   0  0  0  0  0  0  0  0  0  0  0  0
    9.1191  -15.8743   25.8959 O   0  0  0  0  0  0  0  0  0  0  0  0
    8.1554  -13.8798   26.4095 N   0  0  0  0  0  0  0  0  0  0  0  0
    7.5654  -12.5990   25.8216 C   0  0  0  0  0  0  0  0  0  0  0  0
    6.5944  -12.2729   26.9275 C   0  0  0  0  0  0  0  0  0  0  0  0
    7.1926  -12.8534   28.1882 C   0  0  0  0  0  0  0  0  0  0  0  0
    8.5538  -13.3699   27.6614 C   0  0  1  0  0  0  0  0  0  0  0  0
    9.2400  -14.1277   28.6544 C   0  0  0  0  0  0  0  0  0  0  0  0
    9.0268  -15.5303   28.6587 O   0  0  0  0  0  0  0  0  0  0  0  0
    9.9989  -13.7158   29.5140 O   0  0  0  0  0  0  0  0  0  0  0  0
  2  3  1  0
  2  1  1  6
  4  3  1  0
  5  4  2  0
  6  7  1  0
  6  5  1  0
  7  8  2  0
  8  4  1  0
  9 10  2  0
  9  2  1  0
 12 11  1  0
 12 14  1  0
 13 12  2  0
 16 15  1  1
 15 14  1  0
 16 17  1  0
 17  9  1  0
 18 16  1  0
 19 18  2  0
 20 21  1  0
 20 18  1  0
 22 21  1  0
 23 22  1  0
 24 23  1  0
 24 20  1  0
 24 25  1  1
 26 25  1  0
 27 25  2  0
M  END
$$$$
