HQP.pdb
     RDKit          3D

 27 28  0  0  1  0  0  0  0  0999 V2000
    7.6738  -16.9713   19.8790 N   0  0  0  0  0  0  0  0  0  0  0  0
    7.6944  -15.6752   20.4893 C   0  0  1  0  0  0  0  0  0  0  0  0
    6.9349  -14.6424   19.6800 C   0  0  0  0  0  0  0  0  0  0  0  0
    7.7666  -14.3466   18.4793 C   0  0  0  0  0  0  0  0  0  0  0  0
    8.9643  -14.9065   18.0960 C   0  0  0  0  0  0  0  0  0  0  0  0
    9.3573  -14.3407   16.9470 N   0  0  0  0  0  0  0  0  0  0  0  0
    8.4210  -13.4393   16.6139 C   0  0  0  0  0  0  0  0  0  0  0  0
    7.4429  -13.4370   17.5480 N   0  0  0  0  0  0  0  0  0  0  0  0
    7.0455  -15.7110   21.8460 C   0  0  0  0  0  0  0  0  0  0  0  0
    5.8917  -16.1829   21.9970 O   0  0  0  0  0  0  0  0  0  0  0  0
    7.5954  -19.6228   24.8074 N   0  0  0  0  0  0  0  0  0  0  0  0
    6.9028  -18.9394   25.8389 C   0  0  0  0  0  0  0  0  0  0  0  0
    6.4861  -19.6261   26.8075 O   0  0  0  0  0  0  0  0  0  0  0  0
    6.6919  -17.4730   25.7540 C   0  0  0  0  0  0  0  0  0  0  0  0
    7.2834  -16.9741   24.4706 C   0  0  0  0  0  0  0  0  0  0  0  0
    7.1501  -15.4451   24.3604 C   0  0  2  0  0  0  0  0  0  0  0  0
    7.7074  -15.2179   22.9906 N   0  0  0  0  0  0  0  0  0  0  0  0
    8.0078  -14.8617   25.3762 C   0  0  0  0  0  0  0  0  0  0  0  0
    9.0817  -15.5797   25.6089 O   0  0  0  0  0  0  0  0  0  0  0  0
    7.9114  -13.7038   26.1402 N   0  0  0  0  0  0  0  0  0  0  0  0
    7.1812  -12.4917   25.5641 C   0  0  0  0  0  0  0  0  0  0  0  0
    6.1890  -12.2788   26.6786 C   0  0  0  0  0  0  0  0  0  0  0  0
    6.8564  -12.7973   27.9317 C   0  0  0  0  0  0  0  0  0  0  0  0
    8.2616  -13.1600   27.3922 C   0  0  1  0  0  0  0  0  0  0  0  0
    9.0336  -13.8439   28.3759 C   0  0  0  0  0  0  0  0  0  0  0  0
    9.0586  -15.2607   28.3075 O   0  0  0  0  0  0  0  0  0  0  0  0
    9.6853  -13.3569   29.2828 O   0  0  0  0  0  0  0  0  0  0  0  0
  2  3  1  0
  2  1  1  6
  4  3  1  0
  5  4  2  0
  6  7  1  0
  6  5  1  0
  7  8  2  0
  8  4  1  0
  9 10  2  0
  9  2  1  0
 12 11  1  0
 12 14  1  0
 13 12  2  0
 16 15  1  1
 15 14  1  0
 16 17  1  0
 17  9  1  0
 18 16  1  0
 19 18  2  0
 20 21  1  0
 20 18  1  0
 22 21  1  0
 23 22  1  0
 24 23  1  0
 24 20  1  0
 24 25  1  1
 26 25  1  0
 27 25  2  0
M  END
$$$$
