HQP.pdb
     RDKit          3D

 27 28  0  0  1  0  0  0  0  0999 V2000
    9.5219  -17.5008   13.7769 N   0  0  0  0  0  0  0  0  0  0  0  0
   10.0962  -17.0949   15.0251 C   0  0  1  0  0  0  0  0  0  0  0  0
   11.2251  -16.0989   14.8461 C   0  0  0  0  0  0  0  0  0  0  0  0
   12.4531  -16.8937   14.5609 C   0  0  0  0  0  0  0  0  0  0  0  0
   12.6265  -18.2590   14.5872 C   0  0  0  0  0  0  0  0  0  0  0  0
   13.8960  -18.5392   14.2636 N   0  0  0  0  0  0  0  0  0  0  0  0
   14.5103  -17.3681   14.0376 C   0  0  0  0  0  0  0  0  0  0  0  0
   13.6326  -16.3549   14.2178 N   0  0  0  0  0  0  0  0  0  0  0  0
    9.0697  -16.4201   15.8934 C   0  0  0  0  0  0  0  0  0  0  0  0
    7.9755  -16.0315   15.4154 O   0  0  0  0  0  0  0  0  0  0  0  0
    7.8744  -19.7575   16.7194 N   0  0  0  0  0  0  0  0  0  0  0  0
    6.6442  -19.0530   16.6862 C   0  0  0  0  0  0  0  0  0  0  0  0
    5.7164  -19.5441   15.9925 O   0  0  0  0  0  0  0  0  0  0  0  0
    6.4849  -17.7896   17.4483 C   0  0  0  0  0  0  0  0  0  0  0  0
    7.7083  -17.5745   18.2866 C   0  0  0  0  0  0  0  0  0  0  0  0
    8.1605  -16.1047   18.2339 C   0  0  2  0  0  0  0  0  0  0  0  0
    9.2995  -16.2013   17.2684 N   0  0  0  0  0  0  0  0  0  0  0  0
    8.6300  -15.7486   19.5608 C   0  0  0  0  0  0  0  0  0  0  0  0
    9.0878  -16.7794   20.2320 O   0  0  0  0  0  0  0  0  0  0  0  0
    8.6867  -14.5413   20.2484 N   0  0  0  0  0  0  0  0  0  0  0  0
    8.5229  -13.2354   19.4723 C   0  0  0  0  0  0  0  0  0  0  0  0
    7.3855  -12.6455   20.2663 C   0  0  0  0  0  0  0  0  0  0  0  0
    7.5220  -13.2052   21.6636 C   0  0  0  0  0  0  0  0  0  0  0  0
    8.8462  -13.9978   21.5388 C   0  0  1  0  0  0  0  0  0  0  0  0
    9.0995  -14.7711   22.7088 C   0  0  0  0  0  0  0  0  0  0  0  0
    8.4469  -16.0269   22.8073 O   0  0  0  0  0  0  0  0  0  0  0  0
    9.8177  -14.4846   23.6505 O   0  0  0  0  0  0  0  0  0  0  0  0
  2  3  1  0
  2  1  1  6
  4  3  1  0
  5  4  2  0
  6  7  1  0
  6  5  1  0
  7  8  2  0
  8  4  1  0
  9 10  2  0
  9  2  1  0
 12 11  1  0
 12 14  1  0
 13 12  2  0
 16 15  1  1
 15 14  1  0
 16 17  1  0
 17  9  1  0
 18 16  1  0
 19 18  2  0
 20 21  1  0
 20 18  1  0
 22 21  1  0
 23 22  1  0
 24 23  1  0
 24 20  1  0
 24 25  1  1
 26 25  1  0
 27 25  2  0
M  END
$$$$
