HQP.pdb
     RDKit          3D

 27 28  0  0  1  0  0  0  0  0999 V2000
    8.8151  -15.7747   20.6263 N   0  0  0  0  0  0  0  0  0  0  0  0
    8.1060  -14.5797   20.9749 C   0  0  1  0  0  0  0  0  0  0  0  0
    7.0488  -14.2147   19.9513 C   0  0  0  0  0  0  0  0  0  0  0  0
    7.7549  -14.0529   18.6490 C   0  0  0  0  0  0  0  0  0  0  0  0
    8.4964  -12.9868   18.1924 C   0  0  0  0  0  0  0  0  0  0  0  0
    8.9491  -13.2704   16.9638 N   0  0  0  0  0  0  0  0  0  0  0  0
    8.4989  -14.4956   16.6536 C   0  0  0  0  0  0  0  0  0  0  0  0
    7.7662  -14.9818   17.6812 N   0  0  0  0  0  0  0  0  0  0  0  0
    7.3869  -14.7459   22.2857 C   0  0  0  0  0  0  0  0  0  0  0  0
    6.5788  -13.8754   22.6931 O   0  0  0  0  0  0  0  0  0  0  0  0
    7.4465  -19.9982   25.4774 N   0  0  0  0  0  0  0  0  0  0  0  0
    6.9826  -19.1367   26.5038 C   0  0  0  0  0  0  0  0  0  0  0  0
    6.6661  -19.6645   27.6013 O   0  0  0  0  0  0  0  0  0  0  0  0
    6.8843  -17.6752   26.2659 C   0  0  0  0  0  0  0  0  0  0  0  0
    7.3468  -17.3812   24.8712 C   0  0  0  0  0  0  0  0  0  0  0  0
    7.1540  -15.8935   24.5291 C   0  0  2  0  0  0  0  0  0  0  0  0
    7.5943  -15.8802   23.0991 N   0  0  0  0  0  0  0  0  0  0  0  0
    8.0688  -15.1356   25.3638 C   0  0  0  0  0  0  0  0  0  0  0  0
    9.2743  -15.6536   25.3979 O   0  0  0  0  0  0  0  0  0  0  0  0
    7.9151  -13.9817   26.1245 N   0  0  0  0  0  0  0  0  0  0  0  0
    7.1282  -12.8078   25.5438 C   0  0  0  0  0  0  0  0  0  0  0  0
    6.1248  -12.6402   26.6561 C   0  0  0  0  0  0  0  0  0  0  0  0
    6.8142  -13.1224   27.9117 C   0  0  0  0  0  0  0  0  0  0  0  0
    8.2363  -13.4182   27.3756 C   0  0  1  0  0  0  0  0  0  0  0  0
    9.0387  -14.0613   28.3624 C   0  0  0  0  0  0  0  0  0  0  0  0
    9.6995  -13.2282   29.3014 O   0  0  0  0  0  0  0  0  0  0  0  0
    9.2316  -15.2561   28.5032 O   0  0  0  0  0  0  0  0  0  0  0  0
  2  3  1  0
  2  1  1  6
  4  3  1  0
  5  4  2  0
  6  7  1  0
  6  5  1  0
  7  8  2  0
  8  4  1  0
  9 10  2  0
  9  2  1  0
 12 11  1  0
 12 14  1  0
 13 12  2  0
 16 15  1  1
 15 14  1  0
 16 17  1  0
 17  9  1  0
 18 16  1  0
 19 18  2  0
 20 21  1  0
 20 18  1  0
 22 21  1  0
 23 22  1  0
 24 23  1  0
 24 20  1  0
 24 25  1  1
 26 25  1  0
 27 25  2  0
M  END
$$$$
