HQP.pdb
     RDKit          3D

 27 28  0  0  1  0  0  0  0  0999 V2000
    6.4472  -16.0719   19.9756 N   0  0  0  0  0  0  0  0  0  0  0  0
    7.4819  -15.5533   20.8199 C   0  0  1  0  0  0  0  0  0  0  0  0
    7.7529  -14.0833   20.5667 C   0  0  0  0  0  0  0  0  0  0  0  0
    8.2896  -13.9818   19.1802 C   0  0  0  0  0  0  0  0  0  0  0  0
    8.5970  -14.9898   18.2945 C   0  0  0  0  0  0  0  0  0  0  0  0
    9.0517  -14.4431   17.1591 N   0  0  0  0  0  0  0  0  0  0  0  0
    9.0304  -13.1125   17.3291 C   0  0  0  0  0  0  0  0  0  0  0  0
    8.5646  -12.8218   18.5651 N   0  0  0  0  0  0  0  0  0  0  0  0
    7.0994  -15.6698   22.2701 C   0  0  0  0  0  0  0  0  0  0  0  0
    5.9027  -15.5557   22.6328 O   0  0  0  0  0  0  0  0  0  0  0  0
    4.6141  -19.4072   24.3390 N   0  0  0  0  0  0  0  0  0  0  0  0
    6.0184  -19.4015   24.5361 C   0  0  0  0  0  0  0  0  0  0  0  0
    6.6884  -20.2851   23.9415 O   0  0  0  0  0  0  0  0  0  0  0  0
    6.6464  -18.3827   25.4137 C   0  0  0  0  0  0  0  0  0  0  0  0
    7.7893  -17.7512   24.6785 C   0  0  0  0  0  0  0  0  0  0  0  0
    7.6623  -16.2178   24.6757 C   0  0  2  0  0  0  0  0  0  0  0  0
    8.0673  -15.9103   23.2685 N   0  0  0  0  0  0  0  0  0  0  0  0
    8.6340  -15.7015   25.6230 C   0  0  0  0  0  0  0  0  0  0  0  0
    9.7308  -16.4209   25.6698 O   0  0  0  0  0  0  0  0  0  0  0  0
    8.6258  -14.6059   26.4793 N   0  0  0  0  0  0  0  0  0  0  0  0
    7.8962  -13.3335   26.0516 C   0  0  0  0  0  0  0  0  0  0  0  0
    6.9892  -13.1844   27.2462 C   0  0  0  0  0  0  0  0  0  0  0  0
    7.7237  -13.8178   28.4054 C   0  0  0  0  0  0  0  0  0  0  0  0
    9.0770  -14.1725   27.7421 C   0  0  1  0  0  0  0  0  0  0  0  0
    9.8924  -14.9520   28.6131 C   0  0  0  0  0  0  0  0  0  0  0  0
   10.8905  -14.2650   29.3510 O   0  0  0  0  0  0  0  0  0  0  0  0
    9.8393  -16.1538   28.8068 O   0  0  0  0  0  0  0  0  0  0  0  0
  2  3  1  0
  2  1  1  6
  4  3  1  0
  5  4  2  0
  6  7  1  0
  6  5  1  0
  7  8  2  0
  8  4  1  0
  9 10  2  0
  9  2  1  0
 12 11  1  0
 12 14  1  0
 13 12  2  0
 16 15  1  6
 15 14  1  0
 16 17  1  0
 17  9  1  0
 18 16  1  0
 19 18  2  0
 20 21  1  0
 20 18  1  0
 22 21  1  0
 23 22  1  0
 24 23  1  0
 24 20  1  0
 24 25  1  1
 26 25  1  0
 27 25  2  0
M  END
$$$$
