HQP.pdb
     RDKit          3D

 27 28  0  0  1  0  0  0  0  0999 V2000
   15.0113  -14.2867   17.8797 N   0  0  0  0  0  0  0  0  0  0  0  0
   14.0282  -15.2922   18.1536 C   0  0  1  0  0  0  0  0  0  0  0  0
   14.4402  -16.2107   19.2872 C   0  0  0  0  0  0  0  0  0  0  0  0
   15.1009  -17.3905   18.6608 C   0  0  0  0  0  0  0  0  0  0  0  0
   14.8182  -18.0067   17.4627 C   0  0  0  0  0  0  0  0  0  0  0  0
   15.6637  -19.0321   17.2946 N   0  0  0  0  0  0  0  0  0  0  0  0
   16.4650  -19.0596   18.3703 C   0  0  0  0  0  0  0  0  0  0  0  0
   16.1264  -18.0566   19.2122 N   0  0  0  0  0  0  0  0  0  0  0  0
   12.7235  -14.6680   18.5670 C   0  0  0  0  0  0  0  0  0  0  0  0
   12.6908  -13.7463   19.4191 O   0  0  0  0  0  0  0  0  0  0  0  0
    8.2509  -13.6819   15.4934 N   0  0  0  0  0  0  0  0  0  0  0  0
    7.3888  -13.8705   16.6034 C   0  0  0  0  0  0  0  0  0  0  0  0
    6.2673  -13.3012   16.5665 O   0  0  0  0  0  0  0  0  0  0  0  0
    7.8175  -14.7107   17.7490 C   0  0  0  0  0  0  0  0  0  0  0  0
    9.2194  -15.1804   17.5048 C   0  0  0  0  0  0  0  0  0  0  0  0
   10.1968  -14.5415   18.5069 C   0  0  2  0  0  0  0  0  0  0  0  0
   11.4970  -15.0943   18.0145 N   0  0  0  0  0  0  0  0  0  0  0  0
    9.8717  -15.0646   19.8217 C   0  0  0  0  0  0  0  0  0  0  0  0
   10.0587  -16.3604   19.9141 O   0  0  0  0  0  0  0  0  0  0  0  0
    9.4061  -14.4645   20.9865 N   0  0  0  0  0  0  0  0  0  0  0  0
    9.5470  -12.9521   21.1511 C   0  0  0  0  0  0  0  0  0  0  0  0
    8.1026  -12.6226   21.4288 C   0  0  0  0  0  0  0  0  0  0  0  0
    7.5148  -13.8538   22.0794 C   0  0  0  0  0  0  0  0  0  0  0  0
    8.7712  -14.7489   22.2120 C   0  0  1  0  0  0  0  0  0  0  0  0
    8.4288  -16.0604   22.6523 C   0  0  0  0  0  0  0  0  0  0  0  0
    8.1862  -17.0355   21.6509 O   0  0  0  0  0  0  0  0  0  0  0  0
    8.3165  -16.4559   23.7993 O   0  0  0  0  0  0  0  0  0  0  0  0
  2  3  1  0
  2  1  1  1
  4  3  1  0
  5  4  2  0
  6  7  1  0
  6  5  1  0
  7  8  2  0
  8  4  1  0
  9 10  2  0
  9  2  1  0
 12 11  1  0
 12 14  1  0
 13 12  2  0
 16 15  1  6
 15 14  1  0
 16 17  1  0
 17  9  1  0
 18 16  1  0
 19 18  2  0
 20 21  1  0
 20 18  1  0
 22 21  1  0
 23 22  1  0
 24 23  1  0
 24 20  1  0
 24 25  1  6
 26 25  1  0
 27 25  2  0
M  END
$$$$
