HQP.pdb
     RDKit          3D

 27 28  0  0  1  0  0  0  0  0999 V2000
    6.9418  -17.0321   20.0462 N   0  0  0  0  0  0  0  0  0  0  0  0
    7.2934  -15.8375   20.7546 C   0  0  1  0  0  0  0  0  0  0  0  0
    6.7087  -14.5929   20.1162 C   0  0  0  0  0  0  0  0  0  0  0  0
    7.6395  -14.1985   19.0212 C   0  0  0  0  0  0  0  0  0  0  0  0
    8.4519  -13.0909   18.9320 C   0  0  0  0  0  0  0  0  0  0  0  0
    9.1199  -13.1378   17.7717 N   0  0  0  0  0  0  0  0  0  0  0  0
    8.7330  -14.2574   17.1419 C   0  0  0  0  0  0  0  0  0  0  0  0
    7.8258  -14.9129   17.9013 N   0  0  0  0  0  0  0  0  0  0  0  0
    6.7700  -15.8763   22.1643 C   0  0  0  0  0  0  0  0  0  0  0  0
    5.6225  -16.3207   22.4143 O   0  0  0  0  0  0  0  0  0  0  0  0
    7.4159  -19.8501   25.0226 N   0  0  0  0  0  0  0  0  0  0  0  0
    7.1217  -19.1190   26.2016 C   0  0  0  0  0  0  0  0  0  0  0  0
    7.0642  -19.7632   27.2810 O   0  0  0  0  0  0  0  0  0  0  0  0
    6.8952  -17.6539   26.1363 C   0  0  0  0  0  0  0  0  0  0  0  0
    7.2569  -17.1706   24.7647 C   0  0  0  0  0  0  0  0  0  0  0  0
    7.1061  -15.6427   24.6616 C   0  0  2  0  0  0  0  0  0  0  0  0
    7.5463  -15.4170   23.2495 N   0  0  0  0  0  0  0  0  0  0  0  0
    8.0420  -15.0513   25.6009 C   0  0  0  0  0  0  0  0  0  0  0  0
    9.1468  -15.7488   25.7255 O   0  0  0  0  0  0  0  0  0  0  0  0
    7.9932  -13.9032   26.3839 N   0  0  0  0  0  0  0  0  0  0  0  0
    7.1776  -12.7061   25.8980 C   0  0  0  0  0  0  0  0  0  0  0  0
    6.2977  -12.5297   27.1091 C   0  0  0  0  0  0  0  0  0  0  0  0
    7.1013  -13.0411   28.2827 C   0  0  0  0  0  0  0  0  0  0  0  0
    8.4538  -13.3612   27.6005 C   0  0  1  0  0  0  0  0  0  0  0  0
    9.3385  -14.0326   28.4935 C   0  0  0  0  0  0  0  0  0  0  0  0
    9.3198  -15.4511   28.4769 O   0  0  0  0  0  0  0  0  0  0  0  0
   10.1216  -13.5335   29.2824 O   0  0  0  0  0  0  0  0  0  0  0  0
  2  3  1  0
  2  1  1  6
  4  3  1  0
  5  4  2  0
  6  7  1  0
  6  5  1  0
  7  8  2  0
  8  4  1  0
  9 10  2  0
  9  2  1  0
 12 11  1  0
 12 14  1  0
 13 12  2  0
 16 15  1  1
 15 14  1  0
 16 17  1  0
 17  9  1  0
 18 16  1  0
 19 18  2  0
 20 21  1  0
 20 18  1  0
 22 21  1  0
 23 22  1  0
 24 23  1  0
 24 20  1  0
 24 25  1  1
 26 25  1  0
 27 25  2  0
M  END
$$$$
