HQP.pdb
     RDKit          3D

 27 28  0  0  1  0  0  0  0  0999 V2000
    7.2917  -17.3412   20.1523 N   0  0  0  0  0  0  0  0  0  0  0  0
    7.4735  -16.0442   20.7332 C   0  0  1  0  0  0  0  0  0  0  0  0
    6.7431  -14.9592   19.9665 C   0  0  0  0  0  0  0  0  0  0  0  0
    7.7065  -14.4248   18.9629 C   0  0  0  0  0  0  0  0  0  0  0  0
    9.0098  -14.8003   18.7280 C   0  0  0  0  0  0  0  0  0  0  0  0
    9.5014  -14.0529   17.7307 N   0  0  0  0  0  0  0  0  0  0  0  0
    8.5220  -13.2210   17.3452 C   0  0  0  0  0  0  0  0  0  0  0  0
    7.4188  -13.4427   18.0956 N   0  0  0  0  0  0  0  0  0  0  0  0
    6.9359  -16.0055   22.1376 C   0  0  0  0  0  0  0  0  0  0  0  0
    5.7137  -16.1814   22.3655 O   0  0  0  0  0  0  0  0  0  0  0  0
    7.7202  -19.8996   25.6206 N   0  0  0  0  0  0  0  0  0  0  0  0
    7.0703  -19.0824   26.5801 C   0  0  0  0  0  0  0  0  0  0  0  0
    6.7048  -19.6302   27.6522 O   0  0  0  0  0  0  0  0  0  0  0  0
    6.8431  -17.6420   26.3047 C   0  0  0  0  0  0  0  0  0  0  0  0
    7.3748  -17.3219   24.9407 C   0  0  0  0  0  0  0  0  0  0  0  0
    7.2531  -15.8175   24.6412 C   0  0  2  0  0  0  0  0  0  0  0  0
    7.7820  -15.7713   23.2423 N   0  0  0  0  0  0  0  0  0  0  0  0
    8.1384  -15.1211   25.5572 C   0  0  0  0  0  0  0  0  0  0  0  0
    9.2743  -15.7514   25.7448 O   0  0  0  0  0  0  0  0  0  0  0  0
    8.0157  -13.9304   26.2649 N   0  0  0  0  0  0  0  0  0  0  0  0
    7.1611  -12.8050   25.6840 C   0  0  0  0  0  0  0  0  0  0  0  0
    6.2400  -12.5956   26.8586 C   0  0  0  0  0  0  0  0  0  0  0  0
    7.0320  -12.9955   28.0822 C   0  0  0  0  0  0  0  0  0  0  0  0
    8.4164  -13.2935   27.4564 C   0  0  1  0  0  0  0  0  0  0  0  0
    9.3047  -13.8665   28.4123 C   0  0  0  0  0  0  0  0  0  0  0  0
    9.4460  -15.2781   28.3983 O   0  0  0  0  0  0  0  0  0  0  0  0
    9.9686  -13.2872   29.2538 O   0  0  0  0  0  0  0  0  0  0  0  0
  2  3  1  0
  2  1  1  6
  4  3  1  0
  5  4  2  0
  6  7  1  0
  6  5  1  0
  7  8  2  0
  8  4  1  0
  9 10  2  0
  9  2  1  0
 12 11  1  0
 12 14  1  0
 13 12  2  0
 16 15  1  1
 15 14  1  0
 16 17  1  0
 17  9  1  0
 18 16  1  0
 19 18  2  0
 20 21  1  0
 20 18  1  0
 22 21  1  0
 23 22  1  0
 24 23  1  0
 24 20  1  0
 24 25  1  1
 26 25  1  0
 27 25  2  0
M  END
$$$$
