HQP.pdb
     RDKit          3D

 27 28  0  0  1  0  0  0  0  0999 V2000
    6.3317  -15.8606   19.7867 N   0  0  0  0  0  0  0  0  0  0  0  0
    7.3377  -15.3922   20.6928 C   0  0  1  0  0  0  0  0  0  0  0  0
    7.7076  -13.9425   20.4476 C   0  0  0  0  0  0  0  0  0  0  0  0
    8.3954  -13.8961   19.1264 C   0  0  0  0  0  0  0  0  0  0  0  0
    7.9800  -13.3065   17.9539 C   0  0  0  0  0  0  0  0  0  0  0  0
    8.9126  -13.5104   17.0140 N   0  0  0  0  0  0  0  0  0  0  0  0
    9.8985  -14.2171   17.5873 C   0  0  0  0  0  0  0  0  0  0  0  0
    9.5889  -14.4574   18.8818 N   0  0  0  0  0  0  0  0  0  0  0  0
    6.8567  -15.4718   22.1159 C   0  0  0  0  0  0  0  0  0  0  0  0
    5.7092  -15.0721   22.4322 O   0  0  0  0  0  0  0  0  0  0  0  0
    7.8893  -20.0054   25.7065 N   0  0  0  0  0  0  0  0  0  0  0  0
    7.3073  -19.1512   26.6774 C   0  0  0  0  0  0  0  0  0  0  0  0
    7.0950  -19.6353   27.8192 O   0  0  0  0  0  0  0  0  0  0  0  0
    6.9723  -17.7470   26.3335 C   0  0  0  0  0  0  0  0  0  0  0  0
    7.4160  -17.4754   24.9282 C   0  0  0  0  0  0  0  0  0  0  0  0
    7.2199  -15.9930   24.5654 C   0  0  2  0  0  0  0  0  0  0  0  0
    7.6742  -15.9957   23.1398 N   0  0  0  0  0  0  0  0  0  0  0  0
    8.1230  -15.2205   25.3995 C   0  0  0  0  0  0  0  0  0  0  0  0
    9.2927  -15.7961   25.5517 O   0  0  0  0  0  0  0  0  0  0  0  0
    7.9884  -14.0040   26.0598 N   0  0  0  0  0  0  0  0  0  0  0  0
    7.1615  -12.8943   25.4123 C   0  0  0  0  0  0  0  0  0  0  0  0
    6.2064  -12.6359   26.5494 C   0  0  0  0  0  0  0  0  0  0  0  0
    6.9569  -12.9968   27.8107 C   0  0  0  0  0  0  0  0  0  0  0  0
    8.3575  -13.3273   27.2394 C   0  0  1  0  0  0  0  0  0  0  0  0
    9.2110  -13.8717   28.2426 C   0  0  0  0  0  0  0  0  0  0  0  0
    9.2912  -15.2857   28.3251 O   0  0  0  0  0  0  0  0  0  0  0  0
    9.8914  -13.2656   29.0514 O   0  0  0  0  0  0  0  0  0  0  0  0
  2  3  1  0
  2  1  1  6
  4  3  1  0
  5  4  2  0
  6  7  1  0
  6  5  1  0
  7  8  2  0
  8  4  1  0
  9 10  2  0
  9  2  1  0
 12 11  1  0
 12 14  1  0
 13 12  2  0
 16 15  1  1
 15 14  1  0
 16 17  1  0
 17  9  1  0
 18 16  1  0
 19 18  2  0
 20 21  1  0
 20 18  1  0
 22 21  1  0
 23 22  1  0
 24 23  1  0
 24 20  1  0
 24 25  1  1
 26 25  1  0
 27 25  2  0
M  END
$$$$
