RWP.pdb
     RDKit          3D

 33 35  0  0  1  0  0  0  0  0999 V2000
    7.3838  -14.2904   14.8280 N   0  0  0  0  0  0  0  0  0  0  0  0
    8.7433  -14.5969   14.5884 C   0  0  0  0  0  0  0  0  0  0  0  0
    9.2130  -14.4085   13.4034 N   0  0  0  0  0  0  0  0  0  0  0  0
    9.6070  -15.1040   15.6049 N   0  0  0  0  0  0  0  0  0  0  0  0
    9.1948  -15.1372   16.9909 C   0  0  0  0  0  0  0  0  0  0  0  0
   10.1091  -14.2170   17.7541 C   0  0  0  0  0  0  0  0  0  0  0  0
    9.6865  -13.9680   19.1630 C   0  0  0  0  0  0  0  0  0  0  0  0
   10.0927  -15.0630   20.1222 C   0  0  2  0  0  0  0  0  0  0  0  0
    9.6363  -16.3184   19.6177 N   0  0  0  0  0  0  0  0  0  0  0  0
    9.4869  -14.7320   21.4530 C   0  0  0  0  0  0  0  0  0  0  0  0
    8.6004  -13.8402   21.4976 O   0  0  0  0  0  0  0  0  0  0  0  0
   10.2074  -14.5400   13.1913 N   0  0  0  0  0  0  0  0  0  0  0  0
    9.9048  -15.4090   22.6299 C   0  0  2  0  0  0  0  0  0  0  0  0
    9.2908  -15.1503   23.9118 C   0  0  0  0  0  0  0  0  0  0  0  0
    7.7841  -15.2283   23.7672 C   0  0  0  0  0  0  0  0  0  0  0  0
    6.9962  -14.7139   24.8803 C   0  0  0  0  0  0  0  0  0  0  0  0
    6.2046  -15.4415   25.7836 N   0  0  0  0  0  0  0  0  0  0  0  0
    5.6257  -14.5814   26.6256 C   0  0  0  0  0  0  0  0  0  0  0  0
    5.9766  -13.3216   26.3484 C   0  0  0  0  0  0  0  0  0  0  0  0
    5.6522  -12.1099   26.9408 C   0  0  0  0  0  0  0  0  0  0  0  0
    6.1956  -10.9476   26.4358 C   0  0  0  0  0  0  0  0  0  0  0  0
    7.0579  -10.9679   25.3498 C   0  0  0  0  0  0  0  0  0  0  0  0
    7.3423  -12.1962   24.8039 C   0  0  0  0  0  0  0  0  0  0  0  0
    6.8263  -13.3908   25.2684 C   0  0  0  0  0  0  0  0  0  0  0  0
    9.8620  -15.8061   25.0662 O   0  0  0  0  0  0  0  0  0  0  0  0
   10.0242  -17.0810   24.9748 N   0  0  0  0  0  0  0  0  0  0  0  0
   10.2634  -15.1964   26.2881 C   0  0  0  0  0  0  0  0  0  0  0  0
   10.0755  -13.8812   26.7921 C   0  0  0  0  0  0  0  0  0  0  0  0
   10.0625  -14.0642   28.3135 C   0  0  0  0  0  0  0  0  0  0  0  0
   11.3010  -14.9701   28.4317 C   0  0  1  0  0  0  0  0  0  0  0  0
   11.0436  -15.9354   27.2965 C   0  0  0  0  0  0  0  0  0  0  0  0
   10.3521  -17.1504   27.7513 O   0  0  0  0  0  0  0  0  0  0  0  0
   10.9913  -18.0515   28.5679 O   0  0  0  0  0  0  0  0  0  0  0  0
  2  1  1  0
  3  2  2  0
  4  2  1  0
  5  4  1  0
  6  5  1  0
  7  6  1  0
  8  9  1  6
  8  7  1  0
 10  8  1  0
 10 11  2  0
 12 10  1  0
 13 12  1  0
 13 14  1  1
 14 15  1  0
 15 16  2  0
 16 17  1  0
 18 17  1  0
 19 18  2  0
 20 19  1  0
 21 22  1  0
 21 20  2  0
 22 23  2  0
 23 15  1  0
 23 18  1  0
 24 13  1  0
 25 24  2  0
 26 27  1  0
 26 24  1  0
 28 27  1  0
 29 28  1  0
 30 29  1  0
 30 26  1  0
 30 31  1  1
 31 32  1  0
 33 31  2  0
M  END
$$$$
