RWP.pdb
     RDKit          3D

 33 35  0  0  1  0  0  0  0  0999 V2000
    8.2462  -16.0004   16.3307 N   0  0  0  0  0  0  0  0  0  0  0  0
    8.5399  -14.9064   15.4842 C   0  0  0  0  0  0  0  0  0  0  0  0
    8.8277  -15.1471   14.2515 N   0  0  0  0  0  0  0  0  0  0  0  0
    8.5292  -13.5555   15.9436 N   0  0  0  0  0  0  0  0  0  0  0  0
    8.1762  -13.2303   17.3080 C   0  0  0  0  0  0  0  0  0  0  0  0
    8.6533  -14.3621   18.1778 C   0  0  0  0  0  0  0  0  0  0  0  0
    9.3786  -13.9238   19.4056 C   0  0  0  0  0  0  0  0  0  0  0  0
    9.7506  -15.0598   20.3303 C   0  0  2  0  0  0  0  0  0  0  0  0
    9.0946  -16.2506   19.8939 N   0  0  0  0  0  0  0  0  0  0  0  0
    9.3358  -14.6577   21.7137 C   0  0  0  0  0  0  0  0  0  0  0  0
    8.4672  -13.7555   21.8354 O   0  0  0  0  0  0  0  0  0  0  0  0
    9.1234  -14.4020   13.6124 N   0  0  0  0  0  0  0  0  0  0  0  0
    9.9099  -15.2807   22.8541 C   0  0  2  0  0  0  0  0  0  0  0  0
    9.2992  -15.1821   24.1596 C   0  0  0  0  0  0  0  0  0  0  0  0
    7.7978  -15.3347   24.0200 C   0  0  0  0  0  0  0  0  0  0  0  0
    6.9881  -14.8452   25.1288 C   0  0  0  0  0  0  0  0  0  0  0  0
    6.1299  -15.5835   25.9597 N   0  0  0  0  0  0  0  0  0  0  0  0
    5.5549  -14.7442   26.8251 C   0  0  0  0  0  0  0  0  0  0  0  0
    5.9708  -13.4885   26.6314 C   0  0  0  0  0  0  0  0  0  0  0  0
    5.6751  -12.2967   27.2768 C   0  0  0  0  0  0  0  0  0  0  0  0
    6.2882  -11.1349   26.8579 C   0  0  0  0  0  0  0  0  0  0  0  0
    7.1923  -11.1363   25.8062 C   0  0  0  0  0  0  0  0  0  0  0  0
    7.4455  -12.3453   25.2047 C   0  0  0  0  0  0  0  0  0  0  0  0
    6.8599  -13.5385   25.5826 C   0  0  0  0  0  0  0  0  0  0  0  0
    9.9229  -15.9102   25.2412 O   0  0  0  0  0  0  0  0  0  0  0  0
   10.2525  -17.1304   24.9908 N   0  0  0  0  0  0  0  0  0  0  0  0
   10.2113  -15.4253   26.5479 C   0  0  0  0  0  0  0  0  0  0  0  0
    9.8140  -14.2395   27.2228 C   0  0  0  0  0  0  0  0  0  0  0  0
    9.8148  -14.6361   28.7030 C   0  0  0  0  0  0  0  0  0  0  0  0
   11.1791  -15.3475   28.7343 C   0  0  1  0  0  0  0  0  0  0  0  0
   11.0879  -16.1703   27.4687 C   0  0  0  0  0  0  0  0  0  0  0  0
   10.5917  -17.5295   27.7288 O   0  0  0  0  0  0  0  0  0  0  0  0
    9.3990  -17.9503   27.1925 O   0  0  0  0  0  0  0  0  0  0  0  0
  2  1  1  0
  3  2  2  0
  4  2  1  0
  5  4  1  0
  6  5  1  0
  7  6  1  0
  8  9  1  6
  8  7  1  0
 10  8  1  0
 10 11  2  0
 12 10  1  0
 13 12  1  0
 13 14  1  1
 14 15  1  0
 15 16  2  0
 16 17  1  0
 18 17  1  0
 19 18  2  0
 20 19  1  0
 21 22  1  0
 21 20  2  0
 22 23  2  0
 23 15  1  0
 23 18  1  0
 24 13  1  0
 25 24  2  0
 26 27  1  0
 26 24  1  0
 28 27  1  0
 29 28  1  0
 30 29  1  0
 30 26  1  0
 30 31  1  1
 31 32  1  0
 33 31  2  0
M  END
$$$$
