RWP.pdb
     RDKit          3D

 33 35  0  0  1  0  0  0  0  0999 V2000
   16.3866  -19.0453   21.6052 N   0  0  0  0  0  0  0  0  0  0  0  0
   15.2401  -19.3636   20.8411 C   0  0  0  0  0  0  0  0  0  0  0  0
   15.4066  -19.9281   19.6949 N   0  0  0  0  0  0  0  0  0  0  0  0
   13.9152  -19.0836   21.2912 N   0  0  0  0  0  0  0  0  0  0  0  0
   12.9456  -18.4542   20.4221 C   0  0  0  0  0  0  0  0  0  0  0  0
   12.8579  -17.0056   20.8207 C   0  0  0  0  0  0  0  0  0  0  0  0
   12.0072  -16.1753   19.9193 C   0  0  0  0  0  0  0  0  0  0  0  0
   10.5241  -16.3509   20.1508 C   0  0  2  0  0  0  0  0  0  0  0  0
    9.8108  -15.8107   19.0381 N   0  0  0  0  0  0  0  0  0  0  0  0
   10.1908  -15.6497   21.4334 C   0  0  0  0  0  0  0  0  0  0  0  0
   10.4833  -14.4304   21.5378 O   0  0  0  0  0  0  0  0  0  0  0  0
   14.6181  -20.1127   19.0662 N   0  0  0  0  0  0  0  0  0  0  0  0
    9.5616  -16.3461   22.4998 C   0  0  1  0  0  0  0  0  0  0  0  0
    9.1452  -15.6690   23.7061 C   0  0  0  0  0  0  0  0  0  0  0  0
    7.6392  -15.4996   23.6877 C   0  0  0  0  0  0  0  0  0  0  0  0
    7.0392  -14.8847   24.8651 C   0  0  0  0  0  0  0  0  0  0  0  0
    6.3878  -15.5237   25.9326 N   0  0  0  0  0  0  0  0  0  0  0  0
    5.9567  -14.5895   26.7842 C   0  0  0  0  0  0  0  0  0  0  0  0
    6.2761  -13.3627   26.3599 C   0  0  0  0  0  0  0  0  0  0  0  0
    6.0621  -12.1027   26.8994 C   0  0  0  0  0  0  0  0  0  0  0  0
    6.5353  -10.9947   26.2288 C   0  0  0  0  0  0  0  0  0  0  0  0
    7.2191  -11.1168   25.0284 C   0  0  0  0  0  0  0  0  0  0  0  0
    7.4005  -12.3888   24.5421 C   0  0  0  0  0  0  0  0  0  0  0  0
    6.9477  -13.5327   25.1712 C   0  0  0  0  0  0  0  0  0  0  0  0
    9.7284  -16.1128   24.9518 O   0  0  0  0  0  0  0  0  0  0  0  0
    9.9210  -17.3813   25.0706 N   0  0  0  0  0  0  0  0  0  0  0  0
   10.1116  -15.3017   26.0568 C   0  0  0  0  0  0  0  0  0  0  0  0
   10.0417  -13.8979   26.2653 C   0  0  0  0  0  0  0  0  0  0  0  0
    9.9025  -13.7540   27.7846 C   0  0  0  0  0  0  0  0  0  0  0  0
   11.0176  -14.7316   28.1962 C   0  0  1  0  0  0  0  0  0  0  0  0
   10.7302  -15.8844   27.2607 C   0  0  0  0  0  0  0  0  0  0  0  0
    9.8740  -16.9025   27.8865 O   0  0  0  0  0  0  0  0  0  0  0  0
   10.3144  -17.6062   28.9811 O   0  0  0  0  0  0  0  0  0  0  0  0
  2  1  1  0
  3  2  2  0
  4  2  1  0
  5  4  1  0
  6  5  1  0
  7  6  1  0
  8  9  1  6
  8  7  1  0
 10  8  1  0
 10 11  2  0
 12 10  1  0
 13 12  1  0
 13 14  1  1
 14 15  1  0
 15 16  2  0
 16 17  1  0
 18 17  1  0
 19 18  2  0
 20 19  1  0
 21 22  1  0
 21 20  2  0
 22 23  2  0
 23 15  1  0
 23 18  1  0
 24 13  1  0
 25 24  2  0
 26 27  1  0
 26 24  1  0
 28 27  1  0
 29 28  1  0
 30 29  1  0
 30 26  1  0
 30 31  1  1
 31 32  1  0
 33 31  2  0
M  END
$$$$
