RWP.pdb
     RDKit          3D

 33 35  0  0  1  0  0  0  0  0999 V2000
   11.5808  -23.4073   19.2095 N   0  0  0  0  0  0  0  0  0  0  0  0
   10.9416  -23.5242   20.4654 C   0  0  0  0  0  0  0  0  0  0  0  0
   10.6559  -24.7036   20.8987 N   0  0  0  0  0  0  0  0  0  0  0  0
   10.6041  -22.3906   21.2638 N   0  0  0  0  0  0  0  0  0  0  0  0
   10.5606  -21.0607   20.6971 C   0  0  0  0  0  0  0  0  0  0  0  0
   11.8314  -20.3601   21.0962 C   0  0  0  0  0  0  0  0  0  0  0  0
   11.6231  -19.1722   21.9744 C   0  0  0  0  0  0  0  0  0  0  0  0
   10.9064  -18.0298   21.2923 C   0  0  2  0  0  0  0  0  0  0  0  0
   11.7113  -17.5511   20.2145 N   0  0  0  0  0  0  0  0  0  0  0  0
   10.6643  -16.9765   22.3313 C   0  0  0  0  0  0  0  0  0  0  0  0
   11.6306  -16.2483   22.6764 O   0  0  0  0  0  0  0  0  0  0  0  0
   10.1543  -24.8458   21.7815 N   0  0  0  0  0  0  0  0  0  0  0  0
    9.3771  -16.8078   22.9084 C   0  0  2  0  0  0  0  0  0  0  0  0
    9.1186  -15.7896   23.9001 C   0  0  0  0  0  0  0  0  0  0  0  0
    7.8131  -15.0936   23.5707 C   0  0  0  0  0  0  0  0  0  0  0  0
    7.6299  -13.7581   24.1252 C   0  0  0  0  0  0  0  0  0  0  0  0
    8.1938  -12.5538   23.6739 N   0  0  0  0  0  0  0  0  0  0  0  0
    7.7952  -11.5707   24.4854 C   0  0  0  0  0  0  0  0  0  0  0  0
    6.9987  -12.0347   25.4536 C   0  0  0  0  0  0  0  0  0  0  0  0
    6.3392  -11.4080   26.5008 C   0  0  0  0  0  0  0  0  0  0  0  0
    5.5533  -12.1610   27.3474 C   0  0  0  0  0  0  0  0  0  0  0  0
    5.4108  -13.5292   27.1715 C   0  0  0  0  0  0  0  0  0  0  0  0
    6.0879  -14.0952   26.1185 C   0  0  0  0  0  0  0  0  0  0  0  0
    6.8885  -13.3895   25.2407 C   0  0  0  0  0  0  0  0  0  0  0  0
    9.3282  -16.1436   25.2856 O   0  0  0  0  0  0  0  0  0  0  0  0
    8.8594  -17.2841   25.6593 N   0  0  0  0  0  0  0  0  0  0  0  0
    9.9949  -15.3704   26.2773 C   0  0  0  0  0  0  0  0  0  0  0  0
   10.3317  -13.9908   26.3288 C   0  0  0  0  0  0  0  0  0  0  0  0
   10.3403  -13.6658   27.8263 C   0  0  0  0  0  0  0  0  0  0  0  0
   11.1651  -14.8740   28.3039 C   0  0  1  0  0  0  0  0  0  0  0  0
   10.5068  -15.9839   27.5155 C   0  0  0  0  0  0  0  0  0  0  0  0
    9.4456  -16.6516   28.2832 O   0  0  0  0  0  0  0  0  0  0  0  0
    9.7506  -17.3726   29.4121 O   0  0  0  0  0  0  0  0  0  0  0  0
  2  1  1  0
  3  2  2  0
  4  2  1  0
  5  4  1  0
  6  5  1  0
  7  6  1  0
  8  9  1  6
  8  7  1  0
 10  8  1  0
 10 11  2  0
 12 10  1  0
 13 12  1  0
 13 14  1  6
 14 15  1  0
 15 16  2  0
 16 17  1  0
 18 17  1  0
 19 18  2  0
 20 19  1  0
 21 22  1  0
 21 20  2  0
 22 23  2  0
 23 15  1  0
 23 18  1  0
 24 13  1  0
 25 24  2  0
 26 27  1  0
 26 24  1  0
 28 27  1  0
 29 28  1  0
 30 29  1  0
 30 26  1  0
 30 31  1  1
 31 32  1  0
 33 31  2  0
M  END
$$$$
