RWP.pdb
     RDKit          3D

 33 35  0  0  1  0  0  0  0  0999 V2000
    9.1428  -22.8370   16.4002 N   0  0  0  0  0  0  0  0  0  0  0  0
    8.0709  -21.9175   16.3286 C   0  0  0  0  0  0  0  0  0  0  0  0
    7.9544  -21.1956   15.2677 N   0  0  0  0  0  0  0  0  0  0  0  0
    7.1209  -21.7619   17.3820 N   0  0  0  0  0  0  0  0  0  0  0  0
    7.4984  -21.1830   18.6525 C   0  0  0  0  0  0  0  0  0  0  0  0
    7.6305  -19.6978   18.4484 C   0  0  0  0  0  0  0  0  0  0  0  0
    8.0327  -18.9472   19.6734 C   0  0  0  0  0  0  0  0  0  0  0  0
    7.9841  -17.4456   19.5098 C   0  0  2  0  0  0  0  0  0  0  0  0
    8.7063  -17.0806   18.3333 N   0  0  0  0  0  0  0  0  0  0  0  0
    8.5779  -16.8464   20.7492 C   0  0  0  0  0  0  0  0  0  0  0  0
    9.8215  -16.9386   20.9172 O   0  0  0  0  0  0  0  0  0  0  0  0
    7.2329  -20.4718   15.1857 N   0  0  0  0  0  0  0  0  0  0  0  0
    7.7558  -16.1929   21.7058 C   0  0  1  0  0  0  0  0  0  0  0  0
    8.3082  -15.6036   22.9036 C   0  0  0  0  0  0  0  0  0  0  0  0
    7.4657  -14.4095   23.3054 C   0  0  0  0  0  0  0  0  0  0  0  0
    7.9071  -13.6674   24.4797 C   0  0  0  0  0  0  0  0  0  0  0  0
    9.2110  -13.2531   24.7964 N   0  0  0  0  0  0  0  0  0  0  0  0
    9.1815  -12.6330   25.9789 C   0  0  0  0  0  0  0  0  0  0  0  0
    7.9420  -12.6021   26.4790 C   0  0  0  0  0  0  0  0  0  0  0  0
    7.4191  -12.0653   27.6464 C   0  0  0  0  0  0  0  0  0  0  0  0
    6.0660  -12.1725   27.8887 C   0  0  0  0  0  0  0  0  0  0  0  0
    5.2210  -12.8054   26.9894 C   0  0  0  0  0  0  0  0  0  0  0  0
    5.7949  -13.3183   25.8514 C   0  0  0  0  0  0  0  0  0  0  0  0
    7.1430  -13.2400   25.5584 C   0  0  0  0  0  0  0  0  0  0  0  0
    8.7003  -16.5019   23.9656 O   0  0  0  0  0  0  0  0  0  0  0  0
    7.7587  -17.2058   24.4931 N   0  0  0  0  0  0  0  0  0  0  0  0
   10.0103  -16.6920   24.4888 C   0  0  0  0  0  0  0  0  0  0  0  0
   11.2268  -15.9933   24.2622 C   0  0  0  0  0  0  0  0  0  0  0  0
   12.0091  -16.1759   25.5671 C   0  0  0  0  0  0  0  0  0  0  0  0
   11.7887  -17.6892   25.7401 C   0  0  1  0  0  0  0  0  0  0  0  0
   10.3130  -17.7887   25.4253 C   0  0  0  0  0  0  0  0  0  0  0  0
    9.4847  -17.7264   26.6383 O   0  0  0  0  0  0  0  0  0  0  0  0
    9.5656  -18.7150   27.5888 O   0  0  0  0  0  0  0  0  0  0  0  0
  2  1  1  0
  3  2  2  0
  4  2  1  0
  5  4  1  0
  6  5  1  0
  7  6  1  0
  8  9  1  6
  8  7  1  0
 10  8  1  0
 10 11  2  0
 12 10  1  0
 13 12  1  0
 13 14  1  6
 14 15  1  0
 15 16  2  0
 16 17  1  0
 18 17  1  0
 19 18  2  0
 20 19  1  0
 21 22  1  0
 21 20  2  0
 22 23  2  0
 23 15  1  0
 23 18  1  0
 24 13  1  0
 25 24  2  0
 26 27  1  0
 26 24  1  0
 28 27  1  0
 29 28  1  0
 30 29  1  0
 30 26  1  0
 30 31  1  1
 31 32  1  0
 33 31  2  0
M  END
$$$$
