RWP.pdb
     RDKit          3D

 33 35  0  0  1  0  0  0  0  0999 V2000
    7.3440  -13.0775   19.0840 N   0  0  0  0  0  0  0  0  0  0  0  0
    8.2920  -13.4901   18.1194 C   0  0  0  0  0  0  0  0  0  0  0  0
    8.9851  -12.5858   17.5175 N   0  0  0  0  0  0  0  0  0  0  0  0
    8.5065  -14.8621   17.7912 N   0  0  0  0  0  0  0  0  0  0  0  0
    9.0402  -15.7908   18.7630 C   0  0  0  0  0  0  0  0  0  0  0  0
    9.8679  -14.9962   19.7369 C   0  0  0  0  0  0  0  0  0  0  0  0
   10.5891  -15.8271   20.7445 C   0  0  0  0  0  0  0  0  0  0  0  0
    9.6771  -16.6882   21.5876 C   0  0  2  0  0  0  0  0  0  0  0  0
    8.3774  -16.7093   20.9967 N   0  0  0  0  0  0  0  0  0  0  0  0
    9.6643  -16.1004   22.9666 C   0  0  0  0  0  0  0  0  0  0  0  0
    9.9393  -14.8793   23.0951 O   0  0  0  0  0  0  0  0  0  0  0  0
    9.6398  -12.8217   16.7645 N   0  0  0  0  0  0  0  0  0  0  0  0
    9.3496  -16.9033   24.0956 C   0  0  1  0  0  0  0  0  0  0  0  0
    9.3037  -16.3507   25.4296 C   0  0  0  0  0  0  0  0  0  0  0  0
    7.9034  -16.5104   25.9871 C   0  0  0  0  0  0  0  0  0  0  0  0
    6.9282  -15.5003   25.5959 C   0  0  0  0  0  0  0  0  0  0  0  0
    5.7070  -15.6948   24.9305 N   0  0  0  0  0  0  0  0  0  0  0  0
    5.1383  -14.5023   24.7344 C   0  0  0  0  0  0  0  0  0  0  0  0
    5.8972  -13.5171   25.2252 C   0  0  0  0  0  0  0  0  0  0  0  0
    5.7252  -12.1415   25.2737 C   0  0  0  0  0  0  0  0  0  0  0  0
    6.6915  -11.3637   25.8757 C   0  0  0  0  0  0  0  0  0  0  0  0
    7.8287  -11.9300   26.4319 C   0  0  0  0  0  0  0  0  0  0  0  0
    7.9454  -13.2967   26.3536 C   0  0  0  0  0  0  0  0  0  0  0  0
    7.0094  -14.1234   25.7621 C   0  0  0  0  0  0  0  0  0  0  0  0
   10.3932  -16.6770   26.3214 O   0  0  0  0  0  0  0  0  0  0  0  0
   11.0152  -17.7796   26.0812 N   0  0  0  0  0  0  0  0  0  0  0  0
   10.8511  -15.9136   27.4320 C   0  0  0  0  0  0  0  0  0  0  0  0
   10.5192  -14.6061   27.8787 C   0  0  0  0  0  0  0  0  0  0  0  0
   10.7440  -14.6624   29.3934 C   0  0  0  0  0  0  0  0  0  0  0  0
   12.1194  -15.3526   29.3813 C   0  0  1  0  0  0  0  0  0  0  0  0
   11.8726  -16.4367   28.3563 C   0  0  0  0  0  0  0  0  0  0  0  0
   11.4598  -17.7023   28.9801 O   0  0  0  0  0  0  0  0  0  0  0  0
   12.3618  -18.4547   29.6927 O   0  0  0  0  0  0  0  0  0  0  0  0
  2  1  1  0
  3  2  2  0
  4  2  1  0
  5  4  1  0
  6  5  1  0
  7  6  1  0
  8  9  1  6
  8  7  1  0
 10  8  1  0
 10 11  2  0
 12 10  1  0
 13 12  1  0
 13 14  1  1
 14 15  1  0
 15 16  2  0
 16 17  1  0
 18 17  1  0
 19 18  2  0
 20 19  1  0
 21 22  1  0
 21 20  2  0
 22 23  2  0
 23 15  1  0
 23 18  1  0
 24 13  1  0
 25 24  2  0
 26 27  1  0
 26 24  1  0
 28 27  1  0
 29 28  1  0
 30 29  1  0
 30 26  1  0
 30 31  1  1
 31 32  1  0
 33 31  2  0
M  END
$$$$
