RWP.pdb
     RDKit          3D

 33 35  0  0  1  0  0  0  0  0999 V2000
    9.3638  -14.8990   13.6147 N   0  0  0  0  0  0  0  0  0  0  0  0
    8.0460  -15.4023   13.5169 C   0  0  0  0  0  0  0  0  0  0  0  0
    7.7011  -16.0065   12.4323 N   0  0  0  0  0  0  0  0  0  0  0  0
    7.0917  -15.2657   14.5690 N   0  0  0  0  0  0  0  0  0  0  0  0
    7.4604  -14.6963   15.8464 C   0  0  0  0  0  0  0  0  0  0  0  0
    8.5899  -15.5238   16.3983 C   0  0  0  0  0  0  0  0  0  0  0  0
    9.1327  -15.0266   17.6960 C   0  0  0  0  0  0  0  0  0  0  0  0
    8.1206  -14.2769   18.5312 C   0  0  2  0  0  0  0  0  0  0  0  0
    8.0517  -12.9246   18.0782 N   0  0  0  0  0  0  0  0  0  0  0  0
    8.5663  -14.3752   19.9593 C   0  0  0  0  0  0  0  0  0  0  0  0
    9.6727  -13.8649   20.2734 O   0  0  0  0  0  0  0  0  0  0  0  0
    6.7739  -16.4303   12.3237 N   0  0  0  0  0  0  0  0  0  0  0  0
    7.7585  -15.0274   20.9290 C   0  0  2  0  0  0  0  0  0  0  0  0
    8.0891  -14.9974   22.3350 C   0  0  0  0  0  0  0  0  0  0  0  0
    6.8807  -14.5293   23.1210 C   0  0  0  0  0  0  0  0  0  0  0  0
    7.0018  -14.5487   24.5734 C   0  0  0  0  0  0  0  0  0  0  0  0
    6.9337  -15.6608   25.4281 N   0  0  0  0  0  0  0  0  0  0  0  0
    7.0587  -15.2337   26.6874 C   0  0  0  0  0  0  0  0  0  0  0  0
    7.2073  -13.9060   26.7362 C   0  0  0  0  0  0  0  0  0  0  0  0
    7.3850  -13.0244   27.7924 C   0  0  0  0  0  0  0  0  0  0  0  0
    7.5333  -11.6793   27.5279 C   0  0  0  0  0  0  0  0  0  0  0  0
    7.5079  -11.1934   26.2293 C   0  0  0  0  0  0  0  0  0  0  0  0
    7.3281  -12.1126   25.2242 C   0  0  0  0  0  0  0  0  0  0  0  0
    7.1739  -13.4701   25.4317 C   0  0  0  0  0  0  0  0  0  0  0  0
    8.8079  -16.1301   22.8725 O   0  0  0  0  0  0  0  0  0  0  0  0
    8.2984  -17.2906   22.6400 N   0  0  0  0  0  0  0  0  0  0  0  0
   10.0140  -16.1012   23.6279 C   0  0  0  0  0  0  0  0  0  0  0  0
   10.8268  -15.0210   24.0657 C   0  0  0  0  0  0  0  0  0  0  0  0
   11.4797  -15.5435   25.3498 C   0  0  0  0  0  0  0  0  0  0  0  0
   11.9166  -16.9221   24.8234 C   0  0  1  0  0  0  0  0  0  0  0  0
   10.6661  -17.3416   24.0837 C   0  0  0  0  0  0  0  0  0  0  0  0
    9.7774  -18.1595   24.9218 O   0  0  0  0  0  0  0  0  0  0  0  0
   10.1675  -19.4092   25.3381 O   0  0  0  0  0  0  0  0  0  0  0  0
  2  1  1  0
  3  2  2  0
  4  2  1  0
  5  4  1  0
  6  5  1  0
  7  6  1  0
  8  9  1  6
  8  7  1  0
 10  8  1  0
 10 11  2  0
 12 10  1  0
 13 12  1  0
 13 14  1  6
 14 15  1  0
 15 16  2  0
 16 17  1  0
 18 17  1  0
 19 18  2  0
 20 19  1  0
 21 22  1  0
 21 20  2  0
 22 23  2  0
 23 15  1  0
 23 18  1  0
 24 13  1  0
 25 24  2  0
 26 27  1  0
 26 24  1  0
 28 27  1  0
 29 28  1  0
 30 29  1  0
 30 26  1  0
 30 31  1  1
 31 32  1  0
 33 31  2  0
M  END
$$$$
