RWP.pdb
     RDKit          3D

 33 35  0  0  1  0  0  0  0  0999 V2000
    8.2533  -12.6096   17.0449 N   0  0  0  0  0  0  0  0  0  0  0  0
    8.6501  -13.9649   17.1174 C   0  0  0  0  0  0  0  0  0  0  0  0
    8.3651  -14.7392   16.1277 N   0  0  0  0  0  0  0  0  0  0  0  0
    9.3495  -14.5014   18.2395 N   0  0  0  0  0  0  0  0  0  0  0  0
    9.1032  -14.0147   19.5791 C   0  0  0  0  0  0  0  0  0  0  0  0
    7.7047  -14.4238   19.9560 C   0  0  0  0  0  0  0  0  0  0  0  0
    7.6346  -15.6569   20.7929 C   0  0  0  0  0  0  0  0  0  0  0  0
    8.9699  -16.0871   21.3549 C   0  0  2  0  0  0  0  0  0  0  0  0
    9.0750  -17.5087   21.2720 N   0  0  0  0  0  0  0  0  0  0  0  0
    9.0335  -15.5947   22.7695 C   0  0  0  0  0  0  0  0  0  0  0  0
    9.0551  -14.3521   22.9662 O   0  0  0  0  0  0  0  0  0  0  0  0
    8.7491  -15.6873   16.0581 N   0  0  0  0  0  0  0  0  0  0  0  0
    9.0681  -16.5092   23.8561 C   0  0  1  0  0  0  0  0  0  0  0  0
    9.0889  -16.0561   25.2277 C   0  0  0  0  0  0  0  0  0  0  0  0
    7.7452  -16.3432   25.8675 C   0  0  0  0  0  0  0  0  0  0  0  0
    6.7427  -15.2891   25.7763 C   0  0  0  0  0  0  0  0  0  0  0  0
    5.3942  -15.4134   25.4045 N   0  0  0  0  0  0  0  0  0  0  0  0
    4.8387  -14.1988   25.4184 C   0  0  0  0  0  0  0  0  0  0  0  0
    5.7255  -13.2646   25.7762 C   0  0  0  0  0  0  0  0  0  0  0  0
    5.6188  -11.8919   25.9457 C   0  0  0  0  0  0  0  0  0  0  0  0
    6.7257  -11.1762   26.3505 C   0  0  0  0  0  0  0  0  0  0  0  0
    7.9399  -11.8019   26.5905 C   0  0  0  0  0  0  0  0  0  0  0  0
    7.9862  -13.1625   26.4055 C   0  0  0  0  0  0  0  0  0  0  0  0
    6.9095  -13.9283   26.0009 C   0  0  0  0  0  0  0  0  0  0  0  0
   10.2584  -16.3750   26.0148 O   0  0  0  0  0  0  0  0  0  0  0  0
   10.9697  -17.3668   25.6019 N   0  0  0  0  0  0  0  0  0  0  0  0
   10.7068  -15.7129   27.1922 C   0  0  0  0  0  0  0  0  0  0  0  0
   10.2798  -14.5113   27.8192 C   0  0  0  0  0  0  0  0  0  0  0  0
   10.5979  -14.7321   29.3019 C   0  0  0  0  0  0  0  0  0  0  0  0
   12.0292  -15.2728   29.1366 C   0  0  1  0  0  0  0  0  0  0  0  0
   11.8259  -16.2407   27.9926 C   0  0  0  0  0  0  0  0  0  0  0  0
   11.5720  -17.6091   28.4661 O   0  0  0  0  0  0  0  0  0  0  0  0
   10.3244  -18.1701   28.3392 O   0  0  0  0  0  0  0  0  0  0  0  0
  2  1  1  0
  3  2  2  0
  4  2  1  0
  5  4  1  0
  6  5  1  0
  7  6  1  0
  8  9  1  1
  8  7  1  0
 10  8  1  0
 10 11  2  0
 12 10  1  0
 13 12  1  0
 13 14  1  1
 14 15  1  0
 15 16  2  0
 16 17  1  0
 18 17  1  0
 19 18  2  0
 20 19  1  0
 21 22  1  0
 21 20  2  0
 22 23  2  0
 23 15  1  0
 23 18  1  0
 24 13  1  0
 25 24  2  0
 26 27  1  0
 26 24  1  0
 28 27  1  0
 29 28  1  0
 30 29  1  0
 30 26  1  0
 30 31  1  1
 31 32  1  0
 33 31  2  0
M  END
$$$$
