RWP.pdb
     RDKit          3D

 33 35  0  0  1  0  0  0  0  0999 V2000
   14.1353  -21.2692   21.0325 N   0  0  0  0  0  0  0  0  0  0  0  0
   13.4817  -21.1732   19.7822 C   0  0  0  0  0  0  0  0  0  0  0  0
   14.1038  -21.5898   18.7335 N   0  0  0  0  0  0  0  0  0  0  0  0
   12.1675  -20.6351   19.6419 N   0  0  0  0  0  0  0  0  0  0  0  0
   11.7742  -19.4272   20.3334 C   0  0  0  0  0  0  0  0  0  0  0  0
   12.8602  -18.4089   20.1127 C   0  0  0  0  0  0  0  0  0  0  0  0
   12.6178  -17.1021   20.7904 C   0  0  0  0  0  0  0  0  0  0  0  0
   11.2409  -16.5325   20.5382 C   0  0  2  0  0  0  0  0  0  0  0  0
   11.3083  -15.6147   19.4465 N   0  0  0  0  0  0  0  0  0  0  0  0
   10.7962  -15.8721   21.8085 C   0  0  0  0  0  0  0  0  0  0  0  0
   11.5083  -14.9474   22.2788 O   0  0  0  0  0  0  0  0  0  0  0  0
   13.7018  -21.4930   17.7953 N   0  0  0  0  0  0  0  0  0  0  0  0
    9.6025  -16.2816   22.4608 C   0  0  2  0  0  0  0  0  0  0  0  0
    9.1417  -15.6407   23.6707 C   0  0  0  0  0  0  0  0  0  0  0  0
    7.6359  -15.4806   23.6072 C   0  0  0  0  0  0  0  0  0  0  0  0
    6.9898  -14.9277   24.7910 C   0  0  0  0  0  0  0  0  0  0  0  0
    6.2619  -15.6159   25.7751 N   0  0  0  0  0  0  0  0  0  0  0  0
    5.8118  -14.7281   26.6656 C   0  0  0  0  0  0  0  0  0  0  0  0
    6.1900  -13.4864   26.3454 C   0  0  0  0  0  0  0  0  0  0  0  0
    5.9835  -12.2596   26.9592 C   0  0  0  0  0  0  0  0  0  0  0  0
    6.5253  -11.1249   26.3936 C   0  0  0  0  0  0  0  0  0  0  0  0
    7.2707  -11.1876   25.2258 C   0  0  0  0  0  0  0  0  0  0  0  0
    7.4415  -12.4289   24.6623 C   0  0  0  0  0  0  0  0  0  0  0  0
    6.9212  -13.5974   25.1852 C   0  0  0  0  0  0  0  0  0  0  0  0
    9.6869  -16.1148   24.9224 O   0  0  0  0  0  0  0  0  0  0  0  0
    9.9077  -17.3816   25.0042 N   0  0  0  0  0  0  0  0  0  0  0  0
   10.0052  -15.3350   26.0698 C   0  0  0  0  0  0  0  0  0  0  0  0
    9.8774  -13.9438   26.3297 C   0  0  0  0  0  0  0  0  0  0  0  0
    9.6853  -13.8653   27.8480 C   0  0  0  0  0  0  0  0  0  0  0  0
   10.8219  -14.8183   28.2582 C   0  0  1  0  0  0  0  0  0  0  0  0
   10.6064  -15.9427   27.2702 C   0  0  0  0  0  0  0  0  0  0  0  0
    9.7688  -17.0144   27.8279 O   0  0  0  0  0  0  0  0  0  0  0  0
   10.2071  -17.7558   28.8982 O   0  0  0  0  0  0  0  0  0  0  0  0
  2  1  1  0
  3  2  2  0
  4  2  1  0
  5  4  1  0
  6  5  1  0
  7  6  1  0
  8  9  1  6
  8  7  1  0
 10  8  1  0
 10 11  2  0
 12 10  1  0
 13 12  1  0
 13 14  1  6
 14 15  1  0
 15 16  2  0
 16 17  1  0
 18 17  1  0
 19 18  2  0
 20 19  1  0
 21 22  1  0
 21 20  2  0
 22 23  2  0
 23 15  1  0
 23 18  1  0
 24 13  1  0
 25 24  2  0
 26 27  1  0
 26 24  1  0
 28 27  1  0
 29 28  1  0
 30 29  1  0
 30 26  1  0
 30 31  1  1
 31 32  1  0
 33 31  2  0
M  END
$$$$
