RWP.pdb
     RDKit          3D

 33 35  0  0  1  0  0  0  0  0999 V2000
    7.5878  -13.8960   16.1311 N   0  0  0  0  0  0  0  0  0  0  0  0
    8.9335  -14.2626   15.8982 C   0  0  0  0  0  0  0  0  0  0  0  0
    9.4602  -13.9650   14.7604 N   0  0  0  0  0  0  0  0  0  0  0  0
    9.7229  -14.9456   16.8712 N   0  0  0  0  0  0  0  0  0  0  0  0
    9.1222  -15.5204   18.0546 C   0  0  0  0  0  0  0  0  0  0  0  0
    8.5149  -14.3920   18.8439 C   0  0  0  0  0  0  0  0  0  0  0  0
    9.2507  -14.0600   20.0985 C   0  0  0  0  0  0  0  0  0  0  0  0
    9.7596  -15.2722   20.8438 C   0  0  2  0  0  0  0  0  0  0  0  0
    9.0119  -16.4184   20.4365 N   0  0  0  0  0  0  0  0  0  0  0  0
    9.6085  -14.9866   22.3078 C   0  0  0  0  0  0  0  0  0  0  0  0
   10.0390  -13.8890   22.7471 O   0  0  0  0  0  0  0  0  0  0  0  0
   10.4234  -14.2281   14.5279 N   0  0  0  0  0  0  0  0  0  0  0  0
    8.9952  -15.9321   23.1727 C   0  0  1  0  0  0  0  0  0  0  0  0
    8.8754  -15.6944   24.5927 C   0  0  0  0  0  0  0  0  0  0  0  0
    7.5052  -16.1437   25.0591 C   0  0  0  0  0  0  0  0  0  0  0  0
    6.5868  -15.0952   25.4854 C   0  0  0  0  0  0  0  0  0  0  0  0
    5.2514  -15.2354   25.8968 N   0  0  0  0  0  0  0  0  0  0  0  0
    4.7635  -14.0220   26.1676 C   0  0  0  0  0  0  0  0  0  0  0  0
    5.6839  -13.0736   25.9659 C   0  0  0  0  0  0  0  0  0  0  0  0
    5.6549  -11.6956   26.1230 C   0  0  0  0  0  0  0  0  0  0  0  0
    6.7911  -10.9636   25.8502 C   0  0  0  0  0  0  0  0  0  0  0  0
    7.9586  -11.5780   25.4229 C   0  0  0  0  0  0  0  0  0  0  0  0
    7.9281  -12.9446   25.2846 C   0  0  0  0  0  0  0  0  0  0  0  0
    6.8186  -13.7267   25.5431 C   0  0  0  0  0  0  0  0  0  0  0  0
    9.9949  -16.0707   25.4257 O   0  0  0  0  0  0  0  0  0  0  0  0
   10.7273  -17.0383   24.9926 N   0  0  0  0  0  0  0  0  0  0  0  0
   10.3738  -15.4887   26.6682 C   0  0  0  0  0  0  0  0  0  0  0  0
    9.8836  -14.3516   27.3653 C   0  0  0  0  0  0  0  0  0  0  0  0
   10.1477  -14.6768   28.8394 C   0  0  0  0  0  0  0  0  0  0  0  0
   11.6011  -15.1621   28.6955 C   0  0  1  0  0  0  0  0  0  0  0  0
   11.4754  -16.0444   27.4738 C   0  0  0  0  0  0  0  0  0  0  0  0
   11.2459  -17.4519   27.8309 O   0  0  0  0  0  0  0  0  0  0  0  0
   12.2528  -18.2026   28.3876 O   0  0  0  0  0  0  0  0  0  0  0  0
  2  1  1  0
  3  2  2  0
  4  2  1  0
  5  4  1  0
  6  5  1  0
  7  6  1  0
  8  9  1  6
  8  7  1  0
 10  8  1  0
 10 11  2  0
 12 10  1  0
 13 12  1  0
 13 14  1  1
 14 15  1  0
 15 16  2  0
 16 17  1  0
 18 17  1  0
 19 18  2  0
 20 19  1  0
 21 22  1  0
 21 20  2  0
 22 23  2  0
 23 15  1  0
 23 18  1  0
 24 13  1  0
 25 24  2  0
 26 27  1  0
 26 24  1  0
 28 27  1  0
 29 28  1  0
 30 29  1  0
 30 26  1  0
 30 31  1  1
 31 32  1  0
 33 31  2  0
M  END
$$$$
