RWP.pdb
     RDKit          3D

 33 35  0  0  1  0  0  0  0  0999 V2000
    7.3103  -14.4164   18.1490 N   0  0  0  0  0  0  0  0  0  0  0  0
    8.4656  -13.6011   18.1326 C   0  0  0  0  0  0  0  0  0  0  0  0
    8.3525  -12.3888   17.7110 N   0  0  0  0  0  0  0  0  0  0  0  0
    9.7427  -14.0702   18.5630 N   0  0  0  0  0  0  0  0  0  0  0  0
   10.1654  -13.9369   19.9397 C   0  0  0  0  0  0  0  0  0  0  0  0
    9.0471  -14.4522   20.8052 C   0  0  0  0  0  0  0  0  0  0  0  0
    8.9298  -15.9393   20.8290 C   0  0  0  0  0  0  0  0  0  0  0  0
   10.0073  -16.6214   21.6401 C   0  0  2  0  0  0  0  0  0  0  0  0
    9.7849  -18.0317   21.6192 N   0  0  0  0  0  0  0  0  0  0  0  0
    9.9405  -16.0567   23.0273 C   0  0  0  0  0  0  0  0  0  0  0  0
   10.4266  -14.9136   23.2280 O   0  0  0  0  0  0  0  0  0  0  0  0
    9.1548  -11.7510   17.6848 N   0  0  0  0  0  0  0  0  0  0  0  0
    9.3436  -16.7950   24.0841 C   0  0  1  0  0  0  0  0  0  0  0  0
    9.2746  -16.2723   25.4291 C   0  0  0  0  0  0  0  0  0  0  0  0
    7.8404  -16.3357   25.9151 C   0  0  0  0  0  0  0  0  0  0  0  0
    6.9390  -15.3033   25.4189 C   0  0  0  0  0  0  0  0  0  0  0  0
    5.8706  -15.4529   24.5199 N   0  0  0  0  0  0  0  0  0  0  0  0
    5.3278  -14.2515   24.3056 C   0  0  0  0  0  0  0  0  0  0  0  0
    5.9610  -13.3025   25.0026 C   0  0  0  0  0  0  0  0  0  0  0  0
    5.7575  -11.9350   25.1168 C   0  0  0  0  0  0  0  0  0  0  0  0
    6.5770  -11.2002   25.9473 C   0  0  0  0  0  0  0  0  0  0  0  0
    7.5977  -11.8016   26.6682 C   0  0  0  0  0  0  0  0  0  0  0  0
    7.7524  -13.1581   26.5148 C   0  0  0  0  0  0  0  0  0  0  0  0
    6.9617  -13.9424   25.6969 C   0  0  0  0  0  0  0  0  0  0  0  0
   10.2906  -16.7036   26.3622 O   0  0  0  0  0  0  0  0  0  0  0  0
   10.7445  -17.8983   26.1979 N   0  0  0  0  0  0  0  0  0  0  0  0
   10.8416  -15.9527   27.4385 C   0  0  0  0  0  0  0  0  0  0  0  0
   10.7326  -14.5783   27.7824 C   0  0  0  0  0  0  0  0  0  0  0  0
   10.8965  -14.5621   29.3059 C   0  0  0  0  0  0  0  0  0  0  0  0
   12.1276  -15.4807   29.3996 C   0  0  1  0  0  0  0  0  0  0  0  0
   11.7249  -16.5771   28.4392 C   0  0  0  0  0  0  0  0  0  0  0  0
   11.0751  -17.7022   29.1271 O   0  0  0  0  0  0  0  0  0  0  0  0
   11.7916  -18.5030   29.9831 O   0  0  0  0  0  0  0  0  0  0  0  0
  2  1  1  0
  3  2  2  0
  4  2  1  0
  5  4  1  0
  6  5  1  0
  7  6  1  0
  8  9  1  1
  8  7  1  0
 10  8  1  0
 10 11  2  0
 12 10  1  0
 13 12  1  0
 13 14  1  1
 14 15  1  0
 15 16  2  0
 16 17  1  0
 18 17  1  0
 19 18  2  0
 20 19  1  0
 21 22  1  0
 21 20  2  0
 22 23  2  0
 23 15  1  0
 23 18  1  0
 24 13  1  0
 25 24  2  0
 26 27  1  0
 26 24  1  0
 28 27  1  0
 29 28  1  0
 30 29  1  0
 30 26  1  0
 30 31  1  1
 31 32  1  0
 33 31  2  0
M  END
$$$$
