RWP.pdb
     RDKit          3D

 33 35  0  0  1  0  0  0  0  0999 V2000
    9.7226  -22.4859   18.0331 N   0  0  0  0  0  0  0  0  0  0  0  0
   10.4002  -21.3131   18.4390 C   0  0  0  0  0  0  0  0  0  0  0  0
   11.2047  -20.7515   17.6036 N   0  0  0  0  0  0  0  0  0  0  0  0
   10.2262  -20.7339   19.7315 N   0  0  0  0  0  0  0  0  0  0  0  0
   11.2642  -20.8152   20.7353 C   0  0  0  0  0  0  0  0  0  0  0  0
   12.1872  -19.6454   20.5234 C   0  0  0  0  0  0  0  0  0  0  0  0
   12.0416  -18.5619   21.5385 C   0  0  0  0  0  0  0  0  0  0  0  0
   11.3733  -17.3154   21.0059 C   0  0  2  0  0  0  0  0  0  0  0  0
   12.2879  -16.6221   20.1565 N   0  0  0  0  0  0  0  0  0  0  0  0
   10.9636  -16.4929   22.1905 C   0  0  0  0  0  0  0  0  0  0  0  0
   11.7934  -15.6717   22.6598 O   0  0  0  0  0  0  0  0  0  0  0  0
   11.7873  -19.9517   17.8720 N   0  0  0  0  0  0  0  0  0  0  0  0
    9.6726  -16.6392   22.7649 C   0  0  1  0  0  0  0  0  0  0  0  0
    9.2524  -15.8464   23.8971 C   0  0  0  0  0  0  0  0  0  0  0  0
    7.7690  -15.5582   23.7804 C   0  0  0  0  0  0  0  0  0  0  0  0
    7.1621  -14.8157   24.8781 C   0  0  0  0  0  0  0  0  0  0  0  0
    6.5433  -15.3319   26.0281 N   0  0  0  0  0  0  0  0  0  0  0  0
    6.0913  -14.3096   26.7593 C   0  0  0  0  0  0  0  0  0  0  0  0
    6.3663  -13.1383   26.1765 C   0  0  0  0  0  0  0  0  0  0  0  0
    6.1174  -11.8266   26.5533 C   0  0  0  0  0  0  0  0  0  0  0  0
    6.5473  -10.8000   25.7392 C   0  0  0  0  0  0  0  0  0  0  0  0
    7.2217  -11.0543   24.5544 C   0  0  0  0  0  0  0  0  0  0  0  0
    7.4390  -12.3721   24.2325 C   0  0  0  0  0  0  0  0  0  0  0  0
    7.0302  -13.4390   25.0096 C   0  0  0  0  0  0  0  0  0  0  0  0
    9.7303  -16.2456   25.2014 O   0  0  0  0  0  0  0  0  0  0  0  0
    9.7470  -17.5120   25.4389 N   0  0  0  0  0  0  0  0  0  0  0  0
   10.1832  -15.3930   26.2472 C   0  0  0  0  0  0  0  0  0  0  0  0
   10.2223  -13.9770   26.3593 C   0  0  0  0  0  0  0  0  0  0  0  0
   10.1068  -13.7198   27.8655 C   0  0  0  0  0  0  0  0  0  0  0  0
   11.1472  -14.7497   28.3400 C   0  0  1  0  0  0  0  0  0  0  0  0
   10.7651  -15.9381   27.4865 C   0  0  0  0  0  0  0  0  0  0  0  0
    9.8388  -16.8426   28.1829 O   0  0  0  0  0  0  0  0  0  0  0  0
   10.2403  -17.5191   29.3091 O   0  0  0  0  0  0  0  0  0  0  0  0
  2  1  1  0
  3  2  2  0
  4  2  1  0
  5  4  1  0
  6  5  1  0
  7  6  1  0
  8  9  1  6
  8  7  1  0
 10  8  1  0
 10 11  2  0
 12 10  1  0
 13 12  1  0
 13 14  1  6
 14 15  1  0
 15 16  2  0
 16 17  1  0
 18 17  1  0
 19 18  2  0
 20 19  1  0
 21 22  1  0
 21 20  2  0
 22 23  2  0
 23 15  1  0
 23 18  1  0
 24 13  1  0
 25 24  2  0
 26 27  1  0
 26 24  1  0
 28 27  1  0
 29 28  1  0
 30 29  1  0
 30 26  1  0
 30 31  1  1
 31 32  1  0
 33 31  2  0
M  END
$$$$
