RWP.pdb
     RDKit          3D

 33 35  0  0  1  0  0  0  0  0999 V2000
   14.0639  -21.5516   17.3892 N   0  0  0  0  0  0  0  0  0  0  0  0
   12.9834  -21.6836   18.2917 C   0  0  0  0  0  0  0  0  0  0  0  0
   11.8561  -22.1116   17.8374 N   0  0  0  0  0  0  0  0  0  0  0  0
   13.0963  -21.3619   19.6774 N   0  0  0  0  0  0  0  0  0  0  0  0
   12.2138  -20.3983   20.2976 C   0  0  0  0  0  0  0  0  0  0  0  0
   12.5635  -19.0446   19.7405 C   0  0  0  0  0  0  0  0  0  0  0  0
   11.7493  -17.9263   20.2992 C   0  0  0  0  0  0  0  0  0  0  0  0
   10.7094  -18.3726   21.3010 C   0  0  2  0  0  0  0  0  0  0  0  0
    9.5205  -18.7466   20.6042 N   0  0  0  0  0  0  0  0  0  0  0  0
   10.4803  -17.2269   22.2404 C   0  0  0  0  0  0  0  0  0  0  0  0
   11.2554  -16.2381   22.1725 O   0  0  0  0  0  0  0  0  0  0  0  0
   11.0171  -22.1469   18.4257 N   0  0  0  0  0  0  0  0  0  0  0  0
    9.4157  -17.2602   23.1805 C   0  0  1  0  0  0  0  0  0  0  0  0
    9.1783  -16.1680   24.0958 C   0  0  0  0  0  0  0  0  0  0  0  0
    7.8412  -15.5307   23.7747 C   0  0  0  0  0  0  0  0  0  0  0  0
    7.6875  -14.1259   24.1315 C   0  0  0  0  0  0  0  0  0  0  0  0
    8.2599  -13.0097   23.5001 N   0  0  0  0  0  0  0  0  0  0  0  0
    7.8908  -11.9125   24.1662 C   0  0  0  0  0  0  0  0  0  0  0  0
    7.1062  -12.2172   25.2049 C   0  0  0  0  0  0  0  0  0  0  0  0
    6.4757  -11.4338   26.1604 C   0  0  0  0  0  0  0  0  0  0  0  0
    5.6954  -12.0422   27.1207 C   0  0  0  0  0  0  0  0  0  0  0  0
    5.5301  -13.4189   27.1485 C   0  0  0  0  0  0  0  0  0  0  0  0
    6.1790  -14.1434   26.1781 C   0  0  0  0  0  0  0  0  0  0  0  0
    6.9728  -13.5865   25.1936 C   0  0  0  0  0  0  0  0  0  0  0  0
    9.4624  -16.3995   25.4938 O   0  0  0  0  0  0  0  0  0  0  0  0
    9.1304  -17.5543   25.9590 N   0  0  0  0  0  0  0  0  0  0  0  0
   10.0678  -15.4920   26.4080 C   0  0  0  0  0  0  0  0  0  0  0  0
   10.3422  -14.1009   26.3137 C   0  0  0  0  0  0  0  0  0  0  0  0
   10.2965  -13.6135   27.7658 C   0  0  0  0  0  0  0  0  0  0  0  0
   11.1605  -14.7224   28.3921 C   0  0  1  0  0  0  0  0  0  0  0  0
   10.5728  -15.9414   27.7174 C   0  0  0  0  0  0  0  0  0  0  0  0
    9.5218  -16.5696   28.5311 O   0  0  0  0  0  0  0  0  0  0  0  0
    9.8305  -17.1613   29.7319 O   0  0  0  0  0  0  0  0  0  0  0  0
  2  1  1  0
  3  2  2  0
  4  2  1  0
  5  4  1  0
  6  5  1  0
  7  6  1  0
  8  9  1  6
  8  7  1  0
 10  8  1  0
 10 11  2  0
 12 10  1  0
 13 12  1  0
 13 14  1  6
 14 15  1  0
 15 16  2  0
 16 17  1  0
 18 17  1  0
 19 18  2  0
 20 19  1  0
 21 22  1  0
 21 20  2  0
 22 23  2  0
 23 15  1  0
 23 18  1  0
 24 13  1  0
 25 24  2  0
 26 27  1  0
 26 24  1  0
 28 27  1  0
 29 28  1  0
 30 29  1  0
 30 26  1  0
 30 31  1  1
 31 32  1  0
 33 31  2  0
M  END
$$$$
