RWP.pdb
     RDKit          3D

 33 35  0  0  1  0  0  0  0  0999 V2000
    8.6292  -15.7733   15.2852 N   0  0  0  0  0  0  0  0  0  0  0  0
    8.4926  -14.7364   16.2369 C   0  0  0  0  0  0  0  0  0  0  0  0
    8.5498  -13.5168   15.8249 N   0  0  0  0  0  0  0  0  0  0  0  0
    8.2953  -14.9909   17.6271 N   0  0  0  0  0  0  0  0  0  0  0  0
    9.2065  -15.8315   18.3720 C   0  0  0  0  0  0  0  0  0  0  0  0
   10.5761  -15.2171   18.2629 C   0  0  0  0  0  0  0  0  0  0  0  0
   11.1898  -14.8580   19.5744 C   0  0  0  0  0  0  0  0  0  0  0  0
   11.2095  -15.9961   20.5685 C   0  0  2  0  0  0  0  0  0  0  0  0
   10.3357  -17.0292   20.1125 N   0  0  0  0  0  0  0  0  0  0  0  0
   10.7831  -15.4348   21.8916 C   0  0  0  0  0  0  0  0  0  0  0  0
   11.3779  -14.4139   22.3240 O   0  0  0  0  0  0  0  0  0  0  0  0
    8.4692  -12.7257   16.4720 N   0  0  0  0  0  0  0  0  0  0  0  0
    9.7351  -16.0418   22.6344 C   0  0  1  0  0  0  0  0  0  0  0  0
    9.2756  -15.4890   23.8875 C   0  0  0  0  0  0  0  0  0  0  0  0
    7.7757  -15.2823   23.8206 C   0  0  0  0  0  0  0  0  0  0  0  0
    7.1303  -14.8011   25.0357 C   0  0  0  0  0  0  0  0  0  0  0  0
    6.3908  -15.5444   25.9699 N   0  0  0  0  0  0  0  0  0  0  0  0
    5.9462  -14.7119   26.9150 C   0  0  0  0  0  0  0  0  0  0  0  0
    6.3390  -13.4561   26.6783 C   0  0  0  0  0  0  0  0  0  0  0  0
    6.1428  -12.2701   27.3705 C   0  0  0  0  0  0  0  0  0  0  0  0
    6.6992  -11.1066   26.8824 C   0  0  0  0  0  0  0  0  0  0  0  0
    7.4489  -11.1008   25.7158 C   0  0  0  0  0  0  0  0  0  0  0  0
    7.6090  -12.3043   25.0728 C   0  0  0  0  0  0  0  0  0  0  0  0
    7.0741  -13.4988   25.5160 C   0  0  0  0  0  0  0  0  0  0  0  0
    9.7910  -16.0788   25.1022 O   0  0  0  0  0  0  0  0  0  0  0  0
    9.8943  -17.3631   25.1126 N   0  0  0  0  0  0  0  0  0  0  0  0
   10.1956  -15.3953   26.2833 C   0  0  0  0  0  0  0  0  0  0  0  0
   10.1463  -14.0210   26.6414 C   0  0  0  0  0  0  0  0  0  0  0  0
   10.0237  -14.0389   28.1687 C   0  0  0  0  0  0  0  0  0  0  0  0
   11.1296  -15.0683   28.4613 C   0  0  1  0  0  0  0  0  0  0  0  0
   10.8178  -16.1109   27.4112 C   0  0  0  0  0  0  0  0  0  0  0  0
    9.9542  -17.1796   27.9340 O   0  0  0  0  0  0  0  0  0  0  0  0
   10.4131  -18.0322   28.9086 O   0  0  0  0  0  0  0  0  0  0  0  0
  2  1  1  0
  3  2  2  0
  4  2  1  0
  5  4  1  0
  6  5  1  0
  7  6  1  0
  8  9  1  6
  8  7  1  0
 10  8  1  0
 10 11  2  0
 12 10  1  0
 13 12  1  0
 13 14  1  1
 14 15  1  0
 15 16  2  0
 16 17  1  0
 18 17  1  0
 19 18  2  0
 20 19  1  0
 21 22  1  0
 21 20  2  0
 22 23  2  0
 23 15  1  0
 23 18  1  0
 24 13  1  0
 25 24  2  0
 26 27  1  0
 26 24  1  0
 28 27  1  0
 29 28  1  0
 30 29  1  0
 30 26  1  0
 30 31  1  1
 31 32  1  0
 33 31  2  0
M  END
$$$$
