RWP.pdb
     RDKit          3D

 33 35  0  0  1  0  0  0  0  0999 V2000
    8.0280  -15.4682   17.4649 N   0  0  0  0  0  0  0  0  0  0  0  0
    8.5613  -14.2146   17.0863 C   0  0  0  0  0  0  0  0  0  0  0  0
    8.1430  -13.6773   15.9923 N   0  0  0  0  0  0  0  0  0  0  0  0
    9.5393  -13.5286   17.8668 N   0  0  0  0  0  0  0  0  0  0  0  0
    9.7036  -13.8074   19.2765 C   0  0  0  0  0  0  0  0  0  0  0  0
   10.1189  -15.2483   19.4044 C   0  0  0  0  0  0  0  0  0  0  0  0
   10.4521  -15.6656   20.7975 C   0  0  0  0  0  0  0  0  0  0  0  0
    9.3377  -16.4149   21.4908 C   0  0  2  0  0  0  0  0  0  0  0  0
    8.1328  -16.2580   20.7409 N   0  0  0  0  0  0  0  0  0  0  0  0
    9.2217  -15.8526   22.8757 C   0  0  0  0  0  0  0  0  0  0  0  0
    9.2039  -14.6017   23.0100 O   0  0  0  0  0  0  0  0  0  0  0  0
    8.4755  -12.7583   15.6825 N   0  0  0  0  0  0  0  0  0  0  0  0
    9.1343  -16.7119   24.0036 C   0  0  1  0  0  0  0  0  0  0  0  0
    9.0981  -16.1925   25.3512 C   0  0  0  0  0  0  0  0  0  0  0  0
    7.6990  -16.3559   25.9105 C   0  0  0  0  0  0  0  0  0  0  0  0
    6.7497  -15.2913   25.6101 C   0  0  0  0  0  0  0  0  0  0  0  0
    5.4403  -15.4188   25.1191 N   0  0  0  0  0  0  0  0  0  0  0  0
    4.9314  -14.1954   24.9512 C   0  0  0  0  0  0  0  0  0  0  0  0
    5.8130  -13.2522   25.2981 C   0  0  0  0  0  0  0  0  0  0  0  0
    5.7411  -11.8669   25.3131 C   0  0  0  0  0  0  0  0  0  0  0  0
    6.8289  -11.1417   25.7513 C   0  0  0  0  0  0  0  0  0  0  0  0
    7.9899  -11.7702   26.1760 C   0  0  0  0  0  0  0  0  0  0  0  0
    8.0037  -13.1435   26.1383 C   0  0  0  0  0  0  0  0  0  0  0  0
    6.9441  -13.9193   25.7085 C   0  0  0  0  0  0  0  0  0  0  0  0
   10.1888  -16.5492   26.2298 O   0  0  0  0  0  0  0  0  0  0  0  0
   10.8032  -17.6486   25.9578 N   0  0  0  0  0  0  0  0  0  0  0  0
   10.6553  -15.8185   27.3587 C   0  0  0  0  0  0  0  0  0  0  0  0
   10.2961  -14.5423   27.8701 C   0  0  0  0  0  0  0  0  0  0  0  0
   10.5672  -14.6547   29.3741 C   0  0  0  0  0  0  0  0  0  0  0  0
   11.9625  -15.2989   29.2936 C   0  0  1  0  0  0  0  0  0  0  0  0
   11.7195  -16.3465   28.2306 C   0  0  0  0  0  0  0  0  0  0  0  0
   11.3649  -17.6498   28.8111 O   0  0  0  0  0  0  0  0  0  0  0  0
   12.3030  -18.3883   29.4907 O   0  0  0  0  0  0  0  0  0  0  0  0
  2  1  1  0
  3  2  2  0
  4  2  1  0
  5  4  1  0
  6  5  1  0
  7  6  1  0
  8  9  1  6
  8  7  1  0
 10  8  1  0
 10 11  2  0
 12 10  1  0
 13 12  1  0
 13 14  1  1
 14 15  1  0
 15 16  2  0
 16 17  1  0
 18 17  1  0
 19 18  2  0
 20 19  1  0
 21 22  1  0
 21 20  2  0
 22 23  2  0
 23 15  1  0
 23 18  1  0
 24 13  1  0
 25 24  2  0
 26 27  1  0
 26 24  1  0
 28 27  1  0
 29 28  1  0
 30 29  1  0
 30 26  1  0
 30 31  1  1
 31 32  1  0
 33 31  2  0
M  END
$$$$
