RWP.pdb
     RDKit          3D

 33 35  0  0  1  0  0  0  0  0999 V2000
    8.3329  -15.1882   17.0914 N   0  0  0  0  0  0  0  0  0  0  0  0
    8.8025  -13.9030   17.4482 C   0  0  0  0  0  0  0  0  0  0  0  0
    8.0380  -12.8896   17.2272 N   0  0  0  0  0  0  0  0  0  0  0  0
   10.0835  -13.6903   18.0397 N   0  0  0  0  0  0  0  0  0  0  0  0
   10.3835  -14.1694   19.3710 C   0  0  0  0  0  0  0  0  0  0  0  0
    9.1071  -14.1151   20.1666 C   0  0  0  0  0  0  0  0  0  0  0  0
    8.5940  -15.4509   20.5884 C   0  0  0  0  0  0  0  0  0  0  0  0
    9.5827  -16.2526   21.4031 C   0  0  2  0  0  0  0  0  0  0  0  0
    9.2398  -17.6364   21.3234 N   0  0  0  0  0  0  0  0  0  0  0  0
    9.5223  -15.7327   22.8080 C   0  0  0  0  0  0  0  0  0  0  0  0
    9.9815  -14.5840   23.0373 O   0  0  0  0  0  0  0  0  0  0  0  0
    8.3596  -11.9286   17.3829 N   0  0  0  0  0  0  0  0  0  0  0  0
    8.9606  -16.5186   23.8498 C   0  0  1  0  0  0  0  0  0  0  0  0
    8.9955  -16.0869   25.2280 C   0  0  0  0  0  0  0  0  0  0  0  0
    7.6628  -16.3953   25.8805 C   0  0  0  0  0  0  0  0  0  0  0  0
    6.6325  -15.3700   25.7719 C   0  0  0  0  0  0  0  0  0  0  0  0
    5.2822  -15.5398   25.4256 N   0  0  0  0  0  0  0  0  0  0  0  0
    4.6962  -14.3397   25.4100 C   0  0  0  0  0  0  0  0  0  0  0  0
    5.5642  -13.3726   25.7242 C   0  0  0  0  0  0  0  0  0  0  0  0
    5.4252  -11.9983   25.8520 C   0  0  0  0  0  0  0  0  0  0  0  0
    6.5194  -11.2427   26.2165 C   0  0  0  0  0  0  0  0  0  0  0  0
    7.7526  -11.8299   26.4568 C   0  0  0  0  0  0  0  0  0  0  0  0
    7.8308  -13.1941   26.3141 C   0  0  0  0  0  0  0  0  0  0  0  0
    6.7680  -13.9991   25.9509 C   0  0  0  0  0  0  0  0  0  0  0  0
   10.1778  -16.4081   25.9947 O   0  0  0  0  0  0  0  0  0  0  0  0
   10.8740  -17.4083   25.5760 N   0  0  0  0  0  0  0  0  0  0  0  0
   10.6538  -15.7402   27.1580 C   0  0  0  0  0  0  0  0  0  0  0  0
   10.2691  -14.5145   27.7655 C   0  0  0  0  0  0  0  0  0  0  0  0
   10.5880  -14.7193   29.2503 C   0  0  0  0  0  0  0  0  0  0  0  0
   12.0002  -15.3087   29.0877 C   0  0  1  0  0  0  0  0  0  0  0  0
   11.7596  -16.2896   27.9622 C   0  0  0  0  0  0  0  0  0  0  0  0
   11.4643  -17.6405   28.4613 O   0  0  0  0  0  0  0  0  0  0  0  0
   10.2051  -18.1732   28.3269 O   0  0  0  0  0  0  0  0  0  0  0  0
  2  1  1  0
  3  2  2  0
  4  2  1  0
  5  4  1  0
  6  5  1  0
  7  6  1  0
  8  9  1  1
  8  7  1  0
 10  8  1  0
 10 11  2  0
 12 10  1  0
 13 12  1  0
 13 14  1  1
 14 15  1  0
 15 16  2  0
 16 17  1  0
 18 17  1  0
 19 18  2  0
 20 19  1  0
 21 22  1  0
 21 20  2  0
 22 23  2  0
 23 15  1  0
 23 18  1  0
 24 13  1  0
 25 24  2  0
 26 27  1  0
 26 24  1  0
 28 27  1  0
 29 28  1  0
 30 29  1  0
 30 26  1  0
 30 31  1  1
 31 32  1  0
 33 31  2  0
M  END
$$$$
