RWP.pdb
     RDKit          3D

 33 35  0  0  1  0  0  0  0  0999 V2000
    9.8335  -18.7670   17.3323 N   0  0  0  0  0  0  0  0  0  0  0  0
    8.8508  -19.1998   16.4122 C   0  0  0  0  0  0  0  0  0  0  0  0
    9.1886  -20.0637   15.5179 N   0  0  0  0  0  0  0  0  0  0  0  0
    7.5082  -18.7170   16.4389 N   0  0  0  0  0  0  0  0  0  0  0  0
    7.0454  -17.8465   17.4971 C   0  0  0  0  0  0  0  0  0  0  0  0
    6.8167  -18.7011   18.7146 C   0  0  0  0  0  0  0  0  0  0  0  0
    5.7095  -18.2258   19.5943 C   0  0  0  0  0  0  0  0  0  0  0  0
    5.9046  -18.5644   21.0542 C   0  0  2  0  0  0  0  0  0  0  0  0
    4.7074  -19.1556   21.5601 N   0  0  0  0  0  0  0  0  0  0  0  0
    6.2506  -17.2887   21.7615 C   0  0  0  0  0  0  0  0  0  0  0  0
    5.3613  -16.4041   21.8615 O   0  0  0  0  0  0  0  0  0  0  0  0
    8.5105  -20.4343   14.8442 N   0  0  0  0  0  0  0  0  0  0  0  0
    7.5484  -17.0874   22.3032 C   0  0  1  0  0  0  0  0  0  0  0  0
    8.0743  -15.7626   22.5389 C   0  0  0  0  0  0  0  0  0  0  0  0
    8.5830  -15.6749   23.9639 C   0  0  0  0  0  0  0  0  0  0  0  0
    7.6417  -15.1816   24.9615 C   0  0  0  0  0  0  0  0  0  0  0  0
    6.5325  -15.8508   25.5037 N   0  0  0  0  0  0  0  0  0  0  0  0
    5.9194  -15.0279   26.3585 C   0  0  0  0  0  0  0  0  0  0  0  0
    6.5442  -13.8480   26.4278 C   0  0  0  0  0  0  0  0  0  0  0  0
    6.2979  -12.7031   27.1714 C   0  0  0  0  0  0  0  0  0  0  0  0
    7.1463  -11.6236   27.0449 C   0  0  0  0  0  0  0  0  0  0  0  0
    8.2380  -11.6616   26.1904 C   0  0  0  0  0  0  0  0  0  0  0  0
    8.4316  -12.8209   25.4792 C   0  0  0  0  0  0  0  0  0  0  0  0
    7.6137  -13.9313   25.5664 C   0  0  0  0  0  0  0  0  0  0  0  0
    8.9218  -15.1930   21.5161 O   0  0  0  0  0  0  0  0  0  0  0  0
    9.9553  -15.8860   21.1816 N   0  0  0  0  0  0  0  0  0  0  0  0
    8.7375  -13.9535   20.8412 C   0  0  0  0  0  0  0  0  0  0  0  0
    7.6938  -12.9912   20.9048 C   0  0  0  0  0  0  0  0  0  0  0  0
    8.3872  -11.6676   20.5649 C   0  0  0  0  0  0  0  0  0  0  0  0
    9.1765  -12.1481   19.3343 C   0  0  1  0  0  0  0  0  0  0  0  0
    9.7120  -13.4651   19.8497 C   0  0  0  0  0  0  0  0  0  0  0  0
   11.0606  -13.3277   20.4188 O   0  0  0  0  0  0  0  0  0  0  0  0
   12.1327  -13.0412   19.6090 O   0  0  0  0  0  0  0  0  0  0  0  0
  2  1  1  0
  3  2  2  0
  4  2  1  0
  5  4  1  0
  6  5  1  0
  7  6  1  0
  8  9  1  1
  8  7  1  0
 10  8  1  0
 10 11  2  0
 12 10  1  0
 13 12  1  0
 13 14  1  1
 14 15  1  0
 15 16  2  0
 16 17  1  0
 18 17  1  0
 19 18  2  0
 20 19  1  0
 21 22  1  0
 21 20  2  0
 22 23  2  0
 23 15  1  0
 23 18  1  0
 24 13  1  0
 25 24  2  0
 26 27  1  0
 26 24  1  0
 28 27  1  0
 29 28  1  0
 30 29  1  0
 30 26  1  0
 30 31  1  1
 31 32  1  0
 33 31  2  0
M  END
$$$$
