RWP.pdb
     RDKit          3D

 33 35  0  0  1  0  0  0  0  0999 V2000
   14.7247  -18.7281   17.5694 N   0  0  0  0  0  0  0  0  0  0  0  0
   13.5027  -18.0869   17.8781 C   0  0  0  0  0  0  0  0  0  0  0  0
   13.3416  -16.8648   17.5029 N   0  0  0  0  0  0  0  0  0  0  0  0
   12.4497  -18.7406   18.5853 N   0  0  0  0  0  0  0  0  0  0  0  0
   11.2762  -18.0158   19.0205 C   0  0  0  0  0  0  0  0  0  0  0  0
   11.6792  -17.1756   20.2024 C   0  0  0  0  0  0  0  0  0  0  0  0
   10.6088  -16.2592   20.6926 C   0  0  0  0  0  0  0  0  0  0  0  0
    9.5083  -16.9618   21.4537 C   0  0  2  0  0  0  0  0  0  0  0  0
    8.3051  -16.9120   20.6865 N   0  0  0  0  0  0  0  0  0  0  0  0
    9.3692  -16.2648   22.7737 C   0  0  0  0  0  0  0  0  0  0  0  0
    9.3714  -15.0066   22.7849 O   0  0  0  0  0  0  0  0  0  0  0  0
   12.5809  -16.2845   17.8713 N   0  0  0  0  0  0  0  0  0  0  0  0
    9.2383  -17.0080   23.9773 C   0  0  1  0  0  0  0  0  0  0  0  0
    9.1208  -16.3566   25.2614 C   0  0  0  0  0  0  0  0  0  0  0  0
    7.7051  -16.5227   25.7765 C   0  0  0  0  0  0  0  0  0  0  0  0
    6.7789  -15.4325   25.4969 C   0  0  0  0  0  0  0  0  0  0  0  0
    5.4558  -15.5241   25.0353 N   0  0  0  0  0  0  0  0  0  0  0  0
    4.9769  -14.2872   24.8782 C   0  0  0  0  0  0  0  0  0  0  0  0
    5.8915  -13.3685   25.2049 C   0  0  0  0  0  0  0  0  0  0  0  0
    5.8579  -11.9817   25.2208 C   0  0  0  0  0  0  0  0  0  0  0  0
    6.9746  -11.2867   25.6343 C   0  0  0  0  0  0  0  0  0  0  0  0
    8.1272  -11.9467   26.0332 C   0  0  0  0  0  0  0  0  0  0  0  0
    8.1026  -13.3199   25.9959 C   0  0  0  0  0  0  0  0  0  0  0  0
    7.0128  -14.0664   25.5903 C   0  0  0  0  0  0  0  0  0  0  0  0
   10.1835  -16.5746   26.2164 O   0  0  0  0  0  0  0  0  0  0  0  0
   10.8350  -17.6803   26.1009 N   0  0  0  0  0  0  0  0  0  0  0  0
   10.5861  -15.7019   27.2662 C   0  0  0  0  0  0  0  0  0  0  0  0
   10.2236  -14.3619   27.5698 C   0  0  0  0  0  0  0  0  0  0  0  0
   10.3830  -14.2692   29.0911 C   0  0  0  0  0  0  0  0  0  0  0  0
   11.7637  -14.9395   29.2040 C   0  0  1  0  0  0  0  0  0  0  0  0
   11.5711  -16.1204   28.2792 C   0  0  0  0  0  0  0  0  0  0  0  0
   11.1427  -17.3252   29.0046 O   0  0  0  0  0  0  0  0  0  0  0  0
   11.9988  -17.9563   29.8741 O   0  0  0  0  0  0  0  0  0  0  0  0
  2  1  1  0
  3  2  2  0
  4  2  1  0
  5  4  1  0
  6  5  1  0
  7  6  1  0
  8  9  1  6
  8  7  1  0
 10  8  1  0
 10 11  2  0
 12 10  1  0
 13 12  1  0
 13 14  1  1
 14 15  1  0
 15 16  2  0
 16 17  1  0
 18 17  1  0
 19 18  2  0
 20 19  1  0
 21 22  1  0
 21 20  2  0
 22 23  2  0
 23 15  1  0
 23 18  1  0
 24 13  1  0
 25 24  2  0
 26 27  1  0
 26 24  1  0
 28 27  1  0
 29 28  1  0
 30 29  1  0
 30 26  1  0
 30 31  1  1
 31 32  1  0
 33 31  2  0
M  END
$$$$
