RWP.pdb
     RDKit          3D

 33 35  0  0  1  0  0  0  0  0999 V2000
    7.1871  -15.3458   16.1871 N   0  0  0  0  0  0  0  0  0  0  0  0
    8.2227  -14.4391   15.8632 C   0  0  0  0  0  0  0  0  0  0  0  0
    8.9572  -14.6916   14.8351 N   0  0  0  0  0  0  0  0  0  0  0  0
    8.4814  -13.2632   16.6292 N   0  0  0  0  0  0  0  0  0  0  0  0
    8.9846  -13.3458   17.9827 C   0  0  0  0  0  0  0  0  0  0  0  0
    7.8232  -13.6962   18.8735 C   0  0  0  0  0  0  0  0  0  0  0  0
    8.1309  -13.6288   20.3317 C   0  0  0  0  0  0  0  0  0  0  0  0
    9.1503  -14.6480   20.7858 C   0  0  2  0  0  0  0  0  0  0  0  0
    8.7426  -15.9438   20.3458 N   0  0  0  0  0  0  0  0  0  0  0  0
    9.2325  -14.5556   22.2799 C   0  0  0  0  0  0  0  0  0  0  0  0
    9.5937  -13.4633   22.7891 O   0  0  0  0  0  0  0  0  0  0  0  0
    9.7008  -14.0529   14.5348 N   0  0  0  0  0  0  0  0  0  0  0  0
    8.9103  -15.6733   23.0956 C   0  0  1  0  0  0  0  0  0  0  0  0
    8.9071  -15.5835   24.5374 C   0  0  0  0  0  0  0  0  0  0  0  0
    7.5995  -16.1365   25.0680 C   0  0  0  0  0  0  0  0  0  0  0  0
    6.6358  -15.1631   25.5662 C   0  0  0  0  0  0  0  0  0  0  0  0
    5.3266  -15.4001   26.0154 N   0  0  0  0  0  0  0  0  0  0  0  0
    4.7770  -14.2299   26.3508 C   0  0  0  0  0  0  0  0  0  0  0  0
    5.6314  -13.2201   26.1572 C   0  0  0  0  0  0  0  0  0  0  0  0
    5.5258  -11.8534   26.3705 C   0  0  0  0  0  0  0  0  0  0  0  0
    6.6059  -11.0436   26.0900 C   0  0  0  0  0  0  0  0  0  0  0  0
    7.7922  -11.5689   25.6000 C   0  0  0  0  0  0  0  0  0  0  0  0
    7.8384  -12.9285   25.4080 C   0  0  0  0  0  0  0  0  0  0  0  0
    6.7874  -13.7862   25.6712 C   0  0  0  0  0  0  0  0  0  0  0  0
   10.1077  -15.9916   25.2309 O   0  0  0  0  0  0  0  0  0  0  0  0
   10.8065  -16.9146   24.6651 N   0  0  0  0  0  0  0  0  0  0  0  0
   10.5991  -15.4846   26.4668 C   0  0  0  0  0  0  0  0  0  0  0  0
   10.2382  -14.3393   27.2265 C   0  0  0  0  0  0  0  0  0  0  0  0
   10.5579  -14.7359   28.6717 C   0  0  0  0  0  0  0  0  0  0  0  0
   11.9589  -15.3244   28.4284 C   0  0  1  0  0  0  0  0  0  0  0  0
   11.6974  -16.1505   27.1891 C   0  0  0  0  0  0  0  0  0  0  0  0
   11.3796  -17.5484   27.5148 O   0  0  0  0  0  0  0  0  0  0  0  0
   12.3537  -18.3916   27.9918 O   0  0  0  0  0  0  0  0  0  0  0  0
  2  1  1  0
  3  2  2  0
  4  2  1  0
  5  4  1  0
  6  5  1  0
  7  6  1  0
  8  9  1  1
  8  7  1  0
 10  8  1  0
 10 11  2  0
 12 10  1  0
 13 12  1  0
 13 14  1  1
 14 15  1  0
 15 16  2  0
 16 17  1  0
 18 17  1  0
 19 18  2  0
 20 19  1  0
 21 22  1  0
 21 20  2  0
 22 23  2  0
 23 15  1  0
 23 18  1  0
 24 13  1  0
 25 24  2  0
 26 27  1  0
 26 24  1  0
 28 27  1  0
 29 28  1  0
 30 29  1  0
 30 26  1  0
 30 31  1  1
 31 32  1  0
 33 31  2  0
M  END
$$$$
