SEF.pdb
     RDKit          3D

 27 27  0  0  1  0  0  0  0  0999 V2000
   29.4422  -22.0467  -15.2730 O   0  0  0  0  0  0  0  0  0  0  0  0
   28.7814  -21.3569  -14.2693 C   0  0  0  0  0  0  0  0  0  0  0  0
   27.6568  -20.4864  -14.8382 C   0  0  2  0  0  0  0  0  0  0  0  0
   28.2022  -19.4346  -15.6376 N   0  0  0  0  0  0  0  0  0  0  0  0
   26.9293  -19.9491  -13.6318 C   0  0  0  0  0  0  0  0  0  0  0  0
   27.2524  -18.8298  -13.1619 O   0  0  0  0  0  0  0  0  0  0  0  0
   25.9086  -20.7857  -13.1170 N   0  0  0  0  0  0  0  0  0  0  0  0
   25.1464  -20.3099  -11.9579 C   0  0  1  0  0  0  0  0  0  0  0  0
   23.7182  -20.6751  -12.2042 C   0  0  0  0  0  0  0  0  0  0  0  0
   22.7133  -20.1339  -11.2553 C   0  0  0  0  0  0  0  0  0  0  0  0
   21.6244  -21.1750  -11.0720 C   0  0  0  0  0  0  0  0  0  0  0  0
   21.2311  -21.7563  -12.0974 O   0  0  0  0  0  0  0  0  0  0  0  0
   25.7416  -20.7988  -10.7145 C   0  0  0  0  0  0  0  0  0  0  0  0
   26.2284  -21.9813  -10.6070 O   0  0  0  0  0  0  0  0  0  0  0  0
   21.0944  -21.4673   -9.8420 O   0  0  0  0  0  0  0  0  0  0  0  0
   25.8003  -19.9539   -9.5746 N   0  0  0  0  0  0  0  0  0  0  0  0
   26.4789  -20.4821   -8.3770 C   0  0  1  0  0  0  0  0  0  0  0  0
   27.3470  -19.3324   -7.8962 C   0  0  0  0  0  0  0  0  0  0  0  0
   27.9910  -19.6691   -6.6071 C   0  0  0  0  0  0  0  0  0  0  0  0
   27.4760  -19.2672   -5.3927 C   0  0  0  0  0  0  0  0  0  0  0  0
   28.0994  -19.6045   -4.1925 C   0  0  0  0  0  0  0  0  0  0  0  0
   29.2560  -20.3531   -4.1681 C   0  0  0  0  0  0  0  0  0  0  0  0
   29.7819  -20.7612   -5.3750 C   0  0  0  0  0  0  0  0  0  0  0  0
   29.1655  -20.4278   -6.5606 C   0  0  0  0  0  0  0  0  0  0  0  0
   25.4709  -20.8684   -7.3798 C   0  0  0  0  0  0  0  0  0  0  0  0
   25.7508  -21.6752   -6.4812 O   0  0  0  0  0  0  0  0  0  0  0  0
   24.1969  -20.3392   -7.4269 O   0  0  0  0  0  0  0  0  0  0  0  0
  2  1  1  0
  3  2  1  0
  3  4  1  1
  5  3  1  0
  5  6  2  0
  7  5  1  0
  8  7  1  0
  8  9  1  6
 10  9  1  0
 10 11  1  0
 11 15  1  0
 12 11  2  0
 13  8  1  0
 14 13  2  0
 16 13  1  0
 17 16  1  0
 17 18  1  1
 18 19  1  0
 19 20  2  0
 20 21  1  0
 22 21  2  0
 23 22  1  0
 24 19  1  0
 24 23  2  0
 25 27  1  0
 25 17  1  0
 26 25  2  0
M  END
$$$$
