SEF.pdb
     RDKit          3D

 27 27  0  0  1  0  0  0  0  0999 V2000
   16.4913  -12.9042  -14.2006 O   0  0  0  0  0  0  0  0  0  0  0  0
   17.1875  -11.7518  -14.5276 C   0  0  0  0  0  0  0  0  0  0  0  0
   16.6129  -11.0907  -15.7842 C   0  0  2  0  0  0  0  0  0  0  0  0
   16.6807  -11.9917  -16.8916 N   0  0  0  0  0  0  0  0  0  0  0  0
   17.4659   -9.8677  -16.0081 C   0  0  0  0  0  0  0  0  0  0  0  0
   18.4065   -9.9129  -16.8394 O   0  0  0  0  0  0  0  0  0  0  0  0
   17.1172   -8.7351  -15.2320 N   0  0  0  0  0  0  0  0  0  0  0  0
   17.9204   -7.5181  -15.3890 C   0  0  1  0  0  0  0  0  0  0  0  0
   17.0878   -6.3859  -14.8803 C   0  0  0  0  0  0  0  0  0  0  0  0
   17.7052   -5.0362  -14.9004 C   0  0  0  0  0  0  0  0  0  0  0  0
   16.6836   -4.0391  -14.3853 C   0  0  0  0  0  0  0  0  0  0  0  0
   17.0637   -2.8618  -14.2687 O   0  0  0  0  0  0  0  0  0  0  0  0
   19.2377   -7.6881  -14.7767 C   0  0  0  0  0  0  0  0  0  0  0  0
   19.4552   -8.5459  -13.8472 O   0  0  0  0  0  0  0  0  0  0  0  0
   15.4033   -4.4076  -14.0620 O   0  0  0  0  0  0  0  0  0  0  0  0
   20.3314   -6.8934  -15.2114 N   0  0  0  0  0  0  0  0  0  0  0  0
   21.6686   -7.2486  -14.7023 C   0  0  1  0  0  0  0  0  0  0  0  0
   22.1393   -8.3628  -15.6206 C   0  0  0  0  0  0  0  0  0  0  0  0
   23.5055   -8.7981  -15.2546 C   0  0  0  0  0  0  0  0  0  0  0  0
   23.7546   -9.6571  -14.2050 C   0  0  0  0  0  0  0  0  0  0  0  0
   25.0514  -10.0566  -13.8863 C   0  0  0  0  0  0  0  0  0  0  0  0
   26.1389   -9.6107  -14.6054 C   0  0  0  0  0  0  0  0  0  0  0  0
   25.9042   -8.7514  -15.6571 C   0  0  0  0  0  0  0  0  0  0  0  0
   24.6227   -8.3569  -15.9717 C   0  0  0  0  0  0  0  0  0  0  0  0
   22.5424   -6.0690  -14.7715 C   0  0  0  0  0  0  0  0  0  0  0  0
   22.3605   -5.2003  -15.6371 O   0  0  0  0  0  0  0  0  0  0  0  0
   23.5788   -5.9085  -13.8742 O   0  0  0  0  0  0  0  0  0  0  0  0
  2  1  1  0
  3  2  1  0
  3  4  1  6
  5  3  1  0
  5  6  2  0
  7  5  1  0
  8  7  1  0
  8  9  1  1
 10  9  1  0
 10 11  1  0
 11 15  1  0
 12 11  2  0
 13  8  1  0
 14 13  2  0
 16 13  1  0
 17 16  1  0
 17 18  1  6
 18 19  1  0
 19 20  2  0
 20 21  1  0
 22 21  2  0
 23 22  1  0
 24 19  1  0
 24 23  2  0
 25 27  1  0
 25 17  1  0
 26 25  2  0
M  END
$$$$
