SEF.pdb
     RDKit          3D

 27 27  0  0  1  0  0  0  0  0999 V2000
   24.0554  -35.6226   -8.1791 O   0  0  0  0  0  0  0  0  0  0  0  0
   23.4115  -34.4125   -8.3813 C   0  0  0  0  0  0  0  0  0  0  0  0
   24.4070  -33.2488   -8.4079 C   0  0  2  0  0  0  0  0  0  0  0  0
   25.0668  -33.1338   -7.1453 N   0  0  0  0  0  0  0  0  0  0  0  0
   23.5753  -32.0291   -8.7148 C   0  0  0  0  0  0  0  0  0  0  0  0
   23.4269  -31.1440   -7.8359 O   0  0  0  0  0  0  0  0  0  0  0  0
   23.0149  -31.9891  -10.0152 N   0  0  0  0  0  0  0  0  0  0  0  0
   22.2331  -30.8071  -10.3929 C   0  0  1  0  0  0  0  0  0  0  0  0
   22.4039  -30.6329  -11.8674 C   0  0  0  0  0  0  0  0  0  0  0  0
   21.7406  -29.4580  -12.4863 C   0  0  0  0  0  0  0  0  0  0  0  0
   20.7250  -29.9626  -13.4947 C   0  0  0  0  0  0  0  0  0  0  0  0
   20.1080  -29.1006  -14.1432 O   0  0  0  0  0  0  0  0  0  0  0  0
   20.8599  -30.9198   -9.9021 C   0  0  0  0  0  0  0  0  0  0  0  0
   20.2672  -32.0515   -9.7799 O   0  0  0  0  0  0  0  0  0  0  0  0
   20.4919  -31.2995  -13.6886 O   0  0  0  0  0  0  0  0  0  0  0  0
   20.1380  -29.7529   -9.5363 N   0  0  0  0  0  0  0  0  0  0  0  0
   18.7543  -29.9361   -9.0616 C   0  0  1  0  0  0  0  0  0  0  0  0
   18.3765  -28.5900   -8.4685 C   0  0  0  0  0  0  0  0  0  0  0  0
   18.2739  -27.5632   -9.5292 C   0  0  0  0  0  0  0  0  0  0  0  0
   19.3633  -26.8444   -9.9743 C   0  0  0  0  0  0  0  0  0  0  0  0
   19.2397  -25.8876  -10.9804 C   0  0  0  0  0  0  0  0  0  0  0  0
   18.0248  -25.6190  -11.5725 C   0  0  0  0  0  0  0  0  0  0  0  0
   16.9274  -26.3301  -11.1368 C   0  0  0  0  0  0  0  0  0  0  0  0
   17.0501  -27.2755  -10.1428 C   0  0  0  0  0  0  0  0  0  0  0  0
   17.8964  -30.2999  -10.1980 C   0  0  0  0  0  0  0  0  0  0  0  0
   16.7434  -30.7145  -10.0094 O   0  0  0  0  0  0  0  0  0  0  0  0
   18.3598  -30.1857  -11.4932 O   0  0  0  0  0  0  0  0  0  0  0  0
  2  1  1  0
  3  2  1  0
  3  4  1  1
  5  3  1  0
  5  6  2  0
  7  5  1  0
  8  7  1  0
  8  9  1  6
 10  9  1  0
 10 11  1  0
 11 15  1  0
 12 11  2  0
 13  8  1  0
 14 13  2  0
 16 13  1  0
 17 16  1  0
 17 18  1  6
 18 19  1  0
 19 20  2  0
 20 21  1  0
 22 21  2  0
 23 22  1  0
 24 19  1  0
 24 23  2  0
 25 27  1  0
 25 17  1  0
 26 25  2  0
M  END
$$$$
