SEF.pdb
     RDKit          3D

 27 27  0  0  1  0  0  0  0  0999 V2000
   16.8233  -12.3048  -17.8076 O   0  0  0  0  0  0  0  0  0  0  0  0
   16.7638  -11.9261  -19.1391 C   0  0  0  0  0  0  0  0  0  0  0  0
   18.1180  -12.1076  -19.8315 C   0  0  2  0  0  0  0  0  0  0  0  0
   18.7197  -13.3387  -19.4254 N   0  0  0  0  0  0  0  0  0  0  0  0
   18.9394  -10.9181  -19.4027 C   0  0  0  0  0  0  0  0  0  0  0  0
   20.1568  -11.0713  -19.1332 O   0  0  0  0  0  0  0  0  0  0  0  0
   18.2388   -9.6885  -19.3397 N   0  0  0  0  0  0  0  0  0  0  0  0
   19.0012   -8.4759  -19.0245 C   0  0  1  0  0  0  0  0  0  0  0  0
   18.3196   -7.3460  -19.7262 C   0  0  0  0  0  0  0  0  0  0  0  0
   18.9384   -6.0031  -19.5955 C   0  0  0  0  0  0  0  0  0  0  0  0
   18.0577   -5.0019  -20.3202 C   0  0  0  0  0  0  0  0  0  0  0  0
   17.3990   -4.2231  -19.6104 O   0  0  0  0  0  0  0  0  0  0  0  0
   19.1752   -8.3386  -17.5788 C   0  0  0  0  0  0  0  0  0  0  0  0
   18.3343   -8.8226  -16.7389 O   0  0  0  0  0  0  0  0  0  0  0  0
   17.9849   -4.9505  -21.6881 O   0  0  0  0  0  0  0  0  0  0  0  0
   20.3077   -7.6558  -17.0611 N   0  0  0  0  0  0  0  0  0  0  0  0
   20.4365   -7.5771  -15.5946 C   0  0  1  0  0  0  0  0  0  0  0  0
   21.8925   -7.9139  -15.3240 C   0  0  0  0  0  0  0  0  0  0  0  0
   22.1717   -7.8908  -13.8710 C   0  0  0  0  0  0  0  0  0  0  0  0
   22.3152   -6.7172  -13.1613 C   0  0  0  0  0  0  0  0  0  0  0  0
   22.5710   -6.7243  -11.7911 C   0  0  0  0  0  0  0  0  0  0  0  0
   22.6916   -7.9031  -11.0877 C   0  0  0  0  0  0  0  0  0  0  0  0
   22.5506   -9.0836  -11.7850 C   0  0  0  0  0  0  0  0  0  0  0  0
   22.2978   -9.0761  -13.1388 C   0  0  0  0  0  0  0  0  0  0  0  0
   20.0912   -6.2196  -15.1501 C   0  0  0  0  0  0  0  0  0  0  0  0
   20.2740   -5.2468  -15.8965 O   0  0  0  0  0  0  0  0  0  0  0  0
   19.5578   -6.0053  -13.8952 O   0  0  0  0  0  0  0  0  0  0  0  0
  2  1  1  0
  3  2  1  0
  3  4  1  1
  5  3  1  0
  5  6  2  0
  7  5  1  0
  8  7  1  0
  8  9  1  1
 10  9  1  0
 10 11  1  0
 11 15  1  0
 12 11  2  0
 13  8  1  0
 14 13  2  0
 16 13  1  0
 17 16  1  0
 17 18  1  6
 18 19  1  0
 19 20  2  0
 20 21  1  0
 22 21  2  0
 23 22  1  0
 24 19  1  0
 24 23  2  0
 25 27  1  0
 25 17  1  0
 26 25  2  0
M  END
$$$$
