SEF.pdb
     RDKit          3D

 27 27  0  0  1  0  0  0  0  0999 V2000
   20.9151  -27.0082  -15.3182 O   0  0  0  0  0  0  0  0  0  0  0  0
   20.9589  -26.9960  -16.7031 C   0  0  0  0  0  0  0  0  0  0  0  0
   22.3803  -26.7414  -17.2138 C   0  0  2  0  0  0  0  0  0  0  0  0
   23.2884  -27.6827  -16.6379 N   0  0  0  0  0  0  0  0  0  0  0  0
   22.7005  -25.3293  -16.7930 C   0  0  0  0  0  0  0  0  0  0  0  0
   23.5535  -25.1302  -15.8926 O   0  0  0  0  0  0  0  0  0  0  0  0
   21.9840  -24.3159  -17.4759 N   0  0  0  0  0  0  0  0  0  0  0  0
   22.2278  -22.9215  -17.0926 C   0  0  1  0  0  0  0  0  0  0  0  0
   21.9246  -22.0867  -18.2947 C   0  0  0  0  0  0  0  0  0  0  0  0
   22.0511  -20.6159  -18.1404 C   0  0  0  0  0  0  0  0  0  0  0  0
   23.3227  -20.1727  -18.8401 C   0  0  0  0  0  0  0  0  0  0  0  0
   23.2945  -20.1445  -20.0821 O   0  0  0  0  0  0  0  0  0  0  0  0
   21.5027  -22.5904  -15.8663 C   0  0  0  0  0  0  0  0  0  0  0  0
   20.4094  -23.1767  -15.5378 O   0  0  0  0  0  0  0  0  0  0  0  0
   24.4514  -19.8190  -18.1469 O   0  0  0  0  0  0  0  0  0  0  0  0
   22.0075  -21.5940  -14.9894 N   0  0  0  0  0  0  0  0  0  0  0  0
   21.1848  -21.2477  -13.8160 C   0  0  1  0  0  0  0  0  0  0  0  0
   22.0376  -20.2651  -13.0326 C   0  0  0  0  0  0  0  0  0  0  0  0
   21.3113  -19.7816  -11.8375 C   0  0  0  0  0  0  0  0  0  0  0  0
   21.1459  -20.5533  -10.7067 C   0  0  0  0  0  0  0  0  0  0  0  0
   20.4631  -20.0702   -9.5917 C   0  0  0  0  0  0  0  0  0  0  0  0
   19.9245  -18.8020   -9.5716 C   0  0  0  0  0  0  0  0  0  0  0  0
   20.0822  -18.0200  -10.6955 C   0  0  0  0  0  0  0  0  0  0  0  0
   20.7571  -18.4977  -11.7969 C   0  0  0  0  0  0  0  0  0  0  0  0
   19.9232  -20.6455  -14.2696 C   0  0  0  0  0  0  0  0  0  0  0  0
   18.8680  -20.8551  -13.6537 O   0  0  0  0  0  0  0  0  0  0  0  0
   19.8926  -19.8367  -15.3878 O   0  0  0  0  0  0  0  0  0  0  0  0
  2  1  1  0
  3  2  1  0
  3  4  1  1
  5  3  1  0
  5  6  2  0
  7  5  1  0
  8  7  1  0
  8  9  1  6
 10  9  1  0
 10 11  1  0
 11 15  1  0
 12 11  2  0
 13  8  1  0
 14 13  2  0
 16 13  1  0
 17 16  1  0
 17 18  1  1
 18 19  1  0
 19 20  2  0
 20 21  1  0
 22 21  2  0
 23 22  1  0
 24 19  1  0
 24 23  2  0
 25 27  1  0
 25 17  1  0
 26 25  2  0
M  END
$$$$
