SEF.pdb
     RDKit          3D

 27 27  0  0  1  0  0  0  0  0999 V2000
   19.4478  -12.7199  -15.0063 O   0  0  0  0  0  0  0  0  0  0  0  0
   18.7864  -12.9971  -16.1918 C   0  0  0  0  0  0  0  0  0  0  0  0
   17.9143  -11.8177  -16.6328 C   0  0  2  0  0  0  0  0  0  0  0  0
   17.2381  -12.1317  -17.8521 N   0  0  0  0  0  0  0  0  0  0  0  0
   18.8721  -10.6664  -16.8075 C   0  0  0  0  0  0  0  0  0  0  0  0
   19.6900  -10.6809  -17.7609 O   0  0  0  0  0  0  0  0  0  0  0  0
   18.7599   -9.6329  -15.8451 N   0  0  0  0  0  0  0  0  0  0  0  0
   19.5490   -8.4135  -16.0477 C   0  0  1  0  0  0  0  0  0  0  0  0
   18.8449   -7.3195  -15.3122 C   0  0  0  0  0  0  0  0  0  0  0  0
   19.4740   -5.9755  -15.3440 C   0  0  0  0  0  0  0  0  0  0  0  0
   18.4115   -4.9628  -15.7295 C   0  0  0  0  0  0  0  0  0  0  0  0
   17.2472   -5.3863  -15.8262 O   0  0  0  0  0  0  0  0  0  0  0  0
   20.9500   -8.6425  -15.6953 C   0  0  0  0  0  0  0  0  0  0  0  0
   21.2941   -9.3479  -14.6800 O   0  0  0  0  0  0  0  0  0  0  0  0
   18.7098   -3.6451  -15.9616 O   0  0  0  0  0  0  0  0  0  0  0  0
   21.9837   -8.0810  -16.4908 N   0  0  0  0  0  0  0  0  0  0  0  0
   23.3678   -8.2368  -16.0074 C   0  0  1  0  0  0  0  0  0  0  0  0
   23.8380   -9.5440  -16.6210 C   0  0  0  0  0  0  0  0  0  0  0  0
   25.2586   -9.7939  -16.2905 C   0  0  0  0  0  0  0  0  0  0  0  0
   25.6517  -10.4056  -15.1189 C   0  0  0  0  0  0  0  0  0  0  0  0
   26.9971  -10.6352  -14.8359 C   0  0  0  0  0  0  0  0  0  0  0  0
   27.9910  -10.2610  -15.7138 C   0  0  0  0  0  0  0  0  0  0  0  0
   27.6121   -9.6483  -16.8888 C   0  0  0  0  0  0  0  0  0  0  0  0
   26.2826   -9.4217  -17.1680 C   0  0  0  0  0  0  0  0  0  0  0  0
   24.1710   -7.0927  -16.4610 C   0  0  0  0  0  0  0  0  0  0  0  0
   25.3506   -6.9688  -16.1005 O   0  0  0  0  0  0  0  0  0  0  0  0
   23.6257   -6.1381  -17.2957 O   0  0  0  0  0  0  0  0  0  0  0  0
  2  1  1  0
  3  2  1  0
  3  4  1  6
  5  3  1  0
  5  6  2  0
  7  5  1  0
  8  7  1  0
  8  9  1  1
 10  9  1  0
 10 11  1  0
 11 15  1  0
 12 11  2  0
 13  8  1  0
 14 13  2  0
 16 13  1  0
 17 16  1  0
 17 18  1  6
 18 19  1  0
 19 20  2  0
 20 21  1  0
 22 21  2  0
 23 22  1  0
 24 19  1  0
 24 23  2  0
 25 27  1  0
 25 17  1  0
 26 25  2  0
M  END
$$$$
