SEF.pdb
     RDKit          3D

 27 27  0  0  1  0  0  0  0  0999 V2000
   29.0236  -21.5721  -13.6809 O   0  0  0  0  0  0  0  0  0  0  0  0
   29.0077  -20.3446  -14.3234 C   0  0  0  0  0  0  0  0  0  0  0  0
   27.6007  -19.9903  -14.8142 C   0  0  2  0  0  0  0  0  0  0  0  0
   27.6401  -18.8075  -15.6155 N   0  0  0  0  0  0  0  0  0  0  0  0
   26.7883  -19.7869  -13.5604 C   0  0  0  0  0  0  0  0  0  0  0  0
   26.8694  -18.6973  -12.9404 O   0  0  0  0  0  0  0  0  0  0  0  0
   25.9763  -20.8833  -13.1796 N   0  0  0  0  0  0  0  0  0  0  0  0
   25.1626  -20.7502  -11.9667 C   0  0  1  0  0  0  0  0  0  0  0  0
   23.9149  -21.5398  -12.1982 C   0  0  0  0  0  0  0  0  0  0  0  0
   22.8707  -20.9127  -13.0463 C   0  0  0  0  0  0  0  0  0  0  0  0
   21.7410  -20.4505  -12.1446 C   0  0  0  0  0  0  0  0  0  0  0  0
   21.5004  -19.2314  -12.1332 O   0  0  0  0  0  0  0  0  0  0  0  0
   25.9456  -21.0966  -10.7809 C   0  0  0  0  0  0  0  0  0  0  0  0
   26.9081  -21.9446  -10.8196 O   0  0  0  0  0  0  0  0  0  0  0  0
   21.0159  -21.3249  -11.3772 O   0  0  0  0  0  0  0  0  0  0  0  0
   25.6548  -20.4836   -9.5333 N   0  0  0  0  0  0  0  0  0  0  0  0
   26.4953  -20.8623   -8.3829 C   0  0  1  0  0  0  0  0  0  0  0  0
   27.3442  -19.6322   -8.1133 C   0  0  0  0  0  0  0  0  0  0  0  0
   28.0312  -19.7486   -6.8078 C   0  0  0  0  0  0  0  0  0  0  0  0
   29.1217  -20.5700   -6.6135 C   0  0  0  0  0  0  0  0  0  0  0  0
   29.7545  -20.6552   -5.3745 C   0  0  0  0  0  0  0  0  0  0  0  0
   29.3180  -19.9233   -4.2917 C   0  0  0  0  0  0  0  0  0  0  0  0
   28.2287  -19.0983   -4.4720 C   0  0  0  0  0  0  0  0  0  0  0  0
   27.6038  -19.0143   -5.6964 C   0  0  0  0  0  0  0  0  0  0  0  0
   25.6320  -21.1990   -7.2422 C   0  0  0  0  0  0  0  0  0  0  0  0
   26.1176  -21.6625   -6.1999 O   0  0  0  0  0  0  0  0  0  0  0  0
   24.2673  -21.0046   -7.3123 O   0  0  0  0  0  0  0  0  0  0  0  0
  2  1  1  0
  3  2  1  0
  3  4  1  1
  5  3  1  0
  5  6  2  0
  7  5  1  0
  8  7  1  0
  8  9  1  6
 10  9  1  0
 10 11  1  0
 11 15  1  0
 12 11  2  0
 13  8  1  0
 14 13  2  0
 16 13  1  0
 17 16  1  0
 17 18  1  1
 18 19  1  0
 19 20  2  0
 20 21  1  0
 22 21  2  0
 23 22  1  0
 24 19  1  0
 24 23  2  0
 25 27  1  0
 25 17  1  0
 26 25  2  0
M  END
$$$$
