SEF.pdb
     RDKit          3D

 27 27  0  0  1  0  0  0  0  0999 V2000
   26.8530  -24.1685  -16.8133 O   0  0  0  0  0  0  0  0  0  0  0  0
   27.1452  -23.0295  -16.0804 C   0  0  0  0  0  0  0  0  0  0  0  0
   27.4572  -21.8419  -16.9960 C   0  0  2  0  0  0  0  0  0  0  0  0
   28.8295  -21.4645  -16.8656 N   0  0  0  0  0  0  0  0  0  0  0  0
   26.5313  -20.7425  -16.5404 C   0  0  0  0  0  0  0  0  0  0  0  0
   26.7834  -20.1218  -15.4778 O   0  0  0  0  0  0  0  0  0  0  0  0
   25.4188  -20.4989  -17.3828 N   0  0  0  0  0  0  0  0  0  0  0  0
   24.4824  -19.4375  -16.9986 C   0  0  1  0  0  0  0  0  0  0  0  0
   23.9673  -18.8397  -18.2678 C   0  0  0  0  0  0  0  0  0  0  0  0
   23.6869  -17.3821  -18.2584 C   0  0  0  0  0  0  0  0  0  0  0  0
   23.1147  -16.9999  -19.6110 C   0  0  0  0  0  0  0  0  0  0  0  0
   21.9597  -16.5416  -19.6180 O   0  0  0  0  0  0  0  0  0  0  0  0
   23.4814  -19.9482  -16.0624 C   0  0  0  0  0  0  0  0  0  0  0  0
   23.0089  -21.1383  -16.1471 O   0  0  0  0  0  0  0  0  0  0  0  0
   23.8271  -17.1485  -20.7728 O   0  0  0  0  0  0  0  0  0  0  0  0
   23.0041  -19.1209  -15.0115 N   0  0  0  0  0  0  0  0  0  0  0  0
   21.9510  -19.6752  -14.1412 C   0  0  1  0  0  0  0  0  0  0  0  0
   21.9907  -18.8043  -12.8977 C   0  0  0  0  0  0  0  0  0  0  0  0
   20.8625  -19.1296  -11.9970 C   0  0  0  0  0  0  0  0  0  0  0  0
   19.6937  -18.3982  -11.9772 C   0  0  0  0  0  0  0  0  0  0  0  0
   18.6435  -18.7312  -11.1234 C   0  0  0  0  0  0  0  0  0  0  0  0
   18.7281  -19.8043  -10.2632 C   0  0  0  0  0  0  0  0  0  0  0  0
   19.8911  -20.5440  -10.2725 C   0  0  0  0  0  0  0  0  0  0  0  0
   20.9285  -20.2147  -11.1164 C   0  0  0  0  0  0  0  0  0  0  0  0
   20.6572  -19.5922  -14.8333 C   0  0  0  0  0  0  0  0  0  0  0  0
   19.7802  -20.4453  -14.6336 O   0  0  0  0  0  0  0  0  0  0  0  0
   20.3971  -18.5634  -15.7160 O   0  0  0  0  0  0  0  0  0  0  0  0
  2  1  1  0
  3  2  1  0
  3  4  1  1
  5  3  1  0
  5  6  2  0
  7  5  1  0
  8  7  1  0
  8  9  1  6
 10  9  1  0
 10 11  1  0
 11 15  1  0
 12 11  2  0
 13  8  1  0
 14 13  2  0
 16 13  1  0
 17 16  1  0
 17 18  1  1
 18 19  1  0
 19 20  2  0
 20 21  1  0
 22 21  2  0
 23 22  1  0
 24 19  1  0
 24 23  2  0
 25 27  1  0
 25 17  1  0
 26 25  2  0
M  END
$$$$
