GVA.pdb
     RDKit          3D

 17 16  0  0  1  0  0  0  0  0999 V2000
   19.0272  -11.4779  -19.1598 N   0  0  0  0  0  0  0  0  0  0  0  0
   19.7155  -10.2316  -19.0381 C   0  0  0  0  0  0  0  0  0  0  0  0
   20.0368   -9.8817  -17.6085 C   0  0  0  0  0  0  0  0  0  0  0  0
   19.0357   -9.7260  -16.8597 O   0  0  0  0  0  0  0  0  0  0  0  0
   22.0849  -11.6392  -15.2677 C   0  0  0  0  0  0  0  0  0  0  0  0
   22.6926  -10.2270  -15.3066 C   0  0  2  0  0  0  0  0  0  0  0  0
   23.1927   -9.9609  -13.9208 C   0  0  0  0  0  0  0  0  0  0  0  0
   21.6267   -9.3347  -15.8143 C   0  0  2  0  0  0  0  0  0  0  0  0
   21.3883   -9.7506  -17.1942 N   0  0  0  0  0  0  0  0  0  0  0  0
   21.8790   -7.8942  -15.7796 C   0  0  0  0  0  0  0  0  0  0  0  0
   22.8529   -7.4097  -16.4116 O   0  0  0  0  0  0  0  0  0  0  0  0
   20.1802   -4.7263  -15.1096 C   0  0  0  0  0  0  0  0  0  0  0  0
   21.4324   -5.5478  -15.0109 C   0  0  2  0  0  0  0  0  0  0  0  0
   21.0829   -6.9588  -15.0626 N   0  0  0  0  0  0  0  0  0  0  0  0
   22.0436   -5.2590  -13.6757 C   0  0  0  0  0  0  0  0  0  0  0  0
   22.8127   -4.1272  -13.4551 O   0  0  0  0  0  0  0  0  0  0  0  0
   21.8757   -6.0367  -12.7159 O   0  0  0  0  0  0  0  0  0  0  0  0
  2  1  1  0
  3  2  1  0
  3  4  2  0
  6  5  1  1
  6  8  1  0
  7  6  1  0
  8  9  1  6
  9  3  1  0
 10  8  1  0
 10 14  1  0
 11 10  2  0
 13 12  1  1
 13 14  1  0
 13 15  1  0
 15 17  2  0
 15 16  1  0
M  END
$$$$
