GVA.pdb
     RDKit          3D

 17 16  0  0  1  0  0  0  0  0999 V2000
   17.8335  -17.8124  -15.3455 N   0  0  0  0  0  0  0  0  0  0  0  0
   17.8893  -16.5304  -14.7170 C   0  0  0  0  0  0  0  0  0  0  0  0
   17.5551  -15.4046  -15.6606 C   0  0  0  0  0  0  0  0  0  0  0  0
   17.3359  -15.7541  -16.8511 O   0  0  0  0  0  0  0  0  0  0  0  0
   15.4941  -12.1269  -14.5727 C   0  0  0  0  0  0  0  0  0  0  0  0
   15.6401  -12.8549  -15.9195 C   0  0  2  0  0  0  0  0  0  0  0  0
   14.8147  -14.0984  -15.8015 C   0  0  0  0  0  0  0  0  0  0  0  0
   17.0931  -13.0362  -16.1334 C   0  0  2  0  0  0  0  0  0  0  0  0
   17.5056  -14.0680  -15.1850 N   0  0  0  0  0  0  0  0  0  0  0  0
   17.9506  -11.8618  -15.9741 C   0  0  0  0  0  0  0  0  0  0  0  0
   18.3365  -11.5141  -14.8283 O   0  0  0  0  0  0  0  0  0  0  0  0
   19.7543   -9.3833  -18.1458 C   0  0  0  0  0  0  0  0  0  0  0  0
   19.2777   -9.9089  -16.8232 C   0  0  2  0  0  0  0  0  0  0  0  0
   18.4024  -11.0483  -17.0497 N   0  0  0  0  0  0  0  0  0  0  0  0
   18.4803   -8.8189  -16.1784 C   0  0  0  0  0  0  0  0  0  0  0  0
   19.0723   -7.8662  -15.3640 O   0  0  0  0  0  0  0  0  0  0  0  0
   17.2494   -8.7374  -16.3582 O   0  0  0  0  0  0  0  0  0  0  0  0
  2  1  1  0
  3  2  1  0
  3  4  2  0
  6  5  1  1
  6  8  1  0
  7  6  1  0
  8  9  1  1
  9  3  1  0
 10  8  1  0
 10 14  1  0
 11 10  2  0
 13 12  1  6
 13 14  1  0
 13 15  1  0
 15 17  2  0
 15 16  1  0
M  END
$$$$
