GVA.pdb
     RDKit          3D

 17 16  0  0  1  0  0  0  0  0999 V2000
   14.3527  -14.5626  -15.4850 N   0  0  0  0  0  0  0  0  0  0  0  0
   14.8988  -13.4853  -16.2485 C   0  0  0  0  0  0  0  0  0  0  0  0
   15.8487  -12.6301  -15.4512 C   0  0  0  0  0  0  0  0  0  0  0  0
   15.6500  -12.6299  -14.2071 O   0  0  0  0  0  0  0  0  0  0  0  0
   19.4863  -11.3362  -16.8921 C   0  0  0  0  0  0  0  0  0  0  0  0
   19.0886  -11.5633  -15.4240 C   0  0  2  0  0  0  0  0  0  0  0  0
   19.2790  -13.0268  -15.1725 C   0  0  0  0  0  0  0  0  0  0  0  0
   17.7131  -11.0356  -15.2845 C   0  0  2  0  0  0  0  0  0  0  0  0
   16.8733  -11.9006  -16.1095 N   0  0  0  0  0  0  0  0  0  0  0  0
   17.4845   -9.6398  -15.6581 C   0  0  0  0  0  0  0  0  0  0  0  0
   17.4919   -9.3027  -16.8701 O   0  0  0  0  0  0  0  0  0  0  0  0
   15.8941   -6.6251  -14.3913 C   0  0  0  0  0  0  0  0  0  0  0  0
   17.0315   -7.2210  -15.1684 C   0  0  2  0  0  0  0  0  0  0  0  0
   17.2446   -8.5909  -14.7282 N   0  0  0  0  0  0  0  0  0  0  0  0
   18.2539   -6.4219  -14.8412 C   0  0  0  0  0  0  0  0  0  0  0  0
   18.4157   -5.1202  -15.2890 O   0  0  0  0  0  0  0  0  0  0  0  0
   19.1690   -6.9105  -14.1499 O   0  0  0  0  0  0  0  0  0  0  0  0
  2  1  1  0
  3  2  1  0
  3  4  2  0
  6  5  1  6
  6  8  1  0
  7  6  1  0
  8  9  1  6
  9  3  1  0
 10  8  1  0
 10 14  1  0
 11 10  2  0
 13 12  1  1
 13 14  1  0
 13 15  1  0
 15 17  2  0
 15 16  1  0
M  END
$$$$
