GVA.pdb
     RDKit          3D

 17 16  0  0  1  0  0  0  0  0999 V2000
   19.4787  -13.0867  -17.1105 N   0  0  0  0  0  0  0  0  0  0  0  0
   19.8755  -12.2413  -16.0290 C   0  0  0  0  0  0  0  0  0  0  0  0
   19.7938  -10.7773  -16.3749 C   0  0  0  0  0  0  0  0  0  0  0  0
   19.2363  -10.5195  -17.4749 O   0  0  0  0  0  0  0  0  0  0  0  0
   18.3440   -8.3552  -14.0850 C   0  0  0  0  0  0  0  0  0  0  0  0
   18.5931   -8.2297  -15.5973 C   0  0  2  0  0  0  0  0  0  0  0  0
   17.7015   -9.2449  -16.2422 C   0  0  0  0  0  0  0  0  0  0  0  0
   20.0501   -8.4028  -15.7897 C   0  0  2  0  0  0  0  0  0  0  0  0
   20.3240   -9.8054  -15.4864 N   0  0  0  0  0  0  0  0  0  0  0  0
   20.9410   -7.5536  -14.9991 C   0  0  0  0  0  0  0  0  0  0  0  0
   21.1775   -7.8364  -13.7963 O   0  0  0  0  0  0  0  0  0  0  0  0
   23.3876   -4.7928  -15.6170 C   0  0  0  0  0  0  0  0  0  0  0  0
   22.5860   -5.6811  -14.7108 C   0  0  2  0  0  0  0  0  0  0  0  0
   21.5879   -6.3891  -15.4971 N   0  0  0  0  0  0  0  0  0  0  0  0
   21.8791   -4.7919  -13.7364 C   0  0  0  0  0  0  0  0  0  0  0  0
   22.5001   -4.3313  -12.5861 O   0  0  0  0  0  0  0  0  0  0  0  0
   20.7004   -4.4379  -13.9351 O   0  0  0  0  0  0  0  0  0  0  0  0
  2  1  1  0
  3  2  1  0
  3  4  2  0
  6  5  1  1
  6  8  1  0
  7  6  1  0
  8  9  1  1
  9  3  1  0
 10  8  1  0
 10 14  1  0
 11 10  2  0
 13 12  1  6
 13 14  1  0
 13 15  1  0
 15 17  2  0
 15 16  1  0
M  END
$$$$
