GVA.pdb
     RDKit          3D

 17 16  0  0  1  0  0  0  0  0999 V2000
   20.7382  -15.0121  -17.6990 N   0  0  0  0  0  0  0  0  0  0  0  0
   20.7938  -13.9212  -16.7778 C   0  0  0  0  0  0  0  0  0  0  0  0
   19.9202  -12.7656  -17.1910 C   0  0  0  0  0  0  0  0  0  0  0  0
   19.8668  -12.5547  -18.4319 O   0  0  0  0  0  0  0  0  0  0  0  0
   16.9881  -11.3347  -14.7877 C   0  0  0  0  0  0  0  0  0  0  0  0
   17.0241  -11.2300  -16.3216 C   0  0  2  0  0  0  0  0  0  0  0  0
   16.4990  -12.5361  -16.8310 C   0  0  0  0  0  0  0  0  0  0  0  0
   18.4190  -10.8871  -16.6774 C   0  0  2  0  0  0  0  0  0  0  0  0
   19.2322  -12.0064  -16.2084 N   0  0  0  0  0  0  0  0  0  0  0  0
   18.9634   -9.6374  -16.1465 C   0  0  0  0  0  0  0  0  0  0  0  0
   19.3159   -9.5656  -14.9410 O   0  0  0  0  0  0  0  0  0  0  0  0
   19.8700   -6.2039  -17.3745 C   0  0  0  0  0  0  0  0  0  0  0  0
   19.6009   -7.2154  -16.2988 C   0  0  2  0  0  0  0  0  0  0  0  0
   19.1343   -8.4499  -16.9103 N   0  0  0  0  0  0  0  0  0  0  0  0
   18.5033   -6.6655  -15.4430 C   0  0  0  0  0  0  0  0  0  0  0  0
   17.1757   -7.0046  -15.6523 O   0  0  0  0  0  0  0  0  0  0  0  0
   18.7559   -5.8794  -14.5090 O   0  0  0  0  0  0  0  0  0  0  0  0
  2  1  1  0
  3  2  1  0
  3  4  2  0
  6  5  1  1
  6  8  1  0
  7  6  1  0
  8  9  1  1
  9  3  1  0
 10  8  1  0
 10 14  1  0
 11 10  2  0
 13 12  1  6
 13 14  1  0
 13 15  1  0
 15 17  2  0
 15 16  1  0
M  END
$$$$
