GVA.pdb
     RDKit          3D

 17 16  0  0  1  0  0  0  0  0999 V2000
   24.8749  -11.1540  -15.4515 N   0  0  0  0  0  0  0  0  0  0  0  0
   23.8390  -10.5969  -14.6401 C   0  0  0  0  0  0  0  0  0  0  0  0
   22.9984   -9.5895  -15.3804 C   0  0  0  0  0  0  0  0  0  0  0  0
   23.3483   -9.3755  -16.5716 O   0  0  0  0  0  0  0  0  0  0  0  0
   19.8256  -10.0200  -16.2858 C   0  0  0  0  0  0  0  0  0  0  0  0
   19.7113   -8.6957  -15.5124 C   0  0  2  0  0  0  0  0  0  0  0  0
   18.6101   -7.9299  -16.1773 C   0  0  0  0  0  0  0  0  0  0  0  0
   21.0594   -8.0859  -15.5400 C   0  0  2  0  0  0  0  0  0  0  0  0
   21.9045   -8.9603  -14.7304 N   0  0  0  0  0  0  0  0  0  0  0  0
   21.1876   -6.7096  -15.0610 C   0  0  0  0  0  0  0  0  0  0  0  0
   20.9974   -6.4452  -13.8459 O   0  0  0  0  0  0  0  0  0  0  0  0
   22.2772   -3.3689  -16.3838 C   0  0  0  0  0  0  0  0  0  0  0  0
   21.6845   -4.2657  -15.3363 C   0  0  2  0  0  0  0  0  0  0  0  0
   21.5231   -5.6020  -15.8876 N   0  0  0  0  0  0  0  0  0  0  0  0
   20.3298   -3.7215  -15.0070 C   0  0  0  0  0  0  0  0  0  0  0  0
   20.1356   -2.8311  -13.9627 O   0  0  0  0  0  0  0  0  0  0  0  0
   19.3290   -4.0579  -15.6700 O   0  0  0  0  0  0  0  0  0  0  0  0
  2  1  1  0
  3  2  1  0
  3  4  2  0
  6  5  1  6
  6  8  1  0
  7  6  1  0
  8  9  1  1
  9  3  1  0
 10  8  1  0
 10 14  1  0
 11 10  2  0
 13 12  1  6
 13 14  1  0
 13 15  1  0
 15 17  2  0
 15 16  1  0
M  END
$$$$
