GVA.pdb
     RDKit          3D

 17 16  0  0  1  0  0  0  0  0999 V2000
   18.9712  -12.2516  -16.1191 N   0  0  0  0  0  0  0  0  0  0  0  0
   18.9634  -10.9639  -16.7383 C   0  0  0  0  0  0  0  0  0  0  0  0
   20.2312  -10.1899  -16.4872 C   0  0  0  0  0  0  0  0  0  0  0  0
   20.9043  -10.5765  -15.4949 O   0  0  0  0  0  0  0  0  0  0  0  0
   22.0511   -8.2317  -19.4567 C   0  0  0  0  0  0  0  0  0  0  0  0
   22.7442   -8.7634  -18.1910 C   0  0  2  0  0  0  0  0  0  0  0  0
   22.9967  -10.2169  -18.4454 C   0  0  0  0  0  0  0  0  0  0  0  0
   21.8490   -8.4293  -17.0610 C   0  0  2  0  0  0  0  0  0  0  0  0
   20.5888   -9.1134  -17.3407 N   0  0  0  0  0  0  0  0  0  0  0  0
   21.5847   -7.0134  -16.8050 C   0  0  0  0  0  0  0  0  0  0  0  0
   20.7161   -6.4026  -17.4796 O   0  0  0  0  0  0  0  0  0  0  0  0
   22.1752   -4.4907  -14.1632 C   0  0  0  0  0  0  0  0  0  0  0  0
   21.9287   -4.8384  -15.6023 C   0  0  2  0  0  0  0  0  0  0  0  0
   22.2544   -6.2396  -15.8174 N   0  0  0  0  0  0  0  0  0  0  0  0
   22.8613   -4.0033  -16.4224 C   0  0  0  0  0  0  0  0  0  0  0  0
   23.8782   -4.5703  -17.1744 O   0  0  0  0  0  0  0  0  0  0  0  0
   22.7476   -2.7622  -16.4515 O   0  0  0  0  0  0  0  0  0  0  0  0
  2  1  1  0
  3  2  1  0
  3  4  2  0
  6  5  1  6
  6  8  1  0
  7  6  1  0
  8  9  1  6
  9  3  1  0
 10  8  1  0
 10 14  1  0
 11 10  2  0
 13 12  1  1
 13 14  1  0
 13 15  1  0
 15 17  2  0
 15 16  1  0
M  END
$$$$
