GVA.pdb
     RDKit          3D

 17 16  0  0  1  0  0  0  0  0999 V2000
   18.1655  -13.5723  -16.1938 N   0  0  0  0  0  0  0  0  0  0  0  0
   18.8467  -12.5293  -16.8937 C   0  0  0  0  0  0  0  0  0  0  0  0
   19.1857  -11.3591  -16.0076 C   0  0  0  0  0  0  0  0  0  0  0  0
   18.4388  -11.2169  -15.0031 O   0  0  0  0  0  0  0  0  0  0  0  0
   22.2411  -10.8267  -14.4427 C   0  0  0  0  0  0  0  0  0  0  0  0
   22.0086   -9.4758  -15.1399 C   0  0  2  0  0  0  0  0  0  0  0  0
   22.5677   -8.4393  -14.2156 C   0  0  0  0  0  0  0  0  0  0  0  0
   20.5581   -9.4041  -15.4239 C   0  0  2  0  0  0  0  0  0  0  0  0
   20.2787  -10.5135  -16.3324 N   0  0  0  0  0  0  0  0  0  0  0  0
   20.0443   -8.1630  -16.0032 C   0  0  0  0  0  0  0  0  0  0  0  0
   20.4011   -7.8113  -17.1572 O   0  0  0  0  0  0  0  0  0  0  0  0
   17.3981   -5.6224  -15.2913 C   0  0  0  0  0  0  0  0  0  0  0  0
   18.6448   -6.0804  -15.9903 C   0  0  2  0  0  0  0  0  0  0  0  0
   19.1387   -7.2865  -15.3443 N   0  0  0  0  0  0  0  0  0  0  0  0
   19.6659   -4.9995  -15.8213 C   0  0  0  0  0  0  0  0  0  0  0  0
   19.6824   -3.8779  -16.6355 O   0  0  0  0  0  0  0  0  0  0  0  0
   20.5384   -5.0794  -14.9344 O   0  0  0  0  0  0  0  0  0  0  0  0
  2  1  1  0
  3  2  1  0
  3  4  2  0
  6  5  1  1
  6  8  1  0
  7  6  1  0
  8  9  1  6
  9  3  1  0
 10  8  1  0
 10 14  1  0
 11 10  2  0
 13 12  1  1
 13 14  1  0
 13 15  1  0
 15 17  2  0
 15 16  1  0
M  END
$$$$
