GVA.pdb
     RDKit          3D

 17 16  0  0  1  0  0  0  0  0999 V2000
   25.2080  -11.4716  -19.0939 N   0  0  0  0  0  0  0  0  0  0  0  0
   24.9674  -10.1217  -18.6918 C   0  0  0  0  0  0  0  0  0  0  0  0
   23.6943   -9.9682  -17.9012 C   0  0  0  0  0  0  0  0  0  0  0  0
   22.6769  -10.4998  -18.4203 O   0  0  0  0  0  0  0  0  0  0  0  0
   23.1728  -11.0768  -14.6769 C   0  0  0  0  0  0  0  0  0  0  0  0
   22.7238   -9.6100  -14.5669 C   0  0  2  0  0  0  0  0  0  0  0  0
   21.5780   -9.6064  -13.6033 C   0  0  0  0  0  0  0  0  0  0  0  0
   22.4355   -9.1638  -15.9481 C   0  0  2  0  0  0  0  0  0  0  0  0
   23.7027   -9.2652  -16.6679 N   0  0  0  0  0  0  0  0  0  0  0  0
   21.8862   -7.8191  -16.1222 C   0  0  0  0  0  0  0  0  0  0  0  0
   22.5239   -6.8190  -15.7031 O   0  0  0  0  0  0  0  0  0  0  0  0
   19.0853   -6.1301  -17.9330 C   0  0  0  0  0  0  0  0  0  0  0  0
   20.1427   -6.1765  -16.8688 C   0  0  2  0  0  0  0  0  0  0  0  0
   20.6422   -7.5376  -16.7512 N   0  0  0  0  0  0  0  0  0  0  0  0
   19.4848   -5.7994  -15.5786 C   0  0  0  0  0  0  0  0  0  0  0  0
   19.1631   -6.7471  -14.6197 O   0  0  0  0  0  0  0  0  0  0  0  0
   19.2053   -4.6104  -15.3289 O   0  0  0  0  0  0  0  0  0  0  0  0
  2  1  1  0
  3  2  1  0
  3  4  2  0
  6  5  1  6
  6  8  1  0
  7  6  1  0
  8  9  1  6
  9  3  1  0
 10  8  1  0
 10 14  1  0
 11 10  2  0
 13 12  1  6
 13 14  1  0
 13 15  1  0
 15 17  2  0
 15 16  1  0
M  END
$$$$
