GVA.pdb
     RDKit          3D

 17 16  0  0  1  0  0  0  0  0999 V2000
   21.6197  -11.6956  -18.4128 N   0  0  0  0  0  0  0  0  0  0  0  0
   22.4089  -10.7277  -17.7185 C   0  0  0  0  0  0  0  0  0  0  0  0
   21.6160   -9.9552  -16.6967 C   0  0  0  0  0  0  0  0  0  0  0  0
   20.3872   -9.8411  -16.9504 O   0  0  0  0  0  0  0  0  0  0  0  0
   22.6370   -9.6898  -12.9281 C   0  0  0  0  0  0  0  0  0  0  0  0
   21.2465   -9.2828  -13.4440 C   0  0  2  0  0  0  0  0  0  0  0  0
   20.4650  -10.5550  -13.5543 C   0  0  0  0  0  0  0  0  0  0  0  0
   21.4772   -8.5306  -14.6974 C   0  0  2  0  0  0  0  0  0  0  0  0
   22.2615   -9.4188  -15.5518 N   0  0  0  0  0  0  0  0  0  0  0  0
   22.1531   -7.2373  -14.5938 C   0  0  0  0  0  0  0  0  0  0  0  0
   23.3582   -7.1269  -14.9377 O   0  0  0  0  0  0  0  0  0  0  0  0
   22.5884   -4.3715  -15.4916 C   0  0  0  0  0  0  0  0  0  0  0  0
   22.2530   -4.7819  -14.0874 C   0  0  2  0  0  0  0  0  0  0  0  0
   21.5365   -6.0473  -14.1181 N   0  0  0  0  0  0  0  0  0  0  0  0
   21.3419   -3.7342  -13.5290 C   0  0  0  0  0  0  0  0  0  0  0  0
   21.8260   -2.5274  -13.0488 O   0  0  0  0  0  0  0  0  0  0  0  0
   20.1103   -3.9204  -13.4800 O   0  0  0  0  0  0  0  0  0  0  0  0
  2  1  1  0
  3  2  1  0
  3  4  2  0
  6  5  1  6
  6  8  1  0
  7  6  1  0
  8  9  1  6
  9  3  1  0
 10  8  1  0
 10 14  1  0
 11 10  2  0
 13 12  1  6
 13 14  1  0
 13 15  1  0
 15 17  2  0
 15 16  1  0
M  END
$$$$
