GVA.pdb
     RDKit          3D

 17 16  0  0  1  0  0  0  0  0999 V2000
   11.0455  -10.8899  -10.7757 N   0  0  0  0  0  0  0  0  0  0  0  0
   11.9881  -11.2325  -11.7935 C   0  0  0  0  0  0  0  0  0  0  0  0
   13.3163  -10.5453  -11.6116 C   0  0  0  0  0  0  0  0  0  0  0  0
   13.4073   -9.8249  -10.5820 O   0  0  0  0  0  0  0  0  0  0  0  0
   16.3828  -12.0554  -11.2629 C   0  0  0  0  0  0  0  0  0  0  0  0
   16.6658  -11.0691  -12.4084 C   0  0  2  0  0  0  0  0  0  0  0  0
   18.0779  -10.6120  -12.2123 C   0  0  0  0  0  0  0  0  0  0  0  0
   15.6119  -10.0334  -12.3288 C   0  0  2  0  0  0  0  0  0  0  0  0
   14.3518  -10.7340  -12.5641 N   0  0  0  0  0  0  0  0  0  0  0  0
   15.7120   -8.8967  -13.2442 C   0  0  0  0  0  0  0  0  0  0  0  0
   15.5979   -9.0746  -14.4843 O   0  0  0  0  0  0  0  0  0  0  0  0
   15.3902   -5.2313  -13.1614 C   0  0  0  0  0  0  0  0  0  0  0  0
   15.9726   -6.4622  -13.7926 C   0  0  2  0  0  0  0  0  0  0  0  0
   15.9360   -7.5541  -12.8323 N   0  0  0  0  0  0  0  0  0  0  0  0
   17.4029   -6.1582  -14.1111 C   0  0  0  0  0  0  0  0  0  0  0  0
   17.7634   -5.4604  -15.2532 O   0  0  0  0  0  0  0  0  0  0  0  0
   18.3183   -6.5283  -13.3501 O   0  0  0  0  0  0  0  0  0  0  0  0
  2  1  1  0
  3  2  1  0
  3  4  2  0
  6  5  1  1
  6  8  1  0
  7  6  1  0
  8  9  1  6
  9  3  1  0
 10  8  1  0
 10 14  1  0
 11 10  2  0
 13 12  1  1
 13 14  1  0
 13 15  1  0
 15 17  2  0
 15 16  1  0
M  END
$$$$
