GVA.pdb
     RDKit          3D

 17 16  0  0  1  0  0  0  0  0999 V2000
   21.8690  -11.8062  -19.5833 N   0  0  0  0  0  0  0  0  0  0  0  0
   22.2955  -11.4469  -18.2678 C   0  0  0  0  0  0  0  0  0  0  0  0
   21.4786  -10.3277  -17.6767 C   0  0  0  0  0  0  0  0  0  0  0  0
   20.7696   -9.6919  -18.5015 O   0  0  0  0  0  0  0  0  0  0  0  0
   18.8501  -10.5223  -15.6981 C   0  0  0  0  0  0  0  0  0  0  0  0
   19.7527   -9.6216  -14.8382 C   0  0  2  0  0  0  0  0  0  0  0  0
   18.8268   -8.7163  -14.0870 C   0  0  0  0  0  0  0  0  0  0  0  0
   20.7019   -8.9782  -15.7736 C   0  0  2  0  0  0  0  0  0  0  0  0
   21.5442  -10.0568  -16.2847 N   0  0  0  0  0  0  0  0  0  0  0  0
   21.5507   -7.9101  -15.2454 C   0  0  0  0  0  0  0  0  0  0  0  0
   22.3815   -8.1582  -14.3339 O   0  0  0  0  0  0  0  0  0  0  0  0
   22.2360   -4.2736  -15.9079 C   0  0  0  0  0  0  0  0  0  0  0  0
   22.4000   -5.5516  -15.1381 C   0  0  2  0  0  0  0  0  0  0  0  0
   21.5133   -6.5614  -15.6949 N   0  0  0  0  0  0  0  0  0  0  0  0
   21.9775   -5.2738  -13.7296 C   0  0  0  0  0  0  0  0  0  0  0  0
   20.6556   -5.3881  -13.3287 O   0  0  0  0  0  0  0  0  0  0  0  0
   22.8117   -4.9285  -12.8699 O   0  0  0  0  0  0  0  0  0  0  0  0
  2  1  1  0
  3  2  1  0
  3  4  2  0
  6  5  1  6
  6  8  1  0
  7  6  1  0
  8  9  1  1
  9  3  1  0
 10  8  1  0
 10 14  1  0
 11 10  2  0
 13 12  1  6
 13 14  1  0
 13 15  1  0
 15 17  2  0
 15 16  1  0
M  END
$$$$
