GVA.pdb
     RDKit          3D

 17 16  0  0  1  0  0  0  0  0999 V2000
   19.0715  -12.4064  -18.9418 N   0  0  0  0  0  0  0  0  0  0  0  0
   19.6753  -11.1117  -18.9093 C   0  0  0  0  0  0  0  0  0  0  0  0
   20.2495  -10.7713  -17.5588 C   0  0  0  0  0  0  0  0  0  0  0  0
   19.4150  -10.7476  -16.6152 O   0  0  0  0  0  0  0  0  0  0  0  0
   22.7505  -12.2898  -15.5663 C   0  0  0  0  0  0  0  0  0  0  0  0
   23.2813  -10.8639  -15.7904 C   0  0  2  0  0  0  0  0  0  0  0  0
   24.0308  -10.5082  -14.5442 C   0  0  0  0  0  0  0  0  0  0  0  0
   22.1017  -10.0333  -16.1198 C   0  0  2  0  0  0  0  0  0  0  0  0
   21.6373  -10.5064  -17.4216 N   0  0  0  0  0  0  0  0  0  0  0  0
   22.2901   -8.5835  -16.1707 C   0  0  0  0  0  0  0  0  0  0  0  0
   22.7382   -8.0426  -17.2144 O   0  0  0  0  0  0  0  0  0  0  0  0
   21.1261   -5.6381  -15.9865 C   0  0  0  0  0  0  0  0  0  0  0  0
   22.2392   -6.2694  -15.2022 C   0  0  2  0  0  0  0  0  0  0  0  0
   21.9967   -7.6996  -15.0958 N   0  0  0  0  0  0  0  0  0  0  0  0
   22.1991   -5.6779  -13.8281 C   0  0  0  0  0  0  0  0  0  0  0  0
   22.6984   -4.4121  -13.5641 O   0  0  0  0  0  0  0  0  0  0  0  0
   21.7106   -6.3142  -12.8738 O   0  0  0  0  0  0  0  0  0  0  0  0
  2  1  1  0
  3  2  1  0
  3  4  2  0
  6  5  1  1
  6  8  1  0
  7  6  1  0
  8  9  1  6
  9  3  1  0
 10  8  1  0
 10 14  1  0
 11 10  2  0
 13 12  1  6
 13 14  1  0
 13 15  1  0
 15 17  2  0
 15 16  1  0
M  END
$$$$
