ELQ.pdb
     RDKit          3D

 27 26  0  0  1  0  0  0  0  0999 V2000
    9.3426  -17.8018   19.2777 N   0  0  0  0  0  0  0  0  0  0  0  0
   10.6099  -17.3565   19.7270 C   0  0  1  0  0  0  0  0  0  0  0  0
   11.5704  -16.8547   18.7176 C   0  0  0  0  0  0  0  0  0  0  0  0
   11.7164  -17.6414   17.4580 C   0  0  0  0  0  0  0  0  0  0  0  0
   12.7451  -17.1224   16.5544 C   0  0  0  0  0  0  0  0  0  0  0  0
   12.9800  -17.6236   15.4475 O   0  0  0  0  0  0  0  0  0  0  0  0
   10.3936  -16.2726   20.7589 C   0  0  0  0  0  0  0  0  0  0  0  0
   11.3644  -15.8419   21.3871 O   0  0  0  0  0  0  0  0  0  0  0  0
   13.5042  -16.0152   16.9401 O   0  0  0  0  0  0  0  0  0  0  0  0
    6.5204  -12.6515   19.6378 C   0  0  0  0  0  0  0  0  0  0  0  0
    7.7251  -13.4246   20.1374 C   0  0  1  0  0  0  0  0  0  0  0  0
    8.8930  -12.4084   20.2740 C   0  0  0  0  0  0  0  0  0  0  0  0
    7.5016  -13.9664   21.5264 C   0  0  0  0  0  0  0  0  0  0  0  0
    8.7060  -14.8114   21.8963 C   0  0  2  0  0  0  0  0  0  0  0  0
    9.0772  -15.8049   20.9507 N   0  0  0  0  0  0  0  0  0  0  0  0
    8.6993  -15.2565   23.2959 C   0  0  0  0  0  0  0  0  0  0  0  0
    8.4357  -14.4819   24.2597 O   0  0  0  0  0  0  0  0  0  0  0  0
    6.8387  -20.7280   27.7452 N   0  0  0  0  0  0  0  0  0  0  0  0
    7.0026  -19.9522   26.5930 C   0  0  0  0  0  0  0  0  0  0  0  0
    6.3681  -20.2759   25.5549 O   0  0  0  0  0  0  0  0  0  0  0  0
    7.8840  -18.7524   26.4949 C   0  0  0  0  0  0  0  0  0  0  0  0
    7.9341  -18.1936   25.1243 C   0  0  0  0  0  0  0  0  0  0  0  0
    8.9403  -17.0729   25.0328 C   0  0  2  0  0  0  0  0  0  0  0  0
    8.9940  -16.5950   23.6228 N   0  0  0  0  0  0  0  0  0  0  0  0
   10.3129  -17.4510   25.4314 C   0  0  0  0  0  0  0  0  0  0  0  0
   11.2208  -17.6776   24.5605 O   0  0  0  0  0  0  0  0  0  0  0  0
   10.7029  -17.5804   26.7442 O   0  0  0  0  0  0  0  0  0  0  0  0
  2  1  1  6
  2  3  1  0
  3  4  1  0
  4  5  1  0
  5  6  2  0
  5  9  1  0
  7  8  2  0
  7  2  1  0
 11 10  1  1
 11 13  1  0
 12 11  1  0
 14 13  1  6
 14 15  1  0
 15  7  1  0
 16 17  2  0
 16 14  1  0
 19 18  1  0
 20 19  2  0
 21 19  1  0
 22 21  1  0
 23 22  1  6
 23 24  1  0
 24 16  1  0
 25 23  1  0
 26 25  2  0
 27 25  1  0
M  END
$$$$
