ELQ.pdb
     RDKit          3D

 27 26  0  0  1  0  0  0  0  0999 V2000
    8.4855  -15.7180   20.5337 N   0  0  0  0  0  0  0  0  0  0  0  0
    8.9002  -16.5575   21.5965 C   0  0  1  0  0  0  0  0  0  0  0  0
   10.0506  -17.4605   21.3632 C   0  0  0  0  0  0  0  0  0  0  0  0
   10.0969  -18.1920   20.0634 C   0  0  0  0  0  0  0  0  0  0  0  0
   11.3503  -18.0101   19.3286 C   0  0  0  0  0  0  0  0  0  0  0  0
   12.3001  -17.3544   19.7752 O   0  0  0  0  0  0  0  0  0  0  0  0
    9.2120  -15.6882   22.7938 C   0  0  0  0  0  0  0  0  0  0  0  0
   10.3544  -15.6992   23.2603 O   0  0  0  0  0  0  0  0  0  0  0  0
   11.4996  -18.5936   18.0685 O   0  0  0  0  0  0  0  0  0  0  0  0
    8.4036  -11.7812   26.3082 C   0  0  0  0  0  0  0  0  0  0  0  0
    7.2884  -12.8083   26.3095 C   0  0  1  0  0  0  0  0  0  0  0  0
    5.9798  -12.0583   26.6842 C   0  0  0  0  0  0  0  0  0  0  0  0
    7.0472  -13.3695   24.9312 C   0  0  0  0  0  0  0  0  0  0  0  0
    8.1379  -14.3839   24.6437 C   0  0  2  0  0  0  0  0  0  0  0  0
    8.1677  -14.9004   23.3203 N   0  0  0  0  0  0  0  0  0  0  0  0
    8.2985  -15.3853   25.7059 C   0  0  0  0  0  0  0  0  0  0  0  0
    7.4051  -16.2343   25.9877 O   0  0  0  0  0  0  0  0  0  0  0  0
   12.6313  -19.1987   24.9657 N   0  0  0  0  0  0  0  0  0  0  0  0
   12.2880  -19.4621   26.2956 C   0  0  0  0  0  0  0  0  0  0  0  0
   12.7742  -20.4817   26.8515 O   0  0  0  0  0  0  0  0  0  0  0  0
   11.3764  -18.6173   27.1211 C   0  0  0  0  0  0  0  0  0  0  0  0
   10.8732  -17.4353   26.3842 C   0  0  0  0  0  0  0  0  0  0  0  0
    9.8678  -16.6703   27.2094 C   0  0  2  0  0  0  0  0  0  0  0  0
    9.4826  -15.4370   26.4678 N   0  0  0  0  0  0  0  0  0  0  0  0
   10.3588  -16.2584   28.5418 C   0  0  0  0  0  0  0  0  0  0  0  0
   10.7881  -15.0736   28.7562 O   0  0  0  0  0  0  0  0  0  0  0  0
   10.3848  -17.1054   29.6253 O   0  0  0  0  0  0  0  0  0  0  0  0
  2  1  1  6
  2  3  1  0
  3  4  1  0
  4  5  1  0
  5  6  2  0
  5  9  1  0
  7  8  2  0
  7  2  1  0
 11 10  1  6
 11 13  1  0
 12 11  1  0
 14 13  1  1
 14 15  1  0
 15  7  1  0
 16 17  2  0
 16 14  1  0
 19 18  1  0
 20 19  2  0
 21 19  1  0
 22 21  1  0
 23 22  1  6
 23 24  1  0
 24 16  1  0
 25 23  1  0
 26 25  2  0
 27 25  1  0
M  END
$$$$
