ELQ.pdb
     RDKit          3D

 27 26  0  0  1  0  0  0  0  0999 V2000
    6.6665  -15.5508   21.4267 N   0  0  0  0  0  0  0  0  0  0  0  0
    7.9503  -16.1270   21.5879 C   0  0  1  0  0  0  0  0  0  0  0  0
    8.9344  -15.9531   20.4950 C   0  0  0  0  0  0  0  0  0  0  0  0
    8.5266  -16.3900   19.1277 C   0  0  0  0  0  0  0  0  0  0  0  0
    9.5058  -17.2567   18.4690 C   0  0  0  0  0  0  0  0  0  0  0  0
    9.8010  -18.3803   18.8958 O   0  0  0  0  0  0  0  0  0  0  0  0
    8.5556  -15.5877   22.8643 C   0  0  0  0  0  0  0  0  0  0  0  0
    9.7830  -15.5880   22.9916 O   0  0  0  0  0  0  0  0  0  0  0  0
   10.1448  -16.8146   17.3083 O   0  0  0  0  0  0  0  0  0  0  0  0
    5.7852  -11.8876   25.7454 C   0  0  0  0  0  0  0  0  0  0  0  0
    6.8731  -12.7642   25.1568 C   0  0  1  0  0  0  0  0  0  0  0  0
    8.1934  -11.9458   25.2069 C   0  0  0  0  0  0  0  0  0  0  0  0
    7.1258  -13.9835   26.0066 C   0  0  0  0  0  0  0  0  0  0  0  0
    8.0205  -14.9226   25.2198 C   0  0  2  0  0  0  0  0  0  0  0  0
    7.6741  -15.1059   23.8540 N   0  0  0  0  0  0  0  0  0  0  0  0
    8.3578  -16.1534   25.9465 C   0  0  0  0  0  0  0  0  0  0  0  0
    7.5969  -17.1628   25.9744 O   0  0  0  0  0  0  0  0  0  0  0  0
   12.7596  -18.9991   23.7140 N   0  0  0  0  0  0  0  0  0  0  0  0
   12.6810  -19.6490   24.9499 C   0  0  0  0  0  0  0  0  0  0  0  0
   13.4035  -20.6615   25.1439 O   0  0  0  0  0  0  0  0  0  0  0  0
   11.7943  -19.2310   26.0747 C   0  0  0  0  0  0  0  0  0  0  0  0
   11.0936  -17.9549   25.8029 C   0  0  0  0  0  0  0  0  0  0  0  0
   10.1826  -17.5829   26.9470 C   0  0  2  0  0  0  0  0  0  0  0  0
    9.5705  -16.2561   26.6564 N   0  0  0  0  0  0  0  0  0  0  0  0
   10.8579  -17.4884   28.2589 C   0  0  0  0  0  0  0  0  0  0  0  0
   11.0465  -16.3610   28.8311 O   0  0  0  0  0  0  0  0  0  0  0  0
   11.3197  -18.5878   28.9446 O   0  0  0  0  0  0  0  0  0  0  0  0
  2  1  1  6
  2  3  1  0
  3  4  1  0
  4  5  1  0
  5  6  2  0
  5  9  1  0
  7  8  2  0
  7  2  1  0
 11 10  1  1
 11 13  1  0
 12 11  1  0
 14 13  1  1
 14 15  1  0
 15  7  1  0
 16 17  2  0
 16 14  1  0
 19 18  1  0
 20 19  2  0
 21 19  1  0
 22 21  1  0
 23 22  1  6
 23 24  1  0
 24 16  1  0
 25 23  1  0
 26 25  2  0
 27 25  1  0
M  END
$$$$
