ELQ.pdb
     RDKit          3D

 27 26  0  0  1  0  0  0  0  0999 V2000
    7.5877  -16.6465   22.2678 N   0  0  0  0  0  0  0  0  0  0  0  0
    8.9868  -16.6106   22.4860 C   0  0  1  0  0  0  0  0  0  0  0  0
    9.8419  -16.0212   21.4303 C   0  0  0  0  0  0  0  0  0  0  0  0
    9.7230  -16.5871   20.0547 C   0  0  0  0  0  0  0  0  0  0  0  0
   10.9302  -16.4217   19.2426 C   0  0  0  0  0  0  0  0  0  0  0  0
   11.7548  -17.3292   19.0747 O   0  0  0  0  0  0  0  0  0  0  0  0
    9.2466  -15.8699   23.7784 C   0  0  0  0  0  0  0  0  0  0  0  0
   10.4083  -15.5853   24.0822 O   0  0  0  0  0  0  0  0  0  0  0  0
   11.1795  -15.1950   18.6230 O   0  0  0  0  0  0  0  0  0  0  0  0
    5.5053  -12.2586   25.3959 C   0  0  0  0  0  0  0  0  0  0  0  0
    6.7637  -13.0655   25.1433 C   0  0  1  0  0  0  0  0  0  0  0  0
    7.9597  -12.0751   25.2079 C   0  0  0  0  0  0  0  0  0  0  0  0
    7.0131  -14.0663   26.2428 C   0  0  0  0  0  0  0  0  0  0  0  0
    8.2143  -14.9041   25.8468 C   0  0  2  0  0  0  0  0  0  0  0  0
    8.1333  -15.5385   24.5780 N   0  0  0  0  0  0  0  0  0  0  0  0
    8.7194  -15.7514   26.9348 C   0  0  0  0  0  0  0  0  0  0  0  0
    8.9542  -15.3084   28.0954 O   0  0  0  0  0  0  0  0  0  0  0  0
    6.2467  -20.8364   28.8051 N   0  0  0  0  0  0  0  0  0  0  0  0
    6.8354  -20.7801   27.5377 C   0  0  0  0  0  0  0  0  0  0  0  0
    6.4458  -21.5913   26.6572 O   0  0  0  0  0  0  0  0  0  0  0  0
    7.9058  -19.8199   27.1399 C   0  0  0  0  0  0  0  0  0  0  0  0
    8.2800  -18.8983   28.2372 C   0  0  0  0  0  0  0  0  0  0  0  0
    9.4251  -18.0051   27.8275 C   0  0  2  0  0  0  0  0  0  0  0  0
    8.9670  -17.1215   26.7190 N   0  0  0  0  0  0  0  0  0  0  0  0
   10.6259  -18.7288   27.3582 C   0  0  0  0  0  0  0  0  0  0  0  0
   10.9774  -18.7090   26.1293 O   0  0  0  0  0  0  0  0  0  0  0  0
   11.4361  -19.4587   28.1966 O   0  0  0  0  0  0  0  0  0  0  0  0
  2  1  1  6
  2  3  1  0
  3  4  1  0
  4  5  1  0
  5  6  2  0
  5  9  1  0
  7  8  2  0
  7  2  1  0
 11 10  1  1
 11 13  1  0
 12 11  1  0
 14 13  1  1
 14 15  1  0
 15  7  1  0
 16 17  2  0
 16 14  1  0
 19 18  1  0
 20 19  2  0
 21 19  1  0
 22 21  1  0
 23 22  1  6
 23 24  1  0
 24 16  1  0
 25 23  1  0
 26 25  2  0
 27 25  1  0
M  END
$$$$
