ELQ.pdb
     RDKit          3D

 27 26  0  0  1  0  0  0  0  0999 V2000
    9.6517  -15.6920   20.3987 N   0  0  0  0  0  0  0  0  0  0  0  0
    8.7761  -16.1659   21.4061 C   0  0  1  0  0  0  0  0  0  0  0  0
    8.7717  -17.6176   21.6993 C   0  0  0  0  0  0  0  0  0  0  0  0
    8.7704  -18.5529   20.5366 C   0  0  0  0  0  0  0  0  0  0  0  0
    8.7870  -19.9667   20.9171 C   0  0  0  0  0  0  0  0  0  0  0  0
    9.6891  -20.7423   20.5759 O   0  0  0  0  0  0  0  0  0  0  0  0
    9.0798  -15.4222   22.6872 C   0  0  0  0  0  0  0  0  0  0  0  0
   10.2444  -15.3788   23.0926 O   0  0  0  0  0  0  0  0  0  0  0  0
    7.7494  -20.4811   21.6980 O   0  0  0  0  0  0  0  0  0  0  0  0
    8.2491  -11.6156   26.2934 C   0  0  0  0  0  0  0  0  0  0  0  0
    7.2417  -12.7433   26.4022 C   0  0  1  0  0  0  0  0  0  0  0  0
    5.9092  -12.1165   26.8994 C   0  0  0  0  0  0  0  0  0  0  0  0
    6.9251  -13.3387   25.0538 C   0  0  0  0  0  0  0  0  0  0  0  0
    8.0861  -14.2294   24.6536 C   0  0  2  0  0  0  0  0  0  0  0  0
    8.0022  -14.8088   23.3590 N   0  0  0  0  0  0  0  0  0  0  0  0
    8.5130  -15.1459   25.7188 C   0  0  0  0  0  0  0  0  0  0  0  0
    7.7943  -16.1020   26.1287 O   0  0  0  0  0  0  0  0  0  0  0  0
   11.9368  -19.2756   25.8332 N   0  0  0  0  0  0  0  0  0  0  0  0
   12.0640  -18.8949   27.1730 C   0  0  0  0  0  0  0  0  0  0  0  0
   12.0181  -19.7882   28.0589 O   0  0  0  0  0  0  0  0  0  0  0  0
   12.2526  -17.4916   27.6433 C   0  0  0  0  0  0  0  0  0  0  0  0
   11.6398  -16.4986   26.7313 C   0  0  0  0  0  0  0  0  0  0  0  0
   10.3078  -16.0266   27.2606 C   0  0  2  0  0  0  0  0  0  0  0  0
    9.7691  -14.9888   26.3375 N   0  0  0  0  0  0  0  0  0  0  0  0
   10.3637  -15.4374   28.6155 C   0  0  0  0  0  0  0  0  0  0  0  0
   10.5198  -16.1673   29.6532 O   0  0  0  0  0  0  0  0  0  0  0  0
   10.2564  -14.0862   28.8497 O   0  0  0  0  0  0  0  0  0  0  0  0
  2  1  1  6
  2  3  1  0
  3  4  1  0
  4  5  1  0
  5  6  2  0
  5  9  1  0
  7  8  2  0
  7  2  1  0
 11 10  1  6
 11 13  1  0
 12 11  1  0
 14 13  1  1
 14 15  1  0
 15  7  1  0
 16 17  2  0
 16 14  1  0
 19 18  1  0
 20 19  2  0
 21 19  1  0
 22 21  1  0
 23 22  1  6
 23 24  1  0
 24 16  1  0
 25 23  1  0
 26 25  2  0
 27 25  1  0
M  END
$$$$
