ELQ.pdb
     RDKit          3D

 27 26  0  0  1  0  0  0  0  0999 V2000
    7.6963  -16.0355   21.5869 N   0  0  0  0  0  0  0  0  0  0  0  0
    8.9169  -16.5029   22.1327 C   0  0  1  0  0  0  0  0  0  0  0  0
   10.1114  -16.5173   21.2574 C   0  0  0  0  0  0  0  0  0  0  0  0
    9.9155  -16.9230   19.8348 C   0  0  0  0  0  0  0  0  0  0  0  0
   11.1529  -16.9457   19.0523 C   0  0  0  0  0  0  0  0  0  0  0  0
   12.2558  -16.6559   19.5333 O   0  0  0  0  0  0  0  0  0  0  0  0
    9.2351  -15.6778   23.3593 C   0  0  0  0  0  0  0  0  0  0  0  0
   10.3919  -15.2850   23.5331 O   0  0  0  0  0  0  0  0  0  0  0  0
   11.1074  -17.3072   17.7039 O   0  0  0  0  0  0  0  0  0  0  0  0
    5.5422  -12.3955   25.7513 C   0  0  0  0  0  0  0  0  0  0  0  0
    6.8582  -13.0369   25.3573 C   0  0  1  0  0  0  0  0  0  0  0  0
    7.9789  -12.0083   25.6756 C   0  0  0  0  0  0  0  0  0  0  0  0
    7.1671  -14.2417   26.2093 C   0  0  0  0  0  0  0  0  0  0  0  0
    8.3529  -14.9580   25.5910 C   0  0  2  0  0  0  0  0  0  0  0  0
    8.1792  -15.3965   24.2507 N   0  0  0  0  0  0  0  0  0  0  0  0
    8.9769  -15.9376   26.4899 C   0  0  0  0  0  0  0  0  0  0  0  0
    8.3844  -16.9843   26.8797 O   0  0  0  0  0  0  0  0  0  0  0  0
   13.8206  -15.7398   25.2222 N   0  0  0  0  0  0  0  0  0  0  0  0
   13.2945  -17.0331   25.1402 C   0  0  0  0  0  0  0  0  0  0  0  0
   13.4605  -17.6834   24.0751 O   0  0  0  0  0  0  0  0  0  0  0  0
   12.5399  -17.7142   26.2324 C   0  0  0  0  0  0  0  0  0  0  0  0
   12.3965  -16.8673   27.4388 C   0  0  0  0  0  0  0  0  0  0  0  0
   10.9485  -16.7441   27.8451 C   0  0  2  0  0  0  0  0  0  0  0  0
   10.2897  -15.7411   26.9621 N   0  0  0  0  0  0  0  0  0  0  0  0
   10.7417  -16.3149   29.2448 C   0  0  0  0  0  0  0  0  0  0  0  0
   10.2543  -15.1667   29.5241 O   0  0  0  0  0  0  0  0  0  0  0  0
   11.0513  -17.1082   30.3250 O   0  0  0  0  0  0  0  0  0  0  0  0
  2  1  1  6
  2  3  1  0
  3  4  1  0
  4  5  1  0
  5  6  2  0
  5  9  1  0
  7  8  2  0
  7  2  1  0
 11 10  1  1
 11 13  1  0
 12 11  1  0
 14 13  1  1
 14 15  1  0
 15  7  1  0
 16 17  2  0
 16 14  1  0
 19 18  1  0
 20 19  2  0
 21 19  1  0
 22 21  1  0
 23 22  1  6
 23 24  1  0
 24 16  1  0
 25 23  1  0
 26 25  2  0
 27 25  1  0
M  END
$$$$
