ELQ.pdb
     RDKit          3D

 27 26  0  0  1  0  0  0  0  0999 V2000
    8.2981  -16.1899   19.6861 N   0  0  0  0  0  0  0  0  0  0  0  0
    8.3834  -17.0451   20.8119 C   0  0  1  0  0  0  0  0  0  0  0  0
    9.2145  -18.2656   20.6987 C   0  0  0  0  0  0  0  0  0  0  0  0
    8.5057  -19.5623   20.4915 C   0  0  0  0  0  0  0  0  0  0  0  0
    9.2842  -20.7323   20.9026 C   0  0  0  0  0  0  0  0  0  0  0  0
    9.0761  -21.3375   21.9619 O   0  0  0  0  0  0  0  0  0  0  0  0
    8.8844  -16.2350   21.9864 C   0  0  0  0  0  0  0  0  0  0  0  0
   10.0607  -15.8626   21.9985 O   0  0  0  0  0  0  0  0  0  0  0  0
   10.3096  -21.2005   20.0779 O   0  0  0  0  0  0  0  0  0  0  0  0
    5.6531  -12.4017   24.0760 C   0  0  0  0  0  0  0  0  0  0  0  0
    6.7594  -13.3330   23.6208 C   0  0  1  0  0  0  0  0  0  0  0  0
    8.0211  -12.4577   23.3812 C   0  0  0  0  0  0  0  0  0  0  0  0
    7.1479  -14.3067   24.7042 C   0  0  0  0  0  0  0  0  0  0  0  0
    8.2748  -15.1714   24.1714 C   0  0  2  0  0  0  0  0  0  0  0  0
    7.9687  -15.9433   23.0184 N   0  0  0  0  0  0  0  0  0  0  0  0
    9.0083  -15.8879   25.2228 C   0  0  0  0  0  0  0  0  0  0  0  0
    9.2016  -15.4038   26.3747 O   0  0  0  0  0  0  0  0  0  0  0  0
    8.3025  -20.0477   29.1146 N   0  0  0  0  0  0  0  0  0  0  0  0
    7.6951  -19.9406   27.8594 C   0  0  0  0  0  0  0  0  0  0  0  0
    6.7007  -20.6708   27.6083 O   0  0  0  0  0  0  0  0  0  0  0  0
    8.1393  -19.0151   26.7767 C   0  0  0  0  0  0  0  0  0  0  0  0
    9.2683  -18.1520   27.1936 C   0  0  0  0  0  0  0  0  0  0  0  0
   10.2327  -17.9336   26.0538 C   0  0  2  0  0  0  0  0  0  0  0  0
    9.5360  -17.1715   24.9798 N   0  0  0  0  0  0  0  0  0  0  0  0
   10.7591  -19.1776   25.4528 C   0  0  0  0  0  0  0  0  0  0  0  0
   10.4155  -19.5469   24.2782 O   0  0  0  0  0  0  0  0  0  0  0  0
   11.6418  -20.0084   26.1028 O   0  0  0  0  0  0  0  0  0  0  0  0
  2  1  1  6
  2  3  1  0
  3  4  1  0
  4  5  1  0
  5  6  2  0
  5  9  1  0
  7  8  2  0
  7  2  1  0
 11 10  1  1
 11 13  1  0
 12 11  1  0
 14 13  1  1
 14 15  1  0
 15  7  1  0
 16 17  2  0
 16 14  1  0
 19 18  1  0
 20 19  2  0
 21 19  1  0
 22 21  1  0
 23 22  1  1
 23 24  1  0
 24 16  1  0
 25 23  1  0
 26 25  2  0
 27 25  1  0
M  END
$$$$
