ELQ.pdb
     RDKit          3D

 27 26  0  0  1  0  0  0  0  0999 V2000
    9.1565  -18.5153   20.3123 N   0  0  0  0  0  0  0  0  0  0  0  0
   10.3969  -17.8532   20.4838 C   0  0  1  0  0  0  0  0  0  0  0  0
   11.1681  -17.4932   19.2719 C   0  0  0  0  0  0  0  0  0  0  0  0
   11.4355  -18.5765   18.2811 C   0  0  0  0  0  0  0  0  0  0  0  0
   12.3830  -18.1953   17.2318 C   0  0  0  0  0  0  0  0  0  0  0  0
   12.0371  -17.6152   16.1948 O   0  0  0  0  0  0  0  0  0  0  0  0
   10.1560  -16.5946   21.2865 C   0  0  0  0  0  0  0  0  0  0  0  0
   11.1258  -15.9571   21.7057 O   0  0  0  0  0  0  0  0  0  0  0  0
   13.7391  -18.4902   17.3894 O   0  0  0  0  0  0  0  0  0  0  0  0
    6.4711  -13.1874   19.5872 C   0  0  0  0  0  0  0  0  0  0  0  0
    7.6150  -13.9074   20.2740 C   0  0  1  0  0  0  0  0  0  0  0  0
    8.7904  -12.8962   20.3804 C   0  0  0  0  0  0  0  0  0  0  0  0
    7.2699  -14.2707   21.6959 C   0  0  0  0  0  0  0  0  0  0  0  0
    8.4265  -15.0697   22.2665 C   0  0  2  0  0  0  0  0  0  0  0  0
    8.8186  -16.2106   21.5159 N   0  0  0  0  0  0  0  0  0  0  0  0
    8.3303  -15.2820   23.7165 C   0  0  0  0  0  0  0  0  0  0  0  0
    7.9754  -14.3726   24.5200 O   0  0  0  0  0  0  0  0  0  0  0  0
    5.7662  -20.0184   26.6499 N   0  0  0  0  0  0  0  0  0  0  0  0
    6.9236  -20.2136   25.8894 C   0  0  0  0  0  0  0  0  0  0  0  0
    7.1927  -21.3774   25.4918 O   0  0  0  0  0  0  0  0  0  0  0  0
    7.8803  -19.1348   25.5059 C   0  0  0  0  0  0  0  0  0  0  0  0
    7.4602  -17.8015   25.9951 C   0  0  0  0  0  0  0  0  0  0  0  0
    8.5334  -16.7703   25.7458 C   0  0  2  0  0  0  0  0  0  0  0  0
    8.6379  -16.5371   24.2781 N   0  0  0  0  0  0  0  0  0  0  0  0
    9.8743  -17.1541   26.2364 C   0  0  0  0  0  0  0  0  0  0  0  0
   10.8358  -17.3924   25.4285 O   0  0  0  0  0  0  0  0  0  0  0  0
   10.1763  -17.2766   27.5727 O   0  0  0  0  0  0  0  0  0  0  0  0
  2  1  1  6
  2  3  1  0
  3  4  1  0
  4  5  1  0
  5  6  2  0
  5  9  1  0
  7  8  2  0
  7  2  1  0
 11 10  1  1
 11 13  1  0
 12 11  1  0
 14 13  1  6
 14 15  1  0
 15  7  1  0
 16 17  2  0
 16 14  1  0
 19 18  1  0
 20 19  2  0
 21 19  1  0
 22 21  1  0
 23 22  1  6
 23 24  1  0
 24 16  1  0
 25 23  1  0
 26 25  2  0
 27 25  1  0
M  END
$$$$
