ELQ.pdb
     RDKit          3D

 27 26  0  0  1  0  0  0  0  0999 V2000
   12.3964  -15.8947   15.9760 N   0  0  0  0  0  0  0  0  0  0  0  0
   11.1535  -16.2956   16.5243 C   0  0  1  0  0  0  0  0  0  0  0  0
   10.8015  -17.7332   16.4755 C   0  0  0  0  0  0  0  0  0  0  0  0
   11.8276  -18.7079   16.9486 C   0  0  0  0  0  0  0  0  0  0  0  0
   11.4306  -20.1078   16.7857 C   0  0  0  0  0  0  0  0  0  0  0  0
   10.3461  -20.4442   16.2933 O   0  0  0  0  0  0  0  0  0  0  0  0
   11.1021  -15.8411   17.9656 C   0  0  0  0  0  0  0  0  0  0  0  0
   12.1460  -15.8160   18.6231 O   0  0  0  0  0  0  0  0  0  0  0  0
   12.2989  -21.1214   17.1974 O   0  0  0  0  0  0  0  0  0  0  0  0
    8.8487  -12.5202   18.8878 C   0  0  0  0  0  0  0  0  0  0  0  0
    8.3404  -13.0784   20.2025 C   0  0  1  0  0  0  0  0  0  0  0  0
    6.8843  -12.5655   20.3818 C   0  0  0  0  0  0  0  0  0  0  0  0
    8.2332  -14.5817   20.1644 C   0  0  0  0  0  0  0  0  0  0  0  0
    9.6089  -15.1392   19.8510 C   0  0  2  0  0  0  0  0  0  0  0  0
    9.8478  -15.4645   18.4887 N   0  0  0  0  0  0  0  0  0  0  0  0
   10.0664  -16.1437   20.8198 C   0  0  0  0  0  0  0  0  0  0  0  0
   10.3433  -17.3335   20.4939 O   0  0  0  0  0  0  0  0  0  0  0  0
   15.2655  -16.3599   21.5092 N   0  0  0  0  0  0  0  0  0  0  0  0
   14.9538  -16.9509   22.7379 C   0  0  0  0  0  0  0  0  0  0  0  0
   15.8886  -17.4428   23.4229 O   0  0  0  0  0  0  0  0  0  0  0  0
   13.5793  -17.0465   23.3103 C   0  0  0  0  0  0  0  0  0  0  0  0
   12.5490  -16.4713   22.4155 C   0  0  0  0  0  0  0  0  0  0  0  0
   11.1816  -16.5385   23.0502 C   0  0  2  0  0  0  0  0  0  0  0  0
   10.2164  -15.8097   22.1804 N   0  0  0  0  0  0  0  0  0  0  0  0
   11.1062  -15.9437   24.4017 C   0  0  0  0  0  0  0  0  0  0  0  0
   10.6231  -14.7751   24.5889 O   0  0  0  0  0  0  0  0  0  0  0  0
   11.5403  -16.5957   25.5324 O   0  0  0  0  0  0  0  0  0  0  0  0
  2  1  1  1
  2  3  1  0
  3  4  1  0
  4  5  1  0
  5  6  2  0
  5  9  1  0
  7  8  2  0
  7  2  1  0
 11 10  1  6
 11 13  1  0
 12 11  1  0
 14 13  1  6
 14 15  1  0
 15  7  1  0
 16 17  2  0
 16 14  1  0
 19 18  1  0
 20 19  2  0
 21 19  1  0
 22 21  1  0
 23 22  1  6
 23 24  1  0
 24 16  1  0
 25 23  1  0
 26 25  2  0
 27 25  1  0
M  END
$$$$
