ELQ.pdb
     RDKit          3D

 27 26  0  0  1  0  0  0  0  0999 V2000
    7.4231  -18.0323   22.1568 N   0  0  0  0  0  0  0  0  0  0  0  0
    8.6979  -17.5166   21.8179 C   0  0  1  0  0  0  0  0  0  0  0  0
    9.0324  -17.3729   20.3824 C   0  0  0  0  0  0  0  0  0  0  0  0
    7.9988  -16.7656   19.4938 C   0  0  0  0  0  0  0  0  0  0  0  0
    8.5347  -16.2500   18.2325 C   0  0  0  0  0  0  0  0  0  0  0  0
    9.7395  -16.2847   17.9519 O   0  0  0  0  0  0  0  0  0  0  0  0
    8.8555  -16.1669   22.4811 C   0  0  0  0  0  0  0  0  0  0  0  0
    9.8388  -15.4748   22.2040 O   0  0  0  0  0  0  0  0  0  0  0  0
    7.6651  -15.6912   17.2931 O   0  0  0  0  0  0  0  0  0  0  0  0
    7.7168  -11.8304   25.1857 C   0  0  0  0  0  0  0  0  0  0  0  0
    7.1888  -13.0560   25.9051 C   0  0  1  0  0  0  0  0  0  0  0  0
    5.8786  -12.6314   26.6253 C   0  0  0  0  0  0  0  0  0  0  0  0
    6.7808  -14.1369   24.9367 C   0  0  0  0  0  0  0  0  0  0  0  0
    8.0437  -14.7954   24.4142 C   0  0  2  0  0  0  0  0  0  0  0  0
    7.8572  -15.7650   23.3924 N   0  0  0  0  0  0  0  0  0  0  0  0
    8.9822  -15.1827   25.4754 C   0  0  0  0  0  0  0  0  0  0  0  0
    9.8273  -14.3819   25.9683 O   0  0  0  0  0  0  0  0  0  0  0  0
    8.5876  -19.8402   29.9346 N   0  0  0  0  0  0  0  0  0  0  0  0
    8.5034  -20.0697   28.5575 C   0  0  0  0  0  0  0  0  0  0  0  0
    8.1419  -21.2077   28.1585 O   0  0  0  0  0  0  0  0  0  0  0  0
    8.8134  -19.0566   27.5069 C   0  0  0  0  0  0  0  0  0  0  0  0
    9.1806  -17.7399   28.0768 C   0  0  0  0  0  0  0  0  0  0  0  0
    9.9247  -16.9011   27.0669 C   0  0  2  0  0  0  0  0  0  0  0  0
    8.9746  -16.4925   25.9947 N   0  0  0  0  0  0  0  0  0  0  0  0
   11.0620  -17.5902   26.4207 C   0  0  0  0  0  0  0  0  0  0  0  0
   11.0111  -17.9551   25.1967 O   0  0  0  0  0  0  0  0  0  0  0  0
   12.2348  -17.8791   27.0789 O   0  0  0  0  0  0  0  0  0  0  0  0
  2  1  1  6
  2  3  1  0
  3  4  1  0
  4  5  1  0
  5  6  2  0
  5  9  1  0
  7  8  2  0
  7  2  1  0
 11 10  1  6
 11 13  1  0
 12 11  1  0
 14 13  1  1
 14 15  1  0
 15  7  1  0
 16 17  2  0
 16 14  1  0
 19 18  1  0
 20 19  2  0
 21 19  1  0
 22 21  1  0
 23 22  1  1
 23 24  1  0
 24 16  1  0
 25 23  1  0
 26 25  2  0
 27 25  1  0
M  END
$$$$
