ELQ.pdb
     RDKit          3D

 27 26  0  0  1  0  0  0  0  0999 V2000
    7.3500  -17.2639   22.5665 N   0  0  0  0  0  0  0  0  0  0  0  0
    8.6488  -16.7757   22.2822 C   0  0  1  0  0  0  0  0  0  0  0  0
    8.8780  -16.1273   20.9705 C   0  0  0  0  0  0  0  0  0  0  0  0
    7.9227  -16.4478   19.8699 C   0  0  0  0  0  0  0  0  0  0  0  0
    8.5533  -16.5482   18.5522 C   0  0  0  0  0  0  0  0  0  0  0  0
    9.7645  -16.3674   18.3731 O   0  0  0  0  0  0  0  0  0  0  0  0
    9.0379  -15.8003   23.3702 C   0  0  0  0  0  0  0  0  0  0  0  0
   10.1303  -15.2306   23.3009 O   0  0  0  0  0  0  0  0  0  0  0  0
    7.7716  -16.8602   17.4376 O   0  0  0  0  0  0  0  0  0  0  0  0
    5.5642  -12.2012   26.0850 C   0  0  0  0  0  0  0  0  0  0  0  0
    6.7131  -12.9318   25.4180 C   0  0  1  0  0  0  0  0  0  0  0  0
    7.9462  -11.9874   25.4737 C   0  0  0  0  0  0  0  0  0  0  0  0
    7.1154  -14.1610   26.1926 C   0  0  0  0  0  0  0  0  0  0  0  0
    8.3532  -14.7416   25.5352 C   0  0  2  0  0  0  0  0  0  0  0  0
    8.1196  -15.5899   24.4194 N   0  0  0  0  0  0  0  0  0  0  0  0
    9.3466  -15.2377   26.4964 C   0  0  0  0  0  0  0  0  0  0  0  0
    9.6595  -14.6057   27.5458 O   0  0  0  0  0  0  0  0  0  0  0  0
    6.3983  -20.0855   26.5013 N   0  0  0  0  0  0  0  0  0  0  0  0
    7.2713  -20.3256   27.5673 C   0  0  0  0  0  0  0  0  0  0  0  0
    7.0456  -21.3097   28.3193 O   0  0  0  0  0  0  0  0  0  0  0  0
    8.4677  -19.4944   27.8894 C   0  0  0  0  0  0  0  0  0  0  0  0
    8.5863  -18.3049   27.0153 C   0  0  0  0  0  0  0  0  0  0  0  0
    9.8895  -17.5834   27.2563 C   0  0  2  0  0  0  0  0  0  0  0  0
   10.0029  -16.4653   26.2783 N   0  0  0  0  0  0  0  0  0  0  0  0
   11.0922  -18.4309   27.1111 C   0  0  0  0  0  0  0  0  0  0  0  0
   11.8112  -18.7451   28.1202 O   0  0  0  0  0  0  0  0  0  0  0  0
   11.5126  -18.9339   25.9018 O   0  0  0  0  0  0  0  0  0  0  0  0
  2  1  1  1
  2  3  1  0
  3  4  1  0
  4  5  1  0
  5  6  2  0
  5  9  1  0
  7  8  2  0
  7  2  1  0
 11 10  1  1
 11 13  1  0
 12 11  1  0
 14 13  1  1
 14 15  1  0
 15  7  1  0
 16 17  2  0
 16 14  1  0
 19 18  1  0
 20 19  2  0
 21 19  1  0
 22 21  1  0
 23 22  1  6
 23 24  1  0
 24 16  1  0
 25 23  1  0
 26 25  2  0
 27 25  1  0
M  END
$$$$
