ELQ.pdb
     RDKit          3D

 27 26  0  0  1  0  0  0  0  0999 V2000
    8.6300  -18.1778   17.8577 N   0  0  0  0  0  0  0  0  0  0  0  0
    9.9691  -17.7246   17.7714 C   0  0  1  0  0  0  0  0  0  0  0  0
   10.4041  -17.0713   16.5155 C   0  0  0  0  0  0  0  0  0  0  0  0
   11.8390  -16.6759   16.4084 C   0  0  0  0  0  0  0  0  0  0  0  0
   12.4111  -16.8871   15.0773 C   0  0  0  0  0  0  0  0  0  0  0  0
   11.8483  -17.5606   14.2047 O   0  0  0  0  0  0  0  0  0  0  0  0
   10.2221  -16.7706   18.9170 C   0  0  0  0  0  0  0  0  0  0  0  0
   11.3852  -16.5416   19.2596 O   0  0  0  0  0  0  0  0  0  0  0  0
   13.6438  -16.3122   14.7594 O   0  0  0  0  0  0  0  0  0  0  0  0
    6.7265  -12.6976   19.5185 C   0  0  0  0  0  0  0  0  0  0  0  0
    7.9872  -13.5369   19.5864 C   0  0  1  0  0  0  0  0  0  0  0  0
    9.1855  -12.5513   19.6760 C   0  0  0  0  0  0  0  0  0  0  0  0
    8.0448  -14.3529   20.8528 C   0  0  0  0  0  0  0  0  0  0  0  0
    9.1614  -15.3688   20.7022 C   0  0  2  0  0  0  0  0  0  0  0  0
    9.1010  -16.1851   19.5407 N   0  0  0  0  0  0  0  0  0  0  0  0
    9.4744  -16.0814   21.9476 C   0  0  0  0  0  0  0  0  0  0  0  0
    8.5969  -16.6797   22.6336 O   0  0  0  0  0  0  0  0  0  0  0  0
   11.1205  -21.1505   23.2049 N   0  0  0  0  0  0  0  0  0  0  0  0
   11.4914  -20.3635   24.3000 C   0  0  0  0  0  0  0  0  0  0  0  0
   11.1521  -20.7391   25.4528 O   0  0  0  0  0  0  0  0  0  0  0  0
   12.2695  -19.0938   24.2090 C   0  0  0  0  0  0  0  0  0  0  0  0
   11.8253  -18.2333   23.0885 C   0  0  0  0  0  0  0  0  0  0  0  0
   11.1592  -16.9794   23.5996 C   0  0  2  0  0  0  0  0  0  0  0  0
   10.7957  -16.1246   22.4349 N   0  0  0  0  0  0  0  0  0  0  0  0
   11.9990  -16.1687   24.5072 C   0  0  0  0  0  0  0  0  0  0  0  0
   12.5650  -15.0942   24.1084 O   0  0  0  0  0  0  0  0  0  0  0  0
   12.2236  -16.5066   25.8215 O   0  0  0  0  0  0  0  0  0  0  0  0
  2  1  1  6
  2  3  1  0
  3  4  1  0
  4  5  1  0
  5  6  2  0
  5  9  1  0
  7  8  2  0
  7  2  1  0
 11 10  1  1
 11 13  1  0
 12 11  1  0
 14 13  1  1
 14 15  1  0
 15  7  1  0
 16 17  2  0
 16 14  1  0
 19 18  1  0
 20 19  2  0
 21 19  1  0
 22 21  1  0
 23 22  1  6
 23 24  1  0
 24 16  1  0
 25 23  1  0
 26 25  2  0
 27 25  1  0
M  END
$$$$
