ELQ.pdb
     RDKit          3D

 27 26  0  0  1  0  0  0  0  0999 V2000
   12.6352  -16.3345   17.4554 N   0  0  0  0  0  0  0  0  0  0  0  0
   13.3497  -15.9223   18.6068 C   0  0  1  0  0  0  0  0  0  0  0  0
   14.6058  -15.1624   18.4127 C   0  0  0  0  0  0  0  0  0  0  0  0
   14.6407  -14.1654   17.3030 C   0  0  0  0  0  0  0  0  0  0  0  0
   15.9619  -14.0101   16.6910 C   0  0  0  0  0  0  0  0  0  0  0  0
   16.2469  -14.4815   15.5827 O   0  0  0  0  0  0  0  0  0  0  0  0
   12.4224  -15.0973   19.4706 C   0  0  0  0  0  0  0  0  0  0  0  0
   12.8786  -14.1272   20.0818 O   0  0  0  0  0  0  0  0  0  0  0  0
   16.9562  -13.3034   17.3712 O   0  0  0  0  0  0  0  0  0  0  0  0
    8.5648  -12.1488   20.5974 C   0  0  0  0  0  0  0  0  0  0  0  0
    7.9605  -13.4733   20.1743 C   0  0  1  0  0  0  0  0  0  0  0  0
    6.7459  -13.1479   19.2609 C   0  0  0  0  0  0  0  0  0  0  0  0
    8.9084  -14.2672   19.3118 C   0  0  0  0  0  0  0  0  0  0  0  0
   10.0487  -14.7454   20.1907 C   0  0  2  0  0  0  0  0  0  0  0  0
   11.0679  -15.4846   19.5321 N   0  0  0  0  0  0  0  0  0  0  0  0
    9.6022  -15.3071   21.4721 C   0  0  0  0  0  0  0  0  0  0  0  0
    8.9149  -14.6503   22.3056 O   0  0  0  0  0  0  0  0  0  0  0  0
   14.9279  -15.6503   22.4012 N   0  0  0  0  0  0  0  0  0  0  0  0
   14.4776  -16.1755   23.6167 C   0  0  0  0  0  0  0  0  0  0  0  0
   15.3127  -16.3499   24.5425 O   0  0  0  0  0  0  0  0  0  0  0  0
   13.0635  -16.5517   23.9078 C   0  0  0  0  0  0  0  0  0  0  0  0
   12.1651  -16.3259   22.7523 C   0  0  0  0  0  0  0  0  0  0  0  0
   10.7999  -16.9175   23.0038 C   0  0  2  0  0  0  0  0  0  0  0  0
    9.9321  -16.6299   21.8276 N   0  0  0  0  0  0  0  0  0  0  0  0
   10.1180  -16.3900   24.2049 C   0  0  0  0  0  0  0  0  0  0  0  0
    9.2274  -15.4772   24.1180 O   0  0  0  0  0  0  0  0  0  0  0  0
   10.3875  -16.8385   25.4770 O   0  0  0  0  0  0  0  0  0  0  0  0
  2  1  1  6
  2  3  1  0
  3  4  1  0
  4  5  1  0
  5  6  2  0
  5  9  1  0
  7  8  2  0
  7  2  1  0
 11 10  1  6
 11 13  1  0
 12 11  1  0
 14 13  1  6
 14 15  1  0
 15  7  1  0
 16 17  2  0
 16 14  1  0
 19 18  1  0
 20 19  2  0
 21 19  1  0
 22 21  1  0
 23 22  1  6
 23 24  1  0
 24 16  1  0
 25 23  1  0
 26 25  2  0
 27 25  1  0
M  END
$$$$
