ELQ.pdb
     RDKit          3D

 27 26  0  0  1  0  0  0  0  0999 V2000
    6.2000  -17.0780   23.4782 N   0  0  0  0  0  0  0  0  0  0  0  0
    7.2401  -16.7385   22.5786 C   0  0  1  0  0  0  0  0  0  0  0  0
    6.8649  -16.2173   21.2442 C   0  0  0  0  0  0  0  0  0  0  0  0
    7.9674  -15.9643   20.2709 C   0  0  0  0  0  0  0  0  0  0  0  0
    7.7786  -16.6290   18.9800 C   0  0  0  0  0  0  0  0  0  0  0  0
    6.8127  -17.3645   18.7396 O   0  0  0  0  0  0  0  0  0  0  0  0
    8.1371  -15.7240   23.2514 C   0  0  0  0  0  0  0  0  0  0  0  0
    9.2300  -15.4606   22.7425 O   0  0  0  0  0  0  0  0  0  0  0  0
    8.7176  -16.4376   17.9640 O   0  0  0  0  0  0  0  0  0  0  0  0
    5.6755  -11.8335   26.0710 C   0  0  0  0  0  0  0  0  0  0  0  0
    6.6711  -12.6386   25.2593 C   0  0  1  0  0  0  0  0  0  0  0  0
    7.4709  -11.6291   24.3894 C   0  0  0  0  0  0  0  0  0  0  0  0
    7.6957  -13.3073   26.1401 C   0  0  0  0  0  0  0  0  0  0  0  0
    8.4603  -14.3051   25.2907 C   0  0  2  0  0  0  0  0  0  0  0  0
    7.6709  -15.1243   24.4395 N   0  0  0  0  0  0  0  0  0  0  0  0
    9.5171  -15.0102   26.0275 C   0  0  0  0  0  0  0  0  0  0  0  0
   10.4547  -14.4079   26.6246 O   0  0  0  0  0  0  0  0  0  0  0  0
    9.8978  -21.1459   28.1863 N   0  0  0  0  0  0  0  0  0  0  0  0
   10.6342  -20.2420   28.9588 C   0  0  0  0  0  0  0  0  0  0  0  0
   11.2496  -20.6754   29.9679 O   0  0  0  0  0  0  0  0  0  0  0  0
   10.7500  -18.7813   28.6775 C   0  0  0  0  0  0  0  0  0  0  0  0
    9.9816  -18.3697   27.4802 C   0  0  0  0  0  0  0  0  0  0  0  0
   10.5902  -17.1461   26.8403 C   0  0  2  0  0  0  0  0  0  0  0  0
    9.5245  -16.4175   26.0968 N   0  0  0  0  0  0  0  0  0  0  0  0
   11.6843  -17.4352   25.8888 C   0  0  0  0  0  0  0  0  0  0  0  0
   12.9083  -17.4206   26.2572 O   0  0  0  0  0  0  0  0  0  0  0  0
   11.4654  -17.7374   24.5649 O   0  0  0  0  0  0  0  0  0  0  0  0
  2  1  1  1
  2  3  1  0
  3  4  1  0
  4  5  1  0
  5  6  2  0
  5  9  1  0
  7  8  2  0
  7  2  1  0
 11 10  1  1
 11 13  1  0
 12 11  1  0
 14 13  1  1
 14 15  1  0
 15  7  1  0
 16 17  2  0
 16 14  1  0
 19 18  1  0
 20 19  2  0
 21 19  1  0
 22 21  1  0
 23 22  1  6
 23 24  1  0
 24 16  1  0
 25 23  1  0
 26 25  2  0
 27 25  1  0
M  END
$$$$
