MRM.pdb
     RDKit          3D

 28 27  0  0  1  0  0  0  0  0999 V2000
   18.4621  -22.3962  -13.3646 C   0  0  0  0  0  0  0  0  0  0  0  0
   19.6203  -21.6572  -14.5685 S   0  0  0  0  0  0  0  0  0  0  0  0
   20.9103  -20.7230  -13.6612 C   0  0  0  0  0  0  0  0  0  0  0  0
   20.3662  -20.4549  -12.2964 C   0  0  0  0  0  0  0  0  0  0  0  0
   21.2750  -19.7099  -11.3769 C   0  0  2  0  0  0  0  0  0  0  0  0
   21.6194  -18.3860  -11.8504 N   0  0  0  0  0  0  0  0  0  0  0  0
   22.4871  -20.4962  -10.9764 C   0  0  0  0  0  0  0  0  0  0  0  0
   22.2591  -21.5985  -10.4257 O   0  0  0  0  0  0  0  0  0  0  0  0
   23.8211  -23.2087  -15.8581 N   0  0  0  0  0  0  0  0  0  0  0  0
   24.8023  -24.1884  -15.4918 C   0  0  0  0  0  0  0  0  0  0  0  0
   24.6507  -25.4501  -15.7961 N   0  0  0  0  0  0  0  0  0  0  0  0
   25.9792  -23.8480  -14.7876 N   0  0  0  0  0  0  0  0  0  0  0  0
   26.1529  -22.5086  -14.2653 C   0  0  0  0  0  0  0  0  0  0  0  0
   25.5483  -22.4191  -12.8771 C   0  0  0  0  0  0  0  0  0  0  0  0
   25.5933  -21.0458  -12.3122 C   0  0  0  0  0  0  0  0  0  0  0  0
   24.9811  -20.8323  -10.9747 C   0  0  2  0  0  0  0  0  0  0  0  0
   23.7867  -20.0027  -11.2142 N   0  0  0  0  0  0  0  0  0  0  0  0
   25.8012  -20.0841   -9.9986 C   0  0  0  0  0  0  0  0  0  0  0  0
   25.8742  -18.7994  -10.0448 O   0  0  0  0  0  0  0  0  0  0  0  0
   25.3532  -26.1059  -15.4052 C   0  0  0  0  0  0  0  0  0  0  0  0
   26.6384  -19.3219   -4.1363 S   0  0  0  0  0  0  0  0  0  0  0  0
   28.4362  -19.5598   -4.3926 C   0  0  0  0  0  0  0  0  0  0  0  0
   28.6935  -19.5710   -6.2065 C   0  0  0  0  0  0  0  0  0  0  0  0
   27.5016  -20.1330   -6.9020 C   0  0  1  0  0  0  0  0  0  0  0  0
   27.6765  -20.1160   -8.3871 N   0  0  0  0  0  0  0  0  0  0  0  0
   26.5067  -20.7873   -9.0071 C   0  0  0  0  0  0  0  0  0  0  0  0
   28.9092  -20.7549   -8.8578 O   0  0  0  0  0  0  0  0  0  0  0  0
   28.9142  -21.8979   -9.3344 O   0  0  0  0  0  0  0  0  0  0  0  0
  2  1  1  0
  3  2  1  0
  4  3  1  0
  5  4  1  0
  5  6  1  6
  7  8  2  0
  7  5  1  0
  9 10  1  0
 10 11  2  0
 12 10  1  0
 12 13  1  0
 13 14  1  0
 15 14  1  0
 16 15  1  6
 16 17  1  0
 17  7  1  0
 18 16  1  0
 18 19  2  0
 21 20  1  0
 22 23  1  0
 22 21  1  0
 24 25  1  0
 24 23  1  6
 25 18  1  0
 26 24  1  0
 27 26  2  0
 28 26  1  0
M  END
$$$$
