MRM.pdb
     RDKit          3D

 28 27  0  0  1  0  0  0  0  0999 V2000
   25.5360  -17.6768  -18.8584 C   0  0  0  0  0  0  0  0  0  0  0  0
   27.3459  -17.4524  -18.7543 S   0  0  0  0  0  0  0  0  0  0  0  0
   28.0840  -18.9172  -17.9360 C   0  0  0  0  0  0  0  0  0  0  0  0
   27.0224  -19.5016  -17.0630 C   0  0  0  0  0  0  0  0  0  0  0  0
   27.4560  -20.6344  -16.1942 C   0  0  2  0  0  0  0  0  0  0  0  0
   28.1410  -21.6869  -16.9142 N   0  0  0  0  0  0  0  0  0  0  0  0
   26.3566  -21.1706  -15.3271 C   0  0  0  0  0  0  0  0  0  0  0  0
   25.6784  -22.0990  -15.8259 O   0  0  0  0  0  0  0  0  0  0  0  0
   26.3228  -19.4750   -7.5344 N   0  0  0  0  0  0  0  0  0  0  0  0
   25.4133  -20.4757   -8.0119 C   0  0  0  0  0  0  0  0  0  0  0  0
   24.1726  -20.5178   -7.6040 N   0  0  0  0  0  0  0  0  0  0  0  0
   25.8035  -21.4643   -8.9431 N   0  0  0  0  0  0  0  0  0  0  0  0
   26.9147  -21.2216   -9.8394 C   0  0  0  0  0  0  0  0  0  0  0  0
   26.5355  -21.6381  -11.2478 C   0  0  0  0  0  0  0  0  0  0  0  0
   25.4070  -20.8471  -11.8024 C   0  0  0  0  0  0  0  0  0  0  0  0
   25.0023  -21.1182  -13.2068 C   0  0  2  0  0  0  0  0  0  0  0  0
   26.1222  -20.6449  -14.0397 N   0  0  0  0  0  0  0  0  0  0  0  0
   23.8080  -20.3926  -13.6887 C   0  0  0  0  0  0  0  0  0  0  0  0
   23.7962  -19.1064  -13.7479 O   0  0  0  0  0  0  0  0  0  0  0  0
   23.5785  -21.2640   -8.0122 C   0  0  0  0  0  0  0  0  0  0  0  0
   21.3343  -19.8313  -19.0102 S   0  0  0  0  0  0  0  0  0  0  0  0
   19.7289  -20.2144  -18.2162 C   0  0  0  0  0  0  0  0  0  0  0  0
   19.9737  -19.9458  -16.4205 C   0  0  0  0  0  0  0  0  0  0  0  0
   21.2334  -20.5948  -15.9598 C   0  0  1  0  0  0  0  0  0  0  0  0
   21.4740  -20.3501  -14.5042 N   0  0  0  0  0  0  0  0  0  0  0  0
   22.6737  -21.1193  -14.0890 C   0  0  0  0  0  0  0  0  0  0  0  0
   20.3459  -20.7038  -13.6374 O   0  0  0  0  0  0  0  0  0  0  0  0
   20.2765  -21.8008  -13.0669 O   0  0  0  0  0  0  0  0  0  0  0  0
  2  1  1  0
  3  2  1  0
  4  3  1  0
  5  4  1  0
  5  6  1  6
  7  8  2  0
  7  5  1  0
  9 10  1  0
 10 11  2  0
 12 10  1  0
 12 13  1  0
 13 14  1  0
 15 14  1  0
 16 15  1  1
 16 17  1  0
 17  7  1  0
 18 16  1  0
 18 19  2  0
 21 20  1  0
 22 23  1  0
 22 21  1  0
 24 25  1  0
 24 23  1  6
 25 18  1  0
 26 24  1  0
 27 26  2  0
 28 26  1  0
M  END
$$$$
