MRM.pdb
     RDKit          3D

 28 27  0  0  1  0  0  0  0  0999 V2000
   16.4030  -10.6794  -19.8076 C   0  0  0  0  0  0  0  0  0  0  0  0
   16.4998  -12.4646  -20.1826 S   0  0  0  0  0  0  0  0  0  0  0  0
   17.2910  -13.3296  -18.7733 C   0  0  0  0  0  0  0  0  0  0  0  0
   18.1698  -12.3304  -18.0951 C   0  0  0  0  0  0  0  0  0  0  0  0
   18.9224  -12.8358  -16.9100 C   0  0  2  0  0  0  0  0  0  0  0  0
   18.1553  -13.7399  -16.0795 N   0  0  0  0  0  0  0  0  0  0  0  0
   19.5658  -11.7451  -16.1074 C   0  0  0  0  0  0  0  0  0  0  0  0
   18.8813  -11.2960  -15.1586 O   0  0  0  0  0  0  0  0  0  0  0  0
   27.9919  -11.0622  -15.9159 N   0  0  0  0  0  0  0  0  0  0  0  0
   27.0689  -10.5434  -16.8832 C   0  0  0  0  0  0  0  0  0  0  0  0
   27.3838  -10.4619  -18.1487 N   0  0  0  0  0  0  0  0  0  0  0  0
   25.7773  -10.0951  -16.5259 N   0  0  0  0  0  0  0  0  0  0  0  0
   25.3736  -10.0727  -15.1354 C   0  0  0  0  0  0  0  0  0  0  0  0
   23.9275   -9.6274  -15.0303 C   0  0  0  0  0  0  0  0  0  0  0  0
   22.9823  -10.5660  -15.6881 C   0  0  0  0  0  0  0  0  0  0  0  0
   21.5309  -10.2602  -15.5915 C   0  0  2  0  0  0  0  0  0  0  0  0
   20.8568  -11.2733  -16.4229 N   0  0  0  0  0  0  0  0  0  0  0  0
   21.1072   -8.9507  -16.1309 C   0  0  0  0  0  0  0  0  0  0  0  0
   21.2338   -8.6804  -17.3834 O   0  0  0  0  0  0  0  0  0  0  0  0
   26.6636  -10.0590  -18.7776 C   0  0  0  0  0  0  0  0  0  0  0  0
   15.9587   -5.3963  -14.3996 S   0  0  0  0  0  0  0  0  0  0  0  0
   16.4109   -5.0737  -16.1448 C   0  0  0  0  0  0  0  0  0  0  0  0
   18.2364   -5.2041  -16.2288 C   0  0  0  0  0  0  0  0  0  0  0  0
   18.6851   -6.5624  -15.8118 C   0  0  1  0  0  0  0  0  0  0  0  0
   20.1758   -6.6786  -15.8399 N   0  0  0  0  0  0  0  0  0  0  0  0
   20.5572   -7.9920  -15.2629 C   0  0  0  0  0  0  0  0  0  0  0  0
   20.8788   -5.6103  -15.1233 O   0  0  0  0  0  0  0  0  0  0  0  0
   21.4970   -5.8234  -14.0716 O   0  0  0  0  0  0  0  0  0  0  0  0
  2  1  1  0
  3  2  1  0
  4  3  1  0
  5  4  1  0
  5  6  1  1
  7  8  2  0
  7  5  1  0
  9 10  1  0
 10 11  2  0
 12 10  1  0
 12 13  1  0
 13 14  1  0
 15 14  1  0
 16 15  1  6
 16 17  1  0
 17  7  1  0
 18 16  1  0
 18 19  2  0
 21 20  1  0
 22 23  1  0
 22 21  1  0
 24 25  1  0
 24 23  1  6
 25 18  1  0
 26 24  1  0
 27 26  2  0
 28 26  1  0
M  END
$$$$
