MRM.pdb
     RDKit          3D

 28 27  0  0  1  0  0  0  0  0999 V2000
   26.7783  -20.4771   -5.2220 C   0  0  0  0  0  0  0  0  0  0  0  0
   27.7843  -19.5939   -6.4650 S   0  0  0  0  0  0  0  0  0  0  0  0
   27.8554  -20.5960   -7.9983 C   0  0  0  0  0  0  0  0  0  0  0  0
   27.0198  -19.8874   -9.0133 C   0  0  0  0  0  0  0  0  0  0  0  0
   26.2823  -20.7672   -9.9663 C   0  0  2  0  0  0  0  0  0  0  0  0
   27.0635  -21.8895  -10.4412 N   0  0  0  0  0  0  0  0  0  0  0  0
   25.6396  -20.0138  -11.0921 C   0  0  0  0  0  0  0  0  0  0  0  0
   24.9012  -19.0599  -10.7525 O   0  0  0  0  0  0  0  0  0  0  0  0
   27.4422  -21.7974  -18.1367 N   0  0  0  0  0  0  0  0  0  0  0  0
   28.1227  -22.2045  -16.9417 C   0  0  0  0  0  0  0  0  0  0  0  0
   28.4176  -23.4580  -16.7200 N   0  0  0  0  0  0  0  0  0  0  0  0
   28.5103  -21.2811  -15.9448 N   0  0  0  0  0  0  0  0  0  0  0  0
   28.2368  -19.8692  -16.1148 C   0  0  0  0  0  0  0  0  0  0  0  0
   27.4869  -19.3447  -14.9052 C   0  0  0  0  0  0  0  0  0  0  0  0
   26.1472  -19.9648  -14.7396 C   0  0  0  0  0  0  0  0  0  0  0  0
   25.3477  -19.5669  -13.5513 C   0  0  2  0  0  0  0  0  0  0  0  0
   25.8670  -20.3776  -12.4355 N   0  0  0  0  0  0  0  0  0  0  0  0
   23.8995  -19.8558  -13.6183 C   0  0  0  0  0  0  0  0  0  0  0  0
   23.0405  -18.9027  -13.7267 O   0  0  0  0  0  0  0  0  0  0  0  0
   28.9393  -23.6610  -15.8466 C   0  0  0  0  0  0  0  0  0  0  0  0
   21.1626  -19.0841   -9.5608 S   0  0  0  0  0  0  0  0  0  0  0  0
   19.6696  -19.4032  -10.5725 C   0  0  0  0  0  0  0  0  0  0  0  0
   20.1685  -20.6264  -11.8419 C   0  0  0  0  0  0  0  0  0  0  0  0
   21.5791  -20.3987  -12.2643 C   0  0  2  0  0  0  0  0  0  0  0  0
   22.0279  -21.4294  -13.2505 N   0  0  0  0  0  0  0  0  0  0  0  0
   23.4585  -21.1891  -13.5653 C   0  0  0  0  0  0  0  0  0  0  0  0
   21.2536  -21.4525  -14.4951 O   0  0  0  0  0  0  0  0  0  0  0  0
   21.3166  -20.5339  -15.3232 O   0  0  0  0  0  0  0  0  0  0  0  0
  2  1  1  0
  3  2  1  0
  4  3  1  0
  5  4  1  0
  5  6  1  6
  7  8  2  0
  7  5  1  0
  9 10  1  0
 10 11  2  0
 12 10  1  0
 12 13  1  0
 13 14  1  0
 15 14  1  0
 16 15  1  6
 16 17  1  0
 17  7  1  0
 18 16  1  0
 18 19  2  0
 21 20  1  0
 22 23  1  0
 22 21  1  0
 24 25  1  0
 24 23  1  1
 25 18  1  0
 26 24  1  0
 27 26  2  0
 28 26  1  0
M  END
$$$$
