MRM.pdb
     RDKit          3D

 28 27  0  0  1  0  0  0  0  0999 V2000
   28.8906  -15.3168  -17.0761 C   0  0  0  0  0  0  0  0  0  0  0  0
   27.9700  -13.9701  -16.2541 S   0  0  0  0  0  0  0  0  0  0  0  0
   26.1839  -14.3826  -16.2499 C   0  0  0  0  0  0  0  0  0  0  0  0
   26.0656  -15.7724  -15.7161 C   0  0  0  0  0  0  0  0  0  0  0  0
   24.6982  -16.3671  -15.7689 C   0  0  2  0  0  0  0  0  0  0  0  0
   23.6413  -15.4126  -15.5094 N   0  0  0  0  0  0  0  0  0  0  0  0
   24.5569  -17.6030  -14.9319 C   0  0  0  0  0  0  0  0  0  0  0  0
   23.9130  -17.4634  -13.8658 O   0  0  0  0  0  0  0  0  0  0  0  0
   24.5524  -25.3884  -13.9760 N   0  0  0  0  0  0  0  0  0  0  0  0
   23.7245  -25.1945  -15.1307 C   0  0  0  0  0  0  0  0  0  0  0  0
   22.5408  -25.7409  -15.2189 N   0  0  0  0  0  0  0  0  0  0  0  0
   24.1378  -24.4077  -16.2294 N   0  0  0  0  0  0  0  0  0  0  0  0
   25.3354  -23.5990  -16.1356 C   0  0  0  0  0  0  0  0  0  0  0  0
   25.1655  -22.5591  -15.0445 C   0  0  0  0  0  0  0  0  0  0  0  0
   25.0733  -21.1737  -15.5728 C   0  0  0  0  0  0  0  0  0  0  0  0
   24.8862  -20.0743  -14.5902 C   0  0  2  0  0  0  0  0  0  0  0  0
   25.1230  -18.8282  -15.3407 N   0  0  0  0  0  0  0  0  0  0  0  0
   25.8363  -20.0484  -13.4580 C   0  0  0  0  0  0  0  0  0  0  0  0
   27.0880  -19.8165  -13.6516 O   0  0  0  0  0  0  0  0  0  0  0  0
   22.0281  -25.5884  -16.1078 C   0  0  0  0  0  0  0  0  0  0  0  0
   26.7706  -18.2382   -7.2691 S   0  0  0  0  0  0  0  0  0  0  0  0
   26.3751  -20.0195   -7.1108 C   0  0  0  0  0  0  0  0  0  0  0  0
   26.8015  -20.7794   -8.7224 C   0  0  0  0  0  0  0  0  0  0  0  0
   25.9432  -20.2254   -9.8072 C   0  0  1  0  0  0  0  0  0  0  0  0
   26.3354  -20.7666  -11.1450 N   0  0  0  0  0  0  0  0  0  0  0  0
   25.3632  -20.2777  -12.1546 C   0  0  0  0  0  0  0  0  0  0  0  0
   26.4069  -22.2295  -11.2078 O   0  0  0  0  0  0  0  0  0  0  0  0
   25.4967  -22.9096  -11.7002 O   0  0  0  0  0  0  0  0  0  0  0  0
  2  1  1  0
  3  2  1  0
  4  3  1  0
  5  4  1  0
  5  6  1  1
  7  8  2  0
  7  5  1  0
  9 10  1  0
 10 11  2  0
 12 10  1  0
 12 13  1  0
 13 14  1  0
 15 14  1  0
 16 15  1  6
 16 17  1  0
 17  7  1  0
 18 16  1  0
 18 19  2  0
 21 20  1  0
 22 23  1  0
 22 21  1  0
 24 25  1  0
 24 23  1  6
 25 18  1  0
 26 24  1  0
 27 26  2  0
 28 26  1  0
M  END
$$$$
