MRM.pdb
     RDKit          3D

 28 27  0  0  1  0  0  0  0  0999 V2000
   25.3177  -14.4065  -14.5600 C   0  0  0  0  0  0  0  0  0  0  0  0
   24.3450  -14.2290  -16.0960 S   0  0  0  0  0  0  0  0  0  0  0  0
   22.6559  -14.8823  -15.8130 C   0  0  0  0  0  0  0  0  0  0  0  0
   22.8153  -16.2717  -15.2887 C   0  0  0  0  0  0  0  0  0  0  0  0
   23.1226  -17.3135  -16.3117 C   0  0  2  0  0  0  0  0  0  0  0  0
   22.0511  -17.5260  -17.2615 N   0  0  0  0  0  0  0  0  0  0  0  0
   23.6107  -18.6009  -15.7182 C   0  0  0  0  0  0  0  0  0  0  0  0
   22.7218  -19.3574  -15.2620 O   0  0  0  0  0  0  0  0  0  0  0  0
   30.6031  -21.7578  -18.7619 N   0  0  0  0  0  0  0  0  0  0  0  0
   29.8336  -20.5555  -18.6241 C   0  0  0  0  0  0  0  0  0  0  0  0
   30.2499  -19.4206  -19.1201 N   0  0  0  0  0  0  0  0  0  0  0  0
   28.5916  -20.5301  -17.9505 N   0  0  0  0  0  0  0  0  0  0  0  0
   27.9321  -21.7688  -17.5933 C   0  0  0  0  0  0  0  0  0  0  0  0
   26.6018  -21.4666  -16.9302 C   0  0  0  0  0  0  0  0  0  0  0  0
   26.7204  -20.5055  -15.8036 C   0  0  0  0  0  0  0  0  0  0  0  0
   25.4788  -20.1554  -15.0652 C   0  0  2  0  0  0  0  0  0  0  0  0
   24.9855  -18.9135  -15.6868 N   0  0  0  0  0  0  0  0  0  0  0  0
   25.6440  -19.8479  -13.6288 C   0  0  0  0  0  0  0  0  0  0  0  0
   26.2420  -18.7729  -13.2482 O   0  0  0  0  0  0  0  0  0  0  0  0
   29.6193  -18.6058  -18.9986 C   0  0  0  0  0  0  0  0  0  0  0  0
   21.5550  -20.2561   -8.9285 S   0  0  0  0  0  0  0  0  0  0  0  0
   22.9418  -21.0363   -8.0217 C   0  0  0  0  0  0  0  0  0  0  0  0
   24.4555  -20.6496   -8.9786 C   0  0  0  0  0  0  0  0  0  0  0  0
   24.1980  -20.7742  -10.4409 C   0  0  1  0  0  0  0  0  0  0  0  0
   25.4191  -20.4498  -11.2409 N   0  0  0  0  0  0  0  0  0  0  0  0
   25.1383  -20.7413  -12.6690 C   0  0  0  0  0  0  0  0  0  0  0  0
   26.6241  -21.1739  -10.8250 O   0  0  0  0  0  0  0  0  0  0  0  0
   26.9913  -22.2135  -11.3889 O   0  0  0  0  0  0  0  0  0  0  0  0
  2  1  1  0
  3  2  1  0
  4  3  1  0
  5  4  1  0
  5  6  1  1
  7  8  2  0
  7  5  1  0
  9 10  1  0
 10 11  2  0
 12 10  1  0
 12 13  1  0
 13 14  1  0
 15 14  1  0
 16 15  1  6
 16 17  1  0
 17  7  1  0
 18 16  1  0
 18 19  2  0
 21 20  1  0
 22 23  1  0
 22 21  1  0
 24 25  1  0
 24 23  1  6
 25 18  1  0
 26 24  1  0
 27 26  2  0
 28 26  1  0
M  END
$$$$
