MRM.pdb
     RDKit          3D

 28 27  0  0  1  0  0  0  0  0999 V2000
   21.3551  -21.6307    0.6669 C   0  0  0  0  0  0  0  0  0  0  0  0
   20.8164  -20.2907   -0.4517 S   0  0  0  0  0  0  0  0  0  0  0  0
   19.1323  -19.7505    0.0301 C   0  0  0  0  0  0  0  0  0  0  0  0
   19.2377  -19.2000    1.4145 C   0  0  0  0  0  0  0  0  0  0  0  0
   17.9579  -18.7245    2.0164 C   0  0  2  0  0  0  0  0  0  0  0  0
   17.0621  -18.1086    1.0605 N   0  0  0  0  0  0  0  0  0  0  0  0
   18.1564  -17.8694    3.2318 C   0  0  0  0  0  0  0  0  0  0  0  0
   18.1459  -16.6325    3.0305 O   0  0  0  0  0  0  0  0  0  0  0  0
   12.5959  -16.7962    4.8553 N   0  0  0  0  0  0  0  0  0  0  0  0
   12.9278  -18.0433    5.4808 C   0  0  0  0  0  0  0  0  0  0  0  0
   12.1767  -19.1017    5.3292 N   0  0  0  0  0  0  0  0  0  0  0  0
   14.0764  -18.1974    6.2894 N   0  0  0  0  0  0  0  0  0  0  0  0
   14.7008  -17.0396    6.8948 C   0  0  0  0  0  0  0  0  0  0  0  0
   16.0121  -16.7408    6.1934 C   0  0  0  0  0  0  0  0  0  0  0  0
   17.0150  -17.8252    6.3521 C   0  0  0  0  0  0  0  0  0  0  0  0
   18.3493  -17.6240    5.7289 C   0  0  2  0  0  0  0  0  0  0  0  0
   18.3425  -18.4457    4.5054 N   0  0  0  0  0  0  0  0  0  0  0  0
   19.5098  -18.0879    6.5183 C   0  0  0  0  0  0  0  0  0  0  0  0
   19.8803  -19.3206    6.4857 O   0  0  0  0  0  0  0  0  0  0  0  0
   12.4622  -19.9485    5.8562 C   0  0  0  0  0  0  0  0  0  0  0  0
   23.3897  -14.0799    9.5386 S   0  0  0  0  0  0  0  0  0  0  0  0
   23.9689  -15.5582   10.4515 C   0  0  0  0  0  0  0  0  0  0  0  0
   23.1261  -16.9919    9.6829 C   0  0  0  0  0  0  0  0  0  0  0  0
   22.0099  -16.5368    8.8070 C   0  0  1  0  0  0  0  0  0  0  0  0
   21.3142  -17.6931    8.1623 N   0  0  0  0  0  0  0  0  0  0  0  0
   20.2171  -17.1681    7.3114 C   0  0  0  0  0  0  0  0  0  0  0  0
   20.7702  -18.6738    9.1065 O   0  0  0  0  0  0  0  0  0  0  0  0
   19.6540  -18.5353    9.6247 O   0  0  0  0  0  0  0  0  0  0  0  0
  2  1  1  0
  3  2  1  0
  4  3  1  0
  5  4  1  0
  5  6  1  6
  7  8  2  0
  7  5  1  0
  9 10  1  0
 10 11  2  0
 12 10  1  0
 12 13  1  0
 13 14  1  0
 15 14  1  0
 16 15  1  1
 16 17  1  0
 17  7  1  0
 18 16  1  0
 18 19  2  0
 21 20  1  0
 22 23  1  0
 22 21  1  0
 24 25  1  0
 24 23  1  6
 25 18  1  0
 26 24  1  0
 27 26  2  0
 28 26  1  0
M  END
$$$$
