MRM.pdb
     RDKit          3D

 28 27  0  0  1  0  0  0  0  0999 V2000
   29.1043  -22.3342   -4.8231 C   0  0  0  0  0  0  0  0  0  0  0  0
   28.3234  -20.9469   -3.9273 S   0  0  0  0  0  0  0  0  0  0  0  0
   28.1660  -19.5157   -5.0619 C   0  0  0  0  0  0  0  0  0  0  0  0
   27.5284  -20.0269   -6.3119 C   0  0  0  0  0  0  0  0  0  0  0  0
   27.3902  -19.0329   -7.4160 C   0  0  2  0  0  0  0  0  0  0  0  0
   26.8539  -17.7594   -6.9847 N   0  0  0  0  0  0  0  0  0  0  0  0
   26.6638  -19.5724   -8.6115 C   0  0  0  0  0  0  0  0  0  0  0  0
   25.4197  -19.4218   -8.6018 O   0  0  0  0  0  0  0  0  0  0  0  0
   28.5572  -23.5643  -15.8091 N   0  0  0  0  0  0  0  0  0  0  0  0
   28.4529  -22.2158  -16.2857 C   0  0  0  0  0  0  0  0  0  0  0  0
   27.9933  -21.9497  -17.4796 N   0  0  0  0  0  0  0  0  0  0  0  0
   28.8373  -21.1074  -15.4980 N   0  0  0  0  0  0  0  0  0  0  0  0
   29.0483  -21.2650  -14.0740 C   0  0  0  0  0  0  0  0  0  0  0  0
   27.8028  -20.8357  -13.3223 C   0  0  0  0  0  0  0  0  0  0  0  0
   28.0596  -20.5557  -11.8862 C   0  0  0  0  0  0  0  0  0  0  0  0
   26.9160  -20.0833  -11.0627 C   0  0  2  0  0  0  0  0  0  0  0  0
   27.3597  -20.2047   -9.6625 N   0  0  0  0  0  0  0  0  0  0  0  0
   25.6740  -20.8790  -11.1613 C   0  0  0  0  0  0  0  0  0  0  0  0
   25.6153  -22.0732  -10.6835 O   0  0  0  0  0  0  0  0  0  0  0  0
   27.9096  -20.9459  -17.7279 C   0  0  0  0  0  0  0  0  0  0  0  0
   18.0417  -21.1165  -10.6764 S   0  0  0  0  0  0  0  0  0  0  0  0
   19.5132  -20.0269  -10.7197 C   0  0  0  0  0  0  0  0  0  0  0  0
   20.8784  -21.0442  -11.3964 C   0  0  0  0  0  0  0  0  0  0  0  0
   22.1730  -20.3122  -11.3055 C   0  0  1  0  0  0  0  0  0  0  0  0
   23.3062  -21.1385  -11.8249 N   0  0  0  0  0  0  0  0  0  0  0  0
   24.5440  -20.3204  -11.7828 C   0  0  0  0  0  0  0  0  0  0  0  0
   23.1076  -21.6499  -13.1843 O   0  0  0  0  0  0  0  0  0  0  0  0
   23.5462  -21.0560  -14.1785 O   0  0  0  0  0  0  0  0  0  0  0  0
  2  1  1  0
  3  2  1  0
  4  3  1  0
  5  4  1  0
  5  6  1  1
  7  8  2  0
  7  5  1  0
  9 10  1  0
 10 11  2  0
 12 10  1  0
 12 13  1  0
 13 14  1  0
 15 14  1  0
 16 15  1  6
 16 17  1  0
 17  7  1  0
 18 16  1  0
 18 19  2  0
 21 20  1  0
 22 23  1  0
 22 21  1  0
 24 25  1  0
 24 23  1  1
 25 18  1  0
 26 24  1  0
 27 26  2  0
 28 26  1  0
M  END
$$$$
