MRM.pdb
     RDKit          3D

 28 27  0  0  1  0  0  0  0  0999 V2000
   25.9604  -20.3327   -6.0564 C   0  0  0  0  0  0  0  0  0  0  0  0
   27.5685  -19.7269   -6.6760 S   0  0  0  0  0  0  0  0  0  0  0  0
   27.9492  -20.5593   -8.2643 C   0  0  0  0  0  0  0  0  0  0  0  0
   27.0798  -19.9256   -9.3002 C   0  0  0  0  0  0  0  0  0  0  0  0
   26.3547  -20.8720  -10.1973 C   0  0  2  0  0  0  0  0  0  0  0  0
   27.1718  -21.9747  -10.6575 N   0  0  0  0  0  0  0  0  0  0  0  0
   25.6435  -20.1900  -11.3273 C   0  0  0  0  0  0  0  0  0  0  0  0
   24.7802  -19.3457  -10.9921 O   0  0  0  0  0  0  0  0  0  0  0  0
   28.8497  -17.6769  -17.6248 N   0  0  0  0  0  0  0  0  0  0  0  0
   28.5755  -19.0688  -17.8347 C   0  0  0  0  0  0  0  0  0  0  0  0
   28.4387  -19.5617  -19.0371 N   0  0  0  0  0  0  0  0  0  0  0  0
   28.4395  -19.9790  -16.7623 N   0  0  0  0  0  0  0  0  0  0  0  0
   28.6412  -19.5331  -15.3994 C   0  0  0  0  0  0  0  0  0  0  0  0
   27.3586  -18.9241  -14.8659 C   0  0  0  0  0  0  0  0  0  0  0  0
   26.2051  -19.8584  -14.9236 C   0  0  0  0  0  0  0  0  0  0  0  0
   25.2469  -19.8387  -13.7874 C   0  0  2  0  0  0  0  0  0  0  0  0
   25.9447  -20.4992  -12.6699 N   0  0  0  0  0  0  0  0  0  0  0  0
   23.9935  -20.5973  -13.9835 C   0  0  0  0  0  0  0  0  0  0  0  0
   23.8478  -21.7733  -13.4797 O   0  0  0  0  0  0  0  0  0  0  0  0
   28.2388  -20.5779  -19.0985 C   0  0  0  0  0  0  0  0  0  0  0  0
   21.3396  -20.4417   -9.7939 S   0  0  0  0  0  0  0  0  0  0  0  0
   19.8961  -19.6544  -10.6005 C   0  0  0  0  0  0  0  0  0  0  0  0
   20.0159  -20.0761  -12.3794 C   0  0  0  0  0  0  0  0  0  0  0  0
   21.3901  -19.8103  -12.8902 C   0  0  2  0  0  0  0  0  0  0  0  0
   21.5576  -20.3042  -14.2919 N   0  0  0  0  0  0  0  0  0  0  0  0
   22.9485  -20.0233  -14.7276 C   0  0  0  0  0  0  0  0  0  0  0  0
   20.6193  -19.7197  -15.2547 O   0  0  0  0  0  0  0  0  0  0  0  0
   20.8430  -18.6374  -15.8135 O   0  0  0  0  0  0  0  0  0  0  0  0
  2  1  1  0
  3  2  1  0
  4  3  1  0
  5  4  1  0
  5  6  1  6
  7  8  2  0
  7  5  1  0
  9 10  1  0
 10 11  2  0
 12 10  1  0
 12 13  1  0
 13 14  1  0
 15 14  1  0
 16 15  1  6
 16 17  1  0
 17  7  1  0
 18 16  1  0
 18 19  2  0
 21 20  1  0
 22 23  1  0
 22 21  1  0
 24 25  1  0
 24 23  1  1
 25 18  1  0
 26 24  1  0
 27 26  2  0
 28 26  1  0
M  END
$$$$
