MRM.pdb
     RDKit          3D

 28 27  0  0  1  0  0  0  0  0999 V2000
   29.8374  -21.4783   -9.0418 C   0  0  0  0  0  0  0  0  0  0  0  0
   31.3901  -21.9385   -9.8868 S   0  0  0  0  0  0  0  0  0  0  0  0
   31.2495  -21.5198  -11.6659 C   0  0  0  0  0  0  0  0  0  0  0  0
   29.8458  -21.0612  -11.8893 C   0  0  0  0  0  0  0  0  0  0  0  0
   29.5257  -20.6245  -13.2796 C   0  0  2  0  0  0  0  0  0  0  0  0
   30.0952  -19.3403  -13.6287 N   0  0  0  0  0  0  0  0  0  0  0  0
   28.0631  -20.6964  -13.6014 C   0  0  0  0  0  0  0  0  0  0  0  0
   27.4897  -19.5936  -13.7614 O   0  0  0  0  0  0  0  0  0  0  0  0
   24.6476  -25.8169  -15.6726 N   0  0  0  0  0  0  0  0  0  0  0  0
   25.0016  -25.9296  -17.0577 C   0  0  0  0  0  0  0  0  0  0  0  0
   24.7175  -27.0024  -17.7475 N   0  0  0  0  0  0  0  0  0  0  0  0
   25.6714  -24.8956  -17.7497 N   0  0  0  0  0  0  0  0  0  0  0  0
   25.4039  -23.5101  -17.4243 C   0  0  0  0  0  0  0  0  0  0  0  0
   26.3833  -23.0351  -16.3679 C   0  0  0  0  0  0  0  0  0  0  0  0
   25.8643  -23.1896  -14.9846 C   0  0  0  0  0  0  0  0  0  0  0  0
   25.9756  -22.0200  -14.0740 C   0  0  2  0  0  0  0  0  0  0  0  0
   27.4011  -21.9370  -13.7090 N   0  0  0  0  0  0  0  0  0  0  0  0
   25.2386  -22.1208  -12.7966 C   0  0  0  0  0  0  0  0  0  0  0  0
   25.4999  -23.0604  -11.9559 O   0  0  0  0  0  0  0  0  0  0  0  0
   25.0636  -27.0265  -18.7252 C   0  0  0  0  0  0  0  0  0  0  0  0
   26.9240  -21.9358   -7.4449 S   0  0  0  0  0  0  0  0  0  0  0  0
   26.2112  -20.2913   -7.8218 C   0  0  0  0  0  0  0  0  0  0  0  0
   24.7028  -20.6067   -8.8126 C   0  0  0  0  0  0  0  0  0  0  0  0
   25.0428  -20.7434  -10.2569 C   0  0  2  0  0  0  0  0  0  0  0  0
   23.8285  -21.0357  -11.0794 N   0  0  0  0  0  0  0  0  0  0  0  0
   24.2425  -21.1754  -12.4980 C   0  0  0  0  0  0  0  0  0  0  0  0
   22.7725  -20.0238  -10.9787 O   0  0  0  0  0  0  0  0  0  0  0  0
   22.6566  -19.1126  -11.8093 O   0  0  0  0  0  0  0  0  0  0  0  0
  2  1  1  0
  3  2  1  0
  4  3  1  0
  5  4  1  0
  5  6  1  1
  7  8  2  0
  7  5  1  0
  9 10  1  0
 10 11  2  0
 12 10  1  0
 12 13  1  0
 13 14  1  0
 15 14  1  0
 16 15  1  6
 16 17  1  0
 17  7  1  0
 18 16  1  0
 18 19  2  0
 21 20  1  0
 22 23  1  0
 22 21  1  0
 24 25  1  0
 24 23  1  1
 25 18  1  0
 26 24  1  0
 27 26  2  0
 28 26  1  0
M  END
$$$$
