MRM.pdb
     RDKit          3D

 28 27  0  0  1  0  0  0  0  0999 V2000
   17.7202  -18.0683  -10.5316 C   0  0  0  0  0  0  0  0  0  0  0  0
   18.1429  -17.1552  -12.0562 S   0  0  0  0  0  0  0  0  0  0  0  0
   18.5907  -18.3555  -13.3673 C   0  0  0  0  0  0  0  0  0  0  0  0
   19.5767  -19.3016  -12.7645 C   0  0  0  0  0  0  0  0  0  0  0  0
   20.0860  -20.3668  -13.6766 C   0  0  2  0  0  0  0  0  0  0  0  0
   19.0463  -21.2291  -14.1972 N   0  0  0  0  0  0  0  0  0  0  0  0
   21.2259  -21.1489  -13.0961 C   0  0  0  0  0  0  0  0  0  0  0  0
   20.9083  -22.0324  -12.2659 O   0  0  0  0  0  0  0  0  0  0  0  0
   28.0195  -21.3960  -16.8041 N   0  0  0  0  0  0  0  0  0  0  0  0
   28.4897  -22.5256  -16.0561 C   0  0  0  0  0  0  0  0  0  0  0  0
   29.7661  -22.7373  -15.8734 N   0  0  0  0  0  0  0  0  0  0  0  0
   27.6069  -23.4657  -15.4784 N   0  0  0  0  0  0  0  0  0  0  0  0
   26.1761  -23.2496  -15.5332 C   0  0  0  0  0  0  0  0  0  0  0  0
   25.7026  -22.6308  -14.2318 C   0  0  0  0  0  0  0  0  0  0  0  0
   24.2421  -22.3598  -14.2160 C   0  0  0  0  0  0  0  0  0  0  0  0
   23.6745  -21.7214  -12.9996 C   0  0  2  0  0  0  0  0  0  0  0  0
   22.5582  -20.8852  -13.4757 N   0  0  0  0  0  0  0  0  0  0  0  0
   24.5764  -20.8085  -12.2659 C   0  0  0  0  0  0  0  0  0  0  0  0
   24.8796  -19.6530  -12.7464 O   0  0  0  0  0  0  0  0  0  0  0  0
   30.0175  -23.5324  -15.2562 C   0  0  0  0  0  0  0  0  0  0  0  0
   28.8743  -20.7133   -6.0761 S   0  0  0  0  0  0  0  0  0  0  0  0
   27.2197  -20.0391   -6.4788 C   0  0  0  0  0  0  0  0  0  0  0  0
   27.2181  -19.7441   -8.2870 C   0  0  0  0  0  0  0  0  0  0  0  0
   26.1656  -20.5633   -8.9514 C   0  0  2  0  0  0  0  0  0  0  0  0
   26.1804  -20.3742  -10.4348 N   0  0  0  0  0  0  0  0  0  0  0  0
   25.1056  -21.2092  -11.0271 C   0  0  0  0  0  0  0  0  0  0  0  0
   27.4586  -20.7028  -11.0731 O   0  0  0  0  0  0  0  0  0  0  0  0
   27.7673  -21.8671  -11.3607 O   0  0  0  0  0  0  0  0  0  0  0  0
  2  1  1  0
  3  2  1  0
  4  3  1  0
  5  4  1  0
  5  6  1  1
  7  8  2  0
  7  5  1  0
  9 10  1  0
 10 11  2  0
 12 10  1  0
 12 13  1  0
 13 14  1  0
 15 14  1  0
 16 15  1  6
 16 17  1  0
 17  7  1  0
 18 16  1  0
 18 19  2  0
 21 20  1  0
 22 23  1  0
 22 21  1  0
 24 25  1  0
 24 23  1  1
 25 18  1  0
 26 24  1  0
 27 26  2  0
 28 26  1  0
M  END
$$$$
