MRM.pdb
     RDKit          3D

 28 27  0  0  1  0  0  0  0  0999 V2000
   28.4236  -19.2999  -13.5510 C   0  0  0  0  0  0  0  0  0  0  0  0
   28.6991  -20.0025  -11.8874 S   0  0  0  0  0  0  0  0  0  0  0  0
   27.5437  -21.4022  -11.6307 C   0  0  0  0  0  0  0  0  0  0  0  0
   26.3955  -21.1873  -12.5613 C   0  0  0  0  0  0  0  0  0  0  0  0
   25.2701  -22.1578  -12.4286 C   0  0  2  0  0  0  0  0  0  0  0  0
   25.6893  -23.5421  -12.4872 N   0  0  0  0  0  0  0  0  0  0  0  0
   24.1313  -21.8759  -13.3621 C   0  0  0  0  0  0  0  0  0  0  0  0
   24.2242  -22.3925  -14.5001 O   0  0  0  0  0  0  0  0  0  0  0  0
   17.1547  -23.8178  -10.3903 N   0  0  0  0  0  0  0  0  0  0  0  0
   18.5357  -23.5935  -10.0755 C   0  0  0  0  0  0  0  0  0  0  0  0
   18.9980  -23.7841   -8.8682 N   0  0  0  0  0  0  0  0  0  0  0  0
   19.4673  -23.1581  -11.0446 N   0  0  0  0  0  0  0  0  0  0  0  0
   19.0832  -23.0772  -12.4385 C   0  0  0  0  0  0  0  0  0  0  0  0
   20.2891  -22.7054  -13.2801 C   0  0  0  0  0  0  0  0  0  0  0  0
   20.6977  -21.2869  -13.1133 C   0  0  0  0  0  0  0  0  0  0  0  0
   21.8988  -20.8254  -13.8575 C   0  0  2  0  0  0  0  0  0  0  0  0
   23.0408  -21.0769  -12.9605 N   0  0  0  0  0  0  0  0  0  0  0  0
   21.9486  -19.3831  -14.1772 C   0  0  0  0  0  0  0  0  0  0  0  0
   21.7267  -18.4975  -13.2692 O   0  0  0  0  0  0  0  0  0  0  0  0
   20.0049  -23.5807   -8.7231 C   0  0  0  0  0  0  0  0  0  0  0  0
   27.6131  -17.4522  -16.2308 S   0  0  0  0  0  0  0  0  0  0  0  0
   26.0789  -17.0716  -17.1558 C   0  0  0  0  0  0  0  0  0  0  0  0
   24.6934  -17.4455  -16.0168 C   0  0  0  0  0  0  0  0  0  0  0  0
   23.3841  -17.2124  -16.6889 C   0  0  2  0  0  0  0  0  0  0  0  0
   22.2390  -17.5208  -15.7778 N   0  0  0  0  0  0  0  0  0  0  0  0
   22.2449  -18.9768  -15.4896 C   0  0  0  0  0  0  0  0  0  0  0  0
   20.9266  -17.1349  -16.3048 O   0  0  0  0  0  0  0  0  0  0  0  0
   20.1759  -17.9512  -16.8561 O   0  0  0  0  0  0  0  0  0  0  0  0
  2  1  1  0
  3  2  1  0
  4  3  1  0
  5  4  1  0
  5  6  1  6
  7  8  2  0
  7  5  1  0
  9 10  1  0
 10 11  2  0
 12 10  1  0
 12 13  1  0
 13 14  1  0
 15 14  1  0
 16 15  1  1
 16 17  1  0
 17  7  1  0
 18 16  1  0
 18 19  2  0
 21 20  1  0
 22 23  1  0
 22 21  1  0
 24 25  1  0
 24 23  1  1
 25 18  1  0
 26 24  1  0
 27 26  2  0
 28 26  1  0
M  END
$$$$
