MRM.pdb
     RDKit          3D

 28 27  0  0  1  0  0  0  0  0999 V2000
   25.5263  -20.6651  -20.6946 C   0  0  0  0  0  0  0  0  0  0  0  0
   25.7826  -18.8695  -20.9111 S   0  0  0  0  0  0  0  0  0  0  0  0
   24.9544  -17.9777  -19.5403 C   0  0  0  0  0  0  0  0  0  0  0  0
   24.4721  -19.0165  -18.5818 C   0  0  0  0  0  0  0  0  0  0  0  0
   23.4887  -18.5449  -17.5637 C   0  0  2  0  0  0  0  0  0  0  0  0
   23.8629  -17.2975  -16.9317 N   0  0  0  0  0  0  0  0  0  0  0  0
   23.1253  -19.5967  -16.5590 C   0  0  0  0  0  0  0  0  0  0  0  0
   22.7653  -20.6985  -17.0356 O   0  0  0  0  0  0  0  0  0  0  0  0
   27.5759  -21.0590   -9.8510 N   0  0  0  0  0  0  0  0  0  0  0  0
   27.3250  -21.2535  -11.2495 C   0  0  0  0  0  0  0  0  0  0  0  0
   28.2938  -21.5243  -12.0835 N   0  0  0  0  0  0  0  0  0  0  0  0
   26.0267  -21.1649  -11.8004 N   0  0  0  0  0  0  0  0  0  0  0  0
   24.8834  -20.9499  -10.9381 C   0  0  0  0  0  0  0  0  0  0  0  0
   23.6224  -20.8549  -11.7757 C   0  0  0  0  0  0  0  0  0  0  0  0
   23.8111  -20.0671  -13.0209 C   0  0  0  0  0  0  0  0  0  0  0  0
   22.9376  -20.3920  -14.1789 C   0  0  2  0  0  0  0  0  0  0  0  0
   23.1916  -19.3357  -15.1747 N   0  0  0  0  0  0  0  0  0  0  0  0
   21.4823  -20.3606  -13.9218 C   0  0  0  0  0  0  0  0  0  0  0  0
   20.8943  -19.2649  -13.5876 O   0  0  0  0  0  0  0  0  0  0  0  0
   28.0249  -21.6456  -13.0782 C   0  0  0  0  0  0  0  0  0  0  0  0
   16.1965  -25.3687  -13.5721 S   0  0  0  0  0  0  0  0  0  0  0  0
   16.3610  -24.1252  -14.9066 C   0  0  0  0  0  0  0  0  0  0  0  0
   17.1470  -22.6586  -14.1400 C   0  0  0  0  0  0  0  0  0  0  0  0
   18.6128  -22.6490  -14.4072 C   0  0  1  0  0  0  0  0  0  0  0  0
   19.2768  -21.4688  -13.7725 N   0  0  0  0  0  0  0  0  0  0  0  0
   20.7336  -21.5434  -14.0472 C   0  0  0  0  0  0  0  0  0  0  0  0
   19.0598  -21.3584  -12.3269 O   0  0  0  0  0  0  0  0  0  0  0  0
   19.7927  -21.9303  -11.5087 O   0  0  0  0  0  0  0  0  0  0  0  0
  2  1  1  0
  3  2  1  0
  4  3  1  0
  5  4  1  0
  5  6  1  1
  7  8  2  0
  7  5  1  0
  9 10  1  0
 10 11  2  0
 12 10  1  0
 12 13  1  0
 13 14  1  0
 15 14  1  0
 16 15  1  1
 16 17  1  0
 17  7  1  0
 18 16  1  0
 18 19  2  0
 21 20  1  0
 22 23  1  0
 22 21  1  0
 24 25  1  0
 24 23  1  6
 25 18  1  0
 26 24  1  0
 27 26  2  0
 28 26  1  0
M  END
$$$$
