MRM.pdb
     RDKit          3D

 28 27  0  0  1  0  0  0  0  0999 V2000
   27.6415  -15.0460  -15.7632 C   0  0  0  0  0  0  0  0  0  0  0  0
   28.7995  -16.2415  -16.5159 S   0  0  0  0  0  0  0  0  0  0  0  0
   27.8786  -17.7591  -16.9733 C   0  0  0  0  0  0  0  0  0  0  0  0
   27.0087  -18.1008  -15.8084 C   0  0  0  0  0  0  0  0  0  0  0  0
   27.6598  -18.9057  -14.7340 C   0  0  2  0  0  0  0  0  0  0  0  0
   28.3161  -20.0999  -15.2224 N   0  0  0  0  0  0  0  0  0  0  0  0
   26.7502  -19.1974  -13.5784 C   0  0  0  0  0  0  0  0  0  0  0  0
   26.0893  -18.2222  -13.1508 O   0  0  0  0  0  0  0  0  0  0  0  0
   23.1293  -25.9074  -12.9759 N   0  0  0  0  0  0  0  0  0  0  0  0
   22.1982  -24.8355  -13.1778 C   0  0  0  0  0  0  0  0  0  0  0  0
   20.9688  -24.9109  -12.7416 N   0  0  0  0  0  0  0  0  0  0  0  0
   22.5544  -23.6467  -13.8536 N   0  0  0  0  0  0  0  0  0  0  0  0
   23.9230  -23.4313  -14.2749 C   0  0  0  0  0  0  0  0  0  0  0  0
   24.3880  -22.0610  -13.8202 C   0  0  0  0  0  0  0  0  0  0  0  0
   25.0108  -22.0778  -12.4716 C   0  0  0  0  0  0  0  0  0  0  0  0
   25.6629  -20.8281  -12.0000 C   0  0  2  0  0  0  0  0  0  0  0  0
   26.6650  -20.4927  -13.0273 N   0  0  0  0  0  0  0  0  0  0  0  0
   26.4089  -20.9268  -10.7277 C   0  0  0  0  0  0  0  0  0  0  0  0
   27.5282  -21.5603  -10.6659 O   0  0  0  0  0  0  0  0  0  0  0  0
   20.3288  -24.1485  -13.0339 C   0  0  0  0  0  0  0  0  0  0  0  0
   28.4856  -17.6904   -6.0112 S   0  0  0  0  0  0  0  0  0  0  0  0
   28.9752  -19.3964   -5.5594 C   0  0  0  0  0  0  0  0  0  0  0  0
   27.7100  -20.4991   -6.2941 C   0  0  0  0  0  0  0  0  0  0  0  0
   27.3526  -20.0456   -7.6677 C   0  0  1  0  0  0  0  0  0  0  0  0
   26.2707  -20.8920   -8.2590 N   0  0  0  0  0  0  0  0  0  0  0  0
   25.8880  -20.3177   -9.5731 C   0  0  0  0  0  0  0  0  0  0  0  0
   25.0765  -21.0205   -7.4184 O   0  0  0  0  0  0  0  0  0  0  0  0
   25.1349  -21.4486   -6.2579 O   0  0  0  0  0  0  0  0  0  0  0  0
  2  1  1  0
  3  2  1  0
  4  3  1  0
  5  4  1  0
  5  6  1  6
  7  8  2  0
  7  5  1  0
  9 10  1  0
 10 11  2  0
 12 10  1  0
 12 13  1  0
 13 14  1  0
 15 14  1  0
 16 15  1  6
 16 17  1  0
 17  7  1  0
 18 16  1  0
 18 19  2  0
 21 20  1  0
 22 23  1  0
 22 21  1  0
 24 25  1  0
 24 23  1  6
 25 18  1  0
 26 24  1  0
 27 26  2  0
 28 26  1  0
M  END
$$$$
