HEC.pdb
     RDKit          3D

 26 26  0  0  1  0  0  0  0  0999 V2000
    8.2801  -17.8882   19.4181 N   0  0  0  0  0  0  0  0  0  0  0  0
    8.2905  -16.5907   20.0264 C   0  0  1  0  0  0  0  0  0  0  0  0
    7.1140  -15.7900   19.5180 C   0  0  0  0  0  0  0  0  0  0  0  0
    7.6093  -14.8875   18.4501 C   0  0  0  0  0  0  0  0  0  0  0  0
    7.4886  -15.0518   17.0876 C   0  0  0  0  0  0  0  0  0  0  0  0
    8.0791  -13.9967   16.4600 N   0  0  0  0  0  0  0  0  0  0  0  0
    8.5636  -13.1816   17.4292 C   0  0  0  0  0  0  0  0  0  0  0  0
    8.2786  -13.7218   18.6208 N   0  0  0  0  0  0  0  0  0  0  0  0
    8.3257  -16.6780   21.4932 C   0  0  0  0  0  0  0  0  0  0  0  0
    7.4167  -17.3636   22.0617 O   0  0  0  0  0  0  0  0  0  0  0  0
    9.2983  -16.0529   22.3084 N   0  0  0  0  0  0  0  0  0  0  0  0
    9.2978  -16.1819   23.7300 C   0  0  1  0  0  0  0  0  0  0  0  0
   10.4192  -16.9263   24.3424 C   0  0  0  0  0  0  0  0  0  0  0  0
   10.9993  -18.0834   23.6466 C   0  0  0  0  0  0  0  0  0  0  0  0
   12.1252  -18.7698   24.3068 C   0  0  0  0  0  0  0  0  0  0  0  0
   12.2927  -20.0091   24.2865 O   0  0  0  0  0  0  0  0  0  0  0  0
    8.9672  -14.9008   24.4157 C   0  0  0  0  0  0  0  0  0  0  0  0
    9.4156  -13.7926   24.0056 O   0  0  0  0  0  0  0  0  0  0  0  0
   13.1070  -18.0544   25.0184 O   0  0  0  0  0  0  0  0  0  0  0  0
    8.1309  -14.8584   25.5639 N   0  0  0  0  0  0  0  0  0  0  0  0
    7.8451  -13.6063   26.2364 C   0  0  1  0  0  0  0  0  0  0  0  0
    6.3356  -13.4901   26.3562 C   0  0  0  0  0  0  0  0  0  0  0  0
    5.8464  -12.0655   27.3579 S   0  0  0  0  0  0  0  0  0  0  0  0
    8.3806  -13.6858   27.6096 C   0  0  0  0  0  0  0  0  0  0  0  0
    8.7529  -14.7873   28.0656 O   0  0  0  0  0  0  0  0  0  0  0  0
    8.4846  -12.5639   28.4178 O   0  0  0  0  0  0  0  0  0  0  0  0
  2  1  1  6
  2  3  1  0
  3  4  1  0
  4  8  1  0
  4  5  2  0
  5  6  1  0
  7  6  1  0
  8  7  2  0
  9 11  1  0
  9  2  1  0
 10  9  2  0
 12 11  1  0
 13 14  1  0
 12 13  1  1
 14 15  1  0
 15 19  1  0
 16 15  2  0
 17 12  1  0
 17 18  2  0
 20 17  1  0
 21 20  1  0
 21 22  1  1
 23 22  1  0
 24 21  1  0
 25 24  2  0
 26 24  1  0
M  END
$$$$
