HEC.pdb
     RDKit          3D

 26 26  0  0  1  0  0  0  0  0999 V2000
    7.8605  -17.0013   19.2930 N   0  0  0  0  0  0  0  0  0  0  0  0
    8.2045  -15.7487   19.8981 C   0  0  1  0  0  0  0  0  0  0  0  0
    7.3387  -14.6561   19.3146 C   0  0  0  0  0  0  0  0  0  0  0  0
    7.7448  -14.4643   17.9009 C   0  0  0  0  0  0  0  0  0  0  0  0
    8.4051  -13.3855   17.3548 C   0  0  0  0  0  0  0  0  0  0  0  0
    8.5876  -13.6055   16.0228 N   0  0  0  0  0  0  0  0  0  0  0  0
    8.0432  -14.8157   15.7444 C   0  0  0  0  0  0  0  0  0  0  0  0
    7.5391  -15.3256   16.8753 N   0  0  0  0  0  0  0  0  0  0  0  0
    8.1252  -15.8128   21.3644 C   0  0  0  0  0  0  0  0  0  0  0  0
    7.0344  -16.2238   21.8750 O   0  0  0  0  0  0  0  0  0  0  0  0
    9.1760  -15.4493   22.2388 N   0  0  0  0  0  0  0  0  0  0  0  0
    9.0986  -15.6538   23.6494 C   0  0  1  0  0  0  0  0  0  0  0  0
   10.1901  -16.4250   24.2825 C   0  0  0  0  0  0  0  0  0  0  0  0
   10.5077  -17.7773   23.8028 C   0  0  0  0  0  0  0  0  0  0  0  0
   11.5837  -18.5033   24.5024 C   0  0  0  0  0  0  0  0  0  0  0  0
   11.9678  -19.6510   24.1867 O   0  0  0  0  0  0  0  0  0  0  0  0
    8.7216  -14.4126   24.3827 C   0  0  0  0  0  0  0  0  0  0  0  0
    9.1975  -13.2847   24.0684 O   0  0  0  0  0  0  0  0  0  0  0  0
   12.2635  -17.9350   25.5965 O   0  0  0  0  0  0  0  0  0  0  0  0
    7.8080  -14.4322   25.4710 N   0  0  0  0  0  0  0  0  0  0  0  0
    7.5389  -13.2359   26.2446 C   0  0  1  0  0  0  0  0  0  0  0  0
    6.0468  -12.9666   26.1588 C   0  0  0  0  0  0  0  0  0  0  0  0
    5.5468  -11.5948   27.2269 S   0  0  0  0  0  0  0  0  0  0  0  0
    7.8437  -13.5220   27.6602 C   0  0  0  0  0  0  0  0  0  0  0  0
    7.9992  -14.7038   28.0330 O   0  0  0  0  0  0  0  0  0  0  0  0
    7.9641  -12.5090   28.5993 O   0  0  0  0  0  0  0  0  0  0  0  0
  2  1  1  6
  2  3  1  0
  3  4  1  0
  4  8  1  0
  4  5  2  0
  5  6  1  0
  7  6  1  0
  8  7  2  0
  9 11  1  0
  9  2  1  0
 10  9  2  0
 12 11  1  0
 13 14  1  0
 12 13  1  1
 14 15  1  0
 15 19  1  0
 16 15  2  0
 17 12  1  0
 17 18  2  0
 20 17  1  0
 21 20  1  0
 21 22  1  1
 23 22  1  0
 24 21  1  0
 25 24  2  0
 26 24  1  0
M  END
$$$$
