HEC.pdb
     RDKit          3D

 26 26  0  0  1  0  0  0  0  0999 V2000
   10.5116  -18.8965   15.3333 N   0  0  0  0  0  0  0  0  0  0  0  0
   11.0556  -17.7026   15.9096 C   0  0  1  0  0  0  0  0  0  0  0  0
   10.0267  -16.5981   15.8376 C   0  0  0  0  0  0  0  0  0  0  0  0
    9.7801  -16.3029   14.4051 C   0  0  0  0  0  0  0  0  0  0  0  0
   10.5399  -15.5182   13.5655 C   0  0  0  0  0  0  0  0  0  0  0  0
    9.9670  -15.5079   12.3295 N   0  0  0  0  0  0  0  0  0  0  0  0
    8.8570  -16.2830   12.4025 C   0  0  0  0  0  0  0  0  0  0  0  0
    8.7504  -16.7569   13.6503 N   0  0  0  0  0  0  0  0  0  0  0  0
   11.5459  -17.9327   17.2760 C   0  0  0  0  0  0  0  0  0  0  0  0
   10.8092  -18.6175   18.0556 O   0  0  0  0  0  0  0  0  0  0  0  0
   12.7756  -17.4451   17.7771 N   0  0  0  0  0  0  0  0  0  0  0  0
   13.2888  -17.8371   19.0501 C   0  0  1  0  0  0  0  0  0  0  0  0
   14.7296  -18.1608   19.1286 C   0  0  0  0  0  0  0  0  0  0  0  0
   15.6893  -17.4515   18.2710 C   0  0  0  0  0  0  0  0  0  0  0  0
   17.1111  -17.8179   18.4070 C   0  0  0  0  0  0  0  0  0  0  0  0
   17.6180  -18.8404   17.8953 O   0  0  0  0  0  0  0  0  0  0  0  0
   12.7971  -16.9641   20.1531 C   0  0  0  0  0  0  0  0  0  0  0  0
   12.8616  -15.7039   20.0823 O   0  0  0  0  0  0  0  0  0  0  0  0
   18.0096  -17.0188   19.1395 O   0  0  0  0  0  0  0  0  0  0  0  0
   12.2299  -17.5023   21.3398 N   0  0  0  0  0  0  0  0  0  0  0  0
   11.8342  -16.6421   22.4377 C   0  0  1  0  0  0  0  0  0  0  0  0
   10.4791  -17.1237   22.9255 C   0  0  0  0  0  0  0  0  0  0  0  0
    9.1783  -16.8268   21.7039 S   0  0  0  0  0  0  0  0  0  0  0  0
   12.7865  -16.8409   23.5478 C   0  0  0  0  0  0  0  0  0  0  0  0
   12.6719  -16.1625   24.5902 O   0  0  0  0  0  0  0  0  0  0  0  0
   13.8153  -17.7671   23.4690 O   0  0  0  0  0  0  0  0  0  0  0  0
  2  1  1  1
  2  3  1  0
  3  4  1  0
  4  8  1  0
  4  5  2  0
  5  6  1  0
  7  6  1  0
  8  7  2  0
  9 11  1  0
  9  2  1  0
 10  9  2  0
 12 11  1  0
 13 14  1  0
 12 13  1  6
 14 15  1  0
 15 19  1  0
 16 15  2  0
 17 12  1  0
 17 18  2  0
 20 17  1  0
 21 20  1  0
 21 22  1  1
 23 22  1  0
 24 21  1  0
 25 24  2  0
 26 24  1  0
M  END
$$$$
