HEC.pdb
     RDKit          3D

 26 26  0  0  1  0  0  0  0  0999 V2000
    8.5183  -17.0374   18.1441 N   0  0  0  0  0  0  0  0  0  0  0  0
    8.8243  -16.0100   19.0951 C   0  0  1  0  0  0  0  0  0  0  0  0
    7.6774  -15.0279   19.1575 C   0  0  0  0  0  0  0  0  0  0  0  0
    7.6015  -14.3378   17.8466 C   0  0  0  0  0  0  0  0  0  0  0  0
    7.9193  -13.0268   17.5670 C   0  0  0  0  0  0  0  0  0  0  0  0
    7.7100  -12.7932   16.2413 N   0  0  0  0  0  0  0  0  0  0  0  0
    7.2647  -13.9544   15.7013 C   0  0  0  0  0  0  0  0  0  0  0  0
    7.2017  -14.8771   16.6696 N   0  0  0  0  0  0  0  0  0  0  0  0
    9.1634  -16.5702   20.4110 C   0  0  0  0  0  0  0  0  0  0  0  0
    8.2082  -17.0245   21.1185 O   0  0  0  0  0  0  0  0  0  0  0  0
   10.4744  -16.6362   20.9383 N   0  0  0  0  0  0  0  0  0  0  0  0
   10.7636  -17.2711   22.1836 C   0  0  1  0  0  0  0  0  0  0  0  0
   12.0012  -18.0768   22.2612 C   0  0  0  0  0  0  0  0  0  0  0  0
   12.3290  -18.8019   23.4967 C   0  0  0  0  0  0  0  0  0  0  0  0
   13.5626  -19.6098   23.4949 C   0  0  0  0  0  0  0  0  0  0  0  0
   13.6697  -20.7173   24.0661 O   0  0  0  0  0  0  0  0  0  0  0  0
   10.5509  -16.3633   23.3460 C   0  0  0  0  0  0  0  0  0  0  0  0
   11.2422  -15.3177   23.5078 O   0  0  0  0  0  0  0  0  0  0  0  0
   14.7261  -19.1738   22.8326 O   0  0  0  0  0  0  0  0  0  0  0  0
    9.5604  -16.6250   24.3309 N   0  0  0  0  0  0  0  0  0  0  0  0
    9.5220  -15.8762   25.5718 C   0  0  1  0  0  0  0  0  0  0  0  0
    8.0792  -15.4658   25.8092 C   0  0  0  0  0  0  0  0  0  0  0  0
    7.5068  -14.2707   24.5777 S   0  0  0  0  0  0  0  0  0  0  0  0
    9.8973  -16.7851   26.6726 C   0  0  0  0  0  0  0  0  0  0  0  0
   10.1319  -17.9875   26.4294 O   0  0  0  0  0  0  0  0  0  0  0  0
    9.9988  -16.3413   27.9823 O   0  0  0  0  0  0  0  0  0  0  0  0
  2  1  1  6
  2  3  1  0
  3  4  1  0
  4  8  1  0
  4  5  2  0
  5  6  1  0
  7  6  1  0
  8  7  2  0
  9 11  1  0
  9  2  1  0
 10  9  2  0
 12 11  1  0
 13 14  1  0
 12 13  1  6
 14 15  1  0
 15 19  1  0
 16 15  2  0
 17 12  1  0
 17 18  2  0
 20 17  1  0
 21 20  1  0
 21 22  1  1
 23 22  1  0
 24 21  1  0
 25 24  2  0
 26 24  1  0
M  END
$$$$
