HEC.pdb
     RDKit          3D

 26 26  0  0  1  0  0  0  0  0999 V2000
    9.5615  -15.5182   19.2331 N   0  0  0  0  0  0  0  0  0  0  0  0
    8.4994  -14.8173   19.8919 C   0  0  1  0  0  0  0  0  0  0  0  0
    7.2069  -15.0492   19.1439 C   0  0  0  0  0  0  0  0  0  0  0  0
    7.4363  -14.6900   17.7231 C   0  0  0  0  0  0  0  0  0  0  0  0
    7.8057  -13.4639   17.2150 C   0  0  0  0  0  0  0  0  0  0  0  0
    7.9106  -13.5591   15.8601 N   0  0  0  0  0  0  0  0  0  0  0  0
    7.6079  -14.8388   15.5297 C   0  0  0  0  0  0  0  0  0  0  0  0
    7.3242  -15.5121   16.6518 N   0  0  0  0  0  0  0  0  0  0  0  0
    8.4058  -15.1824   21.3126 C   0  0  0  0  0  0  0  0  0  0  0  0
    7.4226  -14.7178   21.9736 O   0  0  0  0  0  0  0  0  0  0  0  0
    9.3320  -16.0112   21.9880 N   0  0  0  0  0  0  0  0  0  0  0  0
    9.2240  -16.2958   23.3827 C   0  0  1  0  0  0  0  0  0  0  0  0
   10.1326  -17.3227   23.9363 C   0  0  0  0  0  0  0  0  0  0  0  0
   10.0595  -17.6768   25.3607 C   0  0  0  0  0  0  0  0  0  0  0  0
   11.0709  -18.6204   25.8716 C   0  0  0  0  0  0  0  0  0  0  0  0
   10.8055  -19.5863   26.6207 O   0  0  0  0  0  0  0  0  0  0  0  0
    9.1236  -15.0590   24.2078 C   0  0  0  0  0  0  0  0  0  0  0  0
   10.0234  -14.1717   24.1874 O   0  0  0  0  0  0  0  0  0  0  0  0
   12.4327  -18.4901   25.5389 O   0  0  0  0  0  0  0  0  0  0  0  0
    8.0121  -14.8127   25.0583 N   0  0  0  0  0  0  0  0  0  0  0  0
    7.9419  -13.6140   25.8708 C   0  0  1  0  0  0  0  0  0  0  0  0
    6.5060  -13.1213   25.8290 C   0  0  0  0  0  0  0  0  0  0  0  0
    6.2148  -11.7905   27.0193 S   0  0  0  0  0  0  0  0  0  0  0  0
    8.2284  -13.9859   27.2702 C   0  0  0  0  0  0  0  0  0  0  0  0
    8.5068  -13.0969   28.1020 O   0  0  0  0  0  0  0  0  0  0  0  0
    8.1977  -15.3055   27.6948 O   0  0  0  0  0  0  0  0  0  0  0  0
  2  1  1  6
  2  3  1  0
  3  4  1  0
  4  8  1  0
  4  5  2  0
  5  6  1  0
  7  6  1  0
  8  7  2  0
  9 11  1  0
  9  2  1  0
 10  9  2  0
 12 11  1  0
 13 14  1  0
 12 13  1  1
 14 15  1  0
 15 19  1  0
 16 15  2  0
 17 12  1  0
 17 18  2  0
 20 17  1  0
 21 20  1  0
 21 22  1  1
 23 22  1  0
 24 21  1  0
 25 24  2  0
 26 24  1  0
M  END
$$$$
