HEC.pdb
     RDKit          3D

 26 26  0  0  1  0  0  0  0  0999 V2000
    6.6389  -17.0933   21.2683 N   0  0  0  0  0  0  0  0  0  0  0  0
    7.7825  -16.2770   21.5499 C   0  0  1  0  0  0  0  0  0  0  0  0
    7.3519  -14.8326   21.6594 C   0  0  0  0  0  0  0  0  0  0  0  0
    7.7491  -14.1463   20.4058 C   0  0  0  0  0  0  0  0  0  0  0  0
    8.4068  -14.6877   19.3231 C   0  0  0  0  0  0  0  0  0  0  0  0
    8.5796  -13.7198   18.3802 N   0  0  0  0  0  0  0  0  0  0  0  0
    8.0311  -12.5832   18.8761 C   0  0  0  0  0  0  0  0  0  0  0  0
    7.5347  -12.8458   20.0917 N   0  0  0  0  0  0  0  0  0  0  0  0
    8.5050  -16.7453   22.7412 C   0  0  0  0  0  0  0  0  0  0  0  0
    7.8150  -17.0223   23.7740 O   0  0  0  0  0  0  0  0  0  0  0  0
    9.9085  -16.9066   22.8133 N   0  0  0  0  0  0  0  0  0  0  0  0
   10.5616  -17.3785   23.9916 C   0  0  1  0  0  0  0  0  0  0  0  0
   11.7762  -18.2018   23.8085 C   0  0  0  0  0  0  0  0  0  0  0  0
   12.4710  -18.7558   24.9790 C   0  0  0  0  0  0  0  0  0  0  0  0
   13.6752  -19.5679   24.7239 C   0  0  0  0  0  0  0  0  0  0  0  0
   14.6963  -19.5436   25.4457 O   0  0  0  0  0  0  0  0  0  0  0  0
   10.6920  -16.3186   25.0309 C   0  0  0  0  0  0  0  0  0  0  0  0
   11.0810  -15.1509   24.7439 O   0  0  0  0  0  0  0  0  0  0  0  0
   13.7519  -20.4441   23.6245 O   0  0  0  0  0  0  0  0  0  0  0  0
   10.3852  -16.5650   26.3964 N   0  0  0  0  0  0  0  0  0  0  0  0
   10.4769  -15.5101   27.3868 C   0  0  1  0  0  0  0  0  0  0  0  0
    9.0947  -14.8960   27.5242 C   0  0  0  0  0  0  0  0  0  0  0  0
    9.0397  -13.6447   28.8294 S   0  0  0  0  0  0  0  0  0  0  0  0
   10.8060  -16.1243   28.6880 C   0  0  0  0  0  0  0  0  0  0  0  0
   10.7776  -17.3669   28.8104 O   0  0  0  0  0  0  0  0  0  0  0  0
   11.1495  -15.3568   29.7905 O   0  0  0  0  0  0  0  0  0  0  0  0
  2  1  1  1
  2  3  1  0
  3  4  1  0
  4  8  1  0
  4  5  2  0
  5  6  1  0
  7  6  1  0
  8  7  2  0
  9 11  1  0
  9  2  1  0
 10  9  2  0
 12 11  1  0
 13 14  1  0
 12 13  1  6
 14 15  1  0
 15 19  1  0
 16 15  2  0
 17 12  1  0
 17 18  2  0
 20 17  1  0
 21 20  1  0
 21 22  1  1
 23 22  1  0
 24 21  1  0
 25 24  2  0
 26 24  1  0
M  END
$$$$
