HEC.pdb
     RDKit          3D

 26 26  0  0  1  0  0  0  0  0999 V2000
    9.3358  -15.4297   20.4725 N   0  0  0  0  0  0  0  0  0  0  0  0
    8.9715  -16.6195   19.7618 C   0  0  1  0  0  0  0  0  0  0  0  0
    9.3572  -16.4723   18.3081 C   0  0  0  0  0  0  0  0  0  0  0  0
    8.7385  -15.2234   17.8006 C   0  0  0  0  0  0  0  0  0  0  0  0
    8.7516  -13.9786   18.3908 C   0  0  0  0  0  0  0  0  0  0  0  0
    8.0687  -13.1055   17.5989 N   0  0  0  0  0  0  0  0  0  0  0  0
    7.6342  -13.8059   16.5223 C   0  0  0  0  0  0  0  0  0  0  0  0
    8.0392  -15.0758   16.6494 N   0  0  0  0  0  0  0  0  0  0  0  0
    9.5467  -17.8214   20.3822 C   0  0  0  0  0  0  0  0  0  0  0  0
    9.8294  -18.7980   19.6169 O   0  0  0  0  0  0  0  0  0  0  0  0
    9.8044  -17.9618   21.7661 N   0  0  0  0  0  0  0  0  0  0  0  0
   10.9963  -17.4638   22.3735 C   0  0  1  0  0  0  0  0  0  0  0  0
   12.0445  -16.9355   21.4741 C   0  0  0  0  0  0  0  0  0  0  0  0
   12.8249  -17.8561   20.6355 C   0  0  0  0  0  0  0  0  0  0  0  0
   14.2494  -18.0304   20.9743 C   0  0  0  0  0  0  0  0  0  0  0  0
   14.9089  -17.2107   21.6508 O   0  0  0  0  0  0  0  0  0  0  0  0
   10.7131  -16.6017   23.5554 C   0  0  0  0  0  0  0  0  0  0  0  0
   11.6414  -16.1314   24.2727 O   0  0  0  0  0  0  0  0  0  0  0  0
   14.9740  -19.1594   20.5471 O   0  0  0  0  0  0  0  0  0  0  0  0
    9.3866  -16.2630   23.9365 N   0  0  0  0  0  0  0  0  0  0  0  0
    9.1317  -15.3798   25.0577 C   0  0  1  0  0  0  0  0  0  0  0  0
    7.7741  -14.7384   24.8302 C   0  0  0  0  0  0  0  0  0  0  0  0
    7.5873  -14.1391   23.1336 S   0  0  0  0  0  0  0  0  0  0  0  0
    9.0199  -16.2021   26.2783 C   0  0  0  0  0  0  0  0  0  0  0  0
    9.1173  -17.4446   26.1983 O   0  0  0  0  0  0  0  0  0  0  0  0
    8.8079  -15.6323   27.5245 O   0  0  0  0  0  0  0  0  0  0  0  0
  2  1  1  1
  2  3  1  0
  3  4  1  0
  4  8  1  0
  4  5  2  0
  5  6  1  0
  7  6  1  0
  8  7  2  0
  9 11  1  0
  9  2  1  0
 10  9  2  0
 12 11  1  0
 13 14  1  0
 12 13  1  6
 14 15  1  0
 15 19  1  0
 16 15  2  0
 17 12  1  0
 17 18  2  0
 20 17  1  0
 21 20  1  0
 21 22  1  6
 23 22  1  0
 24 21  1  0
 25 24  2  0
 26 24  1  0
M  END
$$$$
