HEC.pdb
     RDKit          3D

 26 26  0  0  1  0  0  0  0  0999 V2000
    7.4079  -17.0786   19.6923 N   0  0  0  0  0  0  0  0  0  0  0  0
    7.9563  -15.8990   20.2934 C   0  0  1  0  0  0  0  0  0  0  0  0
    7.2241  -14.6844   19.7713 C   0  0  0  0  0  0  0  0  0  0  0  0
    7.6575  -14.4632   18.3701 C   0  0  0  0  0  0  0  0  0  0  0  0
    8.5405  -15.2219   17.6334 C   0  0  0  0  0  0  0  0  0  0  0  0
    8.6631  -14.6773   16.3908 N   0  0  0  0  0  0  0  0  0  0  0  0
    7.8593  -13.5859   16.3570 C   0  0  0  0  0  0  0  0  0  0  0  0
    7.2589  -13.4629   17.5475 N   0  0  0  0  0  0  0  0  0  0  0  0
    7.9450  -15.9806   21.7609 C   0  0  0  0  0  0  0  0  0  0  0  0
    6.8126  -15.9518   22.3409 O   0  0  0  0  0  0  0  0  0  0  0  0
    9.1039  -16.0883   22.5648 N   0  0  0  0  0  0  0  0  0  0  0  0
    9.0454  -16.0788   23.9911 C   0  0  1  0  0  0  0  0  0  0  0  0
   10.0105  -16.9349   24.7138 C   0  0  0  0  0  0  0  0  0  0  0  0
   10.2899  -18.2949   24.2321 C   0  0  0  0  0  0  0  0  0  0  0  0
   11.7028  -18.6508   24.0051 C   0  0  0  0  0  0  0  0  0  0  0  0
   12.5007  -18.9493   24.9209 O   0  0  0  0  0  0  0  0  0  0  0  0
    8.9160  -14.7012   24.5443 C   0  0  0  0  0  0  0  0  0  0  0  0
    9.6215  -13.7441   24.1159 O   0  0  0  0  0  0  0  0  0  0  0  0
   12.2553  -18.6782   22.7104 O   0  0  0  0  0  0  0  0  0  0  0  0
    7.9932  -14.3922   25.5799 N   0  0  0  0  0  0  0  0  0  0  0  0
    8.0893  -13.1509   26.3228 C   0  0  1  0  0  0  0  0  0  0  0  0
    6.7264  -12.4832   26.2683 C   0  0  0  0  0  0  0  0  0  0  0  0
    5.4426  -13.5080   27.0260 S   0  0  0  0  0  0  0  0  0  0  0  0
    8.3518  -13.4777   27.7381 C   0  0  0  0  0  0  0  0  0  0  0  0
    8.3337  -14.6694   28.1115 O   0  0  0  0  0  0  0  0  0  0  0  0
    8.6208  -12.4927   28.6761 O   0  0  0  0  0  0  0  0  0  0  0  0
  2  1  1  6
  2  3  1  0
  3  4  1  0
  4  8  1  0
  4  5  2  0
  5  6  1  0
  7  6  1  0
  8  7  2  0
  9 11  1  0
  9  2  1  0
 10  9  2  0
 12 11  1  0
 13 14  1  0
 12 13  1  1
 14 15  1  0
 15 19  1  0
 16 15  2  0
 17 12  1  0
 17 18  2  0
 20 17  1  0
 21 20  1  0
 21 22  1  1
 23 22  1  0
 24 21  1  0
 25 24  2  0
 26 24  1  0
M  END
$$$$
