HEC.pdb
     RDKit          3D

 26 26  0  0  1  0  0  0  0  0999 V2000
    9.5049  -15.0623   19.3313 N   0  0  0  0  0  0  0  0  0  0  0  0
    8.1935  -14.8491   19.8681 C   0  0  1  0  0  0  0  0  0  0  0  0
    7.1645  -15.4083   18.9130 C   0  0  0  0  0  0  0  0  0  0  0  0
    7.3195  -14.7022   17.6177 C   0  0  0  0  0  0  0  0  0  0  0  0
    7.9509  -13.4999   17.3858 C   0  0  0  0  0  0  0  0  0  0  0  0
    7.8696  -13.2055   16.0583 N   0  0  0  0  0  0  0  0  0  0  0  0
    7.1910  -14.2210   15.4695 C   0  0  0  0  0  0  0  0  0  0  0  0
    6.8637  -15.1156   16.4105 N   0  0  0  0  0  0  0  0  0  0  0  0
    8.0652  -15.3988   21.2253 C   0  0  0  0  0  0  0  0  0  0  0  0
    6.9483  -15.2473   21.8159 O   0  0  0  0  0  0  0  0  0  0  0  0
    9.0966  -16.0806   21.9127 N   0  0  0  0  0  0  0  0  0  0  0  0
    9.0004  -16.4096   23.2984 C   0  0  1  0  0  0  0  0  0  0  0  0
    9.8209  -17.5399   23.7842 C   0  0  0  0  0  0  0  0  0  0  0  0
    9.8350  -17.8754   25.2149 C   0  0  0  0  0  0  0  0  0  0  0  0
   10.7682  -18.9315   25.6486 C   0  0  0  0  0  0  0  0  0  0  0  0
   10.5957  -20.1491   25.4201 O   0  0  0  0  0  0  0  0  0  0  0  0
    9.0426  -15.2032   24.1721 C   0  0  0  0  0  0  0  0  0  0  0  0
   10.1103  -14.5520   24.3546 O   0  0  0  0  0  0  0  0  0  0  0  0
   11.9418  -18.6271   26.3644 O   0  0  0  0  0  0  0  0  0  0  0  0
    7.8862  -14.7223   24.8436 N   0  0  0  0  0  0  0  0  0  0  0  0
    7.9636  -13.6000   25.7582 C   0  0  1  0  0  0  0  0  0  0  0  0
    6.5505  -13.0821   25.9611 C   0  0  0  0  0  0  0  0  0  0  0  0
    6.5375  -11.4217   26.6788 S   0  0  0  0  0  0  0  0  0  0  0  0
    8.4303  -14.1002   27.0661 C   0  0  0  0  0  0  0  0  0  0  0  0
    8.2606  -15.3007   27.3658 O   0  0  0  0  0  0  0  0  0  0  0  0
    9.0581  -13.2702   27.9824 O   0  0  0  0  0  0  0  0  0  0  0  0
  2  1  1  6
  2  3  1  0
  3  4  1  0
  4  8  1  0
  4  5  2  0
  5  6  1  0
  7  6  1  0
  8  7  2  0
  9 11  1  0
  9  2  1  0
 10  9  2  0
 12 11  1  0
 13 14  1  0
 12 13  1  1
 14 15  1  0
 15 19  1  0
 16 15  2  0
 17 12  1  0
 17 18  2  0
 20 17  1  0
 21 20  1  0
 21 22  1  1
 23 22  1  0
 24 21  1  0
 25 24  2  0
 26 24  1  0
M  END
$$$$
