HEC.pdb
     RDKit          3D

 26 26  0  0  1  0  0  0  0  0999 V2000
    7.2136  -17.1721   19.5141 N   0  0  0  0  0  0  0  0  0  0  0  0
    8.1038  -16.1741   20.0291 C   0  0  1  0  0  0  0  0  0  0  0  0
    7.4643  -14.8121   19.8884 C   0  0  0  0  0  0  0  0  0  0  0  0
    7.5503  -14.4179   18.4610 C   0  0  0  0  0  0  0  0  0  0  0  0
    8.1278  -15.1224   17.4275 C   0  0  0  0  0  0  0  0  0  0  0  0
    7.9913  -14.4097   16.2746 N   0  0  0  0  0  0  0  0  0  0  0  0
    7.3318  -13.2683   16.5919 C   0  0  0  0  0  0  0  0  0  0  0  0
    7.0702  -13.2792   17.9051 N   0  0  0  0  0  0  0  0  0  0  0  0
    8.5113  -16.4693   21.4102 C   0  0  0  0  0  0  0  0  0  0  0  0
    7.6070  -16.8540   22.2187 O   0  0  0  0  0  0  0  0  0  0  0  0
    9.8351  -16.3538   21.8953 N   0  0  0  0  0  0  0  0  0  0  0  0
   10.1864  -16.6882   23.2379 C   0  0  1  0  0  0  0  0  0  0  0  0
   11.4069  -17.4992   23.4362 C   0  0  0  0  0  0  0  0  0  0  0  0
   11.8101  -17.8998   24.7913 C   0  0  0  0  0  0  0  0  0  0  0  0
   13.0622  -18.6680   24.9207 C   0  0  0  0  0  0  0  0  0  0  0  0
   13.1039  -19.8960   25.1547 O   0  0  0  0  0  0  0  0  0  0  0  0
   10.0681  -15.5250   24.1616 C   0  0  0  0  0  0  0  0  0  0  0  0
   10.0553  -14.3357   23.7342 O   0  0  0  0  0  0  0  0  0  0  0  0
   14.3206  -18.0513   24.7848 O   0  0  0  0  0  0  0  0  0  0  0  0
    9.9628  -15.6921   25.5689 N   0  0  0  0  0  0  0  0  0  0  0  0
    9.6733  -14.5676   26.4371 C   0  0  1  0  0  0  0  0  0  0  0  0
    8.2968  -14.0475   26.0616 C   0  0  0  0  0  0  0  0  0  0  0  0
    7.7698  -12.6946   27.1407 S   0  0  0  0  0  0  0  0  0  0  0  0
    9.5816  -15.0651   27.8237 C   0  0  0  0  0  0  0  0  0  0  0  0
    9.1974  -16.2340   28.0375 O   0  0  0  0  0  0  0  0  0  0  0  0
    9.9123  -14.2668   28.9081 O   0  0  0  0  0  0  0  0  0  0  0  0
  2  1  1  1
  2  3  1  0
  3  4  1  0
  4  8  1  0
  4  5  2  0
  5  6  1  0
  7  6  1  0
  8  7  2  0
  9 11  1  0
  9  2  1  0
 10  9  2  0
 12 11  1  0
 13 14  1  0
 12 13  1  6
 14 15  1  0
 15 19  1  0
 16 15  2  0
 17 12  1  0
 17 18  2  0
 20 17  1  0
 21 20  1  0
 21 22  1  6
 23 22  1  0
 24 21  1  0
 25 24  2  0
 26 24  1  0
M  END
$$$$
