HEC.pdb
     RDKit          3D

 26 26  0  0  1  0  0  0  0  0999 V2000
    8.9607  -16.4670   19.7950 N   0  0  0  0  0  0  0  0  0  0  0  0
    8.9126  -15.3477   20.6885 C   0  0  1  0  0  0  0  0  0  0  0  0
    7.6692  -14.5360   20.4078 C   0  0  0  0  0  0  0  0  0  0  0  0
    7.7548  -14.0469   19.0101 C   0  0  0  0  0  0  0  0  0  0  0  0
    8.5474  -13.0314   18.5217 C   0  0  0  0  0  0  0  0  0  0  0  0
    8.3258  -12.9004   17.1840 N   0  0  0  0  0  0  0  0  0  0  0  0
    7.4000  -13.8310   16.8443 C   0  0  0  0  0  0  0  0  0  0  0  0
    7.0615  -14.5154   17.9443 N   0  0  0  0  0  0  0  0  0  0  0  0
    9.0099  -15.7686   22.0934 C   0  0  0  0  0  0  0  0  0  0  0  0
    7.9367  -15.7814   22.7772 O   0  0  0  0  0  0  0  0  0  0  0  0
   10.2116  -16.1576   22.7303 N   0  0  0  0  0  0  0  0  0  0  0  0
   10.2539  -16.5529   24.1013 C   0  0  1  0  0  0  0  0  0  0  0  0
   11.1086  -17.7093   24.4462 C   0  0  0  0  0  0  0  0  0  0  0  0
   11.2322  -18.1394   25.8460 C   0  0  0  0  0  0  0  0  0  0  0  0
   12.1437  -19.2643   26.1257 C   0  0  0  0  0  0  0  0  0  0  0  0
   13.1565  -19.1744   26.8541 O   0  0  0  0  0  0  0  0  0  0  0  0
   10.3966  -15.3905   25.0227 C   0  0  0  0  0  0  0  0  0  0  0  0
   11.3481  -14.5663   24.9101 O   0  0  0  0  0  0  0  0  0  0  0  0
   11.9245  -20.5422   25.5769 O   0  0  0  0  0  0  0  0  0  0  0  0
    9.4712  -15.1479   26.0735 N   0  0  0  0  0  0  0  0  0  0  0  0
    9.6780  -14.0689   27.0194 C   0  0  1  0  0  0  0  0  0  0  0  0
    8.4346  -13.1973   26.9920 C   0  0  0  0  0  0  0  0  0  0  0  0
    6.9246  -14.1697   27.2081 S   0  0  0  0  0  0  0  0  0  0  0  0
    9.7657  -14.6506   28.3731 C   0  0  0  0  0  0  0  0  0  0  0  0
    9.5418  -15.8680   28.5390 O   0  0  0  0  0  0  0  0  0  0  0  0
   10.0923  -13.8796   29.4783 O   0  0  0  0  0  0  0  0  0  0  0  0
  2  1  1  6
  2  3  1  0
  3  4  1  0
  4  8  1  0
  4  5  2  0
  5  6  1  0
  7  6  1  0
  8  7  2  0
  9 11  1  0
  9  2  1  0
 10  9  2  0
 12 11  1  0
 13 14  1  0
 12 13  1  6
 14 15  1  0
 15 19  1  0
 16 15  2  0
 17 12  1  0
 17 18  2  0
 20 17  1  0
 21 20  1  0
 21 22  1  1
 23 22  1  0
 24 21  1  0
 25 24  2  0
 26 24  1  0
M  END
$$$$
