HEC.pdb
     RDKit          3D

 26 26  0  0  1  0  0  0  0  0999 V2000
   10.5902  -19.8435   16.5228 N   0  0  0  0  0  0  0  0  0  0  0  0
   11.1866  -18.6338   17.0068 C   0  0  1  0  0  0  0  0  0  0  0  0
   10.2710  -17.4694   16.7074 C   0  0  0  0  0  0  0  0  0  0  0  0
   10.3882  -17.1628   15.2608 C   0  0  0  0  0  0  0  0  0  0  0  0
   11.1485  -17.8226   14.3204 C   0  0  0  0  0  0  0  0  0  0  0  0
   10.9734  -17.2238   13.1094 N   0  0  0  0  0  0  0  0  0  0  0  0
   10.1080  -16.1972   13.2982 C   0  0  0  0  0  0  0  0  0  0  0  0
    9.7607  -16.1659   14.5910 N   0  0  0  0  0  0  0  0  0  0  0  0
   11.5334  -18.7306   18.4318 C   0  0  0  0  0  0  0  0  0  0  0  0
   10.5865  -18.9559   19.2516 O   0  0  0  0  0  0  0  0  0  0  0  0
   12.8432  -18.5902   18.9475 N   0  0  0  0  0  0  0  0  0  0  0  0
   13.1337  -18.7302   20.3380 C   0  0  1  0  0  0  0  0  0  0  0  0
   14.3005  -19.5610   20.7055 C   0  0  0  0  0  0  0  0  0  0  0  0
   15.6618  -19.0459   20.5023 C   0  0  0  0  0  0  0  0  0  0  0  0
   16.7790  -19.9398   20.8589 C   0  0  0  0  0  0  0  0  0  0  0  0
   17.3759  -19.9030   21.9574 O   0  0  0  0  0  0  0  0  0  0  0  0
   13.0518  -17.4336   21.0679 C   0  0  0  0  0  0  0  0  0  0  0  0
   13.6108  -16.3881   20.6299 O   0  0  0  0  0  0  0  0  0  0  0  0
   17.2550  -20.9155   19.9624 O   0  0  0  0  0  0  0  0  0  0  0  0
   12.3413  -17.3051   22.2918 N   0  0  0  0  0  0  0  0  0  0  0  0
   12.3444  -16.0587   23.0324 C   0  0  1  0  0  0  0  0  0  0  0  0
   10.9106  -15.7713   23.4423 C   0  0  0  0  0  0  0  0  0  0  0  0
   10.2072  -17.1179   24.4242 S   0  0  0  0  0  0  0  0  0  0  0  0
   13.1148  -16.2607   24.2751 C   0  0  0  0  0  0  0  0  0  0  0  0
   13.4035  -17.4188   24.6427 O   0  0  0  0  0  0  0  0  0  0  0  0
   13.5326  -15.1935   25.0555 O   0  0  0  0  0  0  0  0  0  0  0  0
  2  1  1  1
  2  3  1  0
  3  4  1  0
  4  8  1  0
  4  5  2  0
  5  6  1  0
  7  6  1  0
  8  7  2  0
  9 11  1  0
  9  2  1  0
 10  9  2  0
 12 11  1  0
 13 14  1  0
 12 13  1  6
 14 15  1  0
 15 19  1  0
 16 15  2  0
 17 12  1  0
 17 18  2  0
 20 17  1  0
 21 20  1  0
 21 22  1  1
 23 22  1  0
 24 21  1  0
 25 24  2  0
 26 24  1  0
M  END
$$$$
