HEC.pdb
     RDKit          3D

 26 26  0  0  1  0  0  0  0  0999 V2000
    9.6205  -15.4283   19.6428 N   0  0  0  0  0  0  0  0  0  0  0  0
    8.5020  -14.7350   20.2101 C   0  0  1  0  0  0  0  0  0  0  0  0
    7.2772  -14.9800   19.3595 C   0  0  0  0  0  0  0  0  0  0  0  0
    7.5939  -14.5481   17.9763 C   0  0  0  0  0  0  0  0  0  0  0  0
    8.0255  -13.3075   17.5609 C   0  0  0  0  0  0  0  0  0  0  0  0
    8.2012  -13.3287   16.2102 N   0  0  0  0  0  0  0  0  0  0  0  0
    7.8802  -14.5772   15.7899 C   0  0  0  0  0  0  0  0  0  0  0  0
    7.5166  -15.3038   16.8543 N   0  0  0  0  0  0  0  0  0  0  0  0
    8.2954  -15.0973   21.6195 C   0  0  0  0  0  0  0  0  0  0  0  0
    7.2270  -14.6907   22.1787 O   0  0  0  0  0  0  0  0  0  0  0  0
    9.2016  -15.8635   22.3895 N   0  0  0  0  0  0  0  0  0  0  0  0
    8.9768  -16.1489   23.7699 C   0  0  1  0  0  0  0  0  0  0  0  0
    9.7710  -17.2405   24.3735 C   0  0  0  0  0  0  0  0  0  0  0  0
   10.0702  -18.4491   23.5928 C   0  0  0  0  0  0  0  0  0  0  0  0
   11.1041  -19.3552   24.1262 C   0  0  0  0  0  0  0  0  0  0  0  0
   10.9612  -20.0400   25.1630 O   0  0  0  0  0  0  0  0  0  0  0  0
    8.9050  -14.9136   24.6001 C   0  0  0  0  0  0  0  0  0  0  0  0
    9.9307  -14.2171   24.8452 O   0  0  0  0  0  0  0  0  0  0  0  0
   12.3478  -19.5103   23.4848 O   0  0  0  0  0  0  0  0  0  0  0  0
    7.6811  -14.4544   25.1577 N   0  0  0  0  0  0  0  0  0  0  0  0
    7.6570  -13.3728   26.1229 C   0  0  1  0  0  0  0  0  0  0  0  0
    6.2137  -12.9212   26.2618 C   0  0  0  0  0  0  0  0  0  0  0  0
    6.0741  -11.3966   27.2254 S   0  0  0  0  0  0  0  0  0  0  0  0
    8.0667  -13.9132   27.4339 C   0  0  0  0  0  0  0  0  0  0  0  0
    7.9924  -15.1415   27.6473 O   0  0  0  0  0  0  0  0  0  0  0  0
    8.5366  -13.0911   28.4468 O   0  0  0  0  0  0  0  0  0  0  0  0
  2  1  1  6
  2  3  1  0
  3  4  1  0
  4  8  1  0
  4  5  2  0
  5  6  1  0
  7  6  1  0
  8  7  2  0
  9 11  1  0
  9  2  1  0
 10  9  2  0
 12 11  1  0
 13 14  1  0
 12 13  1  1
 14 15  1  0
 15 19  1  0
 16 15  2  0
 17 12  1  0
 17 18  2  0
 20 17  1  0
 21 20  1  0
 21 22  1  1
 23 22  1  0
 24 21  1  0
 25 24  2  0
 26 24  1  0
M  END
$$$$
