WVN.pdb
     RDKit          3D

 30 31  0  0  1  0  0  0  0  0999 V2000
    8.5945  -16.5570   22.8830 N   0  0  0  0  0  0  0  0  0  0  0  0
    8.1946  -15.2056   22.6891 C   0  0  1  0  0  0  0  0  0  0  0  0
    6.8184  -15.2077   22.0317 C   0  0  0  0  0  0  0  0  0  0  0  0
    6.9086  -15.1931   20.5488 C   0  0  0  0  0  0  0  0  0  0  0  0
    6.5936  -16.2239   19.6881 C   0  0  0  0  0  0  0  0  0  0  0  0
    6.8434  -15.8467   18.4147 N   0  0  0  0  0  0  0  0  0  0  0  0
    7.3192  -14.5785   18.4261 C   0  0  0  0  0  0  0  0  0  0  0  0
    7.7022  -13.7773   17.3757 C   0  0  0  0  0  0  0  0  0  0  0  0
    8.1544  -12.4935   17.6292 C   0  0  0  0  0  0  0  0  0  0  0  0
    8.2040  -12.0633   18.9315 C   0  0  0  0  0  0  0  0  0  0  0  0
    7.8158  -12.8753   20.0000 C   0  0  0  0  0  0  0  0  0  0  0  0
    7.3643  -14.1566   19.7614 C   0  0  0  0  0  0  0  0  0  0  0  0
    8.1693  -14.4550   23.9686 C   0  0  0  0  0  0  0  0  0  0  0  0
    7.8617  -13.2349   23.9333 O   0  0  0  0  0  0  0  0  0  0  0  0
    6.7539  -12.9667   27.7809 C   0  0  0  0  0  0  0  0  0  0  0  0
    7.0369  -13.6160   26.4733 C   0  0  1  0  0  0  0  0  0  0  0  0
    6.8820  -12.7211   25.2767 C   0  0  0  0  0  0  0  0  0  0  0  0
    8.4107  -14.2857   26.4312 C   0  0  2  0  0  0  0  0  0  0  0  0
    8.4747  -15.0561   25.2199 N   0  0  0  0  0  0  0  0  0  0  0  0
    8.7043  -15.0125   27.6625 C   0  0  0  0  0  0  0  0  0  0  0  0
    8.1697  -14.6717   28.7664 O   0  0  0  0  0  0  0  0  0  0  0  0
    6.7318  -19.7840   28.0769 N   0  0  0  0  0  0  0  0  0  0  0  0
    7.6606  -19.2662   27.1441 C   0  0  0  0  0  0  0  0  0  0  0  0
    8.2138  -20.1592   26.3986 O   0  0  0  0  0  0  0  0  0  0  0  0
    8.0212  -17.8478   26.9689 C   0  0  0  0  0  0  0  0  0  0  0  0
    9.0536  -17.4608   27.9878 C   0  0  2  0  0  0  0  0  0  0  0  0
    9.5785  -16.1272   27.7364 N   0  0  0  0  0  0  0  0  0  0  0  0
   10.1840  -18.4022   27.8905 C   0  0  0  0  0  0  0  0  0  0  0  0
   11.3466  -18.0330   27.2551 O   0  0  0  0  0  0  0  0  0  0  0  0
   10.1436  -19.5529   28.3671 O   0  0  0  0  0  0  0  0  0  0  0  0
  2  1  1  1
  2  3  1  0
  3  4  1  0
  4 12  1  0
  4  5  2  0
  5  6  1  0
  7  8  2  0
  7  6  1  0
  9  8  1  0
 10  9  2  0
 11 10  1  0
 11 12  2  0
 12  7  1  0
 13  2  1  0
 13 14  2  0
 16 15  1  1
 16 17  1  0
 16 18  1  0
 18 19  1  6
 19 13  1  0
 20 18  1  0
 21 20  2  0
 23 24  2  0
 23 22  1  0
 25 23  1  0
 26 27  1  0
 26 25  1  6
 27 20  1  0
 28 26  1  0
 29 28  1  0
 30 28  2  0
M  END
$$$$
