WVN.pdb
     RDKit          3D

 30 31  0  0  1  0  0  0  0  0999 V2000
    6.7067  -17.0939   25.1569 N   0  0  0  0  0  0  0  0  0  0  0  0
    7.2268  -15.9069   24.5702 C   0  0  1  0  0  0  0  0  0  0  0  0
    8.4823  -15.5084   25.3389 C   0  0  0  0  0  0  0  0  0  0  0  0
    8.1665  -14.6846   26.5343 C   0  0  0  0  0  0  0  0  0  0  0  0
    8.3504  -15.0350   27.8557 C   0  0  0  0  0  0  0  0  0  0  0  0
    7.9074  -14.0407   28.6566 N   0  0  0  0  0  0  0  0  0  0  0  0
    7.4339  -13.0385   27.8781 C   0  0  0  0  0  0  0  0  0  0  0  0
    6.8916  -11.8280   28.2424 C   0  0  0  0  0  0  0  0  0  0  0  0
    6.4784  -10.9446   27.2598 C   0  0  0  0  0  0  0  0  0  0  0  0
    6.6266  -11.3124   25.9459 C   0  0  0  0  0  0  0  0  0  0  0  0
    7.1768  -12.5414   25.5734 C   0  0  0  0  0  0  0  0  0  0  0  0
    7.5917  -13.4310   26.5424 C   0  0  0  0  0  0  0  0  0  0  0  0
    7.5256  -16.0960   23.1294 C   0  0  0  0  0  0  0  0  0  0  0  0
    7.5570  -17.2715   22.6805 O   0  0  0  0  0  0  0  0  0  0  0  0
    8.2391  -14.0251   18.6755 C   0  0  0  0  0  0  0  0  0  0  0  0
    8.0010  -13.9058   20.1386 C   0  0  1  0  0  0  0  0  0  0  0  0
    6.7337  -13.1932   20.5166 C   0  0  0  0  0  0  0  0  0  0  0  0
    8.0591  -15.2534   20.8585 C   0  0  2  0  0  0  0  0  0  0  0  0
    7.7735  -15.0106   22.2457 N   0  0  0  0  0  0  0  0  0  0  0  0
    9.3003  -15.9699   20.5814 C   0  0  0  0  0  0  0  0  0  0  0  0
    9.2971  -17.0429   19.8966 O   0  0  0  0  0  0  0  0  0  0  0  0
   13.3843  -18.5310   22.2872 N   0  0  0  0  0  0  0  0  0  0  0  0
   11.9880  -18.7027   22.4354 C   0  0  0  0  0  0  0  0  0  0  0  0
   11.6445  -19.8512   22.9066 O   0  0  0  0  0  0  0  0  0  0  0  0
   10.9484  -17.7100   22.1094 C   0  0  0  0  0  0  0  0  0  0  0  0
   11.5771  -16.5245   21.4361 C   0  0  2  0  0  0  0  0  0  0  0  0
   10.5774  -15.5476   21.0319 N   0  0  0  0  0  0  0  0  0  0  0  0
   12.2578  -16.9869   20.2128 C   0  0  0  0  0  0  0  0  0  0  0  0
   13.4510  -16.4243   19.8235 O   0  0  0  0  0  0  0  0  0  0  0  0
   11.7969  -17.8889   19.4870 O   0  0  0  0  0  0  0  0  0  0  0  0
  2  1  1  1
  2  3  1  0
  3  4  1  0
  4 12  1  0
  4  5  2  0
  5  6  1  0
  7  8  2  0
  7  6  1  0
  9  8  1  0
 10  9  2  0
 11 10  1  0
 11 12  2  0
 12  7  1  0
 13  2  1  0
 13 14  2  0
 16 15  1  6
 16 17  1  0
 16 18  1  0
 18 19  1  1
 19 13  1  0
 20 18  1  0
 21 20  2  0
 23 24  2  0
 23 22  1  0
 25 23  1  0
 26 27  1  0
 26 25  1  6
 27 20  1  0
 28 26  1  0
 29 28  1  0
 30 28  2  0
M  END
$$$$
