WVN.pdb
     RDKit          3D

 30 31  0  0  1  0  0  0  0  0999 V2000
    6.6241  -17.0891   25.7310 N   0  0  0  0  0  0  0  0  0  0  0  0
    7.2618  -16.0117   25.0554 C   0  0  1  0  0  0  0  0  0  0  0  0
    8.5201  -15.6419   25.8338 C   0  0  0  0  0  0  0  0  0  0  0  0
    8.2711  -14.5502   26.8103 C   0  0  0  0  0  0  0  0  0  0  0  0
    8.7168  -14.4855   28.1141 C   0  0  0  0  0  0  0  0  0  0  0  0
    8.2539  -13.3584   28.6985 N   0  0  0  0  0  0  0  0  0  0  0  0
    7.5083  -12.6789   27.7945 C   0  0  0  0  0  0  0  0  0  0  0  0
    6.8446  -11.4817   27.9295 C   0  0  0  0  0  0  0  0  0  0  0  0
    6.1442  -10.9671   26.8518 C   0  0  0  0  0  0  0  0  0  0  0  0
    6.1382  -11.6769   25.6771 C   0  0  0  0  0  0  0  0  0  0  0  0
    6.8113  -12.8932   25.5378 C   0  0  0  0  0  0  0  0  0  0  0  0
    7.5120  -13.4174   26.6039 C   0  0  0  0  0  0  0  0  0  0  0  0
    7.5914  -16.3657   23.6529 C   0  0  0  0  0  0  0  0  0  0  0  0
    7.5392  -17.5787   23.3205 O   0  0  0  0  0  0  0  0  0  0  0  0
    8.4262  -14.9411   19.0048 C   0  0  0  0  0  0  0  0  0  0  0  0
    8.0255  -14.6570   20.4085 C   0  0  1  0  0  0  0  0  0  0  0  0
    6.5873  -14.2617   20.5875 C   0  0  0  0  0  0  0  0  0  0  0  0
    8.3582  -15.8051   21.3618 C   0  0  2  0  0  0  0  0  0  0  0  0
    7.9586  -15.3965   22.6802 N   0  0  0  0  0  0  0  0  0  0  0  0
    9.7429  -16.2466   21.2260 C   0  0  0  0  0  0  0  0  0  0  0  0
   10.7019  -15.5381   21.6716 O   0  0  0  0  0  0  0  0  0  0  0  0
   10.2587  -20.1889   22.8938 N   0  0  0  0  0  0  0  0  0  0  0  0
   11.3992  -19.5512   22.3519 C   0  0  0  0  0  0  0  0  0  0  0  0
   12.2462  -19.1458   23.2336 O   0  0  0  0  0  0  0  0  0  0  0  0
   11.6772  -19.3310   20.9213 C   0  0  0  0  0  0  0  0  0  0  0  0
   11.5268  -17.8728   20.5974 C   0  0  2  0  0  0  0  0  0  0  0  0
   10.1303  -17.4641   20.6098 N   0  0  0  0  0  0  0  0  0  0  0  0
   12.0394  -17.6402   19.2348 C   0  0  0  0  0  0  0  0  0  0  0  0
   13.3815  -17.4284   19.0211 O   0  0  0  0  0  0  0  0  0  0  0  0
   11.2999  -17.6235   18.2319 O   0  0  0  0  0  0  0  0  0  0  0  0
  2  1  1  1
  2  3  1  0
  3  4  1  0
  4 12  1  0
  4  5  2  0
  5  6  1  0
  7  8  2  0
  7  6  1  0
  9  8  1  0
 10  9  2  0
 11 10  1  0
 11 12  2  0
 12  7  1  0
 13  2  1  0
 13 14  2  0
 16 15  1  6
 16 17  1  0
 16 18  1  0
 18 19  1  1
 19 13  1  0
 20 18  1  0
 21 20  2  0
 23 24  2  0
 23 22  1  0
 25 23  1  0
 26 27  1  0
 26 25  1  6
 27 20  1  0
 28 26  1  0
 29 28  1  0
 30 28  2  0
M  END
$$$$
