WVN.pdb
     RDKit          3D

 30 31  0  0  1  0  0  0  0  0999 V2000
    6.1408  -18.1636   24.8808 N   0  0  0  0  0  0  0  0  0  0  0  0
    6.5787  -16.8486   24.5602 C   0  0  1  0  0  0  0  0  0  0  0  0
    7.4047  -16.3250   25.7306 C   0  0  0  0  0  0  0  0  0  0  0  0
    6.8201  -15.0921   26.3184 C   0  0  0  0  0  0  0  0  0  0  0  0
    5.5706  -14.9555   26.8867 C   0  0  0  0  0  0  0  0  0  0  0  0
    5.3834  -13.6742   27.2733 N   0  0  0  0  0  0  0  0  0  0  0  0
    6.4957  -12.9645   26.9667 C   0  0  0  0  0  0  0  0  0  0  0  0
    6.7700  -11.6328   27.1753 C   0  0  0  0  0  0  0  0  0  0  0  0
    7.9950  -11.1212   26.7824 C   0  0  0  0  0  0  0  0  0  0  0  0
    8.8993  -11.9695   26.1939 C   0  0  0  0  0  0  0  0  0  0  0  0
    8.6228  -13.3223   25.9809 C   0  0  0  0  0  0  0  0  0  0  0  0
    7.4059  -13.8445   26.3667 C   0  0  0  0  0  0  0  0  0  0  0  0
    7.3672  -16.8271   23.3038 C   0  0  0  0  0  0  0  0  0  0  0  0
    8.0648  -17.8372   23.0252 O   0  0  0  0  0  0  0  0  0  0  0  0
    8.7632  -14.3129   19.2522 C   0  0  0  0  0  0  0  0  0  0  0  0
    7.9592  -14.4170   20.4990 C   0  0  1  0  0  0  0  0  0  0  0  0
    6.4734  -14.3140   20.3033 C   0  0  0  0  0  0  0  0  0  0  0  0
    8.2785  -15.6768   21.3043 C   0  0  2  0  0  0  0  0  0  0  0  0
    7.3633  -15.7208   22.4113 N   0  0  0  0  0  0  0  0  0  0  0  0
    9.6947  -15.7642   21.6470 C   0  0  0  0  0  0  0  0  0  0  0  0
   10.2059  -14.9889   22.5176 O   0  0  0  0  0  0  0  0  0  0  0  0
   10.7838  -19.3959   23.3729 N   0  0  0  0  0  0  0  0  0  0  0  0
   11.7600  -18.3901   23.1820 C   0  0  0  0  0  0  0  0  0  0  0  0
   12.0549  -17.7313   24.2489 O   0  0  0  0  0  0  0  0  0  0  0  0
   12.4342  -18.0596   21.9137 C   0  0  0  0  0  0  0  0  0  0  0  0
   11.9987  -16.6995   21.4509 C   0  0  2  0  0  0  0  0  0  0  0  0
   10.5962  -16.6908   21.0633 N   0  0  0  0  0  0  0  0  0  0  0  0
   12.7853  -16.3363   20.2580 C   0  0  0  0  0  0  0  0  0  0  0  0
   12.1707  -16.1837   19.0371 O   0  0  0  0  0  0  0  0  0  0  0  0
   14.0175  -16.1543   20.2950 O   0  0  0  0  0  0  0  0  0  0  0  0
  2  1  1  1
  2  3  1  0
  3  4  1  0
  4 12  1  0
  4  5  2  0
  5  6  1  0
  7  8  2  0
  7  6  1  0
  9  8  1  0
 10  9  2  0
 11 10  1  0
 11 12  2  0
 12  7  1  0
 13  2  1  0
 13 14  2  0
 16 15  1  6
 16 17  1  0
 16 18  1  0
 18 19  1  1
 19 13  1  0
 20 18  1  0
 21 20  2  0
 23 24  2  0
 23 22  1  0
 25 23  1  0
 26 27  1  0
 26 25  1  6
 27 20  1  0
 28 26  1  0
 29 28  1  0
 30 28  2  0
M  END
$$$$
