WVN.pdb
     RDKit          3D

 30 31  0  0  1  0  0  0  0  0999 V2000
    6.7990  -17.2333   25.8119 N   0  0  0  0  0  0  0  0  0  0  0  0
    7.2176  -16.0874   25.0801 C   0  0  1  0  0  0  0  0  0  0  0  0
    8.4762  -15.5356   25.7416 C   0  0  0  0  0  0  0  0  0  0  0  0
    8.1616  -14.5170   26.7765 C   0  0  0  0  0  0  0  0  0  0  0  0
    8.4584  -14.5820   28.1220 C   0  0  0  0  0  0  0  0  0  0  0  0
    7.9774  -13.4853   28.7482 N   0  0  0  0  0  0  0  0  0  0  0  0
    7.3673  -12.6976   27.8305 C   0  0  0  0  0  0  0  0  0  0  0  0
    6.7409  -11.4842   27.9957 C   0  0  0  0  0  0  0  0  0  0  0  0
    6.1887  -10.8486   26.8967 C   0  0  0  0  0  0  0  0  0  0  0  0
    6.2879  -11.4582   25.6710 C   0  0  0  0  0  0  0  0  0  0  0  0
    6.9233  -12.6907   25.5008 C   0  0  0  0  0  0  0  0  0  0  0  0
    7.4768  -13.3349   26.5876 C   0  0  0  0  0  0  0  0  0  0  0  0
    7.4673  -16.4117   23.6542 C   0  0  0  0  0  0  0  0  0  0  0  0
    7.4976  -17.6248   23.3194 O   0  0  0  0  0  0  0  0  0  0  0  0
    8.5625  -14.8111   19.0884 C   0  0  0  0  0  0  0  0  0  0  0  0
    8.0666  -14.5558   20.4670 C   0  0  1  0  0  0  0  0  0  0  0  0
    6.6457  -14.0752   20.5487 C   0  0  0  0  0  0  0  0  0  0  0  0
    8.2491  -15.7589   21.3928 C   0  0  2  0  0  0  0  0  0  0  0  0
    7.6699  -15.4144   22.6619 N   0  0  0  0  0  0  0  0  0  0  0  0
    9.6345  -16.2168   21.4301 C   0  0  0  0  0  0  0  0  0  0  0  0
   10.4591  -15.7379   22.2734 O   0  0  0  0  0  0  0  0  0  0  0  0
   12.0071  -19.6127   23.9374 N   0  0  0  0  0  0  0  0  0  0  0  0
   12.2989  -19.0035   22.6946 C   0  0  0  0  0  0  0  0  0  0  0  0
   13.4097  -18.3517   22.6741 O   0  0  0  0  0  0  0  0  0  0  0  0
   11.4668  -19.0606   21.4794 C   0  0  0  0  0  0  0  0  0  0  0  0
   11.5053  -17.7330   20.7795 C   0  0  2  0  0  0  0  0  0  0  0  0
   10.1670  -17.2046   20.5624 N   0  0  0  0  0  0  0  0  0  0  0  0
   12.1230  -17.9199   19.4539 C   0  0  0  0  0  0  0  0  0  0  0  0
   11.3612  -18.3135   18.3785 O   0  0  0  0  0  0  0  0  0  0  0  0
   13.3379  -17.7357   19.2463 O   0  0  0  0  0  0  0  0  0  0  0  0
  2  1  1  1
  2  3  1  0
  3  4  1  0
  4 12  1  0
  4  5  2  0
  5  6  1  0
  7  8  2  0
  7  6  1  0
  9  8  1  0
 10  9  2  0
 11 10  1  0
 11 12  2  0
 12  7  1  0
 13  2  1  0
 13 14  2  0
 16 15  1  6
 16 17  1  0
 16 18  1  0
 18 19  1  1
 19 13  1  0
 20 18  1  0
 21 20  2  0
 23 24  2  0
 23 22  1  0
 25 23  1  0
 26 27  1  0
 26 25  1  6
 27 20  1  0
 28 26  1  0
 29 28  1  0
 30 28  2  0
M  END
$$$$
