WVN.pdb
     RDKit          3D

 30 31  0  0  1  0  0  0  0  0999 V2000
   10.5710  -15.8253   22.1907 N   0  0  0  0  0  0  0  0  0  0  0  0
    9.6186  -15.4833   23.1905 C   0  0  1  0  0  0  0  0  0  0  0  0
    8.3411  -16.2707   22.9179 C   0  0  0  0  0  0  0  0  0  0  0  0
    7.6889  -15.8539   21.6498 C   0  0  0  0  0  0  0  0  0  0  0  0
    7.1831  -16.6787   20.6667 C   0  0  0  0  0  0  0  0  0  0  0  0
    6.7047  -15.9319   19.6470 N   0  0  0  0  0  0  0  0  0  0  0  0
    6.8891  -14.6239   19.9469 C   0  0  0  0  0  0  0  0  0  0  0  0
    6.5576  -13.5037   19.2207 C   0  0  0  0  0  0  0  0  0  0  0  0
    6.8377  -12.2504   19.7381 C   0  0  0  0  0  0  0  0  0  0  0  0
    7.4411  -12.1710   20.9682 C   0  0  0  0  0  0  0  0  0  0  0  0
    7.7788  -13.3073   21.7075 C   0  0  0  0  0  0  0  0  0  0  0  0
    7.5062  -14.5618   21.2032 C   0  0  0  0  0  0  0  0  0  0  0  0
   10.1333  -15.7640   24.5533 C   0  0  0  0  0  0  0  0  0  0  0  0
   11.0379  -16.6305   24.6777 O   0  0  0  0  0  0  0  0  0  0  0  0
   10.1039  -14.6368   29.3840 C   0  0  0  0  0  0  0  0  0  0  0  0
    9.5534  -14.4620   28.0135 C   0  0  1  0  0  0  0  0  0  0  0  0
    9.6910  -13.0767   27.4491 C   0  0  0  0  0  0  0  0  0  0  0  0
   10.1180  -15.4743   27.0165 C   0  0  2  0  0  0  0  0  0  0  0  0
    9.6494  -15.0971   25.7115 N   0  0  0  0  0  0  0  0  0  0  0  0
    9.8425  -16.8506   27.4171 C   0  0  0  0  0  0  0  0  0  0  0  0
    8.8714  -17.4977   26.9088 O   0  0  0  0  0  0  0  0  0  0  0  0
   12.4095  -21.7623   27.6534 N   0  0  0  0  0  0  0  0  0  0  0  0
   11.4487  -20.9400   27.0195 C   0  0  0  0  0  0  0  0  0  0  0  0
   10.5498  -21.5883   26.3631 O   0  0  0  0  0  0  0  0  0  0  0  0
   11.4013  -19.4674   27.0569 C   0  0  0  0  0  0  0  0  0  0  0  0
   10.7011  -19.0172   28.3062 C   0  0  2  0  0  0  0  0  0  0  0  0
   10.6077  -17.5667   28.3731 N   0  0  0  0  0  0  0  0  0  0  0  0
   11.4897  -19.4598   29.4707 C   0  0  0  0  0  0  0  0  0  0  0  0
   11.3247  -20.7247   29.9849 O   0  0  0  0  0  0  0  0  0  0  0  0
   12.3250  -18.7270   30.0347 O   0  0  0  0  0  0  0  0  0  0  0  0
  2  1  1  6
  2  3  1  0
  3  4  1  0
  4 12  1  0
  4  5  2  0
  5  6  1  0
  7  8  2  0
  7  6  1  0
  9  8  1  0
 10  9  2  0
 11 10  1  0
 11 12  2  0
 12  7  1  0
 13  2  1  0
 13 14  2  0
 16 15  1  1
 16 17  1  0
 16 18  1  0
 18 19  1  6
 19 13  1  0
 20 18  1  0
 21 20  2  0
 23 24  2  0
 23 22  1  0
 25 23  1  0
 26 27  1  0
 26 25  1  6
 27 20  1  0
 28 26  1  0
 29 28  1  0
 30 28  2  0
M  END
$$$$
