WVN.pdb
     RDKit          3D

 30 31  0  0  1  0  0  0  0  0999 V2000
    5.6799  -17.5781   23.8936 N   0  0  0  0  0  0  0  0  0  0  0  0
    6.7509  -16.6886   23.6012 C   0  0  1  0  0  0  0  0  0  0  0  0
    7.5614  -16.4862   24.8773 C   0  0  0  0  0  0  0  0  0  0  0  0
    6.9396  -15.4830   25.7796 C   0  0  0  0  0  0  0  0  0  0  0  0
    5.9854  -15.7164   26.7480 C   0  0  0  0  0  0  0  0  0  0  0  0
    5.6370  -14.5501   27.3349 N   0  0  0  0  0  0  0  0  0  0  0  0
    6.3512  -13.5502   26.7647 C   0  0  0  0  0  0  0  0  0  0  0  0
    6.3416  -12.2018   27.0365 C   0  0  0  0  0  0  0  0  0  0  0  0
    7.1754  -11.3582   26.3226 C   0  0  0  0  0  0  0  0  0  0  0  0
    7.9889  -11.9035   25.3610 C   0  0  0  0  0  0  0  0  0  0  0  0
    8.0002  -13.2725   25.0830 C   0  0  0  0  0  0  0  0  0  0  0  0
    7.1737  -14.1238   25.7863 C   0  0  0  0  0  0  0  0  0  0  0  0
    7.6074  -17.2069   22.5064 C   0  0  0  0  0  0  0  0  0  0  0  0
    7.0501  -17.8178   21.5573 O   0  0  0  0  0  0  0  0  0  0  0  0
    7.5675  -15.5227   20.5290 C   0  0  0  0  0  0  0  0  0  0  0  0
    9.0201  -15.3508   20.7975 C   0  0  1  0  0  0  0  0  0  0  0  0
    9.3607  -14.2291   21.7369 C   0  0  0  0  0  0  0  0  0  0  0  0
    9.6878  -16.6382   21.2817 C   0  0  2  0  0  0  0  0  0  0  0  0
    9.0188  -17.0400   22.4883 N   0  0  0  0  0  0  0  0  0  0  0  0
   11.1382  -16.5020   21.3747 C   0  0  0  0  0  0  0  0  0  0  0  0
   11.8192  -16.0726   20.3887 O   0  0  0  0  0  0  0  0  0  0  0  0
   12.3472  -18.3866   25.5398 N   0  0  0  0  0  0  0  0  0  0  0  0
   13.0247  -17.3634   24.8361 C   0  0  0  0  0  0  0  0  0  0  0  0
   12.8044  -16.1773   25.2875 O   0  0  0  0  0  0  0  0  0  0  0  0
   13.9236  -17.5471   23.6826 C   0  0  0  0  0  0  0  0  0  0  0  0
   13.3457  -16.8606   22.4791 C   0  0  2  0  0  0  0  0  0  0  0  0
   11.8922  -16.8218   22.5328 N   0  0  0  0  0  0  0  0  0  0  0  0
   13.7195  -17.6283   21.2772 C   0  0  0  0  0  0  0  0  0  0  0  0
   12.9397  -18.6773   20.8490 O   0  0  0  0  0  0  0  0  0  0  0  0
   14.7371  -17.3720   20.6052 O   0  0  0  0  0  0  0  0  0  0  0  0
  2  1  1  1
  2  3  1  0
  3  4  1  0
  4 12  1  0
  4  5  2  0
  5  6  1  0
  7  8  2  0
  7  6  1  0
  9  8  1  0
 10  9  2  0
 11 10  1  0
 11 12  2  0
 12  7  1  0
 13  2  1  0
 13 14  2  0
 16 15  1  1
 16 17  1  0
 16 18  1  0
 18 19  1  1
 19 13  1  0
 20 18  1  0
 21 20  2  0
 23 24  2  0
 23 22  1  0
 25 23  1  0
 26 27  1  0
 26 25  1  1
 27 20  1  0
 28 26  1  0
 29 28  1  0
 30 28  2  0
M  END
$$$$
