WVN.pdb
     RDKit          3D

 30 31  0  0  1  0  0  0  0  0999 V2000
    6.0145  -18.0074   24.5206 N   0  0  0  0  0  0  0  0  0  0  0  0
    6.5300  -16.7344   24.1498 C   0  0  1  0  0  0  0  0  0  0  0  0
    7.4447  -16.2485   25.2693 C   0  0  0  0  0  0  0  0  0  0  0  0
    6.8489  -15.1160   26.0242 C   0  0  0  0  0  0  0  0  0  0  0  0
    5.6621  -15.1203   26.7271 C   0  0  0  0  0  0  0  0  0  0  0  0
    5.4357  -13.8934   27.2466 N   0  0  0  0  0  0  0  0  0  0  0  0
    6.4603  -13.0803   26.8944 C   0  0  0  0  0  0  0  0  0  0  0  0
    6.6693  -11.7544   27.1951 C   0  0  0  0  0  0  0  0  0  0  0  0
    7.8091  -11.1226   26.7277 C   0  0  0  0  0  0  0  0  0  0  0  0
    8.6972  -11.8494   25.9749 C   0  0  0  0  0  0  0  0  0  0  0  0
    8.4869  -13.1960   25.6681 C   0  0  0  0  0  0  0  0  0  0  0  0
    7.3551  -13.8371   26.1266 C   0  0  0  0  0  0  0  0  0  0  0  0
    7.2591  -16.7958   22.8592 C   0  0  0  0  0  0  0  0  0  0  0  0
    7.7322  -17.9052   22.4986 O   0  0  0  0  0  0  0  0  0  0  0  0
    6.4492  -14.3554   19.7015 C   0  0  0  0  0  0  0  0  0  0  0  0
    7.9019  -14.5252   19.9711 C   0  0  1  0  0  0  0  0  0  0  0  0
    8.5745  -13.3306   20.5853 C   0  0  0  0  0  0  0  0  0  0  0  0
    8.2058  -15.7660   20.8111 C   0  0  2  0  0  0  0  0  0  0  0  0
    7.4402  -15.6611   22.0226 N   0  0  0  0  0  0  0  0  0  0  0  0
    9.6404  -15.9742   20.9823 C   0  0  0  0  0  0  0  0  0  0  0  0
   10.3081  -15.2763   21.8114 O   0  0  0  0  0  0  0  0  0  0  0  0
   11.1730  -18.5040   22.9824 N   0  0  0  0  0  0  0  0  0  0  0  0
   11.7785  -19.1932   21.9056 C   0  0  0  0  0  0  0  0  0  0  0  0
   12.0141  -20.4375   22.1410 O   0  0  0  0  0  0  0  0  0  0  0  0
   12.1385  -18.6200   20.5963 C   0  0  0  0  0  0  0  0  0  0  0  0
   11.7978  -17.1580   20.5754 C   0  0  2  0  0  0  0  0  0  0  0  0
   10.3923  -16.9415   20.2674 N   0  0  0  0  0  0  0  0  0  0  0  0
   12.5848  -16.5088   19.5110 C   0  0  0  0  0  0  0  0  0  0  0  0
   13.9072  -16.1911   19.7162 O   0  0  0  0  0  0  0  0  0  0  0  0
   12.1025  -16.2213   18.3985 O   0  0  0  0  0  0  0  0  0  0  0  0
  2  1  1  1
  2  3  1  0
  3  4  1  0
  4 12  1  0
  4  5  2  0
  5  6  1  0
  7  8  2  0
  7  6  1  0
  9  8  1  0
 10  9  2  0
 11 10  1  0
 11 12  2  0
 12  7  1  0
 13  2  1  0
 13 14  2  0
 16 15  1  1
 16 17  1  0
 16 18  1  0
 18 19  1  1
 19 13  1  0
 20 18  1  0
 21 20  2  0
 23 24  2  0
 23 22  1  0
 25 23  1  0
 26 27  1  0
 26 25  1  6
 27 20  1  0
 28 26  1  0
 29 28  1  0
 30 28  2  0
M  END
$$$$
