WVN.pdb
     RDKit          3D

 30 31  0  0  1  0  0  0  0  0999 V2000
    6.8524  -16.2639   24.9541 N   0  0  0  0  0  0  0  0  0  0  0  0
    7.2185  -15.2164   24.0639 C   0  0  1  0  0  0  0  0  0  0  0  0
    8.4918  -14.5659   24.5948 C   0  0  0  0  0  0  0  0  0  0  0  0
    8.2987  -13.9853   25.9487 C   0  0  0  0  0  0  0  0  0  0  0  0
    8.9683  -14.3323   27.1036 C   0  0  0  0  0  0  0  0  0  0  0  0
    8.4893  -13.6121   28.1420 N   0  0  0  0  0  0  0  0  0  0  0  0
    7.5116  -12.7938   27.6845 C   0  0  0  0  0  0  0  0  0  0  0  0
    6.7446  -11.8788   28.3675 C   0  0  0  0  0  0  0  0  0  0  0  0
    5.7986  -11.1370   27.6808 C   0  0  0  0  0  0  0  0  0  0  0  0
    5.6598  -11.3435   26.3311 C   0  0  0  0  0  0  0  0  0  0  0  0
    6.4375  -12.2724   25.6354 C   0  0  0  0  0  0  0  0  0  0  0  0
    7.3829  -13.0186   26.3076 C   0  0  0  0  0  0  0  0  0  0  0  0
    7.4168  -15.7187   22.6822 C   0  0  0  0  0  0  0  0  0  0  0  0
    6.4404  -16.2643   22.1047 O   0  0  0  0  0  0  0  0  0  0  0  0
    6.7336  -13.9086   21.1647 C   0  0  0  0  0  0  0  0  0  0  0  0
    7.9365  -14.0733   20.3060 C   0  0  1  0  0  0  0  0  0  0  0  0
    8.9099  -12.9302   20.3559 C   0  0  0  0  0  0  0  0  0  0  0  0
    8.6784  -15.3831   20.5733 C   0  0  2  0  0  0  0  0  0  0  0  0
    8.6546  -15.6068   21.9926 N   0  0  0  0  0  0  0  0  0  0  0  0
    9.9977  -15.4032   19.9491 C   0  0  0  0  0  0  0  0  0  0  0  0
   10.1235  -15.3419   18.6839 O   0  0  0  0  0  0  0  0  0  0  0  0
   13.1086  -15.0336   17.9239 N   0  0  0  0  0  0  0  0  0  0  0  0
   13.5813  -14.9528   19.2547 C   0  0  0  0  0  0  0  0  0  0  0  0
   14.0627  -13.8018   19.5750 O   0  0  0  0  0  0  0  0  0  0  0  0
   13.5607  -16.0360   20.2541 C   0  0  0  0  0  0  0  0  0  0  0  0
   12.1612  -16.5592   20.4014 C   0  0  2  0  0  0  0  0  0  0  0  0
   11.2157  -15.4866   20.6713 N   0  0  0  0  0  0  0  0  0  0  0  0
   12.1232  -17.4774   21.5543 C   0  0  0  0  0  0  0  0  0  0  0  0
   12.8775  -18.6275   21.5553 O   0  0  0  0  0  0  0  0  0  0  0  0
   11.4217  -17.2629   22.5617 O   0  0  0  0  0  0  0  0  0  0  0  0
  2  1  1  1
  2  3  1  0
  3  4  1  0
  4 12  1  0
  4  5  2  0
  5  6  1  0
  7  8  2  0
  7  6  1  0
  9  8  1  0
 10  9  2  0
 11 10  1  0
 11 12  2  0
 12  7  1  0
 13  2  1  0
 13 14  2  0
 16 15  1  1
 16 17  1  0
 16 18  1  0
 18 19  1  1
 19 13  1  0
 20 18  1  0
 21 20  2  0
 23 24  2  0
 23 22  1  0
 25 23  1  0
 26 27  1  0
 26 25  1  1
 27 20  1  0
 28 26  1  0
 29 28  1  0
 30 28  2  0
M  END
$$$$
