WVN.pdb
     RDKit          3D

 30 31  0  0  1  0  0  0  0  0999 V2000
    6.4700  -18.2318   24.6982 N   0  0  0  0  0  0  0  0  0  0  0  0
    7.1931  -17.0527   24.3656 C   0  0  1  0  0  0  0  0  0  0  0  0
    7.8020  -16.4923   25.6467 C   0  0  0  0  0  0  0  0  0  0  0  0
    7.0083  -15.3615   26.1933 C   0  0  0  0  0  0  0  0  0  0  0  0
    5.7636  -15.4305   26.7839 C   0  0  0  0  0  0  0  0  0  0  0  0
    5.3485  -14.1886   27.1182 N   0  0  0  0  0  0  0  0  0  0  0  0
    6.3057  -13.3016   26.7549 C   0  0  0  0  0  0  0  0  0  0  0  0
    6.3321  -11.9339   26.8983 C   0  0  0  0  0  0  0  0  0  0  0  0
    7.4354  -11.2248   26.4549 C   0  0  0  0  0  0  0  0  0  0  0  0
    8.4722  -11.9192   25.8834 C   0  0  0  0  0  0  0  0  0  0  0  0
    8.4475  -13.3082   25.7364 C   0  0  0  0  0  0  0  0  0  0  0  0
    7.3540  -14.0266   26.1731 C   0  0  0  0  0  0  0  0  0  0  0  0
    8.2440  -17.3241   23.3542 C   0  0  0  0  0  0  0  0  0  0  0  0
    8.3939  -18.5100   22.9597 O   0  0  0  0  0  0  0  0  0  0  0  0
   10.7375  -15.9172   19.4976 C   0  0  0  0  0  0  0  0  0  0  0  0
    9.7561  -15.7321   20.5996 C   0  0  1  0  0  0  0  0  0  0  0  0
    8.3178  -15.8980   20.1993 C   0  0  0  0  0  0  0  0  0  0  0  0
   10.0516  -16.6194   21.8091 C   0  0  2  0  0  0  0  0  0  0  0  0
    9.0782  -16.3056   22.8184 N   0  0  0  0  0  0  0  0  0  0  0  0
   11.4482  -16.5327   22.2246 C   0  0  0  0  0  0  0  0  0  0  0  0
   11.8797  -15.5173   22.8594 O   0  0  0  0  0  0  0  0  0  0  0  0
   15.2393  -20.7330   23.9889 N   0  0  0  0  0  0  0  0  0  0  0  0
   14.1682  -19.8619   24.2970 C   0  0  0  0  0  0  0  0  0  0  0  0
   14.1622  -19.4428   25.5150 O   0  0  0  0  0  0  0  0  0  0  0  0
   13.1121  -19.4174   23.3699 C   0  0  0  0  0  0  0  0  0  0  0  0
   13.3227  -17.9724   23.0216 C   0  0  2  0  0  0  0  0  0  0  0  0
   12.4154  -17.5386   21.9700 N   0  0  0  0  0  0  0  0  0  0  0  0
   14.6960  -17.8089   22.5106 C   0  0  0  0  0  0  0  0  0  0  0  0
   14.9143  -17.3873   21.2197 O   0  0  0  0  0  0  0  0  0  0  0  0
   15.7040  -18.0398   23.2059 O   0  0  0  0  0  0  0  0  0  0  0  0
  2  1  1  1
  2  3  1  0
  3  4  1  0
  4 12  1  0
  4  5  2  0
  5  6  1  0
  7  8  2  0
  7  6  1  0
  9  8  1  0
 10  9  2  0
 11 10  1  0
 11 12  2  0
 12  7  1  0
 13  2  1  0
 13 14  2  0
 16 15  1  6
 16 17  1  0
 16 18  1  0
 18 19  1  1
 19 13  1  0
 20 18  1  0
 21 20  2  0
 23 24  2  0
 23 22  1  0
 25 23  1  0
 26 27  1  0
 26 25  1  6
 27 20  1  0
 28 26  1  0
 29 28  1  0
 30 28  2  0
M  END
$$$$
