WVN.pdb
     RDKit          3D

 30 31  0  0  1  0  0  0  0  0999 V2000
    7.3656  -17.9504   25.9469 N   0  0  0  0  0  0  0  0  0  0  0  0
    6.6574  -17.3331   24.8787 C   0  0  1  0  0  0  0  0  0  0  0  0
    6.0185  -16.0540   25.4095 C   0  0  0  0  0  0  0  0  0  0  0  0
    6.9883  -15.2168   26.1617 C   0  0  0  0  0  0  0  0  0  0  0  0
    8.1912  -15.6224   26.7013 C   0  0  0  0  0  0  0  0  0  0  0  0
    8.7736  -14.5872   27.3458 N   0  0  0  0  0  0  0  0  0  0  0  0
    7.9684  -13.5034   27.2370 C   0  0  0  0  0  0  0  0  0  0  0  0
    8.1448  -12.2289   27.7231 C   0  0  0  0  0  0  0  0  0  0  0  0
    7.1793  -11.2676   27.4775 C   0  0  0  0  0  0  0  0  0  0  0  0
    6.0712  -11.6250   26.7508 C   0  0  0  0  0  0  0  0  0  0  0  0
    5.8897  -12.9189   26.2563 C   0  0  0  0  0  0  0  0  0  0  0  0
    6.8435  -13.8862   26.4946 C   0  0  0  0  0  0  0  0  0  0  0  0
    7.5487  -17.0423   23.7290 C   0  0  0  0  0  0  0  0  0  0  0  0
    8.4546  -17.8730   23.4571 O   0  0  0  0  0  0  0  0  0  0  0  0
    8.6571  -14.0613   19.9117 C   0  0  0  0  0  0  0  0  0  0  0  0
    7.8356  -14.3840   21.1086 C   0  0  1  0  0  0  0  0  0  0  0  0
    6.3613  -14.5077   20.8486 C   0  0  0  0  0  0  0  0  0  0  0  0
    8.3273  -15.6311   21.8439 C   0  0  2  0  0  0  0  0  0  0  0  0
    7.4185  -15.8739   22.9302 N   0  0  0  0  0  0  0  0  0  0  0  0
    9.7381  -15.5338   22.2055 C   0  0  0  0  0  0  0  0  0  0  0  0
   10.0905  -15.2840   23.4029 O   0  0  0  0  0  0  0  0  0  0  0  0
   13.2447  -16.3458   24.3676 N   0  0  0  0  0  0  0  0  0  0  0  0
   12.5399  -17.4142   23.7653 C   0  0  0  0  0  0  0  0  0  0  0  0
   12.2841  -18.3935   24.5619 O   0  0  0  0  0  0  0  0  0  0  0  0
   12.0953  -17.4834   22.3617 C   0  0  0  0  0  0  0  0  0  0  0  0
   12.1230  -16.1101   21.7560 C   0  0  2  0  0  0  0  0  0  0  0  0
   10.8058  -15.7062   21.2877 N   0  0  0  0  0  0  0  0  0  0  0  0
   13.0169  -16.1328   20.5838 C   0  0  0  0  0  0  0  0  0  0  0  0
   14.2417  -15.5086   20.6284 O   0  0  0  0  0  0  0  0  0  0  0  0
   12.7145  -16.7047   19.5187 O   0  0  0  0  0  0  0  0  0  0  0  0
  2  1  1  1
  2  3  1  0
  3  4  1  0
  4 12  1  0
  4  5  2  0
  5  6  1  0
  7  8  2  0
  7  6  1  0
  9  8  1  0
 10  9  2  0
 11 10  1  0
 11 12  2  0
 12  7  1  0
 13  2  1  0
 13 14  2  0
 16 15  1  6
 16 17  1  0
 16 18  1  0
 18 19  1  1
 19 13  1  0
 20 18  1  0
 21 20  2  0
 23 24  2  0
 23 22  1  0
 25 23  1  0
 26 27  1  0
 26 25  1  6
 27 20  1  0
 28 26  1  0
 29 28  1  0
 30 28  2  0
M  END
$$$$
