WVN.pdb
     RDKit          3D

 30 31  0  0  1  0  0  0  0  0999 V2000
    6.6004  -18.3811   24.0682 N   0  0  0  0  0  0  0  0  0  0  0  0
    6.8680  -16.9922   23.9158 C   0  0  1  0  0  0  0  0  0  0  0  0
    7.7169  -16.5399   25.0994 C   0  0  0  0  0  0  0  0  0  0  0  0
    7.1667  -15.3213   25.7470 C   0  0  0  0  0  0  0  0  0  0  0  0
    5.8441  -14.9326   25.7955 C   0  0  0  0  0  0  0  0  0  0  0  0
    5.7407  -13.7476   26.4369 N   0  0  0  0  0  0  0  0  0  0  0  0
    6.9803  -13.3508   26.8123 C   0  0  0  0  0  0  0  0  0  0  0  0
    7.3694  -12.2208   27.4932 C   0  0  0  0  0  0  0  0  0  0  0  0
    8.7101  -12.0269   27.7790 C   0  0  0  0  0  0  0  0  0  0  0  0
    9.6101  -12.9784   27.3687 C   0  0  0  0  0  0  0  0  0  0  0  0
    9.2173  -14.1267   26.6768 C   0  0  0  0  0  0  0  0  0  0  0  0
    7.8849  -14.3317   26.3850 C   0  0  0  0  0  0  0  0  0  0  0  0
    7.5540  -16.7063   22.6319 C   0  0  0  0  0  0  0  0  0  0  0  0
    8.0249  -17.6769   21.9832 O   0  0  0  0  0  0  0  0  0  0  0  0
    8.5575  -13.3654   19.0972 C   0  0  0  0  0  0  0  0  0  0  0  0
    8.0862  -13.7012   20.4672 C   0  0  1  0  0  0  0  0  0  0  0  0
    6.6795  -13.2728   20.7742 C   0  0  0  0  0  0  0  0  0  0  0  0
    8.2491  -15.1843   20.8011 C   0  0  2  0  0  0  0  0  0  0  0  0
    7.6967  -15.3914   22.1114 N   0  0  0  0  0  0  0  0  0  0  0  0
    9.6222  -15.6415   20.6110 C   0  0  0  0  0  0  0  0  0  0  0  0
    9.9751  -16.2215   19.5342 O   0  0  0  0  0  0  0  0  0  0  0  0
   12.5393  -13.2938   19.2028 N   0  0  0  0  0  0  0  0  0  0  0  0
   12.9318  -14.5666   19.6791 C   0  0  0  0  0  0  0  0  0  0  0  0
   13.2577  -15.3997   18.7523 O   0  0  0  0  0  0  0  0  0  0  0  0
   12.9956  -14.9874   21.0903 C   0  0  0  0  0  0  0  0  0  0  0  0
   11.9701  -16.0538   21.3450 C   0  0  2  0  0  0  0  0  0  0  0  0
   10.6514  -15.4830   21.5741 N   0  0  0  0  0  0  0  0  0  0  0  0
   12.3492  -16.7860   22.5673 C   0  0  0  0  0  0  0  0  0  0  0  0
   11.4859  -16.8536   23.6359 O   0  0  0  0  0  0  0  0  0  0  0  0
   13.4452  -17.3660   22.6909 O   0  0  0  0  0  0  0  0  0  0  0  0
  2  1  1  1
  2  3  1  0
  3  4  1  0
  4 12  1  0
  4  5  2  0
  5  6  1  0
  7  8  2  0
  7  6  1  0
  9  8  1  0
 10  9  2  0
 11 10  1  0
 11 12  2  0
 12  7  1  0
 13  2  1  0
 13 14  2  0
 16 15  1  6
 16 17  1  0
 16 18  1  0
 18 19  1  1
 19 13  1  0
 20 18  1  0
 21 20  2  0
 23 24  2  0
 23 22  1  0
 25 23  1  0
 26 27  1  0
 26 25  1  1
 27 20  1  0
 28 26  1  0
 29 28  1  0
 30 28  2  0
M  END
$$$$
