QCI.pdb
     RDKit          3D

 24 23  0  0  1  0  0  0  0  0999 V2000
   14.4959  -13.3123  -14.3515 N   0  0  0  0  0  0  0  0  0  0  0  0
   14.9825  -13.2889  -15.6776 C   0  0  0  0  0  0  0  0  0  0  0  0
   14.5253  -14.0523  -16.5438 O   0  0  0  0  0  0  0  0  0  0  0  0
   16.0740  -12.3326  -16.0766 C   0  0  0  0  0  0  0  0  0  0  0  0
   16.4098  -11.4222  -14.9353 C   0  0  0  0  0  0  0  0  0  0  0  0
   17.5454  -10.4730  -15.1998 C   0  0  2  0  0  0  0  0  0  0  0  0
   18.6874  -11.3302  -15.5789 N   0  0  0  0  0  0  0  0  0  0  0  0
   17.8769   -9.7340  -13.9619 C   0  0  0  0  0  0  0  0  0  0  0  0
   17.8607  -10.3907  -12.8682 O   0  0  0  0  0  0  0  0  0  0  0  0
   18.2111   -8.3760  -13.8847 N   0  0  0  0  0  0  0  0  0  0  0  0
   18.6043   -7.7989  -12.6173 C   0  0  1  0  0  0  0  0  0  0  0  0
   19.7022   -6.7778  -12.8866 C   0  0  0  0  0  0  0  0  0  0  0  0
   21.1207   -7.2085  -11.8250 S   0  0  0  0  0  0  0  0  0  0  0  0
   17.4586   -7.1070  -12.0219 C   0  0  0  0  0  0  0  0  0  0  0  0
   16.7548   -6.3090  -12.6918 O   0  0  0  0  0  0  0  0  0  0  0  0
   12.6168   -7.5647   -8.7723 C   0  0  0  0  0  0  0  0  0  0  0  0
   13.8229   -6.7173   -9.0275 C   0  0  0  0  0  0  0  0  0  0  0  0
   14.9309   -7.5480   -9.6598 C   0  0  2  0  0  0  0  0  0  0  0  0
   15.4341   -8.5755   -8.6750 C   0  0  0  0  0  0  0  0  0  0  0  0
   16.0726   -6.6328  -10.0447 C   0  0  2  0  0  0  0  0  0  0  0  0
   17.1587   -7.3647  -10.6478 N   0  0  0  0  0  0  0  0  0  0  0  0
   16.5523   -5.8963   -8.8363 C   0  0  0  0  0  0  0  0  0  0  0  0
   15.8570   -5.0167   -8.2855 O   0  0  0  0  0  0  0  0  0  0  0  0
   17.7896   -6.1950   -8.3191 O   0  0  0  0  0  0  0  0  0  0  0  0
  2  1  1  0
  2  4  1  0
  3  2  2  0
  5  6  1  0
  5  4  1  0
  6  7  1  1
  8 10  1  0
  8  6  1  0
  9  8  2  0
 11 10  1  0
 11 12  1  6
 12 13  1  0
 14 15  2  0
 14 11  1  0
 17 18  1  0
 17 16  1  0
 18 20  1  0
 18 19  1  1
 20 21  1  1
 20 22  1  0
 21 14  1  0
 22 24  1  0
 23 22  2  0
M  END
$$$$
