QCI.pdb
     RDKit          3D

 24 23  0  0  1  0  0  0  0  0999 V2000
   27.7083  -23.3000  -16.9030 N   0  0  0  0  0  0  0  0  0  0  0  0
   29.0718  -23.0468  -17.1726 C   0  0  0  0  0  0  0  0  0  0  0  0
   29.8385  -23.9592  -17.5216 O   0  0  0  0  0  0  0  0  0  0  0  0
   29.6333  -21.6565  -17.0430 C   0  0  0  0  0  0  0  0  0  0  0  0
   28.5681  -20.7066  -16.5876 C   0  0  0  0  0  0  0  0  0  0  0  0
   27.5844  -20.3061  -17.6517 C   0  0  2  0  0  0  0  0  0  0  0  0
   28.2811  -19.2840  -18.4595 N   0  0  0  0  0  0  0  0  0  0  0  0
   26.3881  -19.7031  -17.0242 C   0  0  0  0  0  0  0  0  0  0  0  0
   26.5277  -18.5548  -16.4859 O   0  0  0  0  0  0  0  0  0  0  0  0
   25.1131  -20.2804  -16.9719 N   0  0  0  0  0  0  0  0  0  0  0  0
   24.0944  -19.7080  -16.1184 C   0  0  1  0  0  0  0  0  0  0  0  0
   22.8090  -19.5998  -16.9287 C   0  0  0  0  0  0  0  0  0  0  0  0
   23.0287  -18.2387  -18.1218 S   0  0  0  0  0  0  0  0  0  0  0  0
   23.8561  -20.5996  -14.9807 C   0  0  0  0  0  0  0  0  0  0  0  0
   23.8092  -21.8477  -15.1253 O   0  0  0  0  0  0  0  0  0  0  0  0
   25.4384  -21.4203   -9.3263 C   0  0  0  0  0  0  0  0  0  0  0  0
   24.3660  -21.6043  -10.3530 C   0  0  0  0  0  0  0  0  0  0  0  0
   24.5180  -20.5795  -11.4686 C   0  0  2  0  0  0  0  0  0  0  0  0
   24.2513  -19.1920  -10.9370 C   0  0  0  0  0  0  0  0  0  0  0  0
   23.5180  -20.8902  -12.5608 C   0  0  2  0  0  0  0  0  0  0  0  0
   23.6765  -20.0090  -13.6910 N   0  0  0  0  0  0  0  0  0  0  0  0
   22.1315  -20.7866  -12.0136 C   0  0  0  0  0  0  0  0  0  0  0  0
   21.4568  -19.7418  -12.1302 O   0  0  0  0  0  0  0  0  0  0  0  0
   21.5861  -21.8687  -11.3660 O   0  0  0  0  0  0  0  0  0  0  0  0
  2  1  1  0
  2  4  1  0
  3  2  2  0
  5  6  1  0
  5  4  1  0
  6  7  1  6
  8 10  1  0
  8  6  1  0
  9  8  2  0
 11 10  1  0
 11 12  1  6
 12 13  1  0
 14 15  2  0
 14 11  1  0
 17 18  1  0
 17 16  1  0
 18 20  1  0
 18 19  1  1
 20 21  1  6
 20 22  1  0
 21 14  1  0
 22 24  1  0
 23 22  2  0
M  END
$$$$
