QCI.pdb
     RDKit          3D

 24 23  0  0  1  0  0  0  0  0999 V2000
   23.6804  -21.0140  -21.1377 N   0  0  0  0  0  0  0  0  0  0  0  0
   24.2348  -19.7181  -21.0427 C   0  0  0  0  0  0  0  0  0  0  0  0
   25.3131  -19.4382  -21.5915 O   0  0  0  0  0  0  0  0  0  0  0  0
   23.5285  -18.6372  -20.2695 C   0  0  0  0  0  0  0  0  0  0  0  0
   23.0656  -19.1636  -18.9456 C   0  0  0  0  0  0  0  0  0  0  0  0
   23.5714  -18.4008  -17.7528 C   0  0  2  0  0  0  0  0  0  0  0  0
   24.5168  -17.4064  -18.3004 N   0  0  0  0  0  0  0  0  0  0  0  0
   24.2954  -19.3171  -16.8446 C   0  0  0  0  0  0  0  0  0  0  0  0
   23.6056  -20.2013  -16.2363 O   0  0  0  0  0  0  0  0  0  0  0  0
   25.6737  -19.3022  -16.5960 N   0  0  0  0  0  0  0  0  0  0  0  0
   26.2457  -20.2225  -15.6370 C   0  0  1  0  0  0  0  0  0  0  0  0
   27.7623  -20.1095  -15.7244 C   0  0  0  0  0  0  0  0  0  0  0  0
   28.4687  -21.3769  -14.6200 S   0  0  0  0  0  0  0  0  0  0  0  0
   25.8257  -19.8407  -14.2865 C   0  0  0  0  0  0  0  0  0  0  0  0
   25.7423  -18.6340  -13.9431 O   0  0  0  0  0  0  0  0  0  0  0  0
   22.0885  -19.9430   -9.9575 C   0  0  0  0  0  0  0  0  0  0  0  0
   23.5494  -20.0732  -10.2522 C   0  0  0  0  0  0  0  0  0  0  0  0
   23.7627  -20.5142  -11.6936 C   0  0  2  0  0  0  0  0  0  0  0  0
   23.2181  -21.9077  -11.8948 C   0  0  0  0  0  0  0  0  0  0  0  0
   25.2459  -20.5161  -11.9925 C   0  0  2  0  0  0  0  0  0  0  0  0
   25.5105  -20.8842  -13.3613 N   0  0  0  0  0  0  0  0  0  0  0  0
   25.9428  -21.4531  -11.0602 C   0  0  0  0  0  0  0  0  0  0  0  0
   26.1082  -21.1753   -9.8536 O   0  0  0  0  0  0  0  0  0  0  0  0
   26.4129  -22.6501  -11.5437 O   0  0  0  0  0  0  0  0  0  0  0  0
  2  1  1  0
  2  4  1  0
  3  2  2  0
  5  6  1  0
  5  4  1  0
  6  7  1  6
  8 10  1  0
  8  6  1  0
  9  8  2  0
 11 10  1  0
 11 12  1  1
 12 13  1  0
 14 15  2  0
 14 11  1  0
 17 18  1  0
 17 16  1  0
 18 20  1  0
 18 19  1  1
 20 21  1  6
 20 22  1  0
 21 14  1  0
 22 24  1  0
 23 22  2  0
M  END
$$$$
