QCI.pdb
     RDKit          3D

 24 23  0  0  1  0  0  0  0  0999 V2000
   21.5587  -16.6207  -17.5924 N   0  0  0  0  0  0  0  0  0  0  0  0
   22.6308  -16.3044  -18.4563 C   0  0  0  0  0  0  0  0  0  0  0  0
   22.4270  -15.8801  -19.6054 O   0  0  0  0  0  0  0  0  0  0  0  0
   24.0559  -16.4746  -18.0031 C   0  0  0  0  0  0  0  0  0  0  0  0
   24.2242  -17.7869  -17.3003 C   0  0  0  0  0  0  0  0  0  0  0  0
   25.5815  -18.4147  -17.4551 C   0  0  2  0  0  0  0  0  0  0  0  0
   25.5312  -19.1355  -18.7437 N   0  0  0  0  0  0  0  0  0  0  0  0
   25.8114  -19.3830  -16.3605 C   0  0  0  0  0  0  0  0  0  0  0  0
   24.8766  -20.2147  -16.1114 O   0  0  0  0  0  0  0  0  0  0  0  0
   26.9676  -19.4701  -15.5748 N   0  0  0  0  0  0  0  0  0  0  0  0
   27.1007  -20.5299  -14.5986 C   0  0  1  0  0  0  0  0  0  0  0  0
   28.5698  -20.9273  -14.5341 C   0  0  0  0  0  0  0  0  0  0  0  0
   28.9396  -21.8964  -16.0337 S   0  0  0  0  0  0  0  0  0  0  0  0
   26.6929  -20.0325  -13.2825 C   0  0  0  0  0  0  0  0  0  0  0  0
   26.9493  -18.8567  -12.9183 O   0  0  0  0  0  0  0  0  0  0  0  0
   21.9024  -20.3845  -11.5287 C   0  0  0  0  0  0  0  0  0  0  0  0
   23.3367  -20.0206  -11.7487 C   0  0  0  0  0  0  0  0  0  0  0  0
   24.2253  -20.7296  -10.7360 C   0  0  2  0  0  0  0  0  0  0  0  0
   23.9506  -20.2033   -9.3480 C   0  0  0  0  0  0  0  0  0  0  0  0
   25.6740  -20.4677  -11.0853 C   0  0  2  0  0  0  0  0  0  0  0  0
   25.9899  -20.9261  -12.4154 N   0  0  0  0  0  0  0  0  0  0  0  0
   26.5586  -21.1358  -10.0834 C   0  0  0  0  0  0  0  0  0  0  0  0
   26.9836  -22.2978  -10.2554 O   0  0  0  0  0  0  0  0  0  0  0  0
   26.9128  -20.4536   -8.9446 O   0  0  0  0  0  0  0  0  0  0  0  0
  2  1  1  0
  2  4  1  0
  3  2  2  0
  5  6  1  0
  5  4  1  0
  6  7  1  6
  8 10  1  0
  8  6  1  0
  9  8  2  0
 11 10  1  0
 11 12  1  1
 12 13  1  0
 14 15  2  0
 14 11  1  0
 17 18  1  0
 17 16  1  0
 18 20  1  0
 18 19  1  1
 20 21  1  6
 20 22  1  0
 21 14  1  0
 22 24  1  0
 23 22  2  0
M  END
$$$$
