QCI.pdb
     RDKit          3D

 24 23  0  0  1  0  0  0  0  0999 V2000
   28.9699  -20.8776  -18.8016 N   0  0  0  0  0  0  0  0  0  0  0  0
   29.4595  -22.0688  -18.2211 C   0  0  0  0  0  0  0  0  0  0  0  0
   30.6687  -22.3499  -18.2530 O   0  0  0  0  0  0  0  0  0  0  0  0
   28.5226  -23.0333  -17.5451 C   0  0  0  0  0  0  0  0  0  0  0  0
   27.1334  -22.4732  -17.5151 C   0  0  0  0  0  0  0  0  0  0  0  0
   26.9069  -21.4060  -16.4806 C   0  0  2  0  0  0  0  0  0  0  0  0
   27.0477  -22.0908  -15.1792 N   0  0  0  0  0  0  0  0  0  0  0  0
   25.5332  -20.8717  -16.6072 C   0  0  0  0  0  0  0  0  0  0  0  0
   25.2244  -20.3114  -17.7111 O   0  0  0  0  0  0  0  0  0  0  0  0
   24.5390  -20.9298  -15.6224 N   0  0  0  0  0  0  0  0  0  0  0  0
   23.2538  -20.3067  -15.8544 C   0  0  1  0  0  0  0  0  0  0  0  0
   22.1890  -21.1596  -15.1766 C   0  0  0  0  0  0  0  0  0  0  0  0
   21.9526  -20.5014  -13.4927 S   0  0  0  0  0  0  0  0  0  0  0  0
   23.2425  -18.9743  -15.2455 C   0  0  0  0  0  0  0  0  0  0  0  0
   23.6203  -18.7926  -14.0602 O   0  0  0  0  0  0  0  0  0  0  0  0
   26.2209  -14.9496  -14.4283 C   0  0  0  0  0  0  0  0  0  0  0  0
   25.0702  -14.9566  -15.3842 C   0  0  0  0  0  0  0  0  0  0  0  0
   24.7026  -16.3851  -15.7614 C   0  0  2  0  0  0  0  0  0  0  0  0
   25.1352  -16.6740  -17.1785 C   0  0  0  0  0  0  0  0  0  0  0  0
   23.2018  -16.5492  -15.6604 C   0  0  2  0  0  0  0  0  0  0  0  0
   22.7869  -17.8767  -16.0407 N   0  0  0  0  0  0  0  0  0  0  0  0
   22.5282  -15.5297  -16.5204 C   0  0  0  0  0  0  0  0  0  0  0  0
   22.4311  -14.3353  -16.1679 O   0  0  0  0  0  0  0  0  0  0  0  0
   22.0028  -15.9174  -17.7293 O   0  0  0  0  0  0  0  0  0  0  0  0
  2  1  1  0
  2  4  1  0
  3  2  2  0
  5  6  1  0
  5  4  1  0
  6  7  1  1
  8 10  1  0
  8  6  1  0
  9  8  2  0
 11 10  1  0
 11 12  1  1
 12 13  1  0
 14 15  2  0
 14 11  1  0
 17 18  1  0
 17 16  1  0
 18 20  1  0
 18 19  1  6
 20 21  1  6
 20 22  1  0
 21 14  1  0
 22 24  1  0
 23 22  2  0
M  END
$$$$
