QCI.pdb
     RDKit          3D

 24 23  0  0  1  0  0  0  0  0999 V2000
   26.4926  -25.7471  -15.6734 N   0  0  0  0  0  0  0  0  0  0  0  0
   25.4470  -26.4513  -16.3112 C   0  0  0  0  0  0  0  0  0  0  0  0
   25.6118  -27.6099  -16.7264 O   0  0  0  0  0  0  0  0  0  0  0  0
   24.0986  -25.8113  -16.5048 C   0  0  0  0  0  0  0  0  0  0  0  0
   24.0509  -24.4820  -15.8157 C   0  0  0  0  0  0  0  0  0  0  0  0
   23.6536  -24.5376  -14.3667 C   0  0  2  0  0  0  0  0  0  0  0  0
   22.1971  -24.7850  -14.3728 N   0  0  0  0  0  0  0  0  0  0  0  0
   23.9265  -23.2335  -13.7238 C   0  0  0  0  0  0  0  0  0  0  0  0
   23.0726  -22.3032  -13.9058 O   0  0  0  0  0  0  0  0  0  0  0  0
   25.0391  -22.9304  -12.9289 N   0  0  0  0  0  0  0  0  0  0  0  0
   25.3171  -21.5571  -12.5673 C   0  0  1  0  0  0  0  0  0  0  0  0
   26.3796  -21.5647  -11.4756 C   0  0  0  0  0  0  0  0  0  0  0  0
   26.5835  -19.8465  -10.9004 S   0  0  0  0  0  0  0  0  0  0  0  0
   25.8492  -20.8458  -13.7322 C   0  0  0  0  0  0  0  0  0  0  0  0
   26.7042  -21.3738  -14.4878 O   0  0  0  0  0  0  0  0  0  0  0  0
   22.2620  -18.6668  -16.7808 C   0  0  0  0  0  0  0  0  0  0  0  0
   23.5354  -19.3009  -16.3181 C   0  0  0  0  0  0  0  0  0  0  0  0
   24.5346  -18.2345  -15.8913 C   0  0  2  0  0  0  0  0  0  0  0  0
   25.0055  -17.4546  -17.0951 C   0  0  0  0  0  0  0  0  0  0  0  0
   25.7246  -18.9075  -15.2430 C   0  0  2  0  0  0  0  0  0  0  0  0
   25.3670  -19.5246  -13.9898 N   0  0  0  0  0  0  0  0  0  0  0  0
   26.8137  -17.9059  -15.0350 C   0  0  0  0  0  0  0  0  0  0  0  0
   27.6909  -17.7016  -15.9006 O   0  0  0  0  0  0  0  0  0  0  0  0
   26.8500  -17.1923  -13.8615 O   0  0  0  0  0  0  0  0  0  0  0  0
  2  1  1  0
  2  4  1  0
  3  2  2  0
  5  6  1  0
  5  4  1  0
  6  7  1  6
  8 10  1  0
  8  6  1  0
  9  8  2  0
 11 10  1  0
 11 12  1  1
 12 13  1  0
 14 15  2  0
 14 11  1  0
 17 18  1  0
 17 16  1  0
 18 20  1  0
 18 19  1  6
 20 21  1  1
 20 22  1  0
 21 14  1  0
 22 24  1  0
 23 22  2  0
M  END
$$$$
