QCI.pdb
     RDKit          3D

 24 23  0  0  1  0  0  0  0  0999 V2000
   24.1749  -20.5109  -10.0353 N   0  0  0  0  0  0  0  0  0  0  0  0
   25.4433  -21.0226   -9.6817 C   0  0  0  0  0  0  0  0  0  0  0  0
   25.5889  -21.7475   -8.6840 O   0  0  0  0  0  0  0  0  0  0  0  0
   26.6579  -20.7001  -10.5099 C   0  0  0  0  0  0  0  0  0  0  0  0
   26.2850  -19.8052  -11.6520 C   0  0  0  0  0  0  0  0  0  0  0  0
   25.6726  -20.5100  -12.8304 C   0  0  2  0  0  0  0  0  0  0  0  0
   26.7376  -21.3909  -13.3523 N   0  0  0  0  0  0  0  0  0  0  0  0
   25.3029  -19.5211  -13.8667 C   0  0  0  0  0  0  0  0  0  0  0  0
   24.4366  -18.6398  -13.5496 O   0  0  0  0  0  0  0  0  0  0  0  0
   25.8233  -19.4643  -15.1658 N   0  0  0  0  0  0  0  0  0  0  0  0
   25.3440  -18.4628  -16.0938 C   0  0  1  0  0  0  0  0  0  0  0  0
   26.4755  -18.1388  -17.0610 C   0  0  0  0  0  0  0  0  0  0  0  0
   27.7102  -17.1565  -16.1472 S   0  0  0  0  0  0  0  0  0  0  0  0
   24.2181  -19.0065  -16.8572 C   0  0  0  0  0  0  0  0  0  0  0  0
   24.2662  -20.1546  -17.3674 O   0  0  0  0  0  0  0  0  0  0  0  0
   19.6543  -21.1549  -17.1233 C   0  0  0  0  0  0  0  0  0  0  0  0
   19.5900  -19.6604  -17.1322 C   0  0  0  0  0  0  0  0  0  0  0  0
   20.8350  -19.0719  -16.4831 C   0  0  2  0  0  0  0  0  0  0  0  0
   20.4939  -17.7746  -15.7905 C   0  0  0  0  0  0  0  0  0  0  0  0
   21.8675  -18.8020  -17.5557 C   0  0  2  0  0  0  0  0  0  0  0  0
   23.0533  -18.1910  -17.0083 N   0  0  0  0  0  0  0  0  0  0  0  0
   21.2744  -17.9272  -18.6119 C   0  0  0  0  0  0  0  0  0  0  0  0
   21.5559  -16.7127  -18.6919 O   0  0  0  0  0  0  0  0  0  0  0  0
   20.3974  -18.4737  -19.5174 O   0  0  0  0  0  0  0  0  0  0  0  0
  2  1  1  0
  2  4  1  0
  3  2  2  0
  5  6  1  0
  5  4  1  0
  6  7  1  6
  8 10  1  0
  8  6  1  0
  9  8  2  0
 11 10  1  0
 11 12  1  6
 12 13  1  0
 14 15  2  0
 14 11  1  0
 17 18  1  0
 17 16  1  0
 18 20  1  0
 18 19  1  6
 20 21  1  1
 20 22  1  0
 21 14  1  0
 22 24  1  0
 23 22  2  0
M  END
$$$$
