QCI.pdb
     RDKit          3D

 24 23  0  0  1  0  0  0  0  0999 V2000
   14.3710  -10.3825  -13.9962 N   0  0  0  0  0  0  0  0  0  0  0  0
   13.9317  -11.6176  -13.4698 C   0  0  0  0  0  0  0  0  0  0  0  0
   13.3677  -12.4588  -14.1885 O   0  0  0  0  0  0  0  0  0  0  0  0
   14.1372  -11.9475  -12.0158 C   0  0  0  0  0  0  0  0  0  0  0  0
   14.7184  -10.7708  -11.2934 C   0  0  0  0  0  0  0  0  0  0  0  0
   16.2178  -10.6756  -11.3489 C   0  0  2  0  0  0  0  0  0  0  0  0
   16.7090  -11.8121  -10.5429 N   0  0  0  0  0  0  0  0  0  0  0  0
   16.6607   -9.4074  -10.7289 C   0  0  0  0  0  0  0  0  0  0  0  0
   16.8772   -9.4170   -9.4716 O   0  0  0  0  0  0  0  0  0  0  0  0
   16.8671   -8.1965  -11.4016 N   0  0  0  0  0  0  0  0  0  0  0  0
   17.3188   -7.0315  -10.6717 C   0  0  1  0  0  0  0  0  0  0  0  0
   18.3589   -6.3168  -11.5249 C   0  0  0  0  0  0  0  0  0  0  0  0
   19.8634   -7.3469  -11.5283 S   0  0  0  0  0  0  0  0  0  0  0  0
   16.1885   -6.1248  -10.4558 C   0  0  0  0  0  0  0  0  0  0  0  0
   15.3085   -5.9535  -11.3373 O   0  0  0  0  0  0  0  0  0  0  0  0
   11.7814   -5.1235   -6.8912 C   0  0  0  0  0  0  0  0  0  0  0  0
   12.8025   -4.4184   -7.7267 C   0  0  0  0  0  0  0  0  0  0  0  0
   13.9859   -5.3351   -8.0040 C   0  0  2  0  0  0  0  0  0  0  0  0
   14.7096   -5.6503   -6.7172 C   0  0  0  0  0  0  0  0  0  0  0  0
   14.9393   -4.6350   -8.9476 C   0  0  2  0  0  0  0  0  0  0  0  0
   16.1114   -5.4339   -9.2063 N   0  0  0  0  0  0  0  0  0  0  0  0
   15.3305   -3.3124   -8.3729 C   0  0  0  0  0  0  0  0  0  0  0  0
   16.4236   -3.1475   -7.7913 O   0  0  0  0  0  0  0  0  0  0  0  0
   14.4649   -2.2515   -8.4878 O   0  0  0  0  0  0  0  0  0  0  0  0
  2  1  1  0
  2  4  1  0
  3  2  2  0
  5  6  1  0
  5  4  1  0
  6  7  1  1
  8 10  1  0
  8  6  1  0
  9  8  2  0
 11 10  1  0
 11 12  1  6
 12 13  1  0
 14 15  2  0
 14 11  1  0
 17 18  1  0
 17 16  1  0
 18 20  1  0
 18 19  1  1
 20 21  1  1
 20 22  1  0
 21 14  1  0
 22 24  1  0
 23 22  2  0
M  END
$$$$
