QCI.pdb
     RDKit          3D

 24 23  0  0  1  0  0  0  0  0999 V2000
   25.6326  -16.6180  -18.6727 N   0  0  0  0  0  0  0  0  0  0  0  0
   24.6545  -17.5820  -19.0040 C   0  0  0  0  0  0  0  0  0  0  0  0
   24.0299  -17.5222  -20.0756 O   0  0  0  0  0  0  0  0  0  0  0  0
   24.3425  -18.7126  -18.0609 C   0  0  0  0  0  0  0  0  0  0  0  0
   25.1149  -18.5545  -16.7870 C   0  0  0  0  0  0  0  0  0  0  0  0
   26.5558  -18.9764  -16.8677 C   0  0  2  0  0  0  0  0  0  0  0  0
   26.6504  -19.8029  -18.0886 N   0  0  0  0  0  0  0  0  0  0  0  0
   26.9010  -19.8016  -15.6893 C   0  0  0  0  0  0  0  0  0  0  0  0
   26.0635  -20.6981  -15.3392 O   0  0  0  0  0  0  0  0  0  0  0  0
   28.0692  -19.6878  -14.9251 N   0  0  0  0  0  0  0  0  0  0  0  0
   28.1832  -20.3961  -13.6684 C   0  0  1  0  0  0  0  0  0  0  0  0
   29.5664  -20.1156  -13.0950 C   0  0  0  0  0  0  0  0  0  0  0  0
   29.6686  -20.9563  -11.4802 S   0  0  0  0  0  0  0  0  0  0  0  0
   27.1775  -19.8891  -12.7317 C   0  0  0  0  0  0  0  0  0  0  0  0
   27.0086  -18.6556  -12.5562 O   0  0  0  0  0  0  0  0  0  0  0  0
   21.7060  -20.1720  -10.6695 C   0  0  0  0  0  0  0  0  0  0  0  0
   23.1450  -20.0029  -10.2972 C   0  0  0  0  0  0  0  0  0  0  0  0
   24.0435  -20.6350  -11.3513 C   0  0  2  0  0  0  0  0  0  0  0  0
   23.8331  -22.1295  -11.3824 C   0  0  0  0  0  0  0  0  0  0  0  0
   25.4874  -20.3470  -11.0027 C   0  0  2  0  0  0  0  0  0  0  0  0
   26.3862  -20.8412  -12.0162 N   0  0  0  0  0  0  0  0  0  0  0  0
   25.8137  -20.9577   -9.6786 C   0  0  0  0  0  0  0  0  0  0  0  0
   26.3451  -22.0846   -9.5892 O   0  0  0  0  0  0  0  0  0  0  0  0
   25.5212  -20.2609   -8.5312 O   0  0  0  0  0  0  0  0  0  0  0  0
  2  1  1  0
  2  4  1  0
  3  2  2  0
  5  6  1  0
  5  4  1  0
  6  7  1  6
  8 10  1  0
  8  6  1  0
  9  8  2  0
 11 10  1  0
 11 12  1  1
 12 13  1  0
 14 15  2  0
 14 11  1  0
 17 18  1  0
 17 16  1  0
 18 20  1  0
 18 19  1  1
 20 21  1  6
 20 22  1  0
 21 14  1  0
 22 24  1  0
 23 22  2  0
M  END
$$$$
