QCI.pdb
     RDKit          3D

 24 23  0  0  1  0  0  0  0  0999 V2000
   22.3658  -16.5668  -14.5609 N   0  0  0  0  0  0  0  0  0  0  0  0
   21.6597  -17.7629  -14.8187 C   0  0  0  0  0  0  0  0  0  0  0  0
   21.7561  -18.3437  -15.9121 O   0  0  0  0  0  0  0  0  0  0  0  0
   20.7671  -18.3675  -13.7684 C   0  0  0  0  0  0  0  0  0  0  0  0
   21.5585  -19.2676  -12.8697 C   0  0  0  0  0  0  0  0  0  0  0  0
   22.2423  -20.4107  -13.5671 C   0  0  2  0  0  0  0  0  0  0  0  0
   21.2177  -21.4698  -13.6727 N   0  0  0  0  0  0  0  0  0  0  0  0
   23.3679  -20.8984  -12.7401 C   0  0  0  0  0  0  0  0  0  0  0  0
   23.0757  -21.5491  -11.6824 O   0  0  0  0  0  0  0  0  0  0  0  0
   24.7279  -20.7118  -13.0180 N   0  0  0  0  0  0  0  0  0  0  0  0
   25.7297  -21.3038  -12.1579 C   0  0  1  0  0  0  0  0  0  0  0  0
   26.9754  -21.5615  -12.9959 C   0  0  0  0  0  0  0  0  0  0  0  0
   28.2249  -22.3117  -11.9002 S   0  0  0  0  0  0  0  0  0  0  0  0
   26.0718  -20.3613  -11.0898 C   0  0  0  0  0  0  0  0  0  0  0  0
   26.1088  -19.1218  -11.2970 O   0  0  0  0  0  0  0  0  0  0  0  0
   26.7187  -19.2378   -5.1746 C   0  0  0  0  0  0  0  0  0  0  0  0
   27.2370  -19.1495   -6.5751 C   0  0  0  0  0  0  0  0  0  0  0  0
   26.4982  -20.1287   -7.4770 C   0  0  2  0  0  0  0  0  0  0  0  0
   26.6538  -21.5353   -6.9515 C   0  0  0  0  0  0  0  0  0  0  0  0
   27.0862  -20.0540   -8.8691 C   0  0  2  0  0  0  0  0  0  0  0  0
   26.3650  -20.8919   -9.7948 N   0  0  0  0  0  0  0  0  0  0  0  0
   28.5263  -20.4501   -8.8256 C   0  0  0  0  0  0  0  0  0  0  0  0
   28.9020  -21.5944   -9.1568 O   0  0  0  0  0  0  0  0  0  0  0  0
   29.4597  -19.5313   -8.4107 O   0  0  0  0  0  0  0  0  0  0  0  0
  2  1  1  0
  2  4  1  0
  3  2  2  0
  5  6  1  0
  5  4  1  0
  6  7  1  1
  8 10  1  0
  8  6  1  0
  9  8  2  0
 11 10  1  0
 11 12  1  6
 12 13  1  0
 14 15  2  0
 14 11  1  0
 17 18  1  0
 17 16  1  0
 18 20  1  0
 18 19  1  1
 20 21  1  6
 20 22  1  0
 21 14  1  0
 22 24  1  0
 23 22  2  0
M  END
$$$$
