QCI.pdb
     RDKit          3D

 24 23  0  0  1  0  0  0  0  0999 V2000
   24.3181  -20.8041  -10.0536 N   0  0  0  0  0  0  0  0  0  0  0  0
   25.6702  -21.1442   -9.8261 C   0  0  0  0  0  0  0  0  0  0  0  0
   26.0236  -21.7088   -8.7780 O   0  0  0  0  0  0  0  0  0  0  0  0
   26.7232  -20.8290  -10.8542 C   0  0  0  0  0  0  0  0  0  0  0  0
   26.1052  -20.1549  -12.0407 C   0  0  0  0  0  0  0  0  0  0  0  0
   25.6639  -21.0864  -13.1353 C   0  0  2  0  0  0  0  0  0  0  0  0
   26.8916  -21.4035  -13.8935 N   0  0  0  0  0  0  0  0  0  0  0  0
   24.7045  -20.3940  -14.0234 C   0  0  0  0  0  0  0  0  0  0  0  0
   25.1849  -19.5761  -14.8766 O   0  0  0  0  0  0  0  0  0  0  0  0
   23.3138  -20.5601  -14.0129 N   0  0  0  0  0  0  0  0  0  0  0  0
   22.4909  -19.8277  -14.9512 C   0  0  1  0  0  0  0  0  0  0  0  0
   22.6083  -20.5077  -16.3093 C   0  0  0  0  0  0  0  0  0  0  0  0
   21.5606  -19.5788  -17.4772 S   0  0  0  0  0  0  0  0  0  0  0  0
   21.0923  -19.8853  -14.5191 C   0  0  0  0  0  0  0  0  0  0  0  0
   20.5906  -20.9442  -14.0632 O   0  0  0  0  0  0  0  0  0  0  0  0
   19.2655  -18.4347  -11.2122 C   0  0  0  0  0  0  0  0  0  0  0  0
   19.5111  -17.3022  -12.1582 C   0  0  0  0  0  0  0  0  0  0  0  0
   18.6219  -17.4349  -13.3869 C   0  0  2  0  0  0  0  0  0  0  0  0
   17.1703  -17.4716  -12.9740 C   0  0  0  0  0  0  0  0  0  0  0  0
   18.9637  -18.7226  -14.1040 C   0  0  2  0  0  0  0  0  0  0  0  0
   20.3059  -18.6962  -14.6302 N   0  0  0  0  0  0  0  0  0  0  0  0
   17.9806  -18.9585  -15.2043 C   0  0  0  0  0  0  0  0  0  0  0  0
   18.0649  -18.3614  -16.2982 O   0  0  0  0  0  0  0  0  0  0  0  0
   16.9586  -19.8551  -15.0062 O   0  0  0  0  0  0  0  0  0  0  0  0
  2  1  1  0
  2  4  1  0
  3  2  2  0
  5  6  1  0
  5  4  1  0
  6  7  1  6
  8 10  1  0
  8  6  1  0
  9  8  2  0
 11 10  1  0
 11 12  1  6
 12 13  1  0
 14 15  2  0
 14 11  1  0
 17 18  1  0
 17 16  1  0
 18 20  1  0
 18 19  1  1
 20 21  1  6
 20 22  1  0
 21 14  1  0
 22 24  1  0
 23 22  2  0
M  END
$$$$
