QCI.pdb
     RDKit          3D

 24 23  0  0  1  0  0  0  0  0999 V2000
   16.9541  -11.7251  -20.7218 N   0  0  0  0  0  0  0  0  0  0  0  0
   17.8285  -12.8280  -20.8428 C   0  0  0  0  0  0  0  0  0  0  0  0
   17.8212  -13.5463  -21.8558 O   0  0  0  0  0  0  0  0  0  0  0  0
   18.7971  -13.1627  -19.7405 C   0  0  0  0  0  0  0  0  0  0  0  0
   18.7160  -12.1393  -18.6495 C   0  0  0  0  0  0  0  0  0  0  0  0
   19.6604  -12.3661  -17.5018 C   0  0  2  0  0  0  0  0  0  0  0  0
   19.1144  -13.5300  -16.7740 N   0  0  0  0  0  0  0  0  0  0  0  0
   19.6561  -11.1850  -16.6109 C   0  0  0  0  0  0  0  0  0  0  0  0
   18.5926  -10.9623  -15.9423 O   0  0  0  0  0  0  0  0  0  0  0  0
   20.7191  -10.2904  -16.4336 N   0  0  0  0  0  0  0  0  0  0  0  0
   20.5566   -9.1344  -15.5785 C   0  0  1  0  0  0  0  0  0  0  0  0
   21.7740   -9.0496  -14.6668 C   0  0  0  0  0  0  0  0  0  0  0  0
   21.4884   -7.6771  -13.5010 S   0  0  0  0  0  0  0  0  0  0  0  0
   20.5044   -7.9241  -16.4022 C   0  0  0  0  0  0  0  0  0  0  0  0
   21.1366   -7.8414  -17.4858 O   0  0  0  0  0  0  0  0  0  0  0  0
   17.7707   -4.7828  -19.9682 C   0  0  0  0  0  0  0  0  0  0  0  0
   18.5967   -4.5738  -18.7386 C   0  0  0  0  0  0  0  0  0  0  0  0
   18.6594   -5.8543  -17.9176 C   0  0  2  0  0  0  0  0  0  0  0  0
   17.2944   -6.1802  -17.3613 C   0  0  0  0  0  0  0  0  0  0  0  0
   19.6254   -5.6554  -16.7701 C   0  0  2  0  0  0  0  0  0  0  0  0
   19.7093   -6.8300  -15.9381 N   0  0  0  0  0  0  0  0  0  0  0  0
   19.2012   -4.4748  -15.9583 C   0  0  0  0  0  0  0  0  0  0  0  0
   19.4567   -3.3060  -16.3174 O   0  0  0  0  0  0  0  0  0  0  0  0
   18.5128   -4.6816  -14.7873 O   0  0  0  0  0  0  0  0  0  0  0  0
  2  1  1  0
  2  4  1  0
  3  2  2  0
  5  6  1  0
  5  4  1  0
  6  7  1  1
  8 10  1  0
  8  6  1  0
  9  8  2  0
 11 10  1  0
 11 12  1  1
 12 13  1  0
 14 15  2  0
 14 11  1  0
 17 18  1  0
 17 16  1  0
 18 20  1  0
 18 19  1  1
 20 21  1  1
 20 22  1  0
 21 14  1  0
 22 24  1  0
 23 22  2  0
M  END
$$$$
