QCI.pdb
     RDKit          3D

 24 23  0  0  1  0  0  0  0  0999 V2000
   17.9685  -23.7486  -17.7259 N   0  0  0  0  0  0  0  0  0  0  0  0
   18.7736  -24.5981  -18.5169 C   0  0  0  0  0  0  0  0  0  0  0  0
   18.2917  -25.5861  -19.0947 O   0  0  0  0  0  0  0  0  0  0  0  0
   20.2447  -24.3259  -18.6807 C   0  0  0  0  0  0  0  0  0  0  0  0
   20.5971  -22.9987  -18.0820 C   0  0  0  0  0  0  0  0  0  0  0  0
   21.8743  -22.9847  -17.2888 C   0  0  2  0  0  0  0  0  0  0  0  0
   22.4580  -24.3298  -17.4693 N   0  0  0  0  0  0  0  0  0  0  0  0
   21.5704  -22.7704  -15.8569 C   0  0  0  0  0  0  0  0  0  0  0  0
   21.8190  -23.7329  -15.0573 O   0  0  0  0  0  0  0  0  0  0  0  0
   21.0366  -21.6013  -15.3002 N   0  0  0  0  0  0  0  0  0  0  0  0
   20.6962  -21.5597  -13.8944 C   0  0  1  0  0  0  0  0  0  0  0  0
   20.4804  -20.1025  -13.5063 C   0  0  0  0  0  0  0  0  0  0  0  0
   20.0964  -20.0633  -11.7243 S   0  0  0  0  0  0  0  0  0  0  0  0
   19.4465  -22.2917  -13.6749 C   0  0  0  0  0  0  0  0  0  0  0  0
   18.5178  -22.2711  -14.5222 O   0  0  0  0  0  0  0  0  0  0  0  0
   17.3194  -27.5191  -12.0649 C   0  0  0  0  0  0  0  0  0  0  0  0
   17.0790  -26.0426  -12.0587 C   0  0  0  0  0  0  0  0  0  0  0  0
   18.3823  -25.2918  -12.2943 C   0  0  2  0  0  0  0  0  0  0  0  0
   19.3739  -25.6212  -11.2048 C   0  0  0  0  0  0  0  0  0  0  0  0
   18.1032  -23.8048  -12.2745 C   0  0  2  0  0  0  0  0  0  0  0  0
   19.3089  -23.0366  -12.4622 N   0  0  0  0  0  0  0  0  0  0  0  0
   17.4496  -23.4358  -10.9825 C   0  0  0  0  0  0  0  0  0  0  0  0
   18.0975  -22.9342  -10.0396 O   0  0  0  0  0  0  0  0  0  0  0  0
   16.1018  -23.6543  -10.8292 O   0  0  0  0  0  0  0  0  0  0  0  0
  2  1  1  0
  2  4  1  0
  3  2  2  0
  5  6  1  0
  5  4  1  0
  6  7  1  1
  8 10  1  0
  8  6  1  0
  9  8  2  0
 11 10  1  0
 11 12  1  6
 12 13  1  0
 14 15  2  0
 14 11  1  0
 17 18  1  0
 17 16  1  0
 18 20  1  0
 18 19  1  1
 20 21  1  1
 20 22  1  0
 21 14  1  0
 22 24  1  0
 23 22  2  0
M  END
$$$$
