CRV.pdb
     RDKit          3D

 25 24  0  0  1  0  0  0  0  0999 V2000
    4.7785  -12.8437   27.0940 N   0  0  0  0  0  0  0  0  0  0  0  0
    5.8514  -12.4650   26.1953 C   0  0  1  0  0  0  0  0  0  0  0  0
    6.6568  -11.4112   26.8843 C   0  0  0  0  0  0  0  0  0  0  0  0
    5.7339   -9.8902   27.1611 S   0  0  0  0  0  0  0  0  0  0  0  0
    6.5990  -13.6500   25.7638 C   0  0  0  0  0  0  0  0  0  0  0  0
    6.8617  -14.5432   26.6268 O   0  0  0  0  0  0  0  0  0  0  0  0
    8.3030  -15.1890   17.3664 N   0  0  0  0  0  0  0  0  0  0  0  0
    8.6918  -14.2560   18.3757 C   0  0  0  0  0  0  0  0  0  0  0  0
    9.0609  -13.0434   18.0746 N   0  0  0  0  0  0  0  0  0  0  0  0
    8.6974  -14.5982   19.7528 N   0  0  0  0  0  0  0  0  0  0  0  0
    8.4137  -15.9958   20.1995 C   0  0  0  0  0  0  0  0  0  0  0  0
    8.5339  -15.9512   21.6733 C   0  0  0  0  0  0  0  0  0  0  0  0
    7.8918  -14.9685   22.5149 C   0  0  0  0  0  0  0  0  0  0  0  0
    7.7293  -15.0517   23.9750 C   0  0  2  0  0  0  0  0  0  0  0  0
    7.0189  -13.8080   24.4307 N   0  0  0  0  0  0  0  0  0  0  0  0
    9.0360  -14.9587   24.6987 C   0  0  0  0  0  0  0  0  0  0  0  0
    9.8618  -14.0492   24.4945 O   0  0  0  0  0  0  0  0  0  0  0  0
    9.2857  -12.3871   18.8567 C   0  0  0  0  0  0  0  0  0  0  0  0
   10.1073  -14.0709   27.8484 C   0  0  2  0  0  0  0  0  0  0  0  0
   10.7106  -15.4565   27.7342 C   0  0  0  0  0  0  0  0  0  0  0  0
    9.8205  -16.4107   28.5045 C   0  0  2  0  0  0  0  0  0  0  0  0
   10.7587  -15.8201   26.2633 N   0  0  0  0  0  0  0  0  0  0  0  0
    9.4322  -15.9293   25.6943 C   0  0  0  0  0  0  0  0  0  0  0  0
   11.4849  -17.1233   26.1538 O   0  0  0  0  0  0  0  0  0  0  0  0
   12.8113  -17.2573   26.5027 O   0  0  0  0  0  0  0  0  0  0  0  0
  2  5  1  0
  2  1  1  1
  3  4  1  0
  3  2  1  0
  5  6  2  0
  7  8  1  0
  8  9  2  0
  8 10  1  0
 10 11  1  0
 11 12  1  0
 12 13  1  0
 14 13  1  6
 15  5  1  0
 15 14  1  0
 16 14  1  0
 16 17  2  0
 19 18  1  1
 19 21  1  0
 20 19  1  0
 21 22  1  6
 21 23  1  0
 22 16  1  0
 23 24  1  0
 25 23  2  0
M  END
$$$$
