CRV.pdb
     RDKit          3D

 25 24  0  0  1  0  0  0  0  0999 V2000
    7.7441  -14.9253   18.2945 N   0  0  0  0  0  0  0  0  0  0  0  0
    8.1919  -14.1969   19.4655 C   0  0  1  0  0  0  0  0  0  0  0  0
    7.8370  -12.7601   19.2574 C   0  0  0  0  0  0  0  0  0  0  0  0
    9.2398  -11.6516   19.4713 S   0  0  0  0  0  0  0  0  0  0  0  0
    7.6556  -14.8097   20.6846 C   0  0  0  0  0  0  0  0  0  0  0  0
    6.4054  -15.0185   20.7536 O   0  0  0  0  0  0  0  0  0  0  0  0
    6.1933  -20.6005   26.6003 N   0  0  0  0  0  0  0  0  0  0  0  0
    7.3435  -19.7534   26.6002 C   0  0  0  0  0  0  0  0  0  0  0  0
    7.4885  -18.8038   27.4803 N   0  0  0  0  0  0  0  0  0  0  0  0
    8.3838  -19.8995   25.6462 N   0  0  0  0  0  0  0  0  0  0  0  0
    8.1927  -19.4702   24.2276 C   0  0  0  0  0  0  0  0  0  0  0  0
    8.5884  -18.0449   24.2095 C   0  0  0  0  0  0  0  0  0  0  0  0
    8.5277  -17.1961   23.0424 C   0  0  0  0  0  0  0  0  0  0  0  0
    7.9507  -15.8437   22.9837 C   0  0  2  0  0  0  0  0  0  0  0  0
    8.4932  -15.1645   21.7575 N   0  0  0  0  0  0  0  0  0  0  0  0
    8.4510  -14.9637   24.0862 C   0  0  0  0  0  0  0  0  0  0  0  0
    9.6400  -14.6065   24.1829 O   0  0  0  0  0  0  0  0  0  0  0  0
    8.3819  -18.2609   27.4783 C   0  0  0  0  0  0  0  0  0  0  0  0
    7.4178  -11.5710   25.5627 C   0  0  2  0  0  0  0  0  0  0  0  0
    7.3713  -12.5848   26.6882 C   0  0  0  0  0  0  0  0  0  0  0  0
    5.9191  -12.9525   26.9164 C   0  0  2  0  0  0  0  0  0  0  0  0
    8.1801  -13.7922   26.2569 N   0  0  0  0  0  0  0  0  0  0  0  0
    7.5782  -14.4640   25.1248 C   0  0  0  0  0  0  0  0  0  0  0  0
    8.2590  -14.7141   27.4322 O   0  0  0  0  0  0  0  0  0  0  0  0
    8.9166  -14.3702   28.5934 O   0  0  0  0  0  0  0  0  0  0  0  0
  2  5  1  0
  2  1  1  6
  3  4  1  0
  3  2  1  0
  5  6  2  0
  7  8  1  0
  8  9  2  0
  8 10  1  0
 10 11  1  0
 11 12  1  0
 12 13  1  0
 14 13  1  1
 15  5  1  0
 15 14  1  0
 16 14  1  0
 16 17  2  0
 19 18  1  1
 19 21  1  0
 20 19  1  0
 21 22  1  1
 21 23  1  0
 22 16  1  0
 23 24  1  0
 25 23  2  0
M  END
$$$$
