CRV.pdb
     RDKit          3D

 25 24  0  0  1  0  0  0  0  0999 V2000
    7.7925  -15.1428   18.4919 N   0  0  0  0  0  0  0  0  0  0  0  0
    8.1792  -14.3686   19.6552 C   0  0  1  0  0  0  0  0  0  0  0  0
    7.7642  -12.9546   19.4057 C   0  0  0  0  0  0  0  0  0  0  0  0
    8.9658  -12.0304   18.4341 S   0  0  0  0  0  0  0  0  0  0  0  0
    7.6432  -14.9780   20.8761 C   0  0  0  0  0  0  0  0  0  0  0  0
    6.4190  -15.3130   20.8942 O   0  0  0  0  0  0  0  0  0  0  0  0
    8.1568  -21.0739   20.1983 N   0  0  0  0  0  0  0  0  0  0  0  0
    9.3707  -20.5169   20.7051 C   0  0  0  0  0  0  0  0  0  0  0  0
   10.4938  -20.6292   20.0544 N   0  0  0  0  0  0  0  0  0  0  0  0
    9.4183  -19.8160   21.9380 N   0  0  0  0  0  0  0  0  0  0  0  0
    8.2423  -19.8003   22.8600 C   0  0  0  0  0  0  0  0  0  0  0  0
    7.7189  -18.4191   22.7783 C   0  0  0  0  0  0  0  0  0  0  0  0
    8.4236  -17.2502   23.2509 C   0  0  0  0  0  0  0  0  0  0  0  0
    7.9173  -15.8686   23.2370 C   0  0  2  0  0  0  0  0  0  0  0  0
    8.4535  -15.1942   22.0054 N   0  0  0  0  0  0  0  0  0  0  0  0
    8.5002  -15.0384   24.3374 C   0  0  0  0  0  0  0  0  0  0  0  0
    9.7052  -14.7284   24.3884 O   0  0  0  0  0  0  0  0  0  0  0  0
   11.3408  -20.1583   20.4465 C   0  0  0  0  0  0  0  0  0  0  0  0
    7.2389  -11.6477   25.7625 C   0  0  2  0  0  0  0  0  0  0  0  0
    7.4455  -12.6039   26.9199 C   0  0  0  0  0  0  0  0  0  0  0  0
    6.0851  -13.1299   27.3305 C   0  0  2  0  0  0  0  0  0  0  0  0
    8.3432  -13.7264   26.4378 N   0  0  0  0  0  0  0  0  0  0  0  0
    7.6948  -14.5351   25.4275 C   0  0  0  0  0  0  0  0  0  0  0  0
    8.6907  -14.5581   27.6316 O   0  0  0  0  0  0  0  0  0  0  0  0
    9.4268  -14.0606   28.6850 O   0  0  0  0  0  0  0  0  0  0  0  0
  2  5  1  0
  2  1  1  6
  3  4  1  0
  3  2  1  0
  5  6  2  0
  7  8  1  0
  8  9  2  0
  8 10  1  0
 10 11  1  0
 11 12  1  0
 12 13  1  0
 14 13  1  1
 15  5  1  0
 15 14  1  0
 16 14  1  0
 16 17  2  0
 19 18  1  1
 19 21  1  0
 20 19  1  0
 21 22  1  1
 21 23  1  0
 22 16  1  0
 23 24  1  0
 25 23  2  0
M  END
$$$$
