CRV.pdb
     RDKit          3D

 25 24  0  0  1  0  0  0  0  0999 V2000
    4.8702  -12.9056   27.0938 N   0  0  0  0  0  0  0  0  0  0  0  0
    5.6413  -12.5187   25.9285 C   0  0  1  0  0  0  0  0  0  0  0  0
    6.3234  -11.2296   26.2552 C   0  0  0  0  0  0  0  0  0  0  0  0
    7.4843  -11.3758   27.6237 S   0  0  0  0  0  0  0  0  0  0  0  0
    6.5243  -13.6130   25.5136 C   0  0  0  0  0  0  0  0  0  0  0  0
    6.8082  -14.5125   26.3631 O   0  0  0  0  0  0  0  0  0  0  0  0
    7.7976  -14.9768   17.0378 N   0  0  0  0  0  0  0  0  0  0  0  0
    8.3021  -14.2726   18.1736 C   0  0  0  0  0  0  0  0  0  0  0  0
    9.1703  -13.3097   18.0459 N   0  0  0  0  0  0  0  0  0  0  0  0
    7.8876  -14.5830   19.4948 N   0  0  0  0  0  0  0  0  0  0  0  0
    8.1295  -15.9371   20.0790 C   0  0  0  0  0  0  0  0  0  0  0  0
    8.6791  -15.6724   21.4267 C   0  0  0  0  0  0  0  0  0  0  0  0
    8.1770  -14.6621   22.3286 C   0  0  0  0  0  0  0  0  0  0  0  0
    7.8793  -14.8473   23.7577 C   0  0  2  0  0  0  0  0  0  0  0  0
    7.0491  -13.6788   24.2102 N   0  0  0  0  0  0  0  0  0  0  0  0
    9.1008  -14.7240   24.6137 C   0  0  0  0  0  0  0  0  0  0  0  0
    9.8719  -13.7477   24.5595 O   0  0  0  0  0  0  0  0  0  0  0  0
    9.5060  -12.8295   18.9117 C   0  0  0  0  0  0  0  0  0  0  0  0
    9.8167  -14.1965   28.0433 C   0  0  2  0  0  0  0  0  0  0  0  0
   10.5503  -15.4922   27.7609 C   0  0  0  0  0  0  0  0  0  0  0  0
    9.6975  -16.6281   28.2888 C   0  0  2  0  0  0  0  0  0  0  0  0
   10.7373  -15.6002   26.2604 N   0  0  0  0  0  0  0  0  0  0  0  0
    9.4723  -15.7415   25.5713 C   0  0  0  0  0  0  0  0  0  0  0  0
   11.6075  -16.7905   26.0081 O   0  0  0  0  0  0  0  0  0  0  0  0
   12.9171  -16.8470   26.4333 O   0  0  0  0  0  0  0  0  0  0  0  0
  2  5  1  0
  2  1  1  1
  3  4  1  0
  3  2  1  0
  5  6  2  0
  7  8  1  0
  8  9  2  0
  8 10  1  0
 10 11  1  0
 11 12  1  0
 12 13  1  0
 14 13  1  6
 15  5  1  0
 15 14  1  0
 16 14  1  0
 16 17  2  0
 19 18  1  1
 19 21  1  0
 20 19  1  0
 21 22  1  6
 21 23  1  0
 22 16  1  0
 23 24  1  0
 25 23  2  0
M  END
$$$$
