CRV.pdb
     RDKit          3D

 25 24  0  0  1  0  0  0  0  0999 V2000
    7.6089  -20.4348   25.0916 N   0  0  0  0  0  0  0  0  0  0  0  0
    6.9315  -19.1578   24.9794 C   0  0  1  0  0  0  0  0  0  0  0  0
    6.5989  -18.7083   26.3655 C   0  0  0  0  0  0  0  0  0  0  0  0
    8.0584  -18.3564   27.3595 S   0  0  0  0  0  0  0  0  0  0  0  0
    7.7342  -18.2212   24.1873 C   0  0  0  0  0  0  0  0  0  0  0  0
    8.9246  -18.5488   23.8923 O   0  0  0  0  0  0  0  0  0  0  0  0
    8.4265  -14.6634   17.7796 N   0  0  0  0  0  0  0  0  0  0  0  0
    8.4232  -13.2989   18.2022 C   0  0  0  0  0  0  0  0  0  0  0  0
    9.2091  -12.4157   17.6547 N   0  0  0  0  0  0  0  0  0  0  0  0
    7.5689  -12.8347   19.2358 N   0  0  0  0  0  0  0  0  0  0  0  0
    6.7016  -13.7815   20.0004 C   0  0  0  0  0  0  0  0  0  0  0  0
    7.6015  -14.3866   21.0067 C   0  0  0  0  0  0  0  0  0  0  0  0
    7.2148  -15.4359   21.9209 C   0  0  0  0  0  0  0  0  0  0  0  0
    8.0513  -16.0065   22.9886 C   0  0  2  0  0  0  0  0  0  0  0  0
    7.2114  -16.9885   23.7562 N   0  0  0  0  0  0  0  0  0  0  0  0
    8.4031  -14.9970   24.0361 C   0  0  0  0  0  0  0  0  0  0  0  0
    9.0742  -13.9758   23.7963 O   0  0  0  0  0  0  0  0  0  0  0  0
    9.1636  -11.4310   18.0027 C   0  0  0  0  0  0  0  0  0  0  0  0
    7.2800  -12.3112   27.7754 C   0  0  2  0  0  0  0  0  0  0  0  0
    6.9326  -13.5014   26.9039 C   0  0  0  0  0  0  0  0  0  0  0  0
    5.9973  -13.0165   25.8147 C   0  0  1  0  0  0  0  0  0  0  0  0
    8.2235  -14.0378   26.3176 N   0  0  0  0  0  0  0  0  0  0  0  0
    7.9833  -15.1412   25.4120 C   0  0  0  0  0  0  0  0  0  0  0  0
    9.0802  -14.4765   27.4627 O   0  0  0  0  0  0  0  0  0  0  0  0
    9.5306  -15.7727   27.5895 O   0  0  0  0  0  0  0  0  0  0  0  0
  2  5  1  0
  2  1  1  1
  3  4  1  0
  3  2  1  0
  5  6  2  0
  7  8  1  0
  8  9  2  0
  8 10  1  0
 10 11  1  0
 11 12  1  0
 12 13  1  0
 14 13  1  6
 15  5  1  0
 15 14  1  0
 16 14  1  0
 16 17  2  0
 19 18  1  1
 19 21  1  0
 20 19  1  0
 21 22  1  1
 21 23  1  0
 22 16  1  0
 23 24  1  0
 25 23  2  0
M  END
$$$$
