CRV.pdb
     RDKit          3D

 25 24  0  0  1  0  0  0  0  0999 V2000
    7.2639  -19.4936   22.4973 N   0  0  0  0  0  0  0  0  0  0  0  0
    6.8838  -18.2726   23.1807 C   0  0  1  0  0  0  0  0  0  0  0  0
    6.5850  -18.6327   24.6001 C   0  0  0  0  0  0  0  0  0  0  0  0
    5.6488  -17.3612   25.4656 S   0  0  0  0  0  0  0  0  0  0  0  0
    7.9090  -17.2415   22.9931 C   0  0  0  0  0  0  0  0  0  0  0  0
    9.1287  -17.5844   23.0697 O   0  0  0  0  0  0  0  0  0  0  0  0
    7.6314  -15.2607   18.3911 N   0  0  0  0  0  0  0  0  0  0  0  0
    7.8357  -14.1264   17.5473 C   0  0  0  0  0  0  0  0  0  0  0  0
    8.1508  -14.2620   16.2904 N   0  0  0  0  0  0  0  0  0  0  0  0
    7.7079  -12.7982   18.0303 N   0  0  0  0  0  0  0  0  0  0  0  0
    7.3880  -12.5287   19.4650 C   0  0  0  0  0  0  0  0  0  0  0  0
    8.0463  -13.6247   20.2093 C   0  0  0  0  0  0  0  0  0  0  0  0
    7.9700  -13.7994   21.6410 C   0  0  0  0  0  0  0  0  0  0  0  0
    8.6118  -14.8713   22.4185 C   0  0  2  0  0  0  0  0  0  0  0  0
    7.5646  -15.9029   22.7319 N   0  0  0  0  0  0  0  0  0  0  0  0
    9.0297  -14.4135   23.7807 C   0  0  0  0  0  0  0  0  0  0  0  0
   10.1387  -13.8967   24.0126 O   0  0  0  0  0  0  0  0  0  0  0  0
    8.2318  -13.3991   15.7058 C   0  0  0  0  0  0  0  0  0  0  0  0
    7.5212  -11.8904   25.9979 C   0  0  2  0  0  0  0  0  0  0  0  0
    7.6493  -13.1252   26.8672 C   0  0  0  0  0  0  0  0  0  0  0  0
    6.2803  -13.7685   26.9571 C   0  0  2  0  0  0  0  0  0  0  0  0
    8.6481  -14.0545   26.2062 N   0  0  0  0  0  0  0  0  0  0  0  0
    8.1648  -14.5423   24.9321 C   0  0  0  0  0  0  0  0  0  0  0  0
    8.8833  -15.1925   27.1482 O   0  0  0  0  0  0  0  0  0  0  0  0
    9.4158  -15.0078   28.4057 O   0  0  0  0  0  0  0  0  0  0  0  0
  2  5  1  0
  2  1  1  6
  3  4  1  0
  3  2  1  0
  5  6  2  0
  7  8  1  0
  8  9  2  0
  8 10  1  0
 10 11  1  0
 11 12  1  0
 12 13  1  0
 14 13  1  6
 15  5  1  0
 15 14  1  0
 16 14  1  0
 16 17  2  0
 19 18  1  1
 19 21  1  0
 20 19  1  0
 21 22  1  1
 21 23  1  0
 22 16  1  0
 23 24  1  0
 25 23  2  0
M  END
$$$$
