CRV.pdb
     RDKit          3D

 25 24  0  0  1  0  0  0  0  0999 V2000
    4.6302  -13.1871   27.2937 N   0  0  0  0  0  0  0  0  0  0  0  0
    5.7666  -12.7349   26.5150 C   0  0  1  0  0  0  0  0  0  0  0  0
    6.5906  -11.8569   27.4005 C   0  0  0  0  0  0  0  0  0  0  0  0
    8.0676  -11.2259   26.5866 S   0  0  0  0  0  0  0  0  0  0  0  0
    6.4710  -13.8784   25.9273 C   0  0  0  0  0  0  0  0  0  0  0  0
    6.4730  -14.9763   26.5644 O   0  0  0  0  0  0  0  0  0  0  0  0
    8.3875  -12.7526   18.2439 N   0  0  0  0  0  0  0  0  0  0  0  0
    9.1309  -13.7307   18.9727 C   0  0  0  0  0  0  0  0  0  0  0  0
   10.4035  -13.9134   18.7620 N   0  0  0  0  0  0  0  0  0  0  0  0
    8.5262  -14.5520   19.9594 N   0  0  0  0  0  0  0  0  0  0  0  0
    7.0554  -14.4895   20.2166 C   0  0  0  0  0  0  0  0  0  0  0  0
    6.9088  -14.8365   21.6473 C   0  0  0  0  0  0  0  0  0  0  0  0
    7.9582  -14.7032   22.6308 C   0  0  0  0  0  0  0  0  0  0  0  0
    7.8298  -14.9569   24.0745 C   0  0  2  0  0  0  0  0  0  0  0  0
    7.1302  -13.7769   24.6888 N   0  0  0  0  0  0  0  0  0  0  0  0
    9.1531  -14.9455   24.7737 C   0  0  0  0  0  0  0  0  0  0  0  0
    9.9009  -13.9500   24.7951 O   0  0  0  0  0  0  0  0  0  0  0  0
   10.8947  -14.6516   19.3156 C   0  0  0  0  0  0  0  0  0  0  0  0
   10.1971  -13.6763   26.8116 C   0  0  2  0  0  0  0  0  0  0  0  0
   10.7158  -14.9792   27.3862 C   0  0  0  0  0  0  0  0  0  0  0  0
    9.6949  -15.4787   28.3884 C   0  0  2  0  0  0  0  0  0  0  0  0
   10.8808  -15.9572   26.2397 N   0  0  0  0  0  0  0  0  0  0  0  0
    9.6581  -16.1023   25.4787 C   0  0  0  0  0  0  0  0  0  0  0  0
   11.2879  -17.2687   26.8327 O   0  0  0  0  0  0  0  0  0  0  0  0
   12.4926  -17.4407   27.4795 O   0  0  0  0  0  0  0  0  0  0  0  0
  2  5  1  0
  2  1  1  1
  3  4  1  0
  3  2  1  0
  5  6  2  0
  7  8  1  0
  8  9  2  0
  8 10  1  0
 10 11  1  0
 11 12  1  0
 12 13  1  0
 14 13  1  6
 15  5  1  0
 15 14  1  0
 16 14  1  0
 16 17  2  0
 19 18  1  1
 19 21  1  0
 20 19  1  0
 21 22  1  1
 21 23  1  0
 22 16  1  0
 23 24  1  0
 25 23  2  0
M  END
$$$$
