CRV.pdb
     RDKit          3D

 25 24  0  0  1  0  0  0  0  0999 V2000
    9.6959  -15.4906   19.7460 N   0  0  0  0  0  0  0  0  0  0  0  0
    8.9013  -14.3042   19.9975 C   0  0  1  0  0  0  0  0  0  0  0  0
    8.1762  -13.9787   18.7317 C   0  0  0  0  0  0  0  0  0  0  0  0
    7.3345  -12.3881   18.7930 S   0  0  0  0  0  0  0  0  0  0  0  0
    8.0546  -14.4970   21.1787 C   0  0  0  0  0  0  0  0  0  0  0  0
    7.3717  -13.5121   21.5970 O   0  0  0  0  0  0  0  0  0  0  0  0
    8.5456  -20.2574   25.9961 N   0  0  0  0  0  0  0  0  0  0  0  0
    7.5737  -19.8819   26.9733 C   0  0  0  0  0  0  0  0  0  0  0  0
    7.7109  -20.2054   28.2278 N   0  0  0  0  0  0  0  0  0  0  0  0
    6.4126  -19.1411   26.6317 N   0  0  0  0  0  0  0  0  0  0  0  0
    6.0673  -18.8669   25.2038 C   0  0  0  0  0  0  0  0  0  0  0  0
    7.0988  -17.9113   24.7443 C   0  0  0  0  0  0  0  0  0  0  0  0
    7.1610  -17.3558   23.4125 C   0  0  0  0  0  0  0  0  0  0  0  0
    7.1437  -15.9251   23.0688 C   0  0  2  0  0  0  0  0  0  0  0  0
    7.9888  -15.7365   21.8403 N   0  0  0  0  0  0  0  0  0  0  0  0
    7.8591  -15.0881   24.0825 C   0  0  0  0  0  0  0  0  0  0  0  0
    9.1000  -15.0568   24.1830 O   0  0  0  0  0  0  0  0  0  0  0  0
    6.9938  -19.8634   28.9072 C   0  0  0  0  0  0  0  0  0  0  0  0
    6.7941  -11.3950   25.3446 C   0  0  2  0  0  0  0  0  0  0  0  0
    7.1400  -12.2992   26.5106 C   0  0  0  0  0  0  0  0  0  0  0  0
    5.8395  -12.7565   27.1396 C   0  0  2  0  0  0  0  0  0  0  0  0
    7.9276  -13.4747   25.9666 N   0  0  0  0  0  0  0  0  0  0  0  0
    7.1502  -14.2508   25.0241 C   0  0  0  0  0  0  0  0  0  0  0  0
    8.3277  -14.3176   27.1358 O   0  0  0  0  0  0  0  0  0  0  0  0
    9.1874  -13.8610   28.1113 O   0  0  0  0  0  0  0  0  0  0  0  0
  2  5  1  0
  2  1  1  6
  3  4  1  0
  3  2  1  0
  5  6  2  0
  7  8  1  0
  8  9  2  0
  8 10  1  0
 10 11  1  0
 11 12  1  0
 12 13  1  0
 14 13  1  1
 15  5  1  0
 15 14  1  0
 16 14  1  0
 16 17  2  0
 19 18  1  1
 19 21  1  0
 20 19  1  0
 21 22  1  1
 21 23  1  0
 22 16  1  0
 23 24  1  0
 25 23  2  0
M  END
$$$$
