CRV.pdb
     RDKit          3D

 25 24  0  0  1  0  0  0  0  0999 V2000
    7.8487  -14.9352   18.3819 N   0  0  0  0  0  0  0  0  0  0  0  0
    8.2957  -14.2468   19.5771 C   0  0  1  0  0  0  0  0  0  0  0  0
    7.7209  -12.8677   19.5365 C   0  0  0  0  0  0  0  0  0  0  0  0
    8.8377  -11.6623   18.8003 S   0  0  0  0  0  0  0  0  0  0  0  0
    7.9695  -15.0320   20.7714 C   0  0  0  0  0  0  0  0  0  0  0  0
    6.8510  -15.6310   20.8110 O   0  0  0  0  0  0  0  0  0  0  0  0
   10.3578  -18.7871   19.3943 N   0  0  0  0  0  0  0  0  0  0  0  0
    9.8520  -20.0248   19.8971 C   0  0  0  0  0  0  0  0  0  0  0  0
    9.3363  -20.9207   19.1042 N   0  0  0  0  0  0  0  0  0  0  0  0
    9.8832  -20.3427   21.2797 N   0  0  0  0  0  0  0  0  0  0  0  0
   10.3879  -19.3583   22.2844 C   0  0  0  0  0  0  0  0  0  0  0  0
    9.4173  -18.2427   22.2382 C   0  0  0  0  0  0  0  0  0  0  0  0
    9.4551  -17.0918   23.1101 C   0  0  0  0  0  0  0  0  0  0  0  0
    8.5339  -15.9450   23.0714 C   0  0  2  0  0  0  0  0  0  0  0  0
    8.8642  -15.1301   21.8524 N   0  0  0  0  0  0  0  0  0  0  0  0
    8.7857  -14.9757   24.1836 C   0  0  0  0  0  0  0  0  0  0  0  0
    9.8969  -14.4526   24.3896 O   0  0  0  0  0  0  0  0  0  0  0  0
    8.8899  -21.7625   19.5344 C   0  0  0  0  0  0  0  0  0  0  0  0
    7.3984  -11.8273   27.6337 C   0  0  2  0  0  0  0  0  0  0  0  0
    6.9084  -12.8230   26.6016 C   0  0  0  0  0  0  0  0  0  0  0  0
    6.3489  -12.0368   25.4333 C   0  0  1  0  0  0  0  0  0  0  0  0
    8.0927  -13.6680   26.1754 N   0  0  0  0  0  0  0  0  0  0  0  0
    7.7447  -14.5772   25.1043 C   0  0  0  0  0  0  0  0  0  0  0  0
    8.5499  -14.4276   27.3802 O   0  0  0  0  0  0  0  0  0  0  0  0
    9.1884  -13.8152   28.4367 O   0  0  0  0  0  0  0  0  0  0  0  0
  2  5  1  0
  2  1  1  6
  3  4  1  0
  3  2  1  0
  5  6  2  0
  7  8  1  0
  8  9  2  0
  8 10  1  0
 10 11  1  0
 11 12  1  0
 12 13  1  0
 14 13  1  1
 15  5  1  0
 15 14  1  0
 16 14  1  0
 16 17  2  0
 19 18  1  1
 19 21  1  0
 20 19  1  0
 21 22  1  1
 21 23  1  0
 22 16  1  0
 23 24  1  0
 25 23  2  0
M  END
$$$$
