CRV.pdb
     RDKit          3D

 25 24  0  0  1  0  0  0  0  0999 V2000
    7.7491  -21.6940   25.2002 N   0  0  0  0  0  0  0  0  0  0  0  0
    7.1600  -20.5559   25.8783 C   0  0  1  0  0  0  0  0  0  0  0  0
    7.2636  -20.8115   27.3472 C   0  0  0  0  0  0  0  0  0  0  0  0
    5.7842  -21.5744   28.0338 S   0  0  0  0  0  0  0  0  0  0  0  0
    7.7720  -19.3088   25.4096 C   0  0  0  0  0  0  0  0  0  0  0  0
    9.0130  -19.1343   25.6116 O   0  0  0  0  0  0  0  0  0  0  0  0
    8.9856  -14.0866   18.6433 N   0  0  0  0  0  0  0  0  0  0  0  0
    8.3477  -13.2392   19.6001 C   0  0  0  0  0  0  0  0  0  0  0  0
    8.1882  -11.9650   19.3802 N   0  0  0  0  0  0  0  0  0  0  0  0
    7.8568  -13.7370   20.8350 N   0  0  0  0  0  0  0  0  0  0  0  0
    7.6705  -15.2035   21.0540 C   0  0  0  0  0  0  0  0  0  0  0  0
    7.1224  -15.3125   22.4237 C   0  0  0  0  0  0  0  0  0  0  0  0
    6.9062  -16.5598   23.1191 C   0  0  0  0  0  0  0  0  0  0  0  0
    7.6343  -17.0253   24.3101 C   0  0  2  0  0  0  0  0  0  0  0  0
    7.0163  -18.3230   24.7495 N   0  0  0  0  0  0  0  0  0  0  0  0
    7.4062  -16.1427   25.4970 C   0  0  0  0  0  0  0  0  0  0  0  0
    6.3173  -16.0817   26.0982 O   0  0  0  0  0  0  0  0  0  0  0  0
    7.7622  -11.3829   20.1368 C   0  0  0  0  0  0  0  0  0  0  0  0
    9.9570  -15.1742   28.4588 C   0  0  2  0  0  0  0  0  0  0  0  0
    9.3117  -13.9312   27.8800 C   0  0  0  0  0  0  0  0  0  0  0  0
   10.3323  -13.2568   26.9857 C   0  0  2  0  0  0  0  0  0  0  0  0
    8.0945  -14.3677   27.0886 N   0  0  0  0  0  0  0  0  0  0  0  0
    8.4457  -15.2917   26.0313 C   0  0  0  0  0  0  0  0  0  0  0  0
    7.4710  -13.1327   26.5199 O   0  0  0  0  0  0  0  0  0  0  0  0
    6.8594  -12.1859   27.3129 O   0  0  0  0  0  0  0  0  0  0  0  0
  2  5  1  0
  2  1  1  6
  3  4  1  0
  3  2  1  0
  5  6  2  0
  7  8  1  0
  8  9  2  0
  8 10  1  0
 10 11  1  0
 11 12  1  0
 12 13  1  0
 14 13  1  6
 15  5  1  0
 15 14  1  0
 16 14  1  0
 16 17  2  0
 19 18  1  1
 19 21  1  0
 20 19  1  0
 21 22  1  1
 21 23  1  0
 22 16  1  0
 23 24  1  0
 25 23  2  0
M  END
$$$$
