CRV.pdb
     RDKit          3D

 25 24  0  0  1  0  0  0  0  0999 V2000
    5.6814  -18.3614   24.6190 N   0  0  0  0  0  0  0  0  0  0  0  0
    6.0012  -16.9534   24.7516 C   0  0  1  0  0  0  0  0  0  0  0  0
    5.5933  -16.5329   26.1265 C   0  0  0  0  0  0  0  0  0  0  0  0
    5.4328  -14.7476   26.2969 S   0  0  0  0  0  0  0  0  0  0  0  0
    7.4064  -16.7139   24.4088 C   0  0  0  0  0  0  0  0  0  0  0  0
    8.2536  -17.6214   24.6735 O   0  0  0  0  0  0  0  0  0  0  0  0
    9.3755  -15.2423   18.2300 N   0  0  0  0  0  0  0  0  0  0  0  0
    8.4064  -14.2395   17.9206 C   0  0  0  0  0  0  0  0  0  0  0  0
    8.1850  -13.8639   16.6928 N   0  0  0  0  0  0  0  0  0  0  0  0
    7.6375  -13.6016   18.9283 N   0  0  0  0  0  0  0  0  0  0  0  0
    8.2816  -13.0749   20.1697 C   0  0  0  0  0  0  0  0  0  0  0  0
    8.4988  -14.2686   21.0161 C   0  0  0  0  0  0  0  0  0  0  0  0
    9.1940  -14.2555   22.2821 C   0  0  0  0  0  0  0  0  0  0  0  0
    9.2158  -15.3460   23.2699 C   0  0  2  0  0  0  0  0  0  0  0  0
    7.8195  -15.5152   23.7998 N   0  0  0  0  0  0  0  0  0  0  0  0
    9.9849  -14.9825   24.5013 C   0  0  0  0  0  0  0  0  0  0  0  0
   11.0579  -14.3514   24.4697 O   0  0  0  0  0  0  0  0  0  0  0  0
    8.7300  -14.3254   15.9294 C   0  0  0  0  0  0  0  0  0  0  0  0
    9.9230  -12.7766   27.0481 C   0  0  2  0  0  0  0  0  0  0  0  0
    9.9936  -14.0545   27.8597 C   0  0  0  0  0  0  0  0  0  0  0  0
    8.6081  -14.3275   28.4094 C   0  0  2  0  0  0  0  0  0  0  0  0
   10.4433  -15.1667   26.9330 N   0  0  0  0  0  0  0  0  0  0  0  0
    9.5291  -15.3438   25.8249 C   0  0  0  0  0  0  0  0  0  0  0  0
   10.5249  -16.4170   27.7503 O   0  0  0  0  0  0  0  0  0  0  0  0
   11.3921  -16.5449   28.8136 O   0  0  0  0  0  0  0  0  0  0  0  0
  2  5  1  0
  2  1  1  1
  3  4  1  0
  3  2  1  0
  5  6  2  0
  7  8  1  0
  8  9  2  0
  8 10  1  0
 10 11  1  0
 11 12  1  0
 12 13  1  0
 14 13  1  6
 15  5  1  0
 15 14  1  0
 16 14  1  0
 16 17  2  0
 19 18  1  1
 19 21  1  0
 20 19  1  0
 21 22  1  1
 21 23  1  0
 22 16  1  0
 23 24  1  0
 25 23  2  0
M  END
$$$$
