CRV.pdb
     RDKit          3D

 25 24  0  0  1  0  0  0  0  0999 V2000
    4.6160  -12.9242   26.3702 N   0  0  0  0  0  0  0  0  0  0  0  0
    5.8955  -12.6586   25.7421 C   0  0  1  0  0  0  0  0  0  0  0  0
    6.6078  -11.6563   26.5916 C   0  0  0  0  0  0  0  0  0  0  0  0
    8.2160  -11.1899   25.9295 S   0  0  0  0  0  0  0  0  0  0  0  0
    6.6180  -13.9119   25.5041 C   0  0  0  0  0  0  0  0  0  0  0  0
    6.5501  -14.8226   26.3858 O   0  0  0  0  0  0  0  0  0  0  0  0
   10.4906  -19.9969   19.2526 N   0  0  0  0  0  0  0  0  0  0  0  0
   10.8938  -18.8759   20.0409 C   0  0  0  0  0  0  0  0  0  0  0  0
   12.0114  -18.2480   19.8084 N   0  0  0  0  0  0  0  0  0  0  0  0
   10.1032  -18.3891   21.1140 N   0  0  0  0  0  0  0  0  0  0  0  0
    9.2522  -17.1713   20.9521 C   0  0  0  0  0  0  0  0  0  0  0  0
    9.5384  -16.3507   22.1492 C   0  0  0  0  0  0  0  0  0  0  0  0
    8.6135  -15.4061   22.7310 C   0  0  0  0  0  0  0  0  0  0  0  0
    8.2124  -15.3452   24.1455 C   0  0  2  0  0  0  0  0  0  0  0  0
    7.3692  -14.1150   24.3323 N   0  0  0  0  0  0  0  0  0  0  0  0
    9.3717  -15.0811   25.0544 C   0  0  0  0  0  0  0  0  0  0  0  0
    9.8978  -13.9588   25.1749 O   0  0  0  0  0  0  0  0  0  0  0  0
   12.2385  -17.4114   20.3925 C   0  0  0  0  0  0  0  0  0  0  0  0
    9.8591  -13.6916   27.2665 C   0  0  2  0  0  0  0  0  0  0  0  0
   10.5901  -14.8702   27.8774 C   0  0  0  0  0  0  0  0  0  0  0  0
    9.6156  -15.5973   28.7817 C   0  0  2  0  0  0  0  0  0  0  0  0
   11.0557  -15.7633   26.7444 N   0  0  0  0  0  0  0  0  0  0  0  0
    9.9658  -16.1225   25.8623 C   0  0  0  0  0  0  0  0  0  0  0  0
   11.6541  -16.9866   27.3634 O   0  0  0  0  0  0  0  0  0  0  0  0
   12.8170  -16.9432   28.1016 O   0  0  0  0  0  0  0  0  0  0  0  0
  2  5  1  0
  2  1  1  1
  3  4  1  0
  3  2  1  0
  5  6  2  0
  7  8  1  0
  8  9  2  0
  8 10  1  0
 10 11  1  0
 11 12  1  0
 12 13  1  0
 14 13  1  6
 15  5  1  0
 15 14  1  0
 16 14  1  0
 16 17  2  0
 19 18  1  1
 19 21  1  0
 20 19  1  0
 21 22  1  1
 21 23  1  0
 22 16  1  0
 23 24  1  0
 25 23  2  0
M  END
$$$$
