CRV.pdb
     RDKit          3D

 25 24  0  0  1  0  0  0  0  0999 V2000
    5.6559  -17.6698   22.9611 N   0  0  0  0  0  0  0  0  0  0  0  0
    6.7248  -18.6175   23.2097 C   0  0  1  0  0  0  0  0  0  0  0  0
    6.5182  -19.7728   22.2843 C   0  0  0  0  0  0  0  0  0  0  0  0
    4.7800  -20.1689   22.0319 S   0  0  0  0  0  0  0  0  0  0  0  0
    8.0287  -17.9546   23.1110 C   0  0  0  0  0  0  0  0  0  0  0  0
    9.0750  -18.6667   23.2100 O   0  0  0  0  0  0  0  0  0  0  0  0
    8.7341  -15.4696   16.3035 N   0  0  0  0  0  0  0  0  0  0  0  0
    8.0784  -14.3951   16.9787 C   0  0  0  0  0  0  0  0  0  0  0  0
    7.5024  -13.4294   16.3207 N   0  0  0  0  0  0  0  0  0  0  0  0
    8.0201  -14.3218   18.3947 N   0  0  0  0  0  0  0  0  0  0  0  0
    8.7587  -15.3024   19.2469 C   0  0  0  0  0  0  0  0  0  0  0  0
    8.4439  -14.9048   20.6366 C   0  0  0  0  0  0  0  0  0  0  0  0
    9.3982  -14.9034   21.7208 C   0  0  0  0  0  0  0  0  0  0  0  0
    9.4705  -15.8871   22.8127 C   0  0  2  0  0  0  0  0  0  0  0  0
    8.1332  -16.5664   22.9096 N   0  0  0  0  0  0  0  0  0  0  0  0
    9.5992  -15.2381   24.1552 C   0  0  0  0  0  0  0  0  0  0  0  0
   10.6285  -14.6432   24.5256 O   0  0  0  0  0  0  0  0  0  0  0  0
    7.0636  -12.6531   16.8664 C   0  0  0  0  0  0  0  0  0  0  0  0
    6.2985  -14.2358   26.7408 C   0  0  1  0  0  0  0  0  0  0  0  0
    7.6015  -13.4868   26.5463 C   0  0  0  0  0  0  0  0  0  0  0  0
    7.8442  -12.6553   27.7896 C   0  0  1  0  0  0  0  0  0  0  0  0
    8.7001  -14.5131   26.3514 N   0  0  0  0  0  0  0  0  0  0  0  0
    8.5255  -15.2588   25.1232 C   0  0  0  0  0  0  0  0  0  0  0  0
    8.6618  -15.4310   27.5319 O   0  0  0  0  0  0  0  0  0  0  0  0
    8.9208  -14.9927   28.8126 O   0  0  0  0  0  0  0  0  0  0  0  0
  2  5  1  0
  2  1  1  6
  3  4  1  0
  3  2  1  0
  5  6  2  0
  7  8  1  0
  8  9  2  0
  8 10  1  0
 10 11  1  0
 11 12  1  0
 12 13  1  0
 14 13  1  6
 15  5  1  0
 15 14  1  0
 16 14  1  0
 16 17  2  0
 19 18  1  6
 19 21  1  0
 20 19  1  0
 21 22  1  6
 21 23  1  0
 22 16  1  0
 23 24  1  0
 25 23  2  0
M  END
$$$$
