CRV.pdb
     RDKit          3D

 25 24  0  0  1  0  0  0  0  0999 V2000
    7.4190  -16.6457   18.7933 N   0  0  0  0  0  0  0  0  0  0  0  0
    7.9452  -15.6918   19.7501 C   0  0  1  0  0  0  0  0  0  0  0  0
    7.9556  -14.3541   19.0837 C   0  0  0  0  0  0  0  0  0  0  0  0
    8.4761  -13.0257   20.1822 S   0  0  0  0  0  0  0  0  0  0  0  0
    7.1969  -15.7646   21.0087 C   0  0  0  0  0  0  0  0  0  0  0  0
    5.9346  -15.8868   20.9523 O   0  0  0  0  0  0  0  0  0  0  0  0
    7.8698  -19.4183   28.1645 N   0  0  0  0  0  0  0  0  0  0  0  0
    8.7341  -19.6306   27.0472 C   0  0  0  0  0  0  0  0  0  0  0  0
   10.0159  -19.8045   27.2026 N   0  0  0  0  0  0  0  0  0  0  0  0
    8.2457  -19.6625   25.7152 N   0  0  0  0  0  0  0  0  0  0  0  0
    6.8069  -19.3909   25.4166 C   0  0  0  0  0  0  0  0  0  0  0  0
    6.7501  -17.9413   25.1268 C   0  0  0  0  0  0  0  0  0  0  0  0
    7.1924  -17.3384   23.8911 C   0  0  0  0  0  0  0  0  0  0  0  0
    7.0987  -15.9123   23.5406 C   0  0  2  0  0  0  0  0  0  0  0  0
    7.8477  -15.7042   22.2542 N   0  0  0  0  0  0  0  0  0  0  0  0
    7.8527  -15.0413   24.4960 C   0  0  0  0  0  0  0  0  0  0  0  0
    9.0954  -15.0395   24.5768 O   0  0  0  0  0  0  0  0  0  0  0  0
   10.6001  -19.9596   26.3497 C   0  0  0  0  0  0  0  0  0  0  0  0
    7.0279  -11.2290   25.3776 C   0  0  2  0  0  0  0  0  0  0  0  0
    7.2773  -12.0220   26.6447 C   0  0  0  0  0  0  0  0  0  0  0  0
    5.9311  -12.3214   27.2725 C   0  0  2  0  0  0  0  0  0  0  0  0
    7.9963  -13.2990   26.2571 N   0  0  0  0  0  0  0  0  0  0  0  0
    7.1820  -14.1336   25.3995 C   0  0  0  0  0  0  0  0  0  0  0  0
    8.3318  -14.0194   27.5244 O   0  0  0  0  0  0  0  0  0  0  0  0
    9.2566  -13.5338   28.4233 O   0  0  0  0  0  0  0  0  0  0  0  0
  2  5  1  0
  2  1  1  6
  3  4  1  0
  3  2  1  0
  5  6  2  0
  7  8  1  0
  8  9  2  0
  8 10  1  0
 10 11  1  0
 11 12  1  0
 12 13  1  0
 14 13  1  1
 15  5  1  0
 15 14  1  0
 16 14  1  0
 16 17  2  0
 19 18  1  1
 19 21  1  0
 20 19  1  0
 21 22  1  1
 21 23  1  0
 22 16  1  0
 23 24  1  0
 25 23  2  0
M  END
$$$$
