CRV.pdb
     RDKit          3D

 25 24  0  0  1  0  0  0  0  0999 V2000
    7.8387  -14.9545   18.8848 N   0  0  0  0  0  0  0  0  0  0  0  0
    8.0763  -14.2179   20.1109 C   0  0  1  0  0  0  0  0  0  0  0  0
    7.5345  -12.8391   19.9128 C   0  0  0  0  0  0  0  0  0  0  0  0
    8.7516  -11.6957   19.2395 S   0  0  0  0  0  0  0  0  0  0  0  0
    7.5351  -14.9500   21.2600 C   0  0  0  0  0  0  0  0  0  0  0  0
    6.5797  -15.7617   21.0609 O   0  0  0  0  0  0  0  0  0  0  0  0
   11.1905  -18.4811   19.2021 N   0  0  0  0  0  0  0  0  0  0  0  0
   10.5234  -19.6237   19.7405 C   0  0  0  0  0  0  0  0  0  0  0  0
   10.0718  -20.5727   18.9705 N   0  0  0  0  0  0  0  0  0  0  0  0
   10.3172  -19.7852   21.1351 N   0  0  0  0  0  0  0  0  0  0  0  0
   10.7455  -18.7305   22.1034 C   0  0  0  0  0  0  0  0  0  0  0  0
    9.6480  -17.7386   22.0887 C   0  0  0  0  0  0  0  0  0  0  0  0
    9.5827  -16.5813   22.9505 C   0  0  0  0  0  0  0  0  0  0  0  0
    8.3555  -15.9400   23.4484 C   0  0  2  0  0  0  0  0  0  0  0  0
    8.0529  -14.7695   22.5554 N   0  0  0  0  0  0  0  0  0  0  0  0
    8.5558  -15.2853   24.7793 C   0  0  0  0  0  0  0  0  0  0  0  0
    8.9804  -15.8950   25.7786 O   0  0  0  0  0  0  0  0  0  0  0  0
    9.6487  -21.4154   19.4219 C   0  0  0  0  0  0  0  0  0  0  0  0
    6.9495  -11.5621   25.6485 C   0  0  2  0  0  0  0  0  0  0  0  0
    7.3304  -12.4902   26.7845 C   0  0  0  0  0  0  0  0  0  0  0  0
    6.1225  -13.3481   27.1022 C   0  0  2  0  0  0  0  0  0  0  0  0
    8.4964  -13.3388   26.3172 N   0  0  0  0  0  0  0  0  0  0  0  0
    8.2664  -13.8856   24.9969 C   0  0  0  0  0  0  0  0  0  0  0  0
    8.6715  -14.4379   27.3166 O   0  0  0  0  0  0  0  0  0  0  0  0
    9.2834  -14.2336   28.5344 O   0  0  0  0  0  0  0  0  0  0  0  0
  2  5  1  0
  2  1  1  6
  3  4  1  0
  3  2  1  0
  5  6  2  0
  7  8  1  0
  8  9  2  0
  8 10  1  0
 10 11  1  0
 11 12  1  0
 12 13  1  0
 14 13  1  6
 15  5  1  0
 15 14  1  0
 16 14  1  0
 16 17  2  0
 19 18  1  1
 19 21  1  0
 20 19  1  0
 21 22  1  1
 21 23  1  0
 22 16  1  0
 23 24  1  0
 25 23  2  0
M  END
$$$$
