CRV.pdb
     RDKit          3D

 25 24  0  0  1  0  0  0  0  0999 V2000
    6.1782  -17.0482   19.9261 N   0  0  0  0  0  0  0  0  0  0  0  0
    7.1016  -15.9952   20.3013 C   0  0  1  0  0  0  0  0  0  0  0  0
    6.2935  -14.7616   20.5444 C   0  0  0  0  0  0  0  0  0  0  0  0
    4.8378  -15.0639   21.5601 S   0  0  0  0  0  0  0  0  0  0  0  0
    7.9443  -16.4289   21.4198 C   0  0  0  0  0  0  0  0  0  0  0  0
    7.4548  -17.2431   22.2618 O   0  0  0  0  0  0  0  0  0  0  0  0
   17.1932  -15.1678   23.7273 N   0  0  0  0  0  0  0  0  0  0  0  0
   15.9789  -15.4674   23.0371 C   0  0  0  0  0  0  0  0  0  0  0  0
   15.7420  -15.0003   21.8442 N   0  0  0  0  0  0  0  0  0  0  0  0
   14.9707  -16.2847   23.6110 N   0  0  0  0  0  0  0  0  0  0  0  0
   13.9688  -16.9871   22.7531 C   0  0  0  0  0  0  0  0  0  0  0  0
   12.6580  -16.4765   23.2109 C   0  0  0  0  0  0  0  0  0  0  0  0
   11.5159  -16.2732   22.3505 C   0  0  0  0  0  0  0  0  0  0  0  0
   10.1027  -16.3530   22.7530 C   0  0  2  0  0  0  0  0  0  0  0  0
    9.2639  -15.9649   21.5677 N   0  0  0  0  0  0  0  0  0  0  0  0
    9.7386  -15.3078   23.7604 C   0  0  0  0  0  0  0  0  0  0  0  0
    9.6770  -14.0944   23.4876 O   0  0  0  0  0  0  0  0  0  0  0  0
   14.9143  -15.3710   21.3242 C   0  0  0  0  0  0  0  0  0  0  0  0
    6.7467  -14.7510   25.8421 C   0  0  2  0  0  0  0  0  0  0  0  0
    7.9152  -13.7963   25.7008 C   0  0  0  0  0  0  0  0  0  0  0  0
    7.6835  -12.6414   26.6541 C   0  0  1  0  0  0  0  0  0  0  0  0
    9.1781  -14.5551   26.0575 N   0  0  0  0  0  0  0  0  0  0  0  0
    9.4308  -15.6401   25.1334 C   0  0  0  0  0  0  0  0  0  0  0  0
    9.0005  -15.0805   27.4468 O   0  0  0  0  0  0  0  0  0  0  0  0
    8.9319  -14.2493   28.5439 O   0  0  0  0  0  0  0  0  0  0  0  0
  2  5  1  0
  2  1  1  1
  3  4  1  0
  3  2  1  0
  5  6  2  0
  7  8  1  0
  8  9  2  0
  8 10  1  0
 10 11  1  0
 11 12  1  0
 12 13  1  0
 14 13  1  6
 15  5  1  0
 15 14  1  0
 16 14  1  0
 16 17  2  0
 19 18  1  6
 19 21  1  0
 20 19  1  0
 21 22  1  6
 21 23  1  0
 22 16  1  0
 23 24  1  0
 25 23  2  0
M  END
$$$$
