IKT.pdb
     RDKit          3D

 25 24  0  0  1  0  0  0  0  0999 V2000
    6.7035  -11.9652   28.2430 C   0  0  0  0  0  0  0  0  0  0  0  0
    6.0760  -13.0198   27.3781 C   0  0  0  0  0  0  0  0  0  0  0  0
    6.9438  -13.5792   26.3098 C   0  0  2  0  0  0  0  0  0  0  0  0
    7.6775  -12.4892   25.5508 C   0  0  0  0  0  0  0  0  0  0  0  0
    6.4109  -14.6430   25.4384 C   0  0  2  0  0  0  0  0  0  0  0  0
    6.0927  -15.7706   26.3291 N   0  0  0  0  0  0  0  0  0  0  0  0
    7.1902  -15.0670   24.2865 C   0  0  0  0  0  0  0  0  0  0  0  0
    7.9025  -16.1043   24.2625 O   0  0  0  0  0  0  0  0  0  0  0  0
    7.2280  -14.3350   23.0391 N   0  0  0  0  0  0  0  0  0  0  0  0
    7.9136  -14.8313   21.8675 C   0  0  1  0  0  0  0  0  0  0  0  0
    7.9813  -13.8131   20.7615 C   0  0  0  0  0  0  0  0  0  0  0  0
    8.6144  -14.3177   19.4978 C   0  0  0  0  0  0  0  0  0  0  0  0
    7.8732  -13.8360   18.2742 C   0  0  0  0  0  0  0  0  0  0  0  0
    8.5336  -14.3688   17.0309 C   0  0  0  0  0  0  0  0  0  0  0  0
    7.8068  -13.8635   15.8650 N   0  0  0  0  0  0  0  0  0  0  0  0
    9.3173  -15.1099   22.2788 C   0  0  0  0  0  0  0  0  0  0  0  0
   10.0587  -14.2227   22.7758 O   0  0  0  0  0  0  0  0  0  0  0  0
   11.0030  -18.0342   24.4747 C   0  0  0  0  0  0  0  0  0  0  0  0
   11.5007  -18.0062   23.0453 C   0  0  1  0  0  0  0  0  0  0  0  0
   10.7455  -18.9144   22.3087 O   0  0  0  0  0  0  0  0  0  0  0  0
   11.2865  -16.6274   22.4250 C   0  0  2  0  0  0  0  0  0  0  0  0
    9.8868  -16.4022   22.1265 N   0  0  0  0  0  0  0  0  0  0  0  0
   12.1237  -16.4980   21.2220 C   0  0  0  0  0  0  0  0  0  0  0  0
   11.6517  -16.4413   20.0540 O   0  0  0  0  0  0  0  0  0  0  0  0
   13.5001  -16.4349   21.3770 O   0  0  0  0  0  0  0  0  0  0  0  0
  2  1  1  0
  3  2  1  0
  3  4  1  6
  5  3  1  0
  5  7  1  0
  5  6  1  1
  7  8  2  0
  9 10  1  0
  9  7  1  0
 11 12  1  0
 10 11  1  6
 12 13  1  0
 13 14  1  0
 14 15  1  0
 16 10  1  0
 17 16  2  0
 19 18  1  1
 19 21  1  0
 20 19  1  0
 21 22  1  6
 21 23  1  0
 22 16  1  0
 23 25  1  0
 24 23  2  0
M  END
$$$$
