IKT.pdb
     RDKit          3D

 25 24  0  0  1  0  0  0  0  0999 V2000
    6.6482  -11.5380   27.6360 C   0  0  0  0  0  0  0  0  0  0  0  0
    6.0570  -12.7487   26.9736 C   0  0  0  0  0  0  0  0  0  0  0  0
    6.9858  -13.5382   26.1245 C   0  0  2  0  0  0  0  0  0  0  0  0
    7.8471  -12.6461   25.2502 C   0  0  0  0  0  0  0  0  0  0  0  0
    6.4752  -14.7303   25.4220 C   0  0  2  0  0  0  0  0  0  0  0  0
    5.8837  -15.5873   26.4620 N   0  0  0  0  0  0  0  0  0  0  0  0
    7.3725  -15.4749   24.5535 C   0  0  0  0  0  0  0  0  0  0  0  0
    8.1601  -16.3698   24.9570 O   0  0  0  0  0  0  0  0  0  0  0  0
    7.4538  -15.2627   23.1246 N   0  0  0  0  0  0  0  0  0  0  0  0
    8.3057  -16.0567   22.2685 C   0  0  1  0  0  0  0  0  0  0  0  0
    8.3094  -15.5710   20.8442 C   0  0  0  0  0  0  0  0  0  0  0  0
    9.1637  -16.3860   19.9178 C   0  0  0  0  0  0  0  0  0  0  0  0
    8.3611  -17.4571   19.2199 C   0  0  0  0  0  0  0  0  0  0  0  0
    9.2620  -18.2839   18.3420 C   0  0  0  0  0  0  0  0  0  0  0  0
    8.4602  -19.3319   17.7084 N   0  0  0  0  0  0  0  0  0  0  0  0
    9.6952  -15.8955   22.7788 C   0  0  0  0  0  0  0  0  0  0  0  0
    9.9618  -15.1888   23.7854 O   0  0  0  0  0  0  0  0  0  0  0  0
   11.0613  -16.5999   25.1048 C   0  0  0  0  0  0  0  0  0  0  0  0
   11.9395  -17.3759   24.1465 C   0  0  1  0  0  0  0  0  0  0  0  0
   11.3195  -18.5944   23.8850 O   0  0  0  0  0  0  0  0  0  0  0  0
   12.0721  -16.6378   22.8162 C   0  0  2  0  0  0  0  0  0  0  0  0
   10.7918  -16.5389   22.1455 N   0  0  0  0  0  0  0  0  0  0  0  0
   13.0709  -17.3190   21.9776 C   0  0  0  0  0  0  0  0  0  0  0  0
   14.3099  -17.2803   22.2090 O   0  0  0  0  0  0  0  0  0  0  0  0
   12.6311  -18.0398   20.8779 O   0  0  0  0  0  0  0  0  0  0  0  0
  2  1  1  0
  3  2  1  0
  3  4  1  6
  5  3  1  0
  5  7  1  0
  5  6  1  1
  7  8  2  0
  9 10  1  0
  9  7  1  0
 11 12  1  0
 10 11  1  6
 12 13  1  0
 13 14  1  0
 14 15  1  0
 16 10  1  0
 17 16  2  0
 19 18  1  1
 19 21  1  0
 20 19  1  0
 21 22  1  6
 21 23  1  0
 22 16  1  0
 23 25  1  0
 24 23  2  0
M  END
$$$$
