IKT.pdb
     RDKit          3D

 25 24  0  0  1  0  0  0  0  0999 V2000
    5.6293  -10.7070   25.8623 C   0  0  0  0  0  0  0  0  0  0  0  0
    6.5123  -11.6463   25.0929 C   0  0  0  0  0  0  0  0  0  0  0  0
    6.9291  -12.8767   25.8137 C   0  0  2  0  0  0  0  0  0  0  0  0
    7.3847  -12.5741   27.2291 C   0  0  0  0  0  0  0  0  0  0  0  0
    7.7844  -13.8577   25.1200 C   0  0  2  0  0  0  0  0  0  0  0  0
    7.2768  -13.9292   23.7404 N   0  0  0  0  0  0  0  0  0  0  0  0
    7.9566  -15.1788   25.7021 C   0  0  0  0  0  0  0  0  0  0  0  0
    7.9603  -15.4071   26.9397 O   0  0  0  0  0  0  0  0  0  0  0  0
    8.1430  -16.3771   24.9129 N   0  0  0  0  0  0  0  0  0  0  0  0
    8.4330  -17.6620   25.5080 C   0  0  1  0  0  0  0  0  0  0  0  0
    8.5706  -18.7564   24.4843 C   0  0  0  0  0  0  0  0  0  0  0  0
    8.8281  -20.1155   25.0665 C   0  0  0  0  0  0  0  0  0  0  0  0
    9.0503  -21.1487   23.9888 C   0  0  0  0  0  0  0  0  0  0  0  0
    9.2968  -22.4964   24.6124 C   0  0  0  0  0  0  0  0  0  0  0  0
    9.5450  -23.4652   23.5435 N   0  0  0  0  0  0  0  0  0  0  0  0
    9.7564  -17.5345   26.1783 C   0  0  0  0  0  0  0  0  0  0  0  0
   10.8127  -17.2977   25.5365 O   0  0  0  0  0  0  0  0  0  0  0  0
   10.9966  -15.2279   28.8437 C   0  0  0  0  0  0  0  0  0  0  0  0
   11.2261  -16.6334   29.3573 C   0  0  1  0  0  0  0  0  0  0  0  0
   10.1812  -16.9524   30.2198 O   0  0  0  0  0  0  0  0  0  0  0  0
   11.1928  -17.6405   28.2099 C   0  0  2  0  0  0  0  0  0  0  0  0
    9.8859  -17.6761   27.5857 N   0  0  0  0  0  0  0  0  0  0  0  0
   11.5888  -18.9656   28.7120 C   0  0  0  0  0  0  0  0  0  0  0  0
   10.8374  -19.9771   28.6607 O   0  0  0  0  0  0  0  0  0  0  0  0
   12.8497  -19.1127   29.2696 O   0  0  0  0  0  0  0  0  0  0  0  0
  2  1  1  0
  3  2  1  0
  3  4  1  1
  5  3  1  0
  5  7  1  0
  5  6  1  6
  7  8  2  0
  9 10  1  0
  9  7  1  0
 11 12  1  0
 10 11  1  6
 12 13  1  0
 13 14  1  0
 14 15  1  0
 16 10  1  0
 17 16  2  0
 19 18  1  6
 19 21  1  0
 20 19  1  0
 21 22  1  1
 21 23  1  0
 22 16  1  0
 23 25  1  0
 24 23  2  0
M  END
$$$$
