IKT.pdb
     RDKit          3D

 25 24  0  0  1  0  0  0  0  0999 V2000
    7.6818  -11.9795   19.6109 C   0  0  0  0  0  0  0  0  0  0  0  0
    7.6397  -13.4798   19.6488 C   0  0  0  0  0  0  0  0  0  0  0  0
    7.9470  -14.1012   20.9628 C   0  0  2  0  0  0  0  0  0  0  0  0
    9.1257  -13.4296   21.6425 C   0  0  0  0  0  0  0  0  0  0  0  0
    7.9678  -15.5719   21.0718 C   0  0  2  0  0  0  0  0  0  0  0  0
    6.6791  -16.0334   20.5311 N   0  0  0  0  0  0  0  0  0  0  0  0
    8.2625  -16.1791   22.3595 C   0  0  0  0  0  0  0  0  0  0  0  0
    7.4361  -16.2583   23.3054 O   0  0  0  0  0  0  0  0  0  0  0  0
    9.5460  -16.7596   22.6897 N   0  0  0  0  0  0  0  0  0  0  0  0
    9.8153  -17.3718   23.9710 C   0  0  1  0  0  0  0  0  0  0  0  0
   10.9981  -18.3014   23.9314 C   0  0  0  0  0  0  0  0  0  0  0  0
   11.3205  -18.9442   25.2487 C   0  0  0  0  0  0  0  0  0  0  0  0
   12.4667  -19.9187   25.1256 C   0  0  0  0  0  0  0  0  0  0  0  0
   12.7148  -20.5896   26.4501 C   0  0  0  0  0  0  0  0  0  0  0  0
   13.7611  -21.5977   26.2722 N   0  0  0  0  0  0  0  0  0  0  0  0
   10.1693  -16.2689   24.9066 C   0  0  0  0  0  0  0  0  0  0  0  0
   10.9476  -15.3359   24.5789 O   0  0  0  0  0  0  0  0  0  0  0  0
    9.1355  -12.9839   28.1080 C   0  0  0  0  0  0  0  0  0  0  0  0
    8.7418  -14.2511   27.3792 C   0  0  1  0  0  0  0  0  0  0  0  0
    8.2076  -13.8898   26.1456 O   0  0  0  0  0  0  0  0  0  0  0  0
    9.9667  -15.1214   27.1075 C   0  0  2  0  0  0  0  0  0  0  0  0
    9.6387  -16.2212   26.2234 N   0  0  0  0  0  0  0  0  0  0  0  0
   10.5182  -15.6003   28.3848 C   0  0  0  0  0  0  0  0  0  0  0  0
   10.5084  -16.8129   28.7308 O   0  0  0  0  0  0  0  0  0  0  0  0
   11.0770  -14.6749   29.2531 O   0  0  0  0  0  0  0  0  0  0  0  0
  2  1  1  0
  3  2  1  0
  3  4  1  6
  5  3  1  0
  5  7  1  0
  5  6  1  1
  7  8  2  0
  9 10  1  0
  9  7  1  0
 11 12  1  0
 10 11  1  6
 12 13  1  0
 13 14  1  0
 14 15  1  0
 16 10  1  0
 17 16  2  0
 19 18  1  6
 19 21  1  0
 20 19  1  0
 21 22  1  6
 21 23  1  0
 22 16  1  0
 23 25  1  0
 24 23  2  0
M  END
$$$$
