IKT.pdb
     RDKit          3D

 25 24  0  0  1  0  0  0  0  0999 V2000
    6.0090  -11.2757   27.3454 C   0  0  0  0  0  0  0  0  0  0  0  0
    6.6278  -12.6422   27.4085 C   0  0  0  0  0  0  0  0  0  0  0  0
    7.1165  -13.1899   26.1169 C   0  0  2  0  0  0  0  0  0  0  0  0
    6.2126  -12.8019   24.9616 C   0  0  0  0  0  0  0  0  0  0  0  0
    7.5711  -14.5918   26.0599 C   0  0  2  0  0  0  0  0  0  0  0  0
    8.4262  -14.7855   27.2421 N   0  0  0  0  0  0  0  0  0  0  0  0
    8.2078  -15.0776   24.8465 C   0  0  0  0  0  0  0  0  0  0  0  0
    9.3614  -14.7395   24.4737 O   0  0  0  0  0  0  0  0  0  0  0  0
    7.5766  -16.0069   23.9347 N   0  0  0  0  0  0  0  0  0  0  0  0
    8.2461  -16.5196   22.7609 C   0  0  1  0  0  0  0  0  0  0  0  0
    8.0037  -17.9900   22.5520 C   0  0  0  0  0  0  0  0  0  0  0  0
    8.6618  -18.5547   21.3271 C   0  0  0  0  0  0  0  0  0  0  0  0
    8.2991  -20.0053   21.1202 C   0  0  0  0  0  0  0  0  0  0  0  0
    9.0161  -20.5467   19.9124 C   0  0  0  0  0  0  0  0  0  0  0  0
    8.5291  -21.9021   19.6510 N   0  0  0  0  0  0  0  0  0  0  0  0
    7.6533  -15.8178   21.5891 C   0  0  0  0  0  0  0  0  0  0  0  0
    6.4184  -15.5940   21.4961 O   0  0  0  0  0  0  0  0  0  0  0  0
    7.9816  -12.4438   20.2071 C   0  0  0  0  0  0  0  0  0  0  0  0
    8.3861  -13.3735   19.0829 C   0  0  1  0  0  0  0  0  0  0  0  0
    9.7761  -13.4469   19.0642 O   0  0  0  0  0  0  0  0  0  0  0  0
    7.8592  -14.7849   19.3324 C   0  0  2  0  0  0  0  0  0  0  0  0
    8.4639  -15.3656   20.5139 N   0  0  0  0  0  0  0  0  0  0  0  0
    8.0981  -15.6129   18.1398 C   0  0  0  0  0  0  0  0  0  0  0  0
    7.6273  -15.3391   17.0025 O   0  0  0  0  0  0  0  0  0  0  0  0
    8.8791  -16.7512   18.2699 O   0  0  0  0  0  0  0  0  0  0  0  0
  2  1  1  0
  3  2  1  0
  3  4  1  6
  5  3  1  0
  5  7  1  0
  5  6  1  1
  7  8  2  0
  9 10  1  0
  9  7  1  0
 11 12  1  0
 10 11  1  6
 12 13  1  0
 13 14  1  0
 14 15  1  0
 16 10  1  0
 17 16  2  0
 19 18  1  1
 19 21  1  0
 20 19  1  0
 21 22  1  1
 21 23  1  0
 22 16  1  0
 23 25  1  0
 24 23  2  0
M  END
$$$$
