IKT.pdb
     RDKit          3D

 25 24  0  0  1  0  0  0  0  0999 V2000
    7.1684  -12.0923   28.3406 C   0  0  0  0  0  0  0  0  0  0  0  0
    6.3720  -13.0416   27.4929 C   0  0  0  0  0  0  0  0  0  0  0  0
    7.1136  -13.6934   26.3828 C   0  0  2  0  0  0  0  0  0  0  0  0
    7.9736  -12.7024   25.6206 C   0  0  0  0  0  0  0  0  0  0  0  0
    6.4031  -14.6458   25.5092 C   0  0  2  0  0  0  0  0  0  0  0  0
    5.9309  -15.7252   26.3912 N   0  0  0  0  0  0  0  0  0  0  0  0
    7.0825  -15.1661   24.3338 C   0  0  0  0  0  0  0  0  0  0  0  0
    7.6384  -16.2941   24.2845 O   0  0  0  0  0  0  0  0  0  0  0  0
    7.1909  -14.4355   23.0897 N   0  0  0  0  0  0  0  0  0  0  0  0
    7.8138  -14.9955   21.9117 C   0  0  1  0  0  0  0  0  0  0  0  0
    7.7761  -14.0575   20.7355 C   0  0  0  0  0  0  0  0  0  0  0  0
    8.2801  -14.6555   19.4546 C   0  0  0  0  0  0  0  0  0  0  0  0
    8.0121  -13.7513   18.2760 C   0  0  0  0  0  0  0  0  0  0  0  0
    8.3389  -14.4686   16.9936 C   0  0  0  0  0  0  0  0  0  0  0  0
    7.9019  -13.6371   15.8710 N   0  0  0  0  0  0  0  0  0  0  0  0
    9.2496  -15.2055   22.2453 C   0  0  0  0  0  0  0  0  0  0  0  0
    9.9518  -14.3079   22.7793 O   0  0  0  0  0  0  0  0  0  0  0  0
   11.1306  -17.9001   24.3869 C   0  0  0  0  0  0  0  0  0  0  0  0
   11.5774  -17.9431   22.9411 C   0  0  1  0  0  0  0  0  0  0  0  0
   10.8194  -18.9088   22.2848 O   0  0  0  0  0  0  0  0  0  0  0  0
   11.3080  -16.6073   22.2520 C   0  0  2  0  0  0  0  0  0  0  0  0
    9.8962  -16.4404   21.9728 N   0  0  0  0  0  0  0  0  0  0  0  0
   12.1160  -16.5190   21.0256 C   0  0  0  0  0  0  0  0  0  0  0  0
   11.6163  -16.5063   19.8678 O   0  0  0  0  0  0  0  0  0  0  0  0
   13.4954  -16.4460   21.1455 O   0  0  0  0  0  0  0  0  0  0  0  0
  2  1  1  0
  3  2  1  0
  3  4  1  6
  5  3  1  0
  5  7  1  0
  5  6  1  1
  7  8  2  0
  9 10  1  0
  9  7  1  0
 11 12  1  0
 10 11  1  6
 12 13  1  0
 13 14  1  0
 14 15  1  0
 16 10  1  0
 17 16  2  0
 19 18  1  1
 19 21  1  0
 20 19  1  0
 21 22  1  6
 21 23  1  0
 22 16  1  0
 23 25  1  0
 24 23  2  0
M  END
$$$$
