IKT.pdb
     RDKit          3D

 25 24  0  0  1  0  0  0  0  0999 V2000
    6.7358  -11.4276   27.8792 C   0  0  0  0  0  0  0  0  0  0  0  0
    6.0887  -12.5816   27.1695 C   0  0  0  0  0  0  0  0  0  0  0  0
    6.9636  -13.3389   26.2377 C   0  0  2  0  0  0  0  0  0  0  0  0
    7.8031  -12.4148   25.3755 C   0  0  0  0  0  0  0  0  0  0  0  0
    6.3991  -14.4812   25.4949 C   0  0  2  0  0  0  0  0  0  0  0  0
    5.9937  -15.4627   26.5139 N   0  0  0  0  0  0  0  0  0  0  0  0
    7.1875  -15.0935   24.4379 C   0  0  0  0  0  0  0  0  0  0  0  0
    7.8648  -16.1442   24.5842 O   0  0  0  0  0  0  0  0  0  0  0  0
    7.2762  -14.5545   23.0981 N   0  0  0  0  0  0  0  0  0  0  0  0
    7.9334  -15.2575   22.0197 C   0  0  1  0  0  0  0  0  0  0  0  0
    7.9989  -14.4455   20.7544 C   0  0  0  0  0  0  0  0  0  0  0  0
    8.7101  -15.1267   19.6218 C   0  0  0  0  0  0  0  0  0  0  0  0
    7.9556  -16.3435   19.1435 C   0  0  0  0  0  0  0  0  0  0  0  0
    8.7068  -17.0043   18.0189 C   0  0  0  0  0  0  0  0  0  0  0  0
    7.9626  -18.1921   17.5971 N   0  0  0  0  0  0  0  0  0  0  0  0
    9.3391  -15.4883   22.4530 C   0  0  0  0  0  0  0  0  0  0  0  0
   10.1076  -14.5424   22.7669 O   0  0  0  0  0  0  0  0  0  0  0  0
   10.8681  -18.0556   25.1380 C   0  0  0  0  0  0  0  0  0  0  0  0
   11.4293  -18.2634   23.7474 C   0  0  1  0  0  0  0  0  0  0  0  0
   10.6928  -19.2718   23.1323 O   0  0  0  0  0  0  0  0  0  0  0  0
   11.2653  -17.0010   22.9040 C   0  0  2  0  0  0  0  0  0  0  0  0
    9.8798  -16.7994   22.5318 N   0  0  0  0  0  0  0  0  0  0  0  0
   12.1361  -17.0878   21.7211 C   0  0  0  0  0  0  0  0  0  0  0  0
   11.6955  -17.1378   20.5406 O   0  0  0  0  0  0  0  0  0  0  0  0
   13.5093  -17.1161   21.9107 O   0  0  0  0  0  0  0  0  0  0  0  0
  2  1  1  0
  3  2  1  0
  3  4  1  6
  5  3  1  0
  5  7  1  0
  5  6  1  1
  7  8  2  0
  9 10  1  0
  9  7  1  0
 11 12  1  0
 10 11  1  6
 12 13  1  0
 13 14  1  0
 14 15  1  0
 16 10  1  0
 17 16  2  0
 19 18  1  1
 19 21  1  0
 20 19  1  0
 21 22  1  6
 21 23  1  0
 22 16  1  0
 23 25  1  0
 24 23  2  0
M  END
$$$$
