IKT.pdb
     RDKit          3D

 25 24  0  0  1  0  0  0  0  0999 V2000
    5.7243  -11.3330   26.8320 C   0  0  0  0  0  0  0  0  0  0  0  0
    5.4807  -12.5952   26.0561 C   0  0  0  0  0  0  0  0  0  0  0  0
    6.6808  -13.4278   25.7847 C   0  0  2  0  0  0  0  0  0  0  0  0
    7.7918  -12.6220   25.1376 C   0  0  0  0  0  0  0  0  0  0  0  0
    6.5041  -14.7656   25.1894 C   0  0  2  0  0  0  0  0  0  0  0  0
    5.3955  -15.3912   25.9282 N   0  0  0  0  0  0  0  0  0  0  0  0
    7.6539  -15.6497   25.0888 C   0  0  0  0  0  0  0  0  0  0  0  0
    7.9591  -16.5081   25.9570 O   0  0  0  0  0  0  0  0  0  0  0  0
    8.5734  -15.6342   23.9718 N   0  0  0  0  0  0  0  0  0  0  0  0
    9.6594  -16.5796   23.8464 C   0  0  1  0  0  0  0  0  0  0  0  0
   10.3344  -16.5112   22.5031 C   0  0  0  0  0  0  0  0  0  0  0  0
   11.3697  -17.5745   22.2792 C   0  0  0  0  0  0  0  0  0  0  0  0
   11.9416  -17.5082   20.8839 C   0  0  0  0  0  0  0  0  0  0  0  0
   12.9434  -18.6142   20.6864 C   0  0  0  0  0  0  0  0  0  0  0  0
   13.3661  -18.6142   19.2850 N   0  0  0  0  0  0  0  0  0  0  0  0
   10.6814  -16.1945   24.8585 C   0  0  0  0  0  0  0  0  0  0  0  0
   11.6815  -15.4888   24.5662 O   0  0  0  0  0  0  0  0  0  0  0  0
   10.6874  -14.2193   28.0169 C   0  0  0  0  0  0  0  0  0  0  0  0
   11.1416  -15.6166   28.3816 C   0  0  1  0  0  0  0  0  0  0  0  0
   10.0386  -16.3158   28.8633 O   0  0  0  0  0  0  0  0  0  0  0  0
   11.6482  -16.3598   27.1476 C   0  0  2  0  0  0  0  0  0  0  0  0
   10.5710  -16.6111   26.2120 N   0  0  0  0  0  0  0  0  0  0  0  0
   12.3043  -17.6088   27.5652 C   0  0  0  0  0  0  0  0  0  0  0  0
   11.8741  -18.7529   27.2550 O   0  0  0  0  0  0  0  0  0  0  0  0
   13.4527  -17.5271   28.3379 O   0  0  0  0  0  0  0  0  0  0  0  0
  2  1  1  0
  3  2  1  0
  3  4  1  6
  5  3  1  0
  5  7  1  0
  5  6  1  1
  7  8  2  0
  9 10  1  0
  9  7  1  0
 11 12  1  0
 10 11  1  6
 12 13  1  0
 13 14  1  0
 14 15  1  0
 16 10  1  0
 17 16  2  0
 19 18  1  6
 19 21  1  0
 20 19  1  0
 21 22  1  6
 21 23  1  0
 22 16  1  0
 23 25  1  0
 24 23  2  0
M  END
$$$$
