IKT.pdb
     RDKit          3D

 25 24  0  0  1  0  0  0  0  0999 V2000
    5.8761  -11.0525   27.0730 C   0  0  0  0  0  0  0  0  0  0  0  0
    5.5367  -12.3167   26.3377 C   0  0  0  0  0  0  0  0  0  0  0  0
    6.6893  -13.1789   25.9700 C   0  0  2  0  0  0  0  0  0  0  0  0
    7.8445  -12.3685   25.4120 C   0  0  0  0  0  0  0  0  0  0  0  0
    6.4400  -14.4301   25.2300 C   0  0  2  0  0  0  0  0  0  0  0  0
    5.3469  -15.1088   25.9445 N   0  0  0  0  0  0  0  0  0  0  0  0
    7.5533  -15.3274   24.9671 C   0  0  0  0  0  0  0  0  0  0  0  0
    8.0460  -16.1067   25.8238 O   0  0  0  0  0  0  0  0  0  0  0  0
    8.2155  -15.4180   23.6839 N   0  0  0  0  0  0  0  0  0  0  0  0
    9.3200  -16.3182   23.4414 C   0  0  1  0  0  0  0  0  0  0  0  0
    9.8722  -16.1948   22.0470 C   0  0  0  0  0  0  0  0  0  0  0  0
    9.0340  -16.8558   20.9920 C   0  0  0  0  0  0  0  0  0  0  0  0
    8.7516  -18.2994   21.3303 C   0  0  0  0  0  0  0  0  0  0  0  0
    7.8929  -18.9191   20.2605 C   0  0  0  0  0  0  0  0  0  0  0  0
    7.6145  -20.3070   20.6333 N   0  0  0  0  0  0  0  0  0  0  0  0
   10.4118  -15.9165   24.3708 C   0  0  0  0  0  0  0  0  0  0  0  0
   11.2422  -15.0168   24.0801 O   0  0  0  0  0  0  0  0  0  0  0  0
   10.4912  -14.2556   27.6176 C   0  0  0  0  0  0  0  0  0  0  0  0
   11.1498  -15.6019   27.8310 C   0  0  1  0  0  0  0  0  0  0  0  0
   10.1845  -16.4818   28.3124 O   0  0  0  0  0  0  0  0  0  0  0  0
   11.6632  -16.1682   26.5091 C   0  0  2  0  0  0  0  0  0  0  0  0
   10.5653  -16.5375   25.6390 N   0  0  0  0  0  0  0  0  0  0  0  0
   12.5478  -17.3126   26.7792 C   0  0  0  0  0  0  0  0  0  0  0  0
   12.2874  -18.4899   26.4098 O   0  0  0  0  0  0  0  0  0  0  0  0
   13.7266  -17.0886   27.4739 O   0  0  0  0  0  0  0  0  0  0  0  0
  2  1  1  0
  3  2  1  0
  3  4  1  6
  5  3  1  0
  5  7  1  0
  5  6  1  1
  7  8  2  0
  9 10  1  0
  9  7  1  0
 11 12  1  0
 10 11  1  6
 12 13  1  0
 13 14  1  0
 14 15  1  0
 16 10  1  0
 17 16  2  0
 19 18  1  6
 19 21  1  0
 20 19  1  0
 21 22  1  6
 21 23  1  0
 22 16  1  0
 23 25  1  0
 24 23  2  0
M  END
$$$$
