IKT.pdb
     RDKit          3D

 25 24  0  0  1  0  0  0  0  0999 V2000
    5.8625  -10.9948   26.9097 C   0  0  0  0  0  0  0  0  0  0  0  0
    5.4854  -12.3084   26.2881 C   0  0  0  0  0  0  0  0  0  0  0  0
    6.6168  -13.2050   25.9373 C   0  0  2  0  0  0  0  0  0  0  0  0
    7.7533  -12.4470   25.2769 C   0  0  0  0  0  0  0  0  0  0  0  0
    6.3300  -14.5035   25.2994 C   0  0  2  0  0  0  0  0  0  0  0  0
    5.3173  -15.1530   26.1473 N   0  0  0  0  0  0  0  0  0  0  0  0
    7.4346  -15.3984   24.9946 C   0  0  0  0  0  0  0  0  0  0  0  0
    7.8476  -16.2966   25.7735 O   0  0  0  0  0  0  0  0  0  0  0  0
    8.1793  -15.3487   23.7551 N   0  0  0  0  0  0  0  0  0  0  0  0
    9.2556  -16.2666   23.4581 C   0  0  1  0  0  0  0  0  0  0  0  0
    9.7449  -16.1456   22.0402 C   0  0  0  0  0  0  0  0  0  0  0  0
    8.8151  -16.7279   21.0160 C   0  0  0  0  0  0  0  0  0  0  0  0
    9.3561  -16.5626   19.6166 C   0  0  0  0  0  0  0  0  0  0  0  0
    8.3966  -17.1582   18.6214 C   0  0  0  0  0  0  0  0  0  0  0  0
    8.9922  -17.0647   17.2875 N   0  0  0  0  0  0  0  0  0  0  0  0
   10.3959  -15.8884   24.3377 C   0  0  0  0  0  0  0  0  0  0  0  0
   11.1924  -14.9605   24.0407 O   0  0  0  0  0  0  0  0  0  0  0  0
   10.4442  -14.3196   27.5608 C   0  0  0  0  0  0  0  0  0  0  0  0
   11.1890  -15.6224   27.7604 C   0  0  1  0  0  0  0  0  0  0  0  0
   10.2870  -16.5633   28.2492 O   0  0  0  0  0  0  0  0  0  0  0  0
   11.7210  -16.1503   26.4299 C   0  0  2  0  0  0  0  0  0  0  0  0
   10.6370  -16.5652   25.5630 N   0  0  0  0  0  0  0  0  0  0  0  0
   12.6628  -17.2519   26.6835 C   0  0  0  0  0  0  0  0  0  0  0  0
   13.7272  -17.1130   27.3453 O   0  0  0  0  0  0  0  0  0  0  0  0
   12.3682  -18.5060   26.1707 O   0  0  0  0  0  0  0  0  0  0  0  0
  2  1  1  0
  3  2  1  0
  3  4  1  6
  5  3  1  0
  5  7  1  0
  5  6  1  1
  7  8  2  0
  9 10  1  0
  9  7  1  0
 11 12  1  0
 10 11  1  6
 12 13  1  0
 13 14  1  0
 14 15  1  0
 16 10  1  0
 17 16  2  0
 19 18  1  6
 19 21  1  0
 20 19  1  0
 21 22  1  6
 21 23  1  0
 22 16  1  0
 23 25  1  0
 24 23  2  0
M  END
$$$$
