IKT.pdb
     RDKit          3D

 25 24  0  0  1  0  0  0  0  0999 V2000
    6.8381  -12.2202   28.2262 C   0  0  0  0  0  0  0  0  0  0  0  0
    6.1704  -13.1848   27.2893 C   0  0  0  0  0  0  0  0  0  0  0  0
    6.9970  -13.6517   26.1465 C   0  0  2  0  0  0  0  0  0  0  0  0
    7.7490  -12.5088   25.4902 C   0  0  0  0  0  0  0  0  0  0  0  0
    6.4118  -14.5995   25.1798 C   0  0  2  0  0  0  0  0  0  0  0  0
    6.1060  -15.8181   25.9465 N   0  0  0  0  0  0  0  0  0  0  0  0
    7.1392  -14.8983   23.9570 C   0  0  0  0  0  0  0  0  0  0  0  0
    7.9237  -15.8736   23.8257 O   0  0  0  0  0  0  0  0  0  0  0  0
    7.0360  -14.0992   22.7552 N   0  0  0  0  0  0  0  0  0  0  0  0
    7.7266  -14.4421   21.5326 C   0  0  1  0  0  0  0  0  0  0  0  0
    7.8988  -13.2623   20.6145 C   0  0  0  0  0  0  0  0  0  0  0  0
    8.6788  -13.5610   19.3676 C   0  0  0  0  0  0  0  0  0  0  0  0
    7.8436  -14.3062   18.3548 C   0  0  0  0  0  0  0  0  0  0  0  0
    8.6883  -14.6764   17.1652 C   0  0  0  0  0  0  0  0  0  0  0  0
    7.8798  -15.4898   16.2556 N   0  0  0  0  0  0  0  0  0  0  0  0
    9.0940  -14.8837   21.9226 C   0  0  0  0  0  0  0  0  0  0  0  0
    9.8699  -14.1514   22.5901 O   0  0  0  0  0  0  0  0  0  0  0  0
   10.5856  -17.9550   23.8521 C   0  0  0  0  0  0  0  0  0  0  0  0
   11.0507  -17.9377   22.4116 C   0  0  1  0  0  0  0  0  0  0  0  0
   10.1912  -18.7451   21.6720 O   0  0  0  0  0  0  0  0  0  0  0  0
   10.9623  -16.5278   21.8317 C   0  0  2  0  0  0  0  0  0  0  0  0
    9.5878  -16.1637   21.5546 N   0  0  0  0  0  0  0  0  0  0  0  0
   11.7983  -16.4435   20.6239 C   0  0  0  0  0  0  0  0  0  0  0  0
   11.3265  -16.2695   19.4674 O   0  0  0  0  0  0  0  0  0  0  0  0
   13.1731  -16.5609   20.7607 O   0  0  0  0  0  0  0  0  0  0  0  0
  2  1  1  0
  3  2  1  0
  3  4  1  6
  5  3  1  0
  5  7  1  0
  5  6  1  1
  7  8  2  0
  9 10  1  0
  9  7  1  0
 11 12  1  0
 10 11  1  6
 12 13  1  0
 13 14  1  0
 14 15  1  0
 16 10  1  0
 17 16  2  0
 19 18  1  1
 19 21  1  0
 20 19  1  0
 21 22  1  6
 21 23  1  0
 22 16  1  0
 23 25  1  0
 24 23  2  0
M  END
$$$$
