IKT.pdb
     RDKit          3D

 25 24  0  0  1  0  0  0  0  0999 V2000
    5.9119  -10.7969   26.7749 C   0  0  0  0  0  0  0  0  0  0  0  0
    5.4894  -12.1201   26.2049 C   0  0  0  0  0  0  0  0  0  0  0  0
    6.5854  -13.0857   25.9337 C   0  0  2  0  0  0  0  0  0  0  0  0
    7.7870  -12.4111   25.2984 C   0  0  0  0  0  0  0  0  0  0  0  0
    6.2572  -14.3895   25.3276 C   0  0  2  0  0  0  0  0  0  0  0  0
    5.0891  -14.8941   26.0674 N   0  0  0  0  0  0  0  0  0  0  0  0
    7.3001  -15.3958   25.2122 C   0  0  0  0  0  0  0  0  0  0  0  0
    7.6343  -16.1726   26.1443 O   0  0  0  0  0  0  0  0  0  0  0  0
    8.0680  -15.6102   24.0048 N   0  0  0  0  0  0  0  0  0  0  0  0
    9.0906  -16.6267   23.9046 C   0  0  1  0  0  0  0  0  0  0  0  0
    9.6432  -16.7566   22.5109 C   0  0  0  0  0  0  0  0  0  0  0  0
   10.7020  -17.8101   22.3640 C   0  0  0  0  0  0  0  0  0  0  0  0
   11.1324  -17.9686   20.9259 C   0  0  0  0  0  0  0  0  0  0  0  0
   12.1870  -19.0375   20.8203 C   0  0  0  0  0  0  0  0  0  0  0  0
   12.5926  -19.1540   19.4186 N   0  0  0  0  0  0  0  0  0  0  0  0
   10.2179  -16.1871   24.7724 C   0  0  0  0  0  0  0  0  0  0  0  0
   11.0725  -15.3477   24.3869 O   0  0  0  0  0  0  0  0  0  0  0  0
   10.2553  -14.4700   28.0820 C   0  0  0  0  0  0  0  0  0  0  0  0
   11.0348  -15.7562   28.2544 C   0  0  1  0  0  0  0  0  0  0  0  0
   10.1791  -16.7080   28.8019 O   0  0  0  0  0  0  0  0  0  0  0  0
   11.5036  -16.2897   26.9026 C   0  0  2  0  0  0  0  0  0  0  0  0
   10.3796  -16.7012   26.0866 N   0  0  0  0  0  0  0  0  0  0  0  0
   12.4506  -17.3954   27.1161 C   0  0  0  0  0  0  0  0  0  0  0  0
   12.2523  -18.5667   26.6930 O   0  0  0  0  0  0  0  0  0  0  0  0
   13.6195  -17.1400   27.8167 O   0  0  0  0  0  0  0  0  0  0  0  0
  2  1  1  0
  3  2  1  0
  3  4  1  6
  5  3  1  0
  5  7  1  0
  5  6  1  1
  7  8  2  0
  9 10  1  0
  9  7  1  0
 11 12  1  0
 10 11  1  6
 12 13  1  0
 13 14  1  0
 14 15  1  0
 16 10  1  0
 17 16  2  0
 19 18  1  6
 19 21  1  0
 20 19  1  0
 21 22  1  6
 21 23  1  0
 22 16  1  0
 23 25  1  0
 24 23  2  0
M  END
$$$$
