RKC.pdb
     RDKit          3D

 27 26  0  0  1  0  0  0  0  0999 V2000
    8.4284  -12.1424   19.6299 N   0  0  0  0  0  0  0  0  0  0  0  0
    8.9807  -11.9067   18.3485 C   0  0  0  0  0  0  0  0  0  0  0  0
    9.9680  -11.1043   18.1602 N   0  0  0  0  0  0  0  0  0  0  0  0
    8.4167  -12.5879   17.2282 N   0  0  0  0  0  0  0  0  0  0  0  0
    7.1829  -13.3270   17.4061 C   0  0  0  0  0  0  0  0  0  0  0  0
    7.4440  -14.7727   17.1413 C   0  0  0  0  0  0  0  0  0  0  0  0
    8.6926  -15.2238   17.8339 C   0  0  0  0  0  0  0  0  0  0  0  0
    9.0936  -16.6298   17.5185 C   0  0  2  0  0  0  0  0  0  0  0  0
    8.0854  -17.3449   16.7693 N   0  0  0  0  0  0  0  0  0  0  0  0
    9.4201  -17.3056   18.7989 C   0  0  0  0  0  0  0  0  0  0  0  0
    8.4612  -17.6583   19.5305 O   0  0  0  0  0  0  0  0  0  0  0  0
   10.3206  -10.9078   17.2052 N   0  0  0  0  0  0  0  0  0  0  0  0
   10.7409  -17.5727   19.2378 C   0  0  2  0  0  0  0  0  0  0  0  0
   10.9781  -18.3098   20.4804 C   0  0  0  0  0  0  0  0  0  0  0  0
   12.0241  -19.3761   20.2542 C   0  0  0  0  0  0  0  0  0  0  0  0
   11.5492  -20.4701   19.3661 C   0  0  0  0  0  0  0  0  0  0  0  0
   12.6281  -21.4748   19.0503 C   0  0  0  0  0  0  0  0  0  0  0  0
   12.1788  -22.4946   18.0535 N   0  0  0  0  0  0  0  0  0  0  0  0
   13.2065  -23.4036   17.6451 C   0  0  0  0  0  0  0  0  0  0  0  0
   11.3008  -17.3789   21.5858 O   0  0  0  0  0  0  0  0  0  0  0  0
   12.1387  -16.4613   21.4193 N   0  0  0  0  0  0  0  0  0  0  0  0
   10.6730  -17.4976   22.8625 C   0  0  1  0  0  0  0  0  0  0  0  0
   11.1897  -16.7471   23.9637 C   0  0  0  0  0  0  0  0  0  0  0  0
   10.2473  -16.7062   25.1443 S   0  0  0  0  0  0  0  0  0  0  0  0
    8.7702  -15.7842   24.6105 C   0  0  0  0  0  0  0  0  0  0  0  0
   12.4848  -17.3175   24.4019 O   0  0  0  0  0  0  0  0  0  0  0  0
   13.0087  -18.3216   23.8562 O   0  0  0  0  0  0  0  0  0  0  0  0
  2  3  2  0
  2  1  1  0
  4  2  1  0
  5  4  1  0
  6  5  1  0
  7  6  1  0
  8  9  1  1
  8  7  1  0
 10 12  1  0
 10  8  1  0
 11 10  2  0
 13 12  1  0
 13 14  1  6
 14 15  1  0
 15 16  1  0
 16 17  1  0
 17 18  1  0
 19 13  1  0
 20 19  2  0
 21 19  1  0
 22 25  1  0
 22 21  1  0
 23 24  1  0
 22 23  1  1
 25 27  1  0
 26 25  2  0
M  END
$$$$
