RKC.pdb
     RDKit          3D

 27 26  0  0  1  0  0  0  0  0999 V2000
    8.7463  -11.2995   18.8383 N   0  0  0  0  0  0  0  0  0  0  0  0
    8.0428  -12.4436   19.2841 C   0  0  0  0  0  0  0  0  0  0  0  0
    7.1313  -13.0115   18.5766 N   0  0  0  0  0  0  0  0  0  0  0  0
    8.3615  -12.9819   20.5670 N   0  0  0  0  0  0  0  0  0  0  0  0
    7.6344  -14.1428   21.0401 C   0  0  0  0  0  0  0  0  0  0  0  0
    8.6070  -15.2395   21.3221 C   0  0  0  0  0  0  0  0  0  0  0  0
    8.0599  -16.5623   20.8825 C   0  0  0  0  0  0  0  0  0  0  0  0
    8.9340  -17.7284   21.2188 C   0  0  2  0  0  0  0  0  0  0  0  0
    8.4016  -18.9839   20.7398 N   0  0  0  0  0  0  0  0  0  0  0  0
    9.1359  -17.7337   22.6893 C   0  0  0  0  0  0  0  0  0  0  0  0
    8.1365  -17.9749   23.4118 O   0  0  0  0  0  0  0  0  0  0  0  0
    6.6597  -13.8736   18.9071 N   0  0  0  0  0  0  0  0  0  0  0  0
   10.3816  -17.4842   23.3174 C   0  0  1  0  0  0  0  0  0  0  0  0
   10.5208  -17.6055   24.7698 C   0  0  0  0  0  0  0  0  0  0  0  0
   11.5775  -18.6331   25.1011 C   0  0  0  0  0  0  0  0  0  0  0  0
   11.1488  -20.0221   24.7878 C   0  0  0  0  0  0  0  0  0  0  0  0
   12.2144  -21.0441   25.0931 C   0  0  0  0  0  0  0  0  0  0  0  0
   11.7925  -22.4304   24.7246 N   0  0  0  0  0  0  0  0  0  0  0  0
   12.7727  -23.4339   25.0098 C   0  0  0  0  0  0  0  0  0  0  0  0
   10.7615  -16.2795   25.3834 O   0  0  0  0  0  0  0  0  0  0  0  0
   11.6804  -15.5402   24.9583 N   0  0  0  0  0  0  0  0  0  0  0  0
    9.9614  -15.8079   26.4677 C   0  0  1  0  0  0  0  0  0  0  0  0
   10.4095  -14.6805   27.2233 C   0  0  0  0  0  0  0  0  0  0  0  0
    9.4141  -13.5436   27.2340 S   0  0  0  0  0  0  0  0  0  0  0  0
    7.8066  -14.2523   27.7139 C   0  0  0  0  0  0  0  0  0  0  0  0
   10.6907  -15.0866   28.6200 O   0  0  0  0  0  0  0  0  0  0  0  0
   10.4329  -16.2345   29.0629 O   0  0  0  0  0  0  0  0  0  0  0  0
  2  3  2  0
  2  1  1  0
  4  2  1  0
  5  4  1  0
  6  5  1  0
  7  6  1  0
  8  9  1  1
  8  7  1  0
 10 12  1  0
 10  8  1  0
 11 10  2  0
 13 12  1  0
 13 14  1  1
 14 15  1  0
 15 16  1  0
 16 17  1  0
 17 18  1  0
 19 13  1  0
 20 19  2  0
 21 19  1  0
 22 25  1  0
 22 21  1  0
 23 24  1  0
 22 23  1  1
 25 27  1  0
 26 25  2  0
M  END
$$$$
