RKC.pdb
     RDKit          3D

 27 26  0  0  1  0  0  0  0  0999 V2000
    8.3830  -13.1516   17.9383 N   0  0  0  0  0  0  0  0  0  0  0  0
    9.1263  -12.8245   19.0973 C   0  0  0  0  0  0  0  0  0  0  0  0
    9.8766  -11.7821   19.1638 N   0  0  0  0  0  0  0  0  0  0  0  0
    9.0354  -13.6875   20.2306 N   0  0  0  0  0  0  0  0  0  0  0  0
    8.3899  -14.9762   20.0798 C   0  0  0  0  0  0  0  0  0  0  0  0
    6.9680  -14.8580   20.5185 C   0  0  0  0  0  0  0  0  0  0  0  0
    6.2890  -16.1923   20.4887 C   0  0  0  0  0  0  0  0  0  0  0  0
    7.1649  -17.3339   20.8968 C   0  0  2  0  0  0  0  0  0  0  0  0
    6.6312  -18.6179   20.5022 N   0  0  0  0  0  0  0  0  0  0  0  0
    7.3721  -17.2438   22.3637 C   0  0  0  0  0  0  0  0  0  0  0  0
    6.3526  -17.2780   23.0975 O   0  0  0  0  0  0  0  0  0  0  0  0
   10.3773  -11.5406   20.0390 N   0  0  0  0  0  0  0  0  0  0  0  0
    8.6442  -17.1223   22.9767 C   0  0  2  0  0  0  0  0  0  0  0  0
    8.7648  -17.0509   24.4340 C   0  0  0  0  0  0  0  0  0  0  0  0
   10.0026  -17.7908   24.8844 C   0  0  0  0  0  0  0  0  0  0  0  0
    9.9307  -18.2224   26.3056 C   0  0  0  0  0  0  0  0  0  0  0  0
   11.1919  -18.9042   26.7725 C   0  0  0  0  0  0  0  0  0  0  0  0
   11.1177  -19.3108   28.2094 N   0  0  0  0  0  0  0  0  0  0  0  0
   12.2723  -20.0166   28.6763 C   0  0  0  0  0  0  0  0  0  0  0  0
    8.7069  -15.6446   24.8941 O   0  0  0  0  0  0  0  0  0  0  0  0
    9.5489  -14.8086   24.4890 N   0  0  0  0  0  0  0  0  0  0  0  0
    7.6997  -15.2030   25.8043 C   0  0  1  0  0  0  0  0  0  0  0  0
    7.7616  -13.8700   26.3164 C   0  0  0  0  0  0  0  0  0  0  0  0
    6.3996  -13.2909   26.6217 S   0  0  0  0  0  0  0  0  0  0  0  0
    6.6750  -11.6355   27.3290 C   0  0  0  0  0  0  0  0  0  0  0  0
    8.5845  -13.8386   27.5480 O   0  0  0  0  0  0  0  0  0  0  0  0
    8.8054  -14.8590   28.2483 O   0  0  0  0  0  0  0  0  0  0  0  0
  2  3  2  0
  2  1  1  0
  4  2  1  0
  5  4  1  0
  6  5  1  0
  7  6  1  0
  8  9  1  1
  8  7  1  0
 10 12  1  0
 10  8  1  0
 11 10  2  0
 13 12  1  0
 13 14  1  6
 14 15  1  0
 15 16  1  0
 16 17  1  0
 17 18  1  0
 19 13  1  0
 20 19  2  0
 21 19  1  0
 22 25  1  0
 22 21  1  0
 23 24  1  0
 22 23  1  1
 25 27  1  0
 26 25  2  0
M  END
$$$$
