RKC.pdb
     RDKit          3D

 27 26  0  0  1  0  0  0  0  0999 V2000
    7.5157  -14.2352   15.6389 N   0  0  0  0  0  0  0  0  0  0  0  0
    8.1723  -13.5114   16.6624 C   0  0  0  0  0  0  0  0  0  0  0  0
    9.0131  -12.5712   16.4113 N   0  0  0  0  0  0  0  0  0  0  0  0
    7.8864  -13.8421   18.0211 N   0  0  0  0  0  0  0  0  0  0  0  0
    8.0390  -15.2163   18.4548 C   0  0  0  0  0  0  0  0  0  0  0  0
    6.9101  -15.5625   19.3680 C   0  0  0  0  0  0  0  0  0  0  0  0
    7.2599  -15.2483   20.7897 C   0  0  0  0  0  0  0  0  0  0  0  0
    8.6304  -15.6896   21.1947 C   0  0  2  0  0  0  0  0  0  0  0  0
    9.1426  -16.7573   20.3660 N   0  0  0  0  0  0  0  0  0  0  0  0
    8.5777  -16.0730   22.6276 C   0  0  0  0  0  0  0  0  0  0  0  0
    7.7855  -15.4397   23.3695 O   0  0  0  0  0  0  0  0  0  0  0  0
    9.5183  -12.0891   17.1776 N   0  0  0  0  0  0  0  0  0  0  0  0
    9.3638  -17.1041   23.1998 C   0  0  2  0  0  0  0  0  0  0  0  0
    9.3678  -17.3212   24.6477 C   0  0  0  0  0  0  0  0  0  0  0  0
    9.8715  -18.7113   24.9579 C   0  0  0  0  0  0  0  0  0  0  0  0
    9.9899  -18.9690   26.4176 C   0  0  0  0  0  0  0  0  0  0  0  0
   10.6227  -20.3025   26.7250 C   0  0  0  0  0  0  0  0  0  0  0  0
   10.7155  -20.5605   28.1948 N   0  0  0  0  0  0  0  0  0  0  0  0
   11.9516  -21.1538   28.6062 C   0  0  0  0  0  0  0  0  0  0  0  0
   10.1181  -16.2451   25.3345 O   0  0  0  0  0  0  0  0  0  0  0  0
   11.2811  -15.9501   24.9713 N   0  0  0  0  0  0  0  0  0  0  0  0
    9.5444  -15.5181   26.4211 C   0  0  1  0  0  0  0  0  0  0  0  0
   10.2968  -14.4648   27.0270 C   0  0  0  0  0  0  0  0  0  0  0  0
    9.6110  -13.1213   26.9356 S   0  0  0  0  0  0  0  0  0  0  0  0
    7.8470  -13.4026   27.2905 C   0  0  0  0  0  0  0  0  0  0  0  0
   10.5506  -14.7791   28.4523 O   0  0  0  0  0  0  0  0  0  0  0  0
   10.0846  -15.7990   29.0205 O   0  0  0  0  0  0  0  0  0  0  0  0
  2  3  2  0
  2  1  1  0
  4  2  1  0
  5  4  1  0
  6  5  1  0
  7  6  1  0
  8  9  1  6
  8  7  1  0
 10 12  1  0
 10  8  1  0
 11 10  2  0
 13 12  1  0
 13 14  1  6
 14 15  1  0
 15 16  1  0
 16 17  1  0
 17 18  1  0
 19 13  1  0
 20 19  2  0
 21 19  1  0
 22 25  1  0
 22 21  1  0
 23 24  1  0
 22 23  1  1
 25 27  1  0
 26 25  2  0
M  END
$$$$
