RKC.pdb
     RDKit          3D

 27 26  0  0  1  0  0  0  0  0999 V2000
   16.2520  -15.7485   19.5193 N   0  0  0  0  0  0  0  0  0  0  0  0
   15.2234  -15.0679   18.8255 C   0  0  0  0  0  0  0  0  0  0  0  0
   15.4679  -14.1836   17.9243 N   0  0  0  0  0  0  0  0  0  0  0  0
   13.8669  -15.3790   19.1424 N   0  0  0  0  0  0  0  0  0  0  0  0
   13.1091  -14.4546   19.9616 C   0  0  0  0  0  0  0  0  0  0  0  0
   12.0699  -13.7989   19.1141 C   0  0  0  0  0  0  0  0  0  0  0  0
   10.7108  -13.9529   19.7236 C   0  0  0  0  0  0  0  0  0  0  0  0
   10.1672  -15.3450   19.6633 C   0  0  2  0  0  0  0  0  0  0  0  0
    9.3338  -15.5710   18.5043 N   0  0  0  0  0  0  0  0  0  0  0  0
    9.4398  -15.6022   20.9312 C   0  0  0  0  0  0  0  0  0  0  0  0
    8.5239  -14.8023   21.2479 O   0  0  0  0  0  0  0  0  0  0  0  0
   14.6995  -13.6446   17.4838 N   0  0  0  0  0  0  0  0  0  0  0  0
    9.7184  -16.6898   21.7961 C   0  0  2  0  0  0  0  0  0  0  0  0
    8.8708  -16.9511   22.9610 C   0  0  0  0  0  0  0  0  0  0  0  0
    9.0075  -18.3953   23.3829 C   0  0  0  0  0  0  0  0  0  0  0  0
    8.2603  -19.3275   22.4975 C   0  0  0  0  0  0  0  0  0  0  0  0
    8.5289  -20.7763   22.8168 C   0  0  0  0  0  0  0  0  0  0  0  0
    7.7450  -21.7038   21.9445 N   0  0  0  0  0  0  0  0  0  0  0  0
    7.9347  -23.0899   22.2477 C   0  0  0  0  0  0  0  0  0  0  0  0
    9.1572  -15.9813   24.0427 O   0  0  0  0  0  0  0  0  0  0  0  0
   10.3280  -15.5799   24.2423 N   0  0  0  0  0  0  0  0  0  0  0  0
    8.1180  -15.4792   24.8829 C   0  0  1  0  0  0  0  0  0  0  0  0
    8.4524  -14.5719   25.9354 C   0  0  0  0  0  0  0  0  0  0  0  0
    7.3105  -13.6558   26.3102 S   0  0  0  0  0  0  0  0  0  0  0  0
    7.8922  -12.6240   27.6936 C   0  0  0  0  0  0  0  0  0  0  0  0
    8.8782  -15.3259   27.1376 O   0  0  0  0  0  0  0  0  0  0  0  0
    8.4738  -16.4883   27.3937 O   0  0  0  0  0  0  0  0  0  0  0  0
  2  3  2  0
  2  1  1  0
  4  2  1  0
  5  4  1  0
  6  5  1  0
  7  6  1  0
  8  9  1  6
  8  7  1  0
 10 12  1  0
 10  8  1  0
 11 10  2  0
 13 12  1  0
 13 14  1  6
 14 15  1  0
 15 16  1  0
 16 17  1  0
 17 18  1  0
 19 13  1  0
 20 19  2  0
 21 19  1  0
 22 25  1  0
 22 21  1  0
 23 24  1  0
 22 23  1  1
 25 27  1  0
 26 25  2  0
M  END
$$$$
