RKC.pdb
     RDKit          3D

 27 26  0  0  1  0  0  0  0  0999 V2000
    8.7749  -12.4485   18.0068 N   0  0  0  0  0  0  0  0  0  0  0  0
    8.2408  -12.8377   19.2582 C   0  0  0  0  0  0  0  0  0  0  0  0
    8.6297  -12.3142   20.3666 N   0  0  0  0  0  0  0  0  0  0  0  0
    7.2339  -13.8489   19.2839 N   0  0  0  0  0  0  0  0  0  0  0  0
    7.6357  -15.2344   19.4220 C   0  0  0  0  0  0  0  0  0  0  0  0
    7.8462  -15.5339   20.8691 C   0  0  0  0  0  0  0  0  0  0  0  0
    8.9149  -16.5672   21.0490 C   0  0  0  0  0  0  0  0  0  0  0  0
    8.4546  -17.8092   21.7437 C   0  0  2  0  0  0  0  0  0  0  0  0
    7.1378  -18.2310   21.3228 N   0  0  0  0  0  0  0  0  0  0  0  0
    8.5191  -17.5607   23.2056 C   0  0  0  0  0  0  0  0  0  0  0  0
    7.4412  -17.3074   23.7997 O   0  0  0  0  0  0  0  0  0  0  0  0
    8.1970  -12.5903   21.2674 N   0  0  0  0  0  0  0  0  0  0  0  0
    9.7178  -17.5930   23.9611 C   0  0  2  0  0  0  0  0  0  0  0  0
    9.6893  -17.3970   25.4117 C   0  0  0  0  0  0  0  0  0  0  0  0
   10.8008  -18.1889   26.0596 C   0  0  0  0  0  0  0  0  0  0  0  0
   10.7694  -18.1174   27.5445 C   0  0  0  0  0  0  0  0  0  0  0  0
   11.9334  -18.8282   28.1873 C   0  0  0  0  0  0  0  0  0  0  0  0
   11.8402  -18.8337   29.6796 N   0  0  0  0  0  0  0  0  0  0  0  0
   12.9605  -19.4409   30.3319 C   0  0  0  0  0  0  0  0  0  0  0  0
    9.7095  -15.9541   25.7438 O   0  0  0  0  0  0  0  0  0  0  0  0
   10.5799  -15.2003   25.2478 N   0  0  0  0  0  0  0  0  0  0  0  0
    8.7471  -15.3836   26.6307 C   0  0  1  0  0  0  0  0  0  0  0  0
    8.8250  -13.9899   26.9377 C   0  0  0  0  0  0  0  0  0  0  0  0
    7.4745  -13.3691   27.2104 S   0  0  0  0  0  0  0  0  0  0  0  0
    6.4735  -13.5981   25.7064 C   0  0  0  0  0  0  0  0  0  0  0  0
    9.6979  -13.7791   28.1160 O   0  0  0  0  0  0  0  0  0  0  0  0
   10.2081  -14.7261   28.7665 O   0  0  0  0  0  0  0  0  0  0  0  0
  2  3  2  0
  2  1  1  0
  4  2  1  0
  5  4  1  0
  6  5  1  0
  7  6  1  0
  8  9  1  6
  8  7  1  0
 10 12  1  0
 10  8  1  0
 11 10  2  0
 13 12  1  0
 13 14  1  6
 14 15  1  0
 15 16  1  0
 16 17  1  0
 17 18  1  0
 19 13  1  0
 20 19  2  0
 21 19  1  0
 22 25  1  0
 22 21  1  0
 23 24  1  0
 22 23  1  1
 25 27  1  0
 26 25  2  0
M  END
$$$$
