RKC.pdb
     RDKit          3D

 27 26  0  0  1  0  0  0  0  0999 V2000
    9.5169  -17.1130   15.0567 N   0  0  0  0  0  0  0  0  0  0  0  0
    8.1679  -17.1178   14.6290 C   0  0  0  0  0  0  0  0  0  0  0  0
    7.8372  -17.2401   13.3922 N   0  0  0  0  0  0  0  0  0  0  0  0
    7.1416  -16.9814   15.6116 N   0  0  0  0  0  0  0  0  0  0  0  0
    7.5177  -16.7080   16.9841 C   0  0  0  0  0  0  0  0  0  0  0  0
    8.5437  -15.6239   16.9966 C   0  0  0  0  0  0  0  0  0  0  0  0
    8.9270  -15.2698   18.4002 C   0  0  0  0  0  0  0  0  0  0  0  0
    8.1000  -14.1795   19.0039 C   0  0  2  0  0  0  0  0  0  0  0  0
    8.2224  -12.9259   18.2948 N   0  0  0  0  0  0  0  0  0  0  0  0
    8.4896  -14.0528   20.4305 C   0  0  0  0  0  0  0  0  0  0  0  0
    9.6959  -13.8081   20.6836 O   0  0  0  0  0  0  0  0  0  0  0  0
    6.8414  -17.2359   13.1038 N   0  0  0  0  0  0  0  0  0  0  0  0
    7.5849  -14.1913   21.5125 C   0  0  2  0  0  0  0  0  0  0  0  0
    8.0347  -13.9851   22.8905 C   0  0  0  0  0  0  0  0  0  0  0  0
    6.9173  -13.3863   23.7121 C   0  0  0  0  0  0  0  0  0  0  0  0
    7.3227  -13.0994   25.1138 C   0  0  0  0  0  0  0  0  0  0  0  0
    6.2037  -12.5117   25.9358 C   0  0  0  0  0  0  0  0  0  0  0  0
    6.6629  -12.0792   27.2914 N   0  0  0  0  0  0  0  0  0  0  0  0
    5.6704  -11.3768   28.0470 C   0  0  0  0  0  0  0  0  0  0  0  0
    8.5858  -15.2393   23.4526 O   0  0  0  0  0  0  0  0  0  0  0  0
    7.9871  -16.3279   23.2840 N   0  0  0  0  0  0  0  0  0  0  0  0
    9.8043  -15.2461   24.1966 C   0  0  1  0  0  0  0  0  0  0  0  0
   10.2821  -16.4801   24.7366 C   0  0  0  0  0  0  0  0  0  0  0  0
   11.7708  -16.6665   24.5559 S   0  0  0  0  0  0  0  0  0  0  0  0
   12.0794  -16.7530   22.7631 C   0  0  0  0  0  0  0  0  0  0  0  0
    9.9594  -16.5597   26.1803 O   0  0  0  0  0  0  0  0  0  0  0  0
    9.3273  -15.6600   26.7896 O   0  0  0  0  0  0  0  0  0  0  0  0
  2  3  2  0
  2  1  1  0
  4  2  1  0
  5  4  1  0
  6  5  1  0
  7  6  1  0
  8  9  1  6
  8  7  1  0
 10 12  1  0
 10  8  1  0
 11 10  2  0
 13 12  1  0
 13 14  1  6
 14 15  1  0
 15 16  1  0
 16 17  1  0
 17 18  1  0
 19 13  1  0
 20 19  2  0
 21 19  1  0
 22 25  1  0
 22 21  1  0
 23 24  1  0
 22 23  1  1
 25 27  1  0
 26 25  2  0
M  END
$$$$
