RKC.pdb
     RDKit          3D

 27 26  0  0  1  0  0  0  0  0999 V2000
    8.9785  -16.5959   13.9979 N   0  0  0  0  0  0  0  0  0  0  0  0
   10.3019  -16.6289   14.4984 C   0  0  0  0  0  0  0  0  0  0  0  0
   11.2550  -17.2389   13.8873 N   0  0  0  0  0  0  0  0  0  0  0  0
   10.5821  -15.9586   15.7269 N   0  0  0  0  0  0  0  0  0  0  0  0
    9.6097  -16.0256   16.7993 C   0  0  0  0  0  0  0  0  0  0  0  0
    8.6340  -14.9076   16.6366 C   0  0  0  0  0  0  0  0  0  0  0  0
    7.5812  -14.9608   17.7000 C   0  0  0  0  0  0  0  0  0  0  0  0
    7.5668  -13.7717   18.6072 C   0  0  2  0  0  0  0  0  0  0  0  0
    7.8767  -12.5389   17.9192 N   0  0  0  0  0  0  0  0  0  0  0  0
    8.5104  -14.0404   19.7209 C   0  0  0  0  0  0  0  0  0  0  0  0
    9.6396  -13.4913   19.6707 O   0  0  0  0  0  0  0  0  0  0  0  0
   12.2126  -17.2640   14.2840 N   0  0  0  0  0  0  0  0  0  0  0  0
    8.2111  -14.8741   20.8272 C   0  0  2  0  0  0  0  0  0  0  0  0
    9.1561  -15.0059   21.9377 C   0  0  0  0  0  0  0  0  0  0  0  0
    8.4832  -15.6842   23.1079 C   0  0  0  0  0  0  0  0  0  0  0  0
    9.3846  -15.8393   24.2803 C   0  0  0  0  0  0  0  0  0  0  0  0
    8.6954  -16.4631   25.4674 C   0  0  0  0  0  0  0  0  0  0  0  0
    9.6159  -16.6306   26.6337 N   0  0  0  0  0  0  0  0  0  0  0  0
    8.9798  -17.1410   27.8102 C   0  0  0  0  0  0  0  0  0  0  0  0
   10.3977  -15.6767   21.4894 O   0  0  0  0  0  0  0  0  0  0  0  0
   10.3416  -16.7035   20.7724 N   0  0  0  0  0  0  0  0  0  0  0  0
   11.6841  -15.1785   21.8572 C   0  0  1  0  0  0  0  0  0  0  0  0
   12.8521  -15.8322   21.3559 C   0  0  0  0  0  0  0  0  0  0  0  0
   13.9058  -14.8655   20.8672 S   0  0  0  0  0  0  0  0  0  0  0  0
   13.0915  -13.7519   19.6782 C   0  0  0  0  0  0  0  0  0  0  0  0
   13.4408  -16.6938   22.4076 O   0  0  0  0  0  0  0  0  0  0  0  0
   12.9256  -16.8311   23.5459 O   0  0  0  0  0  0  0  0  0  0  0  0
  2  3  2  0
  2  1  1  0
  4  2  1  0
  5  4  1  0
  6  5  1  0
  7  6  1  0
  8  9  1  6
  8  7  1  0
 10 12  1  0
 10  8  1  0
 11 10  2  0
 13 12  1  0
 13 14  1  6
 14 15  1  0
 15 16  1  0
 16 17  1  0
 17 18  1  0
 19 13  1  0
 20 19  2  0
 21 19  1  0
 22 25  1  0
 22 21  1  0
 23 24  1  0
 22 23  1  1
 25 27  1  0
 26 25  2  0
M  END
$$$$
