RKC.pdb
     RDKit          3D

 27 26  0  0  1  0  0  0  0  0999 V2000
    9.2734  -14.2280   18.3181 N   0  0  0  0  0  0  0  0  0  0  0  0
    8.4382  -13.1994   18.8153 C   0  0  0  0  0  0  0  0  0  0  0  0
    8.8084  -11.9683   18.8524 N   0  0  0  0  0  0  0  0  0  0  0  0
    7.1386  -13.5479   19.2914 N   0  0  0  0  0  0  0  0  0  0  0  0
    7.0211  -14.5218   20.3581 C   0  0  0  0  0  0  0  0  0  0  0  0
    7.6260  -15.8091   19.9052 C   0  0  0  0  0  0  0  0  0  0  0  0
    8.2147  -16.5566   21.0614 C   0  0  0  0  0  0  0  0  0  0  0  0
    7.2633  -17.4970   21.7304 C   0  0  2  0  0  0  0  0  0  0  0  0
    5.9000  -17.3280   21.2811 N   0  0  0  0  0  0  0  0  0  0  0  0
    7.3942  -17.3065   23.1966 C   0  0  0  0  0  0  0  0  0  0  0  0
    6.4973  -16.6465   23.7789 O   0  0  0  0  0  0  0  0  0  0  0  0
    8.1752  -11.2319   19.2152 N   0  0  0  0  0  0  0  0  0  0  0  0
    8.4646  -17.8229   23.9687 C   0  0  2  0  0  0  0  0  0  0  0  0
    8.5786  -17.5016   25.3925 C   0  0  0  0  0  0  0  0  0  0  0  0
    9.2616  -18.6345   26.1223 C   0  0  0  0  0  0  0  0  0  0  0  0
    9.4887  -18.3387   27.5618 C   0  0  0  0  0  0  0  0  0  0  0  0
   10.2574  -19.4276   28.2666 C   0  0  0  0  0  0  0  0  0  0  0  0
   10.4721  -19.1234   29.7147 N   0  0  0  0  0  0  0  0  0  0  0  0
   11.2408  -20.1106   30.4104 C   0  0  0  0  0  0  0  0  0  0  0  0
    9.2339  -16.1870   25.5799 O   0  0  0  0  0  0  0  0  0  0  0  0
   10.3970  -15.9907   25.1551 N   0  0  0  0  0  0  0  0  0  0  0  0
    8.5667  -15.1137   26.2440 C   0  0  1  0  0  0  0  0  0  0  0  0
    9.2789  -13.8995   26.4916 C   0  0  0  0  0  0  0  0  0  0  0  0
    8.4586  -12.6641   26.2010 S   0  0  0  0  0  0  0  0  0  0  0  0
    6.7757  -12.9897   26.8163 C   0  0  0  0  0  0  0  0  0  0  0  0
    9.7304  -13.8561   27.9020 O   0  0  0  0  0  0  0  0  0  0  0  0
    9.4021  -14.7226   28.7514 O   0  0  0  0  0  0  0  0  0  0  0  0
  2  3  2  0
  2  1  1  0
  4  2  1  0
  5  4  1  0
  6  5  1  0
  7  6  1  0
  8  9  1  6
  8  7  1  0
 10 12  1  0
 10  8  1  0
 11 10  2  0
 13 12  1  0
 13 14  1  6
 14 15  1  0
 15 16  1  0
 16 17  1  0
 17 18  1  0
 19 13  1  0
 20 19  2  0
 21 19  1  0
 22 25  1  0
 22 21  1  0
 23 24  1  0
 22 23  1  1
 25 27  1  0
 26 25  2  0
M  END
$$$$
