RKC.pdb
     RDKit          3D

 27 26  0  0  1  0  0  0  0  0999 V2000
   10.9640  -13.5413   18.1466 N   0  0  0  0  0  0  0  0  0  0  0  0
    9.8245  -13.7446   18.9610 C   0  0  0  0  0  0  0  0  0  0  0  0
    9.9045  -14.2261   20.1508 N   0  0  0  0  0  0  0  0  0  0  0  0
    8.5426  -13.4003   18.4364 N   0  0  0  0  0  0  0  0  0  0  0  0
    7.3783  -13.5314   19.2892 C   0  0  0  0  0  0  0  0  0  0  0  0
    7.1502  -14.9786   19.5753 C   0  0  0  0  0  0  0  0  0  0  0  0
    7.0383  -15.2188   21.0491 C   0  0  0  0  0  0  0  0  0  0  0  0
    6.6239  -16.6092   21.4128 C   0  0  2  0  0  0  0  0  0  0  0  0
    5.3090  -16.9491   20.9184 N   0  0  0  0  0  0  0  0  0  0  0  0
    6.7144  -16.7371   22.8888 C   0  0  0  0  0  0  0  0  0  0  0  0
    5.7445  -16.3173   23.5686 O   0  0  0  0  0  0  0  0  0  0  0  0
   10.8057  -14.5772   20.5243 N   0  0  0  0  0  0  0  0  0  0  0  0
    7.8235  -17.3010   23.5672 C   0  0  2  0  0  0  0  0  0  0  0  0
    7.8799  -17.3017   25.0302 C   0  0  0  0  0  0  0  0  0  0  0  0
    8.5869  -18.5449   25.5171 C   0  0  0  0  0  0  0  0  0  0  0  0
    8.6804  -18.6114   26.9996 C   0  0  0  0  0  0  0  0  0  0  0  0
    9.4860  -19.7915   27.4808 C   0  0  0  0  0  0  0  0  0  0  0  0
    9.5842  -19.8406   28.9720 N   0  0  0  0  0  0  0  0  0  0  0  0
   10.4786  -20.8437   29.4650 C   0  0  0  0  0  0  0  0  0  0  0  0
    8.4734  -16.0405   25.5301 O   0  0  0  0  0  0  0  0  0  0  0  0
    9.6145  -15.6827   25.1540 N   0  0  0  0  0  0  0  0  0  0  0  0
    7.7699  -15.2021   26.4468 C   0  0  1  0  0  0  0  0  0  0  0  0
    8.3860  -13.9935   26.8968 C   0  0  0  0  0  0  0  0  0  0  0  0
    7.3930  -12.9892   27.4342 S   0  0  0  0  0  0  0  0  0  0  0  0
    6.1675  -12.7008   26.1183 C   0  0  0  0  0  0  0  0  0  0  0  0
    9.3828  -14.2952   27.9505 O   0  0  0  0  0  0  0  0  0  0  0  0
    9.6058  -15.4603   28.3666 O   0  0  0  0  0  0  0  0  0  0  0  0
  2  3  2  0
  2  1  1  0
  4  2  1  0
  5  4  1  0
  6  5  1  0
  7  6  1  0
  8  9  1  1
  8  7  1  0
 10 12  1  0
 10  8  1  0
 11 10  2  0
 13 12  1  0
 13 14  1  6
 14 15  1  0
 15 16  1  0
 16 17  1  0
 17 18  1  0
 19 13  1  0
 20 19  2  0
 21 19  1  0
 22 25  1  0
 22 21  1  0
 23 24  1  0
 22 23  1  1
 25 27  1  0
 26 25  2  0
M  END
$$$$
