RKC.pdb
     RDKit          3D

 27 26  0  0  1  0  0  0  0  0999 V2000
    6.9091  -13.2767   17.7390 N   0  0  0  0  0  0  0  0  0  0  0  0
    7.3240  -14.2899   16.8424 C   0  0  0  0  0  0  0  0  0  0  0  0
    7.6586  -14.0394   15.6261 N   0  0  0  0  0  0  0  0  0  0  0  0
    7.3704  -15.6371   17.3115 N   0  0  0  0  0  0  0  0  0  0  0  0
    8.4811  -16.0506   18.1454 C   0  0  0  0  0  0  0  0  0  0  0  0
    7.9456  -16.5886   19.4307 C   0  0  0  0  0  0  0  0  0  0  0  0
    9.0610  -16.9657   20.3559 C   0  0  0  0  0  0  0  0  0  0  0  0
   10.0819  -15.8907   20.5538 C   0  0  2  0  0  0  0  0  0  0  0  0
   11.3998  -16.2809   20.1064 N   0  0  0  0  0  0  0  0  0  0  0  0
   10.0699  -15.5136   21.9893 C   0  0  0  0  0  0  0  0  0  0  0  0
   11.0880  -15.7918   22.6714 O   0  0  0  0  0  0  0  0  0  0  0  0
    7.9749  -14.7974   14.9934 N   0  0  0  0  0  0  0  0  0  0  0  0
    8.9841  -14.8634   22.6270 C   0  0  1  0  0  0  0  0  0  0  0  0
    9.0250  -14.5801   24.0629 C   0  0  0  0  0  0  0  0  0  0  0  0
    7.8888  -13.6578   24.4377 C   0  0  0  0  0  0  0  0  0  0  0  0
    7.7998  -13.4190   25.9027 C   0  0  0  0  0  0  0  0  0  0  0  0
    6.6505  -12.5180   26.2779 C   0  0  0  0  0  0  0  0  0  0  0  0
    6.5541  -12.3076   27.7551 N   0  0  0  0  0  0  0  0  0  0  0  0
    5.3926  -11.5787   28.1660 C   0  0  0  0  0  0  0  0  0  0  0  0
    9.0570  -15.8387   24.8423 O   0  0  0  0  0  0  0  0  0  0  0  0
    8.1753  -16.7136   24.6723 N   0  0  0  0  0  0  0  0  0  0  0  0
   10.0835  -16.0910   25.8019 C   0  0  1  0  0  0  0  0  0  0  0  0
   10.0722  -17.3244   26.5239 C   0  0  0  0  0  0  0  0  0  0  0  0
   11.4354  -17.9708   26.6095 S   0  0  0  0  0  0  0  0  0  0  0  0
   12.0182  -18.2049   24.9000 C   0  0  0  0  0  0  0  0  0  0  0  0
    9.5580  -17.1033   27.8956 O   0  0  0  0  0  0  0  0  0  0  0  0
    9.1855  -15.9774   28.3124 O   0  0  0  0  0  0  0  0  0  0  0  0
  2  3  2  0
  2  1  1  0
  4  2  1  0
  5  4  1  0
  6  5  1  0
  7  6  1  0
  8  9  1  1
  8  7  1  0
 10 12  1  0
 10  8  1  0
 11 10  2  0
 13 12  1  0
 13 14  1  6
 14 15  1  0
 15 16  1  0
 16 17  1  0
 17 18  1  0
 19 13  1  0
 20 19  2  0
 21 19  1  0
 22 25  1  0
 22 21  1  0
 23 24  1  0
 22 23  1  1
 25 27  1  0
 26 25  2  0
M  END
$$$$
