RKC.pdb
     RDKit          3D

 27 26  0  0  1  0  0  0  0  0999 V2000
   13.5824  -15.3199   19.1390 N   0  0  0  0  0  0  0  0  0  0  0  0
   13.3531  -14.2202   19.9996 C   0  0  0  0  0  0  0  0  0  0  0  0
   14.1041  -13.9695   21.0131 N   0  0  0  0  0  0  0  0  0  0  0  0
   12.2459  -13.3616   19.7271 N   0  0  0  0  0  0  0  0  0  0  0  0
   11.3346  -13.7119   18.6562 C   0  0  0  0  0  0  0  0  0  0  0  0
   10.2620  -12.6769   18.5774 C   0  0  0  0  0  0  0  0  0  0  0  0
    9.1424  -12.9976   19.5186 C   0  0  0  0  0  0  0  0  0  0  0  0
    8.4321  -14.2775   19.2113 C   0  0  2  0  0  0  0  0  0  0  0  0
    7.4180  -14.1245   18.1928 N   0  0  0  0  0  0  0  0  0  0  0  0
    7.8710  -14.8004   20.4820 C   0  0  0  0  0  0  0  0  0  0  0  0
    6.7325  -14.3938   20.8249 O   0  0  0  0  0  0  0  0  0  0  0  0
   13.9422  -13.1321   21.6025 N   0  0  0  0  0  0  0  0  0  0  0  0
    8.5419  -15.7240   21.3218 C   0  0  2  0  0  0  0  0  0  0  0  0
    7.9193  -16.1914   22.5618 C   0  0  0  0  0  0  0  0  0  0  0  0
    8.1517  -17.6750   22.7265 C   0  0  0  0  0  0  0  0  0  0  0  0
    7.5600  -18.4770   21.6230 C   0  0  0  0  0  0  0  0  0  0  0  0
    7.7639  -19.9597   21.8053 C   0  0  0  0  0  0  0  0  0  0  0  0
    7.1154  -20.7587   20.7206 N   0  0  0  0  0  0  0  0  0  0  0  0
    7.1934  -22.1751   20.9131 C   0  0  0  0  0  0  0  0  0  0  0  0
    8.3783  -15.3817   23.7135 O   0  0  0  0  0  0  0  0  0  0  0  0
    9.5919  -15.0963   23.8459 N   0  0  0  0  0  0  0  0  0  0  0  0
    7.4607  -14.9062   24.6985 C   0  0  1  0  0  0  0  0  0  0  0  0
    7.9556  -14.1328   25.7937 C   0  0  0  0  0  0  0  0  0  0  0  0
    6.9189  -13.1980   26.3724 S   0  0  0  0  0  0  0  0  0  0  0  0
    7.7526  -12.2145   27.6587 C   0  0  0  0  0  0  0  0  0  0  0  0
    8.4463  -15.0296   26.8660 O   0  0  0  0  0  0  0  0  0  0  0  0
    8.0624  -16.2203   26.9897 O   0  0  0  0  0  0  0  0  0  0  0  0
  2  3  2  0
  2  1  1  0
  4  2  1  0
  5  4  1  0
  6  5  1  0
  7  6  1  0
  8  9  1  6
  8  7  1  0
 10 12  1  0
 10  8  1  0
 11 10  2  0
 13 12  1  0
 13 14  1  6
 14 15  1  0
 15 16  1  0
 16 17  1  0
 17 18  1  0
 19 13  1  0
 20 19  2  0
 21 19  1  0
 22 25  1  0
 22 21  1  0
 23 24  1  0
 22 23  1  1
 25 27  1  0
 26 25  2  0
M  END
$$$$
