RKC.pdb
     RDKit          3D

 27 26  0  0  1  0  0  0  0  0999 V2000
    7.7257  -13.6119   15.4207 N   0  0  0  0  0  0  0  0  0  0  0  0
    8.7687  -14.1805   16.1898 C   0  0  0  0  0  0  0  0  0  0  0  0
    9.6060  -15.0243   15.6990 N   0  0  0  0  0  0  0  0  0  0  0  0
    8.8902  -13.7991   17.5598 N   0  0  0  0  0  0  0  0  0  0  0  0
    8.2655  -14.6237   18.5747 C   0  0  0  0  0  0  0  0  0  0  0  0
    7.3181  -13.7826   19.3641 C   0  0  0  0  0  0  0  0  0  0  0  0
    7.2699  -14.2318   20.7917 C   0  0  0  0  0  0  0  0  0  0  0  0
    6.9054  -15.6717   20.9682 C   0  0  2  0  0  0  0  0  0  0  0  0
    5.6774  -16.0253   20.2929 N   0  0  0  0  0  0  0  0  0  0  0  0
    6.8389  -15.9465   22.4253 C   0  0  0  0  0  0  0  0  0  0  0  0
    5.7485  -15.7245   23.0090 O   0  0  0  0  0  0  0  0  0  0  0  0
   10.3728  -15.4130   16.2786 N   0  0  0  0  0  0  0  0  0  0  0  0
    7.9269  -16.4408   23.1872 C   0  0  2  0  0  0  0  0  0  0  0  0
    7.7809  -16.6832   24.6237 C   0  0  0  0  0  0  0  0  0  0  0  0
    8.1910  -18.0999   24.9505 C   0  0  0  0  0  0  0  0  0  0  0  0
    8.0572  -18.4195   26.3966 C   0  0  0  0  0  0  0  0  0  0  0  0
    8.5641  -19.7978   26.7386 C   0  0  0  0  0  0  0  0  0  0  0  0
    8.3210  -20.1519   28.1707 N   0  0  0  0  0  0  0  0  0  0  0  0
    8.7152  -21.4837   28.5174 C   0  0  0  0  0  0  0  0  0  0  0  0
    8.5070  -15.6544   25.4029 O   0  0  0  0  0  0  0  0  0  0  0  0
    9.7436  -15.5054   25.2608 N   0  0  0  0  0  0  0  0  0  0  0  0
    7.8264  -14.8093   26.3307 C   0  0  1  0  0  0  0  0  0  0  0  0
    8.5589  -13.7815   27.0014 C   0  0  0  0  0  0  0  0  0  0  0  0
    7.6680  -12.7906   27.7140 S   0  0  0  0  0  0  0  0  0  0  0  0
    6.2595  -12.4557   26.6092 C   0  0  0  0  0  0  0  0  0  0  0  0
    9.4911  -14.3828   27.9835 O   0  0  0  0  0  0  0  0  0  0  0  0
   10.2438  -13.6963   28.7200 O   0  0  0  0  0  0  0  0  0  0  0  0
  2  3  2  0
  2  1  1  0
  4  2  1  0
  5  4  1  0
  6  5  1  0
  7  6  1  0
  8  9  1  1
  8  7  1  0
 10 12  1  0
 10  8  1  0
 11 10  2  0
 13 12  1  0
 13 14  1  6
 14 15  1  0
 15 16  1  0
 16 17  1  0
 17 18  1  0
 19 13  1  0
 20 19  2  0
 21 19  1  0
 22 25  1  0
 22 21  1  0
 23 24  1  0
 22 23  1  1
 25 27  1  0
 26 25  2  0
M  END
$$$$
