FDM.pdb
     RDKit          3D

 28 28  0  0  1  0  0  0  0  0999 V2000
    6.0922  -18.4334   22.5212 N   0  0  0  0  0  0  0  0  0  0  0  0
    6.7591  -17.2461   22.9763 C   0  0  1  0  0  0  0  0  0  0  0  0
    6.0036  -16.7794   24.2271 C   0  0  0  0  0  0  0  0  0  0  0  0
    6.3453  -15.3382   24.4261 C   0  0  0  0  0  0  0  0  0  0  0  0
    6.9509  -14.6004   23.4090 C   0  0  0  0  0  0  0  0  0  0  0  0
    7.2776  -13.2732   23.5597 C   0  0  0  0  0  0  0  0  0  0  0  0
    7.0068  -12.6353   24.7433 C   0  0  0  0  0  0  0  0  0  0  0  0
    6.4130  -13.3360   25.7578 C   0  0  0  0  0  0  0  0  0  0  0  0
    6.0888  -14.6635   25.6003 C   0  0  0  0  0  0  0  0  0  0  0  0
    8.1861  -17.4478   23.2501 C   0  0  0  0  0  0  0  0  0  0  0  0
    8.5277  -18.2344   24.1653 O   0  0  0  0  0  0  0  0  0  0  0  0
    9.1950  -16.7854   22.5174 N   0  0  0  0  0  0  0  0  0  0  0  0
   10.6070  -17.0646   22.6442 C   0  0  1  0  0  0  0  0  0  0  0  0
   11.3408  -16.3922   21.5209 C   0  0  0  0  0  0  0  0  0  0  0  0
   12.7437  -16.7652   21.4001 C   0  0  0  0  0  0  0  0  0  0  0  0
   13.1423  -17.8493   21.8867 O   0  0  0  0  0  0  0  0  0  0  0  0
   11.0661  -16.5232   23.9431 C   0  0  0  0  0  0  0  0  0  0  0  0
   11.7624  -15.4786   23.9971 O   0  0  0  0  0  0  0  0  0  0  0  0
   13.6528  -15.9484   20.7581 O   0  0  0  0  0  0  0  0  0  0  0  0
   10.7568  -12.4785   28.5273 C   0  0  0  0  0  0  0  0  0  0  0  0
   10.2707  -14.0417   29.2600 S   0  0  0  0  0  0  0  0  0  0  0  0
   11.1892  -15.4491   28.5653 C   0  0  0  0  0  0  0  0  0  0  0  0
   10.6718  -15.6813   27.1767 C   0  0  0  0  0  0  0  0  0  0  0  0
   11.3908  -16.7738   26.4404 C   0  0  2  0  0  0  0  0  0  0  0  0
   10.7565  -17.1365   25.1973 N   0  0  0  0  0  0  0  0  0  0  0  0
   11.4853  -17.9825   27.2977 C   0  0  0  0  0  0  0  0  0  0  0  0
   10.9317  -19.1823   26.8958 O   0  0  0  0  0  0  0  0  0  0  0  0
   12.0692  -17.9691   28.4202 O   0  0  0  0  0  0  0  0  0  0  0  0
  2  1  1  1
  2 10  1  0
  3  2  1  0
  4  3  1  0
  4  9  2  0
  5  4  1  0
  6  5  2  0
  6  7  1  0
  7  8  2  0
  8  9  1  0
 10 11  2  0
 12 10  1  0
 12 13  1  0
 13 14  1  6
 14 15  1  0
 15 19  1  0
 16 15  2  0
 17 25  1  0
 17 13  1  0
 18 17  2  0
 20 21  1  0
 22 21  1  0
 23 22  1  0
 24 23  1  1
 24 25  1  0
 26 27  1  0
 26 24  1  0
 28 26  2  0
M  END
$$$$
