FDM.pdb
     RDKit          3D

 28 28  0  0  1  0  0  0  0  0999 V2000
    5.8324  -17.4335   23.7631 N   0  0  0  0  0  0  0  0  0  0  0  0
    6.9241  -16.5108   23.8978 C   0  0  1  0  0  0  0  0  0  0  0  0
    6.8198  -15.9220   25.3105 C   0  0  0  0  0  0  0  0  0  0  0  0
    6.8496  -14.4352   25.1626 C   0  0  0  0  0  0  0  0  0  0  0  0
    7.6669  -13.8282   24.2091 C   0  0  0  0  0  0  0  0  0  0  0  0
    7.7173  -12.4637   24.0472 C   0  0  0  0  0  0  0  0  0  0  0  0
    6.9446  -11.6547   24.8409 C   0  0  0  0  0  0  0  0  0  0  0  0
    6.1336  -12.2244   25.7844 C   0  0  0  0  0  0  0  0  0  0  0  0
    6.0881  -13.5903   25.9411 C   0  0  0  0  0  0  0  0  0  0  0  0
    8.2366  -17.1224   23.6623 C   0  0  0  0  0  0  0  0  0  0  0  0
    8.5070  -18.2186   24.2085 O   0  0  0  0  0  0  0  0  0  0  0  0
    9.2121  -16.5194   22.8387 N   0  0  0  0  0  0  0  0  0  0  0  0
   10.5527  -17.0283   22.6617 C   0  0  1  0  0  0  0  0  0  0  0  0
   11.1387  -16.4375   21.4127 C   0  0  0  0  0  0  0  0  0  0  0  0
   10.6460  -17.0222   20.1729 C   0  0  0  0  0  0  0  0  0  0  0  0
   10.2565  -18.2134   20.1597 O   0  0  0  0  0  0  0  0  0  0  0  0
   11.3556  -16.6228   23.8372 C   0  0  0  0  0  0  0  0  0  0  0  0
   11.9782  -15.5314   23.8481 O   0  0  0  0  0  0  0  0  0  0  0  0
   10.5967  -16.2917   19.0025 O   0  0  0  0  0  0  0  0  0  0  0  0
   10.4191  -14.2933   30.1542 C   0  0  0  0  0  0  0  0  0  0  0  0
    9.8704  -14.4497   28.4538 S   0  0  0  0  0  0  0  0  0  0  0  0
   10.3705  -16.0302   27.7059 C   0  0  0  0  0  0  0  0  0  0  0  0
   11.5451  -15.7534   26.8151 C   0  0  0  0  0  0  0  0  0  0  0  0
   12.1488  -16.9884   26.2126 C   0  0  2  0  0  0  0  0  0  0  0  0
   11.4757  -17.4256   25.0146 N   0  0  0  0  0  0  0  0  0  0  0  0
   12.1271  -18.0951   27.2023 C   0  0  0  0  0  0  0  0  0  0  0  0
   12.9261  -18.0557   28.3281 O   0  0  0  0  0  0  0  0  0  0  0  0
   11.3860  -19.1110   27.0616 O   0  0  0  0  0  0  0  0  0  0  0  0
  2  1  1  1
  2 10  1  0
  3  2  1  0
  4  3  1  0
  4  9  2  0
  5  4  1  0
  6  5  2  0
  6  7  1  0
  7  8  2  0
  8  9  1  0
 10 11  2  0
 12 10  1  0
 12 13  1  0
 13 14  1  6
 14 15  1  0
 15 19  1  0
 16 15  2  0
 17 25  1  0
 17 13  1  0
 18 17  2  0
 20 21  1  0
 22 21  1  0
 23 22  1  0
 24 23  1  1
 24 25  1  0
 26 27  1  0
 26 24  1  0
 28 26  2  0
M  END
$$$$
