FDM.pdb
     RDKit          3D

 28 28  0  0  1  0  0  0  0  0999 V2000
    7.3107  -16.4781   20.1017 N   0  0  0  0  0  0  0  0  0  0  0  0
    7.7557  -15.7926   21.2821 C   0  0  1  0  0  0  0  0  0  0  0  0
    6.4941  -15.4554   22.0869 C   0  0  0  0  0  0  0  0  0  0  0  0
    6.9306  -14.6164   23.2440 C   0  0  0  0  0  0  0  0  0  0  0  0
    6.8871  -15.1162   24.5455 C   0  0  0  0  0  0  0  0  0  0  0  0
    7.2818  -14.3709   25.6316 C   0  0  0  0  0  0  0  0  0  0  0  0
    7.7369  -13.0899   25.4494 C   0  0  0  0  0  0  0  0  0  0  0  0
    7.7898  -12.5749   24.1826 C   0  0  0  0  0  0  0  0  0  0  0  0
    7.3934  -13.3261   23.1005 C   0  0  0  0  0  0  0  0  0  0  0  0
    8.7146  -16.5660   22.0786 C   0  0  0  0  0  0  0  0  0  0  0  0
    8.3071  -17.5527   22.7370 O   0  0  0  0  0  0  0  0  0  0  0  0
   10.0871  -16.2390   22.1318 N   0  0  0  0  0  0  0  0  0  0  0  0
   11.0940  -17.0608   22.7630 C   0  0  1  0  0  0  0  0  0  0  0  0
   12.4375  -16.7125   22.1920 C   0  0  0  0  0  0  0  0  0  0  0  0
   12.7086  -17.2842   20.8800 C   0  0  0  0  0  0  0  0  0  0  0  0
   13.3855  -16.6360   20.0478 O   0  0  0  0  0  0  0  0  0  0  0  0
   11.0731  -16.7760   24.2154 C   0  0  0  0  0  0  0  0  0  0  0  0
   11.2592  -15.6108   24.6473 O   0  0  0  0  0  0  0  0  0  0  0  0
   12.2351  -18.5320   20.5269 O   0  0  0  0  0  0  0  0  0  0  0  0
   10.1109  -12.8129   29.1990 C   0  0  0  0  0  0  0  0  0  0  0  0
    9.5581  -13.9829   27.9571 S   0  0  0  0  0  0  0  0  0  0  0  0
   10.2901  -15.6322   28.1830 C   0  0  0  0  0  0  0  0  0  0  0  0
    9.8396  -16.4844   27.0338 C   0  0  0  0  0  0  0  0  0  0  0  0
   10.8435  -17.5218   26.6229 C   0  0  2  0  0  0  0  0  0  0  0  0
   10.8452  -17.7831   25.2048 N   0  0  0  0  0  0  0  0  0  0  0  0
   10.5777  -18.7937   27.3415 C   0  0  0  0  0  0  0  0  0  0  0  0
   10.3064  -19.9569   26.6481 O   0  0  0  0  0  0  0  0  0  0  0  0
   10.5874  -18.8693   28.6046 O   0  0  0  0  0  0  0  0  0  0  0  0
  2  1  1  6
  2 10  1  0
  3  2  1  0
  4  3  1  0
  4  9  2  0
  5  4  1  0
  6  5  2  0
  6  7  1  0
  7  8  2  0
  8  9  1  0
 10 11  2  0
 12 10  1  0
 12 13  1  0
 13 14  1  6
 14 15  1  0
 15 19  1  0
 16 15  2  0
 17 25  1  0
 17 13  1  0
 18 17  2  0
 20 21  1  0
 22 21  1  0
 23 22  1  0
 24 23  1  6
 24 25  1  0
 26 27  1  0
 26 24  1  0
 28 26  2  0
M  END
$$$$
