FDM.pdb
     RDKit          3D

 28 28  0  0  1  0  0  0  0  0999 V2000
    6.5289  -17.5825   21.2259 N   0  0  0  0  0  0  0  0  0  0  0  0
    7.2162  -16.6999   22.1259 C   0  0  1  0  0  0  0  0  0  0  0  0
    6.2889  -16.5059   23.3324 C   0  0  0  0  0  0  0  0  0  0  0  0
    6.8400  -15.3631   24.1221 C   0  0  0  0  0  0  0  0  0  0  0  0
    7.4580  -14.2868   23.4855 C   0  0  0  0  0  0  0  0  0  0  0  0
    7.9748  -13.2201   24.1824 C   0  0  0  0  0  0  0  0  0  0  0  0
    7.8893  -13.1950   25.5511 C   0  0  0  0  0  0  0  0  0  0  0  0
    7.2878  -14.2385   26.2009 C   0  0  0  0  0  0  0  0  0  0  0  0
    6.7730  -15.3025   25.4975 C   0  0  0  0  0  0  0  0  0  0  0  0
    8.5363  -17.1941   22.5323 C   0  0  0  0  0  0  0  0  0  0  0  0
    8.6239  -18.3113   23.0956 O   0  0  0  0  0  0  0  0  0  0  0  0
    9.7186  -16.4546   22.3114 N   0  0  0  0  0  0  0  0  0  0  0  0
   11.0457  -16.9317   22.6260 C   0  0  1  0  0  0  0  0  0  0  0  0
   12.0284  -16.2980   21.6853 C   0  0  0  0  0  0  0  0  0  0  0  0
   13.4108  -16.7158   21.8760 C   0  0  0  0  0  0  0  0  0  0  0  0
   13.7092  -17.9305   21.7961 O   0  0  0  0  0  0  0  0  0  0  0  0
   11.3550  -16.5396   24.0193 C   0  0  0  0  0  0  0  0  0  0  0  0
   12.5241  -16.6306   24.4709 O   0  0  0  0  0  0  0  0  0  0  0  0
   14.4086  -15.8004   22.1448 O   0  0  0  0  0  0  0  0  0  0  0  0
   11.7463  -13.1851   29.0833 C   0  0  0  0  0  0  0  0  0  0  0  0
   10.0048  -13.4633   28.7570 S   0  0  0  0  0  0  0  0  0  0  0  0
    9.6107  -15.2265   28.5498 C   0  0  0  0  0  0  0  0  0  0  0  0
    9.3557  -15.4610   27.0903 C   0  0  0  0  0  0  0  0  0  0  0  0
   10.5286  -16.0474   26.3602 C   0  0  2  0  0  0  0  0  0  0  0  0
   10.3687  -16.0416   24.9271 N   0  0  0  0  0  0  0  0  0  0  0  0
   10.7549  -17.4447   26.8088 C   0  0  0  0  0  0  0  0  0  0  0  0
    9.8729  -18.4511   26.4671 O   0  0  0  0  0  0  0  0  0  0  0  0
   11.7523  -17.7730   27.5149 O   0  0  0  0  0  0  0  0  0  0  0  0
  2  1  1  6
  2 10  1  0
  3  2  1  0
  4  3  1  0
  4  9  2  0
  5  4  1  0
  6  5  2  0
  6  7  1  0
  7  8  2  0
  8  9  1  0
 10 11  2  0
 12 10  1  0
 12 13  1  0
 13 14  1  6
 14 15  1  0
 15 19  1  0
 16 15  2  0
 17 25  1  0
 17 13  1  0
 18 17  2  0
 20 21  1  0
 22 21  1  0
 23 22  1  0
 24 23  1  1
 24 25  1  0
 26 27  1  0
 26 24  1  0
 28 26  2  0
M  END
$$$$
