FDM.pdb
     RDKit          3D

 28 28  0  0  1  0  0  0  0  0999 V2000
    6.6910  -18.3346   20.6475 N   0  0  0  0  0  0  0  0  0  0  0  0
    7.3948  -17.1489   21.0475 C   0  0  1  0  0  0  0  0  0  0  0  0
    6.3610  -16.2417   21.7268 C   0  0  0  0  0  0  0  0  0  0  0  0
    6.8673  -14.8410   21.6033 C   0  0  0  0  0  0  0  0  0  0  0  0
    6.9232  -14.0008   22.7153 C   0  0  0  0  0  0  0  0  0  0  0  0
    7.3839  -12.7077   22.6357 C   0  0  0  0  0  0  0  0  0  0  0  0
    7.8074  -12.2085   21.4304 C   0  0  0  0  0  0  0  0  0  0  0  0
    7.7632  -13.0118   20.3234 C   0  0  0  0  0  0  0  0  0  0  0  0
    7.3011  -14.3045   20.4101 C   0  0  0  0  0  0  0  0  0  0  0  0
    8.5383  -17.4184   21.9262 C   0  0  0  0  0  0  0  0  0  0  0  0
    8.4329  -18.2979   22.8141 O   0  0  0  0  0  0  0  0  0  0  0  0
    9.7599  -16.7203   21.8086 N   0  0  0  0  0  0  0  0  0  0  0  0
   10.9702  -17.0772   22.5126 C   0  0  1  0  0  0  0  0  0  0  0  0
   12.1444  -16.4625   21.8084 C   0  0  0  0  0  0  0  0  0  0  0  0
   13.4420  -16.8054   22.3744 C   0  0  0  0  0  0  0  0  0  0  0  0
   13.6180  -17.9369   22.8840 O   0  0  0  0  0  0  0  0  0  0  0  0
   10.8724  -16.5454   23.8904 C   0  0  0  0  0  0  0  0  0  0  0  0
   11.8615  -16.5736   24.6649 O   0  0  0  0  0  0  0  0  0  0  0  0
   14.4915  -15.9086   22.3636 O   0  0  0  0  0  0  0  0  0  0  0  0
    6.7601  -11.9418   27.0460 C   0  0  0  0  0  0  0  0  0  0  0  0
    6.6532  -12.6556   25.4041 S   0  0  0  0  0  0  0  0  0  0  0  0
    8.1434  -13.5979   24.9589 C   0  0  0  0  0  0  0  0  0  0  0  0
    8.3367  -14.6536   26.0069 C   0  0  0  0  0  0  0  0  0  0  0  0
    9.5483  -15.5106   25.7828 C   0  0  2  0  0  0  0  0  0  0  0  0
    9.6740  -15.9758   24.4237 N   0  0  0  0  0  0  0  0  0  0  0  0
    9.5084  -16.6873   26.6876 C   0  0  0  0  0  0  0  0  0  0  0  0
    9.5278  -16.5284   28.0593 O   0  0  0  0  0  0  0  0  0  0  0  0
    9.4556  -17.8732   26.2494 O   0  0  0  0  0  0  0  0  0  0  0  0
  2  1  1  1
  2 10  1  0
  3  2  1  0
  4  3  1  0
  4  9  2  0
  5  4  1  0
  6  5  2  0
  6  7  1  0
  7  8  2  0
  8  9  1  0
 10 11  2  0
 12 10  1  0
 12 13  1  0
 13 14  1  6
 14 15  1  0
 15 19  1  0
 16 15  2  0
 17 25  1  0
 17 13  1  0
 18 17  2  0
 20 21  1  0
 22 21  1  0
 23 22  1  0
 24 23  1  6
 24 25  1  0
 26 27  1  0
 26 24  1  0
 28 26  2  0
M  END
$$$$
