FDM.pdb
     RDKit          3D

 28 28  0  0  1  0  0  0  0  0999 V2000
    6.6368  -18.3420   20.6457 N   0  0  0  0  0  0  0  0  0  0  0  0
    7.2792  -17.0858   20.9113 C   0  0  1  0  0  0  0  0  0  0  0  0
    6.1717  -16.1187   21.3487 C   0  0  0  0  0  0  0  0  0  0  0  0
    6.7847  -14.7569   21.4063 C   0  0  0  0  0  0  0  0  0  0  0  0
    7.0461  -14.1422   22.6308 C   0  0  0  0  0  0  0  0  0  0  0  0
    7.6094  -12.8909   22.7186 C   0  0  0  0  0  0  0  0  0  0  0  0
    7.9325  -12.2077   21.5740 C   0  0  0  0  0  0  0  0  0  0  0  0
    7.6866  -12.7879   20.3592 C   0  0  0  0  0  0  0  0  0  0  0  0
    7.1228  -14.0400   20.2786 C   0  0  0  0  0  0  0  0  0  0  0  0
    8.3452  -17.1770   21.9150 C   0  0  0  0  0  0  0  0  0  0  0  0
    8.0932  -17.6955   23.0289 O   0  0  0  0  0  0  0  0  0  0  0  0
    9.6517  -16.7000   21.6721 N   0  0  0  0  0  0  0  0  0  0  0  0
   10.7469  -16.8195   22.6071 C   0  0  1  0  0  0  0  0  0  0  0  0
   12.0086  -16.3493   21.9444 C   0  0  0  0  0  0  0  0  0  0  0  0
   12.5557  -17.2673   20.9547 C   0  0  0  0  0  0  0  0  0  0  0  0
   12.5084  -18.5028   21.1604 O   0  0  0  0  0  0  0  0  0  0  0  0
   10.4438  -15.9675   23.7788 C   0  0  0  0  0  0  0  0  0  0  0  0
   10.4157  -14.7154   23.6764 O   0  0  0  0  0  0  0  0  0  0  0  0
   13.1295  -16.8076   19.7863 O   0  0  0  0  0  0  0  0  0  0  0  0
    7.7029  -11.3965   26.0928 C   0  0  0  0  0  0  0  0  0  0  0  0
    7.0114  -12.8632   26.8593 S   0  0  0  0  0  0  0  0  0  0  0  0
    8.2878  -14.0766   27.3125 C   0  0  0  0  0  0  0  0  0  0  0  0
    8.7038  -14.7813   26.0553 C   0  0  0  0  0  0  0  0  0  0  0  0
    9.8953  -15.6766   26.2323 C   0  0  2  0  0  0  0  0  0  0  0  0
   10.1682  -16.4970   25.0783 N   0  0  0  0  0  0  0  0  0  0  0  0
    9.6921  -16.5604   27.4081 C   0  0  0  0  0  0  0  0  0  0  0  0
    9.7300  -17.9348   27.2774 O   0  0  0  0  0  0  0  0  0  0  0  0
    9.4779  -16.1014   28.5677 O   0  0  0  0  0  0  0  0  0  0  0  0
  2  1  1  1
  2 10  1  0
  3  2  1  0
  4  3  1  0
  4  9  2  0
  5  4  1  0
  6  5  2  0
  6  7  1  0
  7  8  2  0
  8  9  1  0
 10 11  2  0
 12 10  1  0
 12 13  1  0
 13 14  1  6
 14 15  1  0
 15 19  1  0
 16 15  2  0
 17 25  1  0
 17 13  1  0
 18 17  2  0
 20 21  1  0
 22 21  1  0
 23 22  1  0
 24 23  1  6
 24 25  1  0
 26 27  1  0
 26 24  1  0
 28 26  2  0
M  END
$$$$
