FDM.pdb
     RDKit          3D

 28 28  0  0  1  0  0  0  0  0999 V2000
    5.5097  -17.5258   24.1775 N   0  0  0  0  0  0  0  0  0  0  0  0
    6.6173  -16.6143   24.2377 C   0  0  1  0  0  0  0  0  0  0  0  0
    6.6872  -16.1151   25.6865 C   0  0  0  0  0  0  0  0  0  0  0  0
    6.7063  -14.6219   25.6289 C   0  0  0  0  0  0  0  0  0  0  0  0
    7.7049  -13.9466   24.9271 C   0  0  0  0  0  0  0  0  0  0  0  0
    7.7509  -12.5742   24.8542 C   0  0  0  0  0  0  0  0  0  0  0  0
    6.7909  -11.8260   25.4865 C   0  0  0  0  0  0  0  0  0  0  0  0
    5.7996  -12.4635   26.1822 C   0  0  0  0  0  0  0  0  0  0  0  0
    5.7596  -13.8367   26.2511 C   0  0  0  0  0  0  0  0  0  0  0  0
    7.8872  -17.2111   23.8094 C   0  0  0  0  0  0  0  0  0  0  0  0
    8.2004  -18.3500   24.2311 O   0  0  0  0  0  0  0  0  0  0  0  0
    8.7749  -16.5471   22.9350 N   0  0  0  0  0  0  0  0  0  0  0  0
   10.1186  -16.9942   22.6482 C   0  0  1  0  0  0  0  0  0  0  0  0
   10.5503  -16.4283   21.3269 C   0  0  0  0  0  0  0  0  0  0  0  0
   11.8922  -16.8114   20.9092 C   0  0  0  0  0  0  0  0  0  0  0  0
   12.5053  -17.7077   21.5350 O   0  0  0  0  0  0  0  0  0  0  0  0
   11.0058  -16.4985   23.7243 C   0  0  0  0  0  0  0  0  0  0  0  0
   11.1055  -15.2689   23.9633 O   0  0  0  0  0  0  0  0  0  0  0  0
   12.5107  -16.2075   19.8329 O   0  0  0  0  0  0  0  0  0  0  0  0
   10.7805  -13.7170   30.0407 C   0  0  0  0  0  0  0  0  0  0  0  0
   10.9270  -13.9758   28.2720 S   0  0  0  0  0  0  0  0  0  0  0  0
   11.4933  -15.6542   27.8608 C   0  0  0  0  0  0  0  0  0  0  0  0
   11.6556  -15.7209   26.3711 C   0  0  0  0  0  0  0  0  0  0  0  0
   12.2160  -17.0250   25.8837 C   0  0  2  0  0  0  0  0  0  0  0  0
   11.7925  -17.3636   24.5475 N   0  0  0  0  0  0  0  0  0  0  0  0
   11.8163  -18.1210   26.8024 C   0  0  0  0  0  0  0  0  0  0  0  0
   12.2554  -18.1448   28.1116 O   0  0  0  0  0  0  0  0  0  0  0  0
   11.0655  -19.0702   26.4331 O   0  0  0  0  0  0  0  0  0  0  0  0
  2  1  1  1
  2 10  1  0
  3  2  1  0
  4  3  1  0
  4  9  2  0
  5  4  1  0
  6  5  2  0
  6  7  1  0
  7  8  2  0
  8  9  1  0
 10 11  2  0
 12 10  1  0
 12 13  1  0
 13 14  1  6
 14 15  1  0
 15 19  1  0
 16 15  2  0
 17 25  1  0
 17 13  1  0
 18 17  2  0
 20 21  1  0
 22 21  1  0
 23 22  1  0
 24 23  1  1
 24 25  1  0
 26 27  1  0
 26 24  1  0
 28 26  2  0
M  END
$$$$
