FDM.pdb
     RDKit          3D

 28 28  0  0  1  0  0  0  0  0999 V2000
    6.0984  -17.1949   24.3598 N   0  0  0  0  0  0  0  0  0  0  0  0
    7.0056  -16.9610   23.2719 C   0  0  1  0  0  0  0  0  0  0  0  0
    6.6964  -15.5531   22.7472 C   0  0  0  0  0  0  0  0  0  0  0  0
    6.7982  -14.6247   23.9139 C   0  0  0  0  0  0  0  0  0  0  0  0
    7.5296  -13.4405   23.8230 C   0  0  0  0  0  0  0  0  0  0  0  0
    7.6426  -12.5648   24.8772 C   0  0  0  0  0  0  0  0  0  0  0  0
    7.0220  -12.8478   26.0672 C   0  0  0  0  0  0  0  0  0  0  0  0
    6.2979  -14.0032   26.1833 C   0  0  0  0  0  0  0  0  0  0  0  0
    6.1889  -14.8748   25.1247 C   0  0  0  0  0  0  0  0  0  0  0  0
    8.4164  -17.0998   23.6492 C   0  0  0  0  0  0  0  0  0  0  0  0
    8.7048  -17.5944   24.7652 O   0  0  0  0  0  0  0  0  0  0  0  0
    9.4675  -16.6951   22.7979 N   0  0  0  0  0  0  0  0  0  0  0  0
   10.8518  -17.0650   22.9843 C   0  0  1  0  0  0  0  0  0  0  0  0
   11.6773  -16.4281   21.9047 C   0  0  0  0  0  0  0  0  0  0  0  0
   13.0358  -16.9417   21.7936 C   0  0  0  0  0  0  0  0  0  0  0  0
   13.3039  -17.8068   20.9271 O   0  0  0  0  0  0  0  0  0  0  0  0
   11.2840  -16.5686   24.3100 C   0  0  0  0  0  0  0  0  0  0  0  0
   11.3333  -15.3368   24.5533 O   0  0  0  0  0  0  0  0  0  0  0  0
   14.0438  -16.4963   22.6251 O   0  0  0  0  0  0  0  0  0  0  0  0
    9.4164  -12.4630   28.7869 C   0  0  0  0  0  0  0  0  0  0  0  0
    9.2578  -14.1805   28.2951 S   0  0  0  0  0  0  0  0  0  0  0  0
   10.8103  -14.8593   27.6347 C   0  0  0  0  0  0  0  0  0  0  0  0
   10.5463  -16.2823   27.2405 C   0  0  0  0  0  0  0  0  0  0  0  0
   11.7661  -17.0095   26.7551 C   0  0  2  0  0  0  0  0  0  0  0  0
   11.6665  -17.4355   25.3810 N   0  0  0  0  0  0  0  0  0  0  0  0
   12.0159  -18.2002   27.6063 C   0  0  0  0  0  0  0  0  0  0  0  0
   12.0590  -19.4673   27.0586 O   0  0  0  0  0  0  0  0  0  0  0  0
   12.1983  -18.1099   28.8552 O   0  0  0  0  0  0  0  0  0  0  0  0
  2  1  1  1
  2 10  1  0
  3  2  1  0
  4  3  1  0
  4  9  2  0
  5  4  1  0
  6  5  2  0
  6  7  1  0
  7  8  2  0
  8  9  1  0
 10 11  2  0
 12 10  1  0
 12 13  1  0
 13 14  1  6
 14 15  1  0
 15 19  1  0
 16 15  2  0
 17 25  1  0
 17 13  1  0
 18 17  2  0
 20 21  1  0
 22 21  1  0
 23 22  1  0
 24 23  1  1
 24 25  1  0
 26 27  1  0
 26 24  1  0
 28 26  2  0
M  END
$$$$
