FDM.pdb
     RDKit          3D

 28 28  0  0  1  0  0  0  0  0999 V2000
    6.8990  -18.2245   20.4553 N   0  0  0  0  0  0  0  0  0  0  0  0
    7.5346  -17.0150   20.8960 C   0  0  1  0  0  0  0  0  0  0  0  0
    6.4128  -16.0946   21.3939 C   0  0  0  0  0  0  0  0  0  0  0  0
    6.9835  -14.7151   21.4620 C   0  0  0  0  0  0  0  0  0  0  0  0
    7.3961  -14.0546   20.3048 C   0  0  0  0  0  0  0  0  0  0  0  0
    7.9245  -12.7854   20.3329 C   0  0  0  0  0  0  0  0  0  0  0  0
    8.0586  -12.1299   21.5302 C   0  0  0  0  0  0  0  0  0  0  0  0
    7.6615  -12.7552   22.6809 C   0  0  0  0  0  0  0  0  0  0  0  0
    7.1337  -14.0249   22.6456 C   0  0  0  0  0  0  0  0  0  0  0  0
    8.5526  -17.2345   21.9292 C   0  0  0  0  0  0  0  0  0  0  0  0
    8.2747  -17.9545   22.9179 O   0  0  0  0  0  0  0  0  0  0  0  0
    9.8410  -16.6623   21.8513 N   0  0  0  0  0  0  0  0  0  0  0  0
   10.8675  -16.8331   22.8537 C   0  0  1  0  0  0  0  0  0  0  0  0
   12.1897  -16.4233   22.2739 C   0  0  0  0  0  0  0  0  0  0  0  0
   13.3275  -16.6007   23.1659 C   0  0  0  0  0  0  0  0  0  0  0  0
   13.4350  -17.6564   23.8330 O   0  0  0  0  0  0  0  0  0  0  0  0
   10.5310  -15.9672   24.0060 C   0  0  0  0  0  0  0  0  0  0  0  0
   10.1292  -14.7893   23.8326 O   0  0  0  0  0  0  0  0  0  0  0  0
   14.2983  -15.6279   23.2964 O   0  0  0  0  0  0  0  0  0  0  0  0
    6.9200  -11.4425   25.8793 C   0  0  0  0  0  0  0  0  0  0  0  0
    7.4060  -12.9584   26.7054 S   0  0  0  0  0  0  0  0  0  0  0  0
    8.4336  -14.0249   25.6502 C   0  0  0  0  0  0  0  0  0  0  0  0
    8.7259  -15.2755   26.4253 C   0  0  0  0  0  0  0  0  0  0  0  0
   10.1858  -15.6178   26.4888 C   0  0  2  0  0  0  0  0  0  0  0  0
   10.6371  -16.4003   25.3648 N   0  0  0  0  0  0  0  0  0  0  0  0
   10.4746  -16.3671   27.7378 C   0  0  0  0  0  0  0  0  0  0  0  0
   10.4807  -15.7289   28.9625 O   0  0  0  0  0  0  0  0  0  0  0  0
   10.7249  -17.6075   27.7374 O   0  0  0  0  0  0  0  0  0  0  0  0
  2  1  1  1
  2 10  1  0
  3  2  1  0
  4  3  1  0
  4  9  2  0
  5  4  1  0
  6  5  2  0
  6  7  1  0
  7  8  2  0
  8  9  1  0
 10 11  2  0
 12 10  1  0
 12 13  1  0
 13 14  1  6
 14 15  1  0
 15 19  1  0
 16 15  2  0
 17 25  1  0
 17 13  1  0
 18 17  2  0
 20 21  1  0
 22 21  1  0
 23 22  1  0
 24 23  1  6
 24 25  1  0
 26 27  1  0
 26 24  1  0
 28 26  2  0
M  END
$$$$
