FDM.pdb
     RDKit          3D

 28 28  0  0  1  0  0  0  0  0999 V2000
    6.1395  -17.4878   24.0057 N   0  0  0  0  0  0  0  0  0  0  0  0
    7.2448  -16.5895   24.1871 C   0  0  1  0  0  0  0  0  0  0  0  0
    7.1227  -16.0374   25.6130 C   0  0  0  0  0  0  0  0  0  0  0  0
    6.9347  -14.5599   25.4901 C   0  0  0  0  0  0  0  0  0  0  0  0
    7.7938  -13.7934   24.7027 C   0  0  0  0  0  0  0  0  0  0  0  0
    7.6482  -12.4327   24.5681 C   0  0  0  0  0  0  0  0  0  0  0  0
    6.6292  -11.7888   25.2226 C   0  0  0  0  0  0  0  0  0  0  0  0
    5.7719  -12.5172   26.0018 C   0  0  0  0  0  0  0  0  0  0  0  0
    5.9233  -13.8781   26.1321 C   0  0  0  0  0  0  0  0  0  0  0  0
    8.5505  -17.2188   23.9607 C   0  0  0  0  0  0  0  0  0  0  0  0
    8.6996  -18.4333   24.2361 O   0  0  0  0  0  0  0  0  0  0  0  0
    9.6516  -16.5039   23.4413 N   0  0  0  0  0  0  0  0  0  0  0  0
   10.9778  -17.0560   23.2852 C   0  0  1  0  0  0  0  0  0  0  0  0
   11.7729  -16.1672   22.3740 C   0  0  0  0  0  0  0  0  0  0  0  0
   11.3579  -16.1982   20.9781 C   0  0  0  0  0  0  0  0  0  0  0  0
   11.3118  -15.1325   20.3200 O   0  0  0  0  0  0  0  0  0  0  0  0
   11.6127  -17.1074   24.6212 C   0  0  0  0  0  0  0  0  0  0  0  0
   12.8227  -17.4213   24.7492 O   0  0  0  0  0  0  0  0  0  0  0  0
   11.0113  -17.3811   20.3565 O   0  0  0  0  0  0  0  0  0  0  0  0
    8.5934  -13.0713   28.0881 C   0  0  0  0  0  0  0  0  0  0  0  0
   10.0209  -13.6370   29.0149 S   0  0  0  0  0  0  0  0  0  0  0  0
   11.1825  -14.5876   27.9882 C   0  0  0  0  0  0  0  0  0  0  0  0
   10.8525  -16.0402   28.1646 C   0  0  0  0  0  0  0  0  0  0  0  0
   11.4952  -16.9326   27.1433 C   0  0  2  0  0  0  0  0  0  0  0  0
   10.9102  -16.8105   25.8309 N   0  0  0  0  0  0  0  0  0  0  0  0
   11.3982  -18.3490   27.5784 C   0  0  0  0  0  0  0  0  0  0  0  0
   10.7113  -19.2780   26.8217 O   0  0  0  0  0  0  0  0  0  0  0  0
   11.9329  -18.7641   28.6474 O   0  0  0  0  0  0  0  0  0  0  0  0
  2  1  1  1
  2 10  1  0
  3  2  1  0
  4  3  1  0
  4  9  2  0
  5  4  1  0
  6  5  2  0
  6  7  1  0
  7  8  2  0
  8  9  1  0
 10 11  2  0
 12 10  1  0
 12 13  1  0
 13 14  1  6
 14 15  1  0
 15 19  1  0
 16 15  2  0
 17 25  1  0
 17 13  1  0
 18 17  2  0
 20 21  1  0
 22 21  1  0
 23 22  1  0
 24 23  1  1
 24 25  1  0
 26 27  1  0
 26 24  1  0
 28 26  2  0
M  END
$$$$
