LEA.pdb
     RDKit          3D

 23 22  0  0  1  0  0  0  0  0999 V2000
   29.1394  -18.4333   -5.4214 C   0  0  0  0  0  0  0  0  0  0  0  0
   28.3513  -19.6812   -5.0655 C   0  0  2  0  0  0  0  0  0  0  0  0
   29.1307  -20.4420   -3.9793 C   0  0  0  0  0  0  0  0  0  0  0  0
   28.1463  -20.5622   -6.2753 C   0  0  0  0  0  0  0  0  0  0  0  0
   27.3464  -19.8148   -7.2946 C   0  0  2  0  0  0  0  0  0  0  0  0
   26.1909  -19.2502   -6.7275 N   0  0  0  0  0  0  0  0  0  0  0  0
   26.9959  -20.6291   -8.4722 C   0  0  0  0  0  0  0  0  0  0  0  0
   27.6803  -21.5891   -8.8910 O   0  0  0  0  0  0  0  0  0  0  0  0
   25.8029  -20.3098   -9.1869 N   0  0  0  0  0  0  0  0  0  0  0  0
   25.4432  -21.0412  -10.3911 C   0  0  1  0  0  0  0  0  0  0  0  0
   23.9898  -20.8409  -10.6987 C   0  0  0  0  0  0  0  0  0  0  0  0
   23.5351  -21.3421  -12.0354 C   0  0  0  0  0  0  0  0  0  0  0  0
   22.0706  -21.0424  -12.1067 C   0  0  0  0  0  0  0  0  0  0  0  0
   21.3689  -21.3547  -13.1045 O   0  0  0  0  0  0  0  0  0  0  0  0
   26.1795  -20.4671  -11.5688 C   0  0  0  0  0  0  0  0  0  0  0  0
   26.1940  -19.2166  -11.7236 O   0  0  0  0  0  0  0  0  0  0  0  0
   21.4743  -20.3977  -11.0378 O   0  0  0  0  0  0  0  0  0  0  0  0
   28.7798  -21.5955  -13.9016 C   0  0  0  0  0  0  0  0  0  0  0  0
   27.6273  -20.6311  -13.6133 C   0  0  2  0  0  0  0  0  0  0  0  0
   26.8660  -21.2508  -12.5307 N   0  0  0  0  0  0  0  0  0  0  0  0
   26.8641  -20.4153  -14.8347 C   0  0  0  0  0  0  0  0  0  0  0  0
   27.3915  -19.6737  -15.8744 O   0  0  0  0  0  0  0  0  0  0  0  0
   25.7106  -20.8943  -14.9800 O   0  0  0  0  0  0  0  0  0  0  0  0
  2  1  1  6
  2  4  1  0
  2  3  1  0
  5  7  1  0
  5  6  1  1
  5  4  1  0
  7  8  2  0
  9 10  1  0
  9  7  1  0
 10 11  1  6
 12 11  1  0
 13 14  2  0
 13 12  1  0
 15 16  2  0
 15 10  1  0
 17 13  1  0
 19 18  1  6
 19 20  1  0
 19 21  1  0
 20 15  1  0
 21 23  2  0
 21 22  1  0
M  END
$$$$
