LEA.pdb
     RDKit          3D

 23 22  0  0  1  0  0  0  0  0999 V2000
   19.0573  -12.9649  -17.1330 C   0  0  0  0  0  0  0  0  0  0  0  0
   20.3798  -12.3896  -16.6589 C   0  0  2  0  0  0  0  0  0  0  0  0
   21.1362  -13.4962  -15.9042 C   0  0  0  0  0  0  0  0  0  0  0  0
   20.1655  -11.1958  -15.7585 C   0  0  0  0  0  0  0  0  0  0  0  0
   19.4434  -10.1311  -16.5215 C   0  0  2  0  0  0  0  0  0  0  0  0
   20.1640   -9.7389  -17.6629 N   0  0  0  0  0  0  0  0  0  0  0  0
   19.1012   -8.9557  -15.7006 C   0  0  0  0  0  0  0  0  0  0  0  0
   18.5034   -9.0157  -14.6032 O   0  0  0  0  0  0  0  0  0  0  0  0
   19.4702   -7.6632  -16.1795 N   0  0  0  0  0  0  0  0  0  0  0  0
   19.1006   -6.4667  -15.4405 C   0  0  1  0  0  0  0  0  0  0  0  0
   20.3302   -5.7006  -15.0554 C   0  0  0  0  0  0  0  0  0  0  0  0
   20.9885   -6.1301  -13.7800 C   0  0  0  0  0  0  0  0  0  0  0  0
   22.1227   -5.1776  -13.5655 C   0  0  0  0  0  0  0  0  0  0  0  0
   23.3073   -5.4609  -13.8846 O   0  0  0  0  0  0  0  0  0  0  0  0
   18.3223   -5.5422  -16.3339 C   0  0  0  0  0  0  0  0  0  0  0  0
   18.7397   -5.3375  -17.5051 O   0  0  0  0  0  0  0  0  0  0  0  0
   21.8540   -3.9466  -12.9943 O   0  0  0  0  0  0  0  0  0  0  0  0
   15.0809   -3.7033  -16.2020 C   0  0  0  0  0  0  0  0  0  0  0  0
   16.4539   -3.9416  -16.8340 C   0  0  2  0  0  0  0  0  0  0  0  0
   17.1349   -4.8749  -15.9393 N   0  0  0  0  0  0  0  0  0  0  0  0
   17.1353   -2.6650  -16.9988 C   0  0  0  0  0  0  0  0  0  0  0  0
   16.8176   -1.8263  -18.0499 O   0  0  0  0  0  0  0  0  0  0  0  0
   18.0265   -2.2893  -16.1952 O   0  0  0  0  0  0  0  0  0  0  0  0
  2  1  1  1
  2  4  1  0
  2  3  1  0
  5  7  1  0
  5  6  1  6
  5  4  1  0
  7  8  2  0
  9 10  1  0
  9  7  1  0
 10 11  1  6
 12 11  1  0
 13 14  2  0
 13 12  1  0
 15 16  2  0
 15 10  1  0
 17 13  1  0
 19 18  1  1
 19 20  1  0
 19 21  1  0
 20 15  1  0
 21 23  2  0
 21 22  1  0
M  END
$$$$
