LEA.pdb
     RDKit          3D

 23 22  0  0  1  0  0  0  0  0999 V2000
   20.9282  -13.7419  -15.1288 C   0  0  0  0  0  0  0  0  0  0  0  0
   22.4259  -13.7933  -15.3719 C   0  0  2  0  0  0  0  0  0  0  0  0
   23.0767  -14.5139  -14.1788 C   0  0  0  0  0  0  0  0  0  0  0  0
   23.0036  -12.4057  -15.5226 C   0  0  0  0  0  0  0  0  0  0  0  0
   22.3249  -11.7145  -16.6622 C   0  0  2  0  0  0  0  0  0  0  0  0
   22.5654  -12.3744  -17.8798 N   0  0  0  0  0  0  0  0  0  0  0  0
   22.6779  -10.2877  -16.7724 C   0  0  0  0  0  0  0  0  0  0  0  0
   23.8396   -9.8402  -16.6479 O   0  0  0  0  0  0  0  0  0  0  0  0
   21.6357   -9.3496  -17.0368 N   0  0  0  0  0  0  0  0  0  0  0  0
   21.9306   -7.9311  -17.1608 C   0  0  1  0  0  0  0  0  0  0  0  0
   21.3192   -7.3874  -18.4169 C   0  0  0  0  0  0  0  0  0  0  0  0
   21.5899   -5.9405  -18.6959 C   0  0  0  0  0  0  0  0  0  0  0  0
   21.1325   -5.7036  -20.1011 C   0  0  0  0  0  0  0  0  0  0  0  0
   20.0053   -5.2091  -20.3662 O   0  0  0  0  0  0  0  0  0  0  0  0
   21.2689   -7.1785  -16.0409 C   0  0  0  0  0  0  0  0  0  0  0  0
   20.0924   -7.4896  -15.7136 O   0  0  0  0  0  0  0  0  0  0  0  0
   21.9808   -6.0444  -21.1394 O   0  0  0  0  0  0  0  0  0  0  0  0
   22.1915   -4.3985  -13.7129 C   0  0  0  0  0  0  0  0  0  0  0  0
   21.1913   -5.4281  -14.2428 C   0  0  2  0  0  0  0  0  0  0  0  0
   21.8889   -6.1261  -15.3205 N   0  0  0  0  0  0  0  0  0  0  0  0
   19.9746   -4.7455  -14.6606 C   0  0  0  0  0  0  0  0  0  0  0  0
   18.8921   -4.6476  -13.8077 O   0  0  0  0  0  0  0  0  0  0  0  0
   19.8728   -4.2273  -15.8019 O   0  0  0  0  0  0  0  0  0  0  0  0
  2  1  1  1
  2  4  1  0
  2  3  1  0
  5  7  1  0
  5  6  1  6
  5  4  1  0
  7  8  2  0
  9 10  1  0
  9  7  1  0
 10 11  1  6
 12 11  1  0
 13 14  2  0
 13 12  1  0
 15 16  2  0
 15 10  1  0
 17 13  1  0
 19 18  1  6
 19 20  1  0
 19 21  1  0
 20 15  1  0
 21 23  2  0
 21 22  1  0
M  END
$$$$
