LEA.pdb
     RDKit          3D

 23 22  0  0  1  0  0  0  0  0999 V2000
   17.7130  -11.7267  -17.9747 C   0  0  0  0  0  0  0  0  0  0  0  0
   17.4003  -11.9380  -16.5042 C   0  0  2  0  0  0  0  0  0  0  0  0
   15.9047  -12.2759  -16.3800 C   0  0  0  0  0  0  0  0  0  0  0  0
   17.7266  -10.7060  -15.6931 C   0  0  0  0  0  0  0  0  0  0  0  0
   19.1878  -10.4116  -15.8174 C   0  0  2  0  0  0  0  0  0  0  0  0
   19.9685  -11.4557  -15.2919 N   0  0  0  0  0  0  0  0  0  0  0  0
   19.5767   -9.1246  -15.2132 C   0  0  0  0  0  0  0  0  0  0  0  0
   19.4965   -8.8700  -13.9909 O   0  0  0  0  0  0  0  0  0  0  0  0
   20.0767   -8.0975  -16.0682 N   0  0  0  0  0  0  0  0  0  0  0  0
   20.6109   -6.8653  -15.5109 C   0  0  1  0  0  0  0  0  0  0  0  0
   22.0307   -6.6751  -15.9526 C   0  0  0  0  0  0  0  0  0  0  0  0
   23.0378   -7.5736  -15.3022 C   0  0  0  0  0  0  0  0  0  0  0  0
   24.3346   -7.3048  -15.9994 C   0  0  0  0  0  0  0  0  0  0  0  0
   24.9854   -8.2125  -16.5806 O   0  0  0  0  0  0  0  0  0  0  0  0
   19.8610   -5.6905  -16.0732 C   0  0  0  0  0  0  0  0  0  0  0  0
   19.3438   -5.7932  -17.2177 O   0  0  0  0  0  0  0  0  0  0  0  0
   24.8307   -6.0135  -15.9990 O   0  0  0  0  0  0  0  0  0  0  0  0
   17.9344   -4.1238  -16.9550 C   0  0  0  0  0  0  0  0  0  0  0  0
   18.7855   -3.4295  -15.8896 C   0  0  2  0  0  0  0  0  0  0  0  0
   19.6970   -4.4576  -15.3922 N   0  0  0  0  0  0  0  0  0  0  0  0
   17.9122   -2.8606  -14.8724 C   0  0  0  0  0  0  0  0  0  0  0  0
   17.8836   -3.3841  -13.5941 O   0  0  0  0  0  0  0  0  0  0  0  0
   17.1634   -1.8823  -15.1241 O   0  0  0  0  0  0  0  0  0  0  0  0
  2  1  1  6
  2  4  1  0
  2  3  1  0
  5  7  1  0
  5  6  1  1
  5  4  1  0
  7  8  2  0
  9 10  1  0
  9  7  1  0
 10 11  1  6
 12 11  1  0
 13 14  2  0
 13 12  1  0
 15 16  2  0
 15 10  1  0
 17 13  1  0
 19 18  1  6
 19 20  1  0
 19 21  1  0
 20 15  1  0
 21 23  2  0
 21 22  1  0
M  END
$$$$
