LEA.pdb
     RDKit          3D

 23 22  0  0  1  0  0  0  0  0999 V2000
   36.5569   -6.7373   -8.2176 C   0  0  0  0  0  0  0  0  0  0  0  0
   38.0286   -6.3828   -8.3334 C   0  0  2  0  0  0  0  0  0  0  0  0
   38.7898   -7.6479   -8.7651 C   0  0  0  0  0  0  0  0  0  0  0  0
   38.5722   -5.8684   -7.0212 C   0  0  0  0  0  0  0  0  0  0  0  0
   37.7036   -4.7513   -6.5364 C   0  0  2  0  0  0  0  0  0  0  0  0
   37.5943   -3.7315   -7.4975 N   0  0  0  0  0  0  0  0  0  0  0  0
   38.1380   -4.1942   -5.2428 C   0  0  0  0  0  0  0  0  0  0  0  0
   38.5155   -4.8865   -4.2714 O   0  0  0  0  0  0  0  0  0  0  0  0
   38.1305   -2.7769   -5.0777 N   0  0  0  0  0  0  0  0  0  0  0  0
   38.6175   -2.1723   -3.8482 C   0  0  1  0  0  0  0  0  0  0  0  0
   39.3161   -0.8813   -4.1525 C   0  0  0  0  0  0  0  0  0  0  0  0
   40.6945   -1.0096   -4.7253 C   0  0  0  0  0  0  0  0  0  0  0  0
   41.0090    0.3213   -5.3333 C   0  0  0  0  0  0  0  0  0  0  0  0
   40.2442    1.3138   -5.2095 O   0  0  0  0  0  0  0  0  0  0  0  0
   37.4532   -1.7959   -2.9756 C   0  0  0  0  0  0  0  0  0  0  0  0
   36.3686   -1.4615   -3.5232 O   0  0  0  0  0  0  0  0  0  0  0  0
   42.1801    0.4581   -6.0568 O   0  0  0  0  0  0  0  0  0  0  0  0
   36.6891   -1.7859    0.6798 C   0  0  0  0  0  0  0  0  0  0  0  0
   36.3249   -1.4293   -0.7631 C   0  0  2  0  0  0  0  0  0  0  0  0
   37.4966   -1.7901   -1.5583 N   0  0  0  0  0  0  0  0  0  0  0  0
   35.9642   -0.0201   -0.8335 C   0  0  0  0  0  0  0  0  0  0  0  0
   34.7004    0.4037   -0.4702 O   0  0  0  0  0  0  0  0  0  0  0  0
   36.7861    0.8480   -1.2236 O   0  0  0  0  0  0  0  0  0  0  0  0
  2  1  1  1
  2  4  1  0
  2  3  1  0
  5  7  1  0
  5  6  1  6
  5  4  1  0
  7  8  2  0
  9 10  1  0
  9  7  1  0
 10 11  1  6
 12 11  1  0
 13 14  2  0
 13 12  1  0
 15 16  2  0
 15 10  1  0
 17 13  1  0
 19 18  1  1
 19 20  1  0
 19 21  1  0
 20 15  1  0
 21 23  2  0
 21 22  1  0
M  END
$$$$
