LEA.pdb
     RDKit          3D

 23 22  0  0  1  0  0  0  0  0999 V2000
   18.9514  -12.2829  -18.3328 C   0  0  0  0  0  0  0  0  0  0  0  0
   19.7057  -12.3404  -17.0165 C   0  0  2  0  0  0  0  0  0  0  0  0
   19.1890  -13.5541  -16.2251 C   0  0  0  0  0  0  0  0  0  0  0  0
   19.5091  -11.0736  -16.2176 C   0  0  0  0  0  0  0  0  0  0  0  0
   19.9106   -9.9005  -17.0542 C   0  0  2  0  0  0  0  0  0  0  0  0
   21.2909   -9.9073  -17.3195 N   0  0  0  0  0  0  0  0  0  0  0  0
   19.5044   -8.6064  -16.4771 C   0  0  0  0  0  0  0  0  0  0  0  0
   18.3461   -8.3465  -16.0820 O   0  0  0  0  0  0  0  0  0  0  0  0
   20.4869   -7.5786  -16.3581 N   0  0  0  0  0  0  0  0  0  0  0  0
   20.1387   -6.2833  -15.7965 C   0  0  1  0  0  0  0  0  0  0  0  0
   21.0667   -5.9464  -14.6685 C   0  0  0  0  0  0  0  0  0  0  0  0
   20.7670   -6.6140  -13.3612 C   0  0  0  0  0  0  0  0  0  0  0  0
   21.7457   -6.0482  -12.3805 C   0  0  0  0  0  0  0  0  0  0  0  0
   22.6415   -5.2314  -12.7207 O   0  0  0  0  0  0  0  0  0  0  0  0
   20.3614   -5.2109  -16.8256 C   0  0  0  0  0  0  0  0  0  0  0  0
   21.3608   -5.3007  -17.5879 O   0  0  0  0  0  0  0  0  0  0  0  0
   21.6594   -6.4424  -11.0572 O   0  0  0  0  0  0  0  0  0  0  0  0
   18.3969   -2.3671  -18.2017 C   0  0  0  0  0  0  0  0  0  0  0  0
   19.7121   -3.1410  -18.0893 C   0  0  2  0  0  0  0  0  0  0  0  0
   19.5108   -4.0892  -16.9957 N   0  0  0  0  0  0  0  0  0  0  0  0
   20.8051   -2.2027  -17.8746 C   0  0  0  0  0  0  0  0  0  0  0  0
   21.4888   -2.1787  -16.6743 O   0  0  0  0  0  0  0  0  0  0  0  0
   21.1579   -1.3920  -18.7688 O   0  0  0  0  0  0  0  0  0  0  0  0
  2  1  1  6
  2  4  1  0
  2  3  1  0
  5  7  1  0
  5  6  1  1
  5  4  1  0
  7  8  2  0
  9 10  1  0
  9  7  1  0
 10 11  1  1
 12 11  1  0
 13 14  2  0
 13 12  1  0
 15 16  2  0
 15 10  1  0
 17 13  1  0
 19 18  1  1
 19 20  1  0
 19 21  1  0
 20 15  1  0
 21 23  2  0
 21 22  1  0
M  END
$$$$
