LEA.pdb
     RDKit          3D

 23 22  0  0  1  0  0  0  0  0999 V2000
   25.8424  -13.2815  -17.7180 C   0  0  0  0  0  0  0  0  0  0  0  0
   24.3697  -13.6256  -17.8509 C   0  0  2  0  0  0  0  0  0  0  0  0
   24.2052  -14.5475  -19.0712 C   0  0  0  0  0  0  0  0  0  0  0  0
   23.5303  -12.3811  -18.0194 C   0  0  0  0  0  0  0  0  0  0  0  0
   23.6755  -11.5246  -16.8018 C   0  0  2  0  0  0  0  0  0  0  0  0
   23.3845  -12.2444  -15.6300 N   0  0  0  0  0  0  0  0  0  0  0  0
   22.8734  -10.2893  -16.8588 C   0  0  0  0  0  0  0  0  0  0  0  0
   22.9853   -9.4201  -17.7517 O   0  0  0  0  0  0  0  0  0  0  0  0
   21.9061  -10.0608  -15.8350 N   0  0  0  0  0  0  0  0  0  0  0  0
   21.0767   -8.8665  -15.8536 C   0  0  1  0  0  0  0  0  0  0  0  0
   19.7738   -9.1354  -15.1628 C   0  0  0  0  0  0  0  0  0  0  0  0
   18.8146  -10.0133  -15.9071 C   0  0  0  0  0  0  0  0  0  0  0  0
   17.6284  -10.1748  -15.0089 C   0  0  0  0  0  0  0  0  0  0  0  0
   17.0476   -9.1908  -14.4799 O   0  0  0  0  0  0  0  0  0  0  0  0
   21.7353   -7.7824  -15.0476 C   0  0  0  0  0  0  0  0  0  0  0  0
   22.3421   -8.0978  -13.9892 O   0  0  0  0  0  0  0  0  0  0  0  0
   17.1610  -11.4515  -14.7533 O   0  0  0  0  0  0  0  0  0  0  0  0
   22.4256   -4.1394  -15.4537 C   0  0  0  0  0  0  0  0  0  0  0  0
   22.4006   -5.4046  -14.5934 C   0  0  2  0  0  0  0  0  0  0  0  0
   21.7165   -6.4100  -15.4038 N   0  0  0  0  0  0  0  0  0  0  0  0
   21.7466   -5.1110  -13.3257 C   0  0  0  0  0  0  0  0  0  0  0  0
   22.4513   -4.5385  -12.2843 O   0  0  0  0  0  0  0  0  0  0  0  0
   20.5294   -5.3671  -13.1415 O   0  0  0  0  0  0  0  0  0  0  0  0
  2  1  1  6
  2  4  1  0
  2  3  1  0
  5  7  1  0
  5  6  1  1
  5  4  1  0
  7  8  2  0
  9 10  1  0
  9  7  1  0
 10 11  1  1
 12 11  1  0
 13 14  2  0
 13 12  1  0
 15 16  2  0
 15 10  1  0
 17 13  1  0
 19 18  1  6
 19 20  1  0
 19 21  1  0
 20 15  1  0
 21 23  2  0
 21 22  1  0
M  END
$$$$
