LEA.pdb
     RDKit          3D

 23 22  0  0  1  0  0  0  0  0999 V2000
   24.5899  -14.1941  -14.9236 C   0  0  0  0  0  0  0  0  0  0  0  0
   23.9011  -14.1052  -16.2736 C   0  0  2  0  0  0  0  0  0  0  0  0
   24.7005  -14.9595  -17.2723 C   0  0  0  0  0  0  0  0  0  0  0  0
   23.8228  -12.6754  -16.7547 C   0  0  0  0  0  0  0  0  0  0  0  0
   22.9907  -11.8824  -15.7976 C   0  0  2  0  0  0  0  0  0  0  0  0
   21.7512  -12.5012  -15.5599 N   0  0  0  0  0  0  0  0  0  0  0  0
   22.7946  -10.4828  -16.2165 C   0  0  0  0  0  0  0  0  0  0  0  0
   23.7074   -9.7454  -16.6505 O   0  0  0  0  0  0  0  0  0  0  0  0
   21.4848   -9.9244  -16.1244 N   0  0  0  0  0  0  0  0  0  0  0  0
   21.2351   -8.5513  -16.5328 C   0  0  1  0  0  0  0  0  0  0  0  0
   19.7874   -8.3737  -16.8789 C   0  0  0  0  0  0  0  0  0  0  0  0
   19.4170   -7.0402  -17.4526 C   0  0  0  0  0  0  0  0  0  0  0  0
   17.9501   -7.1131  -17.7400 C   0  0  0  0  0  0  0  0  0  0  0  0
   17.3913   -6.3566  -18.5772 O   0  0  0  0  0  0  0  0  0  0  0  0
   21.4808   -7.6274  -15.3732 C   0  0  0  0  0  0  0  0  0  0  0  0
   21.2218   -8.0341  -14.2089 O   0  0  0  0  0  0  0  0  0  0  0  0
   17.1875   -8.0437  -17.0572 O   0  0  0  0  0  0  0  0  0  0  0  0
   23.1556   -4.3371  -14.8676 C   0  0  0  0  0  0  0  0  0  0  0  0
   22.3177   -5.5009  -14.3339 C   0  0  2  0  0  0  0  0  0  0  0  0
   21.9894   -6.3104  -15.5053 N   0  0  0  0  0  0  0  0  0  0  0  0
   21.1589   -4.9740  -13.6264 C   0  0  0  0  0  0  0  0  0  0  0  0
   21.2271   -4.6862  -12.2767 O   0  0  0  0  0  0  0  0  0  0  0  0
   20.0689   -4.7658  -14.2177 O   0  0  0  0  0  0  0  0  0  0  0  0
  2  1  1  1
  2  4  1  0
  2  3  1  0
  5  7  1  0
  5  6  1  6
  5  4  1  0
  7  8  2  0
  9 10  1  0
  9  7  1  0
 10 11  1  1
 12 11  1  0
 13 14  2  0
 13 12  1  0
 15 16  2  0
 15 10  1  0
 17 13  1  0
 19 18  1  6
 19 20  1  0
 19 21  1  0
 20 15  1  0
 21 23  2  0
 21 22  1  0
M  END
$$$$
