LEA.pdb
     RDKit          3D

 23 22  0  0  1  0  0  0  0  0999 V2000
   15.6871  -12.3368  -14.5583 C   0  0  0  0  0  0  0  0  0  0  0  0
   16.6876  -13.0134  -15.4780 C   0  0  2  0  0  0  0  0  0  0  0  0
   16.7017  -14.5146  -15.1429 C   0  0  0  0  0  0  0  0  0  0  0  0
   18.0696  -12.4273  -15.3086 C   0  0  0  0  0  0  0  0  0  0  0  0
   18.0031  -10.9483  -15.5218 C   0  0  2  0  0  0  0  0  0  0  0  0
   17.4613  -10.6348  -16.7803 N   0  0  0  0  0  0  0  0  0  0  0  0
   19.3008  -10.2739  -15.3382 C   0  0  0  0  0  0  0  0  0  0  0  0
   20.0822  -10.5016  -14.3881 O   0  0  0  0  0  0  0  0  0  0  0  0
   19.6996   -9.2973  -16.2992 N   0  0  0  0  0  0  0  0  0  0  0  0
   20.9573   -8.5830  -16.1503 C   0  0  1  0  0  0  0  0  0  0  0  0
   21.5507   -8.3016  -17.4979 C   0  0  0  0  0  0  0  0  0  0  0  0
   22.1121   -9.4885  -18.2195 C   0  0  0  0  0  0  0  0  0  0  0  0
   22.6434   -8.9636  -19.5164 C   0  0  0  0  0  0  0  0  0  0  0  0
   23.6438   -8.2010  -19.5729 O   0  0  0  0  0  0  0  0  0  0  0  0
   20.7018   -7.2331  -15.5411 C   0  0  0  0  0  0  0  0  0  0  0  0
   19.6453   -6.6192  -15.8494 O   0  0  0  0  0  0  0  0  0  0  0  0
   22.0076   -9.3304  -20.6889 O   0  0  0  0  0  0  0  0  0  0  0  0
   22.1651   -5.2114  -12.7864 C   0  0  0  0  0  0  0  0  0  0  0  0
   21.2345   -5.3277  -13.9956 C   0  0  2  0  0  0  0  0  0  0  0  0
   21.5840   -6.5959  -14.6321 N   0  0  0  0  0  0  0  0  0  0  0  0
   21.4083   -4.1611  -14.8498 C   0  0  0  0  0  0  0  0  0  0  0  0
   20.8374   -2.9488  -14.5131 O   0  0  0  0  0  0  0  0  0  0  0  0
   22.0789   -4.2206  -15.9119 O   0  0  0  0  0  0  0  0  0  0  0  0
  2  1  1  1
  2  4  1  0
  2  3  1  0
  5  7  1  0
  5  6  1  6
  5  4  1  0
  7  8  2  0
  9 10  1  0
  9  7  1  0
 10 11  1  6
 12 11  1  0
 13 14  2  0
 13 12  1  0
 15 16  2  0
 15 10  1  0
 17 13  1  0
 19 18  1  1
 19 20  1  0
 19 21  1  0
 20 15  1  0
 21 23  2  0
 21 22  1  0
M  END
$$$$
