LEA.pdb
     RDKit          3D

 23 22  0  0  1  0  0  0  0  0999 V2000
   28.3190  -21.5793   -9.8792 C   0  0  0  0  0  0  0  0  0  0  0  0
   28.5112  -21.3995  -11.3744 C   0  0  2  0  0  0  0  0  0  0  0  0
   29.9514  -20.9147  -11.6137 C   0  0  0  0  0  0  0  0  0  0  0  0
   27.5245  -20.4035  -11.9368 C   0  0  0  0  0  0  0  0  0  0  0  0
   26.1348  -20.8880  -11.6701 C   0  0  2  0  0  0  0  0  0  0  0  0
   26.0781  -22.2920  -11.6358 N   0  0  0  0  0  0  0  0  0  0  0  0
   25.1398  -20.3563  -12.6188 C   0  0  0  0  0  0  0  0  0  0  0  0
   24.9603  -19.1378  -12.8386 O   0  0  0  0  0  0  0  0  0  0  0  0
   24.3245  -21.2819  -13.3362 N   0  0  0  0  0  0  0  0  0  0  0  0
   23.3678  -20.8131  -14.3259 C   0  0  1  0  0  0  0  0  0  0  0  0
   23.4017  -21.7006  -15.5335 C   0  0  0  0  0  0  0  0  0  0  0  0
   22.5163  -21.2851  -16.6683 C   0  0  0  0  0  0  0  0  0  0  0  0
   22.7016  -22.3223  -17.7312 C   0  0  0  0  0  0  0  0  0  0  0  0
   23.4550  -23.3186  -17.5733 O   0  0  0  0  0  0  0  0  0  0  0  0
   21.9735  -20.9412  -13.7799 C   0  0  0  0  0  0  0  0  0  0  0  0
   21.6477  -22.0083  -13.1941 O   0  0  0  0  0  0  0  0  0  0  0  0
   22.0210  -22.1738  -18.9264 O   0  0  0  0  0  0  0  0  0  0  0  0
   19.3422  -18.8758  -12.5245 C   0  0  0  0  0  0  0  0  0  0  0  0
   19.6373  -20.1235  -13.3597 C   0  0  2  0  0  0  0  0  0  0  0  0
   20.9872  -19.9277  -13.8840 N   0  0  0  0  0  0  0  0  0  0  0  0
   18.6125  -20.2696  -14.3841 C   0  0  0  0  0  0  0  0  0  0  0  0
   17.3161  -20.6037  -14.0424 O   0  0  0  0  0  0  0  0  0  0  0  0
   18.8738  -20.0970  -15.6019 O   0  0  0  0  0  0  0  0  0  0  0  0
  2  1  1  1
  2  4  1  0
  2  3  1  0
  5  7  1  0
  5  6  1  6
  5  4  1  0
  7  8  2  0
  9 10  1  0
  9  7  1  0
 10 11  1  6
 12 11  1  0
 13 14  2  0
 13 12  1  0
 15 16  2  0
 15 10  1  0
 17 13  1  0
 19 18  1  1
 19 20  1  0
 19 21  1  0
 20 15  1  0
 21 23  2  0
 21 22  1  0
M  END
$$$$
