LEA.pdb
     RDKit          3D

 23 22  0  0  1  0  0  0  0  0999 V2000
   37.7638  -13.1337   -8.5920 C   0  0  0  0  0  0  0  0  0  0  0  0
   37.2686  -12.3132   -7.4145 C   0  0  2  0  0  0  0  0  0  0  0  0
   35.9201  -12.8983   -6.9610 C   0  0  0  0  0  0  0  0  0  0  0  0
   37.1071  -10.8590   -7.7905 C   0  0  0  0  0  0  0  0  0  0  0  0
   38.4165  -10.3342   -8.2877 C   0  0  2  0  0  0  0  0  0  0  0  0
   39.3621  -10.2479   -7.2514 N   0  0  0  0  0  0  0  0  0  0  0  0
   38.2992   -9.0412   -8.9856 C   0  0  0  0  0  0  0  0  0  0  0  0
   37.5500   -8.8383   -9.9668 O   0  0  0  0  0  0  0  0  0  0  0  0
   39.0865   -7.9457   -8.5207 N   0  0  0  0  0  0  0  0  0  0  0  0
   39.0454   -6.6624   -9.2032 C   0  0  1  0  0  0  0  0  0  0  0  0
   39.1362   -5.5471   -8.2057 C   0  0  0  0  0  0  0  0  0  0  0  0
   37.8455   -5.1526   -7.5552 C   0  0  0  0  0  0  0  0  0  0  0  0
   38.1773   -4.0053   -6.6533 C   0  0  0  0  0  0  0  0  0  0  0  0
   38.7864   -4.1626   -5.5626 O   0  0  0  0  0  0  0  0  0  0  0  0
   40.2617   -6.5146  -10.0735 C   0  0  0  0  0  0  0  0  0  0  0  0
   41.3427   -7.0427   -9.6988 O   0  0  0  0  0  0  0  0  0  0  0  0
   37.7966   -2.7315   -7.0358 O   0  0  0  0  0  0  0  0  0  0  0  0
   41.0527   -5.0049  -13.4026 C   0  0  0  0  0  0  0  0  0  0  0  0
   41.4775   -5.7369  -12.1277 C   0  0  2  0  0  0  0  0  0  0  0  0
   40.2730   -5.8090  -11.3034 N   0  0  0  0  0  0  0  0  0  0  0  0
   42.5847   -5.0213  -11.5088 C   0  0  0  0  0  0  0  0  0  0  0  0
   43.8902   -5.4190  -11.7243 O   0  0  0  0  0  0  0  0  0  0  0  0
   42.3881   -4.0264  -10.7653 O   0  0  0  0  0  0  0  0  0  0  0  0
  2  1  1  6
  2  4  1  0
  2  3  1  0
  5  7  1  0
  5  6  1  1
  5  4  1  0
  7  8  2  0
  9 10  1  0
  9  7  1  0
 10 11  1  1
 12 11  1  0
 13 14  2  0
 13 12  1  0
 15 16  2  0
 15 10  1  0
 17 13  1  0
 19 18  1  6
 19 20  1  0
 19 21  1  0
 20 15  1  0
 21 23  2  0
 21 22  1  0
M  END
$$$$
