LEA.pdb
     RDKit          3D

 23 22  0  0  1  0  0  0  0  0999 V2000
   28.3921  -16.3895  -16.3888 C   0  0  0  0  0  0  0  0  0  0  0  0
   27.8719  -17.2843  -17.4995 C   0  0  2  0  0  0  0  0  0  0  0  0
   27.1444  -16.3966  -18.5237 C   0  0  0  0  0  0  0  0  0  0  0  0
   26.9321  -18.3365  -16.9593 C   0  0  0  0  0  0  0  0  0  0  0  0
   27.6596  -19.1728  -15.9551 C   0  0  2  0  0  0  0  0  0  0  0  0
   28.7165  -19.8845  -16.5485 N   0  0  0  0  0  0  0  0  0  0  0  0
   26.7771  -20.0890  -15.2103 C   0  0  0  0  0  0  0  0  0  0  0  0
   26.2253  -21.0940  -15.7110 O   0  0  0  0  0  0  0  0  0  0  0  0
   26.5298  -19.8207  -13.8309 N   0  0  0  0  0  0  0  0  0  0  0  0
   25.6290  -20.6648  -13.0625 C   0  0  1  0  0  0  0  0  0  0  0  0
   25.8812  -20.4836  -11.5960 C   0  0  0  0  0  0  0  0  0  0  0  0
   24.9920  -21.2716  -10.6832 C   0  0  0  0  0  0  0  0  0  0  0  0
   25.4526  -20.9578   -9.2943 C   0  0  0  0  0  0  0  0  0  0  0  0
   26.3966  -20.1569   -9.0645 O   0  0  0  0  0  0  0  0  0  0  0  0
   24.2108  -20.2168  -13.2783 C   0  0  0  0  0  0  0  0  0  0  0  0
   23.9590  -18.9821  -13.2805 O   0  0  0  0  0  0  0  0  0  0  0  0
   24.8171  -21.5742   -8.2313 O   0  0  0  0  0  0  0  0  0  0  0  0
   21.1722  -21.3399  -14.8213 C   0  0  0  0  0  0  0  0  0  0  0  0
   21.7534  -20.6113  -13.6077 C   0  0  2  0  0  0  0  0  0  0  0  0
   23.1232  -21.1040  -13.4802 N   0  0  0  0  0  0  0  0  0  0  0  0
   20.9141  -20.8679  -12.4456 C   0  0  0  0  0  0  0  0  0  0  0  0
   19.7268  -20.1840  -12.2680 O   0  0  0  0  0  0  0  0  0  0  0  0
   21.2414  -21.7141  -11.5748 O   0  0  0  0  0  0  0  0  0  0  0  0
  2  1  1  1
  2  4  1  0
  2  3  1  0
  5  7  1  0
  5  6  1  6
  5  4  1  0
  7  8  2  0
  9 10  1  0
  9  7  1  0
 10 11  1  1
 12 11  1  0
 13 14  2  0
 13 12  1  0
 15 16  2  0
 15 10  1  0
 17 13  1  0
 19 18  1  6
 19 20  1  0
 19 21  1  0
 20 15  1  0
 21 23  2  0
 21 22  1  0
M  END
$$$$
