LEA.pdb
     RDKit          3D

 23 22  0  0  1  0  0  0  0  0999 V2000
   28.2309  -20.6090  -11.5889 C   0  0  0  0  0  0  0  0  0  0  0  0
   26.8241  -21.1102  -11.3155 C   0  0  2  0  0  0  0  0  0  0  0  0
   26.6873  -22.5081  -11.9429 C   0  0  0  0  0  0  0  0  0  0  0  0
   25.7882  -20.1747  -11.8932 C   0  0  0  0  0  0  0  0  0  0  0  0
   24.9987  -20.9024  -12.9346 C   0  0  2  0  0  0  0  0  0  0  0  0
   25.7200  -21.0229  -14.1349 N   0  0  0  0  0  0  0  0  0  0  0  0
   23.6759  -20.3034  -13.1876 C   0  0  0  0  0  0  0  0  0  0  0  0
   22.8764  -19.9613  -12.2882 O   0  0  0  0  0  0  0  0  0  0  0  0
   23.2723  -20.0974  -14.5407 N   0  0  0  0  0  0  0  0  0  0  0  0
   22.0106  -19.4417  -14.8450 C   0  0  1  0  0  0  0  0  0  0  0  0
   22.0855  -18.7829  -16.1895 C   0  0  0  0  0  0  0  0  0  0  0  0
   20.8643  -18.0224  -16.6075 C   0  0  0  0  0  0  0  0  0  0  0  0
   21.1465  -17.5263  -17.9911 C   0  0  0  0  0  0  0  0  0  0  0  0
   21.5334  -18.2915  -18.9131 O   0  0  0  0  0  0  0  0  0  0  0  0
   20.9237  -20.4722  -14.9696 C   0  0  0  0  0  0  0  0  0  0  0  0
   21.1374  -21.4965  -15.6717 O   0  0  0  0  0  0  0  0  0  0  0  0
   20.9770  -16.1796  -18.2585 O   0  0  0  0  0  0  0  0  0  0  0  0
   17.9492  -21.5416  -13.1759 C   0  0  0  0  0  0  0  0  0  0  0  0
   18.6216  -21.3773  -14.5406 C   0  0  2  0  0  0  0  0  0  0  0  0
   19.6565  -20.3647  -14.3425 N   0  0  0  0  0  0  0  0  0  0  0  0
   17.6163  -21.0200  -15.5319 C   0  0  0  0  0  0  0  0  0  0  0  0
   17.6544  -19.7922  -16.1644 O   0  0  0  0  0  0  0  0  0  0  0  0
   16.6900  -21.8123  -15.8408 O   0  0  0  0  0  0  0  0  0  0  0  0
  2  1  1  6
  2  4  1  0
  2  3  1  0
  5  7  1  0
  5  6  1  6
  5  4  1  0
  7  8  2  0
  9 10  1  0
  9  7  1  0
 10 11  1  6
 12 11  1  0
 13 14  2  0
 13 12  1  0
 15 16  2  0
 15 10  1  0
 17 13  1  0
 19 18  1  1
 19 20  1  0
 19 21  1  0
 20 15  1  0
 21 23  2  0
 21 22  1  0
M  END
$$$$
