WID.pdb
     RDKit          3D

 31 32  0  0  1  0  0  0  0  0999 V2000
    9.7077  -17.1338   21.9077 N   0  0  0  0  0  0  0  0  0  0  0  0
    9.3934  -16.0644   22.8373 C   0  0  1  0  0  0  0  0  0  0  0  0
    7.9005  -15.9130   23.0372 C   0  0  0  0  0  0  0  0  0  0  0  0
    7.4792  -14.4998   23.0576 C   0  0  0  0  0  0  0  0  0  0  0  0
    7.4550  -13.6460   21.9803 C   0  0  0  0  0  0  0  0  0  0  0  0
    7.0105  -12.4695   22.4397 N   0  0  0  0  0  0  0  0  0  0  0  0
    6.7518  -12.5450   23.7682 C   0  0  0  0  0  0  0  0  0  0  0  0
    6.2917  -11.6295   24.6677 C   0  0  0  0  0  0  0  0  0  0  0  0
    6.1330  -12.0371   25.9896 C   0  0  0  0  0  0  0  0  0  0  0  0
    6.4243  -13.3120   26.3922 C   0  0  0  0  0  0  0  0  0  0  0  0
    6.8877  -14.2351   25.4867 C   0  0  0  0  0  0  0  0  0  0  0  0
    7.0472  -13.8266   24.1604 C   0  0  0  0  0  0  0  0  0  0  0  0
    9.9693  -16.4537   24.1580 C   0  0  0  0  0  0  0  0  0  0  0  0
   10.9202  -17.3004   24.1085 O   0  0  0  0  0  0  0  0  0  0  0  0
    9.3366  -13.1016   28.5888 C   0  0  0  0  0  0  0  0  0  0  0  0
    9.9023  -13.8550   27.4208 C   0  0  0  0  0  0  0  0  0  0  0  0
    9.8968  -15.3157   27.7211 C   0  0  2  0  0  0  0  0  0  0  0  0
   10.8099  -15.5427   28.9230 C   0  0  0  0  0  0  0  0  0  0  0  0
   10.3474  -16.1625   26.5702 C   0  0  2  0  0  0  0  0  0  0  0  0
    9.5346  -15.9577   25.3902 N   0  0  0  0  0  0  0  0  0  0  0  0
   10.3839  -17.6153   26.9389 C   0  0  0  0  0  0  0  0  0  0  0  0
    9.3154  -18.1813   27.2284 O   0  0  0  0  0  0  0  0  0  0  0  0
   11.5851  -18.3366   26.9636 N   0  0  0  0  0  0  0  0  0  0  0  0
   11.5367  -19.7672   27.3072 C   0  0  1  0  0  0  0  0  0  0  0  0
   12.7884  -20.4404   26.8568 C   0  0  0  0  0  0  0  0  0  0  0  0
   12.9132  -20.5245   25.4026 C   0  0  0  0  0  0  0  0  0  0  0  0
   12.1213  -20.0841   24.5591 O   0  0  0  0  0  0  0  0  0  0  0  0
   11.2990  -19.8867   28.7670 C   0  0  0  0  0  0  0  0  0  0  0  0
   10.8091  -21.0177   29.3559 O   0  0  0  0  0  0  0  0  0  0  0  0
   14.0628  -21.1790   24.8779 O   0  0  0  0  0  0  0  0  0  0  0  0
   11.5520  -18.9146   29.5219 O   0  0  0  0  0  0  0  0  0  0  0  0
  2 13  1  0
  2  3  1  0
  2  1  1  6
  4  3  1  0
  4  5  2  0
  6  5  1  0
  7  6  1  0
  8  7  2  0
  9  8  1  0
 10  9  2  0
 10 11  1  0
 11 12  2  0
 12  7  1  0
 12  4  1  0
 13 14  2  0
 16 15  1  0
 17 16  1  0
 17 19  1  0
 17 18  1  1
 19 21  1  0
 19 20  1  6
 20 13  1  0
 21 22  2  0
 23 21  1  0
 23 24  1  0
 24 28  1  0
 24 25  1  1
 26 25  1  0
 26 27  2  0
 28 31  2  0
 28 29  1  0
 30 26  1  0
M  END
$$$$
