WID.pdb
     RDKit          3D

 31 32  0  0  1  0  0  0  0  0999 V2000
    6.9562  -19.2132   26.2759 N   0  0  0  0  0  0  0  0  0  0  0  0
    7.6251  -18.0060   26.7253 C   0  0  1  0  0  0  0  0  0  0  0  0
    9.0920  -18.2481   27.0103 C   0  0  0  0  0  0  0  0  0  0  0  0
    9.5073  -17.6959   28.3132 C   0  0  0  0  0  0  0  0  0  0  0  0
    9.8317  -18.4219   29.4347 C   0  0  0  0  0  0  0  0  0  0  0  0
   10.1479  -17.5318   30.3835 N   0  0  0  0  0  0  0  0  0  0  0  0
   10.0362  -16.2681   29.9059 C   0  0  0  0  0  0  0  0  0  0  0  0
   10.2455  -15.0483   30.4781 C   0  0  0  0  0  0  0  0  0  0  0  0
   10.0358  -13.9163   29.6950 C   0  0  0  0  0  0  0  0  0  0  0  0
    9.6325  -14.0051   28.3904 C   0  0  0  0  0  0  0  0  0  0  0  0
    9.4217  -15.2335   27.8131 C   0  0  0  0  0  0  0  0  0  0  0  0
    9.6318  -16.3694   28.5984 C   0  0  0  0  0  0  0  0  0  0  0  0
    7.5588  -17.0282   25.5997 C   0  0  0  0  0  0  0  0  0  0  0  0
    7.2124  -17.5161   24.4748 O   0  0  0  0  0  0  0  0  0  0  0  0
    6.5910  -11.6547   26.4176 C   0  0  0  0  0  0  0  0  0  0  0  0
    6.3880  -12.9939   25.7718 C   0  0  0  0  0  0  0  0  0  0  0  0
    7.5962  -13.3494   24.9731 C   0  0  2  0  0  0  0  0  0  0  0  0
    7.6010  -12.4678   23.7271 C   0  0  0  0  0  0  0  0  0  0  0  0
    7.6452  -14.7935   24.5772 C   0  0  2  0  0  0  0  0  0  0  0  0
    7.8465  -15.6653   25.7149 N   0  0  0  0  0  0  0  0  0  0  0  0
    8.6915  -15.0410   23.5323 C   0  0  0  0  0  0  0  0  0  0  0  0
    8.8291  -14.2068   22.6207 O   0  0  0  0  0  0  0  0  0  0  0  0
    9.5056  -16.1812   23.5640 N   0  0  0  0  0  0  0  0  0  0  0  0
   10.7472  -16.1781   22.7731 C   0  0  1  0  0  0  0  0  0  0  0  0
   11.9186  -15.9523   23.6675 C   0  0  0  0  0  0  0  0  0  0  0  0
   13.2045  -16.0552   22.9796 C   0  0  0  0  0  0  0  0  0  0  0  0
   13.3911  -16.2748   21.7757 O   0  0  0  0  0  0  0  0  0  0  0  0
   10.8216  -17.4544   22.0200 C   0  0  0  0  0  0  0  0  0  0  0  0
    9.8412  -18.4048   22.0583 O   0  0  0  0  0  0  0  0  0  0  0  0
   14.3829  -15.8875   23.7596 O   0  0  0  0  0  0  0  0  0  0  0  0
   11.8250  -17.6989   21.3042 O   0  0  0  0  0  0  0  0  0  0  0  0
  2 13  1  0
  2  3  1  0
  2  1  1  6
  4  3  1  0
  4  5  2  0
  6  5  1  0
  7  6  1  0
  8  7  2  0
  9  8  1  0
 10  9  2  0
 10 11  1  0
 11 12  2  0
 12  7  1  0
 12  4  1  0
 13 14  2  0
 16 15  1  0
 17 16  1  0
 17 19  1  0
 17 18  1  6
 19 21  1  0
 19 20  1  1
 20 13  1  0
 21 22  2  0
 23 21  1  0
 23 24  1  0
 24 28  1  0
 24 25  1  1
 26 25  1  0
 26 27  2  0
 28 31  2  0
 28 29  1  0
 30 26  1  0
M  END
$$$$
