WID.pdb
     RDKit          3D

 31 32  0  0  1  0  0  0  0  0999 V2000
    5.7447  -18.1285   24.2184 N   0  0  0  0  0  0  0  0  0  0  0  0
    6.2398  -16.7643   24.1995 C   0  0  1  0  0  0  0  0  0  0  0  0
    6.9731  -16.4138   25.4766 C   0  0  0  0  0  0  0  0  0  0  0  0
    6.4635  -15.1744   26.0922 C   0  0  0  0  0  0  0  0  0  0  0  0
    5.1893  -14.9698   26.5663 C   0  0  0  0  0  0  0  0  0  0  0  0
    5.1574  -13.7170   27.0377 N   0  0  0  0  0  0  0  0  0  0  0  0
    6.3638  -13.1191   26.8804 C   0  0  0  0  0  0  0  0  0  0  0  0
    6.8196  -11.8735   27.1962 C   0  0  0  0  0  0  0  0  0  0  0  0
    8.1439  -11.5678   26.8938 C   0  0  0  0  0  0  0  0  0  0  0  0
    8.9770  -12.4757   26.2988 C   0  0  0  0  0  0  0  0  0  0  0  0
    8.5188  -13.7309   25.9805 C   0  0  0  0  0  0  0  0  0  0  0  0
    7.1902  -14.0379   26.2835 C   0  0  0  0  0  0  0  0  0  0  0  0
    7.2361  -16.6793   23.0914 C   0  0  0  0  0  0  0  0  0  0  0  0
    7.7869  -17.7822   22.7693 O   0  0  0  0  0  0  0  0  0  0  0  0
    7.4277  -12.2257   19.8789 C   0  0  0  0  0  0  0  0  0  0  0  0
    7.3049  -13.7014   20.1222 C   0  0  0  0  0  0  0  0  0  0  0  0
    8.6114  -14.2370   20.6018 C   0  0  2  0  0  0  0  0  0  0  0  0
    9.5281  -14.3709   19.3888 C   0  0  0  0  0  0  0  0  0  0  0  0
    8.4939  -15.5566   21.3014 C   0  0  2  0  0  0  0  0  0  0  0  0
    7.5790  -15.5015   22.4216 N   0  0  0  0  0  0  0  0  0  0  0  0
    9.8337  -16.0666   21.7401 C   0  0  0  0  0  0  0  0  0  0  0  0
   10.3252  -15.6173   22.7901 O   0  0  0  0  0  0  0  0  0  0  0  0
   10.5331  -17.0271   20.9972 N   0  0  0  0  0  0  0  0  0  0  0  0
   11.8241  -17.5097   21.5143 C   0  0  1  0  0  0  0  0  0  0  0  0
   11.8141  -18.9984   21.5961 C   0  0  0  0  0  0  0  0  0  0  0  0
   13.0854  -19.5654   22.0428 C   0  0  0  0  0  0  0  0  0  0  0  0
   14.2106  -19.3272   21.5847 O   0  0  0  0  0  0  0  0  0  0  0  0
   12.9016  -16.9773   20.6441 C   0  0  0  0  0  0  0  0  0  0  0  0
   14.0652  -16.4517   21.1294 O   0  0  0  0  0  0  0  0  0  0  0  0
   13.0489  -20.4939   23.1206 O   0  0  0  0  0  0  0  0  0  0  0  0
   12.7626  -16.9983   19.3954 O   0  0  0  0  0  0  0  0  0  0  0  0
  2 13  1  0
  2  3  1  0
  2  1  1  1
  4  3  1  0
  4  5  2  0
  6  5  1  0
  7  6  1  0
  8  7  2  0
  9  8  1  0
 10  9  2  0
 10 11  1  0
 11 12  2  0
 12  7  1  0
 12  4  1  0
 13 14  2  0
 16 15  1  0
 17 16  1  0
 17 19  1  0
 17 18  1  6
 19 21  1  0
 19 20  1  1
 20 13  1  0
 21 22  2  0
 23 21  1  0
 23 24  1  0
 24 28  1  0
 24 25  1  6
 26 25  1  0
 26 27  2  0
 28 31  2  0
 28 29  1  0
 30 26  1  0
M  END
$$$$
