WID.pdb
     RDKit          3D

 31 32  0  0  1  0  0  0  0  0999 V2000
    6.7844  -17.9969   25.0861 N   0  0  0  0  0  0  0  0  0  0  0  0
    7.4634  -17.3005   24.0088 C   0  0  1  0  0  0  0  0  0  0  0  0
    6.6274  -16.1652   23.4574 C   0  0  0  0  0  0  0  0  0  0  0  0
    6.3305  -15.1425   24.4775 C   0  0  0  0  0  0  0  0  0  0  0  0
    5.6115  -15.3357   25.6333 C   0  0  0  0  0  0  0  0  0  0  0  0
    5.5837  -14.1549   26.2638 N   0  0  0  0  0  0  0  0  0  0  0  0
    6.2582  -13.2196   25.5511 C   0  0  0  0  0  0  0  0  0  0  0  0
    6.5048  -11.8971   25.7733 C   0  0  0  0  0  0  0  0  0  0  0  0
    7.2476  -11.2036   24.8215 C   0  0  0  0  0  0  0  0  0  0  0  0
    7.7238  -11.8129   23.6926 C   0  0  0  0  0  0  0  0  0  0  0  0
    7.4761  -13.1452   23.4681 C   0  0  0  0  0  0  0  0  0  0  0  0
    6.7307  -13.8413   24.4226 C   0  0  0  0  0  0  0  0  0  0  0  0
    8.6922  -16.6881   24.5940 C   0  0  0  0  0  0  0  0  0  0  0  0
    9.4540  -16.0956   23.7621 O   0  0  0  0  0  0  0  0  0  0  0  0
    9.4580  -13.1650   28.4154 C   0  0  0  0  0  0  0  0  0  0  0  0
    9.5401  -14.0300   27.1919 C   0  0  0  0  0  0  0  0  0  0  0  0
   10.2330  -15.3063   27.5305 C   0  0  2  0  0  0  0  0  0  0  0  0
   11.6302  -14.9531   28.0335 C   0  0  0  0  0  0  0  0  0  0  0  0
   10.3308  -16.2560   26.3759 C   0  0  2  0  0  0  0  0  0  0  0  0
    9.0324  -16.7323   25.9489 N   0  0  0  0  0  0  0  0  0  0  0  0
   11.2380  -17.4080   26.6880 C   0  0  0  0  0  0  0  0  0  0  0  0
   10.8893  -18.2176   27.5649 O   0  0  0  0  0  0  0  0  0  0  0  0
   12.4562  -17.5857   26.0185 N   0  0  0  0  0  0  0  0  0  0  0  0
   13.2456  -18.7940   26.3084 C   0  0  1  0  0  0  0  0  0  0  0  0
   14.3391  -18.9390   25.3054 C   0  0  0  0  0  0  0  0  0  0  0  0
   15.1872  -20.1077   25.5338 C   0  0  0  0  0  0  0  0  0  0  0  0
   15.0824  -20.9389   26.4452 O   0  0  0  0  0  0  0  0  0  0  0  0
   13.7388  -18.7029   27.7049 C   0  0  0  0  0  0  0  0  0  0  0  0
   13.7614  -19.7662   28.5620 O   0  0  0  0  0  0  0  0  0  0  0  0
   16.2551  -20.3339   24.6208 O   0  0  0  0  0  0  0  0  0  0  0  0
   14.1618  -17.6053   28.1467 O   0  0  0  0  0  0  0  0  0  0  0  0
  2 13  1  0
  2  3  1  0
  2  1  1  1
  4  3  1  0
  4  5  2  0
  6  5  1  0
  7  6  1  0
  8  7  2  0
  9  8  1  0
 10  9  2  0
 10 11  1  0
 11 12  2  0
 12  7  1  0
 12  4  1  0
 13 14  2  0
 16 15  1  0
 17 16  1  0
 17 19  1  0
 17 18  1  6
 19 21  1  0
 19 20  1  1
 20 13  1  0
 21 22  2  0
 23 21  1  0
 23 24  1  0
 24 28  1  0
 24 25  1  6
 26 25  1  0
 26 27  2  0
 28 31  2  0
 28 29  1  0
 30 26  1  0
M  END
$$$$
