WID.pdb
     RDKit          3D

 31 32  0  0  1  0  0  0  0  0999 V2000
   10.3806  -15.6684   21.2832 N   0  0  0  0  0  0  0  0  0  0  0  0
    9.2832  -15.3103   22.1631 C   0  0  1  0  0  0  0  0  0  0  0  0
    8.0275  -16.0933   21.8443 C   0  0  0  0  0  0  0  0  0  0  0  0
    7.3167  -15.5563   20.6690 C   0  0  0  0  0  0  0  0  0  0  0  0
    6.3652  -16.2150   19.9267 C   0  0  0  0  0  0  0  0  0  0  0  0
    5.9851  -15.3685   18.9616 N   0  0  0  0  0  0  0  0  0  0  0  0
    6.6599  -14.1972   19.0637 C   0  0  0  0  0  0  0  0  0  0  0  0
    6.6240  -13.0495   18.3285 C   0  0  0  0  0  0  0  0  0  0  0  0
    7.4653  -12.0065   18.7065 C   0  0  0  0  0  0  0  0  0  0  0  0
    8.3085  -12.1112   19.7792 C   0  0  0  0  0  0  0  0  0  0  0  0
    8.3452  -13.2670   20.5206 C   0  0  0  0  0  0  0  0  0  0  0  0
    7.5014  -14.3137   20.1416 C   0  0  0  0  0  0  0  0  0  0  0  0
    9.6926  -15.6938   23.5462 C   0  0  0  0  0  0  0  0  0  0  0  0
   10.6586  -16.5216   23.6177 O   0  0  0  0  0  0  0  0  0  0  0  0
    9.5585  -13.3245   29.1972 C   0  0  0  0  0  0  0  0  0  0  0  0
   10.0258  -14.4265   28.2922 C   0  0  0  0  0  0  0  0  0  0  0  0
    9.3444  -14.3080   26.9710 C   0  0  2  0  0  0  0  0  0  0  0  0
    7.8426  -14.4309   27.2141 C   0  0  0  0  0  0  0  0  0  0  0  0
    9.7870  -15.3384   25.9775 C   0  0  2  0  0  0  0  0  0  0  0  0
    9.0938  -15.2114   24.7132 N   0  0  0  0  0  0  0  0  0  0  0  0
    9.6374  -16.7268   26.5231 C   0  0  0  0  0  0  0  0  0  0  0  0
    8.5356  -17.2923   26.4131 O   0  0  0  0  0  0  0  0  0  0  0  0
   10.7029  -17.3893   27.1472 N   0  0  0  0  0  0  0  0  0  0  0  0
   10.5004  -18.7775   27.5932 C   0  0  1  0  0  0  0  0  0  0  0  0
   10.7941  -19.7184   26.4746 C   0  0  0  0  0  0  0  0  0  0  0  0
   12.1544  -19.5961   25.9531 C   0  0  0  0  0  0  0  0  0  0  0  0
   13.2039  -19.5560   26.6084 O   0  0  0  0  0  0  0  0  0  0  0  0
   11.3450  -19.0085   28.7912 C   0  0  0  0  0  0  0  0  0  0  0  0
   12.0837  -18.0263   29.3874 O   0  0  0  0  0  0  0  0  0  0  0  0
   12.3125  -19.5132   24.5412 O   0  0  0  0  0  0  0  0  0  0  0  0
   11.4020  -20.1549   29.3026 O   0  0  0  0  0  0  0  0  0  0  0  0
  2 13  1  0
  2  3  1  0
  2  1  1  6
  4  3  1  0
  4  5  2  0
  6  5  1  0
  7  6  1  0
  8  7  2  0
  9  8  1  0
 10  9  2  0
 10 11  1  0
 11 12  2  0
 12  7  1  0
 12  4  1  0
 13 14  2  0
 16 15  1  0
 17 16  1  0
 17 19  1  0
 17 18  1  1
 19 21  1  0
 19 20  1  6
 20 13  1  0
 21 22  2  0
 23 21  1  0
 23 24  1  0
 24 28  1  0
 24 25  1  6
 26 25  1  0
 26 27  2  0
 28 31  2  0
 28 29  1  0
 30 26  1  0
M  END
$$$$
