WID.pdb
     RDKit          3D

 31 32  0  0  1  0  0  0  0  0999 V2000
    7.2043  -16.0427   21.4966 N   0  0  0  0  0  0  0  0  0  0  0  0
    8.4144  -16.6852   21.9757 C   0  0  1  0  0  0  0  0  0  0  0  0
    9.5292  -16.6193   20.9536 C   0  0  0  0  0  0  0  0  0  0  0  0
    9.7586  -15.2473   20.4638 C   0  0  0  0  0  0  0  0  0  0  0  0
   10.9819  -14.6588   20.2458 C   0  0  0  0  0  0  0  0  0  0  0  0
   10.7325  -13.4190   19.8061 N   0  0  0  0  0  0  0  0  0  0  0  0
    9.3966  -13.1989   19.7370 C   0  0  0  0  0  0  0  0  0  0  0  0
    8.6631  -12.1144   19.3564 C   0  0  0  0  0  0  0  0  0  0  0  0
    7.2753  -12.2171   19.4031 C   0  0  0  0  0  0  0  0  0  0  0  0
    6.6492  -13.3620   19.8151 C   0  0  0  0  0  0  0  0  0  0  0  0
    7.3875  -14.4551   20.1986 C   0  0  0  0  0  0  0  0  0  0  0  0
    8.7798  -14.3524   20.1520 C   0  0  0  0  0  0  0  0  0  0  0  0
    8.8738  -15.9127   23.1672 C   0  0  0  0  0  0  0  0  0  0  0  0
    9.3471  -14.7566   22.9165 O   0  0  0  0  0  0  0  0  0  0  0  0
    6.7684  -12.5328   26.7047 C   0  0  0  0  0  0  0  0  0  0  0  0
    7.9424  -13.4669   26.7365 C   0  0  0  0  0  0  0  0  0  0  0  0
    7.8153  -14.4634   25.6344 C   0  0  2  0  0  0  0  0  0  0  0  0
    6.4988  -15.2089   25.8365 C   0  0  0  0  0  0  0  0  0  0  0  0
    8.9512  -15.4388   25.5788 C   0  0  2  0  0  0  0  0  0  0  0  0
    8.8134  -16.3759   24.4844 N   0  0  0  0  0  0  0  0  0  0  0  0
    9.1132  -16.1675   26.8790 C   0  0  0  0  0  0  0  0  0  0  0  0
    9.3246  -15.5039   27.9090 O   0  0  0  0  0  0  0  0  0  0  0  0
    9.0327  -17.5645   26.9528 N   0  0  0  0  0  0  0  0  0  0  0  0
    9.4970  -18.2294   28.1813 C   0  0  1  0  0  0  0  0  0  0  0  0
    8.9494  -19.6146   28.2472 C   0  0  0  0  0  0  0  0  0  0  0  0
    7.5591  -19.7126   27.8058 C   0  0  0  0  0  0  0  0  0  0  0  0
    6.5962  -19.0550   28.2217 O   0  0  0  0  0  0  0  0  0  0  0  0
   10.9799  -18.1833   28.2026 C   0  0  0  0  0  0  0  0  0  0  0  0
   11.7427  -18.0922   27.0731 O   0  0  0  0  0  0  0  0  0  0  0  0
    7.2575  -20.6601   26.7878 O   0  0  0  0  0  0  0  0  0  0  0  0
   11.5898  -18.2289   29.3003 O   0  0  0  0  0  0  0  0  0  0  0  0
  2 13  1  0
  2  3  1  0
  2  1  1  6
  4  3  1  0
  4  5  2  0
  6  5  1  0
  7  6  1  0
  8  7  2  0
  9  8  1  0
 10  9  2  0
 10 11  1  0
 11 12  2  0
 12  7  1  0
 12  4  1  0
 13 14  2  0
 16 15  1  0
 17 16  1  0
 17 19  1  0
 17 18  1  1
 19 21  1  0
 19 20  1  6
 20 13  1  0
 21 22  2  0
 23 21  1  0
 23 24  1  0
 24 28  1  0
 24 25  1  6
 26 25  1  0
 26 27  2  0
 28 31  2  0
 28 29  1  0
 30 26  1  0
M  END
$$$$
