WID.pdb
     RDKit          3D

 31 32  0  0  1  0  0  0  0  0999 V2000
    6.1228  -18.0240   24.4253 N   0  0  0  0  0  0  0  0  0  0  0  0
    6.5679  -16.6529   24.2560 C   0  0  1  0  0  0  0  0  0  0  0  0
    7.3943  -16.1800   25.4329 C   0  0  0  0  0  0  0  0  0  0  0  0
    6.7631  -15.0515   26.1422 C   0  0  0  0  0  0  0  0  0  0  0  0
    5.5325  -15.0662   26.7550 C   0  0  0  0  0  0  0  0  0  0  0  0
    5.3520  -13.8440   27.2711 N   0  0  0  0  0  0  0  0  0  0  0  0
    6.4222  -13.0544   27.0085 C   0  0  0  0  0  0  0  0  0  0  0  0
    6.7041  -11.7568   27.3183 C   0  0  0  0  0  0  0  0  0  0  0  0
    7.9208  -11.2336   26.8889 C   0  0  0  0  0  0  0  0  0  0  0  0
    8.8183  -11.9826   26.1775 C   0  0  0  0  0  0  0  0  0  0  0  0
    8.5353  -13.2900   25.8653 C   0  0  0  0  0  0  0  0  0  0  0  0
    7.3146  -13.8152   26.2957 C   0  0  0  0  0  0  0  0  0  0  0  0
    7.4634  -16.6314   23.0622 C   0  0  0  0  0  0  0  0  0  0  0  0
    7.9004  -17.7687   22.6894 O   0  0  0  0  0  0  0  0  0  0  0  0
    7.3001  -12.3573   19.8639 C   0  0  0  0  0  0  0  0  0  0  0  0
    7.3005  -13.8529   19.9867 C   0  0  0  0  0  0  0  0  0  0  0  0
    8.6614  -14.3195   20.3794 C   0  0  2  0  0  0  0  0  0  0  0  0
    9.4676  -14.5192   19.0988 C   0  0  0  0  0  0  0  0  0  0  0  0
    8.6495  -15.5868   21.1783 C   0  0  2  0  0  0  0  0  0  0  0  0
    7.8297  -15.4761   22.3661 N   0  0  0  0  0  0  0  0  0  0  0  0
   10.0384  -16.0235   21.5358 C   0  0  0  0  0  0  0  0  0  0  0  0
   10.6878  -15.3355   22.3426 O   0  0  0  0  0  0  0  0  0  0  0  0
   10.6105  -17.1773   20.9834 N   0  0  0  0  0  0  0  0  0  0  0  0
   11.9756  -17.5472   21.3916 C   0  0  1  0  0  0  0  0  0  0  0  0
   12.1908  -19.0074   21.1806 C   0  0  0  0  0  0  0  0  0  0  0  0
   13.0196  -19.6286   22.2124 C   0  0  0  0  0  0  0  0  0  0  0  0
   13.5703  -19.0646   23.1668 O   0  0  0  0  0  0  0  0  0  0  0  0
   12.9318  -16.6985   20.6384 C   0  0  0  0  0  0  0  0  0  0  0  0
   14.0833  -16.2041   21.1820 O   0  0  0  0  0  0  0  0  0  0  0  0
   13.2287  -21.0339   22.1302 O   0  0  0  0  0  0  0  0  0  0  0  0
   12.6950  -16.4046   19.4399 O   0  0  0  0  0  0  0  0  0  0  0  0
  2 13  1  0
  2  3  1  0
  2  1  1  1
  4  3  1  0
  4  5  2  0
  6  5  1  0
  7  6  1  0
  8  7  2  0
  9  8  1  0
 10  9  2  0
 10 11  1  0
 11 12  2  0
 12  7  1  0
 12  4  1  0
 13 14  2  0
 16 15  1  0
 17 16  1  0
 17 19  1  0
 17 18  1  6
 19 21  1  0
 19 20  1  1
 20 13  1  0
 21 22  2  0
 23 21  1  0
 23 24  1  0
 24 28  1  0
 24 25  1  6
 26 25  1  0
 26 27  2  0
 28 31  2  0
 28 29  1  0
 30 26  1  0
M  END
$$$$
