WID.pdb
     RDKit          3D

 31 32  0  0  1  0  0  0  0  0999 V2000
    6.5011  -18.1613   25.9015 N   0  0  0  0  0  0  0  0  0  0  0  0
    7.1068  -16.8826   25.5779 C   0  0  1  0  0  0  0  0  0  0  0  0
    8.4992  -16.7564   26.1583 C   0  0  0  0  0  0  0  0  0  0  0  0
    8.5935  -15.6745   27.1559 C   0  0  0  0  0  0  0  0  0  0  0  0
    9.2308  -15.7469   28.3720 C   0  0  0  0  0  0  0  0  0  0  0  0
    9.0739  -14.5511   28.9534 N   0  0  0  0  0  0  0  0  0  0  0  0
    8.3608  -13.7226   28.1517 C   0  0  0  0  0  0  0  0  0  0  0  0
    7.9497  -12.4310   28.2992 C   0  0  0  0  0  0  0  0  0  0  0  0
    7.2151  -11.8584   27.2643 C   0  0  0  0  0  0  0  0  0  0  0  0
    6.9056  -12.5541   26.1273 C   0  0  0  0  0  0  0  0  0  0  0  0
    7.3195  -13.8553   25.9777 C   0  0  0  0  0  0  0  0  0  0  0  0
    8.0564  -14.4302   27.0158 C   0  0  0  0  0  0  0  0  0  0  0  0
    7.2510  -16.8338   24.0932 C   0  0  0  0  0  0  0  0  0  0  0  0
    6.9615  -17.9140   23.4826 O   0  0  0  0  0  0  0  0  0  0  0  0
    7.4515  -12.0474   21.3002 C   0  0  0  0  0  0  0  0  0  0  0  0
    6.9887  -13.4058   21.7389 C   0  0  0  0  0  0  0  0  0  0  0  0
    7.9844  -14.4316   21.3143 C   0  0  2  0  0  0  0  0  0  0  0  0
    7.9181  -14.5367   19.7931 C   0  0  0  0  0  0  0  0  0  0  0  0
    7.7526  -15.7778   21.9298 C   0  0  2  0  0  0  0  0  0  0  0  0
    7.6703  -15.7115   23.3734 N   0  0  0  0  0  0  0  0  0  0  0  0
    8.8007  -16.7627   21.5066 C   0  0  0  0  0  0  0  0  0  0  0  0
    8.6542  -17.3570   20.4244 O   0  0  0  0  0  0  0  0  0  0  0  0
    9.9267  -17.0227   22.2991 N   0  0  0  0  0  0  0  0  0  0  0  0
   10.9147  -18.0002   21.8140 C   0  0  1  0  0  0  0  0  0  0  0  0
   11.5413  -17.5067   20.5543 C   0  0  0  0  0  0  0  0  0  0  0  0
   12.5896  -16.5122   20.7764 C   0  0  0  0  0  0  0  0  0  0  0  0
   12.9235  -16.0087   21.8569 O   0  0  0  0  0  0  0  0  0  0  0  0
   11.8957  -18.2472   22.8995 C   0  0  0  0  0  0  0  0  0  0  0  0
   11.7914  -17.6930   24.1436 O   0  0  0  0  0  0  0  0  0  0  0  0
   13.3185  -16.0600   19.6409 O   0  0  0  0  0  0  0  0  0  0  0  0
   12.8808  -18.9989   22.6910 O   0  0  0  0  0  0  0  0  0  0  0  0
  2 13  1  0
  2  3  1  0
  2  1  1  6
  4  3  1  0
  4  5  2  0
  6  5  1  0
  7  6  1  0
  8  7  2  0
  9  8  1  0
 10  9  2  0
 10 11  1  0
 11 12  2  0
 12  7  1  0
 12  4  1  0
 13 14  2  0
 16 15  1  0
 17 16  1  0
 17 19  1  0
 17 18  1  6
 19 21  1  0
 19 20  1  1
 20 13  1  0
 21 22  2  0
 23 21  1  0
 23 24  1  0
 24 28  1  0
 24 25  1  6
 26 25  1  0
 26 27  2  0
 28 31  2  0
 28 29  1  0
 30 26  1  0
M  END
$$$$
