WID.pdb
     RDKit          3D

 31 32  0  0  1  0  0  0  0  0999 V2000
   10.4667  -15.8083   21.6843 N   0  0  0  0  0  0  0  0  0  0  0  0
    9.3056  -15.3230   22.4075 C   0  0  1  0  0  0  0  0  0  0  0  0
    8.0829  -16.1769   22.1471 C   0  0  0  0  0  0  0  0  0  0  0  0
    7.2119  -15.6035   21.1043 C   0  0  0  0  0  0  0  0  0  0  0  0
    6.0343  -16.1441   20.6447 C   0  0  0  0  0  0  0  0  0  0  0  0
    5.5735  -15.3063   19.7076 N   0  0  0  0  0  0  0  0  0  0  0  0
    6.4148  -14.2543   19.5553 C   0  0  0  0  0  0  0  0  0  0  0  0
    6.3803  -13.1612   18.7410 C   0  0  0  0  0  0  0  0  0  0  0  0
    7.4254  -12.2459   18.8338 C   0  0  0  0  0  0  0  0  0  0  0  0
    8.4630  -12.4206   19.7086 C   0  0  0  0  0  0  0  0  0  0  0  0
    8.4984  -13.5214   20.5295 C   0  0  0  0  0  0  0  0  0  0  0  0
    7.4502  -14.4400   20.4366 C   0  0  0  0  0  0  0  0  0  0  0  0
    9.6172  -15.4460   23.8619 C   0  0  0  0  0  0  0  0  0  0  0  0
   10.7620  -15.9350   24.1335 O   0  0  0  0  0  0  0  0  0  0  0  0
    6.8015  -12.2970   27.1548 C   0  0  0  0  0  0  0  0  0  0  0  0
    8.0714  -12.8251   26.5546 C   0  0  0  0  0  0  0  0  0  0  0  0
    8.3755  -14.1654   27.1333 C   0  0  2  0  0  0  0  0  0  0  0  0
    9.0592  -13.9421   28.4795 C   0  0  0  0  0  0  0  0  0  0  0  0
    9.2441  -15.0114   26.2533 C   0  0  2  0  0  0  0  0  0  0  0  0
    8.7525  -15.0688   24.8931 N   0  0  0  0  0  0  0  0  0  0  0  0
    9.4113  -16.3927   26.8116 C   0  0  0  0  0  0  0  0  0  0  0  0
    8.4023  -17.1082   26.9378 O   0  0  0  0  0  0  0  0  0  0  0  0
   10.6677  -16.8848   27.1898 N   0  0  0  0  0  0  0  0  0  0  0  0
   10.7486  -18.2434   27.7506 C   0  0  1  0  0  0  0  0  0  0  0  0
   12.0382  -18.8796   27.3568 C   0  0  0  0  0  0  0  0  0  0  0  0
   12.3890  -18.6644   25.9540 C   0  0  0  0  0  0  0  0  0  0  0  0
   11.7285  -18.9948   24.9606 O   0  0  0  0  0  0  0  0  0  0  0  0
   10.5646  -18.1513   29.2201 C   0  0  0  0  0  0  0  0  0  0  0  0
   10.4147  -19.2439   30.0261 O   0  0  0  0  0  0  0  0  0  0  0  0
   13.6192  -18.0044   25.6775 O   0  0  0  0  0  0  0  0  0  0  0  0
   10.5412  -17.0249   29.7765 O   0  0  0  0  0  0  0  0  0  0  0  0
  2 13  1  0
  2  3  1  0
  2  1  1  6
  4  3  1  0
  4  5  2  0
  6  5  1  0
  7  6  1  0
  8  7  2  0
  9  8  1  0
 10  9  2  0
 10 11  1  0
 11 12  2  0
 12  7  1  0
 12  4  1  0
 13 14  2  0
 16 15  1  0
 17 16  1  0
 17 19  1  0
 17 18  1  1
 19 21  1  0
 19 20  1  6
 20 13  1  0
 21 22  2  0
 23 21  1  0
 23 24  1  0
 24 28  1  0
 24 25  1  1
 26 25  1  0
 26 27  2  0
 28 31  2  0
 28 29  1  0
 30 26  1  0
M  END
$$$$
