WID.pdb
     RDKit          3D

 31 32  0  0  1  0  0  0  0  0999 V2000
    6.2437  -17.3113   25.0587 N   0  0  0  0  0  0  0  0  0  0  0  0
    7.0566  -16.1323   24.8225 C   0  0  1  0  0  0  0  0  0  0  0  0
    8.2516  -16.0774   25.7503 C   0  0  0  0  0  0  0  0  0  0  0  0
    8.0755  -15.0898   26.8313 C   0  0  0  0  0  0  0  0  0  0  0  0
    8.3348  -15.2944   28.1659 C   0  0  0  0  0  0  0  0  0  0  0  0
    8.0400  -14.1466   28.7891 N   0  0  0  0  0  0  0  0  0  0  0  0
    7.6034  -13.2214   27.8997 C   0  0  0  0  0  0  0  0  0  0  0  0
    7.1919  -11.9297   28.0457 C   0  0  0  0  0  0  0  0  0  0  0  0
    6.7967  -11.2383   26.9036 C   0  0  0  0  0  0  0  0  0  0  0  0
    6.8141  -11.8198   25.6651 C   0  0  0  0  0  0  0  0  0  0  0  0
    7.2287  -13.1210   25.5170 C   0  0  0  0  0  0  0  0  0  0  0  0
    7.6251  -13.8151   26.6626 C   0  0  0  0  0  0  0  0  0  0  0  0
    7.5921  -16.2452   23.4339 C   0  0  0  0  0  0  0  0  0  0  0  0
    7.7826  -17.4349   23.0194 O   0  0  0  0  0  0  0  0  0  0  0  0
    6.9263  -12.1475   20.2180 C   0  0  0  0  0  0  0  0  0  0  0  0
    6.8693  -13.6403   20.3597 C   0  0  0  0  0  0  0  0  0  0  0  0
    8.2551  -14.1903   20.3911 C   0  0  2  0  0  0  0  0  0  0  0  0
    8.6421  -14.5469   18.9583 C   0  0  0  0  0  0  0  0  0  0  0  0
    8.3994  -15.3925   21.2734 C   0  0  2  0  0  0  0  0  0  0  0  0
    7.8823  -15.1581   22.6049 N   0  0  0  0  0  0  0  0  0  0  0  0
    9.8225  -15.8600   21.3358 C   0  0  0  0  0  0  0  0  0  0  0  0
   10.5808  -15.3436   22.1750 O   0  0  0  0  0  0  0  0  0  0  0  0
   10.3070  -16.8547   20.4758 N   0  0  0  0  0  0  0  0  0  0  0  0
   11.6890  -17.3274   20.6590 C   0  0  1  0  0  0  0  0  0  0  0  0
   11.8879  -17.7832   22.0646 C   0  0  0  0  0  0  0  0  0  0  0  0
   13.2275  -18.3089   22.3221 C   0  0  0  0  0  0  0  0  0  0  0  0
   14.1488  -18.4362   21.5050 O   0  0  0  0  0  0  0  0  0  0  0  0
   11.9544  -18.3877   19.6555 C   0  0  0  0  0  0  0  0  0  0  0  0
   13.0419  -18.3813   18.8289 O   0  0  0  0  0  0  0  0  0  0  0  0
   13.5268  -18.7251   23.6496 O   0  0  0  0  0  0  0  0  0  0  0  0
   11.1552  -19.3504   19.5389 O   0  0  0  0  0  0  0  0  0  0  0  0
  2 13  1  0
  2  3  1  0
  2  1  1  1
  4  3  1  0
  4  5  2  0
  6  5  1  0
  7  6  1  0
  8  7  2  0
  9  8  1  0
 10  9  2  0
 10 11  1  0
 11 12  2  0
 12  7  1  0
 12  4  1  0
 13 14  2  0
 16 15  1  0
 17 16  1  0
 17 19  1  0
 17 18  1  6
 19 21  1  0
 19 20  1  1
 20 13  1  0
 21 22  2  0
 23 21  1  0
 23 24  1  0
 24 28  1  0
 24 25  1  1
 26 25  1  0
 26 27  2  0
 28 31  2  0
 28 29  1  0
 30 26  1  0
M  END
$$$$
