WID.pdb
     RDKit          3D

 31 32  0  0  1  0  0  0  0  0999 V2000
    5.5275  -17.5225   21.7945 N   0  0  0  0  0  0  0  0  0  0  0  0
    6.1198  -17.7164   23.1053 C   0  0  1  0  0  0  0  0  0  0  0  0
    7.0253  -18.9291   23.1399 C   0  0  0  0  0  0  0  0  0  0  0  0
    6.2788  -20.1897   22.9710 C   0  0  0  0  0  0  0  0  0  0  0  0
    5.9195  -20.7645   21.7749 C   0  0  0  0  0  0  0  0  0  0  0  0
    5.2610  -21.8900   22.0785 N   0  0  0  0  0  0  0  0  0  0  0  0
    5.1890  -22.0508   23.4226 C   0  0  0  0  0  0  0  0  0  0  0  0
    4.6306  -23.0193   24.2031 C   0  0  0  0  0  0  0  0  0  0  0  0
    4.7337  -22.8831   25.5849 C   0  0  0  0  0  0  0  0  0  0  0  0
    5.3716  -21.8178   26.1600 C   0  0  0  0  0  0  0  0  0  0  0  0
    5.9346  -20.8416   25.3745 C   0  0  0  0  0  0  0  0  0  0  0  0
    5.8312  -20.9779   23.9882 C   0  0  0  0  0  0  0  0  0  0  0  0
    6.9800  -16.5266   23.3734 C   0  0  0  0  0  0  0  0  0  0  0  0
    7.8966  -16.3132   22.5145 O   0  0  0  0  0  0  0  0  0  0  0  0
    5.8875  -12.3899   26.7233 C   0  0  0  0  0  0  0  0  0  0  0  0
    6.6191  -12.9718   25.5494 C   0  0  0  0  0  0  0  0  0  0  0  0
    7.6229  -13.9640   26.0308 C   0  0  2  0  0  0  0  0  0  0  0  0
    8.8641  -13.1900   26.4665 C   0  0  0  0  0  0  0  0  0  0  0  0
    7.9938  -14.9852   24.9992 C   0  0  2  0  0  0  0  0  0  0  0  0
    6.8355  -15.6747   24.4719 N   0  0  0  0  0  0  0  0  0  0  0  0
    8.9934  -15.9668   25.5329 C   0  0  0  0  0  0  0  0  0  0  0  0
    8.5769  -16.9576   26.1581 O   0  0  0  0  0  0  0  0  0  0  0  0
   10.3704  -15.7894   25.3431 N   0  0  0  0  0  0  0  0  0  0  0  0
   11.2736  -16.9014   25.6816 C   0  0  1  0  0  0  0  0  0  0  0  0
   11.8365  -17.4959   24.4355 C   0  0  0  0  0  0  0  0  0  0  0  0
   12.7336  -16.5946   23.7143 C   0  0  0  0  0  0  0  0  0  0  0  0
   13.7719  -16.0746   24.1432 O   0  0  0  0  0  0  0  0  0  0  0  0
   12.3129  -16.3900   26.6090 C   0  0  0  0  0  0  0  0  0  0  0  0
   12.3472  -15.1002   27.0577 O   0  0  0  0  0  0  0  0  0  0  0  0
   12.3961  -16.2665   22.3713 O   0  0  0  0  0  0  0  0  0  0  0  0
   13.2183  -17.1598   27.0171 O   0  0  0  0  0  0  0  0  0  0  0  0
  2 13  1  0
  2  3  1  0
  2  1  1  6
  4  3  1  0
  4  5  2  0
  6  5  1  0
  7  6  1  0
  8  7  2  0
  9  8  1  0
 10  9  2  0
 10 11  1  0
 11 12  2  0
 12  7  1  0
 12  4  1  0
 13 14  2  0
 16 15  1  0
 17 16  1  0
 17 19  1  0
 17 18  1  6
 19 21  1  0
 19 20  1  1
 20 13  1  0
 21 22  2  0
 23 21  1  0
 23 24  1  0
 24 28  1  0
 24 25  1  6
 26 25  1  0
 26 27  2  0
 28 31  2  0
 28 29  1  0
 30 26  1  0
M  END
$$$$
