WID.pdb
     RDKit          3D

 31 32  0  0  1  0  0  0  0  0999 V2000
   10.6171  -16.4296   21.6389 N   0  0  0  0  0  0  0  0  0  0  0  0
    9.5431  -15.6280   22.1963 C   0  0  1  0  0  0  0  0  0  0  0  0
    8.1849  -16.2374   21.9213 C   0  0  0  0  0  0  0  0  0  0  0  0
    7.5629  -15.6901   20.7013 C   0  0  0  0  0  0  0  0  0  0  0  0
    7.0394  -16.4209   19.6610 C   0  0  0  0  0  0  0  0  0  0  0  0
    6.5812  -15.5342   18.7685 N   0  0  0  0  0  0  0  0  0  0  0  0
    6.7945  -14.2682   19.2036 C   0  0  0  0  0  0  0  0  0  0  0  0
    6.5116  -13.0503   18.6598 C   0  0  0  0  0  0  0  0  0  0  0  0
    6.8714  -11.9149   19.3809 C   0  0  0  0  0  0  0  0  0  0  0  0
    7.4898  -11.9985   20.5987 C   0  0  0  0  0  0  0  0  0  0  0  0
    7.7750  -13.2251   21.1475 C   0  0  0  0  0  0  0  0  0  0  0  0
    7.4144  -14.3644   20.4242 C   0  0  0  0  0  0  0  0  0  0  0  0
    9.7252  -15.6278   23.6776 C   0  0  0  0  0  0  0  0  0  0  0  0
   10.8553  -16.0506   24.0869 O   0  0  0  0  0  0  0  0  0  0  0  0
    6.5702  -12.3152   26.6799 C   0  0  0  0  0  0  0  0  0  0  0  0
    7.8159  -12.8986   26.0802 C   0  0  0  0  0  0  0  0  0  0  0  0
    8.1164  -14.2060   26.7316 C   0  0  2  0  0  0  0  0  0  0  0  0
    8.6257  -13.9130   28.1403 C   0  0  0  0  0  0  0  0  0  0  0  0
    9.1233  -15.0264   25.9848 C   0  0  2  0  0  0  0  0  0  0  0  0
    8.7591  -15.2064   24.5955 N   0  0  0  0  0  0  0  0  0  0  0  0
    9.3498  -16.3528   26.6460 C   0  0  0  0  0  0  0  0  0  0  0  0
    8.3819  -17.1212   26.7822 O   0  0  0  0  0  0  0  0  0  0  0  0
   10.6160  -16.7363   27.1080 N   0  0  0  0  0  0  0  0  0  0  0  0
   10.7377  -18.0018   27.8500 C   0  0  1  0  0  0  0  0  0  0  0  0
   12.1054  -18.5672   27.6692 C   0  0  0  0  0  0  0  0  0  0  0  0
   12.4009  -18.9456   26.2883 C   0  0  0  0  0  0  0  0  0  0  0  0
   11.5901  -19.0865   25.3635 O   0  0  0  0  0  0  0  0  0  0  0  0
   10.3930  -17.7429   29.2699 C   0  0  0  0  0  0  0  0  0  0  0  0
   10.1047  -18.7350   30.1635 O   0  0  0  0  0  0  0  0  0  0  0  0
   13.7623  -19.1821   25.9482 O   0  0  0  0  0  0  0  0  0  0  0  0
   10.3569  -16.5620   29.6978 O   0  0  0  0  0  0  0  0  0  0  0  0
  2 13  1  0
  2  3  1  0
  2  1  1  6
  4  3  1  0
  4  5  2  0
  6  5  1  0
  7  6  1  0
  8  7  2  0
  9  8  1  0
 10  9  2  0
 10 11  1  0
 11 12  2  0
 12  7  1  0
 12  4  1  0
 13 14  2  0
 16 15  1  0
 17 16  1  0
 17 19  1  0
 17 18  1  1
 19 21  1  0
 19 20  1  6
 20 13  1  0
 21 22  2  0
 23 21  1  0
 23 24  1  0
 24 28  1  0
 24 25  1  1
 26 25  1  0
 26 27  2  0
 28 31  2  0
 28 29  1  0
 30 26  1  0
M  END
$$$$
