WID.pdb
     RDKit          3D

 31 32  0  0  1  0  0  0  0  0999 V2000
    6.3897  -16.8637   25.1959 N   0  0  0  0  0  0  0  0  0  0  0  0
    7.0443  -15.6594   24.7185 C   0  0  1  0  0  0  0  0  0  0  0  0
    8.2954  -15.3467   25.5114 C   0  0  0  0  0  0  0  0  0  0  0  0
    7.9995  -14.6186   26.7593 C   0  0  0  0  0  0  0  0  0  0  0  0
    8.3372  -15.0189   28.0305 C   0  0  0  0  0  0  0  0  0  0  0  0
    7.8814  -14.0713   28.8593 N   0  0  0  0  0  0  0  0  0  0  0  0
    7.2670  -13.0848   28.1615 C   0  0  0  0  0  0  0  0  0  0  0  0
    6.6552  -11.9296   28.5493 C   0  0  0  0  0  0  0  0  0  0  0  0
    6.1108  -11.1161   27.5591 C   0  0  0  0  0  0  0  0  0  0  0  0
    6.1780  -11.4485   26.2334 C   0  0  0  0  0  0  0  0  0  0  0  0
    6.7944  -12.6119   25.8418 C   0  0  0  0  0  0  0  0  0  0  0  0
    7.3405  -13.4285   26.8349 C   0  0  0  0  0  0  0  0  0  0  0  0
    7.4770  -15.9273   23.3155 C   0  0  0  0  0  0  0  0  0  0  0  0
    7.2806  -17.1169   22.9034 O   0  0  0  0  0  0  0  0  0  0  0  0
    7.6716  -11.8060   19.8987 C   0  0  0  0  0  0  0  0  0  0  0  0
    7.2992  -13.1418   20.4721 C   0  0  0  0  0  0  0  0  0  0  0  0
    8.3934  -14.1197   20.2067 C   0  0  2  0  0  0  0  0  0  0  0  0
    8.2873  -14.5447   18.7446 C   0  0  0  0  0  0  0  0  0  0  0  0
    8.3431  -15.3258   21.0941 C   0  0  2  0  0  0  0  0  0  0  0  0
    8.0617  -14.9795   22.4710 N   0  0  0  0  0  0  0  0  0  0  0  0
    9.6054  -16.1292   21.0005 C   0  0  0  0  0  0  0  0  0  0  0  0
    9.6017  -17.1621   20.3082 O   0  0  0  0  0  0  0  0  0  0  0  0
   10.7735  -15.7425   21.6711 N   0  0  0  0  0  0  0  0  0  0  0  0
   11.9521  -16.6206   21.5893 C   0  0  1  0  0  0  0  0  0  0  0  0
   13.1755  -15.8066   21.3372 C   0  0  0  0  0  0  0  0  0  0  0  0
   13.2372  -15.2514   19.9862 C   0  0  0  0  0  0  0  0  0  0  0  0
   12.6870  -15.6970   18.9707 O   0  0  0  0  0  0  0  0  0  0  0  0
   12.0252  -17.4180   22.8385 C   0  0  0  0  0  0  0  0  0  0  0  0
   12.2354  -18.7676   22.8544 O   0  0  0  0  0  0  0  0  0  0  0  0
   14.0075  -14.0703   19.7950 O   0  0  0  0  0  0  0  0  0  0  0  0
   11.8900  -16.8489   23.9507 O   0  0  0  0  0  0  0  0  0  0  0  0
  2 13  1  0
  2  3  1  0
  2  1  1  1
  4  3  1  0
  4  5  2  0
  6  5  1  0
  7  6  1  0
  8  7  2  0
  9  8  1  0
 10  9  2  0
 10 11  1  0
 11 12  2  0
 12  7  1  0
 12  4  1  0
 13 14  2  0
 16 15  1  0
 17 16  1  0
 17 19  1  0
 17 18  1  6
 19 21  1  0
 19 20  1  1
 20 13  1  0
 21 22  2  0
 23 21  1  0
 23 24  1  0
 24 28  1  0
 24 25  1  1
 26 25  1  0
 26 27  2  0
 28 31  2  0
 28 29  1  0
 30 26  1  0
M  END
$$$$
