WID.pdb
     RDKit          3D

 31 32  0  0  1  0  0  0  0  0999 V2000
    6.4134  -17.1449   24.9528 N   0  0  0  0  0  0  0  0  0  0  0  0
    7.0943  -15.8835   24.7246 C   0  0  1  0  0  0  0  0  0  0  0  0
    8.2743  -15.7043   25.6558 C   0  0  0  0  0  0  0  0  0  0  0  0
    7.9630  -14.8118   26.7878 C   0  0  0  0  0  0  0  0  0  0  0  0
    7.9801  -15.1555   28.1189 C   0  0  0  0  0  0  0  0  0  0  0  0
    7.6380  -14.0538   28.7987 N   0  0  0  0  0  0  0  0  0  0  0  0
    7.4044  -13.0241   27.9486 C   0  0  0  0  0  0  0  0  0  0  0  0
    7.0359  -11.7278   28.1556 C   0  0  0  0  0  0  0  0  0  0  0  0
    6.8753  -10.9097   27.0405 C   0  0  0  0  0  0  0  0  0  0  0  0
    7.0767  -11.3738   25.7691 C   0  0  0  0  0  0  0  0  0  0  0  0
    7.4482  -12.6795   25.5596 C   0  0  0  0  0  0  0  0  0  0  0  0
    7.6092  -13.5007   26.6780 C   0  0  0  0  0  0  0  0  0  0  0  0
    7.6416  -15.9303   23.3369 C   0  0  0  0  0  0  0  0  0  0  0  0
    7.8268  -17.0990   22.8642 O   0  0  0  0  0  0  0  0  0  0  0  0
    6.0462  -14.5309   19.8690 C   0  0  0  0  0  0  0  0  0  0  0  0
    6.8773  -13.3393   20.2447 C   0  0  0  0  0  0  0  0  0  0  0  0
    8.3029  -13.7525   20.3888 C   0  0  2  0  0  0  0  0  0  0  0  0
    8.8550  -14.0005   18.9876 C   0  0  0  0  0  0  0  0  0  0  0  0
    8.4864  -14.9759   21.2339 C   0  0  2  0  0  0  0  0  0  0  0  0
    7.9479  -14.8051   22.5666 N   0  0  0  0  0  0  0  0  0  0  0  0
    9.9263  -15.3890   21.2966 C   0  0  0  0  0  0  0  0  0  0  0  0
   10.6665  -14.8368   22.1291 O   0  0  0  0  0  0  0  0  0  0  0  0
   10.4458  -16.3725   20.4443 N   0  0  0  0  0  0  0  0  0  0  0  0
   11.7724  -16.9336   20.7480 C   0  0  1  0  0  0  0  0  0  0  0  0
   11.7819  -17.4964   22.1286 C   0  0  0  0  0  0  0  0  0  0  0  0
   13.0539  -18.1167   22.4956 C   0  0  0  0  0  0  0  0  0  0  0  0
   13.3206  -19.3256   22.5002 O   0  0  0  0  0  0  0  0  0  0  0  0
   12.1035  -17.9348   19.7042 C   0  0  0  0  0  0  0  0  0  0  0  0
   13.2644  -17.9106   18.9846 O   0  0  0  0  0  0  0  0  0  0  0  0
   14.1149  -17.2558   22.8935 O   0  0  0  0  0  0  0  0  0  0  0  0
   11.2938  -18.8612   19.4490 O   0  0  0  0  0  0  0  0  0  0  0  0
  2 13  1  0
  2  3  1  0
  2  1  1  1
  4  3  1  0
  4  5  2  0
  6  5  1  0
  7  6  1  0
  8  7  2  0
  9  8  1  0
 10  9  2  0
 10 11  1  0
 11 12  2  0
 12  7  1  0
 12  4  1  0
 13 14  2  0
 16 15  1  0
 17 16  1  0
 17 19  1  0
 17 18  1  6
 19 21  1  0
 19 20  1  1
 20 13  1  0
 21 22  2  0
 23 21  1  0
 23 24  1  0
 24 28  1  0
 24 25  1  1
 26 25  1  0
 26 27  2  0
 28 31  2  0
 28 29  1  0
 30 26  1  0
M  END
$$$$
