GHT.pdb
     RDKit          3D

 22 22  0  0  1  0  0  0  0  0999 V2000
   15.3026  -13.0136  -14.5351 N   0  0  0  0  0  0  0  0  0  0  0  0
   15.3035  -12.4903  -15.8656 C   0  0  0  0  0  0  0  0  0  0  0  0
   16.6726  -12.0068  -16.2749 C   0  0  0  0  0  0  0  0  0  0  0  0
   17.5970  -12.8068  -16.1383 O   0  0  0  0  0  0  0  0  0  0  0  0
   16.8425  -10.7051  -16.7809 N   0  0  0  0  0  0  0  0  0  0  0  0
   18.0517  -10.0869  -17.2431 C   0  0  1  0  0  0  0  0  0  0  0  0
   18.1254   -9.8604  -18.7435 C   0  0  0  0  0  0  0  0  0  0  0  0
   19.4385   -9.3033  -19.1542 C   0  0  0  0  0  0  0  0  0  0  0  0
   19.9482   -8.0498  -18.9798 C   0  0  0  0  0  0  0  0  0  0  0  0
   21.1812   -8.0239  -19.5258 N   0  0  0  0  0  0  0  0  0  0  0  0
   21.4562   -9.2286  -20.0372 C   0  0  0  0  0  0  0  0  0  0  0  0
   20.4045  -10.0051  -19.8144 N   0  0  0  0  0  0  0  0  0  0  0  0
   18.5358   -8.9909  -16.4282 C   0  0  0  0  0  0  0  0  0  0  0  0
   17.8660   -7.9491  -16.1573 O   0  0  0  0  0  0  0  0  0  0  0  0
   20.8857   -9.3700  -13.1480 C   0  0  0  0  0  0  0  0  0  0  0  0
   21.4836   -8.4961  -14.2036 C   0  0  1  0  0  0  0  0  0  0  0  0
   22.2496   -9.2703  -15.0753 O   0  0  0  0  0  0  0  0  0  0  0  0
   20.3264   -7.9004  -15.0176 C   0  0  2  0  0  0  0  0  0  0  0  0
   19.8492   -9.0116  -15.8539 N   0  0  0  0  0  0  0  0  0  0  0  0
   20.9177   -6.8592  -15.8773 C   0  0  0  0  0  0  0  0  0  0  0  0
   21.4701   -5.7298  -15.3182 O   0  0  0  0  0  0  0  0  0  0  0  0
   20.9223   -6.9930  -17.1154 O   0  0  0  0  0  0  0  0  0  0  0  0
  2  1  1  0
  2  3  1  0
  3  4  2  0
  5  3  1  0
  5  6  1  0
  6 13  1  0
  6  7  1  6
  8 12  1  0
  8  7  1  0
  9  8  2  0
 10  9  1  0
 10 11  1  0
 11 12  2  0
 13 14  2  0
 13 19  1  0
 16 15  1  1
 16 18  1  0
 17 16  1  0
 18 20  1  0
 18 19  1  6
 20 22  2  0
 20 21  1  0
M  END
$$$$
