GHT.pdb
     RDKit          3D

 22 22  0  0  1  0  0  0  0  0999 V2000
   22.5526  -11.4575  -18.5949 N   0  0  0  0  0  0  0  0  0  0  0  0
   22.8923  -11.0438  -17.2692 C   0  0  0  0  0  0  0  0  0  0  0  0
   22.0020   -9.9253  -16.7874 C   0  0  0  0  0  0  0  0  0  0  0  0
   21.5821   -9.1531  -17.6481 O   0  0  0  0  0  0  0  0  0  0  0  0
   21.6916   -9.8053  -15.4205 N   0  0  0  0  0  0  0  0  0  0  0  0
   20.8774   -8.8113  -14.7825 C   0  0  1  0  0  0  0  0  0  0  0  0
   19.8015   -9.3570  -13.8592 C   0  0  0  0  0  0  0  0  0  0  0  0
   18.7738  -10.1276  -14.6031 C   0  0  0  0  0  0  0  0  0  0  0  0
   18.6785  -10.3936  -15.9379 C   0  0  0  0  0  0  0  0  0  0  0  0
   17.5678  -11.1329  -16.1350 N   0  0  0  0  0  0  0  0  0  0  0  0
   16.9657  -11.3363  -14.9582 C   0  0  0  0  0  0  0  0  0  0  0  0
   17.6923  -10.7297  -14.0294 N   0  0  0  0  0  0  0  0  0  0  0  0
   21.5927   -7.6548  -14.2822 C   0  0  0  0  0  0  0  0  0  0  0  0
   22.3146   -7.6544  -13.2399 O   0  0  0  0  0  0  0  0  0  0  0  0
   24.0559   -5.4513  -16.0957 C   0  0  0  0  0  0  0  0  0  0  0  0
   22.9016   -4.5911  -15.6919 C   0  0  1  0  0  0  0  0  0  0  0  0
   21.9356   -4.5994  -16.6983 O   0  0  0  0  0  0  0  0  0  0  0  0
   22.2688   -5.2255  -14.4454 C   0  0  2  0  0  0  0  0  0  0  0  0
   21.5304   -6.3903  -14.9549 N   0  0  0  0  0  0  0  0  0  0  0  0
   21.3151   -4.2345  -13.9152 C   0  0  0  0  0  0  0  0  0  0  0  0
   21.7726   -3.1015  -13.2826 O   0  0  0  0  0  0  0  0  0  0  0  0
   20.0886   -4.4143  -14.0353 O   0  0  0  0  0  0  0  0  0  0  0  0
  2  1  1  0
  2  3  1  0
  3  4  2  0
  5  3  1  0
  5  6  1  0
  6 13  1  0
  6  7  1  1
  8 12  1  0
  8  7  1  0
  9  8  2  0
 10  9  1  0
 10 11  1  0
 11 12  2  0
 13 14  2  0
 13 19  1  0
 16 15  1  6
 16 18  1  0
 17 16  1  0
 18 20  1  0
 18 19  1  6
 20 22  2  0
 20 21  1  0
M  END
$$$$
