GHT.pdb
     RDKit          3D

 22 22  0  0  1  0  0  0  0  0999 V2000
   17.2539  -11.5062  -14.6251 N   0  0  0  0  0  0  0  0  0  0  0  0
   16.8000  -10.8246  -15.7971 C   0  0  0  0  0  0  0  0  0  0  0  0
   17.5090   -9.5066  -15.9868 C   0  0  0  0  0  0  0  0  0  0  0  0
   18.2622   -9.4270  -16.9562 O   0  0  0  0  0  0  0  0  0  0  0  0
   17.2945   -8.4499  -15.0832 N   0  0  0  0  0  0  0  0  0  0  0  0
   17.8899   -7.1448  -15.0912 C   0  0  1  0  0  0  0  0  0  0  0  0
   16.9048   -5.9884  -15.0780 C   0  0  0  0  0  0  0  0  0  0  0  0
   16.0762   -5.9544  -16.3091 C   0  0  0  0  0  0  0  0  0  0  0  0
   15.1254   -6.8300  -16.7459 C   0  0  0  0  0  0  0  0  0  0  0  0
   14.6491   -6.3721  -17.9218 N   0  0  0  0  0  0  0  0  0  0  0  0
   15.2772   -5.2329  -18.2319 C   0  0  0  0  0  0  0  0  0  0  0  0
   16.1411   -4.9771  -17.2588 N   0  0  0  0  0  0  0  0  0  0  0  0
   19.0413   -6.9856  -14.2261 C   0  0  0  0  0  0  0  0  0  0  0  0
   19.0188   -7.1389  -12.9677 O   0  0  0  0  0  0  0  0  0  0  0  0
   22.4837   -8.6021  -14.4574 C   0  0  0  0  0  0  0  0  0  0  0  0
   22.6503   -7.1236  -14.6048 C   0  0  1  0  0  0  0  0  0  0  0  0
   22.5451   -6.7715  -15.9506 O   0  0  0  0  0  0  0  0  0  0  0  0
   21.4848   -6.4531  -13.8640 C   0  0  2  0  0  0  0  0  0  0  0  0
   20.3271   -6.6323  -14.7526 N   0  0  0  0  0  0  0  0  0  0  0  0
   21.8188   -5.0199  -13.7776 C   0  0  0  0  0  0  0  0  0  0  0  0
   22.8176   -4.5905  -12.9343 O   0  0  0  0  0  0  0  0  0  0  0  0
   21.2003   -4.1869  -14.4665 O   0  0  0  0  0  0  0  0  0  0  0  0
  2  1  1  0
  2  3  1  0
  3  4  2  0
  5  3  1  0
  5  6  1  0
  6 13  1  0
  6  7  1  1
  8 12  1  0
  8  7  1  0
  9  8  2  0
 10  9  1  0
 10 11  1  0
 11 12  2  0
 13 14  2  0
 13 19  1  0
 16 15  1  6
 16 18  1  0
 17 16  1  0
 18 20  1  0
 18 19  1  6
 20 22  2  0
 20 21  1  0
M  END
$$$$
