GHT.pdb
     RDKit          3D

 22 22  0  0  1  0  0  0  0  0999 V2000
   33.4798  -32.4026    0.3863 N   0  0  0  0  0  0  0  0  0  0  0  0
   32.7464  -33.6195    0.2265 C   0  0  0  0  0  0  0  0  0  0  0  0
   31.2666  -33.4112    0.4328 C   0  0  0  0  0  0  0  0  0  0  0  0
   30.9196  -32.2897    0.8005 O   0  0  0  0  0  0  0  0  0  0  0  0
   30.3640  -34.4664    0.2068 N   0  0  0  0  0  0  0  0  0  0  0  0
   28.9319  -34.4369    0.2835 C   0  0  1  0  0  0  0  0  0  0  0  0
   28.2117  -35.1001   -0.8782 C   0  0  0  0  0  0  0  0  0  0  0  0
   28.4500  -34.3848   -2.1567 C   0  0  0  0  0  0  0  0  0  0  0  0
   29.1548  -33.2421   -2.3997 C   0  0  0  0  0  0  0  0  0  0  0  0
   29.0848  -32.9850   -3.7218 N   0  0  0  0  0  0  0  0  0  0  0  0
   28.3545  -33.9371   -4.3124 C   0  0  0  0  0  0  0  0  0  0  0  0
   27.9688  -34.7854   -3.3689 N   0  0  0  0  0  0  0  0  0  0  0  0
   28.3774  -34.7137    1.5933 C   0  0  0  0  0  0  0  0  0  0  0  0
   28.5599  -35.7915    2.2355 O   0  0  0  0  0  0  0  0  0  0  0  0
   28.3459  -32.3096    4.6592 C   0  0  0  0  0  0  0  0  0  0  0  0
   26.9421  -32.6870    4.3094 C   0  0  1  0  0  0  0  0  0  0  0  0
   26.4208  -31.7651    3.4014 O   0  0  0  0  0  0  0  0  0  0  0  0
   26.9944  -34.0477    3.6006 C   0  0  2  0  0  0  0  0  0  0  0  0
   27.5576  -33.7548    2.2743 N   0  0  0  0  0  0  0  0  0  0  0  0
   25.5965  -34.4913    3.4521 C   0  0  0  0  0  0  0  0  0  0  0  0
   24.8848  -34.9191    4.5492 O   0  0  0  0  0  0  0  0  0  0  0  0
   25.0488  -34.4825    2.3337 O   0  0  0  0  0  0  0  0  0  0  0  0
  2  1  1  0
  2  3  1  0
  3  4  2  0
  5  3  1  0
  5  6  1  0
  6 13  1  0
  6  7  1  6
  8 12  1  0
  8  7  1  0
  9  8  2  0
 10  9  1  0
 10 11  1  0
 11 12  2  0
 13 14  2  0
 13 19  1  0
 16 15  1  6
 16 18  1  0
 17 16  1  0
 18 20  1  0
 18 19  1  6
 20 22  2  0
 20 21  1  0
M  END
$$$$
