GHT.pdb
     RDKit          3D

 22 22  0  0  1  0  0  0  0  0999 V2000
   24.2681  -13.2471  -19.4274 N   0  0  0  0  0  0  0  0  0  0  0  0
   23.0313  -13.5450  -18.7749 C   0  0  0  0  0  0  0  0  0  0  0  0
   23.0428  -14.9212  -18.1571 C   0  0  0  0  0  0  0  0  0  0  0  0
   23.1731  -15.8665  -18.9333 O   0  0  0  0  0  0  0  0  0  0  0  0
   22.9091  -15.0742  -16.7650 N   0  0  0  0  0  0  0  0  0  0  0  0
   22.7851  -16.2920  -16.0170 C   0  0  1  0  0  0  0  0  0  0  0  0
   23.7867  -16.4575  -14.8868 C   0  0  0  0  0  0  0  0  0  0  0  0
   25.1800  -16.5425  -15.3915 C   0  0  0  0  0  0  0  0  0  0  0  0
   25.6470  -16.5234  -16.6733 C   0  0  0  0  0  0  0  0  0  0  0  0
   26.9909  -16.6284  -16.6266 N   0  0  0  0  0  0  0  0  0  0  0  0
   27.3768  -16.7126  -15.3489 C   0  0  0  0  0  0  0  0  0  0  0  0
   26.2842  -16.6610  -14.5990 N   0  0  0  0  0  0  0  0  0  0  0  0
   21.4274  -16.6883  -15.7023 C   0  0  0  0  0  0  0  0  0  0  0  0
   20.6778  -16.0849  -14.8769 O   0  0  0  0  0  0  0  0  0  0  0  0
   18.5683  -17.3016  -18.0822 C   0  0  0  0  0  0  0  0  0  0  0  0
   18.8079  -18.5814  -17.3473 C   0  0  1  0  0  0  0  0  0  0  0  0
   19.7310  -19.3586  -18.0472 O   0  0  0  0  0  0  0  0  0  0  0  0
   19.4422  -18.2241  -15.9958 C   0  0  2  0  0  0  0  0  0  0  0  0
   20.8195  -17.8280  -16.3245 N   0  0  0  0  0  0  0  0  0  0  0  0
   19.4656  -19.4693  -15.2072 C   0  0  0  0  0  0  0  0  0  0  0  0
   18.3138  -19.9391  -14.6192 O   0  0  0  0  0  0  0  0  0  0  0  0
   20.5269  -20.1056  -15.0668 O   0  0  0  0  0  0  0  0  0  0  0  0
  2  1  1  0
  2  3  1  0
  3  4  2  0
  5  3  1  0
  5  6  1  0
  6 13  1  0
  6  7  1  1
  8 12  1  0
  8  7  1  0
  9  8  2  0
 10  9  1  0
 10 11  1  0
 11 12  2  0
 13 14  2  0
 13 19  1  0
 16 15  1  6
 16 18  1  0
 17 16  1  0
 18 20  1  0
 18 19  1  6
 20 22  2  0
 20 21  1  0
M  END
$$$$
