GHT.pdb
     RDKit          3D

 22 22  0  0  1  0  0  0  0  0999 V2000
   20.5331  -12.7289  -17.3249 N   0  0  0  0  0  0  0  0  0  0  0  0
   21.4635  -11.7306  -16.8984 C   0  0  0  0  0  0  0  0  0  0  0  0
   20.7757  -10.4274  -16.5753 C   0  0  0  0  0  0  0  0  0  0  0  0
   20.5824   -9.6637  -17.5202 O   0  0  0  0  0  0  0  0  0  0  0  0
   20.3915  -10.1375  -15.2534 N   0  0  0  0  0  0  0  0  0  0  0  0
   19.8337   -8.9190  -14.7416 C   0  0  1  0  0  0  0  0  0  0  0  0
   18.5694   -9.0872  -13.9161 C   0  0  0  0  0  0  0  0  0  0  0  0
   17.4868   -9.7430  -14.6912 C   0  0  0  0  0  0  0  0  0  0  0  0
   17.4422  -10.0854  -16.0112 C   0  0  0  0  0  0  0  0  0  0  0  0
   16.2452  -10.6591  -16.2505 N   0  0  0  0  0  0  0  0  0  0  0  0
   15.5398  -10.6845  -15.1146 C   0  0  0  0  0  0  0  0  0  0  0  0
   16.2875  -10.1313  -14.1693 N   0  0  0  0  0  0  0  0  0  0  0  0
   20.7958   -7.9734  -14.2127 C   0  0  0  0  0  0  0  0  0  0  0  0
   21.4682   -8.1522  -13.1528 O   0  0  0  0  0  0  0  0  0  0  0  0
   23.5836   -6.3626  -16.2483 C   0  0  0  0  0  0  0  0  0  0  0  0
   22.7659   -5.2627  -15.6508 C   0  0  1  0  0  0  0  0  0  0  0  0
   21.7436   -4.9070  -16.5309 O   0  0  0  0  0  0  0  0  0  0  0  0
   22.1044   -5.8183  -14.3818 C   0  0  2  0  0  0  0  0  0  0  0  0
   21.0612   -6.7297  -14.8747 N   0  0  0  0  0  0  0  0  0  0  0  0
   21.4727   -4.6698  -13.7074 C   0  0  0  0  0  0  0  0  0  0  0  0
   22.2465   -3.7368  -13.0564 O   0  0  0  0  0  0  0  0  0  0  0  0
   20.2347   -4.5347  -13.7213 O   0  0  0  0  0  0  0  0  0  0  0  0
  2  1  1  0
  2  3  1  0
  3  4  2  0
  5  3  1  0
  5  6  1  0
  6 13  1  0
  6  7  1  1
  8 12  1  0
  8  7  1  0
  9  8  2  0
 10  9  1  0
 10 11  1  0
 11 12  2  0
 13 14  2  0
 13 19  1  0
 16 15  1  6
 16 18  1  0
 17 16  1  0
 18 20  1  0
 18 19  1  6
 20 22  2  0
 20 21  1  0
M  END
$$$$
