GHT.pdb
     RDKit          3D

 22 22  0  0  1  0  0  0  0  0999 V2000
   15.6079  -13.9106  -17.9526 N   0  0  0  0  0  0  0  0  0  0  0  0
   15.8196  -13.8943  -16.5387 C   0  0  0  0  0  0  0  0  0  0  0  0
   16.9697  -12.9961  -16.1563 C   0  0  0  0  0  0  0  0  0  0  0  0
   17.3441  -13.0576  -14.9861 O   0  0  0  0  0  0  0  0  0  0  0  0
   17.5557  -12.1483  -17.1139 N   0  0  0  0  0  0  0  0  0  0  0  0
   18.5736  -11.1577  -16.9132 C   0  0  1  0  0  0  0  0  0  0  0  0
   19.7588  -11.2525  -17.8589 C   0  0  0  0  0  0  0  0  0  0  0  0
   20.4047  -12.5877  -17.8030 C   0  0  0  0  0  0  0  0  0  0  0  0
   20.1240  -13.6608  -17.0086 C   0  0  0  0  0  0  0  0  0  0  0  0
   20.9855  -14.6487  -17.3264 N   0  0  0  0  0  0  0  0  0  0  0  0
   21.7979  -14.2215  -18.2991 C   0  0  0  0  0  0  0  0  0  0  0  0
   21.4497  -12.9754  -18.5899 N   0  0  0  0  0  0  0  0  0  0  0  0
   18.0886   -9.8154  -16.6629 C   0  0  0  0  0  0  0  0  0  0  0  0
   17.4312   -9.1237  -17.4977 O   0  0  0  0  0  0  0  0  0  0  0  0
   15.8896   -8.7221  -13.9145 C   0  0  0  0  0  0  0  0  0  0  0  0
   17.1410   -7.9179  -13.7635 C   0  0  1  0  0  0  0  0  0  0  0  0
   18.0364   -8.5947  -12.9349 O   0  0  0  0  0  0  0  0  0  0  0  0
   17.7908   -7.8132  -15.1503 C   0  0  2  0  0  0  0  0  0  0  0  0
   18.3275   -9.1569  -15.4121 N   0  0  0  0  0  0  0  0  0  0  0  0
   18.9056   -6.8584  -15.0143 C   0  0  0  0  0  0  0  0  0  0  0  0
   18.6522   -5.5192  -14.8256 O   0  0  0  0  0  0  0  0  0  0  0  0
   20.0847   -7.2555  -15.0689 O   0  0  0  0  0  0  0  0  0  0  0  0
  2  1  1  0
  2  3  1  0
  3  4  2  0
  5  3  1  0
  5  6  1  0
  6 13  1  0
  6  7  1  6
  8 12  1  0
  8  7  1  0
  9  8  2  0
 10  9  1  0
 10 11  1  0
 11 12  2  0
 13 14  2  0
 13 19  1  0
 16 15  1  6
 16 18  1  0
 17 16  1  0
 18 20  1  0
 18 19  1  1
 20 22  2  0
 20 21  1  0
M  END
$$$$
