GHT.pdb
     RDKit          3D

 22 22  0  0  1  0  0  0  0  0999 V2000
   21.3611  -11.4840  -18.4795 N   0  0  0  0  0  0  0  0  0  0  0  0
   20.7502  -11.5223  -17.1873 C   0  0  0  0  0  0  0  0  0  0  0  0
   21.4512  -10.6109  -16.2107 C   0  0  0  0  0  0  0  0  0  0  0  0
   20.9471  -10.5187  -15.0923 O   0  0  0  0  0  0  0  0  0  0  0  0
   22.6154   -9.9211  -16.5953 N   0  0  0  0  0  0  0  0  0  0  0  0
   23.3579   -8.9512  -15.8431 C   0  0  1  0  0  0  0  0  0  0  0  0
   24.8618   -9.1652  -15.8248 C   0  0  0  0  0  0  0  0  0  0  0  0
   25.2143  -10.6065  -15.7861 C   0  0  0  0  0  0  0  0  0  0  0  0
   24.4049  -11.7011  -15.6957 C   0  0  0  0  0  0  0  0  0  0  0  0
   25.1896  -12.7981  -15.6954 N   0  0  0  0  0  0  0  0  0  0  0  0
   26.4689  -12.4182  -15.7832 C   0  0  0  0  0  0  0  0  0  0  0  0
   26.4877  -11.0934  -15.8383 N   0  0  0  0  0  0  0  0  0  0  0  0
   22.9313   -7.5772  -16.0155 C   0  0  0  0  0  0  0  0  0  0  0  0
   23.1935   -6.8678  -17.0330 O   0  0  0  0  0  0  0  0  0  0  0  0
   19.6876   -6.2770  -16.3155 C   0  0  0  0  0  0  0  0  0  0  0  0
   20.1920   -5.5669  -15.1003 C   0  0  1  0  0  0  0  0  0  0  0  0
   19.8765   -6.3062  -13.9601 O   0  0  0  0  0  0  0  0  0  0  0  0
   21.7229   -5.5127  -15.2011 C   0  0  2  0  0  0  0  0  0  0  0  0
   22.1576   -6.9047  -15.0133 N   0  0  0  0  0  0  0  0  0  0  0  0
   22.1843   -4.6976  -14.0629 C   0  0  0  0  0  0  0  0  0  0  0  0
   22.0216   -3.3314  -14.0776 O   0  0  0  0  0  0  0  0  0  0  0  0
   22.7246   -5.2382  -13.0797 O   0  0  0  0  0  0  0  0  0  0  0  0
  2  1  1  0
  2  3  1  0
  3  4  2  0
  5  3  1  0
  5  6  1  0
  6 13  1  0
  6  7  1  6
  8 12  1  0
  8  7  1  0
  9  8  2  0
 10  9  1  0
 10 11  1  0
 11 12  2  0
 13 14  2  0
 13 19  1  0
 16 15  1  6
 16 18  1  0
 17 16  1  0
 18 20  1  0
 18 19  1  1
 20 22  2  0
 20 21  1  0
M  END
$$$$
