GHT.pdb
     RDKit          3D

 22 22  0  0  1  0  0  0  0  0999 V2000
   22.4791  -11.9165  -17.8875 N   0  0  0  0  0  0  0  0  0  0  0  0
   22.0346  -10.7420  -18.5708 C   0  0  0  0  0  0  0  0  0  0  0  0
   21.2806   -9.8127  -17.6522 C   0  0  0  0  0  0  0  0  0  0  0  0
   20.6097   -8.9356  -18.1943 O   0  0  0  0  0  0  0  0  0  0  0  0
   21.3655   -9.9725  -16.2570 N   0  0  0  0  0  0  0  0  0  0  0  0
   20.7508   -9.1736  -15.2364 C   0  0  1  0  0  0  0  0  0  0  0  0
   19.9528   -9.9516  -14.2039 C   0  0  0  0  0  0  0  0  0  0  0  0
   18.6654  -10.4424  -14.7559 C   0  0  0  0  0  0  0  0  0  0  0  0
   18.1294  -10.2779  -15.9997 C   0  0  0  0  0  0  0  0  0  0  0  0
   16.9376  -10.9089  -16.0244 N   0  0  0  0  0  0  0  0  0  0  0  0
   16.7141  -11.4639  -14.8283 C   0  0  0  0  0  0  0  0  0  0  0  0
   17.7569  -11.1838  -14.0585 N   0  0  0  0  0  0  0  0  0  0  0  0
   21.5765   -8.1082  -14.7047 C   0  0  0  0  0  0  0  0  0  0  0  0
   22.5342   -8.2813  -13.8922 O   0  0  0  0  0  0  0  0  0  0  0  0
   23.8283   -5.8597  -16.3063 C   0  0  0  0  0  0  0  0  0  0  0  0
   22.7873   -4.9542  -15.7302 C   0  0  1  0  0  0  0  0  0  0  0  0
   21.7586   -4.7737  -16.6550 O   0  0  0  0  0  0  0  0  0  0  0  0
   22.1853   -5.6635  -14.5091 C   0  0  2  0  0  0  0  0  0  0  0  0
   21.3588   -6.7402  -15.0743 N   0  0  0  0  0  0  0  0  0  0  0  0
   21.3158   -4.6764  -13.8438 C   0  0  0  0  0  0  0  0  0  0  0  0
   21.8666   -3.6350  -13.1331 O   0  0  0  0  0  0  0  0  0  0  0  0
   20.0768   -4.7769  -13.9194 O   0  0  0  0  0  0  0  0  0  0  0  0
  2  1  1  0
  2  3  1  0
  3  4  2  0
  5  3  1  0
  5  6  1  0
  6 13  1  0
  6  7  1  1
  8 12  1  0
  8  7  1  0
  9  8  2  0
 10  9  1  0
 10 11  1  0
 11 12  2  0
 13 14  2  0
 13 19  1  0
 16 15  1  6
 16 18  1  0
 17 16  1  0
 18 20  1  0
 18 19  1  6
 20 22  2  0
 20 21  1  0
M  END
$$$$
