GHT.pdb
     RDKit          3D

 22 22  0  0  1  0  0  0  0  0999 V2000
   18.2231  -12.3195  -15.4647 N   0  0  0  0  0  0  0  0  0  0  0  0
   19.0844  -11.9117  -16.5306 C   0  0  0  0  0  0  0  0  0  0  0  0
   19.1733  -10.4093  -16.6334 C   0  0  0  0  0  0  0  0  0  0  0  0
   19.7470   -9.9635  -17.6261 O   0  0  0  0  0  0  0  0  0  0  0  0
   18.6182   -9.5960  -15.6286 N   0  0  0  0  0  0  0  0  0  0  0  0
   18.6007   -8.1632  -15.5598 C   0  0  1  0  0  0  0  0  0  0  0  0
   17.2170   -7.5388  -15.5023 C   0  0  0  0  0  0  0  0  0  0  0  0
   16.4111   -7.8701  -16.7039 C   0  0  0  0  0  0  0  0  0  0  0  0
   16.6558   -7.6047  -18.0197 C   0  0  0  0  0  0  0  0  0  0  0  0
   15.6315   -8.1045  -18.7409 N   0  0  0  0  0  0  0  0  0  0  0  0
   14.7524   -8.6757  -17.9106 C   0  0  0  0  0  0  0  0  0  0  0  0
   15.2205   -8.5359  -16.6778 N   0  0  0  0  0  0  0  0  0  0  0  0
   19.5813   -7.5755  -14.6695 C   0  0  0  0  0  0  0  0  0  0  0  0
   19.6665   -7.8284  -13.4301 O   0  0  0  0  0  0  0  0  0  0  0  0
   23.2517   -7.7794  -14.8852 C   0  0  0  0  0  0  0  0  0  0  0  0
   22.9093   -6.3290  -15.0063 C   0  0  1  0  0  0  0  0  0  0  0  0
   22.6815   -6.0109  -16.3454 O   0  0  0  0  0  0  0  0  0  0  0  0
   21.5917   -6.1026  -14.2518 C   0  0  2  0  0  0  0  0  0  0  0  0
   20.5543   -6.6368  -15.1465 N   0  0  0  0  0  0  0  0  0  0  0  0
   21.4295   -4.6425  -14.1305 C   0  0  0  0  0  0  0  0  0  0  0  0
   22.1803   -3.9349  -13.2202 O   0  0  0  0  0  0  0  0  0  0  0  0
   20.6125   -4.0380  -14.8503 O   0  0  0  0  0  0  0  0  0  0  0  0
  2  1  1  0
  2  3  1  0
  3  4  2  0
  5  3  1  0
  5  6  1  0
  6 13  1  0
  6  7  1  1
  8 12  1  0
  8  7  1  0
  9  8  2  0
 10  9  1  0
 10 11  1  0
 11 12  2  0
 13 14  2  0
 13 19  1  0
 16 15  1  6
 16 18  1  0
 17 16  1  0
 18 20  1  0
 18 19  1  6
 20 22  2  0
 20 21  1  0
M  END
$$$$
