GHT.pdb
     RDKit          3D

 22 22  0  0  1  0  0  0  0  0999 V2000
   14.4593   -9.9958  -19.4921 N   0  0  0  0  0  0  0  0  0  0  0  0
   15.4328  -10.8810  -18.9326 C   0  0  0  0  0  0  0  0  0  0  0  0
   16.1649  -10.2472  -17.7759 C   0  0  0  0  0  0  0  0  0  0  0  0
   15.6233  -10.3329  -16.6747 O   0  0  0  0  0  0  0  0  0  0  0  0
   17.3976   -9.6022  -17.9852 N   0  0  0  0  0  0  0  0  0  0  0  0
   18.1849   -8.8698  -17.0357 C   0  0  1  0  0  0  0  0  0  0  0  0
   19.3884   -9.6162  -16.4859 C   0  0  0  0  0  0  0  0  0  0  0  0
   19.0352  -10.9915  -16.0536 C   0  0  0  0  0  0  0  0  0  0  0  0
   19.1771  -12.1775  -16.7131 C   0  0  0  0  0  0  0  0  0  0  0  0
   18.7115  -13.1564  -15.9105 N   0  0  0  0  0  0  0  0  0  0  0  0
   18.2821  -12.6137  -14.7662 C   0  0  0  0  0  0  0  0  0  0  0  0
   18.4763  -11.3045  -14.8491 N   0  0  0  0  0  0  0  0  0  0  0  0
   18.4197   -7.4794  -17.3695 C   0  0  0  0  0  0  0  0  0  0  0  0
   19.2243   -7.0837  -18.2658 O   0  0  0  0  0  0  0  0  0  0  0  0
   15.6968   -4.8157  -17.9809 C   0  0  0  0  0  0  0  0  0  0  0  0
   16.5803   -4.3495  -16.8685 C   0  0  1  0  0  0  0  0  0  0  0  0
   16.0695   -4.7902  -15.6475 O   0  0  0  0  0  0  0  0  0  0  0  0
   17.9501   -5.0160  -17.0587 C   0  0  2  0  0  0  0  0  0  0  0  0
   17.7346   -6.4219  -16.6857 N   0  0  0  0  0  0  0  0  0  0  0  0
   18.8571   -4.3840  -16.0835 C   0  0  0  0  0  0  0  0  0  0  0  0
   19.3129   -3.1024  -16.2903 O   0  0  0  0  0  0  0  0  0  0  0  0
   19.2178   -5.0043  -15.0656 O   0  0  0  0  0  0  0  0  0  0  0  0
  2  1  1  0
  2  3  1  0
  3  4  2  0
  5  3  1  0
  5  6  1  0
  6 13  1  0
  6  7  1  6
  8 12  1  0
  8  7  1  0
  9  8  2  0
 10  9  1  0
 10 11  1  0
 11 12  2  0
 13 14  2  0
 13 19  1  0
 16 15  1  6
 16 18  1  0
 17 16  1  0
 18 20  1  0
 18 19  1  1
 20 22  2  0
 20 21  1  0
M  END
$$$$
