GHT.pdb
     RDKit          3D

 22 22  0  0  1  0  0  0  0  0999 V2000
   24.7597  -20.0672  -18.4728 N   0  0  0  0  0  0  0  0  0  0  0  0
   24.1989  -18.7539  -18.5432 C   0  0  0  0  0  0  0  0  0  0  0  0
   25.2318  -17.7254  -18.9317 C   0  0  0  0  0  0  0  0  0  0  0  0
   25.2681  -17.4106  -20.1203 O   0  0  0  0  0  0  0  0  0  0  0  0
   26.0888  -17.1791  -17.9588 N   0  0  0  0  0  0  0  0  0  0  0  0
   27.0980  -16.1746  -18.1330 C   0  0  1  0  0  0  0  0  0  0  0  0
   27.1951  -15.1585  -17.0078 C   0  0  0  0  0  0  0  0  0  0  0  0
   26.0322  -14.2363  -16.9943 C   0  0  0  0  0  0  0  0  0  0  0  0
   24.9517  -14.1815  -17.8255 C   0  0  0  0  0  0  0  0  0  0  0  0
   24.1613  -13.1698  -17.4119 N   0  0  0  0  0  0  0  0  0  0  0  0
   24.7193  -12.5903  -16.3436 C   0  0  0  0  0  0  0  0  0  0  0  0
   25.8510  -13.2326  -16.0881 N   0  0  0  0  0  0  0  0  0  0  0  0
   28.3663  -16.6550  -18.6430 C   0  0  0  0  0  0  0  0  0  0  0  0
   29.1849  -17.3597  -17.9792 O   0  0  0  0  0  0  0  0  0  0  0  0
   28.9616  -18.7133  -21.7551 C   0  0  0  0  0  0  0  0  0  0  0  0
   29.6813  -17.4127  -21.9165 C   0  0  1  0  0  0  0  0  0  0  0  0
   28.8242  -16.4695  -22.4839 O   0  0  0  0  0  0  0  0  0  0  0  0
   30.0472  -16.9119  -20.5122 C   0  0  2  0  0  0  0  0  0  0  0  0
   28.7954  -16.3558  -19.9778 N   0  0  0  0  0  0  0  0  0  0  0  0
   31.0245  -15.8249  -20.7019 C   0  0  0  0  0  0  0  0  0  0  0  0
   32.2944  -16.1050  -21.1514 O   0  0  0  0  0  0  0  0  0  0  0  0
   30.7092  -14.6452  -20.4571 O   0  0  0  0  0  0  0  0  0  0  0  0
  2  1  1  0
  2  3  1  0
  3  4  2  0
  5  3  1  0
  5  6  1  0
  6 13  1  0
  6  7  1  1
  8 12  1  0
  8  7  1  0
  9  8  2  0
 10  9  1  0
 10 11  1  0
 11 12  2  0
 13 14  2  0
 13 19  1  0
 16 15  1  1
 16 18  1  0
 17 16  1  0
 18 20  1  0
 18 19  1  6
 20 22  2  0
 20 21  1  0
M  END
$$$$
