GHT.pdb
     RDKit          3D

 22 22  0  0  1  0  0  0  0  0999 V2000
   16.8247   -9.7567  -18.0669 N   0  0  0  0  0  0  0  0  0  0  0  0
   17.2574   -8.5332  -17.4668 C   0  0  0  0  0  0  0  0  0  0  0  0
   18.4005   -8.7549  -16.5077 C   0  0  0  0  0  0  0  0  0  0  0  0
   18.0944   -9.0258  -15.3475 O   0  0  0  0  0  0  0  0  0  0  0  0
   19.7305   -8.6487  -16.9538 N   0  0  0  0  0  0  0  0  0  0  0  0
   20.9345   -8.7934  -16.1873 C   0  0  1  0  0  0  0  0  0  0  0  0
   21.7952   -9.9882  -16.5608 C   0  0  0  0  0  0  0  0  0  0  0  0
   21.0037  -11.2426  -16.6187 C   0  0  0  0  0  0  0  0  0  0  0  0
   20.4857  -11.9956  -15.6058 C   0  0  0  0  0  0  0  0  0  0  0  0
   19.8437  -13.0461  -16.1567 N   0  0  0  0  0  0  0  0  0  0  0  0
   19.9466  -12.9698  -17.4879 C   0  0  0  0  0  0  0  0  0  0  0  0
   20.6475  -11.8803  -17.7711 N   0  0  0  0  0  0  0  0  0  0  0  0
   21.6593   -7.5638  -15.9374 C   0  0  0  0  0  0  0  0  0  0  0  0
   22.7361   -7.2355  -16.5207 O   0  0  0  0  0  0  0  0  0  0  0  0
   20.7106   -4.2399  -16.5247 C   0  0  0  0  0  0  0  0  0  0  0  0
   20.9360   -4.2385  -15.0467 C   0  0  1  0  0  0  0  0  0  0  0  0
   19.7447   -4.5482  -14.3901 O   0  0  0  0  0  0  0  0  0  0  0  0
   21.9362   -5.3599  -14.7326 C   0  0  2  0  0  0  0  0  0  0  0  0
   21.1916   -6.6030  -14.9816 N   0  0  0  0  0  0  0  0  0  0  0  0
   22.2417   -5.2516  -13.2946 C   0  0  0  0  0  0  0  0  0  0  0  0
   22.9889   -4.1972  -12.8222 O   0  0  0  0  0  0  0  0  0  0  0  0
   21.8265   -6.1125  -12.4963 O   0  0  0  0  0  0  0  0  0  0  0  0
  2  1  1  0
  2  3  1  0
  3  4  2  0
  5  3  1  0
  5  6  1  0
  6 13  1  0
  6  7  1  6
  8 12  1  0
  8  7  1  0
  9  8  2  0
 10  9  1  0
 10 11  1  0
 11 12  2  0
 13 14  2  0
 13 19  1  0
 16 15  1  6
 16 18  1  0
 17 16  1  0
 18 20  1  0
 18 19  1  1
 20 22  2  0
 20 21  1  0
M  END
$$$$
