FYC.pdb
     RDKit          3D

 30 31  0  0  1  0  0  0  0  0999 V2000
   20.2902  -23.4783  -17.2244 N   0  0  0  0  0  0  0  0  0  0  0  0
   21.0287  -23.3753  -15.9945 C   0  0  1  0  0  0  0  0  0  0  0  0
   20.6117  -22.1327  -15.2050 C   0  0  0  0  0  0  0  0  0  0  0  0
   21.0860  -20.8928  -15.8279 C   0  0  0  0  0  0  0  0  0  0  0  0
   20.1980  -20.0952  -16.4994 C   0  0  0  0  0  0  0  0  0  0  0  0
   20.5696  -18.9161  -17.1098 C   0  0  0  0  0  0  0  0  0  0  0  0
   21.8840  -18.5084  -17.0518 C   0  0  0  0  0  0  0  0  0  0  0  0
   22.7787  -19.2987  -16.3831 C   0  0  0  0  0  0  0  0  0  0  0  0
   22.4030  -20.4793  -15.7727 C   0  0  0  0  0  0  0  0  0  0  0  0
   20.7108  -24.5395  -15.1359 C   0  0  0  0  0  0  0  0  0  0  0  0
   19.5261  -24.9538  -15.1034 O   0  0  0  0  0  0  0  0  0  0  0  0
   21.3440  -31.9262  -10.3179 O   0  0  0  0  0  0  0  0  0  0  0  0
   21.6288  -30.7631  -11.0042 C   0  0  0  0  0  0  0  0  0  0  0  0
   22.0413  -29.6216  -10.3337 C   0  0  0  0  0  0  0  0  0  0  0  0
   22.3301  -28.4505  -11.0044 C   0  0  0  0  0  0  0  0  0  0  0  0
   22.2209  -28.3667  -12.3648 C   0  0  0  0  0  0  0  0  0  0  0  0
   22.5013  -27.1875  -13.1551 C   0  0  0  0  0  0  0  0  0  0  0  0
   21.3268  -26.3314  -13.5108 C   0  0  2  0  0  0  0  0  0  0  0  0
   21.6533  -25.2183  -14.3479 N   0  0  0  0  0  0  0  0  0  0  0  0
   20.4908  -25.9432  -12.3431 C   0  0  0  0  0  0  0  0  0  0  0  0
   20.4812  -24.7649  -11.8848 O   0  0  0  0  0  0  0  0  0  0  0  0
   21.8052  -29.5185  -13.0350 C   0  0  0  0  0  0  0  0  0  0  0  0
   21.5177  -30.6798  -12.3820 C   0  0  0  0  0  0  0  0  0  0  0  0
   19.6489  -26.8703  -11.6679 N   0  0  0  0  0  0  0  0  0  0  0  0
   18.7714  -26.4665  -10.6172 C   0  0  1  0  0  0  0  0  0  0  0  0
   17.8485  -25.3787  -11.1870 C   0  0  0  0  0  0  0  0  0  0  0  0
   16.5191  -25.0104  -10.0110 S   0  0  0  0  0  0  0  0  0  0  0  0
   18.0042  -27.5501  -10.0012 C   0  0  0  0  0  0  0  0  0  0  0  0
   17.6109  -28.5555  -10.6440 O   0  0  0  0  0  0  0  0  0  0  0  0
   17.6758  -27.5052   -8.6537 O   0  0  0  0  0  0  0  0  0  0  0  0
  2  1  1  6
  3  2  1  0
  3  4  1  0
  4  5  2  0
  5  6  1  0
  7  6  2  0
  8  7  1  0
  9  4  1  0
  9  8  2  0
 10 19  1  0
 10  2  1  0
 11 10  2  0
 13 12  1  0
 14 13  2  0
 15 14  1  0
 16 22  1  0
 16 15  2  0
 18 17  1  1
 17 16  1  0
 18 19  1  0
 20 18  1  0
 21 20  2  0
 22 23  2  0
 23 13  1  0
 24 20  1  0
 25 24  1  0
 25 28  1  0
 26 27  1  0
 25 26  1  6
 28 30  1  0
 29 28  2  0
M  END
$$$$
