FYC.pdb
     RDKit          3D

 30 31  0  0  1  0  0  0  0  0999 V2000
   23.3797  -25.9442  -17.1648 N   0  0  0  0  0  0  0  0  0  0  0  0
   23.7561  -26.6149  -15.9494 C   0  0  1  0  0  0  0  0  0  0  0  0
   24.4890  -25.6638  -15.0008 C   0  0  0  0  0  0  0  0  0  0  0  0
   25.7948  -25.2517  -15.5256 C   0  0  0  0  0  0  0  0  0  0  0  0
   25.9947  -23.9439  -15.8800 C   0  0  0  0  0  0  0  0  0  0  0  0
   27.1938  -23.4825  -16.3802 C   0  0  0  0  0  0  0  0  0  0  0  0
   28.2447  -24.3592  -16.5365 C   0  0  0  0  0  0  0  0  0  0  0  0
   28.0545  -25.6679  -16.1852 C   0  0  0  0  0  0  0  0  0  0  0  0
   26.8519  -26.1268  -15.6844 C   0  0  0  0  0  0  0  0  0  0  0  0
   22.5345  -27.0538  -15.2362 C   0  0  0  0  0  0  0  0  0  0  0  0
   21.5290  -26.3023  -15.2525 O   0  0  0  0  0  0  0  0  0  0  0  0
   16.5891  -32.1044  -10.9155 O   0  0  0  0  0  0  0  0  0  0  0  0
   17.7115  -31.6164  -11.5536 C   0  0  0  0  0  0  0  0  0  0  0  0
   18.4927  -30.6310  -10.9692 C   0  0  0  0  0  0  0  0  0  0  0  0
   19.6180  -30.1320  -11.5934 C   0  0  0  0  0  0  0  0  0  0  0  0
   20.0112  -30.5908  -12.8200 C   0  0  0  0  0  0  0  0  0  0  0  0
   21.1724  -30.1321  -13.5513 C   0  0  0  0  0  0  0  0  0  0  0  0
   21.2433  -28.6642  -13.8325 C   0  0  2  0  0  0  0  0  0  0  0  0
   22.4231  -28.2651  -14.5361 N   0  0  0  0  0  0  0  0  0  0  0  0
   20.9693  -27.8112  -12.6449 C   0  0  0  0  0  0  0  0  0  0  0  0
   21.8049  -27.6774  -11.7057 O   0  0  0  0  0  0  0  0  0  0  0  0
   19.2214  -31.5827  -13.4038 C   0  0  0  0  0  0  0  0  0  0  0  0
   18.1084  -32.0821  -12.7958 C   0  0  0  0  0  0  0  0  0  0  0  0
   19.7519  -27.0913  -12.4893 N   0  0  0  0  0  0  0  0  0  0  0  0
   19.4842  -26.3030  -11.3300 C   0  0  1  0  0  0  0  0  0  0  0  0
   18.7401  -25.0431  -11.7976 C   0  0  0  0  0  0  0  0  0  0  0  0
   19.8452  -23.9958  -12.7814 S   0  0  0  0  0  0  0  0  0  0  0  0
   18.7512  -26.9939  -10.2680 C   0  0  0  0  0  0  0  0  0  0  0  0
   18.2285  -28.1252  -10.4276 O   0  0  0  0  0  0  0  0  0  0  0  0
   18.6038  -26.4108   -9.0174 O   0  0  0  0  0  0  0  0  0  0  0  0
  2  1  1  6
  3  2  1  0
  3  4  1  0
  4  5  2  0
  5  6  1  0
  7  6  2  0
  8  7  1  0
  9  4  1  0
  9  8  2  0
 10 19  1  0
 10  2  1  0
 11 10  2  0
 13 12  1  0
 14 13  2  0
 15 14  1  0
 16 22  1  0
 16 15  2  0
 18 17  1  1
 17 16  1  0
 18 19  1  0
 20 18  1  0
 21 20  2  0
 22 23  2  0
 23 13  1  0
 24 20  1  0
 25 24  1  0
 25 28  1  0
 26 27  1  0
 25 26  1  6
 28 30  1  0
 29 28  2  0
M  END
$$$$
