FYC.pdb
     RDKit          3D

 30 31  0  0  1  0  0  0  0  0999 V2000
   26.1618  -15.0632  -18.6390 N   0  0  0  0  0  0  0  0  0  0  0  0
   25.6718  -13.9262  -17.9071 C   0  0  1  0  0  0  0  0  0  0  0  0
   26.6190  -12.7326  -18.0465 C   0  0  0  0  0  0  0  0  0  0  0  0
   27.9429  -13.0036  -17.4771 C   0  0  0  0  0  0  0  0  0  0  0  0
   28.0584  -13.2632  -16.1374 C   0  0  0  0  0  0  0  0  0  0  0  0
   29.2683  -13.5264  -15.5311 C   0  0  0  0  0  0  0  0  0  0  0  0
   30.4185  -13.5327  -16.2890 C   0  0  0  0  0  0  0  0  0  0  0  0
   30.3132  -13.2744  -17.6286 C   0  0  0  0  0  0  0  0  0  0  0  0
   29.0994  -13.0110  -18.2327 C   0  0  0  0  0  0  0  0  0  0  0  0
   24.3757  -13.4978  -18.4819 C   0  0  0  0  0  0  0  0  0  0  0  0
   24.0461  -13.9389  -19.6101 O   0  0  0  0  0  0  0  0  0  0  0  0
   20.3902  -18.4453  -17.4314 O   0  0  0  0  0  0  0  0  0  0  0  0
   20.5503  -17.0749  -17.4674 C   0  0  0  0  0  0  0  0  0  0  0  0
   20.2166  -16.3469  -18.5994 C   0  0  0  0  0  0  0  0  0  0  0  0
   20.3704  -14.9763  -18.6522 C   0  0  0  0  0  0  0  0  0  0  0  0
   20.8606  -14.2759  -17.5851 C   0  0  0  0  0  0  0  0  0  0  0  0
   21.0565  -12.8429  -17.5444 C   0  0  0  0  0  0  0  0  0  0  0  0
   22.1872  -12.3033  -18.3625 C   0  0  2  0  0  0  0  0  0  0  0  0
   23.4817  -12.6235  -17.8448 N   0  0  0  0  0  0  0  0  0  0  0  0
   22.0477  -10.8619  -18.7031 C   0  0  0  0  0  0  0  0  0  0  0  0
   22.4402   -9.9459  -17.9251 O   0  0  0  0  0  0  0  0  0  0  0  0
   21.1950  -15.0134  -16.4481 C   0  0  0  0  0  0  0  0  0  0  0  0
   21.0469  -16.3669  -16.3858 C   0  0  0  0  0  0  0  0  0  0  0  0
   21.4656  -10.4212  -19.9243 N   0  0  0  0  0  0  0  0  0  0  0  0
   21.3128   -9.0356  -20.2308 C   0  0  1  0  0  0  0  0  0  0  0  0
   21.9333   -8.8043  -21.6168 C   0  0  0  0  0  0  0  0  0  0  0  0
   21.7317   -7.0713  -22.1086 S   0  0  0  0  0  0  0  0  0  0  0  0
   19.9381   -8.5367  -20.1701 C   0  0  0  0  0  0  0  0  0  0  0  0
   18.9850   -9.0951  -20.7688 O   0  0  0  0  0  0  0  0  0  0  0  0
   19.6306   -7.4026  -19.4320 O   0  0  0  0  0  0  0  0  0  0  0  0
  2  1  1  6
  3  2  1  0
  3  4  1  0
  4  5  2  0
  5  6  1  0
  7  6  2  0
  8  7  1  0
  9  4  1  0
  9  8  2  0
 10 19  1  0
 10  2  1  0
 11 10  2  0
 13 12  1  0
 14 13  2  0
 15 14  1  0
 16 22  1  0
 16 15  2  0
 18 17  1  1
 17 16  1  0
 18 19  1  0
 20 18  1  0
 21 20  2  0
 22 23  2  0
 23 13  1  0
 24 20  1  0
 25 24  1  0
 25 28  1  0
 26 27  1  0
 25 26  1  6
 28 30  1  0
 29 28  2  0
M  END
$$$$
