FYC.pdb
     RDKit          3D

 30 31  0  0  1  0  0  0  0  0999 V2000
   29.9327  -29.5698  -19.1372 N   0  0  0  0  0  0  0  0  0  0  0  0
   29.8419  -30.7029  -18.2560 C   0  0  1  0  0  0  0  0  0  0  0  0
   30.9281  -30.6508  -17.1795 C   0  0  0  0  0  0  0  0  0  0  0  0
   32.2481  -31.0170  -17.7030 C   0  0  0  0  0  0  0  0  0  0  0  0
   33.1496  -30.0308  -18.0035 C   0  0  0  0  0  0  0  0  0  0  0  0
   34.4082  -30.2976  -18.4988 C   0  0  0  0  0  0  0  0  0  0  0  0
   34.7914  -31.6043  -18.7062 C   0  0  0  0  0  0  0  0  0  0  0  0
   33.8976  -32.5967  -18.4089 C   0  0  0  0  0  0  0  0  0  0  0  0
   32.6374  -32.3258  -17.9127 C   0  0  0  0  0  0  0  0  0  0  0  0
   28.5455  -30.6619  -17.5409 C   0  0  0  0  0  0  0  0  0  0  0  0
   27.9640  -29.5560  -17.4184 O   0  0  0  0  0  0  0  0  0  0  0  0
   26.6750  -30.5545  -22.6339 O   0  0  0  0  0  0  0  0  0  0  0  0
   26.3858  -30.7698  -21.3016 C   0  0  0  0  0  0  0  0  0  0  0  0
   26.2226  -29.7071  -20.4261 C   0  0  0  0  0  0  0  0  0  0  0  0
   25.9332  -29.9046  -19.0911 C   0  0  0  0  0  0  0  0  0  0  0  0
   25.7947  -31.1627  -18.5739 C   0  0  0  0  0  0  0  0  0  0  0  0
   25.4921  -31.4703  -17.1928 C   0  0  0  0  0  0  0  0  0  0  0  0
   26.6628  -31.7304  -16.2981 C   0  0  2  0  0  0  0  0  0  0  0  0
   27.9163  -31.7865  -16.9850 N   0  0  0  0  0  0  0  0  0  0  0  0
   26.4669  -32.8769  -15.3705 C   0  0  0  0  0  0  0  0  0  0  0  0
   27.2800  -33.8435  -15.3149 O   0  0  0  0  0  0  0  0  0  0  0  0
   25.9600  -32.2290  -19.4594 C   0  0  0  0  0  0  0  0  0  0  0  0
   26.2459  -32.0447  -20.7793 C   0  0  0  0  0  0  0  0  0  0  0  0
   25.3548  -32.9598  -14.4870 N   0  0  0  0  0  0  0  0  0  0  0  0
   25.1840  -34.0565  -13.5896 C   0  0  1  0  0  0  0  0  0  0  0  0
   26.4401  -34.1239  -12.7080 C   0  0  0  0  0  0  0  0  0  0  0  0
   26.2731  -35.4519  -11.4857 S   0  0  0  0  0  0  0  0  0  0  0  0
   23.9648  -34.0099  -12.7810 C   0  0  0  0  0  0  0  0  0  0  0  0
   23.5603  -32.9606  -12.2205 O   0  0  0  0  0  0  0  0  0  0  0  0
   23.1937  -35.1493  -12.6000 O   0  0  0  0  0  0  0  0  0  0  0  0
  2  1  1  6
  3  2  1  0
  3  4  1  0
  4  5  2  0
  5  6  1  0
  7  6  2  0
  8  7  1  0
  9  4  1  0
  9  8  2  0
 10 19  1  0
 10  2  1  0
 11 10  2  0
 13 12  1  0
 14 13  2  0
 15 14  1  0
 16 22  1  0
 16 15  2  0
 18 17  1  6
 17 16  1  0
 18 19  1  0
 20 18  1  0
 21 20  2  0
 22 23  2  0
 23 13  1  0
 24 20  1  0
 25 24  1  0
 25 28  1  0
 26 27  1  0
 25 26  1  1
 28 30  1  0
 29 28  2  0
M  END
$$$$
