FYC.pdb
     RDKit          3D

 30 31  0  0  1  0  0  0  0  0999 V2000
   32.0493   -5.2679  -15.8738 N   0  0  0  0  0  0  0  0  0  0  0  0
   32.1946   -5.9749  -17.1178 C   0  0  1  0  0  0  0  0  0  0  0  0
   33.0459   -7.2337  -16.9388 C   0  0  0  0  0  0  0  0  0  0  0  0
   34.4637   -6.9215  -16.7318 C   0  0  0  0  0  0  0  0  0  0  0  0
   35.0322   -7.1563  -15.5081 C   0  0  0  0  0  0  0  0  0  0  0  0
   36.3575   -6.8885  -15.2386 C   0  0  0  0  0  0  0  0  0  0  0  0
   37.1573   -6.3629  -16.2294 C   0  0  0  0  0  0  0  0  0  0  0  0
   36.5983   -6.1249  -17.4553 C   0  0  0  0  0  0  0  0  0  0  0  0
   35.2701   -6.3944  -17.7218 C   0  0  0  0  0  0  0  0  0  0  0  0
   30.8632   -6.4350  -17.5755 C   0  0  0  0  0  0  0  0  0  0  0  0
   30.0844   -6.9461  -16.7339 O   0  0  0  0  0  0  0  0  0  0  0  0
   24.5984   -4.2049  -15.4740 O   0  0  0  0  0  0  0  0  0  0  0  0
   25.4799   -4.5353  -16.4835 C   0  0  0  0  0  0  0  0  0  0  0  0
   26.5892   -3.7467  -16.7486 C   0  0  0  0  0  0  0  0  0  0  0  0
   27.4804   -4.0625  -17.7540 C   0  0  0  0  0  0  0  0  0  0  0  0
   27.3056   -5.1717  -18.5343 C   0  0  0  0  0  0  0  0  0  0  0  0
   28.1828   -5.5852  -19.6081 C   0  0  0  0  0  0  0  0  0  0  0  0
   29.0973   -6.7325  -19.3145 C   0  0  2  0  0  0  0  0  0  0  0  0
   30.4081   -6.3376  -18.8996 N   0  0  0  0  0  0  0  0  0  0  0  0
   29.1230   -7.7685  -20.3818 C   0  0  0  0  0  0  0  0  0  0  0  0
   30.0990   -7.8922  -21.1759 O   0  0  0  0  0  0  0  0  0  0  0  0
   26.1874   -5.9620  -18.2633 C   0  0  0  0  0  0  0  0  0  0  0  0
   25.3015   -5.6589  -17.2729 C   0  0  0  0  0  0  0  0  0  0  0  0
   28.0536   -8.6863  -20.5777 N   0  0  0  0  0  0  0  0  0  0  0  0
   28.0888   -9.6786  -21.6029 C   0  0  1  0  0  0  0  0  0  0  0  0
   29.3404  -10.5366  -21.3639 C   0  0  0  0  0  0  0  0  0  0  0  0
   29.3598  -11.1488  -19.6578 S   0  0  0  0  0  0  0  0  0  0  0  0
   26.8852  -10.5052  -21.7054 C   0  0  0  0  0  0  0  0  0  0  0  0
   25.9333  -10.4244  -20.8893 O   0  0  0  0  0  0  0  0  0  0  0  0
   26.7488  -11.4295  -22.7313 O   0  0  0  0  0  0  0  0  0  0  0  0
  2  1  1  1
  3  2  1  0
  3  4  1  0
  4  5  2  0
  5  6  1  0
  7  6  2  0
  8  7  1  0
  9  4  1  0
  9  8  2  0
 10 19  1  0
 10  2  1  0
 11 10  2  0
 13 12  1  0
 14 13  2  0
 15 14  1  0
 16 22  1  0
 16 15  2  0
 18 17  1  6
 17 16  1  0
 18 19  1  0
 20 18  1  0
 21 20  2  0
 22 23  2  0
 23 13  1  0
 24 20  1  0
 25 24  1  0
 25 28  1  0
 26 27  1  0
 25 26  1  1
 28 30  1  0
 29 28  2  0
M  END
$$$$
