FYC.pdb
     RDKit          3D

 30 31  0  0  1  0  0  0  0  0999 V2000
   24.6956  -19.4776  -19.2281 N   0  0  0  0  0  0  0  0  0  0  0  0
   24.6242  -19.9562  -17.8737 C   0  0  1  0  0  0  0  0  0  0  0  0
   25.0522  -18.8710  -16.8836 C   0  0  0  0  0  0  0  0  0  0  0  0
   26.4444  -18.4551  -17.0817 C   0  0  0  0  0  0  0  0  0  0  0  0
   27.4563  -19.3266  -16.7778 C   0  0  0  0  0  0  0  0  0  0  0  0
   28.7879  -19.0070  -16.9374 C   0  0  0  0  0  0  0  0  0  0  0  0
   29.1328  -17.7642  -17.4213 C   0  0  0  0  0  0  0  0  0  0  0  0
   28.1288  -16.8866  -17.7277 C   0  0  0  0  0  0  0  0  0  0  0  0
   26.7958  -17.2101  -17.5666 C   0  0  0  0  0  0  0  0  0  0  0  0
   23.2178  -20.2861  -17.5466 C   0  0  0  0  0  0  0  0  0  0  0  0
   22.3092  -19.5438  -17.9933 O   0  0  0  0  0  0  0  0  0  0  0  0
   21.0088  -23.9119  -22.4871 O   0  0  0  0  0  0  0  0  0  0  0  0
   21.0049  -23.6972  -21.1237 C   0  0  0  0  0  0  0  0  0  0  0  0
   19.8532  -23.2874  -20.4692 C   0  0  0  0  0  0  0  0  0  0  0  0
   19.8319  -23.0681  -19.1067 C   0  0  0  0  0  0  0  0  0  0  0  0
   20.9511  -23.2468  -18.3419 C   0  0  0  0  0  0  0  0  0  0  0  0
   21.0273  -23.0439  -16.9113 C   0  0  0  0  0  0  0  0  0  0  0  0
   21.4642  -21.6875  -16.4549 C   0  0  2  0  0  0  0  0  0  0  0  0
   22.8275  -21.3833  -16.7633 N   0  0  0  0  0  0  0  0  0  0  0  0
   21.1177  -21.3897  -15.0392 C   0  0  0  0  0  0  0  0  0  0  0  0
   21.9702  -21.4626  -14.1084 O   0  0  0  0  0  0  0  0  0  0  0  0
   22.1078  -23.6593  -19.0056 C   0  0  0  0  0  0  0  0  0  0  0  0
   22.1393  -23.8785  -20.3505 C   0  0  0  0  0  0  0  0  0  0  0  0
   19.8074  -21.0035  -14.6412 N   0  0  0  0  0  0  0  0  0  0  0  0
   19.5100  -20.6130  -13.3010 C   0  0  1  0  0  0  0  0  0  0  0  0
   20.4577  -19.4585  -12.9418 C   0  0  0  0  0  0  0  0  0  0  0  0
   20.0814  -18.8371  -11.2811 S   0  0  0  0  0  0  0  0  0  0  0  0
   18.1123  -20.2533  -13.0572 C   0  0  0  0  0  0  0  0  0  0  0  0
   17.4536  -19.5188  -13.8352 O   0  0  0  0  0  0  0  0  0  0  0  0
   17.4488  -20.7213  -11.9319 O   0  0  0  0  0  0  0  0  0  0  0  0
  2  1  1  6
  3  2  1  0
  3  4  1  0
  4  5  2  0
  5  6  1  0
  7  6  2  0
  8  7  1  0
  9  4  1  0
  9  8  2  0
 10 19  1  0
 10  2  1  0
 11 10  2  0
 13 12  1  0
 14 13  2  0
 15 14  1  0
 16 22  1  0
 16 15  2  0
 18 17  1  1
 17 16  1  0
 18 19  1  0
 20 18  1  0
 21 20  2  0
 22 23  2  0
 23 13  1  0
 24 20  1  0
 25 24  1  0
 25 28  1  0
 26 27  1  0
 25 26  1  6
 28 30  1  0
 29 28  2  0
M  END
$$$$
