FYC.pdb
     RDKit          3D

 30 31  0  0  1  0  0  0  0  0999 V2000
   26.4086  -11.1646  -19.3501 N   0  0  0  0  0  0  0  0  0  0  0  0
   25.0019  -10.9254  -19.1696 C   0  0  1  0  0  0  0  0  0  0  0  0
   24.3388  -12.0835  -18.4210 C   0  0  0  0  0  0  0  0  0  0  0  0
   24.3540  -13.3283  -19.1961 C   0  0  0  0  0  0  0  0  0  0  0  0
   23.3131  -13.6068  -20.0414 C   0  0  0  0  0  0  0  0  0  0  0  0
   23.2575  -14.7557  -20.8014 C   0  0  0  0  0  0  0  0  0  0  0  0
   24.2827  -15.6721  -20.7196 C   0  0  0  0  0  0  0  0  0  0  0  0
   25.3271  -15.4026  -19.8778 C   0  0  0  0  0  0  0  0  0  0  0  0
   25.3795  -14.2505  -19.1178 C   0  0  0  0  0  0  0  0  0  0  0  0
   24.8162   -9.7234  -18.3245 C   0  0  0  0  0  0  0  0  0  0  0  0
   25.8356   -9.1112  -17.9218 O   0  0  0  0  0  0  0  0  0  0  0  0
   23.2648   -1.6351  -15.9320 O   0  0  0  0  0  0  0  0  0  0  0  0
   23.4548   -2.9023  -16.4449 C   0  0  0  0  0  0  0  0  0  0  0  0
   22.5012   -3.4924  -17.2605 C   0  0  0  0  0  0  0  0  0  0  0  0
   22.6752   -4.7584  -17.7817 C   0  0  0  0  0  0  0  0  0  0  0  0
   23.8009   -5.4871  -17.5142 C   0  0  0  0  0  0  0  0  0  0  0  0
   24.0739   -6.8175  -18.0133 C   0  0  0  0  0  0  0  0  0  0  0  0
   23.3897   -7.9454  -17.3072 C   0  0  2  0  0  0  0  0  0  0  0  0
   23.5654   -9.2166  -17.9391 N   0  0  0  0  0  0  0  0  0  0  0  0
   21.9684   -7.6671  -16.9671 C   0  0  0  0  0  0  0  0  0  0  0  0
   21.0136   -8.0494  -17.7024 O   0  0  0  0  0  0  0  0  0  0  0  0
   24.7577   -4.8886  -16.6928 C   0  0  0  0  0  0  0  0  0  0  0  0
   24.5954   -3.6390  -16.1731 C   0  0  0  0  0  0  0  0  0  0  0  0
   21.5916   -6.9550  -15.7944 N   0  0  0  0  0  0  0  0  0  0  0  0
   20.2264   -6.6722  -15.4890 C   0  0  1  0  0  0  0  0  0  0  0  0
   19.4961   -8.0191  -15.3773 C   0  0  0  0  0  0  0  0  0  0  0  0
   20.2309   -9.0186  -14.0557 S   0  0  0  0  0  0  0  0  0  0  0  0
   20.0168   -5.8495  -14.2967 C   0  0  0  0  0  0  0  0  0  0  0  0
   18.8792   -5.4645  -13.9276 O   0  0  0  0  0  0  0  0  0  0  0  0
   21.0920   -5.4558  -13.5128 O   0  0  0  0  0  0  0  0  0  0  0  0
  2  1  1  1
  3  2  1  0
  3  4  1  0
  4  5  2  0
  5  6  1  0
  7  6  2  0
  8  7  1  0
  9  4  1  0
  9  8  2  0
 10 19  1  0
 10  2  1  0
 11 10  2  0
 13 12  1  0
 14 13  2  0
 15 14  1  0
 16 22  1  0
 16 15  2  0
 18 17  1  6
 17 16  1  0
 18 19  1  0
 20 18  1  0
 21 20  2  0
 22 23  2  0
 23 13  1  0
 24 20  1  0
 25 24  1  0
 25 28  1  0
 26 27  1  0
 25 26  1  1
 28 30  1  0
 29 28  2  0
M  END
$$$$
