FYC.pdb
     RDKit          3D

 30 31  0  0  1  0  0  0  0  0999 V2000
   25.4106  -17.6560  -18.2516 N   0  0  0  0  0  0  0  0  0  0  0  0
   25.3930  -18.1887  -16.9157 C   0  0  1  0  0  0  0  0  0  0  0  0
   26.1092  -17.2519  -15.9407 C   0  0  0  0  0  0  0  0  0  0  0  0
   27.5426  -17.1390  -16.2291 C   0  0  0  0  0  0  0  0  0  0  0  0
   28.0683  -15.9176  -16.5569 C   0  0  0  0  0  0  0  0  0  0  0  0
   29.4049  -15.7336  -16.8407 C   0  0  0  0  0  0  0  0  0  0  0  0
   30.2610  -16.8119  -16.7974 C   0  0  0  0  0  0  0  0  0  0  0  0
   29.7450  -18.0363  -16.4709 C   0  0  0  0  0  0  0  0  0  0  0  0
   28.4054  -18.2170  -16.1871 C   0  0  0  0  0  0  0  0  0  0  0  0
   23.9911  -18.2837  -16.4472 C   0  0  0  0  0  0  0  0  0  0  0  0
   23.3587  -17.2210  -16.2310 O   0  0  0  0  0  0  0  0  0  0  0  0
   20.9123  -15.7135  -20.8122 O   0  0  0  0  0  0  0  0  0  0  0  0
   20.9157  -16.6901  -19.8370 C   0  0  0  0  0  0  0  0  0  0  0  0
   20.0749  -16.6038  -18.7377 C   0  0  0  0  0  0  0  0  0  0  0  0
   20.0656  -17.5714  -17.7536 C   0  0  0  0  0  0  0  0  0  0  0  0
   20.8892  -18.6608  -17.8220 C   0  0  0  0  0  0  0  0  0  0  0  0
   20.9512  -19.7248  -16.8435 C   0  0  0  0  0  0  0  0  0  0  0  0
   21.9659  -19.5683  -15.7551 C   0  0  2  0  0  0  0  0  0  0  0  0
   23.3145  -19.4933  -16.2262 N   0  0  0  0  0  0  0  0  0  0  0  0
   21.8032  -20.5376  -14.6383 C   0  0  0  0  0  0  0  0  0  0  0  0
   22.4195  -21.6412  -14.6103 O   0  0  0  0  0  0  0  0  0  0  0  0
   21.7336  -18.7428  -18.9305 C   0  0  0  0  0  0  0  0  0  0  0  0
   21.7505  -17.7928  -19.9077 C   0  0  0  0  0  0  0  0  0  0  0  0
   20.9460  -20.2861  -13.5309 N   0  0  0  0  0  0  0  0  0  0  0  0
   20.7572  -21.2440  -12.4898 C   0  0  1  0  0  0  0  0  0  0  0  0
   21.2630  -20.6066  -11.1869 C   0  0  0  0  0  0  0  0  0  0  0  0
   20.9962  -18.8141  -11.2255 S   0  0  0  0  0  0  0  0  0  0  0  0
   19.3875  -21.7397  -12.3462 C   0  0  0  0  0  0  0  0  0  0  0  0
   18.4154  -21.2410  -12.9666 O   0  0  0  0  0  0  0  0  0  0  0  0
   19.1066  -22.8030  -11.5001 O   0  0  0  0  0  0  0  0  0  0  0  0
  2  1  1  6
  3  2  1  0
  3  4  1  0
  4  5  2  0
  5  6  1  0
  7  6  2  0
  8  7  1  0
  9  4  1  0
  9  8  2  0
 10 19  1  0
 10  2  1  0
 11 10  2  0
 13 12  1  0
 14 13  2  0
 15 14  1  0
 16 22  1  0
 16 15  2  0
 18 17  1  6
 17 16  1  0
 18 19  1  0
 20 18  1  0
 21 20  2  0
 22 23  2  0
 23 13  1  0
 24 20  1  0
 25 24  1  0
 25 28  1  0
 26 27  1  0
 25 26  1  1
 28 30  1  0
 29 28  2  0
M  END
$$$$
