FYC.pdb
     RDKit          3D

 30 31  0  0  1  0  0  0  0  0999 V2000
   28.1071  -21.8134  -16.9865 N   0  0  0  0  0  0  0  0  0  0  0  0
   27.9409  -20.6907  -16.1030 C   0  0  1  0  0  0  0  0  0  0  0  0
   27.4091  -19.4708  -16.8581 C   0  0  0  0  0  0  0  0  0  0  0  0
   28.4460  -18.8215  -17.6667 C   0  0  0  0  0  0  0  0  0  0  0  0
   28.3851  -18.9062  -19.0323 C   0  0  0  0  0  0  0  0  0  0  0  0
   29.3226  -18.3223  -19.8575 C   0  0  0  0  0  0  0  0  0  0  0  0
   30.3704  -17.6212  -19.3026 C   0  0  0  0  0  0  0  0  0  0  0  0
   30.4398  -17.5311  -17.9390 C   0  0  0  0  0  0  0  0  0  0  0  0
   29.4988  -18.1173  -17.1153 C   0  0  0  0  0  0  0  0  0  0  0  0
   26.9232  -21.0222  -15.0793 C   0  0  0  0  0  0  0  0  0  0  0  0
   26.0018  -21.8177  -15.3866 O   0  0  0  0  0  0  0  0  0  0  0  0
   22.3762  -21.3830   -7.4290 O   0  0  0  0  0  0  0  0  0  0  0  0
   23.3100  -21.1208   -8.4110 C   0  0  0  0  0  0  0  0  0  0  0  0
   23.1224  -20.0875   -9.3165 C   0  0  0  0  0  0  0  0  0  0  0  0
   24.0460  -19.8117  -10.3043 C   0  0  0  0  0  0  0  0  0  0  0  0
   25.1901  -20.5495  -10.4317 C   0  0  0  0  0  0  0  0  0  0  0  0
   26.2149  -20.3373  -11.4309 C   0  0  0  0  0  0  0  0  0  0  0  0
   25.8811  -20.7635  -12.8258 C   0  0  2  0  0  0  0  0  0  0  0  0
   26.9184  -20.5025  -13.7756 N   0  0  0  0  0  0  0  0  0  0  0  0
   24.5474  -20.2986  -13.2931 C   0  0  0  0  0  0  0  0  0  0  0  0
   24.4026  -19.2383  -13.9663 O   0  0  0  0  0  0  0  0  0  0  0  0
   25.3741  -21.5884   -9.5178 C   0  0  0  0  0  0  0  0  0  0  0  0
   24.4683  -21.8689   -8.5387 C   0  0  0  0  0  0  0  0  0  0  0  0
   23.3506  -21.0157  -13.0142 N   0  0  0  0  0  0  0  0  0  0  0  0
   22.1143  -20.6983  -13.6529 C   0  0  1  0  0  0  0  0  0  0  0  0
   22.3209  -20.8850  -15.1636 C   0  0  0  0  0  0  0  0  0  0  0  0
   21.5089  -19.5441  -16.0739 S   0  0  0  0  0  0  0  0  0  0  0  0
   20.9578  -21.4566  -13.1734 C   0  0  0  0  0  0  0  0  0  0  0  0
   19.7753  -21.0579  -13.3194 O   0  0  0  0  0  0  0  0  0  0  0  0
   21.1297  -22.6714  -12.5251 O   0  0  0  0  0  0  0  0  0  0  0  0
  2  1  1  6
  3  2  1  0
  3  4  1  0
  4  5  2  0
  5  6  1  0
  7  6  2  0
  8  7  1  0
  9  4  1  0
  9  8  2  0
 10 19  1  0
 10  2  1  0
 11 10  2  0
 13 12  1  0
 14 13  2  0
 15 14  1  0
 16 22  1  0
 16 15  2  0
 18 17  1  1
 17 16  1  0
 18 19  1  0
 20 18  1  0
 21 20  2  0
 22 23  2  0
 23 13  1  0
 24 20  1  0
 25 24  1  0
 25 28  1  0
 26 27  1  0
 25 26  1  6
 28 30  1  0
 29 28  2  0
M  END
$$$$
