FYC.pdb
     RDKit          3D

 30 31  0  0  1  0  0  0  0  0999 V2000
   25.6271  -23.6624  -13.6479 N   0  0  0  0  0  0  0  0  0  0  0  0
   25.2711  -22.7285  -14.6821 C   0  0  1  0  0  0  0  0  0  0  0  0
   25.0096  -23.4482  -16.0068 C   0  0  0  0  0  0  0  0  0  0  0  0
   26.2207  -24.0719  -16.5496 C   0  0  0  0  0  0  0  0  0  0  0  0
   26.5067  -25.3732  -16.2327 C   0  0  0  0  0  0  0  0  0  0  0  0
   27.6256  -26.0263  -16.7043 C   0  0  0  0  0  0  0  0  0  0  0  0
   28.5027  -25.3574  -17.5295 C   0  0  0  0  0  0  0  0  0  0  0  0
   28.2254  -24.0569  -17.8517 C   0  0  0  0  0  0  0  0  0  0  0  0
   27.1035  -23.4057  -17.3773 C   0  0  0  0  0  0  0  0  0  0  0  0
   24.0028  -22.0564  -14.3166 C   0  0  0  0  0  0  0  0  0  0  0  0
   23.3225  -22.5327  -13.3752 O   0  0  0  0  0  0  0  0  0  0  0  0
   17.8367  -15.8368  -13.0548 O   0  0  0  0  0  0  0  0  0  0  0  0
   18.9367  -16.5517  -13.4838 C   0  0  0  0  0  0  0  0  0  0  0  0
   18.9939  -17.0704  -14.7685 C   0  0  0  0  0  0  0  0  0  0  0  0
   20.0859  -17.7875  -15.2135 C   0  0  0  0  0  0  0  0  0  0  0  0
   21.1622  -18.0174  -14.4020 C   0  0  0  0  0  0  0  0  0  0  0  0
   22.3496  -18.7544  -14.7768 C   0  0  0  0  0  0  0  0  0  0  0  0
   22.3143  -20.2325  -14.5473 C   0  0  2  0  0  0  0  0  0  0  0  0
   23.5046  -20.9115  -14.9576 N   0  0  0  0  0  0  0  0  0  0  0  0
   21.0783  -20.8893  -15.0516 C   0  0  0  0  0  0  0  0  0  0  0  0
   20.9054  -21.1463  -16.2774 O   0  0  0  0  0  0  0  0  0  0  0  0
   21.0995  -17.4932  -13.1098 C   0  0  0  0  0  0  0  0  0  0  0  0
   20.0259  -16.7837  -12.6607 C   0  0  0  0  0  0  0  0  0  0  0  0
   20.0130  -21.2710  -14.1892 N   0  0  0  0  0  0  0  0  0  0  0  0
   18.7883  -21.8036  -14.6926 C   0  0  1  0  0  0  0  0  0  0  0  0
   18.7825  -23.3075  -14.3793 C   0  0  0  0  0  0  0  0  0  0  0  0
   19.3110  -23.5896  -12.6684 S   0  0  0  0  0  0  0  0  0  0  0  0
   17.5778  -21.1487  -14.1944 C   0  0  0  0  0  0  0  0  0  0  0  0
   16.4223  -21.5066  -14.5339 O   0  0  0  0  0  0  0  0  0  0  0  0
   17.6647  -20.0841  -13.3086 O   0  0  0  0  0  0  0  0  0  0  0  0
  2  1  1  1
  3  2  1  0
  3  4  1  0
  4  5  2  0
  5  6  1  0
  7  6  2  0
  8  7  1  0
  9  4  1  0
  9  8  2  0
 10 19  1  0
 10  2  1  0
 11 10  2  0
 13 12  1  0
 14 13  2  0
 15 14  1  0
 16 22  1  0
 16 15  2  0
 18 17  1  6
 17 16  1  0
 18 19  1  0
 20 18  1  0
 21 20  2  0
 22 23  2  0
 23 13  1  0
 24 20  1  0
 25 24  1  0
 25 28  1  0
 26 27  1  0
 25 26  1  1
 28 30  1  0
 29 28  2  0
M  END
$$$$
