FYC.pdb
     RDKit          3D

 30 31  0  0  1  0  0  0  0  0999 V2000
   22.4252    5.3782  -15.6272 N   0  0  0  0  0  0  0  0  0  0  0  0
   21.4731    4.3566  -15.9715 C   0  0  1  0  0  0  0  0  0  0  0  0
   21.3205    4.2362  -17.4893 C   0  0  0  0  0  0  0  0  0  0  0  0
   20.7060    5.4281  -18.0828 C   0  0  0  0  0  0  0  0  0  0  0  0
   21.4961    6.3398  -18.7312 C   0  0  0  0  0  0  0  0  0  0  0  0
   20.9908    7.4828  -19.3134 C   0  0  0  0  0  0  0  0  0  0  0  0
   19.6379    7.7341  -19.2497 C   0  0  0  0  0  0  0  0  0  0  0  0
   18.8404    6.8290  -18.6040 C   0  0  0  0  0  0  0  0  0  0  0  0
   19.3500    5.6848  -18.0218 C   0  0  0  0  0  0  0  0  0  0  0  0
   21.9728    3.0450  -15.4986 C   0  0  0  0  0  0  0  0  0  0  0  0
   23.2135    2.8687  -15.4233 O   0  0  0  0  0  0  0  0  0  0  0  0
   18.3621    3.4031   -9.8085 O   0  0  0  0  0  0  0  0  0  0  0  0
   19.2350    2.7292  -10.6385 C   0  0  0  0  0  0  0  0  0  0  0  0
   19.0027    1.4104  -10.9985 C   0  0  0  0  0  0  0  0  0  0  0  0
   19.8652    0.7218  -11.8273 C   0  0  0  0  0  0  0  0  0  0  0  0
   20.9900    1.3144  -12.3303 C   0  0  0  0  0  0  0  0  0  0  0  0
   21.9510    0.6773  -13.2046 C   0  0  0  0  0  0  0  0  0  0  0  0
   21.6438    0.7139  -14.6685 C   0  0  2  0  0  0  0  0  0  0  0  0
   21.1454    1.9747  -15.1249 N   0  0  0  0  0  0  0  0  0  0  0  0
   20.8185   -0.4313  -15.1380 C   0  0  0  0  0  0  0  0  0  0  0  0
   19.6017   -0.5589  -14.8191 O   0  0  0  0  0  0  0  0  0  0  0  0
   21.2192    2.6420  -11.9649 C   0  0  0  0  0  0  0  0  0  0  0  0
   20.3738    3.3307  -11.1472 C   0  0  0  0  0  0  0  0  0  0  0  0
   21.3432   -1.4551  -15.9751 N   0  0  0  0  0  0  0  0  0  0  0  0
   20.5186   -2.4913  -16.5075 C   0  0  1  0  0  0  0  0  0  0  0  0
   19.4132   -1.8154  -17.3326 C   0  0  0  0  0  0  0  0  0  0  0  0
   18.4485   -3.0647  -18.2238 S   0  0  0  0  0  0  0  0  0  0  0  0
   21.2271   -3.5046  -17.2909 C   0  0  0  0  0  0  0  0  0  0  0  0
   22.3935   -3.3349  -17.7261 O   0  0  0  0  0  0  0  0  0  0  0  0
   20.6222   -4.7176  -17.5881 O   0  0  0  0  0  0  0  0  0  0  0  0
  2  1  1  6
  3  2  1  0
  3  4  1  0
  4  5  2  0
  5  6  1  0
  7  6  2  0
  8  7  1  0
  9  4  1  0
  9  8  2  0
 10 19  1  0
 10  2  1  0
 11 10  2  0
 13 12  1  0
 14 13  2  0
 15 14  1  0
 16 22  1  0
 16 15  2  0
 18 17  1  1
 17 16  1  0
 18 19  1  0
 20 18  1  0
 21 20  2  0
 22 23  2  0
 23 13  1  0
 24 20  1  0
 25 24  1  0
 25 28  1  0
 26 27  1  0
 25 26  1  6
 28 30  1  0
 29 28  2  0
M  END
$$$$
