FYC.pdb
     RDKit          3D

 30 31  0  0  1  0  0  0  0  0999 V2000
   20.0897  -22.3288  -14.2236 N   0  0  0  0  0  0  0  0  0  0  0  0
   21.4033  -22.5005  -14.7837 C   0  0  1  0  0  0  0  0  0  0  0  0
   21.4832  -21.9050  -16.1908 C   0  0  0  0  0  0  0  0  0  0  0  0
   20.8775  -22.7794  -17.2003 C   0  0  0  0  0  0  0  0  0  0  0  0
   21.5792  -23.8617  -17.6606 C   0  0  0  0  0  0  0  0  0  0  0  0
   21.0759  -24.7278  -18.6079 C   0  0  0  0  0  0  0  0  0  0  0  0
   19.8171  -24.5107  -19.1234 C   0  0  0  0  0  0  0  0  0  0  0  0
   19.1083  -23.4318  -18.6696 C   0  0  0  0  0  0  0  0  0  0  0  0
   19.6156  -22.5662  -17.7204 C   0  0  0  0  0  0  0  0  0  0  0  0
   22.3851  -21.7570  -13.9610 C   0  0  0  0  0  0  0  0  0  0  0  0
   22.0248  -20.6795  -13.4269 O   0  0  0  0  0  0  0  0  0  0  0  0
   28.0181  -19.1469   -7.9657 O   0  0  0  0  0  0  0  0  0  0  0  0
   27.3540  -19.8850   -8.9244 C   0  0  0  0  0  0  0  0  0  0  0  0
   25.9719  -19.9963   -8.9086 C   0  0  0  0  0  0  0  0  0  0  0  0
   25.2921  -20.7302   -9.8595 C   0  0  0  0  0  0  0  0  0  0  0  0
   25.9566  -21.3812  -10.8617 C   0  0  0  0  0  0  0  0  0  0  0  0
   25.3343  -22.1718  -11.9015 C   0  0  0  0  0  0  0  0  0  0  0  0
   24.6640  -21.4120  -13.0025 C   0  0  2  0  0  0  0  0  0  0  0  0
   23.7045  -22.1790  -13.7355 N   0  0  0  0  0  0  0  0  0  0  0  0
   25.6084  -20.6798  -13.8885 C   0  0  0  0  0  0  0  0  0  0  0  0
   26.2220  -21.2503  -14.8353 O   0  0  0  0  0  0  0  0  0  0  0  0
   27.3477  -21.2659  -10.8730 C   0  0  0  0  0  0  0  0  0  0  0  0
   28.0284  -20.5437   -9.9387 C   0  0  0  0  0  0  0  0  0  0  0  0
   25.8816  -19.2926  -13.7291 N   0  0  0  0  0  0  0  0  0  0  0  0
   26.7959  -18.6008  -14.5791 C   0  0  1  0  0  0  0  0  0  0  0  0
   26.7535  -17.1173  -14.1826 C   0  0  0  0  0  0  0  0  0  0  0  0
   25.4841  -16.2513  -15.1440 S   0  0  0  0  0  0  0  0  0  0  0  0
   28.1648  -19.1189  -14.5670 C   0  0  0  0  0  0  0  0  0  0  0  0
   28.9397  -19.0154  -15.5506 O   0  0  0  0  0  0  0  0  0  0  0  0
   28.6678  -19.7579  -13.4427 O   0  0  0  0  0  0  0  0  0  0  0  0
  2  1  1  1
  3  2  1  0
  3  4  1  0
  4  5  2  0
  5  6  1  0
  7  6  2  0
  8  7  1  0
  9  4  1  0
  9  8  2  0
 10 19  1  0
 10  2  1  0
 11 10  2  0
 13 12  1  0
 14 13  2  0
 15 14  1  0
 16 22  1  0
 16 15  2  0
 18 17  1  1
 17 16  1  0
 18 19  1  0
 20 18  1  0
 21 20  2  0
 22 23  2  0
 23 13  1  0
 24 20  1  0
 25 24  1  0
 25 28  1  0
 26 27  1  0
 25 26  1  1
 28 30  1  0
 29 28  2  0
M  END
$$$$
