FYC.pdb
     RDKit          3D

 30 31  0  0  1  0  0  0  0  0999 V2000
   27.6797  -26.1504  -16.8831 N   0  0  0  0  0  0  0  0  0  0  0  0
   27.7326  -27.5364  -17.2636 C   0  0  1  0  0  0  0  0  0  0  0  0
   28.6089  -28.3383  -16.2990 C   0  0  0  0  0  0  0  0  0  0  0  0
   29.4249  -29.3410  -16.9914 C   0  0  0  0  0  0  0  0  0  0  0  0
   30.4758  -28.9324  -17.7687 C   0  0  0  0  0  0  0  0  0  0  0  0
   31.2867  -29.8156  -18.4493 C   0  0  0  0  0  0  0  0  0  0  0  0
   31.0442  -31.1683  -18.3547 C   0  0  0  0  0  0  0  0  0  0  0  0
   29.9964  -31.5862  -17.5803 C   0  0  0  0  0  0  0  0  0  0  0  0
   29.1860  -30.6985  -16.8999 C   0  0  0  0  0  0  0  0  0  0  0  0
   26.3739  -28.1191  -17.1732 C   0  0  0  0  0  0  0  0  0  0  0  0
   25.5614  -27.6198  -16.3568 O   0  0  0  0  0  0  0  0  0  0  0  0
   22.4235  -24.2156  -20.2569 O   0  0  0  0  0  0  0  0  0  0  0  0
   22.7424  -25.5233  -19.9514 C   0  0  0  0  0  0  0  0  0  0  0  0
   21.9401  -26.2746  -19.1061 C   0  0  0  0  0  0  0  0  0  0  0  0
   22.2443  -27.5833  -18.7902 C   0  0  0  0  0  0  0  0  0  0  0  0
   23.3551  -28.1963  -19.3003 C   0  0  0  0  0  0  0  0  0  0  0  0
   23.7560  -29.5599  -19.0295 C   0  0  0  0  0  0  0  0  0  0  0  0
   24.6213  -29.7717  -17.8273 C   0  0  2  0  0  0  0  0  0  0  0  0
   25.9282  -29.2025  -17.9460 N   0  0  0  0  0  0  0  0  0  0  0  0
   24.6520  -31.1804  -17.3500 C   0  0  0  0  0  0  0  0  0  0  0  0
   23.5956  -31.8364  -17.1214 O   0  0  0  0  0  0  0  0  0  0  0  0
   24.1593  -27.4356  -20.1507 C   0  0  0  0  0  0  0  0  0  0  0  0
   23.8677  -26.1427  -20.4688 C   0  0  0  0  0  0  0  0  0  0  0  0
   25.8695  -31.8802  -17.1210 N   0  0  0  0  0  0  0  0  0  0  0  0
   25.8914  -33.1957  -16.5679 C   0  0  1  0  0  0  0  0  0  0  0  0
   27.2985  -33.7655  -16.8029 C   0  0  0  0  0  0  0  0  0  0  0  0
   28.5038  -32.8975  -15.7638 S   0  0  0  0  0  0  0  0  0  0  0  0
   25.5086  -33.2803  -15.1577 C   0  0  0  0  0  0  0  0  0  0  0  0
   25.4558  -32.2749  -14.4060 O   0  0  0  0  0  0  0  0  0  0  0  0
   25.1828  -34.5023  -14.5866 O   0  0  0  0  0  0  0  0  0  0  0  0
  2  1  1  1
  3  2  1  0
  3  4  1  0
  4  5  2  0
  5  6  1  0
  7  6  2  0
  8  7  1  0
  9  4  1  0
  9  8  2  0
 10 19  1  0
 10  2  1  0
 11 10  2  0
 13 12  1  0
 14 13  2  0
 15 14  1  0
 16 22  1  0
 16 15  2  0
 18 17  1  6
 17 16  1  0
 18 19  1  0
 20 18  1  0
 21 20  2  0
 22 23  2  0
 23 13  1  0
 24 20  1  0
 25 24  1  0
 25 28  1  0
 26 27  1  0
 25 26  1  1
 28 30  1  0
 29 28  2  0
M  END
$$$$
