DDE.pdb
     RDKit          3D

 26 25  0  0  1  0  0  0  0  0999 V2000
   26.9361  -33.2416   -5.0685 N   0  0  0  0  0  0  0  0  0  0  0  0
   26.0379  -34.0610   -4.2687 C   0  0  1  0  0  0  0  0  0  0  0  0
   25.4046  -35.0542   -5.2142 C   0  0  0  0  0  0  0  0  0  0  0  0
   24.4349  -34.3013   -6.0514 C   0  0  0  0  0  0  0  0  0  0  0  0
   23.5028  -34.8497   -6.6870 O   0  0  0  0  0  0  0  0  0  0  0  0
   26.7497  -34.7094   -3.1439 C   0  0  0  0  0  0  0  0  0  0  0  0
   26.1332  -35.4809   -2.3651 O   0  0  0  0  0  0  0  0  0  0  0  0
   24.5470  -32.9223   -6.1489 O   0  0  0  0  0  0  0  0  0  0  0  0
   28.1311  -34.5080   -2.8810 N   0  0  0  0  0  0  0  0  0  0  0  0
   28.8388  -35.0688   -1.7621 C   0  0  1  0  0  0  0  0  0  0  0  0
   30.3122  -34.7257   -1.7812 C   0  0  0  0  0  0  0  0  0  0  0  0
   31.0666  -35.3556   -0.6992 C   0  0  0  0  0  0  0  0  0  0  0  0
   31.7738  -34.7686    0.1405 O   0  0  0  0  0  0  0  0  0  0  0  0
   28.1902  -34.6269   -0.5000 C   0  0  0  0  0  0  0  0  0  0  0  0
   27.8685  -33.4226   -0.3437 O   0  0  0  0  0  0  0  0  0  0  0  0
   30.9839  -36.7490   -0.6009 O   0  0  0  0  0  0  0  0  0  0  0  0
   27.9008  -35.4971    0.5725 N   0  0  0  0  0  0  0  0  0  0  0  0
   27.3482  -35.0021    1.8380 C   0  0  1  0  0  0  0  0  0  0  0  0
   25.9053  -35.3082    1.9660 C   0  0  0  0  0  0  0  0  0  0  0  0
   25.0452  -34.3342    1.2250 C   0  0  0  0  0  0  0  0  0  0  0  0
   23.6003  -34.6495    1.3592 C   0  0  0  0  0  0  0  0  0  0  0  0
   22.7631  -33.7807    1.0660 O   0  0  0  0  0  0  0  0  0  0  0  0
   28.1657  -35.4836    2.9725 C   0  0  0  0  0  0  0  0  0  0  0  0
   29.2574  -36.2963    2.9162 O   0  0  0  0  0  0  0  0  0  0  0  0
   23.1919  -35.8820    1.8010 O   0  0  0  0  0  0  0  0  0  0  0  0
   27.8191  -35.1031    4.1445 O   0  0  0  0  0  0  0  0  0  0  0  0
  2  3  1  0
  2  1  1  6
  3  4  1  0
  4  8  1  0
  4  5  2  0
  6  2  1  0
  6  7  2  0
  9  6  1  0
 10  9  1  0
 10 14  1  0
 10 11  1  1
 12 11  1  0
 13 12  2  0
 14 17  1  0
 15 14  2  0
 16 12  1  0
 17 18  1  0
 18 23  1  0
 18 19  1  1
 20 19  1  0
 21 20  1  0
 21 22  2  0
 23 26  2  0
 23 24  1  0
 25 21  1  0
M  END
$$$$
