DDE.pdb
     RDKit          3D

 26 25  0  0  1  0  0  0  0  0999 V2000
   20.1367  -10.6478  -16.3259 N   0  0  0  0  0  0  0  0  0  0  0  0
   18.9217  -10.1758  -15.6788 C   0  0  1  0  0  0  0  0  0  0  0  0
   18.5312  -11.2328  -14.6730 C   0  0  0  0  0  0  0  0  0  0  0  0
   18.1745  -12.4540  -15.4408 C   0  0  0  0  0  0  0  0  0  0  0  0
   18.8830  -12.9164  -16.3669 O   0  0  0  0  0  0  0  0  0  0  0  0
   19.1146   -8.8414  -15.0668 C   0  0  0  0  0  0  0  0  0  0  0  0
   18.1895   -8.3112  -14.3998 O   0  0  0  0  0  0  0  0  0  0  0  0
   17.0042  -13.1326  -15.1348 O   0  0  0  0  0  0  0  0  0  0  0  0
   20.3190   -8.0984  -15.1899 N   0  0  0  0  0  0  0  0  0  0  0  0
   20.5449   -6.8070  -14.5994 C   0  0  1  0  0  0  0  0  0  0  0  0
   21.9588   -6.6477  -14.0851 C   0  0  0  0  0  0  0  0  0  0  0  0
   22.2442   -5.3039  -13.5855 C   0  0  0  0  0  0  0  0  0  0  0  0
   22.1863   -4.2489  -14.2436 O   0  0  0  0  0  0  0  0  0  0  0  0
   20.1983   -5.7498  -15.5847 C   0  0  0  0  0  0  0  0  0  0  0  0
   20.3309   -5.9657  -16.8152 O   0  0  0  0  0  0  0  0  0  0  0  0
   22.6174   -5.1972  -12.2410 O   0  0  0  0  0  0  0  0  0  0  0  0
   19.7139   -4.4753  -15.2208 N   0  0  0  0  0  0  0  0  0  0  0  0
   19.2607   -3.5080  -16.2261 C   0  0  1  0  0  0  0  0  0  0  0  0
   18.0821   -4.0021  -16.9737 C   0  0  0  0  0  0  0  0  0  0  0  0
   16.8547   -4.0794  -16.1220 C   0  0  0  0  0  0  0  0  0  0  0  0
   15.7702   -4.8566  -16.7737 C   0  0  0  0  0  0  0  0  0  0  0  0
   14.9595   -4.2655  -17.5051 O   0  0  0  0  0  0  0  0  0  0  0  0
   19.0616   -2.1820  -15.6021 C   0  0  0  0  0  0  0  0  0  0  0  0
   18.8582   -0.9939  -16.2367 O   0  0  0  0  0  0  0  0  0  0  0  0
   15.6616   -6.2090  -16.5727 O   0  0  0  0  0  0  0  0  0  0  0  0
   19.0820   -2.1298  -14.3234 O   0  0  0  0  0  0  0  0  0  0  0  0
  2  3  1  0
  2  1  1  1
  3  4  1  0
  4  8  1  0
  4  5  2  0
  6  2  1  0
  6  7  2  0
  9  6  1  0
 10  9  1  0
 10 14  1  0
 10 11  1  6
 12 11  1  0
 13 12  2  0
 14 17  1  0
 15 14  2  0
 16 12  1  0
 17 18  1  0
 18 23  1  0
 18 19  1  1
 20 19  1  0
 21 20  1  0
 21 22  2  0
 23 26  2  0
 23 24  1  0
 25 21  1  0
M  END
$$$$
