DDE.pdb
     RDKit          3D

 26 25  0  0  1  0  0  0  0  0999 V2000
   14.1273  -10.9042  -11.9232 N   0  0  0  0  0  0  0  0  0  0  0  0
   15.3364  -10.6023  -11.1717 C   0  0  1  0  0  0  0  0  0  0  0  0
   16.4460  -11.4142  -11.7973 C   0  0  0  0  0  0  0  0  0  0  0  0
   16.0994  -12.8463  -11.6050 C   0  0  0  0  0  0  0  0  0  0  0  0
   15.5575  -13.5486  -12.4919 O   0  0  0  0  0  0  0  0  0  0  0  0
   15.6214   -9.1494  -11.1606 C   0  0  0  0  0  0  0  0  0  0  0  0
   15.3530   -8.4440  -12.1667 O   0  0  0  0  0  0  0  0  0  0  0  0
   16.3806  -13.4575  -10.3922 O   0  0  0  0  0  0  0  0  0  0  0  0
   16.1977   -8.4805  -10.0479 N   0  0  0  0  0  0  0  0  0  0  0  0
   16.3999   -7.0593   -9.9654 C   0  0  1  0  0  0  0  0  0  0  0  0
   15.8831   -6.4778   -8.6678 C   0  0  0  0  0  0  0  0  0  0  0  0
   16.0232   -5.0249   -8.5891 C   0  0  0  0  0  0  0  0  0  0  0  0
   16.5041   -4.2857   -9.4677 O   0  0  0  0  0  0  0  0  0  0  0  0
   17.8412   -6.7566  -10.1654 C   0  0  0  0  0  0  0  0  0  0  0  0
   18.7048   -7.2715   -9.4121 O   0  0  0  0  0  0  0  0  0  0  0  0
   15.5737   -4.4108   -7.4149 O   0  0  0  0  0  0  0  0  0  0  0  0
   18.3235   -5.9005  -11.1781 N   0  0  0  0  0  0  0  0  0  0  0  0
   19.7574   -5.7729  -11.4603 C   0  0  1  0  0  0  0  0  0  0  0  0
   20.3776   -7.0828  -11.7635 C   0  0  0  0  0  0  0  0  0  0  0  0
   20.1787   -7.4947  -13.1877 C   0  0  0  0  0  0  0  0  0  0  0  0
   20.9558   -8.7127  -13.5309 C   0  0  0  0  0  0  0  0  0  0  0  0
   22.1147   -8.5886  -13.9592 O   0  0  0  0  0  0  0  0  0  0  0  0
   19.9810   -4.7484  -12.5031 C   0  0  0  0  0  0  0  0  0  0  0  0
   21.1676   -4.1866  -12.8666 O   0  0  0  0  0  0  0  0  0  0  0  0
   20.4047   -9.9593  -13.3790 O   0  0  0  0  0  0  0  0  0  0  0  0
   18.9531   -4.3326  -13.1427 O   0  0  0  0  0  0  0  0  0  0  0  0
  2  3  1  0
  2  1  1  6
  3  4  1  0
  4  8  1  0
  4  5  2  0
  6  2  1  0
  6  7  2  0
  9  6  1  0
 10  9  1  0
 10 14  1  0
 10 11  1  1
 12 11  1  0
 13 12  2  0
 14 17  1  0
 15 14  2  0
 16 12  1  0
 17 18  1  0
 18 23  1  0
 18 19  1  6
 20 19  1  0
 21 20  1  0
 21 22  2  0
 23 26  2  0
 23 24  1  0
 25 21  1  0
M  END
$$$$
