DDE.pdb
     RDKit          3D

 26 25  0  0  1  0  0  0  0  0999 V2000
   15.6110  -10.3686  -13.5023 N   0  0  0  0  0  0  0  0  0  0  0  0
   16.2546  -11.0602  -14.6091 C   0  0  1  0  0  0  0  0  0  0  0  0
   15.1467  -11.6234  -15.4675 C   0  0  0  0  0  0  0  0  0  0  0  0
   14.4817  -12.6904  -14.6754 C   0  0  0  0  0  0  0  0  0  0  0  0
   14.5994  -12.7990  -13.4313 O   0  0  0  0  0  0  0  0  0  0  0  0
   17.1631  -10.1617  -15.3574 C   0  0  0  0  0  0  0  0  0  0  0  0
   17.9832  -10.6363  -16.1844 O   0  0  0  0  0  0  0  0  0  0  0  0
   13.6861  -13.6234  -15.3237 O   0  0  0  0  0  0  0  0  0  0  0  0
   17.1661   -8.7506  -15.1941 N   0  0  0  0  0  0  0  0  0  0  0  0
   17.9141   -7.8361  -16.0136 C   0  0  1  0  0  0  0  0  0  0  0  0
   17.6530   -8.0390  -17.4899 C   0  0  0  0  0  0  0  0  0  0  0  0
   18.7349   -8.7419  -18.1770 C   0  0  0  0  0  0  0  0  0  0  0  0
   19.9514   -8.5012  -18.0683 O   0  0  0  0  0  0  0  0  0  0  0  0
   17.6157   -6.4427  -15.5913 C   0  0  0  0  0  0  0  0  0  0  0  0
   16.4472   -6.1193  -15.2623 O   0  0  0  0  0  0  0  0  0  0  0  0
   18.3650   -9.7821  -19.0369 O   0  0  0  0  0  0  0  0  0  0  0  0
   18.5883   -5.4220  -15.5328 N   0  0  0  0  0  0  0  0  0  0  0  0
   18.2549   -4.0655  -15.0847 C   0  0  1  0  0  0  0  0  0  0  0  0
   19.4544   -3.3247  -14.6322 C   0  0  0  0  0  0  0  0  0  0  0  0
   19.1306   -1.9412  -14.1647 C   0  0  0  0  0  0  0  0  0  0  0  0
   20.3373   -1.2118  -13.6990 C   0  0  0  0  0  0  0  0  0  0  0  0
   21.3852   -1.8462  -13.4962 O   0  0  0  0  0  0  0  0  0  0  0  0
   17.4748   -3.3633  -16.1267 C   0  0  0  0  0  0  0  0  0  0  0  0
   16.5103   -2.4198  -15.9396 O   0  0  0  0  0  0  0  0  0  0  0  0
   20.2990    0.1437  -13.4938 O   0  0  0  0  0  0  0  0  0  0  0  0
   17.7222   -3.6676  -17.3452 O   0  0  0  0  0  0  0  0  0  0  0  0
  2  3  1  0
  2  1  1  1
  3  4  1  0
  4  8  1  0
  4  5  2  0
  6  2  1  0
  6  7  2  0
  9  6  1  0
 10  9  1  0
 10 14  1  0
 10 11  1  6
 12 11  1  0
 13 12  2  0
 14 17  1  0
 15 14  2  0
 16 12  1  0
 17 18  1  0
 18 23  1  0
 18 19  1  6
 20 19  1  0
 21 20  1  0
 21 22  2  0
 23 26  2  0
 23 24  1  0
 25 21  1  0
M  END
$$$$
