DDE.pdb
     RDKit          3D

 26 25  0  0  1  0  0  0  0  0999 V2000
   18.9891  -10.1491  -16.6528 N   0  0  0  0  0  0  0  0  0  0  0  0
   18.7575  -10.6426  -15.3035 C   0  0  1  0  0  0  0  0  0  0  0  0
   19.4315  -11.9915  -15.2169 C   0  0  0  0  0  0  0  0  0  0  0  0
   18.5809  -12.9523  -15.9662 C   0  0  0  0  0  0  0  0  0  0  0  0
   18.3952  -12.8864  -17.2050 O   0  0  0  0  0  0  0  0  0  0  0  0
   19.2471   -9.6873  -14.2836 C   0  0  0  0  0  0  0  0  0  0  0  0
   19.1327   -9.9541  -13.0598 O   0  0  0  0  0  0  0  0  0  0  0  0
   17.9517  -13.9814  -15.2817 O   0  0  0  0  0  0  0  0  0  0  0  0
   19.8581   -8.4477  -14.6118 N   0  0  0  0  0  0  0  0  0  0  0  0
   20.2639   -7.4583  -13.6507 C   0  0  1  0  0  0  0  0  0  0  0  0
   21.3485   -6.5479  -14.1834 C   0  0  0  0  0  0  0  0  0  0  0  0
   21.7326   -5.4954  -13.2445 C   0  0  0  0  0  0  0  0  0  0  0  0
   21.9185   -4.2963  -13.5226 O   0  0  0  0  0  0  0  0  0  0  0  0
   19.0726   -6.6888  -13.2062 C   0  0  0  0  0  0  0  0  0  0  0  0
   18.3007   -6.1750  -14.0538 O   0  0  0  0  0  0  0  0  0  0  0  0
   21.9067   -5.8746  -11.9088 O   0  0  0  0  0  0  0  0  0  0  0  0
   18.7372   -6.4881  -11.8503 N   0  0  0  0  0  0  0  0  0  0  0  0
   17.5755   -5.6842  -11.4554 C   0  0  1  0  0  0  0  0  0  0  0  0
   17.0544   -6.0842  -10.1285 C   0  0  0  0  0  0  0  0  0  0  0  0
   15.8629   -5.2800   -9.7147 C   0  0  0  0  0  0  0  0  0  0  0  0
   15.3081   -5.7317   -8.4135 C   0  0  0  0  0  0  0  0  0  0  0  0
   15.8901   -6.6339   -7.7897 O   0  0  0  0  0  0  0  0  0  0  0  0
   17.8931   -4.2439  -11.5650 C   0  0  0  0  0  0  0  0  0  0  0  0
   19.1235   -3.6798  -11.7179 O   0  0  0  0  0  0  0  0  0  0  0  0
   14.1684   -5.1634   -7.9045 O   0  0  0  0  0  0  0  0  0  0  0  0
   16.9116   -3.4241  -11.5099 O   0  0  0  0  0  0  0  0  0  0  0  0
  2  3  1  0
  2  1  1  6
  3  4  1  0
  4  8  1  0
  4  5  2  0
  6  2  1  0
  6  7  2  0
  9  6  1  0
 10  9  1  0
 10 14  1  0
 10 11  1  6
 12 11  1  0
 13 12  2  0
 14 17  1  0
 15 14  2  0
 16 12  1  0
 17 18  1  0
 18 23  1  0
 18 19  1  1
 20 19  1  0
 21 20  1  0
 21 22  2  0
 23 26  2  0
 23 24  1  0
 25 21  1  0
M  END
$$$$
