DDE.pdb
     RDKit          3D

 26 25  0  0  1  0  0  0  0  0999 V2000
   16.8630  -11.9944  -16.7240 N   0  0  0  0  0  0  0  0  0  0  0  0
   18.1494  -11.9997  -16.0435 C   0  0  1  0  0  0  0  0  0  0  0  0
   18.6313  -13.4312  -16.0450 C   0  0  0  0  0  0  0  0  0  0  0  0
   17.6917  -14.2079  -15.1951 C   0  0  0  0  0  0  0  0  0  0  0  0
   16.4928  -13.8833  -15.0201 O   0  0  0  0  0  0  0  0  0  0  0  0
   19.1069  -11.0688  -16.6832 C   0  0  0  0  0  0  0  0  0  0  0  0
   20.3043  -11.0304  -16.3004 O   0  0  0  0  0  0  0  0  0  0  0  0
   18.1417  -15.3525  -14.5540 O   0  0  0  0  0  0  0  0  0  0  0  0
   18.7455  -10.1876  -17.7371 N   0  0  0  0  0  0  0  0  0  0  0  0
   19.6742   -9.3775  -18.4778 C   0  0  1  0  0  0  0  0  0  0  0  0
   19.2182   -9.1310  -19.8992 C   0  0  0  0  0  0  0  0  0  0  0  0
   20.1802   -8.3664  -20.6906 C   0  0  0  0  0  0  0  0  0  0  0  0
   21.4173   -8.3773  -20.5522 O   0  0  0  0  0  0  0  0  0  0  0  0
   19.9042   -8.1034  -17.7480 C   0  0  0  0  0  0  0  0  0  0  0  0
   18.9291   -7.4285  -17.3334 O   0  0  0  0  0  0  0  0  0  0  0  0
   19.6584   -7.5462  -21.6971 O   0  0  0  0  0  0  0  0  0  0  0  0
   21.1872   -7.5810  -17.4794 N   0  0  0  0  0  0  0  0  0  0  0  0
   21.3693   -6.3377  -16.7224 C   0  0  1  0  0  0  0  0  0  0  0  0
   21.8049   -6.5987  -15.3316 C   0  0  0  0  0  0  0  0  0  0  0  0
   21.9703   -5.3417  -14.5378 C   0  0  0  0  0  0  0  0  0  0  0  0
   22.2851   -5.6176  -13.1131 C   0  0  0  0  0  0  0  0  0  0  0  0
   22.3383   -6.7955  -12.7238 O   0  0  0  0  0  0  0  0  0  0  0  0
   22.2559   -5.4157  -17.4649 C   0  0  0  0  0  0  0  0  0  0  0  0
   22.4594   -4.0912  -17.2202 O   0  0  0  0  0  0  0  0  0  0  0  0
   22.5142   -4.5886  -12.2358 O   0  0  0  0  0  0  0  0  0  0  0  0
   22.9101   -5.9031  -18.4513 O   0  0  0  0  0  0  0  0  0  0  0  0
  2  3  1  0
  2  1  1  6
  3  4  1  0
  4  8  1  0
  4  5  2  0
  6  2  1  0
  6  7  2  0
  9  6  1  0
 10  9  1  0
 10 14  1  0
 10 11  1  6
 12 11  1  0
 13 12  2  0
 14 17  1  0
 15 14  2  0
 16 12  1  0
 17 18  1  0
 18 23  1  0
 18 19  1  1
 20 19  1  0
 21 20  1  0
 21 22  2  0
 23 26  2  0
 23 24  1  0
 25 21  1  0
M  END
$$$$
