DDE.pdb
     RDKit          3D

 26 25  0  0  1  0  0  0  0  0999 V2000
   17.8235  -12.7830  -14.4606 N   0  0  0  0  0  0  0  0  0  0  0  0
   17.3389  -12.4711  -15.7968 C   0  0  1  0  0  0  0  0  0  0  0  0
   15.9112  -12.9598  -15.8620 C   0  0  0  0  0  0  0  0  0  0  0  0
   15.9297  -14.4056  -15.5189 C   0  0  0  0  0  0  0  0  0  0  0  0
   15.3262  -14.8863  -14.5299 O   0  0  0  0  0  0  0  0  0  0  0  0
   17.4679  -11.0273  -16.0989 C   0  0  0  0  0  0  0  0  0  0  0  0
   17.2547  -10.6027  -17.2635 O   0  0  0  0  0  0  0  0  0  0  0  0
   16.6435  -15.2856  -16.3188 O   0  0  0  0  0  0  0  0  0  0  0  0
   17.8291  -10.0600  -15.1234 N   0  0  0  0  0  0  0  0  0  0  0  0
   17.9363   -8.6483  -15.3748 C   0  0  1  0  0  0  0  0  0  0  0  0
   16.8570   -7.8541  -14.6725 C   0  0  0  0  0  0  0  0  0  0  0  0
   16.9780   -6.4112  -14.8729 C   0  0  0  0  0  0  0  0  0  0  0  0
   17.3111   -5.8427  -15.9291 O   0  0  0  0  0  0  0  0  0  0  0  0
   19.2950   -8.1838  -14.9915 C   0  0  0  0  0  0  0  0  0  0  0  0
   19.8252   -8.5920  -13.9282 O   0  0  0  0  0  0  0  0  0  0  0  0
   16.6920   -5.5956  -13.7725 O   0  0  0  0  0  0  0  0  0  0  0  0
   20.0573   -7.2840  -15.7664 N   0  0  0  0  0  0  0  0  0  0  0  0
   21.4223   -6.9049  -15.3857 C   0  0  1  0  0  0  0  0  0  0  0  0
   22.3428   -6.9239  -16.5452 C   0  0  0  0  0  0  0  0  0  0  0  0
   23.7642   -6.6735  -16.1524 C   0  0  0  0  0  0  0  0  0  0  0  0
   24.6921   -6.7920  -17.3057 C   0  0  0  0  0  0  0  0  0  0  0  0
   25.7269   -6.1060  -17.3208 O   0  0  0  0  0  0  0  0  0  0  0  0
   21.4075   -5.6200  -14.6535 C   0  0  0  0  0  0  0  0  0  0  0  0
   20.6963   -4.5009  -14.9655 O   0  0  0  0  0  0  0  0  0  0  0  0
   24.4133   -7.6457  -18.3422 O   0  0  0  0  0  0  0  0  0  0  0  0
   22.1418   -5.5354  -13.6085 O   0  0  0  0  0  0  0  0  0  0  0  0
  2  3  1  0
  2  1  1  1
  3  4  1  0
  4  8  1  0
  4  5  2  0
  6  2  1  0
  6  7  2  0
  9  6  1  0
 10  9  1  0
 10 14  1  0
 10 11  1  1
 12 11  1  0
 13 12  2  0
 14 17  1  0
 15 14  2  0
 16 12  1  0
 17 18  1  0
 18 23  1  0
 18 19  1  6
 20 19  1  0
 21 20  1  0
 21 22  2  0
 23 26  2  0
 23 24  1  0
 25 21  1  0
M  END
$$$$
