DDE.pdb
     RDKit          3D

 26 25  0  0  1  0  0  0  0  0999 V2000
   16.9630   -9.8123  -14.2147 N   0  0  0  0  0  0  0  0  0  0  0  0
   17.4835   -9.2097  -12.9966 C   0  0  1  0  0  0  0  0  0  0  0  0
   18.4547   -8.1363  -13.4283 C   0  0  0  0  0  0  0  0  0  0  0  0
   19.6292   -8.8253  -14.0233 C   0  0  0  0  0  0  0  0  0  0  0  0
   19.5960   -9.4078  -15.1337 O   0  0  0  0  0  0  0  0  0  0  0  0
   16.3945   -8.6901  -12.1385 C   0  0  0  0  0  0  0  0  0  0  0  0
   15.4728   -7.9946  -12.6371 O   0  0  0  0  0  0  0  0  0  0  0  0
   20.8325   -8.8370  -13.3337 O   0  0  0  0  0  0  0  0  0  0  0  0
   16.3233   -8.9364  -10.7414 N   0  0  0  0  0  0  0  0  0  0  0  0
   15.1980   -8.6035   -9.9105 C   0  0  1  0  0  0  0  0  0  0  0  0
   14.7492   -9.7672   -9.0542 C   0  0  0  0  0  0  0  0  0  0  0  0
   14.0831  -10.8222   -9.8158 C   0  0  0  0  0  0  0  0  0  0  0  0
   14.5062  -11.9799   -9.9900 O   0  0  0  0  0  0  0  0  0  0  0  0
   15.5328   -7.4136   -9.0853 C   0  0  0  0  0  0  0  0  0  0  0  0
   16.6933   -7.2701   -8.6261 O   0  0  0  0  0  0  0  0  0  0  0  0
   12.8550  -10.4970  -10.4025 O   0  0  0  0  0  0  0  0  0  0  0  0
   14.6045   -6.3985   -8.7706 N   0  0  0  0  0  0  0  0  0  0  0  0
   14.9798   -5.2374   -7.9564 C   0  0  1  0  0  0  0  0  0  0  0  0
   15.8727   -4.3140   -8.6928 C   0  0  0  0  0  0  0  0  0  0  0  0
   15.1739   -3.6154   -9.8159 C   0  0  0  0  0  0  0  0  0  0  0  0
   16.0161   -2.5546  -10.4245 C   0  0  0  0  0  0  0  0  0  0  0  0
   17.1016   -2.2672   -9.8944 O   0  0  0  0  0  0  0  0  0  0  0  0
   13.7693   -4.5892   -7.4069 C   0  0  0  0  0  0  0  0  0  0  0  0
   13.7157   -3.5971   -6.4751 O   0  0  0  0  0  0  0  0  0  0  0  0
   15.6042   -1.8984  -11.5562 O   0  0  0  0  0  0  0  0  0  0  0  0
   12.6384   -4.9975   -7.8460 O   0  0  0  0  0  0  0  0  0  0  0  0
  2  3  1  0
  2  1  1  6
  3  4  1  0
  4  8  1  0
  4  5  2  0
  6  2  1  0
  6  7  2  0
  9  6  1  0
 10  9  1  0
 10 14  1  0
 10 11  1  1
 12 11  1  0
 13 12  2  0
 14 17  1  0
 15 14  2  0
 16 12  1  0
 17 18  1  0
 18 23  1  0
 18 19  1  6
 20 19  1  0
 21 20  1  0
 21 22  2  0
 23 26  2  0
 23 24  1  0
 25 21  1  0
M  END
$$$$
