DDE.pdb
     RDKit          3D

 26 25  0  0  1  0  0  0  0  0999 V2000
   13.9256  -10.1498  -12.7547 N   0  0  0  0  0  0  0  0  0  0  0  0
   15.2145   -9.9074  -13.3854 C   0  0  1  0  0  0  0  0  0  0  0  0
   15.0029  -10.0665  -14.8725 C   0  0  0  0  0  0  0  0  0  0  0  0
   15.0315  -11.5236  -15.1631 C   0  0  0  0  0  0  0  0  0  0  0  0
   14.0225  -12.2634  -15.0732 O   0  0  0  0  0  0  0  0  0  0  0  0
   15.7579   -8.5795  -13.0196 C   0  0  0  0  0  0  0  0  0  0  0  0
   15.2630   -7.5347  -13.5149 O   0  0  0  0  0  0  0  0  0  0  0  0
   16.2227  -12.1159  -15.5552 O   0  0  0  0  0  0  0  0  0  0  0  0
   16.8386   -8.4063  -12.1142 N   0  0  0  0  0  0  0  0  0  0  0  0
   17.3707   -7.1321  -11.7131 C   0  0  1  0  0  0  0  0  0  0  0  0
   17.5213   -7.0169  -10.2122 C   0  0  0  0  0  0  0  0  0  0  0  0
   18.0406   -5.7202   -9.7811 C   0  0  0  0  0  0  0  0  0  0  0  0
   18.1535   -4.7029  -10.4897 O   0  0  0  0  0  0  0  0  0  0  0  0
   18.6610   -6.8975  -12.4125 C   0  0  0  0  0  0  0  0  0  0  0  0
   19.5184   -7.8133  -12.4793 O   0  0  0  0  0  0  0  0  0  0  0  0
   18.4482   -5.6162   -8.4466 O   0  0  0  0  0  0  0  0  0  0  0  0
   19.0015   -5.6741  -13.0277 N   0  0  0  0  0  0  0  0  0  0  0  0
   20.2564   -5.5082  -13.7692 C   0  0  1  0  0  0  0  0  0  0  0  0
   20.2222   -4.3188  -14.6503 C   0  0  0  0  0  0  0  0  0  0  0  0
   21.4789   -4.1590  -15.4458 C   0  0  0  0  0  0  0  0  0  0  0  0
   21.4210   -2.9842  -16.3522 C   0  0  0  0  0  0  0  0  0  0  0  0
   20.3664   -2.3337  -16.4307 O   0  0  0  0  0  0  0  0  0  0  0  0
   21.4043   -5.5305  -12.8370 C   0  0  0  0  0  0  0  0  0  0  0  0
   21.3612   -5.5519  -11.4757 O   0  0  0  0  0  0  0  0  0  0  0  0
   22.5150   -2.6196  -17.0946 O   0  0  0  0  0  0  0  0  0  0  0  0
   22.5755   -5.5279  -13.3535 O   0  0  0  0  0  0  0  0  0  0  0  0
  2  3  1  0
  2  1  1  1
  3  4  1  0
  4  8  1  0
  4  5  2  0
  6  2  1  0
  6  7  2  0
  9  6  1  0
 10  9  1  0
 10 14  1  0
 10 11  1  1
 12 11  1  0
 13 12  2  0
 14 17  1  0
 15 14  2  0
 16 12  1  0
 17 18  1  0
 18 23  1  0
 18 19  1  1
 20 19  1  0
 21 20  1  0
 21 22  2  0
 23 26  2  0
 23 24  1  0
 25 21  1  0
M  END
$$$$
