DDE.pdb
     RDKit          3D

 26 25  0  0  1  0  0  0  0  0999 V2000
   18.5510  -12.2789  -14.9468 N   0  0  0  0  0  0  0  0  0  0  0  0
   17.6360  -12.0566  -16.0564 C   0  0  1  0  0  0  0  0  0  0  0  0
   16.5686  -13.1204  -15.9540 C   0  0  0  0  0  0  0  0  0  0  0  0
   16.3166  -13.3466  -14.5071 C   0  0  0  0  0  0  0  0  0  0  0  0
   16.2504  -12.4180  -13.6664 O   0  0  0  0  0  0  0  0  0  0  0  0
   17.0839  -10.6828  -16.0393 C   0  0  0  0  0  0  0  0  0  0  0  0
   16.3381  -10.2887  -16.9722 O   0  0  0  0  0  0  0  0  0  0  0  0
   16.1426  -14.6413  -14.0410 O   0  0  0  0  0  0  0  0  0  0  0  0
   17.3526   -9.7518  -15.0007 N   0  0  0  0  0  0  0  0  0  0  0  0
   16.8340   -8.4116  -14.9520 C   0  0  1  0  0  0  0  0  0  0  0  0
   16.0010   -8.1604  -13.7143 C   0  0  0  0  0  0  0  0  0  0  0  0
   15.4399   -6.8118  -13.6591 C   0  0  0  0  0  0  0  0  0  0  0  0
   15.9481   -5.8287  -13.0890 O   0  0  0  0  0  0  0  0  0  0  0  0
   17.9589   -7.4463  -15.0601 C   0  0  0  0  0  0  0  0  0  0  0  0
   19.0641   -7.7018  -14.5202 O   0  0  0  0  0  0  0  0  0  0  0  0
   14.2170   -6.6105  -14.3087 O   0  0  0  0  0  0  0  0  0  0  0  0
   17.8679   -6.2194  -15.7511 N   0  0  0  0  0  0  0  0  0  0  0  0
   19.0170   -5.3151  -15.8692 C   0  0  1  0  0  0  0  0  0  0  0  0
   19.6954   -5.4550  -17.1778 C   0  0  0  0  0  0  0  0  0  0  0  0
   20.8804   -4.5514  -17.3081 C   0  0  0  0  0  0  0  0  0  0  0  0
   21.5396   -4.6815  -18.6323 C   0  0  0  0  0  0  0  0  0  0  0  0
   21.7262   -3.6622  -19.3164 O   0  0  0  0  0  0  0  0  0  0  0  0
   18.6084   -3.9298  -15.5512 C   0  0  0  0  0  0  0  0  0  0  0  0
   19.3971   -2.9254  -15.0771 O   0  0  0  0  0  0  0  0  0  0  0  0
   21.9378   -5.9087  -19.0974 O   0  0  0  0  0  0  0  0  0  0  0  0
   17.3785   -3.6271  -15.7359 O   0  0  0  0  0  0  0  0  0  0  0  0
  2  3  1  0
  2  1  1  1
  3  4  1  0
  4  8  1  0
  4  5  2  0
  6  2  1  0
  6  7  2  0
  9  6  1  0
 10  9  1  0
 10 14  1  0
 10 11  1  1
 12 11  1  0
 13 12  2  0
 14 17  1  0
 15 14  2  0
 16 12  1  0
 17 18  1  0
 18 23  1  0
 18 19  1  6
 20 19  1  0
 21 20  1  0
 21 22  2  0
 23 26  2  0
 23 24  1  0
 25 21  1  0
M  END
$$$$
