DDE.pdb
     RDKit          3D

 26 25  0  0  1  0  0  0  0  0999 V2000
   17.7002  -11.8612  -17.0668 N   0  0  0  0  0  0  0  0  0  0  0  0
   17.5057  -11.2094  -15.7803 C   0  0  1  0  0  0  0  0  0  0  0  0
   17.1282  -12.2950  -14.8004 C   0  0  0  0  0  0  0  0  0  0  0  0
   15.7986  -12.8130  -15.2151 C   0  0  0  0  0  0  0  0  0  0  0  0
   14.7228  -12.2100  -14.9861 O   0  0  0  0  0  0  0  0  0  0  0  0
   18.7094  -10.4528  -15.3665 C   0  0  0  0  0  0  0  0  0  0  0  0
   18.7996   -9.9966  -14.1979 O   0  0  0  0  0  0  0  0  0  0  0  0
   15.7198  -14.0216  -15.8910 O   0  0  0  0  0  0  0  0  0  0  0  0
   19.8047  -10.2020  -16.2355 N   0  0  0  0  0  0  0  0  0  0  0  0
   20.9856   -9.4682  -15.8690 C   0  0  1  0  0  0  0  0  0  0  0  0
   22.2039   -9.9088  -16.6504 C   0  0  0  0  0  0  0  0  0  0  0  0
   23.4077   -9.1474  -16.3222 C   0  0  0  0  0  0  0  0  0  0  0  0
   24.0581   -8.4302  -17.1047 O   0  0  0  0  0  0  0  0  0  0  0  0
   20.7286   -8.0133  -16.0300 C   0  0  0  0  0  0  0  0  0  0  0  0
   20.4802   -7.5381  -17.1662 O   0  0  0  0  0  0  0  0  0  0  0  0
   23.8695   -9.2351  -15.0042 O   0  0  0  0  0  0  0  0  0  0  0  0
   20.7453   -7.0966  -14.9574 N   0  0  0  0  0  0  0  0  0  0  0  0
   20.5426   -5.6593  -15.1697 C   0  0  1  0  0  0  0  0  0  0  0  0
   19.2023   -5.2198  -14.7195 C   0  0  0  0  0  0  0  0  0  0  0  0
   18.9667   -3.7623  -14.9598 C   0  0  0  0  0  0  0  0  0  0  0  0
   17.6164   -3.3335  -14.5150 C   0  0  0  0  0  0  0  0  0  0  0  0
   17.5102   -2.6403  -13.4904 O   0  0  0  0  0  0  0  0  0  0  0  0
   21.6569   -4.8946  -14.5691 C   0  0  0  0  0  0  0  0  0  0  0  0
   22.1676   -3.7067  -14.9977 O   0  0  0  0  0  0  0  0  0  0  0  0
   16.4992   -3.6965  -15.2230 O   0  0  0  0  0  0  0  0  0  0  0  0
   22.2143   -5.3939  -13.5306 O   0  0  0  0  0  0  0  0  0  0  0  0
  2  3  1  0
  2  1  1  6
  3  4  1  0
  4  8  1  0
  4  5  2  0
  6  2  1  0
  6  7  2  0
  9  6  1  0
 10  9  1  0
 10 14  1  0
 10 11  1  6
 12 11  1  0
 13 12  2  0
 14 17  1  0
 15 14  2  0
 16 12  1  0
 17 18  1  0
 18 23  1  0
 18 19  1  1
 20 19  1  0
 21 20  1  0
 21 22  2  0
 23 26  2  0
 23 24  1  0
 25 21  1  0
M  END
$$$$
