DDE.pdb
     RDKit          3D

 26 25  0  0  1  0  0  0  0  0999 V2000
   18.8317  -12.5183  -16.0609 N   0  0  0  0  0  0  0  0  0  0  0  0
   18.6849  -11.5227  -17.1120 C   0  0  1  0  0  0  0  0  0  0  0  0
   17.4237  -11.8745  -17.8652 C   0  0  0  0  0  0  0  0  0  0  0  0
   17.6789  -13.1602  -18.5653 C   0  0  0  0  0  0  0  0  0  0  0  0
   18.8219  -13.5358  -18.9202 O   0  0  0  0  0  0  0  0  0  0  0  0
   18.6622  -10.1487  -16.5604 C   0  0  0  0  0  0  0  0  0  0  0  0
   18.7701   -9.1572  -17.3266 O   0  0  0  0  0  0  0  0  0  0  0  0
   16.6147  -14.0027  -18.8503 O   0  0  0  0  0  0  0  0  0  0  0  0
   18.5213   -9.8716  -15.1744 N   0  0  0  0  0  0  0  0  0  0  0  0
   18.4819   -8.5514  -14.6062 C   0  0  1  0  0  0  0  0  0  0  0  0
   17.5081   -8.4488  -13.4530 C   0  0  0  0  0  0  0  0  0  0  0  0
   16.1085   -8.4765  -13.8739 C   0  0  0  0  0  0  0  0  0  0  0  0
   15.5793   -7.7223  -14.7112 O   0  0  0  0  0  0  0  0  0  0  0  0
   19.8545   -8.1507  -14.2010 C   0  0  0  0  0  0  0  0  0  0  0  0
   20.6387   -8.9976  -13.7049 O   0  0  0  0  0  0  0  0  0  0  0  0
   15.2897   -9.4422  -13.2780 O   0  0  0  0  0  0  0  0  0  0  0  0
   20.3552   -6.8388  -14.3394 N   0  0  0  0  0  0  0  0  0  0  0  0
   21.7502   -6.5099  -14.0265 C   0  0  1  0  0  0  0  0  0  0  0  0
   22.6375   -6.7054  -15.1956 C   0  0  0  0  0  0  0  0  0  0  0  0
   22.3424   -5.7468  -16.3053 C   0  0  0  0  0  0  0  0  0  0  0  0
   23.2970   -5.8874  -17.4341 C   0  0  0  0  0  0  0  0  0  0  0  0
   23.0748   -5.2769  -18.4922 O   0  0  0  0  0  0  0  0  0  0  0  0
   21.8326   -5.1587  -13.4311 C   0  0  0  0  0  0  0  0  0  0  0  0
   22.8727   -4.6287  -12.7290 O   0  0  0  0  0  0  0  0  0  0  0  0
   24.4097   -6.6802  -17.3139 O   0  0  0  0  0  0  0  0  0  0  0  0
   20.8197   -4.3911  -13.5835 O   0  0  0  0  0  0  0  0  0  0  0  0
  2  3  1  0
  2  1  1  1
  3  4  1  0
  4  8  1  0
  4  5  2  0
  6  2  1  0
  6  7  2  0
  9  6  1  0
 10  9  1  0
 10 14  1  0
 10 11  1  1
 12 11  1  0
 13 12  2  0
 14 17  1  0
 15 14  2  0
 16 12  1  0
 17 18  1  0
 18 23  1  0
 18 19  1  6
 20 19  1  0
 21 20  1  0
 21 22  2  0
 23 26  2  0
 23 24  1  0
 25 21  1  0
M  END
$$$$
