IQA.pdb
     RDKit          3D

 23 22  0  0  1  0  0  0  0  0999 V2000
    5.8542  -10.8743   26.6772 C   0  0  0  0  0  0  0  0  0  0  0  0
    5.5010  -12.0800   25.8640 C   0  0  0  0  0  0  0  0  0  0  0  0
    6.6038  -13.0783   25.8848 C   0  0  2  0  0  0  0  0  0  0  0  0
    7.8960  -12.4834   25.3229 C   0  0  0  0  0  0  0  0  0  0  0  0
    6.2663  -14.3032   25.1063 C   0  0  2  0  0  0  0  0  0  0  0  0
    5.0112  -14.8834   25.4874 N   0  0  0  0  0  0  0  0  0  0  0  0
    7.3354  -15.3269   25.2175 C   0  0  0  0  0  0  0  0  0  0  0  0
    7.3959  -16.1359   26.1883 O   0  0  0  0  0  0  0  0  0  0  0  0
   10.8714  -18.4435   20.6932 N   0  0  0  0  0  0  0  0  0  0  0  0
    9.7667  -17.5619   20.6760 C   0  0  0  0  0  0  0  0  0  0  0  0
    9.4086  -17.0328   19.6012 O   0  0  0  0  0  0  0  0  0  0  0  0
    9.0598  -17.2948   21.9692 C   0  0  0  0  0  0  0  0  0  0  0  0
    9.9996  -16.6619   22.9620 C   0  0  0  0  0  0  0  0  0  0  0  0
    9.3935  -16.4405   24.3218 C   0  0  2  0  0  0  0  0  0  0  0  0
    8.3282  -15.4211   24.2211 N   0  0  0  0  0  0  0  0  0  0  0  0
   10.3456  -15.9519   25.3397 C   0  0  0  0  0  0  0  0  0  0  0  0
   11.2305  -15.1528   25.0259 O   0  0  0  0  0  0  0  0  0  0  0  0
   10.6630  -14.7975   28.5222 C   0  0  0  0  0  0  0  0  0  0  0  0
   11.1785  -15.9371   27.7175 C   0  0  2  0  0  0  0  0  0  0  0  0
   10.2714  -16.3803   26.6837 N   0  0  0  0  0  0  0  0  0  0  0  0
   11.5926  -17.0099   28.6229 C   0  0  0  0  0  0  0  0  0  0  0  0
   11.0777  -18.1471   28.5180 O   0  0  0  0  0  0  0  0  0  0  0  0
   12.5498  -16.7772   29.5949 O   0  0  0  0  0  0  0  0  0  0  0  0
  1  2  1  0
  3  5  1  0
  3  2  1  0
  3  4  1  6
  5  6  1  1
  7  5  1  0
  7  8  2  0
  9 10  1  0
 10 12  1  0
 11 10  2  0
 12 13  1  0
 14 13  1  6
 14 15  1  0
 15  7  1  0
 16 14  1  0
 17 16  2  0
 19 18  1  1
 19 21  1  0
 19 20  1  0
 20 16  1  0
 21 23  1  0
 22 21  2  0
M  END
$$$$
