IQA.pdb
     RDKit          3D

 23 22  0  0  1  0  0  0  0  0999 V2000
    5.8916  -10.9996   26.4700 C   0  0  0  0  0  0  0  0  0  0  0  0
    5.5359  -12.2512   25.7308 C   0  0  0  0  0  0  0  0  0  0  0  0
    6.6326  -13.2525   25.8201 C   0  0  2  0  0  0  0  0  0  0  0  0
    7.9202  -12.7166   25.1920 C   0  0  0  0  0  0  0  0  0  0  0  0
    6.2762  -14.5360   25.1522 C   0  0  2  0  0  0  0  0  0  0  0  0
    5.0149  -15.0638   25.5857 N   0  0  0  0  0  0  0  0  0  0  0  0
    7.3320  -15.5604   25.3495 C   0  0  0  0  0  0  0  0  0  0  0  0
    7.2927  -16.3949   26.2995 O   0  0  0  0  0  0  0  0  0  0  0  0
   11.8893  -16.9914   20.7269 N   0  0  0  0  0  0  0  0  0  0  0  0
   12.0984  -16.4087   21.9975 C   0  0  0  0  0  0  0  0  0  0  0  0
   13.2508  -16.3645   22.4807 O   0  0  0  0  0  0  0  0  0  0  0  0
   10.9091  -15.8591   22.7236 C   0  0  0  0  0  0  0  0  0  0  0  0
   10.0811  -16.9778   23.3003 C   0  0  0  0  0  0  0  0  0  0  0  0
    9.4689  -16.6582   24.6375 C   0  0  2  0  0  0  0  0  0  0  0  0
    8.4257  -15.6260   24.4624 N   0  0  0  0  0  0  0  0  0  0  0  0
   10.4227  -16.1249   25.6312 C   0  0  0  0  0  0  0  0  0  0  0  0
   11.4972  -15.6457   25.2620 O   0  0  0  0  0  0  0  0  0  0  0  0
   10.6512  -14.4715   28.7350 C   0  0  0  0  0  0  0  0  0  0  0  0
   11.0649  -15.7156   28.0327 C   0  0  2  0  0  0  0  0  0  0  0  0
   10.1360  -16.1484   27.0141 N   0  0  0  0  0  0  0  0  0  0  0  0
   11.3557  -16.7490   29.0275 C   0  0  0  0  0  0  0  0  0  0  0  0
   10.7989  -17.8682   28.9443 O   0  0  0  0  0  0  0  0  0  0  0  0
   12.2421  -16.4990   30.0605 O   0  0  0  0  0  0  0  0  0  0  0  0
  1  2  1  0
  3  5  1  0
  3  2  1  0
  3  4  1  6
  5  6  1  1
  7  5  1  0
  7  8  2  0
  9 10  1  0
 10 12  1  0
 11 10  2  0
 12 13  1  0
 14 13  1  6
 14 15  1  0
 15  7  1  0
 16 14  1  0
 17 16  2  0
 19 18  1  1
 19 21  1  0
 19 20  1  0
 20 16  1  0
 21 23  1  0
 22 21  2  0
M  END
$$$$
