IQA.pdb
     RDKit          3D

 23 22  0  0  1  0  0  0  0  0999 V2000
    7.0749  -12.4629   18.9216 C   0  0  0  0  0  0  0  0  0  0  0  0
    8.1520  -13.4184   19.3295 C   0  0  0  0  0  0  0  0  0  0  0  0
    7.9733  -13.8515   20.7415 C   0  0  2  0  0  0  0  0  0  0  0  0
    8.0484  -12.6595   21.6970 C   0  0  0  0  0  0  0  0  0  0  0  0
    8.9936  -14.8563   21.1535 C   0  0  2  0  0  0  0  0  0  0  0  0
    9.0677  -15.9792   20.2643 N   0  0  0  0  0  0  0  0  0  0  0  0
    8.7507  -15.3389   22.5360 C   0  0  0  0  0  0  0  0  0  0  0  0
    7.9493  -14.7561   23.3225 O   0  0  0  0  0  0  0  0  0  0  0  0
   10.8903  -20.7582   24.8757 N   0  0  0  0  0  0  0  0  0  0  0  0
   10.3294  -20.2135   26.0531 C   0  0  0  0  0  0  0  0  0  0  0  0
   10.3280  -20.8823   27.1096 O   0  0  0  0  0  0  0  0  0  0  0  0
    9.7507  -18.8337   25.9835 C   0  0  0  0  0  0  0  0  0  0  0  0
    9.8118  -18.3078   24.5731 C   0  0  0  0  0  0  0  0  0  0  0  0
    9.2555  -16.9182   24.4145 C   0  0  2  0  0  0  0  0  0  0  0  0
    9.4234  -16.4826   23.0123 N   0  0  0  0  0  0  0  0  0  0  0  0
    9.9190  -15.8984   25.2520 C   0  0  0  0  0  0  0  0  0  0  0  0
   11.0653  -15.5302   24.9864 O   0  0  0  0  0  0  0  0  0  0  0  0
    9.0880  -13.1812   27.5565 C   0  0  0  0  0  0  0  0  0  0  0  0
    9.9023  -14.3928   27.2720 C   0  0  2  0  0  0  0  0  0  0  0  0
    9.2687  -15.3236   26.3664 N   0  0  0  0  0  0  0  0  0  0  0  0
   10.3063  -15.0027   28.5396 C   0  0  0  0  0  0  0  0  0  0  0  0
    9.9553  -16.1753   28.8066 O   0  0  0  0  0  0  0  0  0  0  0  0
   11.0739  -14.2931   29.4465 O   0  0  0  0  0  0  0  0  0  0  0  0
  1  2  1  0
  3  5  1  0
  3  2  1  0
  3  4  1  1
  5  6  1  6
  7  5  1  0
  7  8  2  0
  9 10  1  0
 10 12  1  0
 11 10  2  0
 12 13  1  0
 14 13  1  6
 14 15  1  0
 15  7  1  0
 16 14  1  0
 17 16  2  0
 19 18  1  1
 19 21  1  0
 19 20  1  0
 20 16  1  0
 21 23  1  0
 22 21  2  0
M  END
$$$$
