IQA.pdb
     RDKit          3D

 23 22  0  0  1  0  0  0  0  0999 V2000
    6.8170  -11.5524   27.1725 C   0  0  0  0  0  0  0  0  0  0  0  0
    6.1823  -12.5954   26.3071 C   0  0  0  0  0  0  0  0  0  0  0  0
    7.1506  -13.6756   25.9774 C   0  0  2  0  0  0  0  0  0  0  0  0
    8.3685  -13.1172   25.2395 C   0  0  0  0  0  0  0  0  0  0  0  0
    6.5358  -14.7437   25.1400 C   0  0  2  0  0  0  0  0  0  0  0  0
    5.3936  -15.3539   25.7566 N   0  0  0  0  0  0  0  0  0  0  0  0
    7.5249  -15.7935   24.7895 C   0  0  0  0  0  0  0  0  0  0  0  0
    7.7121  -16.8127   25.5152 O   0  0  0  0  0  0  0  0  0  0  0  0
   11.9150  -17.1677   19.1611 N   0  0  0  0  0  0  0  0  0  0  0  0
   10.7693  -17.5669   19.8862 C   0  0  0  0  0  0  0  0  0  0  0  0
    9.7668  -18.0007   19.2776 O   0  0  0  0  0  0  0  0  0  0  0  0
   10.8060  -17.4511   21.3790 C   0  0  0  0  0  0  0  0  0  0  0  0
    9.7830  -16.4528   21.8550 C   0  0  0  0  0  0  0  0  0  0  0  0
    9.2426  -16.7401   23.2301 C   0  0  2  0  0  0  0  0  0  0  0  0
    8.2940  -15.6737   23.6141 N   0  0  0  0  0  0  0  0  0  0  0  0
   10.2704  -16.7876   24.2897 C   0  0  0  0  0  0  0  0  0  0  0  0
   10.9267  -15.7795   24.5605 O   0  0  0  0  0  0  0  0  0  0  0  0
   11.2538  -18.8593   27.1874 C   0  0  0  0  0  0  0  0  0  0  0  0
   11.6186  -18.1192   25.9500 C   0  0  2  0  0  0  0  0  0  0  0  0
   10.5282  -17.9730   25.0133 N   0  0  0  0  0  0  0  0  0  0  0  0
   12.8088  -18.7347   25.3612 C   0  0  0  0  0  0  0  0  0  0  0  0
   13.8565  -18.8396   26.0399 O   0  0  0  0  0  0  0  0  0  0  0  0
   12.7855  -19.2022   24.0588 O   0  0  0  0  0  0  0  0  0  0  0  0
  1  2  1  0
  3  5  1  0
  3  2  1  0
  3  4  1  6
  5  6  1  1
  7  5  1  0
  7  8  2  0
  9 10  1  0
 10 12  1  0
 11 10  2  0
 12 13  1  0
 14 13  1  6
 14 15  1  0
 15  7  1  0
 16 14  1  0
 17 16  2  0
 19 18  1  1
 19 21  1  0
 19 20  1  0
 20 16  1  0
 21 23  1  0
 22 21  2  0
M  END
$$$$
