IQA.pdb
     RDKit          3D

 23 22  0  0  1  0  0  0  0  0999 V2000
    7.9212  -11.6026   27.4581 C   0  0  0  0  0  0  0  0  0  0  0  0
    7.5097  -13.0223   27.2241 C   0  0  0  0  0  0  0  0  0  0  0  0
    7.3173  -13.2890   25.7732 C   0  0  2  0  0  0  0  0  0  0  0  0
    6.1776  -12.4425   25.2039 C   0  0  0  0  0  0  0  0  0  0  0  0
    7.0256  -14.7246   25.5005 C   0  0  2  0  0  0  0  0  0  0  0  0
    8.0008  -15.6131   26.0633 N   0  0  0  0  0  0  0  0  0  0  0  0
    6.9050  -14.9854   24.0443 C   0  0  0  0  0  0  0  0  0  0  0  0
    6.1562  -14.2936   23.2952 O   0  0  0  0  0  0  0  0  0  0  0  0
    7.0282  -12.7843   19.8420 N   0  0  0  0  0  0  0  0  0  0  0  0
    8.2078  -13.4672   19.4678 C   0  0  0  0  0  0  0  0  0  0  0  0
    8.5009  -13.5874   18.2582 O   0  0  0  0  0  0  0  0  0  0  0  0
    9.0715  -14.0273   20.5558 C   0  0  0  0  0  0  0  0  0  0  0  0
    8.2359  -14.3975   21.7534 C   0  0  0  0  0  0  0  0  0  0  0  0
    8.5348  -15.7645   22.3080 C   0  0  2  0  0  0  0  0  0  0  0  0
    7.6389  -16.0333   23.4523 N   0  0  0  0  0  0  0  0  0  0  0  0
    9.9145  -15.9292   22.8087 C   0  0  0  0  0  0  0  0  0  0  0  0
   10.8730  -15.6812   22.0738 O   0  0  0  0  0  0  0  0  0  0  0  0
   11.5922  -16.7007   26.1040 C   0  0  0  0  0  0  0  0  0  0  0  0
   11.4923  -16.6887   24.6202 C   0  0  2  0  0  0  0  0  0  0  0  0
   10.1725  -16.3700   24.1257 N   0  0  0  0  0  0  0  0  0  0  0  0
   12.0166  -17.9514   24.0980 C   0  0  0  0  0  0  0  0  0  0  0  0
   11.2869  -18.6841   23.3909 O   0  0  0  0  0  0  0  0  0  0  0  0
   13.3139  -18.3424   24.3796 O   0  0  0  0  0  0  0  0  0  0  0  0
  1  2  1  0
  3  5  1  0
  3  2  1  0
  3  4  1  1
  5  6  1  6
  7  5  1  0
  7  8  2  0
  9 10  1  0
 10 12  1  0
 11 10  2  0
 12 13  1  0
 14 13  1  1
 14 15  1  0
 15  7  1  0
 16 14  1  0
 17 16  2  0
 19 18  1  1
 19 21  1  0
 19 20  1  0
 20 16  1  0
 21 23  1  0
 22 21  2  0
M  END
$$$$
