IQA.pdb
     RDKit          3D

 23 22  0  0  1  0  0  0  0  0999 V2000
    7.2832  -12.9483   18.5126 C   0  0  0  0  0  0  0  0  0  0  0  0
    8.0407  -14.0419   19.1980 C   0  0  0  0  0  0  0  0  0  0  0  0
    7.7538  -14.0549   20.6577 C   0  0  2  0  0  0  0  0  0  0  0  0
    8.1763  -12.7394   21.3138 C   0  0  0  0  0  0  0  0  0  0  0  0
    8.4430  -15.1770   21.3549 C   0  0  2  0  0  0  0  0  0  0  0  0
    8.1822  -16.4547   20.7577 N   0  0  0  0  0  0  0  0  0  0  0  0
    8.0817  -15.2236   22.7939 C   0  0  0  0  0  0  0  0  0  0  0  0
    7.7441  -14.1886   23.4381 O   0  0  0  0  0  0  0  0  0  0  0  0
    6.7974  -20.5520   25.6429 N   0  0  0  0  0  0  0  0  0  0  0  0
    6.0220  -19.9630   24.6184 C   0  0  0  0  0  0  0  0  0  0  0  0
    5.1562  -20.6417   24.0241 O   0  0  0  0  0  0  0  0  0  0  0  0
    6.2752  -18.5254   24.2828 C   0  0  0  0  0  0  0  0  0  0  0  0
    7.2839  -17.9329   25.2320 C   0  0  0  0  0  0  0  0  0  0  0  0
    7.6778  -16.5186   24.9005 C   0  0  2  0  0  0  0  0  0  0  0  0
    8.1081  -16.4502   23.4883 N   0  0  0  0  0  0  0  0  0  0  0  0
    8.7998  -15.9952   25.7059 C   0  0  0  0  0  0  0  0  0  0  0  0
    9.9518  -16.3724   25.4803 O   0  0  0  0  0  0  0  0  0  0  0  0
    9.3803  -13.2590   28.2156 C   0  0  0  0  0  0  0  0  0  0  0  0
    9.6292  -14.6066   27.6375 C   0  0  2  0  0  0  0  0  0  0  0  0
    8.5886  -15.0606   26.7437 N   0  0  0  0  0  0  0  0  0  0  0  0
    9.9092  -15.5460   28.7243 C   0  0  0  0  0  0  0  0  0  0  0  0
    9.1694  -16.5430   28.8921 O   0  0  0  0  0  0  0  0  0  0  0  0
   10.9862  -15.3410   29.5689 O   0  0  0  0  0  0  0  0  0  0  0  0
  1  2  1  0
  3  5  1  0
  3  2  1  0
  3  4  1  1
  5  6  1  6
  7  5  1  0
  7  8  2  0
  9 10  1  0
 10 12  1  0
 11 10  2  0
 12 13  1  0
 14 13  1  1
 14 15  1  0
 15  7  1  0
 16 14  1  0
 17 16  2  0
 19 18  1  1
 19 21  1  0
 19 20  1  0
 20 16  1  0
 21 23  1  0
 22 21  2  0
M  END
$$$$
