IQA.pdb
     RDKit          3D

 23 22  0  0  1  0  0  0  0  0999 V2000
    8.0779  -11.2347   20.1632 C   0  0  0  0  0  0  0  0  0  0  0  0
    8.2064  -12.5197   20.9193 C   0  0  0  0  0  0  0  0  0  0  0  0
    8.1882  -13.6856   19.9953 C   0  0  2  0  0  0  0  0  0  0  0  0
    6.8743  -13.7495   19.2150 C   0  0  0  0  0  0  0  0  0  0  0  0
    8.3763  -14.9759   20.7165 C   0  0  2  0  0  0  0  0  0  0  0  0
    8.5174  -14.8120   22.1344 N   0  0  0  0  0  0  0  0  0  0  0  0
    9.5439  -15.7255   20.1893 C   0  0  0  0  0  0  0  0  0  0  0  0
    9.4801  -16.4158   19.1311 O   0  0  0  0  0  0  0  0  0  0  0  0
   16.1817  -14.6101   19.2303 N   0  0  0  0  0  0  0  0  0  0  0  0
   15.0385  -15.0698   18.5379 C   0  0  0  0  0  0  0  0  0  0  0  0
   14.7784  -14.6234   17.3992 O   0  0  0  0  0  0  0  0  0  0  0  0
   14.1724  -16.0904   19.2099 C   0  0  0  0  0  0  0  0  0  0  0  0
   12.9083  -15.4519   19.7238 C   0  0  0  0  0  0  0  0  0  0  0  0
   11.9450  -16.4229   20.3521 C   0  0  2  0  0  0  0  0  0  0  0  0
   10.7763  -15.6830   20.8726 N   0  0  0  0  0  0  0  0  0  0  0  0
   12.5018  -17.1808   21.4910 C   0  0  0  0  0  0  0  0  0  0  0  0
   12.5167  -16.6813   22.6182 O   0  0  0  0  0  0  0  0  0  0  0  0
   13.6324  -20.7389   22.0834 C   0  0  0  0  0  0  0  0  0  0  0  0
   13.5184  -19.2932   22.4138 C   0  0  2  0  0  0  0  0  0  0  0  0
   13.0265  -18.4816   21.3242 N   0  0  0  0  0  0  0  0  0  0  0  0
   14.7968  -18.8262   22.9521 C   0  0  0  0  0  0  0  0  0  0  0  0
   15.4345  -17.9293   22.3534 O   0  0  0  0  0  0  0  0  0  0  0  0
   15.3069  -19.3683   24.1187 O   0  0  0  0  0  0  0  0  0  0  0  0
  1  2  1  0
  3  5  1  0
  3  2  1  0
  3  4  1  1
  5  6  1  1
  7  5  1  0
  7  8  2  0
  9 10  1  0
 10 12  1  0
 11 10  2  0
 12 13  1  0
 14 13  1  1
 14 15  1  0
 15  7  1  0
 16 14  1  0
 17 16  2  0
 19 18  1  6
 19 21  1  0
 19 20  1  0
 20 16  1  0
 21 23  1  0
 22 21  2  0
M  END
$$$$
