IQA.pdb
     RDKit          3D

 23 22  0  0  1  0  0  0  0  0999 V2000
    6.7581  -12.2267   19.6607 C   0  0  0  0  0  0  0  0  0  0  0  0
    7.6055  -12.7890   18.5630 C   0  0  0  0  0  0  0  0  0  0  0  0
    8.6610  -13.6836   19.1097 C   0  0  2  0  0  0  0  0  0  0  0  0
    9.5834  -12.9266   20.0665 C   0  0  0  0  0  0  0  0  0  0  0  0
    9.4906  -14.2954   18.0337 C   0  0  2  0  0  0  0  0  0  0  0  0
    8.7079  -14.9228   17.0085 N   0  0  0  0  0  0  0  0  0  0  0  0
   10.4555  -15.2783   18.5868 C   0  0  0  0  0  0  0  0  0  0  0  0
   10.1769  -16.5073   18.6982 O   0  0  0  0  0  0  0  0  0  0  0  0
   15.6047  -15.3775   16.2434 N   0  0  0  0  0  0  0  0  0  0  0  0
   15.4548  -14.4102   17.2630 C   0  0  0  0  0  0  0  0  0  0  0  0
   16.3725  -13.5898   17.4832 O   0  0  0  0  0  0  0  0  0  0  0  0
   14.1804  -14.4093   18.0500 C   0  0  0  0  0  0  0  0  0  0  0  0
   13.9795  -15.7395   18.7282 C   0  0  0  0  0  0  0  0  0  0  0  0
   12.7097  -15.8303   19.5312 C   0  0  2  0  0  0  0  0  0  0  0  0
   11.7315  -14.8531   19.0093 N   0  0  0  0  0  0  0  0  0  0  0  0
   12.8759  -15.5300   20.9677 C   0  0  0  0  0  0  0  0  0  0  0  0
   13.0777  -14.3714   21.3381 O   0  0  0  0  0  0  0  0  0  0  0  0
   12.4302  -17.3974   24.2197 C   0  0  0  0  0  0  0  0  0  0  0  0
   12.9711  -16.3096   23.3616 C   0  0  2  0  0  0  0  0  0  0  0  0
   12.8099  -16.5473   21.9454 N   0  0  0  0  0  0  0  0  0  0  0  0
   14.3569  -16.0425   23.7495 C   0  0  0  0  0  0  0  0  0  0  0  0
   15.2843  -16.2584   22.9355 O   0  0  0  0  0  0  0  0  0  0  0  0
   14.6506  -15.5525   25.0099 O   0  0  0  0  0  0  0  0  0  0  0  0
  1  2  1  0
  3  5  1  0
  3  2  1  0
  3  4  1  1
  5  6  1  6
  7  5  1  0
  7  8  2  0
  9 10  1  0
 10 12  1  0
 11 10  2  0
 12 13  1  0
 14 13  1  6
 14 15  1  0
 15  7  1  0
 16 14  1  0
 17 16  2  0
 19 18  1  1
 19 21  1  0
 19 20  1  0
 20 16  1  0
 21 23  1  0
 22 21  2  0
M  END
$$$$
