IQA.pdb
     RDKit          3D

 23 22  0  0  1  0  0  0  0  0999 V2000
    7.6647  -12.1174   27.3457 C   0  0  0  0  0  0  0  0  0  0  0  0
    7.2773  -13.4930   26.9016 C   0  0  0  0  0  0  0  0  0  0  0  0
    7.0646  -13.5376   25.4298 C   0  0  2  0  0  0  0  0  0  0  0  0
    6.0122  -12.5167   24.9942 C   0  0  0  0  0  0  0  0  0  0  0  0
    6.6385  -14.8877   24.9652 C   0  0  2  0  0  0  0  0  0  0  0  0
    5.4532  -15.3595   25.6207 N   0  0  0  0  0  0  0  0  0  0  0  0
    7.7241  -15.8858   25.1338 C   0  0  0  0  0  0  0  0  0  0  0  0
    7.6051  -16.8894   25.8948 O   0  0  0  0  0  0  0  0  0  0  0  0
   11.9708  -17.1318   20.9048 N   0  0  0  0  0  0  0  0  0  0  0  0
   12.0487  -15.8371   21.4664 C   0  0  0  0  0  0  0  0  0  0  0  0
   12.6498  -14.9275   20.8541 O   0  0  0  0  0  0  0  0  0  0  0  0
   11.3961  -15.6061   22.7946 C   0  0  0  0  0  0  0  0  0  0  0  0
   10.7597  -16.8759   23.2965 C   0  0  0  0  0  0  0  0  0  0  0  0
   10.0269  -16.7177   24.6016 C   0  0  2  0  0  0  0  0  0  0  0  0
    8.9380  -15.7326   24.4336 N   0  0  0  0  0  0  0  0  0  0  0  0
   10.8658  -16.2287   25.7146 C   0  0  0  0  0  0  0  0  0  0  0  0
   12.0949  -16.2725   25.6282 O   0  0  0  0  0  0  0  0  0  0  0  0
   10.7153  -13.9680   28.5809 C   0  0  0  0  0  0  0  0  0  0  0  0
   11.0602  -15.3157   28.0547 C   0  0  2  0  0  0  0  0  0  0  0  0
   10.2922  -15.7043   26.8941 N   0  0  0  0  0  0  0  0  0  0  0  0
   10.9878  -16.2859   29.1481 C   0  0  0  0  0  0  0  0  0  0  0  0
   10.3009  -17.3251   29.0144 O   0  0  0  0  0  0  0  0  0  0  0  0
   11.6733  -16.0640   30.3296 O   0  0  0  0  0  0  0  0  0  0  0  0
  1  2  1  0
  3  5  1  0
  3  2  1  0
  3  4  1  1
  5  6  1  1
  7  5  1  0
  7  8  2  0
  9 10  1  0
 10 12  1  0
 11 10  2  0
 12 13  1  0
 14 13  1  6
 14 15  1  0
 15  7  1  0
 16 14  1  0
 17 16  2  0
 19 18  1  1
 19 21  1  0
 19 20  1  0
 20 16  1  0
 21 23  1  0
 22 21  2  0
M  END
$$$$
