AGF.pdb
     RDKit          3D

 21 21  0  0  1  0  0  0  0  0999 V2000
   26.9157  -21.3110  -18.1595 C   0  0  0  0  0  0  0  0  0  0  0  0
   28.0749  -21.2022  -17.1780 C   0  0  2  0  0  0  0  0  0  0  0  0
   28.4975  -22.4920  -16.7082 N   0  0  0  0  0  0  0  0  0  0  0  0
   27.7293  -20.3406  -16.0225 C   0  0  0  0  0  0  0  0  0  0  0  0
   27.2643  -19.1965  -16.2263 O   0  0  0  0  0  0  0  0  0  0  0  0
   27.9219  -20.8033  -14.7104 N   0  0  0  0  0  0  0  0  0  0  0  0
   27.6576  -20.0089  -13.5302 C   0  0  0  0  0  0  0  0  0  0  0  0
   26.5864  -20.6483  -12.7529 C   0  0  0  0  0  0  0  0  0  0  0  0
   26.0925  -21.7372  -13.2073 O   0  0  0  0  0  0  0  0  0  0  0  0
   26.0943  -20.1039  -11.5377 N   0  0  0  0  0  0  0  0  0  0  0  0
   25.0922  -20.8376  -10.8128 C   0  0  1  0  0  0  0  0  0  0  0  0
   25.1130  -20.5481   -9.3458 C   0  0  0  0  0  0  0  0  0  0  0  0
   26.4988  -20.4602   -8.8729 C   0  0  0  0  0  0  0  0  0  0  0  0
   27.4865  -21.2477   -9.4149 C   0  0  0  0  0  0  0  0  0  0  0  0
   28.8114  -21.1818   -9.0149 C   0  0  0  0  0  0  0  0  0  0  0  0
   29.1342  -20.2693   -8.0171 C   0  0  0  0  0  0  0  0  0  0  0  0
   28.1595  -19.4697   -7.4596 C   0  0  0  0  0  0  0  0  0  0  0  0
   26.8464  -19.5684   -7.8897 C   0  0  0  0  0  0  0  0  0  0  0  0
   23.7821  -20.6314  -11.4435 C   0  0  0  0  0  0  0  0  0  0  0  0
   23.5330  -19.8011  -12.3487 O   0  0  0  0  0  0  0  0  0  0  0  0
   22.6899  -21.4036  -11.0323 O   0  0  0  0  0  0  0  0  0  0  0  0
  2  1  1  6
  2  3  1  0
  4  2  1  0
  4  5  2  0
  6  4  1  0
  7  6  1  0
  8 10  1  0
  8  7  1  0
  9  8  2  0
 11 12  1  1
 11 10  1  0
 12 13  1  0
 13 14  2  0
 13 18  1  0
 14 15  1  0
 15 16  2  0
 17 16  1  0
 18 17  2  0
 19 11  1  0
 20 19  2  0
 21 19  1  0
M  END
$$$$
