AGF.pdb
     RDKit          3D

 21 21  0  0  1  0  0  0  0  0999 V2000
   16.3072  -10.8790  -18.6451 C   0  0  0  0  0  0  0  0  0  0  0  0
   17.5153  -10.9885  -17.7247 C   0  0  2  0  0  0  0  0  0  0  0  0
   17.1269  -11.0817  -16.3451 N   0  0  0  0  0  0  0  0  0  0  0  0
   18.4410   -9.8450  -17.9048 C   0  0  0  0  0  0  0  0  0  0  0  0
   19.3652   -9.9288  -18.7447 O   0  0  0  0  0  0  0  0  0  0  0  0
   18.2828   -8.6776  -17.1400 N   0  0  0  0  0  0  0  0  0  0  0  0
   19.0748   -7.4808  -17.3253 C   0  0  0  0  0  0  0  0  0  0  0  0
   19.5065   -6.9843  -16.0109 C   0  0  0  0  0  0  0  0  0  0  0  0
   18.6186   -6.8763  -15.0965 O   0  0  0  0  0  0  0  0  0  0  0  0
   20.8523   -6.6284  -15.7324 N   0  0  0  0  0  0  0  0  0  0  0  0
   21.1907   -6.2142  -14.3975 C   0  0  1  0  0  0  0  0  0  0  0  0
   21.5614   -7.3621  -13.5135 C   0  0  0  0  0  0  0  0  0  0  0  0
   22.6021   -8.1723  -14.1557 C   0  0  0  0  0  0  0  0  0  0  0  0
   23.5290   -7.6031  -14.9961 C   0  0  0  0  0  0  0  0  0  0  0  0
   24.5420   -8.3257  -15.6057 C   0  0  0  0  0  0  0  0  0  0  0  0
   24.6047   -9.6889  -15.3405 C   0  0  0  0  0  0  0  0  0  0  0  0
   23.6854  -10.2803  -14.5008 C   0  0  0  0  0  0  0  0  0  0  0  0
   22.6883   -9.5199  -13.9121 C   0  0  0  0  0  0  0  0  0  0  0  0
   22.2050   -5.1539  -14.4560 C   0  0  0  0  0  0  0  0  0  0  0  0
   22.7312   -4.7073  -15.5022 O   0  0  0  0  0  0  0  0  0  0  0  0
   22.6530   -4.5623  -13.2696 O   0  0  0  0  0  0  0  0  0  0  0  0
  2  1  1  6
  2  3  1  0
  4  2  1  0
  4  5  2  0
  6  4  1  0
  7  6  1  0
  8 10  1  0
  8  7  1  0
  9  8  2  0
 11 12  1  1
 11 10  1  0
 12 13  1  0
 13 14  2  0
 13 18  1  0
 14 15  1  0
 15 16  2  0
 17 16  1  0
 18 17  2  0
 19 11  1  0
 20 19  2  0
 21 19  1  0
M  END
$$$$
