AGF.pdb
     RDKit          3D

 21 21  0  0  1  0  0  0  0  0999 V2000
   37.1971  -29.7218    3.8849 C   0  0  0  0  0  0  0  0  0  0  0  0
   37.6982  -28.6282    4.8185 C   0  0  2  0  0  0  0  0  0  0  0  0
   38.6140  -29.1426    5.7980 N   0  0  0  0  0  0  0  0  0  0  0  0
   36.5764  -27.9392    5.4997 C   0  0  0  0  0  0  0  0  0  0  0  0
   35.7364  -27.3102    4.8174 O   0  0  0  0  0  0  0  0  0  0  0  0
   36.4568  -27.9914    6.8981 N   0  0  0  0  0  0  0  0  0  0  0  0
   35.3648  -27.3929    7.6351 C   0  0  0  0  0  0  0  0  0  0  0  0
   35.6089  -25.9492    7.7642 C   0  0  0  0  0  0  0  0  0  0  0  0
   36.5938  -25.5765    8.4903 O   0  0  0  0  0  0  0  0  0  0  0  0
   34.8003  -24.9765    7.1197 N   0  0  0  0  0  0  0  0  0  0  0  0
   35.1012  -23.5859    7.3288 C   0  0  1  0  0  0  0  0  0  0  0  0
   35.4102  -22.8644    6.0559 C   0  0  0  0  0  0  0  0  0  0  0  0
   34.2659  -22.9498    5.1421 C   0  0  0  0  0  0  0  0  0  0  0  0
   33.2611  -22.0123    5.1711 C   0  0  0  0  0  0  0  0  0  0  0  0
   32.1743  -22.0412    4.3121 C   0  0  0  0  0  0  0  0  0  0  0  0
   32.1181  -23.0759    3.3855 C   0  0  0  0  0  0  0  0  0  0  0  0
   33.1150  -24.0269    3.3388 C   0  0  0  0  0  0  0  0  0  0  0  0
   34.1843  -23.9598    4.2169 C   0  0  0  0  0  0  0  0  0  0  0  0
   34.0308  -22.9669    8.1212 C   0  0  0  0  0  0  0  0  0  0  0  0
   32.9282  -23.4967    8.3941 O   0  0  0  0  0  0  0  0  0  0  0  0
   34.2113  -21.6783    8.6359 O   0  0  0  0  0  0  0  0  0  0  0  0
  2  1  1  1
  2  3  1  0
  4  2  1  0
  4  5  2  0
  6  4  1  0
  7  6  1  0
  8 10  1  0
  8  7  1  0
  9  8  2  0
 11 12  1  6
 11 10  1  0
 12 13  1  0
 13 14  2  0
 13 18  1  0
 14 15  1  0
 15 16  2  0
 17 16  1  0
 18 17  2  0
 19 11  1  0
 20 19  2  0
 21 19  1  0
M  END
$$$$
