AGF.pdb
     RDKit          3D

 21 21  0  0  1  0  0  0  0  0999 V2000
   23.8213  -18.6593  -17.0362 C   0  0  0  0  0  0  0  0  0  0  0  0
   25.2484  -18.2000  -16.7691 C   0  0  2  0  0  0  0  0  0  0  0  0
   26.2110  -19.0564  -17.4037 N   0  0  0  0  0  0  0  0  0  0  0  0
   25.5316  -18.1240  -15.3162 C   0  0  0  0  0  0  0  0  0  0  0  0
   24.8060  -17.4130  -14.5849 O   0  0  0  0  0  0  0  0  0  0  0  0
   26.6046  -18.8430  -14.7645 N   0  0  0  0  0  0  0  0  0  0  0  0
   26.9866  -18.7750  -13.3705 C   0  0  0  0  0  0  0  0  0  0  0  0
   26.2303  -19.7854  -12.6171 C   0  0  0  0  0  0  0  0  0  0  0  0
   25.3611  -20.4736  -13.2552 O   0  0  0  0  0  0  0  0  0  0  0  0
   26.4321  -20.0150  -11.2308 N   0  0  0  0  0  0  0  0  0  0  0  0
   25.7121  -21.0887  -10.6008 C   0  0  1  0  0  0  0  0  0  0  0  0
   26.5582  -21.8691   -9.6461 C   0  0  0  0  0  0  0  0  0  0  0  0
   27.1489  -20.9687   -8.6500 C   0  0  0  0  0  0  0  0  0  0  0  0
   26.3674  -20.1054   -7.9196 C   0  0  0  0  0  0  0  0  0  0  0  0
   26.8796  -19.2545   -6.9535 C   0  0  0  0  0  0  0  0  0  0  0  0
   28.2509  -19.2924   -6.7291 C   0  0  0  0  0  0  0  0  0  0  0  0
   29.0534  -20.1505   -7.4502 C   0  0  0  0  0  0  0  0  0  0  0  0
   28.4993  -20.9847   -8.4072 C   0  0  0  0  0  0  0  0  0  0  0  0
   24.4724  -20.5672  -10.0110 C   0  0  0  0  0  0  0  0  0  0  0  0
   24.2267  -19.3594   -9.7837 O   0  0  0  0  0  0  0  0  0  0  0  0
   23.4508  -21.4555   -9.6568 O   0  0  0  0  0  0  0  0  0  0  0  0
  2  1  1  1
  2  3  1  0
  4  2  1  0
  4  5  2  0
  6  4  1  0
  7  6  1  0
  8 10  1  0
  8  7  1  0
  9  8  2  0
 11 12  1  1
 11 10  1  0
 12 13  1  0
 13 14  2  0
 13 18  1  0
 14 15  1  0
 15 16  2  0
 17 16  1  0
 18 17  2  0
 19 11  1  0
 20 19  2  0
 21 19  1  0
M  END
$$$$
