AGF.pdb
     RDKit          3D

 21 21  0  0  1  0  0  0  0  0999 V2000
   27.0181  -18.5748  -15.8687 C   0  0  0  0  0  0  0  0  0  0  0  0
   26.5585  -19.6752  -14.9219 C   0  0  2  0  0  0  0  0  0  0  0  0
   25.1282  -19.7050  -14.7944 N   0  0  0  0  0  0  0  0  0  0  0  0
   27.1745  -19.5310  -13.5815 C   0  0  0  0  0  0  0  0  0  0  0  0
   26.8940  -18.5327  -12.8804 O   0  0  0  0  0  0  0  0  0  0  0  0
   28.0650  -20.5055  -13.1019 N   0  0  0  0  0  0  0  0  0  0  0  0
   28.7370  -20.4218  -11.8231 C   0  0  0  0  0  0  0  0  0  0  0  0
   27.9324  -21.1235  -10.8128 C   0  0  0  0  0  0  0  0  0  0  0  0
   27.8462  -22.3965  -10.9024 O   0  0  0  0  0  0  0  0  0  0  0  0
   27.2621  -20.4436   -9.7622 N   0  0  0  0  0  0  0  0  0  0  0  0
   26.4427  -21.2092   -8.8619 C   0  0  1  0  0  0  0  0  0  0  0  0
   27.2338  -21.8562   -7.7701 C   0  0  0  0  0  0  0  0  0  0  0  0
   27.6778  -20.8433   -6.8064 C   0  0  0  0  0  0  0  0  0  0  0  0
   28.9402  -20.3036   -6.8727 C   0  0  0  0  0  0  0  0  0  0  0  0
   29.3933  -19.3291   -5.9981 C   0  0  0  0  0  0  0  0  0  0  0  0
   28.5129  -18.8917   -5.0152 C   0  0  0  0  0  0  0  0  0  0  0  0
   27.2422  -19.4193   -4.9305 C   0  0  0  0  0  0  0  0  0  0  0  0
   26.8301  -20.3925   -5.8260 C   0  0  0  0  0  0  0  0  0  0  0  0
   25.3326  -20.3764   -8.3816 C   0  0  0  0  0  0  0  0  0  0  0  0
   24.3438  -20.7870   -7.7300 O   0  0  0  0  0  0  0  0  0  0  0  0
   25.3351  -19.0029   -8.6499 O   0  0  0  0  0  0  0  0  0  0  0  0
  2  1  1  6
  2  3  1  0
  4  2  1  0
  4  5  2  0
  6  4  1  0
  7  6  1  0
  8 10  1  0
  8  7  1  0
  9  8  2  0
 11 12  1  1
 11 10  1  0
 12 13  1  0
 13 14  2  0
 13 18  1  0
 14 15  1  0
 15 16  2  0
 17 16  1  0
 18 17  2  0
 19 11  1  0
 20 19  2  0
 21 19  1  0
M  END
$$$$
