AGF.pdb
     RDKit          3D

 21 21  0  0  1  0  0  0  0  0999 V2000
   29.6087  -19.8541  -17.8194 C   0  0  0  0  0  0  0  0  0  0  0  0
   28.4705  -18.9423  -17.3814 C   0  0  2  0  0  0  0  0  0  0  0  0
   28.9340  -17.6143  -17.0907 N   0  0  0  0  0  0  0  0  0  0  0  0
   27.7587  -19.4899  -16.2022 C   0  0  0  0  0  0  0  0  0  0  0  0
   26.8282  -20.3097  -16.3722 O   0  0  0  0  0  0  0  0  0  0  0  0
   28.1247  -19.0930  -14.9057 N   0  0  0  0  0  0  0  0  0  0  0  0
   27.1782  -18.6682  -13.8969 C   0  0  0  0  0  0  0  0  0  0  0  0
   26.6472  -19.8538  -13.2094 C   0  0  0  0  0  0  0  0  0  0  0  0
   26.4237  -20.8978  -13.9138 O   0  0  0  0  0  0  0  0  0  0  0  0
   26.3806  -19.8736  -11.8151 N   0  0  0  0  0  0  0  0  0  0  0  0
   25.7310  -21.0287  -11.2568 C   0  0  1  0  0  0  0  0  0  0  0  0
   26.6187  -21.7998  -10.3327 C   0  0  0  0  0  0  0  0  0  0  0  0
   27.0462  -20.9445   -9.2202 C   0  0  0  0  0  0  0  0  0  0  0  0
   26.1425  -20.1754   -8.5265 C   0  0  0  0  0  0  0  0  0  0  0  0
   26.4981  -19.3712   -7.4557 C   0  0  0  0  0  0  0  0  0  0  0  0
   27.8372  -19.3570   -7.0828 C   0  0  0  0  0  0  0  0  0  0  0  0
   28.7604  -20.1206   -7.7646 C   0  0  0  0  0  0  0  0  0  0  0  0
   28.3613  -20.9108   -8.8299 C   0  0  0  0  0  0  0  0  0  0  0  0
   24.4502  -20.6295  -10.6594 C   0  0  0  0  0  0  0  0  0  0  0  0
   24.0735  -19.4498  -10.4668 O   0  0  0  0  0  0  0  0  0  0  0  0
   23.5413  -21.6140  -10.2558 O   0  0  0  0  0  0  0  0  0  0  0  0
  2  1  1  1
  2  3  1  0
  4  2  1  0
  4  5  2  0
  6  4  1  0
  7  6  1  0
  8 10  1  0
  8  7  1  0
  9  8  2  0
 11 12  1  1
 11 10  1  0
 12 13  1  0
 13 14  2  0
 13 18  1  0
 14 15  1  0
 15 16  2  0
 17 16  1  0
 18 17  2  0
 19 11  1  0
 20 19  2  0
 21 19  1  0
M  END
$$$$
