AGF.pdb
     RDKit          3D

 21 21  0  0  1  0  0  0  0  0999 V2000
   17.1413  -14.3126  -17.3167 C   0  0  0  0  0  0  0  0  0  0  0  0
   17.4313  -13.5495  -18.6022 C   0  0  2  0  0  0  0  0  0  0  0  0
   18.8341  -13.5392  -18.9103 N   0  0  0  0  0  0  0  0  0  0  0  0
   16.9269  -12.1574  -18.5331 C   0  0  0  0  0  0  0  0  0  0  0  0
   15.7113  -11.9543  -18.3145 O   0  0  0  0  0  0  0  0  0  0  0  0
   17.8048  -11.0756  -18.7115 N   0  0  0  0  0  0  0  0  0  0  0  0
   17.3772   -9.6947  -18.7762 C   0  0  0  0  0  0  0  0  0  0  0  0
   17.8309   -8.9959  -17.5653 C   0  0  0  0  0  0  0  0  0  0  0  0
   16.9400   -8.4576  -16.8219 O   0  0  0  0  0  0  0  0  0  0  0  0
   19.2007   -8.9030  -17.2042 N   0  0  0  0  0  0  0  0  0  0  0  0
   19.5505   -8.1599  -16.0238 C   0  0  1  0  0  0  0  0  0  0  0  0
   20.9360   -8.4558  -15.5449 C   0  0  0  0  0  0  0  0  0  0  0  0
   21.2698   -7.5866  -14.4114 C   0  0  0  0  0  0  0  0  0  0  0  0
   21.0690   -7.9989  -13.1156 C   0  0  0  0  0  0  0  0  0  0  0  0
   21.3906   -7.2205  -12.0154 C   0  0  0  0  0  0  0  0  0  0  0  0
   21.9411   -5.9671  -12.2571 C   0  0  0  0  0  0  0  0  0  0  0  0
   22.1512   -5.5335  -13.5486 C   0  0  0  0  0  0  0  0  0  0  0  0
   21.8148   -6.3447  -14.6199 C   0  0  0  0  0  0  0  0  0  0  0  0
   19.2886   -6.7324  -16.2481 C   0  0  0  0  0  0  0  0  0  0  0  0
   19.5681   -6.0965  -17.2913 O   0  0  0  0  0  0  0  0  0  0  0  0
   18.6771   -5.9773  -15.2411 O   0  0  0  0  0  0  0  0  0  0  0  0
  2  1  1  1
  2  3  1  0
  4  2  1  0
  4  5  2  0
  6  4  1  0
  7  6  1  0
  8 10  1  0
  8  7  1  0
  9  8  2  0
 11 12  1  6
 11 10  1  0
 12 13  1  0
 13 14  2  0
 13 18  1  0
 14 15  1  0
 15 16  2  0
 17 16  1  0
 18 17  2  0
 19 11  1  0
 20 19  2  0
 21 19  1  0
M  END
$$$$
