AGF.pdb
     RDKit          3D

 21 21  0  0  1  0  0  0  0  0999 V2000
   26.2299  -16.3078  -17.3474 C   0  0  0  0  0  0  0  0  0  0  0  0
   26.7046  -17.7384  -17.1309 C   0  0  2  0  0  0  0  0  0  0  0  0
   25.6252  -18.6797  -17.2394 N   0  0  0  0  0  0  0  0  0  0  0  0
   27.3722  -17.8964  -15.8170 C   0  0  0  0  0  0  0  0  0  0  0  0
   28.3552  -17.1741  -15.5363 O   0  0  0  0  0  0  0  0  0  0  0  0
   26.9064  -18.8480  -14.8949 N   0  0  0  0  0  0  0  0  0  0  0  0
   27.4474  -19.0094  -13.5626 C   0  0  0  0  0  0  0  0  0  0  0  0
   26.5598  -19.8891  -12.7889 C   0  0  0  0  0  0  0  0  0  0  0  0
   25.5035  -20.3221  -13.3659 O   0  0  0  0  0  0  0  0  0  0  0  0
   26.8349  -20.2646  -11.4477 N   0  0  0  0  0  0  0  0  0  0  0  0
   25.9784  -21.2318  -10.8162 C   0  0  1  0  0  0  0  0  0  0  0  0
   26.6756  -22.0074   -9.7443 C   0  0  0  0  0  0  0  0  0  0  0  0
   27.1730  -21.0944   -8.7094 C   0  0  0  0  0  0  0  0  0  0  0  0
   28.5082  -20.7801   -8.6204 C   0  0  0  0  0  0  0  0  0  0  0  0
   29.0183  -19.9059   -7.6742 C   0  0  0  0  0  0  0  0  0  0  0  0
   28.1193  -19.3313   -6.7831 C   0  0  0  0  0  0  0  0  0  0  0  0
   26.7760  -19.6324   -6.8544 C   0  0  0  0  0  0  0  0  0  0  0  0
   26.3086  -20.5123   -7.8168 C   0  0  0  0  0  0  0  0  0  0  0  0
   24.7430  -20.5749  -10.3703 C   0  0  0  0  0  0  0  0  0  0  0  0
   24.5928  -19.3413  -10.2076 O   0  0  0  0  0  0  0  0  0  0  0  0
   23.6120  -21.3503  -10.0915 O   0  0  0  0  0  0  0  0  0  0  0  0
  2  1  1  1
  2  3  1  0
  4  2  1  0
  4  5  2  0
  6  4  1  0
  7  6  1  0
  8 10  1  0
  8  7  1  0
  9  8  2  0
 11 12  1  1
 11 10  1  0
 12 13  1  0
 13 14  2  0
 13 18  1  0
 14 15  1  0
 15 16  2  0
 17 16  1  0
 18 17  2  0
 19 11  1  0
 20 19  2  0
 21 19  1  0
M  END
$$$$
