AGF.pdb
     RDKit          3D

 21 21  0  0  1  0  0  0  0  0999 V2000
   25.1243  -19.1668  -15.5370 C   0  0  0  0  0  0  0  0  0  0  0  0
   24.9514  -20.2241  -14.4548 C   0  0  2  0  0  0  0  0  0  0  0  0
   24.1712  -19.7351  -13.3525 N   0  0  0  0  0  0  0  0  0  0  0  0
   26.2598  -20.7138  -13.9596 C   0  0  0  0  0  0  0  0  0  0  0  0
   27.0295  -21.3115  -14.7451 O   0  0  0  0  0  0  0  0  0  0  0  0
   26.6330  -20.5091  -12.6211 N   0  0  0  0  0  0  0  0  0  0  0  0
   27.9277  -20.8670  -12.0831 C   0  0  0  0  0  0  0  0  0  0  0  0
   27.7432  -21.4812  -10.7606 C   0  0  0  0  0  0  0  0  0  0  0  0
   28.5969  -22.3585  -10.3895 O   0  0  0  0  0  0  0  0  0  0  0  0
   26.6675  -21.1364   -9.9008 N   0  0  0  0  0  0  0  0  0  0  0  0
   26.9379  -20.9612   -8.4993 C   0  0  1  0  0  0  0  0  0  0  0  0
   28.0248  -19.9671   -8.2410 C   0  0  0  0  0  0  0  0  0  0  0  0
   28.2266  -19.8105   -6.7965 C   0  0  0  0  0  0  0  0  0  0  0  0
   27.6847  -18.7477   -6.1137 C   0  0  0  0  0  0  0  0  0  0  0  0
   27.8307  -18.5727   -4.7471 C   0  0  0  0  0  0  0  0  0  0  0  0
   28.5637  -19.5291   -4.0539 C   0  0  0  0  0  0  0  0  0  0  0  0
   29.1159  -20.6031   -4.7186 C   0  0  0  0  0  0  0  0  0  0  0  0
   28.9451  -20.7393   -6.0865 C   0  0  0  0  0  0  0  0  0  0  0  0
   25.6842  -20.6725   -7.7910 C   0  0  0  0  0  0  0  0  0  0  0  0
   24.8018  -19.8682   -8.1720 O   0  0  0  0  0  0  0  0  0  0  0  0
   25.4076  -21.3263   -6.5850 O   0  0  0  0  0  0  0  0  0  0  0  0
  2  1  1  6
  2  3  1  0
  4  2  1  0
  4  5  2  0
  6  4  1  0
  7  6  1  0
  8 10  1  0
  8  7  1  0
  9  8  2  0
 11 12  1  6
 11 10  1  0
 12 13  1  0
 13 14  2  0
 13 18  1  0
 14 15  1  0
 15 16  2  0
 17 16  1  0
 18 17  2  0
 19 11  1  0
 20 19  2  0
 21 19  1  0
M  END
$$$$
