AGF.pdb
     RDKit          3D

 21 21  0  0  1  0  0  0  0  0999 V2000
   27.7496  -16.1349  -16.1133 C   0  0  0  0  0  0  0  0  0  0  0  0
   26.7867  -17.1641  -15.5368 C   0  0  2  0  0  0  0  0  0  0  0  0
   26.1511  -16.6872  -14.3404 N   0  0  0  0  0  0  0  0  0  0  0  0
   27.4688  -18.4504  -15.2590 C   0  0  0  0  0  0  0  0  0  0  0  0
   27.8674  -19.1537  -16.2146 O   0  0  0  0  0  0  0  0  0  0  0  0
   27.6662  -18.8767  -13.9353 N   0  0  0  0  0  0  0  0  0  0  0  0
   28.2838  -20.1360  -13.5793 C   0  0  0  0  0  0  0  0  0  0  0  0
   27.4188  -20.8393  -12.6214 C   0  0  0  0  0  0  0  0  0  0  0  0
   27.6360  -22.0852  -12.4296 O   0  0  0  0  0  0  0  0  0  0  0  0
   26.3709  -20.1897  -11.9175 N   0  0  0  0  0  0  0  0  0  0  0  0
   25.5243  -20.9795  -11.0645 C   0  0  1  0  0  0  0  0  0  0  0  0
   25.2864  -20.3388   -9.7343 C   0  0  0  0  0  0  0  0  0  0  0  0
   26.5495  -20.2365   -8.9954 C   0  0  0  0  0  0  0  0  0  0  0  0
   26.7242  -19.2911   -8.0130 C   0  0  0  0  0  0  0  0  0  0  0  0
   27.8910  -19.1734   -7.2751 C   0  0  0  0  0  0  0  0  0  0  0  0
   28.9202  -20.0638   -7.5586 C   0  0  0  0  0  0  0  0  0  0  0  0
   28.7666  -21.0198   -8.5397 C   0  0  0  0  0  0  0  0  0  0  0  0
   27.5824  -21.1022   -9.2537 C   0  0  0  0  0  0  0  0  0  0  0  0
   24.2946  -21.3320  -11.7858 C   0  0  0  0  0  0  0  0  0  0  0  0
   24.0032  -20.9670  -12.9489 O   0  0  0  0  0  0  0  0  0  0  0  0
   23.3381  -22.1415  -11.1629 O   0  0  0  0  0  0  0  0  0  0  0  0
  2  1  1  1
  2  3  1  0
  4  2  1  0
  4  5  2  0
  6  4  1  0
  7  6  1  0
  8 10  1  0
  8  7  1  0
  9  8  2  0
 11 12  1  1
 11 10  1  0
 12 13  1  0
 13 14  2  0
 13 18  1  0
 14 15  1  0
 15 16  2  0
 17 16  1  0
 18 17  2  0
 19 11  1  0
 20 19  2  0
 21 19  1  0
M  END
$$$$
