AGF.pdb
     RDKit          3D

 21 21  0  0  1  0  0  0  0  0999 V2000
   28.2293  -18.0675  -17.6407 C   0  0  0  0  0  0  0  0  0  0  0  0
   28.2560  -19.2421  -16.6720 C   0  0  2  0  0  0  0  0  0  0  0  0
   27.2232  -20.1965  -16.9639 N   0  0  0  0  0  0  0  0  0  0  0  0
   28.1323  -18.7896  -15.2660 C   0  0  0  0  0  0  0  0  0  0  0  0
   29.0451  -18.0986  -14.7601 O   0  0  0  0  0  0  0  0  0  0  0  0
   27.0011  -19.1330  -14.5076 N   0  0  0  0  0  0  0  0  0  0  0  0
   26.7924  -18.7133  -13.1386 C   0  0  0  0  0  0  0  0  0  0  0  0
   26.1230  -19.7955  -12.4029 C   0  0  0  0  0  0  0  0  0  0  0  0
   25.9355  -20.9022  -13.0161 O   0  0  0  0  0  0  0  0  0  0  0  0
   25.6877  -19.6512  -11.0594 N   0  0  0  0  0  0  0  0  0  0  0  0
   25.0581  -20.7736  -10.4175 C   0  0  1  0  0  0  0  0  0  0  0  0
   25.0611  -20.6619   -8.9262 C   0  0  0  0  0  0  0  0  0  0  0  0
   26.4206  -20.3885   -8.4478 C   0  0  0  0  0  0  0  0  0  0  0  0
   27.4862  -21.1541   -8.8575 C   0  0  0  0  0  0  0  0  0  0  0  0
   28.7890  -20.9178   -8.4493 C   0  0  0  0  0  0  0  0  0  0  0  0
   29.0053  -19.8511   -7.5846 C   0  0  0  0  0  0  0  0  0  0  0  0
   27.9513  -19.0702   -7.1611 C   0  0  0  0  0  0  0  0  0  0  0  0
   26.6639  -19.3420   -7.5943 C   0  0  0  0  0  0  0  0  0  0  0  0
   23.7258  -20.9855  -10.9976 C   0  0  0  0  0  0  0  0  0  0  0  0
   22.9568  -21.9372  -10.7257 O   0  0  0  0  0  0  0  0  0  0  0  0
   23.2302  -20.0747  -11.9373 O   0  0  0  0  0  0  0  0  0  0  0  0
  2  1  1  6
  2  3  1  0
  4  2  1  0
  4  5  2  0
  6  4  1  0
  7  6  1  0
  8 10  1  0
  8  7  1  0
  9  8  2  0
 11 12  1  1
 11 10  1  0
 12 13  1  0
 13 14  2  0
 13 18  1  0
 14 15  1  0
 15 16  2  0
 17 16  1  0
 18 17  2  0
 19 11  1  0
 20 19  2  0
 21 19  1  0
M  END
$$$$
