AGF.pdb
     RDKit          3D

 21 21  0  0  1  0  0  0  0  0999 V2000
   19.7205  -11.9551  -18.0497 C   0  0  0  0  0  0  0  0  0  0  0  0
   20.4891  -10.8356  -17.3607 C   0  0  2  0  0  0  0  0  0  0  0  0
   20.7725  -11.1505  -15.9884 N   0  0  0  0  0  0  0  0  0  0  0  0
   19.7575   -9.5486  -17.4349 C   0  0  0  0  0  0  0  0  0  0  0  0
   19.6150   -8.9857  -18.5438 O   0  0  0  0  0  0  0  0  0  0  0  0
   19.2288   -8.9656  -16.2717 N   0  0  0  0  0  0  0  0  0  0  0  0
   18.5302   -7.6985  -16.2527 C   0  0  0  0  0  0  0  0  0  0  0  0
   19.1358   -6.8333  -15.2304 C   0  0  0  0  0  0  0  0  0  0  0  0
   18.6538   -6.8866  -14.0467 O   0  0  0  0  0  0  0  0  0  0  0  0
   20.2176   -5.9584  -15.5124 N   0  0  0  0  0  0  0  0  0  0  0  0
   20.7587   -5.1679  -14.4399 C   0  0  1  0  0  0  0  0  0  0  0  0
   22.1628   -5.5486  -14.0937 C   0  0  0  0  0  0  0  0  0  0  0  0
   22.2438   -6.9929  -13.8502 C   0  0  0  0  0  0  0  0  0  0  0  0
   22.7766   -7.8437  -14.7893 C   0  0  0  0  0  0  0  0  0  0  0  0
   22.8935   -9.2102  -14.5925 C   0  0  0  0  0  0  0  0  0  0  0  0
   22.4444   -9.7231  -13.3810 C   0  0  0  0  0  0  0  0  0  0  0  0
   21.9067   -8.8881  -12.4251 C   0  0  0  0  0  0  0  0  0  0  0  0
   21.8087   -7.5271  -12.6636 C   0  0  0  0  0  0  0  0  0  0  0  0
   20.5850   -3.7422  -14.7465 C   0  0  0  0  0  0  0  0  0  0  0  0
   20.1329   -3.2785  -15.8196 O   0  0  0  0  0  0  0  0  0  0  0  0
   20.9403   -2.7835  -13.7911 O   0  0  0  0  0  0  0  0  0  0  0  0
  2  1  1  1
  2  3  1  0
  4  2  1  0
  4  5  2  0
  6  4  1  0
  7  6  1  0
  8 10  1  0
  8  7  1  0
  9  8  2  0
 11 12  1  6
 11 10  1  0
 12 13  1  0
 13 14  2  0
 13 18  1  0
 14 15  1  0
 15 16  2  0
 17 16  1  0
 18 17  2  0
 19 11  1  0
 20 19  2  0
 21 19  1  0
M  END
$$$$
