PAP.pdb
     RDKit          3D

 20 21  0  0  1  0  0  0  0  0999 V2000
    7.3273  -14.8879   18.9737 N   0  0  0  0  0  0  0  0  0  0  0  0
    8.1905  -14.3325   17.9199 C   0  0  0  0  0  0  0  0  0  0  0  0
    8.3099  -12.8929   18.3979 C   0  0  0  0  0  0  0  0  0  0  0  0
    8.4127  -13.0875   19.8981 C   0  0  0  0  0  0  0  0  0  0  0  0
    8.1177  -14.5580   20.1507 C   0  0  1  0  0  0  0  0  0  0  0  0
    7.3601  -14.7619   21.3999 C   0  0  0  0  0  0  0  0  0  0  0  0
    6.1525  -14.4863   21.4235 O   0  0  0  0  0  0  0  0  0  0  0  0
    6.8578  -16.6594   24.1571 C   0  0  0  0  0  0  0  0  0  0  0  0
    7.2876  -15.2395   23.8285 C   0  0  2  0  0  0  0  0  0  0  0  0
    8.0019  -15.2695   22.5706 N   0  0  0  0  0  0  0  0  0  0  0  0
    8.1834  -14.6957   24.8696 C   0  0  0  0  0  0  0  0  0  0  0  0
    9.4307  -14.7375   24.6622 O   0  0  0  0  0  0  0  0  0  0  0  0
    7.7128  -14.1340   26.0793 N   0  0  0  0  0  0  0  0  0  0  0  0
    6.3455  -14.1905   26.5384 C   0  0  0  0  0  0  0  0  0  0  0  0
    6.1241  -12.7265   26.9421 C   0  0  0  0  0  0  0  0  0  0  0  0
    7.4128  -12.4521   27.6952 C   0  0  0  0  0  0  0  0  0  0  0  0
    8.4464  -13.4127   27.0916 C   0  0  1  0  0  0  0  0  0  0  0  0
    8.9017  -14.3697   28.1601 C   0  0  0  0  0  0  0  0  0  0  0  0
    8.3896  -15.5161   28.2270 O   0  0  0  0  0  0  0  0  0  0  0  0
    9.8725  -14.0405   29.0857 O   0  0  0  0  0  0  0  0  0  0  0  0
  1  2  1  0
  3  2  1  0
  4  5  1  0
  4  3  1  0
  5  1  1  0
  5  6  1  1
  7  6  2  0
  9  8  1  1
  9 11  1  0
  9 10  1  0
 10  6  1  0
 11 13  1  0
 12 11  2  0
 13 14  1  0
 13 17  1  0
 14 15  1  0
 15 16  1  0
 17 18  1  1
 17 16  1  0
 18 20  1  0
 19 18  2  0
M  END
$$$$
