PAP.pdb
     RDKit          3D

 20 21  0  0  1  0  0  0  0  0999 V2000
    7.2352  -14.9372   19.6495 N   0  0  0  0  0  0  0  0  0  0  0  0
    7.8747  -14.3553   18.4593 C   0  0  0  0  0  0  0  0  0  0  0  0
    7.9219  -12.8899   18.8660 C   0  0  0  0  0  0  0  0  0  0  0  0
    8.2638  -13.0030   20.3389 C   0  0  0  0  0  0  0  0  0  0  0  0
    8.1547  -14.4808   20.6816 C   0  0  1  0  0  0  0  0  0  0  0  0
    7.6137  -14.6942   22.0373 C   0  0  0  0  0  0  0  0  0  0  0  0
    6.4936  -14.2441   22.3162 O   0  0  0  0  0  0  0  0  0  0  0  0
    7.0142  -16.5694   24.6296 C   0  0  0  0  0  0  0  0  0  0  0  0
    7.9227  -15.3737   24.3983 C   0  0  2  0  0  0  0  0  0  0  0  0
    8.3638  -15.4085   23.0207 N   0  0  0  0  0  0  0  0  0  0  0  0
    9.1088  -15.4231   25.2773 C   0  0  0  0  0  0  0  0  0  0  0  0
   10.1868  -15.8790   24.7968 O   0  0  0  0  0  0  0  0  0  0  0  0
    9.0940  -14.9865   26.6225 N   0  0  0  0  0  0  0  0  0  0  0  0
    7.9192  -14.5398   27.3322 C   0  0  0  0  0  0  0  0  0  0  0  0
    8.4506  -13.2495   27.9710 C   0  0  0  0  0  0  0  0  0  0  0  0
    9.7956  -13.7313   28.4832 C   0  0  0  0  0  0  0  0  0  0  0  0
   10.1885  -14.8915   27.5586 C   0  0  1  0  0  0  0  0  0  0  0  0
   10.2654  -16.1555   28.3717 C   0  0  0  0  0  0  0  0  0  0  0  0
    9.2900  -16.9489   28.3811 O   0  0  0  0  0  0  0  0  0  0  0  0
   11.3771  -16.4891   29.1204 O   0  0  0  0  0  0  0  0  0  0  0  0
  1  2  1  0
  3  2  1  0
  4  5  1  0
  4  3  1  0
  5  1  1  0
  5  6  1  1
  7  6  2  0
  9  8  1  1
  9 11  1  0
  9 10  1  0
 10  6  1  0
 11 13  1  0
 12 11  2  0
 13 14  1  0
 13 17  1  0
 14 15  1  0
 15 16  1  0
 17 18  1  1
 17 16  1  0
 18 20  1  0
 19 18  2  0
M  END
$$$$
