PAP.pdb
     RDKit          3D

 20 21  0  0  1  0  0  0  0  0999 V2000
    9.8955  -16.4480   20.2417 N   0  0  0  0  0  0  0  0  0  0  0  0
   10.5619  -17.3779   19.3170 C   0  0  0  0  0  0  0  0  0  0  0  0
   11.8514  -17.6419   20.0804 C   0  0  0  0  0  0  0  0  0  0  0  0
   11.3421  -17.7048   21.5073 C   0  0  0  0  0  0  0  0  0  0  0  0
    9.8905  -17.2538   21.4539 C   0  0  1  0  0  0  0  0  0  0  0  0
    9.5146  -16.4634   22.6414 C   0  0  0  0  0  0  0  0  0  0  0  0
    9.8841  -15.2835   22.7208 O   0  0  0  0  0  0  0  0  0  0  0  0
    7.1476  -16.7986   25.4715 C   0  0  0  0  0  0  0  0  0  0  0  0
    8.4148  -16.2377   24.8484 C   0  0  2  0  0  0  0  0  0  0  0  0
    8.7358  -17.0422   23.6894 N   0  0  0  0  0  0  0  0  0  0  0  0
    9.5483  -16.2948   25.7938 C   0  0  0  0  0  0  0  0  0  0  0  0
   10.5046  -17.0798   25.5294 O   0  0  0  0  0  0  0  0  0  0  0  0
    9.6124  -15.5165   26.9731 N   0  0  0  0  0  0  0  0  0  0  0  0
    8.5557  -14.6593   27.4546 C   0  0  0  0  0  0  0  0  0  0  0  0
    9.3500  -13.3845   27.7699 C   0  0  0  0  0  0  0  0  0  0  0  0
   10.5490  -13.9788   28.4858 C   0  0  0  0  0  0  0  0  0  0  0  0
   10.6887  -15.4018   27.9279 C   0  0  1  0  0  0  0  0  0  0  0  0
   10.4746  -16.3850   29.0470 C   0  0  0  0  0  0  0  0  0  0  0  0
   11.3845  -16.5693   29.8950 O   0  0  0  0  0  0  0  0  0  0  0  0
    9.3048  -17.1059   29.1871 O   0  0  0  0  0  0  0  0  0  0  0  0
  1  2  1  0
  3  2  1  0
  4  5  1  0
  4  3  1  0
  5  1  1  0
  5  6  1  1
  7  6  2  0
  9  8  1  1
  9 11  1  0
  9 10  1  0
 10  6  1  0
 11 13  1  0
 12 11  2  0
 13 14  1  0
 13 17  1  0
 14 15  1  0
 15 16  1  0
 17 18  1  1
 17 16  1  0
 18 20  1  0
 19 18  2  0
M  END
$$$$
