PAP.pdb
     RDKit          3D

 20 21  0  0  1  0  0  0  0  0999 V2000
    8.5127  -15.2611   19.7322 N   0  0  0  0  0  0  0  0  0  0  0  0
    8.8513  -14.8961   18.3479 C   0  0  0  0  0  0  0  0  0  0  0  0
    7.7626  -13.8719   18.0635 C   0  0  0  0  0  0  0  0  0  0  0  0
    7.6860  -13.1456   19.3923 C   0  0  0  0  0  0  0  0  0  0  0  0
    8.5458  -13.9471   20.3576 C   0  0  1  0  0  0  0  0  0  0  0  0
    7.9751  -13.9679   21.7177 C   0  0  0  0  0  0  0  0  0  0  0  0
    7.8745  -12.9041   22.3447 O   0  0  0  0  0  0  0  0  0  0  0  0
    6.5689  -16.5802   24.0098 C   0  0  0  0  0  0  0  0  0  0  0  0
    6.9789  -15.1637   23.6436 C   0  0  2  0  0  0  0  0  0  0  0  0
    7.5422  -15.1928   22.3112 N   0  0  0  0  0  0  0  0  0  0  0  0
    7.9973  -14.6416   24.5776 C   0  0  0  0  0  0  0  0  0  0  0  0
    9.2162  -14.7917   24.2733 O   0  0  0  0  0  0  0  0  0  0  0  0
    7.6735  -13.9858   25.7881 N   0  0  0  0  0  0  0  0  0  0  0  0
    6.3336  -13.7902   26.2879 C   0  0  0  0  0  0  0  0  0  0  0  0
    6.3891  -12.3039   26.6663 C   0  0  0  0  0  0  0  0  0  0  0  0
    7.7299  -12.2518   27.3756 C   0  0  0  0  0  0  0  0  0  0  0  0
    8.5562  -13.3908   26.7629 C   0  0  1  0  0  0  0  0  0  0  0  0
    8.8686  -14.3965   27.8380 C   0  0  0  0  0  0  0  0  0  0  0  0
    8.1685  -15.4360   27.9391 O   0  0  0  0  0  0  0  0  0  0  0  0
    9.9064  -14.2265   28.7334 O   0  0  0  0  0  0  0  0  0  0  0  0
  1  2  1  0
  3  2  1  0
  4  5  1  0
  4  3  1  0
  5  1  1  0
  5  6  1  1
  7  6  2  0
  9  8  1  1
  9 11  1  0
  9 10  1  0
 10  6  1  0
 11 13  1  0
 12 11  2  0
 13 14  1  0
 13 17  1  0
 14 15  1  0
 15 16  1  0
 17 18  1  1
 17 16  1  0
 18 20  1  0
 19 18  2  0
M  END
$$$$
