PAP.pdb
     RDKit          3D

 20 21  0  0  1  0  0  0  0  0999 V2000
    9.3931  -15.7729   20.4026 N   0  0  0  0  0  0  0  0  0  0  0  0
    9.2798  -16.8889   19.4508 C   0  0  0  0  0  0  0  0  0  0  0  0
    9.8428  -18.0231   20.2944 C   0  0  0  0  0  0  0  0  0  0  0  0
    9.2652  -17.6925   21.6569 C   0  0  0  0  0  0  0  0  0  0  0  0
    8.6357  -16.3145   21.5215 C   0  0  1  0  0  0  0  0  0  0  0  0
    8.8050  -15.5082   22.7452 C   0  0  0  0  0  0  0  0  0  0  0  0
    9.8823  -14.9281   22.9396 O   0  0  0  0  0  0  0  0  0  0  0  0
    6.6661  -14.4877   25.6395 C   0  0  0  0  0  0  0  0  0  0  0  0
    7.9996  -14.7005   24.9430 C   0  0  2  0  0  0  0  0  0  0  0  0
    7.7470  -15.3926   23.6977 N   0  0  0  0  0  0  0  0  0  0  0  0
    8.9096  -15.5227   25.7662 C   0  0  0  0  0  0  0  0  0  0  0  0
    9.2505  -16.6577   25.3231 O   0  0  0  0  0  0  0  0  0  0  0  0
    9.4138  -15.1013   27.0186 N   0  0  0  0  0  0  0  0  0  0  0  0
    8.8820  -14.0081   27.7967 C   0  0  0  0  0  0  0  0  0  0  0  0
   10.1751  -13.2634   28.1552 C   0  0  0  0  0  0  0  0  0  0  0  0
   11.0599  -14.4289   28.5576 C   0  0  0  0  0  0  0  0  0  0  0  0
   10.5176  -15.6357   27.7797 C   0  0  1  0  0  0  0  0  0  0  0  0
   10.0046  -16.6549   28.7610 C   0  0  0  0  0  0  0  0  0  0  0  0
    8.7662  -16.7750   28.9422 O   0  0  0  0  0  0  0  0  0  0  0  0
   10.8464  -17.4780   29.4833 O   0  0  0  0  0  0  0  0  0  0  0  0
  1  2  1  0
  3  2  1  0
  4  5  1  0
  4  3  1  0
  5  1  1  0
  5  6  1  1
  7  6  2  0
  9  8  1  1
  9 11  1  0
  9 10  1  0
 10  6  1  0
 11 13  1  0
 12 11  2  0
 13 14  1  0
 13 17  1  0
 14 15  1  0
 15 16  1  0
 17 18  1  1
 17 16  1  0
 18 20  1  0
 19 18  2  0
M  END
$$$$
