PAP.pdb
     RDKit          3D

 20 21  0  0  1  0  0  0  0  0999 V2000
    7.4857  -15.0051   18.9429 N   0  0  0  0  0  0  0  0  0  0  0  0
    8.2797  -14.3995   17.8627 C   0  0  0  0  0  0  0  0  0  0  0  0
    8.2351  -12.9371   18.2805 C   0  0  0  0  0  0  0  0  0  0  0  0
    8.3600  -13.0564   19.7869 C   0  0  0  0  0  0  0  0  0  0  0  0
    8.2341  -14.5392   20.1012 C   0  0  1  0  0  0  0  0  0  0  0  0
    7.5052  -14.7759   21.3617 C   0  0  0  0  0  0  0  0  0  0  0  0
    6.2876  -14.5508   21.4044 O   0  0  0  0  0  0  0  0  0  0  0  0
    7.1432  -16.7129   24.1193 C   0  0  0  0  0  0  0  0  0  0  0  0
    7.4863  -15.2703   23.7879 C   0  0  2  0  0  0  0  0  0  0  0  0
    8.1856  -15.2577   22.5214 N   0  0  0  0  0  0  0  0  0  0  0  0
    8.3619  -14.6767   24.8190 C   0  0  0  0  0  0  0  0  0  0  0  0
    9.6138  -14.7601   24.6561 O   0  0  0  0  0  0  0  0  0  0  0  0
    7.8673  -14.0236   25.9719 N   0  0  0  0  0  0  0  0  0  0  0  0
    6.4729  -13.9291   26.3325 C   0  0  0  0  0  0  0  0  0  0  0  0
    6.3706  -12.4354   26.6696 C   0  0  0  0  0  0  0  0  0  0  0  0
    7.6253  -12.2564   27.5044 C   0  0  0  0  0  0  0  0  0  0  0  0
    8.5976  -13.3361   27.0098 C   0  0  1  0  0  0  0  0  0  0  0  0
    8.8811  -14.2885   28.1400 C   0  0  0  0  0  0  0  0  0  0  0  0
    8.2351  -15.3639   28.2235 O   0  0  0  0  0  0  0  0  0  0  0  0
    9.8345  -14.0305   29.1056 O   0  0  0  0  0  0  0  0  0  0  0  0
  1  2  1  0
  3  2  1  0
  4  5  1  0
  4  3  1  0
  5  1  1  0
  5  6  1  1
  7  6  2  0
  9  8  1  1
  9 11  1  0
  9 10  1  0
 10  6  1  0
 11 13  1  0
 12 11  2  0
 13 14  1  0
 13 17  1  0
 14 15  1  0
 15 16  1  0
 17 18  1  1
 17 16  1  0
 18 20  1  0
 19 18  2  0
M  END
$$$$
