PAP.pdb
     RDKit          3D

 20 21  0  0  1  0  0  0  0  0999 V2000
    8.5755  -15.1582   19.7137 N   0  0  0  0  0  0  0  0  0  0  0  0
    8.9686  -14.7884   18.3452 C   0  0  0  0  0  0  0  0  0  0  0  0
    7.8929  -13.7619   18.0221 C   0  0  0  0  0  0  0  0  0  0  0  0
    7.7649  -13.0405   19.3497 C   0  0  0  0  0  0  0  0  0  0  0  0
    8.5853  -13.8466   20.3449 C   0  0  1  0  0  0  0  0  0  0  0  0
    7.9616  -13.8719   21.6815 C   0  0  0  0  0  0  0  0  0  0  0  0
    7.8823  -12.8186   22.3289 O   0  0  0  0  0  0  0  0  0  0  0  0
    6.3564  -16.4691   23.8571 C   0  0  0  0  0  0  0  0  0  0  0  0
    6.8461  -15.0657   23.5422 C   0  0  2  0  0  0  0  0  0  0  0  0
    7.4535  -15.0893   22.2292 N   0  0  0  0  0  0  0  0  0  0  0  0
    7.8548  -14.6167   24.5233 C   0  0  0  0  0  0  0  0  0  0  0  0
    9.0766  -14.7337   24.2162 O   0  0  0  0  0  0  0  0  0  0  0  0
    7.5189  -14.0654   25.7818 N   0  0  0  0  0  0  0  0  0  0  0  0
    6.1735  -13.9016   26.2783 C   0  0  0  0  0  0  0  0  0  0  0  0
    6.2355  -12.4544   26.7851 C   0  0  0  0  0  0  0  0  0  0  0  0
    7.5662  -12.4764   27.5145 C   0  0  0  0  0  0  0  0  0  0  0  0
    8.3921  -13.5655   26.8165 C   0  0  1  0  0  0  0  0  0  0  0  0
    8.6809  -14.6635   27.8043 C   0  0  0  0  0  0  0  0  0  0  0  0
    7.9798  -15.7072   27.7961 O   0  0  0  0  0  0  0  0  0  0  0  0
    9.6978  -14.5753   28.7349 O   0  0  0  0  0  0  0  0  0  0  0  0
  1  2  1  0
  3  2  1  0
  4  5  1  0
  4  3  1  0
  5  1  1  0
  5  6  1  1
  7  6  2  0
  9  8  1  1
  9 11  1  0
  9 10  1  0
 10  6  1  0
 11 13  1  0
 12 11  2  0
 13 14  1  0
 13 17  1  0
 14 15  1  0
 15 16  1  0
 17 18  1  1
 17 16  1  0
 18 20  1  0
 19 18  2  0
M  END
$$$$
