PAP.pdb
     RDKit          3D

 20 21  0  0  1  0  0  0  0  0999 V2000
    7.5482  -15.0957   18.7880 N   0  0  0  0  0  0  0  0  0  0  0  0
    8.3222  -14.4645   17.7079 C   0  0  0  0  0  0  0  0  0  0  0  0
    8.2067  -13.0018   18.1106 C   0  0  0  0  0  0  0  0  0  0  0  0
    8.3248  -13.1006   19.6191 C   0  0  0  0  0  0  0  0  0  0  0  0
    8.2649  -14.5845   19.9473 C   0  0  1  0  0  0  0  0  0  0  0  0
    7.5375  -14.8424   21.2045 C   0  0  0  0  0  0  0  0  0  0  0  0
    6.2996  -14.8877   21.1853 O   0  0  0  0  0  0  0  0  0  0  0  0
    7.1784  -16.5507   23.9600 C   0  0  0  0  0  0  0  0  0  0  0  0
    7.4931  -15.0932   23.6675 C   0  0  2  0  0  0  0  0  0  0  0  0
    8.2426  -15.0381   22.4311 N   0  0  0  0  0  0  0  0  0  0  0  0
    8.3087  -14.4941   24.7435 C   0  0  0  0  0  0  0  0  0  0  0  0
    9.5680  -14.5327   24.6271 O   0  0  0  0  0  0  0  0  0  0  0  0
    7.7494  -13.8833   25.8900 N   0  0  0  0  0  0  0  0  0  0  0  0
    6.3376  -13.8140   26.1823 C   0  0  0  0  0  0  0  0  0  0  0  0
    6.2016  -12.3330   26.5609 C   0  0  0  0  0  0  0  0  0  0  0  0
    7.4106  -12.1688   27.4634 C   0  0  0  0  0  0  0  0  0  0  0  0
    8.4187  -13.2224   26.9848 C   0  0  1  0  0  0  0  0  0  0  0  0
    8.6558  -14.2079   28.0972 C   0  0  0  0  0  0  0  0  0  0  0  0
    7.9962  -15.2778   28.1309 O   0  0  0  0  0  0  0  0  0  0  0  0
    9.5803  -13.9867   29.0992 O   0  0  0  0  0  0  0  0  0  0  0  0
  1  2  1  0
  3  2  1  0
  4  5  1  0
  4  3  1  0
  5  1  1  0
  5  6  1  1
  7  6  2  0
  9  8  1  1
  9 11  1  0
  9 10  1  0
 10  6  1  0
 11 13  1  0
 12 11  2  0
 13 14  1  0
 13 17  1  0
 14 15  1  0
 15 16  1  0
 17 18  1  1
 17 16  1  0
 18 20  1  0
 19 18  2  0
M  END
$$$$
