PAP.pdb
     RDKit          3D

 20 21  0  0  1  0  0  0  0  0999 V2000
    9.8305  -16.2342   20.1967 N   0  0  0  0  0  0  0  0  0  0  0  0
   10.4018  -17.2093   19.2549 C   0  0  0  0  0  0  0  0  0  0  0  0
   11.6158  -17.6720   20.0470 C   0  0  0  0  0  0  0  0  0  0  0  0
   11.0502  -17.7202   21.4530 C   0  0  0  0  0  0  0  0  0  0  0  0
    9.6741  -17.0774   21.3729 C   0  0  1  0  0  0  0  0  0  0  0  0
    9.3624  -16.2893   22.5803 C   0  0  0  0  0  0  0  0  0  0  0  0
    9.8692  -15.1668   22.7140 O   0  0  0  0  0  0  0  0  0  0  0  0
    6.9365  -16.4944   25.3886 C   0  0  0  0  0  0  0  0  0  0  0  0
    8.2355  -16.0095   24.7674 C   0  0  2  0  0  0  0  0  0  0  0  0
    8.4895  -16.8055   23.5862 N   0  0  0  0  0  0  0  0  0  0  0  0
    9.3693  -16.1705   25.7005 C   0  0  0  0  0  0  0  0  0  0  0  0
   10.2737  -17.0025   25.3996 O   0  0  0  0  0  0  0  0  0  0  0  0
    9.4888  -15.4413   26.9064 N   0  0  0  0  0  0  0  0  0  0  0  0
    8.4867  -14.5451   27.4316 C   0  0  0  0  0  0  0  0  0  0  0  0
    9.3541  -13.3289   27.7835 C   0  0  0  0  0  0  0  0  0  0  0  0
   10.5251  -14.0151   28.4627 C   0  0  0  0  0  0  0  0  0  0  0  0
   10.5793  -15.4220   27.8517 C   0  0  1  0  0  0  0  0  0  0  0  0
   10.3218  -16.4326   28.9367 C   0  0  0  0  0  0  0  0  0  0  0  0
    9.1919  -16.9772   29.0235 O   0  0  0  0  0  0  0  0  0  0  0  0
   11.2863  -16.7949   29.8566 O   0  0  0  0  0  0  0  0  0  0  0  0
  1  2  1  0
  3  2  1  0
  4  5  1  0
  4  3  1  0
  5  1  1  0
  5  6  1  1
  7  6  2  0
  9  8  1  1
  9 11  1  0
  9 10  1  0
 10  6  1  0
 11 13  1  0
 12 11  2  0
 13 14  1  0
 13 17  1  0
 14 15  1  0
 15 16  1  0
 17 18  1  1
 17 16  1  0
 18 20  1  0
 19 18  2  0
M  END
$$$$
