PAP.pdb
     RDKit          3D

 20 21  0  0  1  0  0  0  0  0999 V2000
    8.5286  -15.3995   14.7336 N   0  0  0  0  0  0  0  0  0  0  0  0
    9.1471  -16.3315   13.7781 C   0  0  0  0  0  0  0  0  0  0  0  0
   10.3363  -16.8104   14.5976 C   0  0  0  0  0  0  0  0  0  0  0  0
    9.7190  -16.9186   15.9783 C   0  0  0  0  0  0  0  0  0  0  0  0
    8.3388  -16.2887   15.8703 C   0  0  1  0  0  0  0  0  0  0  0  0
    7.9721  -15.5508   17.0939 C   0  0  0  0  0  0  0  0  0  0  0  0
    8.3697  -14.3862   17.2365 O   0  0  0  0  0  0  0  0  0  0  0  0
    5.6271  -16.0631   19.9399 C   0  0  0  0  0  0  0  0  0  0  0  0
    6.8232  -15.3960   19.2820 C   0  0  2  0  0  0  0  0  0  0  0  0
    7.1701  -16.1628   18.1051 N   0  0  0  0  0  0  0  0  0  0  0  0
    7.9882  -15.3676   20.1898 C   0  0  0  0  0  0  0  0  0  0  0  0
    8.9974  -16.0668   19.8844 O   0  0  0  0  0  0  0  0  0  0  0  0
    8.0261  -14.5991   21.3765 N   0  0  0  0  0  0  0  0  0  0  0  0
    6.9731  -13.7190   21.8237 C   0  0  0  0  0  0  0  0  0  0  0  0
    7.7857  -12.4665   22.1788 C   0  0  0  0  0  0  0  0  0  0  0  0
    8.9413  -13.0953   22.9356 C   0  0  0  0  0  0  0  0  0  0  0  0
    9.0673  -14.5175   22.3727 C   0  0  1  0  0  0  0  0  0  0  0  0
    8.7862  -15.5025   23.4752 C   0  0  0  0  0  0  0  0  0  0  0  0
    7.6347  -15.9941   23.5910 O   0  0  0  0  0  0  0  0  0  0  0  0
    9.7516  -15.8975   24.3806 O   0  0  0  0  0  0  0  0  0  0  0  0
  1  2  1  0
  3  2  1  0
  4  5  1  0
  4  3  1  0
  5  1  1  0
  5  6  1  1
  7  6  2  0
  9  8  1  1
  9 11  1  0
  9 10  1  0
 10  6  1  0
 11 13  1  0
 12 11  2  0
 13 14  1  0
 13 17  1  0
 14 15  1  0
 15 16  1  0
 17 18  1  1
 17 16  1  0
 18 20  1  0
 19 18  2  0
M  END
$$$$
