GSC.pdb
     RDKit          3D

 17 16  0  0  1  0  0  0  0  0999 V2000
   12.6753   -9.5019   -8.1667 N   0  0  0  0  0  0  0  0  0  0  0  0
   13.9670   -8.9502   -7.9151 C   0  0  0  0  0  0  0  0  0  0  0  0
   14.4838   -8.1845   -9.0966 C   0  0  0  0  0  0  0  0  0  0  0  0
   13.8413   -8.1439  -10.1729 O   0  0  0  0  0  0  0  0  0  0  0  0
   16.2099   -4.5206  -11.1346 O   0  0  0  0  0  0  0  0  0  0  0  0
   15.7860   -5.2316  -10.0267 C   0  0  0  0  0  0  0  0  0  0  0  0
   16.1846   -6.6817  -10.1932 C   0  0  2  0  0  0  0  0  0  0  0  0
   15.7103   -7.4760   -9.0569 N   0  0  0  0  0  0  0  0  0  0  0  0
   17.6216   -6.8882  -10.4278 C   0  0  0  0  0  0  0  0  0  0  0  0
   18.4208   -6.6246   -9.4627 O   0  0  0  0  0  0  0  0  0  0  0  0
   18.2307   -7.3478  -11.6023 N   0  0  0  0  0  0  0  0  0  0  0  0
   19.6565   -7.4238  -11.8171 C   0  0  1  0  0  0  0  0  0  0  0  0
   20.0141   -8.5595  -12.7709 C   0  0  0  0  0  0  0  0  0  0  0  0
   19.4734  -10.1006  -11.9804 S   0  0  0  0  0  0  0  0  0  0  0  0
   20.2483   -6.2012  -12.3344 C   0  0  0  0  0  0  0  0  0  0  0  0
   21.4860   -6.0468  -12.3385 O   0  0  0  0  0  0  0  0  0  0  0  0
   19.4576   -5.1886  -12.8303 O   0  0  0  0  0  0  0  0  0  0  0  0
  1  2  1  0
  2  3  1  0
  3  8  1  0
  3  4  2  0
  5  6  1  0
  7  6  1  1
  7  9  1  0
  8  7  1  0
  9 10  2  0
  9 11  1  0
 11 12  1  0
 12 13  1  6
 14 13  1  0
 15 12  1  0
 15 17  1  0
 16 15  2  0
M  END
$$$$
