GSC.pdb
     RDKit          3D

 17 16  0  0  1  0  0  0  0  0999 V2000
   17.8683  -12.1432  -15.8207 N   0  0  0  0  0  0  0  0  0  0  0  0
   18.6952  -11.0366  -16.1783 C   0  0  0  0  0  0  0  0  0  0  0  0
   18.3081   -9.7916  -15.4370 C   0  0  0  0  0  0  0  0  0  0  0  0
   17.1041   -9.4714  -15.2938 O   0  0  0  0  0  0  0  0  0  0  0  0
   21.0567   -7.5863  -13.2418 O   0  0  0  0  0  0  0  0  0  0  0  0
   19.7151   -7.5220  -12.9121 C   0  0  0  0  0  0  0  0  0  0  0  0
   18.8928   -7.6919  -14.1708 C   0  0  2  0  0  0  0  0  0  0  0  0
   19.2727   -8.9238  -14.8674 N   0  0  0  0  0  0  0  0  0  0  0  0
   18.9292   -6.5328  -15.0750 C   0  0  0  0  0  0  0  0  0  0  0  0
   19.8556   -6.5027  -15.9586 O   0  0  0  0  0  0  0  0  0  0  0  0
   18.0550   -5.4386  -15.0853 N   0  0  0  0  0  0  0  0  0  0  0  0
   18.1363   -4.3260  -16.0022 C   0  0  1  0  0  0  0  0  0  0  0  0
   16.7563   -3.7430  -16.2908 C   0  0  0  0  0  0  0  0  0  0  0  0
   15.7374   -5.0979  -16.9375 S   0  0  0  0  0  0  0  0  0  0  0  0
   18.9950   -3.2431  -15.5523 C   0  0  0  0  0  0  0  0  0  0  0  0
   19.4213   -3.2153  -14.3804 O   0  0  0  0  0  0  0  0  0  0  0  0
   19.3562   -2.2262  -16.4077 O   0  0  0  0  0  0  0  0  0  0  0  0
  1  2  1  0
  2  3  1  0
  3  8  1  0
  3  4  2  0
  5  6  1  0
  7  6  1  1
  7  9  1  0
  8  7  1  0
  9 10  2  0
  9 11  1  0
 11 12  1  0
 12 13  1  1
 14 13  1  0
 15 12  1  0
 15 17  1  0
 16 15  2  0
M  END
$$$$
