GSC.pdb
     RDKit          3D

 17 16  0  0  1  0  0  0  0  0999 V2000
   16.4063  -14.3076  -15.1472 N   0  0  0  0  0  0  0  0  0  0  0  0
   16.0374  -12.9352  -15.2764 C   0  0  0  0  0  0  0  0  0  0  0  0
   17.1611  -12.1073  -15.8252 C   0  0  0  0  0  0  0  0  0  0  0  0
   18.3068  -12.5930  -15.9810 O   0  0  0  0  0  0  0  0  0  0  0  0
   16.7451   -8.0135  -16.8496 O   0  0  0  0  0  0  0  0  0  0  0  0
   17.4894   -8.8555  -17.6557 C   0  0  0  0  0  0  0  0  0  0  0  0
   18.0636   -9.9671  -16.8047 C   0  0  2  0  0  0  0  0  0  0  0  0
   16.9870  -10.7495  -16.1913 N   0  0  0  0  0  0  0  0  0  0  0  0
   19.0362   -9.5146  -15.7989 C   0  0  0  0  0  0  0  0  0  0  0  0
   18.5908   -9.2357  -14.6311 O   0  0  0  0  0  0  0  0  0  0  0  0
   20.4166   -9.3501  -15.9693 N   0  0  0  0  0  0  0  0  0  0  0  0
   21.3167   -8.8362  -14.9639 C   0  0  1  0  0  0  0  0  0  0  0  0
   22.7701   -9.1445  -15.3106 C   0  0  0  0  0  0  0  0  0  0  0  0
   22.9688  -10.9441  -15.1927 S   0  0  0  0  0  0  0  0  0  0  0  0
   21.2041   -7.4050  -14.7372 C   0  0  0  0  0  0  0  0  0  0  0  0
   20.5787   -6.6821  -15.5385 O   0  0  0  0  0  0  0  0  0  0  0  0
   21.7839   -6.8167  -13.6353 O   0  0  0  0  0  0  0  0  0  0  0  0
  1  2  1  0
  2  3  1  0
  3  8  1  0
  3  4  2  0
  5  6  1  0
  7  6  1  1
  7  9  1  0
  8  7  1  0
  9 10  2  0
  9 11  1  0
 11 12  1  0
 12 13  1  6
 14 13  1  0
 15 12  1  0
 15 17  1  0
 16 15  2  0
M  END
$$$$
