GSC.pdb
     RDKit          3D

 17 16  0  0  1  0  0  0  0  0999 V2000
   29.9857  -10.8008  -18.6506 N   0  0  0  0  0  0  0  0  0  0  0  0
   29.9991   -9.4059  -18.3498 C   0  0  0  0  0  0  0  0  0  0  0  0
   31.0642   -9.0633  -17.3510 C   0  0  0  0  0  0  0  0  0  0  0  0
   30.8258   -8.2958  -16.3882 O   0  0  0  0  0  0  0  0  0  0  0  0
   35.4103  -10.0690  -15.4784 O   0  0  0  0  0  0  0  0  0  0  0  0
   34.5248  -10.3020  -16.5148 C   0  0  0  0  0  0  0  0  0  0  0  0
   33.4022   -9.2905  -16.4367 C   0  0  2  0  0  0  0  0  0  0  0  0
   32.3789   -9.5835  -17.4438 N   0  0  0  0  0  0  0  0  0  0  0  0
   33.8460   -7.8908  -16.5163 C   0  0  0  0  0  0  0  0  0  0  0  0
   33.9309   -7.3641  -17.6804 O   0  0  0  0  0  0  0  0  0  0  0  0
   34.1924   -7.0500  -15.4510 N   0  0  0  0  0  0  0  0  0  0  0  0
   34.5451   -5.6559  -15.5811 C   0  0  1  0  0  0  0  0  0  0  0  0
   33.9141   -4.8183  -14.4730 C   0  0  0  0  0  0  0  0  0  0  0  0
   32.1164   -4.9169  -14.6977 S   0  0  0  0  0  0  0  0  0  0  0  0
   35.9757   -5.3991  -15.5773 C   0  0  0  0  0  0  0  0  0  0  0  0
   36.7853   -6.3172  -15.3379 O   0  0  0  0  0  0  0  0  0  0  0  0
   36.4678   -4.1395  -15.8375 O   0  0  0  0  0  0  0  0  0  0  0  0
  1  2  1  0
  2  3  1  0
  3  8  1  0
  3  4  2  0
  5  6  1  0
  7  6  1  6
  7  9  1  0
  8  7  1  0
  9 10  2  0
  9 11  1  0
 11 12  1  0
 12 13  1  1
 14 13  1  0
 15 12  1  0
 15 17  1  0
 16 15  2  0
M  END
$$$$
