GSC.pdb
     RDKit          3D

 17 16  0  0  1  0  0  0  0  0999 V2000
   19.2744  -12.2540  -16.6074 N   0  0  0  0  0  0  0  0  0  0  0  0
   19.0874  -11.4848  -15.4201 C   0  0  0  0  0  0  0  0  0  0  0  0
   19.2165  -10.0143  -15.6850 C   0  0  0  0  0  0  0  0  0  0  0  0
   19.9936   -9.5816  -16.5692 O   0  0  0  0  0  0  0  0  0  0  0  0
   17.4085   -5.5661  -15.1092 O   0  0  0  0  0  0  0  0  0  0  0  0
   17.3225   -6.9017  -14.7607 C   0  0  0  0  0  0  0  0  0  0  0  0
   18.5582   -7.6186  -15.2591 C   0  0  2  0  0  0  0  0  0  0  0  0
   18.4753   -9.0502  -14.9577 N   0  0  0  0  0  0  0  0  0  0  0  0
   19.8233   -7.0429  -14.7789 C   0  0  0  0  0  0  0  0  0  0  0  0
   20.2343   -7.4048  -13.6213 O   0  0  0  0  0  0  0  0  0  0  0  0
   20.6473   -6.1302  -15.4494 N   0  0  0  0  0  0  0  0  0  0  0  0
   21.8690   -5.5752  -14.9162 C   0  0  1  0  0  0  0  0  0  0  0  0
   22.7486   -5.0038  -16.0241 C   0  0  0  0  0  0  0  0  0  0  0  0
   24.2791   -4.4289  -15.2373 S   0  0  0  0  0  0  0  0  0  0  0  0
   21.6680   -4.5343  -13.9220 C   0  0  0  0  0  0  0  0  0  0  0  0
   20.8525   -3.6122  -14.1236 O   0  0  0  0  0  0  0  0  0  0  0  0
   22.3716   -4.5429  -12.7383 O   0  0  0  0  0  0  0  0  0  0  0  0
  1  2  1  0
  2  3  1  0
  3  8  1  0
  3  4  2  0
  5  6  1  0
  7  6  1  1
  7  9  1  0
  8  7  1  0
  9 10  2  0
  9 11  1  0
 11 12  1  0
 12 13  1  6
 14 13  1  0
 15 12  1  0
 15 17  1  0
 16 15  2  0
M  END
$$$$
