GSC.pdb
     RDKit          3D

 17 16  0  0  1  0  0  0  0  0999 V2000
   19.9510  -13.4751  -17.3163 N   0  0  0  0  0  0  0  0  0  0  0  0
   19.0382  -12.5802  -16.6820 C   0  0  0  0  0  0  0  0  0  0  0  0
   19.2605  -11.1614  -17.1144 C   0  0  0  0  0  0  0  0  0  0  0  0
   19.6941  -10.8943  -18.2604 O   0  0  0  0  0  0  0  0  0  0  0  0
   18.0597   -6.6980  -17.3096 O   0  0  0  0  0  0  0  0  0  0  0  0
   17.8461   -7.9903  -16.8657 C   0  0  0  0  0  0  0  0  0  0  0  0
   19.1836   -8.6770  -16.6951 C   0  0  2  0  0  0  0  0  0  0  0  0
   18.9947  -10.0632  -16.2593 N   0  0  0  0  0  0  0  0  0  0  0  0
   20.1197   -7.9621  -15.8147 C   0  0  0  0  0  0  0  0  0  0  0  0
   20.0035   -8.1496  -14.5533 O   0  0  0  0  0  0  0  0  0  0  0  0
   21.1421   -7.0853  -16.1989 N   0  0  0  0  0  0  0  0  0  0  0  0
   22.0641   -6.4444  -15.2910 C   0  0  1  0  0  0  0  0  0  0  0  0
   23.4145   -6.1955  -15.9558 C   0  0  0  0  0  0  0  0  0  0  0  0
   24.1251   -7.8226  -16.3295 S   0  0  0  0  0  0  0  0  0  0  0  0
   21.5901   -5.1805  -14.7523 C   0  0  0  0  0  0  0  0  0  0  0  0
   20.5559   -4.6466  -15.2008 O   0  0  0  0  0  0  0  0  0  0  0  0
   22.2707   -4.5459  -13.7372 O   0  0  0  0  0  0  0  0  0  0  0  0
  1  2  1  0
  2  3  1  0
  3  8  1  0
  3  4  2  0
  5  6  1  0
  7  6  1  1
  7  9  1  0
  8  7  1  0
  9 10  2  0
  9 11  1  0
 11 12  1  0
 12 13  1  6
 14 13  1  0
 15 12  1  0
 15 17  1  0
 16 15  2  0
M  END
$$$$
