GSC.pdb
     RDKit          3D

 17 16  0  0  1  0  0  0  0  0999 V2000
   25.4622  -16.2952  -15.3515 N   0  0  0  0  0  0  0  0  0  0  0  0
   24.1229  -15.8519  -15.5664 C   0  0  0  0  0  0  0  0  0  0  0  0
   24.0823  -14.4836  -16.1792 C   0  0  0  0  0  0  0  0  0  0  0  0
   25.1381  -13.8781  -16.4814 O   0  0  0  0  0  0  0  0  0  0  0  0
   20.4758  -12.4330  -16.9189 O   0  0  0  0  0  0  0  0  0  0  0  0
   21.4939  -12.3534  -17.8516 C   0  0  0  0  0  0  0  0  0  0  0  0
   22.8204  -12.5267  -17.1446 C   0  0  2  0  0  0  0  0  0  0  0  0
   22.8624  -13.8133  -16.4445 N   0  0  0  0  0  0  0  0  0  0  0  0
   23.1738  -11.4171  -16.2466 C   0  0  0  0  0  0  0  0  0  0  0  0
   22.6234  -11.3955  -15.0906 O   0  0  0  0  0  0  0  0  0  0  0  0
   24.0572  -10.3626  -16.5099 N   0  0  0  0  0  0  0  0  0  0  0  0
   24.3204   -9.2629  -15.6120 C   0  0  1  0  0  0  0  0  0  0  0  0
   25.7358   -8.7235  -15.7953 C   0  0  0  0  0  0  0  0  0  0  0  0
   26.8719  -10.0816  -15.3993 S   0  0  0  0  0  0  0  0  0  0  0  0
   23.3959   -8.1493  -15.7448 C   0  0  0  0  0  0  0  0  0  0  0  0
   22.5949   -8.0990  -16.6997 O   0  0  0  0  0  0  0  0  0  0  0  0
   23.3838   -7.1275  -14.8217 O   0  0  0  0  0  0  0  0  0  0  0  0
  1  2  1  0
  2  3  1  0
  3  8  1  0
  3  4  2  0
  5  6  1  0
  7  6  1  1
  7  9  1  0
  8  7  1  0
  9 10  2  0
  9 11  1  0
 11 12  1  0
 12 13  1  6
 14 13  1  0
 15 12  1  0
 15 17  1  0
 16 15  2  0
M  END
$$$$
