GSC.pdb
     RDKit          3D

 17 16  0  0  1  0  0  0  0  0999 V2000
   11.8088  -10.8015   -9.1182 N   0  0  0  0  0  0  0  0  0  0  0  0
   12.8673  -10.7230  -10.0720 C   0  0  0  0  0  0  0  0  0  0  0  0
   13.9721   -9.8238   -9.6027 C   0  0  0  0  0  0  0  0  0  0  0  0
   13.9136   -9.2546   -8.4868 O   0  0  0  0  0  0  0  0  0  0  0  0
   17.0123   -8.5931  -12.1896 O   0  0  0  0  0  0  0  0  0  0  0  0
   17.3644   -8.7092  -10.8572 C   0  0  0  0  0  0  0  0  0  0  0  0
   16.1202   -8.5685  -10.0077 C   0  0  2  0  0  0  0  0  0  0  0  0
   15.1251   -9.5747  -10.3879 N   0  0  0  0  0  0  0  0  0  0  0  0
   15.5411   -7.2168  -10.0069 C   0  0  0  0  0  0  0  0  0  0  0  0
   14.7225   -6.9251  -10.9474 O   0  0  0  0  0  0  0  0  0  0  0  0
   15.7824   -6.1924   -9.0829 N   0  0  0  0  0  0  0  0  0  0  0  0
   15.2743   -4.8453   -9.1929 C   0  0  1  0  0  0  0  0  0  0  0  0
   15.1719   -4.1775   -7.8249 C   0  0  0  0  0  0  0  0  0  0  0  0
   14.0764   -5.2125   -6.8147 S   0  0  0  0  0  0  0  0  0  0  0  0
   16.0599   -3.9795  -10.0564 C   0  0  0  0  0  0  0  0  0  0  0  0
   17.1628   -4.3567  -10.5005 O   0  0  0  0  0  0  0  0  0  0  0  0
   15.6051   -2.7266  -10.4027 O   0  0  0  0  0  0  0  0  0  0  0  0
  1  2  1  0
  2  3  1  0
  3  8  1  0
  3  4  2  0
  5  6  1  0
  7  6  1  6
  7  9  1  0
  8  7  1  0
  9 10  2  0
  9 11  1  0
 11 12  1  0
 12 13  1  1
 14 13  1  0
 15 12  1  0
 15 17  1  0
 16 15  2  0
M  END
$$$$
