GSC.pdb
     RDKit          3D

 17 16  0  0  1  0  0  0  0  0999 V2000
   19.7872   -9.0057  -16.0310 N   0  0  0  0  0  0  0  0  0  0  0  0
   20.2531   -7.8240  -15.3809 C   0  0  0  0  0  0  0  0  0  0  0  0
   20.0110   -7.8717  -13.9015 C   0  0  0  0  0  0  0  0  0  0  0  0
   19.2148   -8.7023  -13.4024 O   0  0  0  0  0  0  0  0  0  0  0  0
   22.2886   -5.6586  -11.1937 O   0  0  0  0  0  0  0  0  0  0  0  0
   21.6819   -6.8324  -10.7852 C   0  0  0  0  0  0  0  0  0  0  0  0
   20.3966   -7.0156  -11.5622 C   0  0  2  0  0  0  0  0  0  0  0  0
   20.6622   -6.9905  -13.0031 N   0  0  0  0  0  0  0  0  0  0  0  0
   19.3322   -6.0687  -11.1977 C   0  0  0  0  0  0  0  0  0  0  0  0
   19.3468   -4.9191  -11.7616 O   0  0  0  0  0  0  0  0  0  0  0  0
   18.2854   -6.2788  -10.2913 N   0  0  0  0  0  0  0  0  0  0  0  0
   17.3527   -5.2650   -9.8584 C   0  0  1  0  0  0  0  0  0  0  0  0
   15.9854   -5.8658   -9.5466 C   0  0  0  0  0  0  0  0  0  0  0  0
   15.3832   -6.6270  -11.0796 S   0  0  0  0  0  0  0  0  0  0  0  0
   17.7874   -4.5121   -8.6937 C   0  0  0  0  0  0  0  0  0  0  0  0
   18.7081   -4.9390   -7.9686 O   0  0  0  0  0  0  0  0  0  0  0  0
   17.1938   -3.3135   -8.3657 O   0  0  0  0  0  0  0  0  0  0  0  0
  1  2  1  0
  2  3  1  0
  3  8  1  0
  3  4  2  0
  5  6  1  0
  7  6  1  1
  7  9  1  0
  8  7  1  0
  9 10  2  0
  9 11  1  0
 11 12  1  0
 12 13  1  1
 14 13  1  0
 15 12  1  0
 15 17  1  0
 16 15  2  0
M  END
$$$$
