GSC.pdb
     RDKit          3D

 17 16  0  0  1  0  0  0  0  0999 V2000
   18.3003  -11.6444  -18.5801 N   0  0  0  0  0  0  0  0  0  0  0  0
   19.1987  -10.5693  -18.8511 C   0  0  0  0  0  0  0  0  0  0  0  0
   19.6645   -9.9036  -17.5905 C   0  0  0  0  0  0  0  0  0  0  0  0
   18.8699   -9.2542  -16.8697 O   0  0  0  0  0  0  0  0  0  0  0  0
   23.1669   -9.2934  -14.2929 O   0  0  0  0  0  0  0  0  0  0  0  0
   22.7704   -9.9277  -15.4561 C   0  0  0  0  0  0  0  0  0  0  0  0
   21.4624   -9.3256  -15.9209 C   0  0  2  0  0  0  0  0  0  0  0  0
   21.0111   -9.9740  -17.1551 N   0  0  0  0  0  0  0  0  0  0  0  0
   21.4902   -7.8623  -16.0644 C   0  0  0  0  0  0  0  0  0  0  0  0
   21.9282   -7.3861  -17.1695 O   0  0  0  0  0  0  0  0  0  0  0  0
   21.0868   -6.9107  -15.1193 N   0  0  0  0  0  0  0  0  0  0  0  0
   21.1927   -5.4809  -15.2910 C   0  0  1  0  0  0  0  0  0  0  0  0
   19.8336   -4.8027  -15.1481 C   0  0  0  0  0  0  0  0  0  0  0  0
   20.1117   -3.0204  -15.3435 S   0  0  0  0  0  0  0  0  0  0  0  0
   22.1143   -4.8358  -14.3707 C   0  0  0  0  0  0  0  0  0  0  0  0
   22.3531   -5.3382  -13.2543 O   0  0  0  0  0  0  0  0  0  0  0  0
   22.7428   -3.6584  -14.7100 O   0  0  0  0  0  0  0  0  0  0  0  0
  1  2  1  0
  2  3  1  0
  3  8  1  0
  3  4  2  0
  5  6  1  0
  7  6  1  6
  7  9  1  0
  8  7  1  0
  9 10  2  0
  9 11  1  0
 11 12  1  0
 12 13  1  1
 14 13  1  0
 15 12  1  0
 15 17  1  0
 16 15  2  0
M  END
$$$$
