KIS.pdb
     RDKit          3D

 24 23  0  0  1  0  0  0  0  0999 V2000
    9.4225  -18.1350   16.7724 N   0  0  0  0  0  0  0  0  0  0  0  0
    8.4921  -17.8747   17.8535 C   0  0  1  0  0  0  0  0  0  0  0  0
    8.1185  -19.2205   18.4448 C   0  0  0  0  0  0  0  0  0  0  0  0
    9.1924  -20.2481   18.3623 C   0  0  0  0  0  0  0  0  0  0  0  0
    8.7804  -21.5847   18.9335 C   0  0  0  0  0  0  0  0  0  0  0  0
    9.9065  -22.5932   18.8726 C   0  0  0  0  0  0  0  0  0  0  0  0
    9.4717  -23.8075   19.5116 N   0  0  0  0  0  0  0  0  0  0  0  0
    9.1892  -17.0976   18.8974 C   0  0  0  0  0  0  0  0  0  0  0  0
   10.4351  -17.0860   19.0417 O   0  0  0  0  0  0  0  0  0  0  0  0
    6.7051  -12.4119   20.0939 C   0  0  0  0  0  0  0  0  0  0  0  0
    7.8246  -13.4317   19.8188 C   0  0  0  0  0  0  0  0  0  0  0  0
    8.0192  -14.3372   20.9931 C   0  0  2  0  0  0  0  0  0  0  0  0
    8.1770  -13.5877   22.2888 C   0  0  0  0  0  0  0  0  0  0  0  0
    8.9997  -15.4466   20.8077 C   0  0  2  0  0  0  0  0  0  0  0  0
    8.4029  -16.3219   19.7849 N   0  0  0  0  0  0  0  0  0  0  0  0
    9.2307  -16.2954   21.9895 C   0  0  0  0  0  0  0  0  0  0  0  0
    8.2967  -16.9944   22.5194 O   0  0  0  0  0  0  0  0  0  0  0  0
   12.9638  -17.1800   23.3930 O   0  0  0  0  0  0  0  0  0  0  0  0
   11.9643  -18.1116   23.6413 C   0  0  0  0  0  0  0  0  0  0  0  0
   10.6665  -17.3222   23.7854 C   0  0  2  0  0  0  0  0  0  0  0  0
   10.4900  -16.4159   22.6368 N   0  0  0  0  0  0  0  0  0  0  0  0
   10.6557  -16.5485   25.0440 C   0  0  0  0  0  0  0  0  0  0  0  0
   10.7678  -17.2506   26.2352 O   0  0  0  0  0  0  0  0  0  0  0  0
   10.5514  -15.2990   25.0969 O   0  0  0  0  0  0  0  0  0  0  0  0
  2  3  1  0
  2  1  1  6
  4  5  1  0
  4  3  1  0
  6  5  1  0
  7  6  1  0
  8  2  1  0
  9  8  2  0
 10 11  1  0
 11 12  1  0
 12 13  1  1
 12 14  1  0
 14 15  1  6
 15  8  1  0
 16 17  2  0
 16 14  1  0
 18 19  1  0
 20 19  1  6
 20 21  1  0
 21 16  1  0
 22 20  1  0
 23 22  1  0
 24 22  2  0
M  END
$$$$
