KIS.pdb
     RDKit          3D

 24 23  0  0  1  0  0  0  0  0999 V2000
    8.1286  -15.5807   20.7726 N   0  0  0  0  0  0  0  0  0  0  0  0
    7.7360  -15.9710   22.1126 C   0  0  1  0  0  0  0  0  0  0  0  0
    8.1682  -17.4135   22.2939 C   0  0  0  0  0  0  0  0  0  0  0  0
    7.3904  -18.3946   21.4886 C   0  0  0  0  0  0  0  0  0  0  0  0
    7.7803  -19.8285   21.7611 C   0  0  0  0  0  0  0  0  0  0  0  0
    6.8836  -20.8035   21.0302 C   0  0  0  0  0  0  0  0  0  0  0  0
    7.3333  -22.1417   21.3113 N   0  0  0  0  0  0  0  0  0  0  0  0
    8.4857  -15.1470   23.0814 C   0  0  0  0  0  0  0  0  0  0  0  0
    9.5596  -14.5583   22.8109 O   0  0  0  0  0  0  0  0  0  0  0  0
    5.7179  -11.7033   25.7534 C   0  0  0  0  0  0  0  0  0  0  0  0
    6.9130  -12.4015   25.0799 C   0  0  0  0  0  0  0  0  0  0  0  0
    7.5662  -13.3630   26.0209 C   0  0  2  0  0  0  0  0  0  0  0  0
    7.9393  -12.7317   27.3353 C   0  0  0  0  0  0  0  0  0  0  0  0
    8.6323  -14.2278   25.4361 C   0  0  2  0  0  0  0  0  0  0  0  0
    7.9590  -15.0160   24.3902 N   0  0  0  0  0  0  0  0  0  0  0  0
    9.2374  -15.2036   26.3591 C   0  0  0  0  0  0  0  0  0  0  0  0
    8.5735  -16.1876   26.8414 O   0  0  0  0  0  0  0  0  0  0  0  0
   10.8638  -15.7768   30.3639 O   0  0  0  0  0  0  0  0  0  0  0  0
   10.3226  -15.1740   29.2359 C   0  0  0  0  0  0  0  0  0  0  0  0
   11.0180  -15.8072   28.0344 C   0  0  2  0  0  0  0  0  0  0  0  0
   10.5904  -15.1444   26.7894 N   0  0  0  0  0  0  0  0  0  0  0  0
   10.7301  -17.2544   27.9593 C   0  0  0  0  0  0  0  0  0  0  0  0
   11.5877  -18.1192   28.6233 O   0  0  0  0  0  0  0  0  0  0  0  0
    9.7591  -17.7434   27.3325 O   0  0  0  0  0  0  0  0  0  0  0  0
  2  3  1  0
  2  1  1  6
  4  5  1  0
  4  3  1  0
  6  5  1  0
  7  6  1  0
  8  2  1  0
  9  8  2  0
 10 11  1  0
 11 12  1  0
 12 13  1  1
 12 14  1  0
 14 15  1  6
 15  8  1  0
 16 17  2  0
 16 14  1  0
 18 19  1  0
 20 19  1  1
 20 21  1  0
 21 16  1  0
 22 20  1  0
 23 22  1  0
 24 22  2  0
M  END
$$$$
