KIS.pdb
     RDKit          3D

 24 23  0  0  1  0  0  0  0  0999 V2000
   10.8378  -17.3873   16.7828 N   0  0  0  0  0  0  0  0  0  0  0  0
    9.7272  -17.4689   17.7112 C   0  0  1  0  0  0  0  0  0  0  0  0
    9.6158  -18.9207   18.1358 C   0  0  0  0  0  0  0  0  0  0  0  0
    9.4985  -19.8844   17.0073 C   0  0  0  0  0  0  0  0  0  0  0  0
    9.3310  -21.3150   17.4630 C   0  0  0  0  0  0  0  0  0  0  0  0
    9.3489  -22.2815   16.2992 C   0  0  0  0  0  0  0  0  0  0  0  0
    9.3438  -23.6247   16.8164 N   0  0  0  0  0  0  0  0  0  0  0  0
   10.0549  -16.6694   18.9083 C   0  0  0  0  0  0  0  0  0  0  0  0
   11.2266  -16.4245   19.2828 O   0  0  0  0  0  0  0  0  0  0  0  0
    7.1285  -12.2999   19.5671 C   0  0  0  0  0  0  0  0  0  0  0  0
    8.3111  -13.2837   19.6174 C   0  0  0  0  0  0  0  0  0  0  0  0
    8.1671  -14.2299   20.7666 C   0  0  2  0  0  0  0  0  0  0  0  0
    7.8890  -13.5288   22.0691 C   0  0  0  0  0  0  0  0  0  0  0  0
    9.1973  -15.3050   20.8613 C   0  0  2  0  0  0  0  0  0  0  0  0
    8.9823  -16.1509   19.6752 N   0  0  0  0  0  0  0  0  0  0  0  0
    9.0802  -16.1973   22.0278 C   0  0  0  0  0  0  0  0  0  0  0  0
    8.2038  -17.1301   22.0868 O   0  0  0  0  0  0  0  0  0  0  0  0
   11.8393  -19.1856   23.4740 O   0  0  0  0  0  0  0  0  0  0  0  0
   11.3242  -18.0902   22.7933 C   0  0  0  0  0  0  0  0  0  0  0  0
   10.4746  -17.3192   23.7992 C   0  0  2  0  0  0  0  0  0  0  0  0
    9.9163  -16.1074   23.1733 N   0  0  0  0  0  0  0  0  0  0  0  0
   11.2688  -16.9512   24.9895 C   0  0  0  0  0  0  0  0  0  0  0  0
   11.6928  -17.9742   25.8250 O   0  0  0  0  0  0  0  0  0  0  0  0
   11.5802  -15.7723   25.2863 O   0  0  0  0  0  0  0  0  0  0  0  0
  2  3  1  0
  2  1  1  6
  4  5  1  0
  4  3  1  0
  6  5  1  0
  7  6  1  0
  8  2  1  0
  9  8  2  0
 10 11  1  0
 11 12  1  0
 12 13  1  1
 12 14  1  0
 14 15  1  6
 15  8  1  0
 16 17  2  0
 16 14  1  0
 18 19  1  0
 20 19  1  6
 20 21  1  0
 21 16  1  0
 22 20  1  0
 23 22  1  0
 24 22  2  0
M  END
$$$$
