KIS.pdb
     RDKit          3D

 24 23  0  0  1  0  0  0  0  0999 V2000
    6.8282  -16.0939   21.1374 N   0  0  0  0  0  0  0  0  0  0  0  0
    6.3837  -16.1258   22.5170 C   0  0  1  0  0  0  0  0  0  0  0  0
    6.0970  -17.5769   22.8525 C   0  0  0  0  0  0  0  0  0  0  0  0
    6.3386  -18.5266   21.7319 C   0  0  0  0  0  0  0  0  0  0  0  0
    5.9407  -19.9465   22.0606 C   0  0  0  0  0  0  0  0  0  0  0  0
    6.2512  -20.8948   20.9234 C   0  0  0  0  0  0  0  0  0  0  0  0
    5.8904  -22.2291   21.3255 N   0  0  0  0  0  0  0  0  0  0  0  0
    7.4922  -15.6706   23.3793 C   0  0  0  0  0  0  0  0  0  0  0  0
    8.7038  -15.7929   23.0785 O   0  0  0  0  0  0  0  0  0  0  0  0
    5.9106  -11.5094   26.4546 C   0  0  0  0  0  0  0  0  0  0  0  0
    6.7354  -12.4156   25.5233 C   0  0  0  0  0  0  0  0  0  0  0  0
    7.4738  -13.4528   26.3079 C   0  0  2  0  0  0  0  0  0  0  0  0
    8.2935  -12.8659   27.4256 C   0  0  0  0  0  0  0  0  0  0  0  0
    8.1878  -14.4914   25.5092 C   0  0  2  0  0  0  0  0  0  0  0  0
    7.1652  -15.0616   24.6161 N   0  0  0  0  0  0  0  0  0  0  0  0
    8.7353  -15.6214   26.2797 C   0  0  0  0  0  0  0  0  0  0  0  0
    8.0062  -16.3335   27.0561 O   0  0  0  0  0  0  0  0  0  0  0  0
   12.6395  -16.8802   25.9428 O   0  0  0  0  0  0  0  0  0  0  0  0
   11.7129  -17.8771   26.2183 C   0  0  0  0  0  0  0  0  0  0  0  0
   10.5680  -17.2045   26.9699 C   0  0  2  0  0  0  0  0  0  0  0  0
   10.0987  -16.0191   26.2307 N   0  0  0  0  0  0  0  0  0  0  0  0
   10.9867  -16.8155   28.3324 C   0  0  0  0  0  0  0  0  0  0  0  0
   11.4158  -17.8196   29.1880 O   0  0  0  0  0  0  0  0  0  0  0  0
   10.9764  -15.6349   28.7577 O   0  0  0  0  0  0  0  0  0  0  0  0
  2  3  1  0
  2  1  1  6
  4  5  1  0
  4  3  1  0
  6  5  1  0
  7  6  1  0
  8  2  1  0
  9  8  2  0
 10 11  1  0
 11 12  1  0
 12 13  1  6
 12 14  1  0
 14 15  1  6
 15  8  1  0
 16 17  2  0
 16 14  1  0
 18 19  1  0
 20 19  1  6
 20 21  1  0
 21 16  1  0
 22 20  1  0
 23 22  1  0
 24 22  2  0
M  END
$$$$
