KIS.pdb
     RDKit          3D

 24 23  0  0  1  0  0  0  0  0999 V2000
   10.4514  -14.7475   15.4855 N   0  0  0  0  0  0  0  0  0  0  0  0
   10.9009  -15.6591   16.5195 C   0  0  1  0  0  0  0  0  0  0  0  0
   12.2792  -16.1419   16.1101 C   0  0  0  0  0  0  0  0  0  0  0  0
   12.2950  -16.9952   14.8904 C   0  0  0  0  0  0  0  0  0  0  0  0
   13.6810  -17.4588   14.5079 C   0  0  0  0  0  0  0  0  0  0  0  0
   13.6510  -18.4100   13.3318 C   0  0  0  0  0  0  0  0  0  0  0  0
   14.6507  -17.9983   12.3814 N   0  0  0  0  0  0  0  0  0  0  0  0
   11.0396  -14.9068   17.7822 C   0  0  0  0  0  0  0  0  0  0  0  0
   11.6898  -13.8396   17.8892 O   0  0  0  0  0  0  0  0  0  0  0  0
    6.8702  -13.3210   20.0894 C   0  0  0  0  0  0  0  0  0  0  0  0
    8.3428  -13.4881   19.6741 C   0  0  0  0  0  0  0  0  0  0  0  0
    9.0504  -14.4326   20.5928 C   0  0  2  0  0  0  0  0  0  0  0  0
    8.8339  -14.1061   22.0460 C   0  0  0  0  0  0  0  0  0  0  0  0
   10.4665  -14.7468   20.2433 C   0  0  2  0  0  0  0  0  0  0  0  0
   10.4005  -15.4228   18.9367 N   0  0  0  0  0  0  0  0  0  0  0  0
   11.1543  -15.6795   21.1530 C   0  0  0  0  0  0  0  0  0  0  0  0
   10.6951  -16.8488   21.4048 O   0  0  0  0  0  0  0  0  0  0  0  0
   14.7662  -14.8242   22.9648 O   0  0  0  0  0  0  0  0  0  0  0  0
   14.5717  -16.1502   22.6010 C   0  0  0  0  0  0  0  0  0  0  0  0
   13.0649  -16.3883   22.6323 C   0  0  2  0  0  0  0  0  0  0  0  0
   12.3705  -15.3727   21.8210 N   0  0  0  0  0  0  0  0  0  0  0  0
   12.5544  -16.3611   24.0185 C   0  0  0  0  0  0  0  0  0  0  0  0
   13.0795  -17.2767   24.9187 O   0  0  0  0  0  0  0  0  0  0  0  0
   11.6774  -15.5612   24.4260 O   0  0  0  0  0  0  0  0  0  0  0  0
  2  3  1  0
  2  1  1  6
  4  5  1  0
  4  3  1  0
  6  5  1  0
  7  6  1  0
  8  2  1  0
  9  8  2  0
 10 11  1  0
 11 12  1  0
 12 13  1  1
 12 14  1  0
 14 15  1  6
 15  8  1  0
 16 17  2  0
 16 14  1  0
 18 19  1  0
 20 19  1  1
 20 21  1  0
 21 16  1  0
 22 20  1  0
 23 22  1  0
 24 22  2  0
M  END
$$$$
