KIS.pdb
     RDKit          3D

 24 23  0  0  1  0  0  0  0  0999 V2000
    7.6758  -14.2169   20.0177 N   0  0  0  0  0  0  0  0  0  0  0  0
    7.2190  -14.9143   21.2039 C   0  0  1  0  0  0  0  0  0  0  0  0
    7.3598  -16.3980   20.9223 C   0  0  0  0  0  0  0  0  0  0  0  0
    6.6529  -16.8614   19.6970 C   0  0  0  0  0  0  0  0  0  0  0  0
    6.7628  -18.3519   19.4759 C   0  0  0  0  0  0  0  0  0  0  0  0
    5.9654  -18.8018   18.2715 C   0  0  0  0  0  0  0  0  0  0  0  0
    6.0936  -20.2297   18.1420 N   0  0  0  0  0  0  0  0  0  0  0  0
    8.1193  -14.5770   22.3242 C   0  0  0  0  0  0  0  0  0  0  0  0
    9.3397  -14.3229   22.1846 O   0  0  0  0  0  0  0  0  0  0  0  0
    6.0514  -11.5446   26.2405 C   0  0  0  0  0  0  0  0  0  0  0  0
    7.0684  -12.1678   25.2676 C   0  0  0  0  0  0  0  0  0  0  0  0
    7.5087  -13.5136   25.7489 C   0  0  2  0  0  0  0  0  0  0  0  0
    7.9807  -13.4973   27.1780 C   0  0  0  0  0  0  0  0  0  0  0  0
    8.3925  -14.2816   24.8240 C   0  0  2  0  0  0  0  0  0  0  0  0
    7.5703  -14.5391   23.6298 N   0  0  0  0  0  0  0  0  0  0  0  0
    8.8309  -15.6007   25.3121 C   0  0  0  0  0  0  0  0  0  0  0  0
    7.9980  -16.5215   25.6283 O   0  0  0  0  0  0  0  0  0  0  0  0
   12.4148  -18.7951   25.6519 O   0  0  0  0  0  0  0  0  0  0  0  0
   11.8226  -17.7422   24.9669 C   0  0  0  0  0  0  0  0  0  0  0  0
   10.5755  -17.3608   25.7590 C   0  0  2  0  0  0  0  0  0  0  0  0
   10.1948  -15.9664   25.4716 N   0  0  0  0  0  0  0  0  0  0  0  0
   10.7973  -17.5339   27.2094 C   0  0  0  0  0  0  0  0  0  0  0  0
   11.0810  -18.8106   27.6719 O   0  0  0  0  0  0  0  0  0  0  0  0
   10.7439  -16.5969   28.0425 O   0  0  0  0  0  0  0  0  0  0  0  0
  2  3  1  0
  2  1  1  6
  4  5  1  0
  4  3  1  0
  6  5  1  0
  7  6  1  0
  8  2  1  0
  9  8  2  0
 10 11  1  0
 11 12  1  0
 12 13  1  1
 12 14  1  0
 14 15  1  6
 15  8  1  0
 16 17  2  0
 16 14  1  0
 18 19  1  0
 20 19  1  6
 20 21  1  0
 21 16  1  0
 22 20  1  0
 23 22  1  0
 24 22  2  0
M  END
$$$$
