KIS.pdb
     RDKit          3D

 24 23  0  0  1  0  0  0  0  0999 V2000
    5.5319  -19.9103   24.9572 N   0  0  0  0  0  0  0  0  0  0  0  0
    6.2943  -18.9528   25.7343 C   0  0  1  0  0  0  0  0  0  0  0  0
    7.5903  -19.6371   26.1249 C   0  0  0  0  0  0  0  0  0  0  0  0
    7.4850  -20.5176   27.3206 C   0  0  0  0  0  0  0  0  0  0  0  0
    6.4048  -21.5660   27.1928 C   0  0  0  0  0  0  0  0  0  0  0  0
    6.2950  -22.4150   28.4402 C   0  0  0  0  0  0  0  0  0  0  0  0
    5.3048  -23.4355   28.2165 N   0  0  0  0  0  0  0  0  0  0  0  0
    6.6297  -17.8048   24.8687 C   0  0  0  0  0  0  0  0  0  0  0  0
    6.5006  -17.8122   23.6211 O   0  0  0  0  0  0  0  0  0  0  0  0
    5.9920  -12.8047   26.8364 C   0  0  0  0  0  0  0  0  0  0  0  0
    6.0876  -13.9240   25.7842 C   0  0  0  0  0  0  0  0  0  0  0  0
    7.5131  -14.3075   25.5440 C   0  0  2  0  0  0  0  0  0  0  0  0
    8.3744  -13.1376   25.1507 C   0  0  0  0  0  0  0  0  0  0  0  0
    7.7306  -15.5297   24.7162 C   0  0  2  0  0  0  0  0  0  0  0  0
    7.1253  -16.6296   25.4859 N   0  0  0  0  0  0  0  0  0  0  0  0
    9.1376  -15.9080   24.4978 C   0  0  0  0  0  0  0  0  0  0  0  0
    9.9059  -16.2596   25.4610 O   0  0  0  0  0  0  0  0  0  0  0  0
   10.8834  -15.9969   20.7664 O   0  0  0  0  0  0  0  0  0  0  0  0
   11.2339  -17.0474   21.6042 C   0  0  0  0  0  0  0  0  0  0  0  0
   11.0887  -16.5267   23.0311 C   0  0  2  0  0  0  0  0  0  0  0  0
    9.7593  -15.9193   23.2201 N   0  0  0  0  0  0  0  0  0  0  0  0
   12.1427  -15.5394   23.3431 C   0  0  0  0  0  0  0  0  0  0  0  0
   13.4638  -15.9479   23.2327 O   0  0  0  0  0  0  0  0  0  0  0  0
   11.9123  -14.3587   23.7003 O   0  0  0  0  0  0  0  0  0  0  0  0
  2  3  1  0
  2  1  1  6
  4  5  1  0
  4  3  1  0
  6  5  1  0
  7  6  1  0
  8  2  1  0
  9  8  2  0
 10 11  1  0
 11 12  1  0
 12 13  1  6
 12 14  1  0
 14 15  1  1
 15  8  1  0
 16 17  2  0
 16 14  1  0
 18 19  1  0
 20 19  1  6
 20 21  1  0
 21 16  1  0
 22 20  1  0
 23 22  1  0
 24 22  2  0
M  END
$$$$
