KIS.pdb
     RDKit          3D

 24 23  0  0  1  0  0  0  0  0999 V2000
    7.5764  -13.5926   20.1585 N   0  0  0  0  0  0  0  0  0  0  0  0
    7.1289  -14.5550   21.1462 C   0  0  1  0  0  0  0  0  0  0  0  0
    7.2751  -15.9281   20.5187 C   0  0  0  0  0  0  0  0  0  0  0  0
    6.9030  -17.0568   21.4151 C   0  0  0  0  0  0  0  0  0  0  0  0
    7.2353  -18.4112   20.8339 C   0  0  0  0  0  0  0  0  0  0  0  0
    6.8988  -19.5322   21.7925 C   0  0  0  0  0  0  0  0  0  0  0  0
    6.6112  -20.7188   21.0300 N   0  0  0  0  0  0  0  0  0  0  0  0
    8.0337  -14.4892   22.3109 C   0  0  0  0  0  0  0  0  0  0  0  0
    9.2713  -14.3058   22.2219 O   0  0  0  0  0  0  0  0  0  0  0  0
    6.1207  -11.7259   26.3989 C   0  0  0  0  0  0  0  0  0  0  0  0
    7.0997  -12.3630   25.3965 C   0  0  0  0  0  0  0  0  0  0  0  0
    7.4207  -13.7702   25.7881 C   0  0  2  0  0  0  0  0  0  0  0  0
    7.8492  -13.8931   27.2257 C   0  0  0  0  0  0  0  0  0  0  0  0
    8.2708  -14.5372   24.8314 C   0  0  2  0  0  0  0  0  0  0  0  0
    7.4683  -14.6422   23.6011 N   0  0  0  0  0  0  0  0  0  0  0  0
    8.5907  -15.9187   25.2311 C   0  0  0  0  0  0  0  0  0  0  0  0
    7.6816  -16.8024   25.4159 O   0  0  0  0  0  0  0  0  0  0  0  0
   12.2945  -17.4983   24.9424 O   0  0  0  0  0  0  0  0  0  0  0  0
   11.2460  -18.4080   24.9837 C   0  0  0  0  0  0  0  0  0  0  0  0
   10.1659  -17.7802   25.8596 C   0  0  2  0  0  0  0  0  0  0  0  0
    9.9149  -16.3892   25.4423 N   0  0  0  0  0  0  0  0  0  0  0  0
   10.5539  -17.8165   27.2847 C   0  0  0  0  0  0  0  0  0  0  0  0
   10.8176  -19.0549   27.8513 O   0  0  0  0  0  0  0  0  0  0  0  0
   10.6580  -16.7964   28.0081 O   0  0  0  0  0  0  0  0  0  0  0  0
  2  3  1  0
  2  1  1  6
  4  5  1  0
  4  3  1  0
  6  5  1  0
  7  6  1  0
  8  2  1  0
  9  8  2  0
 10 11  1  0
 11 12  1  0
 12 13  1  1
 12 14  1  0
 14 15  1  6
 15  8  1  0
 16 17  2  0
 16 14  1  0
 18 19  1  0
 20 19  1  6
 20 21  1  0
 21 16  1  0
 22 20  1  0
 23 22  1  0
 24 22  2  0
M  END
$$$$
