KIS.pdb
     RDKit          3D

 24 23  0  0  1  0  0  0  0  0999 V2000
    7.3673  -14.4512   20.2498 N   0  0  0  0  0  0  0  0  0  0  0  0
    6.8623  -14.9909   21.4971 C   0  0  1  0  0  0  0  0  0  0  0  0
    6.7858  -16.4959   21.3252 C   0  0  0  0  0  0  0  0  0  0  0  0
    6.0720  -16.9392   20.0964 C   0  0  0  0  0  0  0  0  0  0  0  0
    5.8509  -18.4328   20.0442 C   0  0  0  0  0  0  0  0  0  0  0  0
    5.1932  -18.8589   18.7501 C   0  0  0  0  0  0  0  0  0  0  0  0
    5.0311  -20.2891   18.7655 N   0  0  0  0  0  0  0  0  0  0  0  0
    7.8414  -14.7048   22.5644 C   0  0  0  0  0  0  0  0  0  0  0  0
    9.0682  -14.5438   22.3591 O   0  0  0  0  0  0  0  0  0  0  0  0
    5.9294  -11.5547   26.4594 C   0  0  0  0  0  0  0  0  0  0  0  0
    6.8709  -12.2175   25.4379 C   0  0  0  0  0  0  0  0  0  0  0  0
    7.4173  -13.5024   25.9741 C   0  0  2  0  0  0  0  0  0  0  0  0
    8.0136  -13.3553   27.3482 C   0  0  0  0  0  0  0  0  0  0  0  0
    8.2513  -14.3024   25.0304 C   0  0  2  0  0  0  0  0  0  0  0  0
    7.3644  -14.6071   23.8950 N   0  0  0  0  0  0  0  0  0  0  0  0
    8.7227  -15.6010   25.5422 C   0  0  0  0  0  0  0  0  0  0  0  0
    7.9195  -16.4771   26.0205 O   0  0  0  0  0  0  0  0  0  0  0  0
   12.6594  -16.7947   25.3203 O   0  0  0  0  0  0  0  0  0  0  0  0
   11.7146  -17.7990   25.1549 C   0  0  0  0  0  0  0  0  0  0  0  0
   10.4798  -17.3611   25.9371 C   0  0  2  0  0  0  0  0  0  0  0  0
   10.0883  -15.9942   25.5496 N   0  0  0  0  0  0  0  0  0  0  0  0
   10.7275  -17.4208   27.3924 C   0  0  0  0  0  0  0  0  0  0  0  0
   11.0855  -18.6453   27.9372 O   0  0  0  0  0  0  0  0  0  0  0  0
   10.6330  -16.4324   28.1598 O   0  0  0  0  0  0  0  0  0  0  0  0
  2  3  1  0
  2  1  1  6
  4  5  1  0
  4  3  1  0
  6  5  1  0
  7  6  1  0
  8  2  1  0
  9  8  2  0
 10 11  1  0
 11 12  1  0
 12 13  1  1
 12 14  1  0
 14 15  1  6
 15  8  1  0
 16 17  2  0
 16 14  1  0
 18 19  1  0
 20 19  1  6
 20 21  1  0
 21 16  1  0
 22 20  1  0
 23 22  1  0
 24 22  2  0
M  END
$$$$
