KIS.pdb
     RDKit          3D

 24 23  0  0  1  0  0  0  0  0999 V2000
    9.6952  -16.9186   15.7263 N   0  0  0  0  0  0  0  0  0  0  0  0
    8.9292  -17.1930   16.9263 C   0  0  1  0  0  0  0  0  0  0  0  0
    9.0401  -18.6831   17.1867 C   0  0  0  0  0  0  0  0  0  0  0  0
   10.2987  -19.3027   16.6885 C   0  0  0  0  0  0  0  0  0  0  0  0
   10.3610  -20.7934   16.9254 C   0  0  0  0  0  0  0  0  0  0  0  0
   11.6626  -21.3870   16.4329 C   0  0  0  0  0  0  0  0  0  0  0  0
   11.6833  -22.7879   16.7627 N   0  0  0  0  0  0  0  0  0  0  0  0
    9.5592  -16.4858   18.0588 C   0  0  0  0  0  0  0  0  0  0  0  0
   10.7631  -16.1342   18.0773 O   0  0  0  0  0  0  0  0  0  0  0  0
    6.4232  -12.7234   20.1130 C   0  0  0  0  0  0  0  0  0  0  0  0
    7.6709  -13.4958   19.6483 C   0  0  0  0  0  0  0  0  0  0  0  0
    8.0942  -14.4922   20.6802 C   0  0  2  0  0  0  0  0  0  0  0  0
    8.1952  -13.8978   22.0593 C   0  0  0  0  0  0  0  0  0  0  0  0
    9.2426  -15.3696   20.3093 C   0  0  2  0  0  0  0  0  0  0  0  0
    8.7552  -16.1890   19.1870 N   0  0  0  0  0  0  0  0  0  0  0  0
    9.6809  -16.3172   21.3487 C   0  0  0  0  0  0  0  0  0  0  0  0
    8.9355  -17.2777   21.7530 O   0  0  0  0  0  0  0  0  0  0  0  0
   13.5108  -16.4382   22.7034 O   0  0  0  0  0  0  0  0  0  0  0  0
   12.8128  -17.6338   22.8124 C   0  0  0  0  0  0  0  0  0  0  0  0
   11.3439  -17.2600   22.9878 C   0  0  2  0  0  0  0  0  0  0  0  0
   10.9499  -16.2543   21.9851 N   0  0  0  0  0  0  0  0  0  0  0  0
   11.0892  -16.7422   24.3478 C   0  0  0  0  0  0  0  0  0  0  0  0
   10.5996  -15.4497   24.4661 O   0  0  0  0  0  0  0  0  0  0  0  0
   11.2893  -17.4014   25.3968 O   0  0  0  0  0  0  0  0  0  0  0  0
  2  3  1  0
  2  1  1  6
  4  5  1  0
  4  3  1  0
  6  5  1  0
  7  6  1  0
  8  2  1  0
  9  8  2  0
 10 11  1  0
 11 12  1  0
 12 13  1  1
 12 14  1  0
 14 15  1  6
 15  8  1  0
 16 17  2  0
 16 14  1  0
 18 19  1  0
 20 19  1  1
 20 21  1  0
 21 16  1  0
 22 20  1  0
 23 22  1  0
 24 22  2  0
M  END
$$$$
