KIS.pdb
     RDKit          3D

 24 23  0  0  1  0  0  0  0  0999 V2000
    7.0838  -14.2664   20.8219 N   0  0  0  0  0  0  0  0  0  0  0  0
    7.3612  -15.4026   21.6788 C   0  0  1  0  0  0  0  0  0  0  0  0
    8.1011  -16.4206   20.8322 C   0  0  0  0  0  0  0  0  0  0  0  0
    7.2281  -17.4514   20.2066 C   0  0  0  0  0  0  0  0  0  0  0  0
    7.5158  -17.6617   18.7385 C   0  0  0  0  0  0  0  0  0  0  0  0
    6.6714  -18.7725   18.1537 C   0  0  0  0  0  0  0  0  0  0  0  0
    7.0063  -18.9209   16.7616 N   0  0  0  0  0  0  0  0  0  0  0  0
    8.2670  -14.9666   22.7599 C   0  0  0  0  0  0  0  0  0  0  0  0
    9.4459  -14.5833   22.5686 O   0  0  0  0  0  0  0  0  0  0  0  0
    6.0611  -11.7467   26.1813 C   0  0  0  0  0  0  0  0  0  0  0  0
    7.0861  -12.4836   25.3007 C   0  0  0  0  0  0  0  0  0  0  0  0
    7.6687  -13.6531   26.0284 C   0  0  2  0  0  0  0  0  0  0  0  0
    8.1991  -13.2892   27.3892 C   0  0  0  0  0  0  0  0  0  0  0  0
    8.5783  -14.5299   25.2345 C   0  0  2  0  0  0  0  0  0  0  0  0
    7.7732  -14.9833   24.0879 N   0  0  0  0  0  0  0  0  0  0  0  0
    9.0420  -15.7500   25.9177 C   0  0  0  0  0  0  0  0  0  0  0  0
    8.2430  -16.5131   26.5664 O   0  0  0  0  0  0  0  0  0  0  0  0
   12.9862  -16.9312   25.9851 O   0  0  0  0  0  0  0  0  0  0  0  0
   12.0764  -17.9801   26.0102 C   0  0  0  0  0  0  0  0  0  0  0  0
   10.7920  -17.4211   26.6151 C   0  0  2  0  0  0  0  0  0  0  0  0
   10.3947  -16.1853   25.9173 N   0  0  0  0  0  0  0  0  0  0  0  0
   10.9604  -17.1530   28.0582 C   0  0  0  0  0  0  0  0  0  0  0  0
   11.2809  -18.2228   28.8811 O   0  0  0  0  0  0  0  0  0  0  0  0
   10.8309  -16.0188   28.5793 O   0  0  0  0  0  0  0  0  0  0  0  0
  2  3  1  0
  2  1  1  6
  4  5  1  0
  4  3  1  0
  6  5  1  0
  7  6  1  0
  8  2  1  0
  9  8  2  0
 10 11  1  0
 11 12  1  0
 12 13  1  1
 12 14  1  0
 14 15  1  6
 15  8  1  0
 16 17  2  0
 16 14  1  0
 18 19  1  0
 20 19  1  6
 20 21  1  0
 21 16  1  0
 22 20  1  0
 23 22  1  0
 24 22  2  0
M  END
$$$$
