KIS.pdb
     RDKit          3D

 24 23  0  0  1  0  0  0  0  0999 V2000
    5.7812  -17.9255   22.1827 N   0  0  0  0  0  0  0  0  0  0  0  0
    6.0204  -17.7761   23.6049 C   0  0  1  0  0  0  0  0  0  0  0  0
    6.5824  -19.0962   24.0965 C   0  0  0  0  0  0  0  0  0  0  0  0
    6.0152  -20.2958   23.4218 C   0  0  0  0  0  0  0  0  0  0  0  0
    5.1166  -21.1131   24.3201 C   0  0  0  0  0  0  0  0  0  0  0  0
    4.5662  -22.3294   23.6084 C   0  0  0  0  0  0  0  0  0  0  0  0
    3.6747  -23.0212   24.5020 N   0  0  0  0  0  0  0  0  0  0  0  0
    7.0540  -16.7406   23.8020 C   0  0  0  0  0  0  0  0  0  0  0  0
    7.9979  -16.5375   23.0012 O   0  0  0  0  0  0  0  0  0  0  0  0
    5.4741  -12.3959   26.6972 C   0  0  0  0  0  0  0  0  0  0  0  0
    6.1771  -13.2557   25.6315 C   0  0  0  0  0  0  0  0  0  0  0  0
    7.3494  -13.9758   26.2180 C   0  0  2  0  0  0  0  0  0  0  0  0
    8.2972  -13.0570   26.9411 C   0  0  0  0  0  0  0  0  0  0  0  0
    8.0216  -14.9653   25.3262 C   0  0  2  0  0  0  0  0  0  0  0  0
    6.9721  -15.9323   24.9627 N   0  0  0  0  0  0  0  0  0  0  0  0
    9.1037  -15.7489   25.9471 C   0  0  0  0  0  0  0  0  0  0  0  0
    8.8970  -16.5232   26.9468 O   0  0  0  0  0  0  0  0  0  0  0  0
   13.0438  -15.4512   24.8327 O   0  0  0  0  0  0  0  0  0  0  0  0
   12.6527  -16.7531   25.1165 C   0  0  0  0  0  0  0  0  0  0  0  0
   11.4536  -16.6475   26.0541 C   0  0  2  0  0  0  0  0  0  0  0  0
   10.4520  -15.7195   25.4995 N   0  0  0  0  0  0  0  0  0  0  0  0
   11.8712  -16.1944   27.3970 C   0  0  0  0  0  0  0  0  0  0  0  0
   12.7821  -16.9788   28.0894 O   0  0  0  0  0  0  0  0  0  0  0  0
   11.4511  -15.1461   27.9442 O   0  0  0  0  0  0  0  0  0  0  0  0
  2  3  1  0
  2  1  1  6
  4  5  1  0
  4  3  1  0
  6  5  1  0
  7  6  1  0
  8  2  1  0
  9  8  2  0
 10 11  1  0
 11 12  1  0
 12 13  1  6
 12 14  1  0
 14 15  1  1
 15  8  1  0
 16 17  2  0
 16 14  1  0
 18 19  1  0
 20 19  1  6
 20 21  1  0
 21 16  1  0
 22 20  1  0
 23 22  1  0
 24 22  2  0
M  END
$$$$
