RDY.pdb
     RDKit          3D

 32 32  0  0  1  0  0  0  0  0999 V2000
   30.4820  -22.9938  -17.7473 N   0  0  0  0  0  0  0  0  0  0  0  0
   29.3621  -23.5853  -17.1088 C   0  0  0  0  0  0  0  0  0  0  0  0
   29.2452  -24.8856  -16.9525 N   0  0  0  0  0  0  0  0  0  0  0  0
   28.2806  -22.8310  -16.6017 N   0  0  0  0  0  0  0  0  0  0  0  0
   28.1005  -21.4272  -16.8410 C   0  0  0  0  0  0  0  0  0  0  0  0
   26.9410  -20.8001  -16.1538 C   0  0  0  0  0  0  0  0  0  0  0  0
   25.6204  -21.4437  -16.2835 C   0  0  0  0  0  0  0  0  0  0  0  0
   24.6526  -20.8034  -17.2245 C   0  0  2  0  0  0  0  0  0  0  0  0
   25.2620  -19.7019  -17.9613 N   0  0  0  0  0  0  0  0  0  0  0  0
   23.4393  -20.3072  -16.5196 C   0  0  0  0  0  0  0  0  0  0  0  0
   23.3402  -19.1515  -16.0407 O   0  0  0  0  0  0  0  0  0  0  0  0
   28.3188  -25.2091  -16.6064 N   0  0  0  0  0  0  0  0  0  0  0  0
   22.2861  -21.1586  -16.3492 C   0  0  2  0  0  0  0  0  0  0  0  0
   21.1211  -20.6804  -15.6334 C   0  0  0  0  0  0  0  0  0  0  0  0
   19.8924  -21.2491  -16.2957 C   0  0  0  0  0  0  0  0  0  0  0  0
   18.6367  -20.7055  -15.7346 O   0  0  0  0  0  0  0  0  0  0  0  0
   18.5671  -19.8102  -14.8593 C   0  0  0  0  0  0  0  0  0  0  0  0
   21.2148  -21.0804  -14.1979 O   0  0  0  0  0  0  0  0  0  0  0  0
   21.7977  -22.1503  -13.8873 O   0  0  0  0  0  0  0  0  0  0  0  0
   17.3980  -21.2017  -16.1887 O   0  0  0  0  0  0  0  0  0  0  0  0
   27.1679  -21.3497  -11.6265 C   0  0  0  0  0  0  0  0  0  0  0  0
   25.8347  -20.9421  -11.4888 C   0  0  0  0  0  0  0  0  0  0  0  0
   25.1381  -21.1650  -10.3215 C   0  0  0  0  0  0  0  0  0  0  0  0
   23.8074  -20.7586  -10.1826 C   0  0  0  0  0  0  0  0  0  0  0  0
   23.1881  -20.1257  -11.2335 C   0  0  0  0  0  0  0  0  0  0  0  0
   21.7883  -19.6945  -11.0952 C   0  0  2  0  0  0  0  0  0  0  0  0
   20.8052  -20.6115  -11.7557 N   0  0  0  0  0  0  0  0  0  0  0  0
   20.6730  -20.3041  -13.1588 C   0  0  0  0  0  0  0  0  0  0  0  0
   19.4820  -20.5388  -11.0559 O   0  0  0  0  0  0  0  0  0  0  0  0
   18.3687  -20.1185  -11.7386 C   0  0  0  0  0  0  0  0  0  0  0  0
   23.9156  -19.9135  -12.4009 C   0  0  0  0  0  0  0  0  0  0  0  0
   25.2252  -20.3068  -12.5538 O   0  0  0  0  0  0  0  0  0  0  0  0
  2  3  2  0
  2  1  1  0
  4  2  1  0
  5  4  1  0
  6  5  1  0
  7  6  1  0
  8  7  1  0
  8  9  1  1
 10 11  2  0
 10  8  1  0
 12 10  1  0
 13 17  1  0
 13 12  1  0
 13 14  1  6
 15 16  2  0
 15 14  1  0
 17 18  2  0
 19 15  1  0
 20 21  1  0
 21 31  2  0
 22 23  2  0
 22 21  1  0
 23 24  1  0
 24 25  1  0
 24 30  2  0
 26 25  1  6
 27 26  1  0
 27 17  1  0
 28 26  1  0
 29 28  1  0
 31 30  1  0
 32 28  2  0
M  END
$$$$
