RDY.pdb
     RDKit          3D

 32 32  0  0  1  0  0  0  0  0999 V2000
   34.2245  -26.4559  -17.4939 N   0  0  0  0  0  0  0  0  0  0  0  0
   33.0081  -27.0285  -17.9459 C   0  0  0  0  0  0  0  0  0  0  0  0
   32.6944  -28.2855  -17.7213 N   0  0  0  0  0  0  0  0  0  0  0  0
   32.0443  -26.3026  -18.6805 N   0  0  0  0  0  0  0  0  0  0  0  0
   32.0963  -24.8832  -18.8875 C   0  0  0  0  0  0  0  0  0  0  0  0
   31.8288  -24.0469  -17.6879 C   0  0  0  0  0  0  0  0  0  0  0  0
   30.6258  -23.1938  -17.6853 C   0  0  0  0  0  0  0  0  0  0  0  0
   29.4407  -23.7094  -16.9358 C   0  0  2  0  0  0  0  0  0  0  0  0
   28.8872  -24.9078  -17.5562 N   0  0  0  0  0  0  0  0  0  0  0  0
   28.3700  -22.6824  -16.8167 C   0  0  0  0  0  0  0  0  0  0  0  0
   28.5623  -21.5312  -16.3555 O   0  0  0  0  0  0  0  0  0  0  0  0
   31.7880  -28.5957  -18.1273 N   0  0  0  0  0  0  0  0  0  0  0  0
   27.0204  -22.9723  -17.2391 C   0  0  2  0  0  0  0  0  0  0  0  0
   25.9950  -21.9516  -17.1685 C   0  0  0  0  0  0  0  0  0  0  0  0
   25.1399  -22.0538  -18.4055 C   0  0  0  0  0  0  0  0  0  0  0  0
   24.0876  -21.0161  -18.4608 O   0  0  0  0  0  0  0  0  0  0  0  0
   23.0392  -21.0893  -19.1449 C   0  0  0  0  0  0  0  0  0  0  0  0
   25.1932  -22.1309  -15.9217 O   0  0  0  0  0  0  0  0  0  0  0  0
   24.7927  -23.2785  -15.5997 O   0  0  0  0  0  0  0  0  0  0  0  0
   24.2310  -19.8367  -17.7023 O   0  0  0  0  0  0  0  0  0  0  0  0
   21.7942  -20.4821   -7.9180 C   0  0  0  0  0  0  0  0  0  0  0  0
   22.4558  -20.3885   -9.1493 C   0  0  0  0  0  0  0  0  0  0  0  0
   21.8139  -19.9055  -10.2684 C   0  0  0  0  0  0  0  0  0  0  0  0
   22.4731  -19.8114  -11.4980 C   0  0  0  0  0  0  0  0  0  0  0  0
   23.7852  -20.2097  -11.5858 C   0  0  0  0  0  0  0  0  0  0  0  0
   24.4860  -20.1134  -12.8758 C   0  0  2  0  0  0  0  0  0  0  0  0
   24.1129  -21.1898  -13.8483 N   0  0  0  0  0  0  0  0  0  0  0  0
   24.8589  -21.0592  -15.0760 C   0  0  0  0  0  0  0  0  0  0  0  0
   22.6364  -21.1644  -14.1038 O   0  0  0  0  0  0  0  0  0  0  0  0
   21.7922  -21.9032  -13.3141 C   0  0  0  0  0  0  0  0  0  0  0  0
   24.4090  -20.6937  -10.4395 C   0  0  0  0  0  0  0  0  0  0  0  0
   23.7751  -20.7926   -9.2223 O   0  0  0  0  0  0  0  0  0  0  0  0
  2  3  2  0
  2  1  1  0
  4  2  1  0
  5  4  1  0
  6  5  1  0
  7  6  1  0
  8  7  1  0
  8  9  1  6
 10 11  2  0
 10  8  1  0
 12 10  1  0
 13 17  1  0
 13 12  1  0
 13 14  1  6
 15 16  2  0
 15 14  1  0
 17 18  2  0
 19 15  1  0
 20 21  1  0
 21 31  2  0
 22 23  2  0
 22 21  1  0
 23 24  1  0
 24 25  1  0
 24 30  2  0
 26 25  1  1
 27 26  1  0
 27 17  1  0
 28 26  1  0
 29 28  1  0
 31 30  1  0
 32 28  2  0
M  END
$$$$
