RDY.pdb
     RDKit          3D

 32 32  0  0  1  0  0  0  0  0999 V2000
   30.1347  -25.2443  -16.6109 N   0  0  0  0  0  0  0  0  0  0  0  0
   30.7044  -24.2003  -17.3837 C   0  0  0  0  0  0  0  0  0  0  0  0
   31.7797  -24.3745  -18.1201 N   0  0  0  0  0  0  0  0  0  0  0  0
   30.1732  -22.8917  -17.4165 N   0  0  0  0  0  0  0  0  0  0  0  0
   28.8294  -22.5624  -17.0343 C   0  0  0  0  0  0  0  0  0  0  0  0
   27.8092  -22.6684  -18.1104 C   0  0  0  0  0  0  0  0  0  0  0  0
   26.4267  -22.2550  -17.8054 C   0  0  0  0  0  0  0  0  0  0  0  0
   26.1597  -21.7859  -16.4123 C   0  0  2  0  0  0  0  0  0  0  0  0
   26.7484  -22.6768  -15.4188 N   0  0  0  0  0  0  0  0  0  0  0  0
   24.7023  -21.6491  -16.1430 C   0  0  0  0  0  0  0  0  0  0  0  0
   23.9110  -21.0416  -16.9042 O   0  0  0  0  0  0  0  0  0  0  0  0
   32.1099  -23.5295  -18.6296 N   0  0  0  0  0  0  0  0  0  0  0  0
   24.1146  -22.2266  -14.9576 C   0  0  1  0  0  0  0  0  0  0  0  0
   22.6902  -22.1175  -14.7180 C   0  0  0  0  0  0  0  0  0  0  0  0
   22.3258  -23.0571  -13.5972 C   0  0  0  0  0  0  0  0  0  0  0  0
   21.1591  -23.9068  -13.9196 O   0  0  0  0  0  0  0  0  0  0  0  0
   20.7299  -24.8427  -13.2038 C   0  0  0  0  0  0  0  0  0  0  0  0
   22.3428  -20.7023  -14.3926 O   0  0  0  0  0  0  0  0  0  0  0  0
   23.2196  -19.8071  -14.4970 O   0  0  0  0  0  0  0  0  0  0  0  0
   20.4433  -23.6843  -15.1133 O   0  0  0  0  0  0  0  0  0  0  0  0
   24.7866  -15.2588  -17.0973 C   0  0  0  0  0  0  0  0  0  0  0  0
   23.7249  -16.0906  -16.7183 C   0  0  0  0  0  0  0  0  0  0  0  0
   23.9517  -17.2874  -16.0752 C   0  0  0  0  0  0  0  0  0  0  0  0
   22.8930  -18.1186  -15.6962 C   0  0  0  0  0  0  0  0  0  0  0  0
   21.6046  -17.7292  -15.9733 C   0  0  0  0  0  0  0  0  0  0  0  0
   20.4852  -18.5979  -15.5774 C   0  0  2  0  0  0  0  0  0  0  0  0
   20.5086  -18.9935  -14.1329 N   0  0  0  0  0  0  0  0  0  0  0  0
   21.0598  -20.3163  -13.9677 C   0  0  0  0  0  0  0  0  0  0  0  0
   19.1306  -18.9019  -13.5510 O   0  0  0  0  0  0  0  0  0  0  0  0
   18.6308  -17.6846  -13.1629 C   0  0  0  0  0  0  0  0  0  0  0  0
   21.4047  -16.5152  -16.6239 C   0  0  0  0  0  0  0  0  0  0  0  0
   22.4349  -15.6858  -17.0033 O   0  0  0  0  0  0  0  0  0  0  0  0
  2  3  2  0
  2  1  1  0
  4  2  1  0
  5  4  1  0
  6  5  1  0
  7  6  1  0
  8  7  1  0
  8  9  1  1
 10 11  2  0
 10  8  1  0
 12 10  1  0
 13 17  1  0
 13 12  1  0
 13 14  1  6
 15 16  2  0
 15 14  1  0
 17 18  2  0
 19 15  1  0
 20 21  1  0
 21 31  2  0
 22 23  2  0
 22 21  1  0
 23 24  1  0
 24 25  1  0
 24 30  2  0
 26 25  1  1
 27 26  1  0
 27 17  1  0
 28 26  1  0
 29 28  1  0
 31 30  1  0
 32 28  2  0
M  END
$$$$
