RDY.pdb
     RDKit          3D

 32 32  0  0  1  0  0  0  0  0999 V2000
   34.3182  -16.7087  -22.6762 N   0  0  0  0  0  0  0  0  0  0  0  0
   33.5732  -15.6881  -23.3206 C   0  0  0  0  0  0  0  0  0  0  0  0
   33.3012  -15.7190  -24.6067 N   0  0  0  0  0  0  0  0  0  0  0  0
   33.0751  -14.5550  -22.6398 N   0  0  0  0  0  0  0  0  0  0  0  0
   33.2035  -14.3493  -21.2251 C   0  0  0  0  0  0  0  0  0  0  0  0
   32.0303  -13.7291  -20.5550 C   0  0  0  0  0  0  0  0  0  0  0  0
   32.0670  -13.5688  -19.0894 C   0  0  0  0  0  0  0  0  0  0  0  0
   30.8932  -12.8918  -18.4601 C   0  0  2  0  0  0  0  0  0  0  0  0
   29.6383  -13.2878  -19.0892 N   0  0  0  0  0  0  0  0  0  0  0  0
   31.0168  -11.4093  -18.5078 C   0  0  0  0  0  0  0  0  0  0  0  0
   32.1067  -10.8099  -18.6740 O   0  0  0  0  0  0  0  0  0  0  0  0
   32.7400  -14.9175  -24.9606 N   0  0  0  0  0  0  0  0  0  0  0  0
   29.8533  -10.5677  -18.3606 C   0  0  1  0  0  0  0  0  0  0  0  0
   29.9722   -9.1278  -18.4644 C   0  0  0  0  0  0  0  0  0  0  0  0
   28.5873   -8.5344  -18.4204 C   0  0  0  0  0  0  0  0  0  0  0  0
   27.7876   -8.8589  -19.6213 O   0  0  0  0  0  0  0  0  0  0  0  0
   26.6582   -9.4036  -19.6089 C   0  0  0  0  0  0  0  0  0  0  0  0
   30.8329   -8.6141  -17.3577 O   0  0  0  0  0  0  0  0  0  0  0  0
   30.7612   -9.1411  -16.2184 O   0  0  0  0  0  0  0  0  0  0  0  0
   28.2936   -8.5503  -20.9002 O   0  0  0  0  0  0  0  0  0  0  0  0
   38.4414   -7.3427  -13.5566 C   0  0  0  0  0  0  0  0  0  0  0  0
   37.2634   -7.6150  -14.2642 C   0  0  0  0  0  0  0  0  0  0  0  0
   36.0290   -7.5041  -13.6630 C   0  0  0  0  0  0  0  0  0  0  0  0
   34.8523   -7.7754  -14.3681 C   0  0  0  0  0  0  0  0  0  0  0  0
   34.9350   -8.1597  -15.6848 C   0  0  0  0  0  0  0  0  0  0  0  0
   33.7016   -8.4465  -16.4338 C   0  0  1  0  0  0  0  0  0  0  0  0
   32.8247   -7.2491  -16.6356 N   0  0  0  0  0  0  0  0  0  0  0  0
   31.7355   -7.5507  -17.5320 C   0  0  0  0  0  0  0  0  0  0  0  0
   33.6372   -6.0937  -17.1364 O   0  0  0  0  0  0  0  0  0  0  0  0
   33.6133   -5.7663  -18.4684 C   0  0  0  0  0  0  0  0  0  0  0  0
   36.1950   -8.2636  -16.2669 C   0  0  0  0  0  0  0  0  0  0  0  0
   37.3622   -8.0002  -15.5875 O   0  0  0  0  0  0  0  0  0  0  0  0
  2  3  2  0
  2  1  1  0
  4  2  1  0
  5  4  1  0
  6  5  1  0
  7  6  1  0
  8  7  1  0
  8  9  1  6
 10 11  2  0
 10  8  1  0
 12 10  1  0
 13 17  1  0
 13 12  1  0
 13 14  1  6
 15 16  2  0
 15 14  1  0
 17 18  2  0
 19 15  1  0
 20 21  1  0
 21 31  2  0
 22 23  2  0
 22 21  1  0
 23 24  1  0
 24 25  1  0
 24 30  2  0
 26 25  1  1
 27 26  1  0
 27 17  1  0
 28 26  1  0
 29 28  1  0
 31 30  1  0
 32 28  2  0
M  END
$$$$
