RDY.pdb
     RDKit          3D

 32 32  0  0  1  0  0  0  0  0999 V2000
   13.7683  -13.5575  -16.1575 N   0  0  0  0  0  0  0  0  0  0  0  0
   14.4940  -14.7743  -16.2242 C   0  0  0  0  0  0  0  0  0  0  0  0
   14.0465  -15.8919  -15.6955 N   0  0  0  0  0  0  0  0  0  0  0  0
   15.7556  -14.8823  -16.8506 N   0  0  0  0  0  0  0  0  0  0  0  0
   16.4703  -13.7705  -17.4105 C   0  0  0  0  0  0  0  0  0  0  0  0
   17.7954  -14.0895  -18.0041 C   0  0  0  0  0  0  0  0  0  0  0  0
   18.5626  -12.9956  -18.6285 C   0  0  0  0  0  0  0  0  0  0  0  0
   19.5682  -12.3053  -17.7658 C   0  0  2  0  0  0  0  0  0  0  0  0
   19.6733  -12.9291  -16.4516 N   0  0  0  0  0  0  0  0  0  0  0  0
   19.2551  -10.8601  -17.5968 C   0  0  0  0  0  0  0  0  0  0  0  0
   19.2121  -10.0444  -18.5494 O   0  0  0  0  0  0  0  0  0  0  0  0
   14.6911  -16.7056  -15.7668 N   0  0  0  0  0  0  0  0  0  0  0  0
   18.9782  -10.3141  -16.2895 C   0  0  1  0  0  0  0  0  0  0  0  0
   18.7050   -8.9007  -16.1282 C   0  0  0  0  0  0  0  0  0  0  0  0
   17.8407   -8.7224  -14.9063 C   0  0  0  0  0  0  0  0  0  0  0  0
   17.4864   -7.3082  -14.6578 O   0  0  0  0  0  0  0  0  0  0  0  0
   17.8584   -6.3384  -15.3603 C   0  0  0  0  0  0  0  0  0  0  0  0
   19.9911   -8.1507  -16.0140 O   0  0  0  0  0  0  0  0  0  0  0  0
   21.0604   -8.7782  -15.8047 O   0  0  0  0  0  0  0  0  0  0  0  0
   16.6694   -6.9772  -13.5579 O   0  0  0  0  0  0  0  0  0  0  0  0
   26.9289   -3.3298  -17.5805 C   0  0  0  0  0  0  0  0  0  0  0  0
   25.7554   -4.0903  -17.4969 C   0  0  0  0  0  0  0  0  0  0  0  0
   24.7605   -3.9721  -18.4423 C   0  0  0  0  0  0  0  0  0  0  0  0
   23.5887   -4.7307  -18.3602 C   0  0  0  0  0  0  0  0  0  0  0  0
   23.4321   -5.6087  -17.3148 C   0  0  0  0  0  0  0  0  0  0  0  0
   22.2024   -6.4109  -17.2215 C   0  0  1  0  0  0  0  0  0  0  0  0
   21.2917   -5.9940  -16.1077 N   0  0  0  0  0  0  0  0  0  0  0  0
   20.0646   -6.7520  -16.1316 C   0  0  0  0  0  0  0  0  0  0  0  0
   21.0232   -4.5217  -16.1852 O   0  0  0  0  0  0  0  0  0  0  0  0
   19.9535   -4.0580  -16.9084 C   0  0  0  0  0  0  0  0  0  0  0  0
   24.4532   -5.7079  -16.3742 C   0  0  0  0  0  0  0  0  0  0  0  0
   25.6121   -4.9691  -16.4403 O   0  0  0  0  0  0  0  0  0  0  0  0
  2  3  2  0
  2  1  1  0
  4  2  1  0
  5  4  1  0
  6  5  1  0
  7  6  1  0
  8  7  1  0
  8  9  1  1
 10 11  2  0
 10  8  1  0
 12 10  1  0
 13 17  1  0
 13 12  1  0
 13 14  1  6
 15 16  2  0
 15 14  1  0
 17 18  2  0
 19 15  1  0
 20 21  1  0
 21 31  2  0
 22 23  2  0
 22 21  1  0
 23 24  1  0
 24 25  1  0
 24 30  2  0
 26 25  1  1
 27 26  1  0
 27 17  1  0
 28 26  1  0
 29 28  1  0
 31 30  1  0
 32 28  2  0
M  END
$$$$
