RDY.pdb
     RDKit          3D

 32 32  0  0  1  0  0  0  0  0999 V2000
   28.9289  -28.8241  -15.8340 N   0  0  0  0  0  0  0  0  0  0  0  0
   27.6864  -28.3449  -16.3223 C   0  0  0  0  0  0  0  0  0  0  0  0
   26.5470  -28.9468  -16.0611 N   0  0  0  0  0  0  0  0  0  0  0  0
   27.5729  -27.1948  -17.1347 N   0  0  0  0  0  0  0  0  0  0  0  0
   28.6951  -26.4788  -17.6716 C   0  0  0  0  0  0  0  0  0  0  0  0
   29.4378  -25.6271  -16.7057 C   0  0  0  0  0  0  0  0  0  0  0  0
   28.7590  -24.4384  -16.1567 C   0  0  0  0  0  0  0  0  0  0  0  0
   28.2212  -23.4572  -17.1467 C   0  0  2  0  0  0  0  0  0  0  0  0
   29.2816  -22.8709  -17.9586 N   0  0  0  0  0  0  0  0  0  0  0  0
   27.4528  -22.3672  -16.4859 C   0  0  0  0  0  0  0  0  0  0  0  0
   27.9807  -21.3206  -16.0378 O   0  0  0  0  0  0  0  0  0  0  0  0
   25.7155  -28.5522  -16.5464 N   0  0  0  0  0  0  0  0  0  0  0  0
   26.0217  -22.4672  -16.3253 C   0  0  2  0  0  0  0  0  0  0  0  0
   25.2319  -21.2870  -16.0395 C   0  0  0  0  0  0  0  0  0  0  0  0
   25.4581  -20.2873  -17.1446 C   0  0  0  0  0  0  0  0  0  0  0  0
   24.7085  -19.0290  -16.9399 O   0  0  0  0  0  0  0  0  0  0  0  0
   24.2121  -18.3295  -17.8546 C   0  0  0  0  0  0  0  0  0  0  0  0
   23.7924  -21.6640  -15.9165 O   0  0  0  0  0  0  0  0  0  0  0  0
   23.0994  -21.8191  -16.9542 O   0  0  0  0  0  0  0  0  0  0  0  0
   24.5119  -18.5395  -15.6328 O   0  0  0  0  0  0  0  0  0  0  0  0
   17.6187  -16.8459  -12.4369 C   0  0  0  0  0  0  0  0  0  0  0  0
   18.7645  -17.5972  -12.7288 C   0  0  0  0  0  0  0  0  0  0  0  0
   19.6535  -17.1930  -13.7002 C   0  0  0  0  0  0  0  0  0  0  0  0
   20.7977  -17.9418  -13.9925 C   0  0  0  0  0  0  0  0  0  0  0  0
   21.0344  -19.1016  -13.2946 C   0  0  0  0  0  0  0  0  0  0  0  0
   22.2362  -19.8949  -13.5957 C   0  0  1  0  0  0  0  0  0  0  0  0
   21.9452  -21.2029  -14.2651 N   0  0  0  0  0  0  0  0  0  0  0  0
   23.1639  -21.8572  -14.6741 C   0  0  0  0  0  0  0  0  0  0  0  0
   21.0239  -20.9927  -15.4283 O   0  0  0  0  0  0  0  0  0  0  0  0
   21.4473  -20.2705  -16.5152 C   0  0  0  0  0  0  0  0  0  0  0  0
   20.1196  -19.4861  -12.3186 C   0  0  0  0  0  0  0  0  0  0  0  0
   18.9894  -18.7610  -12.0187 O   0  0  0  0  0  0  0  0  0  0  0  0
  2  3  2  0
  2  1  1  0
  4  2  1  0
  5  4  1  0
  6  5  1  0
  7  6  1  0
  8  7  1  0
  8  9  1  1
 10 11  2  0
 10  8  1  0
 12 10  1  0
 13 17  1  0
 13 12  1  0
 13 14  1  6
 15 16  2  0
 15 14  1  0
 17 18  2  0
 19 15  1  0
 20 21  1  0
 21 31  2  0
 22 23  2  0
 22 21  1  0
 23 24  1  0
 24 25  1  0
 24 30  2  0
 26 25  1  1
 27 26  1  0
 27 17  1  0
 28 26  1  0
 29 28  1  0
 31 30  1  0
 32 28  2  0
M  END
$$$$
