RDY.pdb
     RDKit          3D

 32 32  0  0  1  0  0  0  0  0999 V2000
   14.4567  -12.8239  -18.5597 N   0  0  0  0  0  0  0  0  0  0  0  0
   14.5995  -14.0111  -17.7968 C   0  0  0  0  0  0  0  0  0  0  0  0
   14.1425  -15.1731  -18.2089 N   0  0  0  0  0  0  0  0  0  0  0  0
   15.2307  -14.0404  -16.5333 N   0  0  0  0  0  0  0  0  0  0  0  0
   14.8334  -13.2264  -15.4199 C   0  0  0  0  0  0  0  0  0  0  0  0
   15.5169  -13.5179  -14.1323 C   0  0  0  0  0  0  0  0  0  0  0  0
   16.3425  -12.4580  -13.5241 C   0  0  0  0  0  0  0  0  0  0  0  0
   15.6562  -11.1665  -13.2188 C   0  0  2  0  0  0  0  0  0  0  0  0
   15.0100  -10.6046  -14.3995 N   0  0  0  0  0  0  0  0  0  0  0  0
   16.5944  -10.1607  -12.6504 C   0  0  0  0  0  0  0  0  0  0  0  0
   17.2752  -10.3558  -11.6144 O   0  0  0  0  0  0  0  0  0  0  0  0
   14.4898  -15.4813  -19.1401 N   0  0  0  0  0  0  0  0  0  0  0  0
   16.7696   -8.8755  -13.2841 C   0  0  2  0  0  0  0  0  0  0  0  0
   17.7083   -7.9136  -12.7439 C   0  0  0  0  0  0  0  0  0  0  0  0
   18.5841   -7.4242  -13.8687 C   0  0  0  0  0  0  0  0  0  0  0  0
   19.6495   -8.3863  -14.2243 O   0  0  0  0  0  0  0  0  0  0  0  0
   20.5787   -8.7458  -13.4629 C   0  0  0  0  0  0  0  0  0  0  0  0
   16.9628   -6.7959  -12.0925 O   0  0  0  0  0  0  0  0  0  0  0  0
   16.2254   -6.0519  -12.7880 O   0  0  0  0  0  0  0  0  0  0  0  0
   19.6619   -8.9699  -15.5073 O   0  0  0  0  0  0  0  0  0  0  0  0
   12.1630   -9.6227   -7.6759 C   0  0  0  0  0  0  0  0  0  0  0  0
   12.8477   -8.5935   -8.3350 C   0  0  0  0  0  0  0  0  0  0  0  0
   13.7289   -8.8649   -9.3583 C   0  0  0  0  0  0  0  0  0  0  0  0
   14.4130   -7.8386  -10.0171 C   0  0  0  0  0  0  0  0  0  0  0  0
   14.1983   -6.5371   -9.6322 C   0  0  0  0  0  0  0  0  0  0  0  0
   14.9137   -5.4514  -10.3207 C   0  0  1  0  0  0  0  0  0  0  0  0
   16.3872   -5.4329  -10.0522 N   0  0  0  0  0  0  0  0  0  0  0  0
   17.0476   -6.5311  -10.7147 C   0  0  0  0  0  0  0  0  0  0  0  0
   16.6423   -5.4559   -8.5756 O   0  0  0  0  0  0  0  0  0  0  0  0
   16.1237   -4.4692   -7.7759 C   0  0  0  0  0  0  0  0  0  0  0  0
   13.3026   -6.2918   -8.5955 C   0  0  0  0  0  0  0  0  0  0  0  0
   12.6215   -7.2897   -7.9372 O   0  0  0  0  0  0  0  0  0  0  0  0
  2  3  2  0
  2  1  1  0
  4  2  1  0
  5  4  1  0
  6  5  1  0
  7  6  1  0
  8  7  1  0
  8  9  1  6
 10 11  2  0
 10  8  1  0
 12 10  1  0
 13 17  1  0
 13 12  1  0
 13 14  1  1
 15 16  2  0
 15 14  1  0
 17 18  2  0
 19 15  1  0
 20 21  1  0
 21 31  2  0
 22 23  2  0
 22 21  1  0
 23 24  1  0
 24 25  1  0
 24 30  2  0
 26 25  1  6
 27 26  1  0
 27 17  1  0
 28 26  1  0
 29 28  1  0
 31 30  1  0
 32 28  2  0
M  END
$$$$
