RDY.pdb
     RDKit          3D

 32 32  0  0  1  0  0  0  0  0999 V2000
   20.5819  -15.1286  -22.5434 N   0  0  0  0  0  0  0  0  0  0  0  0
   21.3089  -15.5592  -21.4042 C   0  0  0  0  0  0  0  0  0  0  0  0
   22.2481  -14.8256  -20.8486 N   0  0  0  0  0  0  0  0  0  0  0  0
   21.0931  -16.8096  -20.7834 N   0  0  0  0  0  0  0  0  0  0  0  0
   19.9285  -17.6207  -20.9980 C   0  0  0  0  0  0  0  0  0  0  0  0
   18.9744  -17.6922  -19.8602 C   0  0  0  0  0  0  0  0  0  0  0  0
   18.9167  -18.9388  -19.0743 C   0  0  0  0  0  0  0  0  0  0  0  0
   19.4995  -18.8914  -17.6994 C   0  0  2  0  0  0  0  0  0  0  0  0
   20.0020  -17.5624  -17.3699 N   0  0  0  0  0  0  0  0  0  0  0  0
   20.5949  -19.8842  -17.5269 C   0  0  0  0  0  0  0  0  0  0  0  0
   20.4390  -21.1206  -17.6743 O   0  0  0  0  0  0  0  0  0  0  0  0
   22.7755  -15.2880  -20.0801 N   0  0  0  0  0  0  0  0  0  0  0  0
   21.9272  -19.4571  -17.1713 C   0  0  2  0  0  0  0  0  0  0  0  0
   22.9400  -20.4314  -16.8201 C   0  0  0  0  0  0  0  0  0  0  0  0
   24.2024  -20.0932  -17.5710 C   0  0  0  0  0  0  0  0  0  0  0  0
   24.0485  -20.2227  -19.0361 O   0  0  0  0  0  0  0  0  0  0  0  0
   23.5079  -21.1914  -19.6207 C   0  0  0  0  0  0  0  0  0  0  0  0
   23.1529  -20.4237  -15.3422 O   0  0  0  0  0  0  0  0  0  0  0  0
   23.2015  -19.3284  -14.7267 O   0  0  0  0  0  0  0  0  0  0  0  0
   24.5318  -19.2028  -19.8806 O   0  0  0  0  0  0  0  0  0  0  0  0
   25.9203  -20.8913   -7.2734 C   0  0  0  0  0  0  0  0  0  0  0  0
   25.6743  -20.9565   -8.6510 C   0  0  0  0  0  0  0  0  0  0  0  0
   26.6784  -21.2702   -9.5403 C   0  0  0  0  0  0  0  0  0  0  0  0
   26.4343  -21.3357  -10.9156 C   0  0  0  0  0  0  0  0  0  0  0  0
   25.1673  -21.0814  -11.3829 C   0  0  0  0  0  0  0  0  0  0  0  0
   24.9021  -21.1488  -12.8284 C   0  0  1  0  0  0  0  0  0  0  0  0
   23.5297  -21.6429  -13.1688 N   0  0  0  0  0  0  0  0  0  0  0  0
   23.3041  -21.6034  -14.5931 C   0  0  0  0  0  0  0  0  0  0  0  0
   22.4971  -20.8446  -12.4323 O   0  0  0  0  0  0  0  0  0  0  0  0
   21.8294  -21.4020  -11.3714 C   0  0  0  0  0  0  0  0  0  0  0  0
   24.1721  -20.7670  -10.4621 C   0  0  0  0  0  0  0  0  0  0  0  0
   24.3954  -20.6985   -9.1062 O   0  0  0  0  0  0  0  0  0  0  0  0
  2  3  2  0
  2  1  1  0
  4  2  1  0
  5  4  1  0
  6  5  1  0
  7  6  1  0
  8  7  1  0
  8  9  1  6
 10 11  2  0
 10  8  1  0
 12 10  1  0
 13 17  1  0
 13 12  1  0
 13 14  1  6
 15 16  2  0
 15 14  1  0
 17 18  2  0
 19 15  1  0
 20 21  1  0
 21 31  2  0
 22 23  2  0
 22 21  1  0
 23 24  1  0
 24 25  1  0
 24 30  2  0
 26 25  1  6
 27 26  1  0
 27 17  1  0
 28 26  1  0
 29 28  1  0
 31 30  1  0
 32 28  2  0
M  END
$$$$
