RDY.pdb
     RDKit          3D

 32 32  0  0  1  0  0  0  0  0999 V2000
   27.7330  -27.9629  -18.7222 N   0  0  0  0  0  0  0  0  0  0  0  0
   27.2578  -28.4515  -17.4783 C   0  0  0  0  0  0  0  0  0  0  0  0
   27.8186  -29.4669  -16.8592 N   0  0  0  0  0  0  0  0  0  0  0  0
   26.1421  -27.8980  -16.8117 N   0  0  0  0  0  0  0  0  0  0  0  0
   25.5773  -26.6157  -17.1232 C   0  0  0  0  0  0  0  0  0  0  0  0
   26.5554  -25.5327  -17.4070 C   0  0  0  0  0  0  0  0  0  0  0  0
   26.7946  -24.5168  -16.3650 C   0  0  0  0  0  0  0  0  0  0  0  0
   25.5950  -24.0201  -15.6258 C   0  0  2  0  0  0  0  0  0  0  0  0
   24.5959  -23.4601  -16.5289 N   0  0  0  0  0  0  0  0  0  0  0  0
   25.9563  -22.9997  -14.6042 C   0  0  0  0  0  0  0  0  0  0  0  0
   27.0237  -23.0270  -13.9450 O   0  0  0  0  0  0  0  0  0  0  0  0
   27.3512  -29.7618  -15.9775 N   0  0  0  0  0  0  0  0  0  0  0  0
   25.0682  -21.8987  -14.3163 C   0  0  1  0  0  0  0  0  0  0  0  0
   25.4161  -20.9214  -13.3052 C   0  0  0  0  0  0  0  0  0  0  0  0
   24.8373  -19.5911  -13.7141 C   0  0  0  0  0  0  0  0  0  0  0  0
   25.0050  -19.3135  -15.1570 O   0  0  0  0  0  0  0  0  0  0  0  0
   26.0795  -19.4303  -15.7927 C   0  0  0  0  0  0  0  0  0  0  0  0
   24.9003  -21.3679  -11.9770 O   0  0  0  0  0  0  0  0  0  0  0  0
   23.6656  -21.3256  -11.7433 O   0  0  0  0  0  0  0  0  0  0  0  0
   23.8991  -18.8820  -15.9170 O   0  0  0  0  0  0  0  0  0  0  0  0
   27.6363  -18.2399   -4.2939 C   0  0  0  0  0  0  0  0  0  0  0  0
   27.4956  -18.7829   -5.5776 C   0  0  0  0  0  0  0  0  0  0  0  0
   28.3153  -18.3886   -6.6120 C   0  0  0  0  0  0  0  0  0  0  0  0
   28.1761  -18.9298   -7.8938 C   0  0  0  0  0  0  0  0  0  0  0  0
   27.2017  -19.8720   -8.1199 C   0  0  0  0  0  0  0  0  0  0  0  0
   27.0491  -20.4467   -9.4656 C   0  0  2  0  0  0  0  0  0  0  0  0
   25.8158  -21.2807   -9.6305 N   0  0  0  0  0  0  0  0  0  0  0  0
   25.7442  -21.8415  -10.9576 C   0  0  0  0  0  0  0  0  0  0  0  0
   24.5973  -20.4662   -9.3178 O   0  0  0  0  0  0  0  0  0  0  0  0
   23.7929  -20.8151   -8.2626 C   0  0  0  0  0  0  0  0  0  0  0  0
   26.3878  -20.2519   -7.0567 C   0  0  0  0  0  0  0  0  0  0  0  0
   26.5116  -19.7295   -5.7898 O   0  0  0  0  0  0  0  0  0  0  0  0
  2  3  2  0
  2  1  1  0
  4  2  1  0
  5  4  1  0
  6  5  1  0
  7  6  1  0
  8  7  1  0
  8  9  1  6
 10 11  2  0
 10  8  1  0
 12 10  1  0
 13 17  1  0
 13 12  1  0
 13 14  1  1
 15 16  2  0
 15 14  1  0
 17 18  2  0
 19 15  1  0
 20 21  1  0
 21 31  2  0
 22 23  2  0
 22 21  1  0
 23 24  1  0
 24 25  1  0
 24 30  2  0
 26 25  1  1
 27 26  1  0
 27 17  1  0
 28 26  1  0
 29 28  1  0
 31 30  1  0
 32 28  2  0
M  END
$$$$
