RDY.pdb
     RDKit          3D

 32 32  0  0  1  0  0  0  0  0999 V2000
   18.3715  -15.3350  -19.5283 N   0  0  0  0  0  0  0  0  0  0  0  0
   19.4442  -14.4293  -19.7296 C   0  0  0  0  0  0  0  0  0  0  0  0
   19.5025  -13.6253  -20.7684 N   0  0  0  0  0  0  0  0  0  0  0  0
   20.5380  -14.3253  -18.8416 N   0  0  0  0  0  0  0  0  0  0  0  0
   20.8793  -15.3250  -17.8698 C   0  0  0  0  0  0  0  0  0  0  0  0
   21.8548  -16.3532  -18.3185 C   0  0  0  0  0  0  0  0  0  0  0  0
   21.6355  -17.7517  -17.9048 C   0  0  0  0  0  0  0  0  0  0  0  0
   20.8551  -17.9641  -16.6485 C   0  0  2  0  0  0  0  0  0  0  0  0
   20.9785  -16.8325  -15.7367 N   0  0  0  0  0  0  0  0  0  0  0  0
   21.2685  -19.2075  -15.9424 C   0  0  0  0  0  0  0  0  0  0  0  0
   21.3467  -20.3283  -16.5013 O   0  0  0  0  0  0  0  0  0  0  0  0
   20.3470  -13.0191  -20.8131 N   0  0  0  0  0  0  0  0  0  0  0  0
   21.6086  -19.1800  -14.5398 C   0  0  1  0  0  0  0  0  0  0  0  0
   21.9716  -20.4006  -13.8495 C   0  0  0  0  0  0  0  0  0  0  0  0
   23.2387  -20.1465  -13.0737 C   0  0  0  0  0  0  0  0  0  0  0  0
   23.7171  -21.3449  -12.3511 O   0  0  0  0  0  0  0  0  0  0  0  0
   23.8361  -22.4882  -12.8520 C   0  0  0  0  0  0  0  0  0  0  0  0
   20.8507  -20.8266  -12.9598 O   0  0  0  0  0  0  0  0  0  0  0  0
   20.2005  -19.9606  -12.3208 O   0  0  0  0  0  0  0  0  0  0  0  0
   24.0785  -21.2417  -10.9926 O   0  0  0  0  0  0  0  0  0  0  0  0
   16.5841  -24.4757   -6.4433 C   0  0  0  0  0  0  0  0  0  0  0  0
   17.4213  -23.9420   -7.4315 C   0  0  0  0  0  0  0  0  0  0  0  0
   18.7346  -24.3418   -7.5452 C   0  0  0  0  0  0  0  0  0  0  0  0
   19.5715  -23.8100   -8.5312 C   0  0  0  0  0  0  0  0  0  0  0  0
   19.0691  -22.8713   -9.4000 C   0  0  0  0  0  0  0  0  0  0  0  0
   19.9429  -22.3073  -10.4405 C   0  0  2  0  0  0  0  0  0  0  0  0
   19.5177  -22.6466  -11.8361 N   0  0  0  0  0  0  0  0  0  0  0  0
   20.4811  -22.1733  -12.7999 C   0  0  0  0  0  0  0  0  0  0  0  0
   18.1546  -22.0875  -12.1100 O   0  0  0  0  0  0  0  0  0  0  0  0
   17.0548  -22.6348  -11.4993 C   0  0  0  0  0  0  0  0  0  0  0  0
   17.7388  -22.4858   -9.2623 C   0  0  0  0  0  0  0  0  0  0  0  0
   16.9022  -22.9992   -8.2981 O   0  0  0  0  0  0  0  0  0  0  0  0
  2  3  2  0
  2  1  1  0
  4  2  1  0
  5  4  1  0
  6  5  1  0
  7  6  1  0
  8  7  1  0
  8  9  1  1
 10 11  2  0
 10  8  1  0
 12 10  1  0
 13 17  1  0
 13 12  1  0
 13 14  1  6
 15 16  2  0
 15 14  1  0
 17 18  2  0
 19 15  1  0
 20 21  1  0
 21 31  2  0
 22 23  2  0
 22 21  1  0
 23 24  1  0
 24 25  1  0
 24 30  2  0
 26 25  1  1
 27 26  1  0
 27 17  1  0
 28 26  1  0
 29 28  1  0
 31 30  1  0
 32 28  2  0
M  END
$$$$
