RDY.pdb
     RDKit          3D

 32 32  0  0  1  0  0  0  0  0999 V2000
   19.6778  -21.3980  -19.1243 N   0  0  0  0  0  0  0  0  0  0  0  0
   20.1613  -20.0777  -19.3105 C   0  0  0  0  0  0  0  0  0  0  0  0
   20.6178  -19.6507  -20.4673 N   0  0  0  0  0  0  0  0  0  0  0  0
   20.2030  -19.1218  -18.2713 N   0  0  0  0  0  0  0  0  0  0  0  0
   19.1429  -18.1954  -17.9913 C   0  0  0  0  0  0  0  0  0  0  0  0
   19.3443  -17.3259  -16.8025 C   0  0  0  0  0  0  0  0  0  0  0  0
   20.3358  -16.2378  -16.8928 C   0  0  0  0  0  0  0  0  0  0  0  0
   19.8341  -14.9120  -17.3647 C   0  0  2  0  0  0  0  0  0  0  0  0
   19.3320  -14.9787  -18.7325 N   0  0  0  0  0  0  0  0  0  0  0  0
   20.8836  -13.8600  -17.2806 C   0  0  0  0  0  0  0  0  0  0  0  0
   21.6522  -13.7249  -16.2979 O   0  0  0  0  0  0  0  0  0  0  0  0
   21.2156  -18.8004  -20.4217 N   0  0  0  0  0  0  0  0  0  0  0  0
   21.0711  -12.9183  -18.3586 C   0  0  1  0  0  0  0  0  0  0  0  0
   21.9796  -11.8004  -18.2057 C   0  0  0  0  0  0  0  0  0  0  0  0
   22.3150  -11.2724  -19.5771 C   0  0  0  0  0  0  0  0  0  0  0  0
   23.1860  -10.0780  -19.5329 O   0  0  0  0  0  0  0  0  0  0  0  0
   22.9104   -8.9664  -20.0435 C   0  0  0  0  0  0  0  0  0  0  0  0
   21.3491  -10.7550  -17.3460 O   0  0  0  0  0  0  0  0  0  0  0  0
   20.1164  -10.5284  -17.4458 O   0  0  0  0  0  0  0  0  0  0  0  0
   24.4317  -10.1476  -18.8770 O   0  0  0  0  0  0  0  0  0  0  0  0
   19.9327   -5.5501  -10.3766 C   0  0  0  0  0  0  0  0  0  0  0  0
   20.5245   -6.3699  -11.3462 C   0  0  0  0  0  0  0  0  0  0  0  0
   21.2322   -5.8321  -12.3987 C   0  0  0  0  0  0  0  0  0  0  0  0
   21.8235   -6.6491  -13.3672 C   0  0  0  0  0  0  0  0  0  0  0  0
   21.6930   -8.0130  -13.2622 C   0  0  0  0  0  0  0  0  0  0  0  0
   22.3127   -8.8796  -14.2769 C   0  0  2  0  0  0  0  0  0  0  0  0
   21.5067   -9.0121  -15.5325 N   0  0  0  0  0  0  0  0  0  0  0  0
   22.0809   -9.9989  -16.4141 C   0  0  0  0  0  0  0  0  0  0  0  0
   21.3866   -7.6811  -16.2107 O   0  0  0  0  0  0  0  0  0  0  0  0
   22.3738   -7.2554  -17.0629 C   0  0  0  0  0  0  0  0  0  0  0  0
   20.9728   -8.5290  -12.1888 C   0  0  0  0  0  0  0  0  0  0  0  0
   20.3850   -7.7394  -11.2274 O   0  0  0  0  0  0  0  0  0  0  0  0
  2  3  2  0
  2  1  1  0
  4  2  1  0
  5  4  1  0
  6  5  1  0
  7  6  1  0
  8  7  1  0
  8  9  1  6
 10 11  2  0
 10  8  1  0
 12 10  1  0
 13 17  1  0
 13 12  1  0
 13 14  1  1
 15 16  2  0
 15 14  1  0
 17 18  2  0
 19 15  1  0
 20 21  1  0
 21 31  2  0
 22 23  2  0
 22 21  1  0
 23 24  1  0
 24 25  1  0
 24 30  2  0
 26 25  1  1
 27 26  1  0
 27 17  1  0
 28 26  1  0
 29 28  1  0
 31 30  1  0
 32 28  2  0
M  END
$$$$
