RDY.pdb
     RDKit          3D

 32 32  0  0  1  0  0  0  0  0999 V2000
   29.7497  -17.6736  -20.2312 N   0  0  0  0  0  0  0  0  0  0  0  0
   29.0228  -18.8731  -20.0198 C   0  0  0  0  0  0  0  0  0  0  0  0
   28.3585  -19.4737  -20.9826 N   0  0  0  0  0  0  0  0  0  0  0  0
   28.9434  -19.5110  -18.7619 N   0  0  0  0  0  0  0  0  0  0  0  0
   29.3775  -18.9133  -17.5313 C   0  0  0  0  0  0  0  0  0  0  0  0
   28.5192  -17.8175  -17.0092 C   0  0  0  0  0  0  0  0  0  0  0  0
   28.0347  -17.9115  -15.6195 C   0  0  0  0  0  0  0  0  0  0  0  0
   27.9358  -19.2833  -15.0359 C   0  0  2  0  0  0  0  0  0  0  0  0
   27.7567  -20.2988  -16.0674 N   0  0  0  0  0  0  0  0  0  0  0  0
   26.8258  -19.3878  -14.0499 C   0  0  0  0  0  0  0  0  0  0  0  0
   26.7066  -18.6287  -13.0577 O   0  0  0  0  0  0  0  0  0  0  0  0
   27.8577  -20.3413  -20.7014 N   0  0  0  0  0  0  0  0  0  0  0  0
   25.8046  -20.3978  -14.1942 C   0  0  1  0  0  0  0  0  0  0  0  0
   24.7389  -20.5073  -13.2192 C   0  0  0  0  0  0  0  0  0  0  0  0
   23.5789  -21.2214  -13.8644 C   0  0  0  0  0  0  0  0  0  0  0  0
   22.4436  -21.4216  -12.9381 O   0  0  0  0  0  0  0  0  0  0  0  0
   21.5706  -22.3146  -13.0513 C   0  0  0  0  0  0  0  0  0  0  0  0
   25.2357  -21.2315  -12.0116 O   0  0  0  0  0  0  0  0  0  0  0  0
   26.2513  -21.9674  -12.1019 O   0  0  0  0  0  0  0  0  0  0  0  0
   22.2906  -20.5667  -11.8279 O   0  0  0  0  0  0  0  0  0  0  0  0
   29.0367  -20.0982   -4.4096 C   0  0  0  0  0  0  0  0  0  0  0  0
   28.3845  -20.1220   -5.6493 C   0  0  0  0  0  0  0  0  0  0  0  0
   27.6488  -19.0434   -6.0884 C   0  0  0  0  0  0  0  0  0  0  0  0
   26.9974  -19.0657   -7.3256 C   0  0  0  0  0  0  0  0  0  0  0  0
   27.0965  -20.1870   -8.1136 C   0  0  0  0  0  0  0  0  0  0  0  0
   26.4146  -20.2182   -9.4168 C   0  0  1  0  0  0  0  0  0  0  0  0
   25.3001  -21.2161   -9.4922 N   0  0  0  0  0  0  0  0  0  0  0  0
   24.6113  -21.1278  -10.7566 C   0  0  0  0  0  0  0  0  0  0  0  0
   24.3565  -21.0226   -8.3442 O   0  0  0  0  0  0  0  0  0  0  0  0
   23.2515  -20.2233   -8.4934 C   0  0  0  0  0  0  0  0  0  0  0  0
   27.8463  -21.2620   -7.6451 C   0  0  0  0  0  0  0  0  0  0  0  0
   28.4933  -21.2562   -6.4308 O   0  0  0  0  0  0  0  0  0  0  0  0
  2  3  2  0
  2  1  1  0
  4  2  1  0
  5  4  1  0
  6  5  1  0
  7  6  1  0
  8  7  1  0
  8  9  1  6
 10 11  2  0
 10  8  1  0
 12 10  1  0
 13 17  1  0
 13 12  1  0
 13 14  1  6
 15 16  2  0
 15 14  1  0
 17 18  2  0
 19 15  1  0
 20 21  1  0
 21 31  2  0
 22 23  2  0
 22 21  1  0
 23 24  1  0
 24 25  1  0
 24 30  2  0
 26 25  1  6
 27 26  1  0
 27 17  1  0
 28 26  1  0
 29 28  1  0
 31 30  1  0
 32 28  2  0
M  END
$$$$
