KLY.pdb
     RDKit          3D

 30 30  0  0  1  0  0  0  0  0999 V2000
   28.0261  -23.1967  -16.5332 N   0  0  0  0  0  0  0  0  0  0  0  0
   26.9969  -22.8107  -17.5174 C   0  0  1  0  0  0  0  0  0  0  0  0
   26.5804  -24.1154  -18.1545 C   0  0  0  0  0  0  0  0  0  0  0  0
   26.5535  -25.2219  -17.1688 C   0  0  0  0  0  0  0  0  0  0  0  0
   26.9320  -26.5575  -17.8081 C   0  0  0  0  0  0  0  0  0  0  0  0
   26.6672  -27.6809  -16.8590 C   0  0  0  0  0  0  0  0  0  0  0  0
   27.1394  -28.9138  -17.5137 N   0  0  0  0  0  0  0  0  0  0  0  0
   25.8590  -22.1792  -16.8467 C   0  0  0  0  0  0  0  0  0  0  0  0
   25.7683  -22.0330  -15.6067 O   0  0  0  0  0  0  0  0  0  0  0  0
   22.5730  -18.1202  -19.4205 C   0  0  0  0  0  0  0  0  0  0  0  0
   23.5916  -18.9013  -18.5509 C   0  0  1  0  0  0  0  0  0  0  0  0
   24.1370  -17.8747  -17.5462 C   0  0  0  0  0  0  0  0  0  0  0  0
   22.8972  -19.9790  -17.8071 C   0  0  0  0  0  0  0  0  0  0  0  0
   23.7129  -20.8951  -16.9737 C   0  0  2  0  0  0  0  0  0  0  0  0
   24.7240  -21.6645  -17.5927 N   0  0  0  0  0  0  0  0  0  0  0  0
   22.7579  -21.6993  -16.1509 C   0  0  0  0  0  0  0  0  0  0  0  0
   22.7306  -22.9416  -16.4375 O   0  0  0  0  0  0  0  0  0  0  0  0
   25.4593  -20.5059   -9.8019 O   0  0  0  0  0  0  0  0  0  0  0  0
   24.6318  -21.1115  -10.7226 C   0  0  0  0  0  0  0  0  0  0  0  0
   23.2710  -20.8263  -10.7065 C   0  0  0  0  0  0  0  0  0  0  0  0
   22.4467  -21.4445  -11.6407 C   0  0  0  0  0  0  0  0  0  0  0  0
   22.9496  -22.3244  -12.5714 C   0  0  0  0  0  0  0  0  0  0  0  0
   22.0617  -22.9740  -13.5503 C   0  0  0  0  0  0  0  0  0  0  0  0
   21.1424  -22.0460  -14.2715 C   0  0  2  0  0  0  0  0  0  0  0  0
   21.9372  -21.1709  -15.1336 N   0  0  0  0  0  0  0  0  0  0  0  0
   20.2919  -21.2263  -13.4036 C   0  0  0  0  0  0  0  0  0  0  0  0
   20.4094  -19.8489  -13.4335 O   0  0  0  0  0  0  0  0  0  0  0  0
   24.3128  -22.6152  -12.5942 C   0  0  0  0  0  0  0  0  0  0  0  0
   25.1239  -21.9955  -11.6612 C   0  0  0  0  0  0  0  0  0  0  0  0
   19.4333  -21.7183  -12.6055 O   0  0  0  0  0  0  0  0  0  0  0  0
  2  1  1  1
  3  2  1  0
  3  4  1  0
  5  4  1  0
  6  5  1  0
  7  6  1  0
  8  2  1  0
  8  9  2  0
 11 10  1  6
 11 13  1  0
 12 11  1  0
 14 13  1  6
 14 15  1  0
 15  8  1  0
 16 14  1  0
 17 16  2  0
 19 18  1  0
 20 19  2  0
 21 20  1  0
 22 28  1  0
 22 21  2  0
 23 22  1  0
 24 23  1  1
 24 25  1  0
 25 16  1  0
 26 24  1  0
 27 26  1  0
 28 29  2  0
 29 19  1  0
 30 26  2  0
M  END
$$$$
