KLY.pdb
     RDKit          3D

 30 30  0  0  1  0  0  0  0  0999 V2000
   28.3479  -21.7970  -16.0772 N   0  0  0  0  0  0  0  0  0  0  0  0
   27.3488  -20.7415  -15.8233 C   0  0  1  0  0  0  0  0  0  0  0  0
   26.8300  -20.3795  -17.1949 C   0  0  0  0  0  0  0  0  0  0  0  0
   27.8299  -19.6107  -17.9731 C   0  0  0  0  0  0  0  0  0  0  0  0
   28.4464  -20.4530  -19.0894 C   0  0  0  0  0  0  0  0  0  0  0  0
   29.4050  -19.6326  -19.8899 C   0  0  0  0  0  0  0  0  0  0  0  0
   30.0218  -20.5372  -20.8762 N   0  0  0  0  0  0  0  0  0  0  0  0
   26.2656  -21.2540  -14.9821 C   0  0  0  0  0  0  0  0  0  0  0  0
   25.7767  -22.4014  -15.0897 O   0  0  0  0  0  0  0  0  0  0  0  0
   25.9107  -20.1159   -9.4515 C   0  0  0  0  0  0  0  0  0  0  0  0
   26.0141  -20.7852  -10.8462 C   0  0  1  0  0  0  0  0  0  0  0  0
   26.1509  -22.2894  -10.5640 C   0  0  0  0  0  0  0  0  0  0  0  0
   24.7661  -20.5517  -11.6109 C   0  0  0  0  0  0  0  0  0  0  0  0
   24.7214  -20.9804  -13.0298 C   0  0  2  0  0  0  0  0  0  0  0  0
   25.6652  -20.4452  -13.9357 N   0  0  0  0  0  0  0  0  0  0  0  0
   23.3027  -20.8413  -13.4807 C   0  0  0  0  0  0  0  0  0  0  0  0
   22.9096  -19.6366  -13.6230 O   0  0  0  0  0  0  0  0  0  0  0  0
   15.1217  -22.7023  -16.3312 O   0  0  0  0  0  0  0  0  0  0  0  0
   16.4449  -22.7645  -15.9511 C   0  0  0  0  0  0  0  0  0  0  0  0
   16.7622  -23.1163  -14.6440 C   0  0  0  0  0  0  0  0  0  0  0  0
   18.1013  -23.1748  -14.2730 C   0  0  0  0  0  0  0  0  0  0  0  0
   19.1076  -22.8938  -15.1684 C   0  0  0  0  0  0  0  0  0  0  0  0
   20.5203  -22.9557  -14.7575 C   0  0  0  0  0  0  0  0  0  0  0  0
   21.0493  -21.7000  -14.1495 C   0  0  2  0  0  0  0  0  0  0  0  0
   22.4358  -21.9229  -13.7388 N   0  0  0  0  0  0  0  0  0  0  0  0
   20.2810  -21.2003  -13.0056 C   0  0  0  0  0  0  0  0  0  0  0  0
   19.2438  -20.3099  -13.2140 O   0  0  0  0  0  0  0  0  0  0  0  0
   18.7976  -22.5405  -16.4809 C   0  0  0  0  0  0  0  0  0  0  0  0
   17.4631  -22.4851  -16.8398 C   0  0  0  0  0  0  0  0  0  0  0  0
   20.5179  -21.5443  -11.8049 O   0  0  0  0  0  0  0  0  0  0  0  0
  2  1  1  6
  3  2  1  0
  3  4  1  0
  5  4  1  0
  6  5  1  0
  7  6  1  0
  8  2  1  0
  8  9  2  0
 11 10  1  1
 11 13  1  0
 12 11  1  0
 14 13  1  1
 14 15  1  0
 15  8  1  0
 16 14  1  0
 17 16  2  0
 19 18  1  0
 20 19  2  0
 21 20  1  0
 22 28  1  0
 22 21  2  0
 23 22  1  0
 24 23  1  1
 24 25  1  0
 25 16  1  0
 26 24  1  0
 27 26  1  0
 28 29  2  0
 29 19  1  0
 30 26  2  0
M  END
$$$$
