KLY.pdb
     RDKit          3D

 30 30  0  0  1  0  0  0  0  0999 V2000
   20.6178  -10.0932  -18.7086 N   0  0  0  0  0  0  0  0  0  0  0  0
   19.7851   -9.1784  -17.9045 C   0  0  1  0  0  0  0  0  0  0  0  0
   18.3920   -9.7532  -18.0064 C   0  0  0  0  0  0  0  0  0  0  0  0
   18.1035  -10.2503  -19.3725 C   0  0  0  0  0  0  0  0  0  0  0  0
   16.7343  -10.9247  -19.4511 C   0  0  0  0  0  0  0  0  0  0  0  0
   16.4655  -11.3931  -20.8443 C   0  0  0  0  0  0  0  0  0  0  0  0
   15.1100  -11.9713  -20.8467 N   0  0  0  0  0  0  0  0  0  0  0  0
   20.2364   -9.1667  -16.5117 C   0  0  0  0  0  0  0  0  0  0  0  0
   19.4669   -9.1964  -15.5247 O   0  0  0  0  0  0  0  0  0  0  0  0
   23.8686  -10.8025  -16.5859 C   0  0  0  0  0  0  0  0  0  0  0  0
   23.7649  -10.9255  -15.0439 C   0  0  1  0  0  0  0  0  0  0  0  0
   25.1786  -11.2995  -14.5719 C   0  0  0  0  0  0  0  0  0  0  0  0
   23.3938   -9.6158  -14.4578 C   0  0  0  0  0  0  0  0  0  0  0  0
   22.0834   -9.0275  -14.8266 C   0  0  2  0  0  0  0  0  0  0  0  0
   21.6466   -9.1179  -16.1677 N   0  0  0  0  0  0  0  0  0  0  0  0
   22.0606   -7.6381  -14.2745 C   0  0  0  0  0  0  0  0  0  0  0  0
   22.2587   -7.5665  -13.0168 O   0  0  0  0  0  0  0  0  0  0  0  0
   23.4946   -3.2161  -20.2673 O   0  0  0  0  0  0  0  0  0  0  0  0
   23.3777   -3.5005  -18.9239 C   0  0  0  0  0  0  0  0  0  0  0  0
   23.9450   -4.6667  -18.4228 C   0  0  0  0  0  0  0  0  0  0  0  0
   23.8194   -4.9423  -17.0654 C   0  0  0  0  0  0  0  0  0  0  0  0
   23.1504   -4.0891  -16.2182 C   0  0  0  0  0  0  0  0  0  0  0  0
   23.0224   -4.3988  -14.7842 C   0  0  0  0  0  0  0  0  0  0  0  0
   21.7896   -5.1544  -14.4163 C   0  0  2  0  0  0  0  0  0  0  0  0
   21.8423   -6.4759  -15.0422 N   0  0  0  0  0  0  0  0  0  0  0  0
   20.5328   -4.4957  -14.7837 C   0  0  0  0  0  0  0  0  0  0  0  0
   20.2366   -3.2486  -14.2651 O   0  0  0  0  0  0  0  0  0  0  0  0
   22.5790   -2.9177  -16.7130 C   0  0  0  0  0  0  0  0  0  0  0  0
   22.7094   -2.6528  -18.0640 C   0  0  0  0  0  0  0  0  0  0  0  0
   19.6784   -5.0156  -15.5685 O   0  0  0  0  0  0  0  0  0  0  0  0
  2  1  1  6
  3  2  1  0
  3  4  1  0
  5  4  1  0
  6  5  1  0
  7  6  1  0
  8  2  1  0
  8  9  2  0
 11 10  1  6
 11 13  1  0
 12 11  1  0
 14 13  1  6
 14 15  1  0
 15  8  1  0
 16 14  1  0
 17 16  2  0
 19 18  1  0
 20 19  2  0
 21 20  1  0
 22 28  1  0
 22 21  2  0
 23 22  1  0
 24 23  1  6
 24 25  1  0
 25 16  1  0
 26 24  1  0
 27 26  1  0
 28 29  2  0
 29 19  1  0
 30 26  2  0
M  END
$$$$
