KLY.pdb
     RDKit          3D

 30 30  0  0  1  0  0  0  0  0999 V2000
   28.2428  -22.2911  -17.0712 N   0  0  0  0  0  0  0  0  0  0  0  0
   27.4727  -21.1083  -16.6414 C   0  0  1  0  0  0  0  0  0  0  0  0
   26.7708  -20.6428  -17.8952 C   0  0  0  0  0  0  0  0  0  0  0  0
   27.6891  -19.9051  -18.7948 C   0  0  0  0  0  0  0  0  0  0  0  0
   28.2737  -18.6678  -18.1144 C   0  0  0  0  0  0  0  0  0  0  0  0
   27.3407  -17.5089  -18.2539 C   0  0  0  0  0  0  0  0  0  0  0  0
   28.0561  -16.3217  -17.7537 N   0  0  0  0  0  0  0  0  0  0  0  0
   26.4982  -21.4783  -15.6133 C   0  0  0  0  0  0  0  0  0  0  0  0
   25.7534  -22.4822  -15.6815 O   0  0  0  0  0  0  0  0  0  0  0  0
   26.9996  -20.4488   -9.9072 C   0  0  0  0  0  0  0  0  0  0  0  0
   26.9185  -21.0612  -11.3293 C   0  0  1  0  0  0  0  0  0  0  0  0
   26.8466  -22.5806  -11.1119 C   0  0  0  0  0  0  0  0  0  0  0  0
   25.6756  -20.6129  -12.0009 C   0  0  0  0  0  0  0  0  0  0  0  0
   25.4232  -21.0703  -13.3887 C   0  0  2  0  0  0  0  0  0  0  0  0
   26.3216  -20.6850  -14.4095 N   0  0  0  0  0  0  0  0  0  0  0  0
   23.9921  -20.7629  -13.6935 C   0  0  0  0  0  0  0  0  0  0  0  0
   23.7568  -19.5339  -13.9393 O   0  0  0  0  0  0  0  0  0  0  0  0
   15.2918  -21.5708  -15.1507 O   0  0  0  0  0  0  0  0  0  0  0  0
   16.6388  -21.7997  -14.9706 C   0  0  0  0  0  0  0  0  0  0  0  0
   17.0712  -22.4501  -13.8202 C   0  0  0  0  0  0  0  0  0  0  0  0
   18.4332  -22.6745  -13.6503 C   0  0  0  0  0  0  0  0  0  0  0  0
   19.3510  -22.2685  -14.5916 C   0  0  0  0  0  0  0  0  0  0  0  0
   20.7901  -22.5097  -14.3933 C   0  0  0  0  0  0  0  0  0  0  0  0
   21.5642  -21.3215  -13.9294 C   0  0  2  0  0  0  0  0  0  0  0  0
   22.9563  -21.7192  -13.7182 N   0  0  0  0  0  0  0  0  0  0  0  0
   21.0510  -20.6923  -12.7092 C   0  0  0  0  0  0  0  0  0  0  0  0
   21.4823  -21.1408  -11.4743 O   0  0  0  0  0  0  0  0  0  0  0  0
   18.9253  -21.6160  -15.7478 C   0  0  0  0  0  0  0  0  0  0  0  0
   17.5691  -21.3976  -15.9073 C   0  0  0  0  0  0  0  0  0  0  0  0
   20.2125  -19.7368  -12.7189 O   0  0  0  0  0  0  0  0  0  0  0  0
  2  1  1  6
  3  2  1  0
  3  4  1  0
  5  4  1  0
  6  5  1  0
  7  6  1  0
  8  2  1  0
  8  9  2  0
 11 10  1  1
 11 13  1  0
 12 11  1  0
 14 13  1  1
 14 15  1  0
 15  8  1  0
 16 14  1  0
 17 16  2  0
 19 18  1  0
 20 19  2  0
 21 20  1  0
 22 28  1  0
 22 21  2  0
 23 22  1  0
 24 23  1  1
 24 25  1  0
 25 16  1  0
 26 24  1  0
 27 26  1  0
 28 29  2  0
 29 19  1  0
 30 26  2  0
M  END
$$$$
