KLY.pdb
     RDKit          3D

 30 30  0  0  1  0  0  0  0  0999 V2000
   24.1563  -20.0687  -19.7961 N   0  0  0  0  0  0  0  0  0  0  0  0
   24.1149  -19.1189  -18.6679 C   0  0  1  0  0  0  0  0  0  0  0  0
   22.7806  -18.4257  -18.8108 C   0  0  0  0  0  0  0  0  0  0  0  0
   22.8295  -17.3487  -19.8279 C   0  0  0  0  0  0  0  0  0  0  0  0
   22.3232  -16.0197  -19.2683 C   0  0  0  0  0  0  0  0  0  0  0  0
   22.2463  -14.9951  -20.3534 C   0  0  0  0  0  0  0  0  0  0  0  0
   21.6677  -13.7799  -19.7534 N   0  0  0  0  0  0  0  0  0  0  0  0
   24.1887  -19.8353  -17.3931 C   0  0  0  0  0  0  0  0  0  0  0  0
   23.4582  -20.8059  -17.0905 O   0  0  0  0  0  0  0  0  0  0  0  0
   27.9533  -20.9621  -15.5300 C   0  0  0  0  0  0  0  0  0  0  0  0
   27.3468  -20.7922  -14.1133 C   0  0  1  0  0  0  0  0  0  0  0  0
   28.4888  -20.2365  -13.2484 C   0  0  0  0  0  0  0  0  0  0  0  0
   26.2468  -19.7997  -14.1517 C   0  0  0  0  0  0  0  0  0  0  0  0
   25.1123  -20.0443  -15.0749 C   0  0  2  0  0  0  0  0  0  0  0  0
   25.1396  -19.4598  -16.3615 N   0  0  0  0  0  0  0  0  0  0  0  0
   23.8601  -19.7625  -14.3080 C   0  0  0  0  0  0  0  0  0  0  0  0
   23.2673  -18.6843  -14.6430 O   0  0  0  0  0  0  0  0  0  0  0  0
   15.8711  -19.1263  -11.5833 O   0  0  0  0  0  0  0  0  0  0  0  0
   17.1332  -19.3573  -12.0861 C   0  0  0  0  0  0  0  0  0  0  0  0
   17.9262  -18.2774  -12.4581 C   0  0  0  0  0  0  0  0  0  0  0  0
   19.1978  -18.5241  -12.9647 C   0  0  0  0  0  0  0  0  0  0  0  0
   19.6799  -19.8055  -13.1023 C   0  0  0  0  0  0  0  0  0  0  0  0
   21.0270  -20.0489  -13.6452 C   0  0  0  0  0  0  0  0  0  0  0  0
   22.0857  -20.2624  -12.6157 C   0  0  2  0  0  0  0  0  0  0  0  0
   23.3412  -20.5905  -13.2918 N   0  0  0  0  0  0  0  0  0  0  0  0
   21.7821  -21.3029  -11.6290 C   0  0  0  0  0  0  0  0  0  0  0  0
   22.5815  -22.4287  -11.5534 O   0  0  0  0  0  0  0  0  0  0  0  0
   18.8911  -20.8934  -12.7313 C   0  0  0  0  0  0  0  0  0  0  0  0
   17.6283  -20.6375  -12.2289 C   0  0  0  0  0  0  0  0  0  0  0  0
   20.8039  -21.2305  -10.8202 O   0  0  0  0  0  0  0  0  0  0  0  0
  2  1  1  6
  3  2  1  0
  3  4  1  0
  5  4  1  0
  6  5  1  0
  7  6  1  0
  8  2  1  0
  8  9  2  0
 11 10  1  6
 11 13  1  0
 12 11  1  0
 14 13  1  1
 14 15  1  0
 15  8  1  0
 16 14  1  0
 17 16  2  0
 19 18  1  0
 20 19  2  0
 21 20  1  0
 22 28  1  0
 22 21  2  0
 23 22  1  0
 24 23  1  6
 24 25  1  0
 25 16  1  0
 26 24  1  0
 27 26  1  0
 28 29  2  0
 29 19  1  0
 30 26  2  0
M  END
$$$$
