KLY.pdb
     RDKit          3D

 30 30  0  0  1  0  0  0  0  0999 V2000
   26.7912  -22.2299  -14.4275 N   0  0  0  0  0  0  0  0  0  0  0  0
   27.3287  -21.1726  -13.5500 C   0  0  1  0  0  0  0  0  0  0  0  0
   26.8472  -19.8854  -14.1768 C   0  0  0  0  0  0  0  0  0  0  0  0
   27.0457  -19.8841  -15.6456 C   0  0  0  0  0  0  0  0  0  0  0  0
   28.3778  -19.2443  -16.0352 C   0  0  0  0  0  0  0  0  0  0  0  0
   28.5305  -19.2273  -17.5216 C   0  0  0  0  0  0  0  0  0  0  0  0
   29.8006  -18.5389  -17.8129 N   0  0  0  0  0  0  0  0  0  0  0  0
   26.7972  -21.3145  -12.1932 C   0  0  0  0  0  0  0  0  0  0  0  0
   25.7321  -21.9109  -11.9158 O   0  0  0  0  0  0  0  0  0  0  0  0
   26.8246  -21.1473   -6.5991 C   0  0  0  0  0  0  0  0  0  0  0  0
   26.8889  -19.8088   -7.3791 C   0  0  1  0  0  0  0  0  0  0  0  0
   27.7183  -18.8648   -6.4948 C   0  0  0  0  0  0  0  0  0  0  0  0
   27.5978  -20.0087   -8.6652 C   0  0  0  0  0  0  0  0  0  0  0  0
   26.8660  -20.6644   -9.7759 C   0  0  2  0  0  0  0  0  0  0  0  0
   27.4865  -20.7577  -11.0423 N   0  0  0  0  0  0  0  0  0  0  0  0
   25.5002  -20.0572   -9.8138 C   0  0  0  0  0  0  0  0  0  0  0  0
   25.4712  -18.8475  -10.2163 O   0  0  0  0  0  0  0  0  0  0  0  0
   18.3088  -19.6068  -14.2973 O   0  0  0  0  0  0  0  0  0  0  0  0
   19.4794  -19.8539  -13.6133 C   0  0  0  0  0  0  0  0  0  0  0  0
   20.4272  -18.8431  -13.4981 C   0  0  0  0  0  0  0  0  0  0  0  0
   21.6046  -19.1055  -12.8058 C   0  0  0  0  0  0  0  0  0  0  0  0
   21.8451  -20.3357  -12.2383 C   0  0  0  0  0  0  0  0  0  0  0  0
   23.0995  -20.5980  -11.5128 C   0  0  0  0  0  0  0  0  0  0  0  0
   23.0278  -20.3715  -10.0398 C   0  0  2  0  0  0  0  0  0  0  0  0
   24.3162  -20.7279   -9.4449 N   0  0  0  0  0  0  0  0  0  0  0  0
   21.9601  -21.1072   -9.3563 C   0  0  0  0  0  0  0  0  0  0  0  0
   22.2759  -22.2040   -8.5758 O   0  0  0  0  0  0  0  0  0  0  0  0
   20.8996  -21.3542  -12.3491 C   0  0  0  0  0  0  0  0  0  0  0  0
   19.7324  -21.0833  -13.0395 C   0  0  0  0  0  0  0  0  0  0  0  0
   20.7320  -20.7899   -9.4414 O   0  0  0  0  0  0  0  0  0  0  0  0
  2  1  1  6
  3  2  1  0
  3  4  1  0
  5  4  1  0
  6  5  1  0
  7  6  1  0
  8  2  1  0
  8  9  2  0
 11 10  1  1
 11 13  1  0
 12 11  1  0
 14 13  1  1
 14 15  1  0
 15  8  1  0
 16 14  1  0
 17 16  2  0
 19 18  1  0
 20 19  2  0
 21 20  1  0
 22 28  1  0
 22 21  2  0
 23 22  1  0
 24 23  1  6
 24 25  1  0
 25 16  1  0
 26 24  1  0
 27 26  1  0
 28 29  2  0
 29 19  1  0
 30 26  2  0
M  END
$$$$
