KLY.pdb
     RDKit          3D

 30 30  0  0  1  0  0  0  0  0999 V2000
   27.3207  -19.3218  -15.7054 N   0  0  0  0  0  0  0  0  0  0  0  0
   26.5202  -18.8015  -14.5805 C   0  0  1  0  0  0  0  0  0  0  0  0
   25.1158  -18.7137  -15.1296 C   0  0  0  0  0  0  0  0  0  0  0  0
   25.0840  -18.0313  -16.4449 C   0  0  0  0  0  0  0  0  0  0  0  0
   25.5408  -16.5768  -16.3380 C   0  0  0  0  0  0  0  0  0  0  0  0
   25.2128  -15.8360  -17.5936 C   0  0  0  0  0  0  0  0  0  0  0  0
   26.0108  -16.4472  -18.6713 N   0  0  0  0  0  0  0  0  0  0  0  0
   26.5721  -19.7249  -13.4454 C   0  0  0  0  0  0  0  0  0  0  0  0
   26.6050  -20.9714  -13.5560 O   0  0  0  0  0  0  0  0  0  0  0  0
   27.4984  -19.7825   -7.2220 C   0  0  0  0  0  0  0  0  0  0  0  0
   27.2509  -20.5662   -8.5367 C   0  0  1  0  0  0  0  0  0  0  0  0
   25.8825  -21.2408   -8.3541 C   0  0  0  0  0  0  0  0  0  0  0  0
   27.1733  -19.6240   -9.6781 C   0  0  0  0  0  0  0  0  0  0  0  0
   26.6716  -20.1341  -10.9770 C   0  0  2  0  0  0  0  0  0  0  0  0
   26.5889  -19.2469  -12.0740 N   0  0  0  0  0  0  0  0  0  0  0  0
   25.3994  -20.8668  -10.6932 C   0  0  0  0  0  0  0  0  0  0  0  0
   25.5218  -21.8418   -9.8806 O   0  0  0  0  0  0  0  0  0  0  0  0
   17.4169  -23.5710   -8.7209 O   0  0  0  0  0  0  0  0  0  0  0  0
   18.5801  -22.8938   -9.0167 C   0  0  0  0  0  0  0  0  0  0  0  0
   19.6607  -22.9839   -8.1464 C   0  0  0  0  0  0  0  0  0  0  0  0
   20.8286  -22.2952   -8.4561 C   0  0  0  0  0  0  0  0  0  0  0  0
   20.9323  -21.5341   -9.5977 C   0  0  0  0  0  0  0  0  0  0  0  0
   22.1748  -20.8072   -9.9079 C   0  0  0  0  0  0  0  0  0  0  0  0
   22.9744  -21.3866  -11.0265 C   0  0  2  0  0  0  0  0  0  0  0  0
   24.1474  -20.5422  -11.2542 N   0  0  0  0  0  0  0  0  0  0  0  0
   22.2423  -21.5464  -12.2863 C   0  0  0  0  0  0  0  0  0  0  0  0
   22.5892  -20.7774  -13.3818 O   0  0  0  0  0  0  0  0  0  0  0  0
   19.8533  -21.4389  -10.4754 C   0  0  0  0  0  0  0  0  0  0  0  0
   18.6966  -22.1273  -10.1584 C   0  0  0  0  0  0  0  0  0  0  0  0
   21.2843  -22.3689  -12.4346 O   0  0  0  0  0  0  0  0  0  0  0  0
  2  1  1  6
  3  2  1  0
  3  4  1  0
  5  4  1  0
  6  5  1  0
  7  6  1  0
  8  2  1  0
  8  9  2  0
 11 10  1  1
 11 13  1  0
 12 11  1  0
 14 13  1  1
 14 15  1  0
 15  8  1  0
 16 14  1  0
 17 16  2  0
 19 18  1  0
 20 19  2  0
 21 20  1  0
 22 28  1  0
 22 21  2  0
 23 22  1  0
 24 23  1  1
 24 25  1  0
 25 16  1  0
 26 24  1  0
 27 26  1  0
 28 29  2  0
 29 19  1  0
 30 26  2  0
M  END
$$$$
