KLY.pdb
     RDKit          3D

 30 30  0  0  1  0  0  0  0  0999 V2000
   12.8720  -17.9510    3.7461 N   0  0  0  0  0  0  0  0  0  0  0  0
   13.3566  -16.5724    3.9494 C   0  0  1  0  0  0  0  0  0  0  0  0
   12.3897  -15.9789    4.9466 C   0  0  0  0  0  0  0  0  0  0  0  0
   11.1129  -15.5867    4.3042 C   0  0  0  0  0  0  0  0  0  0  0  0
   10.1414  -14.9683    5.3090 C   0  0  0  0  0  0  0  0  0  0  0  0
    8.8854  -14.5410    4.6213 C   0  0  0  0  0  0  0  0  0  0  0  0
    7.9653  -14.0648    5.6692 N   0  0  0  0  0  0  0  0  0  0  0  0
   14.7156  -16.5829    4.4941 C   0  0  0  0  0  0  0  0  0  0  0  0
   15.3752  -17.6239    4.7139 O   0  0  0  0  0  0  0  0  0  0  0  0
   18.5933  -12.3482    3.6326 C   0  0  0  0  0  0  0  0  0  0  0  0
   17.7502  -13.6494    3.6359 C   0  0  1  0  0  0  0  0  0  0  0  0
   18.5812  -14.6720    2.8457 C   0  0  0  0  0  0  0  0  0  0  0  0
   17.5826  -14.1376    5.0252 C   0  0  0  0  0  0  0  0  0  0  0  0
   16.7621  -15.3526    5.2484 C   0  0  2  0  0  0  0  0  0  0  0  0
   15.4129  -15.3532    4.8274 N   0  0  0  0  0  0  0  0  0  0  0  0
   16.9508  -15.7471    6.6782 C   0  0  0  0  0  0  0  0  0  0  0  0
   16.1230  -15.2118    7.4872 O   0  0  0  0  0  0  0  0  0  0  0  0
   15.8196  -22.8768    6.9259 O   0  0  0  0  0  0  0  0  0  0  0  0
   16.0230  -21.6026    7.4098 C   0  0  0  0  0  0  0  0  0  0  0  0
   15.9686  -20.5245    6.5334 C   0  0  0  0  0  0  0  0  0  0  0  0
   16.1762  -19.2438    7.0344 C   0  0  0  0  0  0  0  0  0  0  0  0
   16.4315  -19.0272    8.3690 C   0  0  0  0  0  0  0  0  0  0  0  0
   16.6538  -17.6648    8.8818 C   0  0  0  0  0  0  0  0  0  0  0  0
   17.9793  -17.0751    8.5331 C   0  0  2  0  0  0  0  0  0  0  0  0
   17.9463  -16.6329    7.1388 N   0  0  0  0  0  0  0  0  0  0  0  0
   19.1215  -17.9728    8.7282 C   0  0  0  0  0  0  0  0  0  0  0  0
   19.3730  -18.4978    9.9825 O   0  0  0  0  0  0  0  0  0  0  0  0
   16.4873  -20.1029    9.2541 C   0  0  0  0  0  0  0  0  0  0  0  0
   16.2797  -21.3723    8.7461 C   0  0  0  0  0  0  0  0  0  0  0  0
   19.9138  -18.3043    7.7909 O   0  0  0  0  0  0  0  0  0  0  0  0
  2  1  1  1
  3  2  1  0
  3  4  1  0
  5  4  1  0
  6  5  1  0
  7  6  1  0
  8  2  1  0
  8  9  2  0
 11 10  1  1
 11 13  1  0
 12 11  1  0
 14 13  1  1
 14 15  1  0
 15  8  1  0
 16 14  1  0
 17 16  2  0
 19 18  1  0
 20 19  2  0
 21 20  1  0
 22 28  1  0
 22 21  2  0
 23 22  1  0
 24 23  1  6
 24 25  1  0
 25 16  1  0
 26 24  1  0
 27 26  1  0
 28 29  2  0
 29 19  1  0
 30 26  2  0
M  END
$$$$
