KLY.pdb
     RDKit          3D

 30 30  0  0  1  0  0  0  0  0999 V2000
   22.8740  -15.2997  -18.0042 N   0  0  0  0  0  0  0  0  0  0  0  0
   22.6358  -16.7459  -18.1740 C   0  0  1  0  0  0  0  0  0  0  0  0
   21.9908  -16.8617  -19.5349 C   0  0  0  0  0  0  0  0  0  0  0  0
   20.8138  -15.9698  -19.6605 C   0  0  0  0  0  0  0  0  0  0  0  0
   20.1759  -16.0677  -21.0459 C   0  0  0  0  0  0  0  0  0  0  0  0
   19.7154  -14.7212  -21.5018 C   0  0  0  0  0  0  0  0  0  0  0  0
   18.6491  -14.2984  -20.5767 N   0  0  0  0  0  0  0  0  0  0  0  0
   23.9019  -17.4803  -18.1404 C   0  0  0  0  0  0  0  0  0  0  0  0
   24.0044  -18.7114  -18.3430 O   0  0  0  0  0  0  0  0  0  0  0  0
   29.0012  -15.9524  -20.1805 C   0  0  0  0  0  0  0  0  0  0  0  0
   27.6241  -16.5543  -19.7997 C   0  0  1  0  0  0  0  0  0  0  0  0
   27.5064  -17.8473  -20.6214 C   0  0  0  0  0  0  0  0  0  0  0  0
   27.6057  -16.8982  -18.3581 C   0  0  0  0  0  0  0  0  0  0  0  0
   26.3826  -17.5250  -17.8012 C   0  0  2  0  0  0  0  0  0  0  0  0
   25.1623  -16.8145  -17.8614 N   0  0  0  0  0  0  0  0  0  0  0  0
   26.7310  -18.0156  -16.4325 C   0  0  0  0  0  0  0  0  0  0  0  0
   26.9086  -17.0929  -15.5703 O   0  0  0  0  0  0  0  0  0  0  0  0
   25.1906  -20.8343   -8.6054 O   0  0  0  0  0  0  0  0  0  0  0  0
   25.3252  -20.4315   -9.9164 C   0  0  0  0  0  0  0  0  0  0  0  0
   24.5216  -21.0099  -10.8925 C   0  0  0  0  0  0  0  0  0  0  0  0
   24.6678  -20.5950  -12.2119 C   0  0  0  0  0  0  0  0  0  0  0  0
   25.5845  -19.6313  -12.5644 C   0  0  0  0  0  0  0  0  0  0  0  0
   25.7296  -19.2071  -13.9671 C   0  0  0  0  0  0  0  0  0  0  0  0
   26.9047  -19.7909  -14.6774 C   0  0  2  0  0  0  0  0  0  0  0  0
   26.8629  -19.3741  -16.0793 N   0  0  0  0  0  0  0  0  0  0  0  0
   26.9992  -21.2521  -14.6105 C   0  0  0  0  0  0  0  0  0  0  0  0
   27.8260  -21.8423  -13.6723 O   0  0  0  0  0  0  0  0  0  0  0  0
   26.3937  -19.0463  -11.5914 C   0  0  0  0  0  0  0  0  0  0  0  0
   26.2407  -19.4659  -10.2826 C   0  0  0  0  0  0  0  0  0  0  0  0
   26.3516  -22.0272  -15.3826 O   0  0  0  0  0  0  0  0  0  0  0  0
  2  1  1  6
  3  2  1  0
  3  4  1  0
  5  4  1  0
  6  5  1  0
  7  6  1  0
  8  2  1  0
  8  9  2  0
 11 10  1  6
 11 13  1  0
 12 11  1  0
 14 13  1  1
 14 15  1  0
 15  8  1  0
 16 14  1  0
 17 16  2  0
 19 18  1  0
 20 19  2  0
 21 20  1  0
 22 28  1  0
 22 21  2  0
 23 22  1  0
 24 23  1  1
 24 25  1  0
 25 16  1  0
 26 24  1  0
 27 26  1  0
 28 29  2  0
 29 19  1  0
 30 26  2  0
M  END
$$$$
