KLY.pdb
     RDKit          3D

 30 30  0  0  1  0  0  0  0  0999 V2000
   20.2189  -12.1401  -20.0582 N   0  0  0  0  0  0  0  0  0  0  0  0
   20.9670  -10.8685  -20.0435 C   0  0  1  0  0  0  0  0  0  0  0  0
   19.9530   -9.8327  -20.4681 C   0  0  0  0  0  0  0  0  0  0  0  0
   19.2722  -10.2173  -21.7272 C   0  0  0  0  0  0  0  0  0  0  0  0
   18.2435   -9.1713  -22.1556 C   0  0  0  0  0  0  0  0  0  0  0  0
   17.6044   -9.5698  -23.4462 C   0  0  0  0  0  0  0  0  0  0  0  0
   16.5764   -8.5571  -23.7447 N   0  0  0  0  0  0  0  0  0  0  0  0
   21.4620  -10.5817  -18.6957 C   0  0  0  0  0  0  0  0  0  0  0  0
   20.8822  -10.9378  -17.6449 O   0  0  0  0  0  0  0  0  0  0  0  0
   24.0515  -10.5065  -14.3392 C   0  0  0  0  0  0  0  0  0  0  0  0
   24.9889   -9.8872  -15.4077 C   0  0  1  0  0  0  0  0  0  0  0  0
   26.3402  -10.5937  -15.2188 C   0  0  0  0  0  0  0  0  0  0  0  0
   24.4748  -10.1888  -16.7647 C   0  0  0  0  0  0  0  0  0  0  0  0
   23.1854   -9.5837  -17.1776 C   0  0  2  0  0  0  0  0  0  0  0  0
   22.6935   -9.8433  -18.4769 N   0  0  0  0  0  0  0  0  0  0  0  0
   23.2597   -8.1296  -16.8374 C   0  0  0  0  0  0  0  0  0  0  0  0
   24.2019   -7.4984  -17.4204 O   0  0  0  0  0  0  0  0  0  0  0  0
   21.7256   -4.3634  -21.7749 O   0  0  0  0  0  0  0  0  0  0  0  0
   21.6455   -4.5887  -20.4177 C   0  0  0  0  0  0  0  0  0  0  0  0
   21.2578   -5.8420  -19.9571 C   0  0  0  0  0  0  0  0  0  0  0  0
   21.1804   -6.0561  -18.5851 C   0  0  0  0  0  0  0  0  0  0  0  0
   21.4783   -5.0593  -17.6846 C   0  0  0  0  0  0  0  0  0  0  0  0
   21.3864   -5.3018  -16.2350 C   0  0  0  0  0  0  0  0  0  0  0  0
   22.5406   -6.0462  -15.6521 C   0  0  2  0  0  0  0  0  0  0  0  0
   22.3832   -7.4697  -15.9519 N   0  0  0  0  0  0  0  0  0  0  0  0
   22.7165   -5.8735  -14.2072 C   0  0  0  0  0  0  0  0  0  0  0  0
   22.6155   -6.9689  -13.3696 O   0  0  0  0  0  0  0  0  0  0  0  0
   21.8682   -3.8001  -18.1385 C   0  0  0  0  0  0  0  0  0  0  0  0
   21.9419   -3.5973  -19.5045 C   0  0  0  0  0  0  0  0  0  0  0  0
   22.9612   -4.7496  -13.6657 O   0  0  0  0  0  0  0  0  0  0  0  0
  2  1  1  1
  3  2  1  0
  3  4  1  0
  5  4  1  0
  6  5  1  0
  7  6  1  0
  8  2  1  0
  8  9  2  0
 11 10  1  1
 11 13  1  0
 12 11  1  0
 14 13  1  6
 14 15  1  0
 15  8  1  0
 16 14  1  0
 17 16  2  0
 19 18  1  0
 20 19  2  0
 21 20  1  0
 22 28  1  0
 22 21  2  0
 23 22  1  0
 24 23  1  1
 24 25  1  0
 25 16  1  0
 26 24  1  0
 27 26  1  0
 28 29  2  0
 29 19  1  0
 30 26  2  0
M  END
$$$$
