KLY.pdb
     RDKit          3D

 30 30  0  0  1  0  0  0  0  0999 V2000
   21.7019  -25.8121  -19.6914 N   0  0  0  0  0  0  0  0  0  0  0  0
   22.3142  -25.5285  -18.3793 C   0  0  1  0  0  0  0  0  0  0  0  0
   21.2218  -24.8374  -17.5979 C   0  0  0  0  0  0  0  0  0  0  0  0
   21.0933  -23.4114  -17.9808 C   0  0  0  0  0  0  0  0  0  0  0  0
   22.0769  -22.5293  -17.2125 C   0  0  0  0  0  0  0  0  0  0  0  0
   21.9160  -21.0994  -17.6156 C   0  0  0  0  0  0  0  0  0  0  0  0
   22.8950  -20.3225  -16.8348 N   0  0  0  0  0  0  0  0  0  0  0  0
   22.7097  -26.7742  -17.7194 C   0  0  0  0  0  0  0  0  0  0  0  0
   21.9726  -27.7814  -17.6225 O   0  0  0  0  0  0  0  0  0  0  0  0
   26.4115  -28.3466  -18.4348 C   0  0  0  0  0  0  0  0  0  0  0  0
   26.5938  -29.0343  -17.0573 C   0  0  1  0  0  0  0  0  0  0  0  0
   28.0802  -28.8577  -16.7105 C   0  0  0  0  0  0  0  0  0  0  0  0
   25.7762  -28.3393  -16.0350 C   0  0  0  0  0  0  0  0  0  0  0  0
   24.3505  -28.0695  -16.3406 C   0  0  2  0  0  0  0  0  0  0  0  0
   24.0202  -26.9333  -17.1138 N   0  0  0  0  0  0  0  0  0  0  0  0
   23.6047  -28.1600  -15.0479 C   0  0  0  0  0  0  0  0  0  0  0  0
   23.3183  -27.0334  -14.5236 O   0  0  0  0  0  0  0  0  0  0  0  0
   17.7997  -28.5137   -8.8852 O   0  0  0  0  0  0  0  0  0  0  0  0
   18.6341  -28.5432   -9.9816 C   0  0  0  0  0  0  0  0  0  0  0  0
   19.4328  -27.4396  -10.2594 C   0  0  0  0  0  0  0  0  0  0  0  0
   20.2701  -27.4818  -11.3691 C   0  0  0  0  0  0  0  0  0  0  0  0
   20.3214  -28.5861  -12.1885 C   0  0  0  0  0  0  0  0  0  0  0  0
   21.2101  -28.6121  -13.3624 C   0  0  0  0  0  0  0  0  0  0  0  0
   22.4812  -29.3686  -13.1665 C   0  0  2  0  0  0  0  0  0  0  0  0
   23.2290  -29.3673  -14.4241 N   0  0  0  0  0  0  0  0  0  0  0  0
   22.3093  -30.7502  -12.7081 C   0  0  0  0  0  0  0  0  0  0  0  0
   22.5720  -31.7962  -13.5735 O   0  0  0  0  0  0  0  0  0  0  0  0
   19.5239  -29.6967  -11.9164 C   0  0  0  0  0  0  0  0  0  0  0  0
   18.6948  -29.6447  -10.8108 C   0  0  0  0  0  0  0  0  0  0  0  0
   21.9230  -31.0509  -11.5348 O   0  0  0  0  0  0  0  0  0  0  0  0
  2  1  1  6
  3  2  1  0
  3  4  1  0
  5  4  1  0
  6  5  1  0
  7  6  1  0
  8  2  1  0
  8  9  2  0
 11 10  1  6
 11 13  1  0
 12 11  1  0
 14 13  1  1
 14 15  1  0
 15  8  1  0
 16 14  1  0
 17 16  2  0
 19 18  1  0
 20 19  2  0
 21 20  1  0
 22 28  1  0
 22 21  2  0
 23 22  1  0
 24 23  1  6
 24 25  1  0
 25 16  1  0
 26 24  1  0
 27 26  1  0
 28 29  2  0
 29 19  1  0
 30 26  2  0
M  END
$$$$
