KLY.pdb
     RDKit          3D

 30 30  0  0  1  0  0  0  0  0999 V2000
   21.6405  -18.5679  -14.9368 N   0  0  0  0  0  0  0  0  0  0  0  0
   22.1098  -19.9537  -15.1268 C   0  0  1  0  0  0  0  0  0  0  0  0
   21.8868  -20.2263  -16.5957 C   0  0  0  0  0  0  0  0  0  0  0  0
   20.5269  -20.7561  -16.8537 C   0  0  0  0  0  0  0  0  0  0  0  0
   19.4651  -19.6618  -16.7500 C   0  0  0  0  0  0  0  0  0  0  0  0
   18.1021  -20.2400  -16.9524 C   0  0  0  0  0  0  0  0  0  0  0  0
   17.1361  -19.1569  -16.6969 N   0  0  0  0  0  0  0  0  0  0  0  0
   23.5313  -20.0628  -14.7932 C   0  0  0  0  0  0  0  0  0  0  0  0
   24.4535  -19.5721  -15.4831 O   0  0  0  0  0  0  0  0  0  0  0  0
   24.2326  -20.0580  -10.6643 C   0  0  0  0  0  0  0  0  0  0  0  0
   25.6934  -20.5380  -10.8632 C   0  0  1  0  0  0  0  0  0  0  0  0
   26.0487  -21.2971   -9.5754 C   0  0  0  0  0  0  0  0  0  0  0  0
   25.7640  -21.4760  -12.0086 C   0  0  0  0  0  0  0  0  0  0  0  0
   25.3564  -20.9827  -13.3464 C   0  0  2  0  0  0  0  0  0  0  0  0
   23.9840  -20.7676  -13.6066 N   0  0  0  0  0  0  0  0  0  0  0  0
   26.0351  -21.8530  -14.3551 C   0  0  0  0  0  0  0  0  0  0  0  0
   25.7763  -23.0963  -14.2391 O   0  0  0  0  0  0  0  0  0  0  0  0
   23.4207  -27.0057  -15.0029 O   0  0  0  0  0  0  0  0  0  0  0  0
   24.1839  -25.9942  -15.5449 C   0  0  0  0  0  0  0  0  0  0  0  0
   25.5311  -26.2213  -15.8030 C   0  0  0  0  0  0  0  0  0  0  0  0
   26.2904  -25.1922  -16.3496 C   0  0  0  0  0  0  0  0  0  0  0  0
   25.7369  -23.9656  -16.6367 C   0  0  0  0  0  0  0  0  0  0  0  0
   26.5566  -22.8852  -17.2107 C   0  0  0  0  0  0  0  0  0  0  0  0
   27.5691  -22.3077  -16.2793 C   0  0  2  0  0  0  0  0  0  0  0  0
   26.8966  -21.3823  -15.3670 N   0  0  0  0  0  0  0  0  0  0  0  0
   28.6828  -21.6160  -16.9348 C   0  0  0  0  0  0  0  0  0  0  0  0
   28.9232  -20.2841  -16.6514 O   0  0  0  0  0  0  0  0  0  0  0  0
   24.3868  -23.7303  -16.3811 C   0  0  0  0  0  0  0  0  0  0  0  0
   23.6405  -24.7599  -15.8375 C   0  0  0  0  0  0  0  0  0  0  0  0
   29.4584  -22.1810  -17.7688 O   0  0  0  0  0  0  0  0  0  0  0  0
  2  1  1  6
  3  2  1  0
  3  4  1  0
  5  4  1  0
  6  5  1  0
  7  6  1  0
  8  2  1  0
  8  9  2  0
 11 10  1  1
 11 13  1  0
 12 11  1  0
 14 13  1  1
 14 15  1  0
 15  8  1  0
 16 14  1  0
 17 16  2  0
 19 18  1  0
 20 19  2  0
 21 20  1  0
 22 28  1  0
 22 21  2  0
 23 22  1  0
 24 23  1  6
 24 25  1  0
 25 16  1  0
 26 24  1  0
 27 26  1  0
 28 29  2  0
 29 19  1  0
 30 26  2  0
M  END
$$$$
