KLY.pdb
     RDKit          3D

 30 30  0  0  1  0  0  0  0  0999 V2000
   27.5447  -18.5732  -16.2579 N   0  0  0  0  0  0  0  0  0  0  0  0
   26.5112  -18.2024  -15.2724 C   0  0  1  0  0  0  0  0  0  0  0  0
   25.3948  -17.6154  -16.1035 C   0  0  0  0  0  0  0  0  0  0  0  0
   25.5747  -16.1590  -16.3113 C   0  0  0  0  0  0  0  0  0  0  0  0
   26.6788  -15.8652  -17.3264 C   0  0  0  0  0  0  0  0  0  0  0  0
   26.8747  -14.3905  -17.4681 C   0  0  0  0  0  0  0  0  0  0  0  0
   27.9040  -14.1938  -18.5041 N   0  0  0  0  0  0  0  0  0  0  0  0
   26.0458  -19.3871  -14.5488 C   0  0  0  0  0  0  0  0  0  0  0  0
   25.6766  -20.4474  -15.1026 O   0  0  0  0  0  0  0  0  0  0  0  0
   27.9408  -21.0590   -9.4435 C   0  0  0  0  0  0  0  0  0  0  0  0
   27.5508  -20.8965  -10.9352 C   0  0  1  0  0  0  0  0  0  0  0  0
   28.0880  -22.1555  -11.6333 C   0  0  0  0  0  0  0  0  0  0  0  0
   26.0751  -20.8654  -11.0698 C   0  0  0  0  0  0  0  0  0  0  0  0
   25.4977  -20.5465  -12.3980 C   0  0  2  0  0  0  0  0  0  0  0  0
   25.9770  -19.4163  -13.0983 N   0  0  0  0  0  0  0  0  0  0  0  0
   24.0109  -20.5779  -12.2436 C   0  0  0  0  0  0  0  0  0  0  0  0
   23.5788  -20.0239  -11.1794 O   0  0  0  0  0  0  0  0  0  0  0  0
   20.7825  -17.2279  -18.0738 O   0  0  0  0  0  0  0  0  0  0  0  0
   20.9078  -17.8045  -16.8284 C   0  0  0  0  0  0  0  0  0  0  0  0
   22.1707  -17.9321  -16.2610 C   0  0  0  0  0  0  0  0  0  0  0  0
   22.2836  -18.5162  -15.0039 C   0  0  0  0  0  0  0  0  0  0  0  0
   21.1780  -18.9652  -14.3186 C   0  0  0  0  0  0  0  0  0  0  0  0
   21.3160  -19.5858  -12.9903 C   0  0  0  0  0  0  0  0  0  0  0  0
   21.6735  -21.0343  -13.0122 C   0  0  2  0  0  0  0  0  0  0  0  0
   23.1226  -21.1598  -13.1710 N   0  0  0  0  0  0  0  0  0  0  0  0
   21.0037  -21.8166  -14.0552 C   0  0  0  0  0  0  0  0  0  0  0  0
   19.6284  -21.9574  -14.0282 O   0  0  0  0  0  0  0  0  0  0  0  0
   19.9083  -18.8405  -14.8807 C   0  0  0  0  0  0  0  0  0  0  0  0
   19.8068  -18.2584  -16.1311 C   0  0  0  0  0  0  0  0  0  0  0  0
   21.6269  -22.3876  -15.0048 O   0  0  0  0  0  0  0  0  0  0  0  0
  2  1  1  6
  3  2  1  0
  3  4  1  0
  5  4  1  0
  6  5  1  0
  7  6  1  0
  8  2  1  0
  8  9  2  0
 11 10  1  1
 11 13  1  0
 12 11  1  0
 14 13  1  1
 14 15  1  0
 15  8  1  0
 16 14  1  0
 17 16  2  0
 19 18  1  0
 20 19  2  0
 21 20  1  0
 22 28  1  0
 22 21  2  0
 23 22  1  0
 24 23  1  6
 24 25  1  0
 25 16  1  0
 26 24  1  0
 27 26  1  0
 28 29  2  0
 29 19  1  0
 30 26  2  0
M  END
$$$$
