MAS.pdb
     RDKit          3D

 20 19  0  0  1  0  0  0  0  0999 V2000
   20.9997  -12.7787  -22.7099 C   0  0  0  0  0  0  0  0  0  0  0  0
   20.2726  -11.9518  -21.2851 S   0  0  0  0  0  0  0  0  0  0  0  0
   21.5125  -11.0691  -20.3400 C   0  0  0  0  0  0  0  0  0  0  0  0
   20.8163  -10.2867  -19.2230 C   0  0  0  0  0  0  0  0  0  0  0  0
   20.7702  -11.1057  -17.9508 C   0  0  2  0  0  0  0  0  0  0  0  0
   19.5855  -11.9404  -18.0126 N   0  0  0  0  0  0  0  0  0  0  0  0
   20.7293  -10.2981  -16.7335 C   0  0  0  0  0  0  0  0  0  0  0  0
   19.6956   -9.6478  -16.4170 O   0  0  0  0  0  0  0  0  0  0  0  0
   22.9192   -9.8496  -13.7449 C   0  0  0  0  0  0  0  0  0  0  0  0
   21.7868   -9.3317  -14.6475 C   0  0  2  0  0  0  0  0  0  0  0  0
   21.8305  -10.1811  -15.8211 N   0  0  0  0  0  0  0  0  0  0  0  0
   21.9892   -7.9093  -14.9755 C   0  0  0  0  0  0  0  0  0  0  0  0
   22.8455   -7.6050  -15.8456 O   0  0  0  0  0  0  0  0  0  0  0  0
   19.5186   -5.1913  -15.9153 O   0  0  0  0  0  0  0  0  0  0  0  0
   20.1832   -4.7721  -14.7735 C   0  0  0  0  0  0  0  0  0  0  0  0
   21.5569   -5.4461  -14.6584 C   0  0  2  0  0  0  0  0  0  0  0  0
   21.2812   -6.8497  -14.3751 N   0  0  0  0  0  0  0  0  0  0  0  0
   22.2604   -4.7992  -13.5208 C   0  0  0  0  0  0  0  0  0  0  0  0
   22.3738   -5.5072  -12.3448 O   0  0  0  0  0  0  0  0  0  0  0  0
   22.7464   -3.6591  -13.5820 O   0  0  0  0  0  0  0  0  0  0  0  0
  2  1  1  0
  3  4  1  0
  3  2  1  0
  5  6  1  6
  5  4  1  0
  7  5  1  0
  7  8  2  0
 10  9  1  1
 10 11  1  0
 10 12  1  0
 11  7  1  0
 12 17  1  0
 13 12  2  0
 14 15  1  0
 16 15  1  1
 16 18  1  0
 17 16  1  0
 18 20  2  0
 18 19  1  0
M  END
$$$$
