MAS.pdb
     RDKit          3D

 20 19  0  0  1  0  0  0  0  0999 V2000
   28.2547  -34.4209  -14.1071 C   0  0  0  0  0  0  0  0  0  0  0  0
   26.9226  -35.5959  -13.8109 S   0  0  0  0  0  0  0  0  0  0  0  0
   25.3958  -34.7588  -13.3894 C   0  0  0  0  0  0  0  0  0  0  0  0
   25.6786  -33.7507  -12.2721 C   0  0  0  0  0  0  0  0  0  0  0  0
   25.3413  -34.3465  -10.9221 C   0  0  2  0  0  0  0  0  0  0  0  0
   23.9595  -34.0137  -10.6319 N   0  0  0  0  0  0  0  0  0  0  0  0
   26.1928  -33.8630   -9.8373 C   0  0  0  0  0  0  0  0  0  0  0  0
   27.4324  -34.0974   -9.8277 O   0  0  0  0  0  0  0  0  0  0  0  0
   25.7207  -31.6075   -6.8869 C   0  0  0  0  0  0  0  0  0  0  0  0
   26.5666  -32.6365   -7.6556 C   0  0  2  0  0  0  0  0  0  0  0  0
   25.7042  -33.1016   -8.7237 N   0  0  0  0  0  0  0  0  0  0  0  0
   26.9972  -33.7289   -6.7650 C   0  0  0  0  0  0  0  0  0  0  0  0
   26.2822  -34.7609   -6.6842 O   0  0  0  0  0  0  0  0  0  0  0  0
   30.4303  -35.3657   -3.6910 O   0  0  0  0  0  0  0  0  0  0  0  0
   29.9413  -34.3934   -4.5494 C   0  0  0  0  0  0  0  0  0  0  0  0
   28.5589  -34.7826   -5.0902 C   0  0  2  0  0  0  0  0  0  0  0  0
   28.1703  -33.6994   -5.9857 N   0  0  0  0  0  0  0  0  0  0  0  0
   27.6458  -34.8631   -3.9208 C   0  0  0  0  0  0  0  0  0  0  0  0
   27.3560  -36.1099   -3.4123 O   0  0  0  0  0  0  0  0  0  0  0  0
   27.1368  -33.8657   -3.3861 O   0  0  0  0  0  0  0  0  0  0  0  0
  2  1  1  0
  3  4  1  0
  3  2  1  0
  5  6  1  1
  5  4  1  0
  7  5  1  0
  7  8  2  0
 10  9  1  1
 10 11  1  0
 10 12  1  0
 11  7  1  0
 12 17  1  0
 13 12  2  0
 14 15  1  0
 16 15  1  1
 16 18  1  0
 17 16  1  0
 18 20  2  0
 18 19  1  0
M  END
$$$$
