MAS.pdb
     RDKit          3D

 20 19  0  0  1  0  0  0  0  0999 V2000
   19.4340  -16.0102  -17.3379 C   0  0  0  0  0  0  0  0  0  0  0  0
   18.9781  -15.1953  -18.8776 S   0  0  0  0  0  0  0  0  0  0  0  0
   19.7452  -13.5820  -19.0139 C   0  0  0  0  0  0  0  0  0  0  0  0
   19.6500  -12.8748  -17.6591 C   0  0  0  0  0  0  0  0  0  0  0  0
   20.3338  -11.5256  -17.7157 C   0  0  2  0  0  0  0  0  0  0  0  0
   21.6676  -11.7349  -18.2461 N   0  0  0  0  0  0  0  0  0  0  0  0
   20.4288  -10.8603  -16.4180 C   0  0  0  0  0  0  0  0  0  0  0  0
   19.3940  -10.5665  -15.7587 O   0  0  0  0  0  0  0  0  0  0  0  0
   23.1321  -10.2852  -13.9494 C   0  0  0  0  0  0  0  0  0  0  0  0
   21.7458   -9.8913  -14.4866 C   0  0  2  0  0  0  0  0  0  0  0  0
   21.6723  -10.4964  -15.8016 N   0  0  0  0  0  0  0  0  0  0  0  0
   21.6007   -8.4255  -14.5335 C   0  0  0  0  0  0  0  0  0  0  0  0
   21.6346   -7.7795  -13.4544 O   0  0  0  0  0  0  0  0  0  0  0  0
   20.6403   -6.5024  -18.0289 O   0  0  0  0  0  0  0  0  0  0  0  0
   21.5409   -5.8332  -17.2149 C   0  0  0  0  0  0  0  0  0  0  0  0
   21.3514   -6.2287  -15.7443 C   0  0  2  0  0  0  0  0  0  0  0  0
   21.4240   -7.6848  -15.7187 N   0  0  0  0  0  0  0  0  0  0  0  0
   20.0028   -5.7534  -15.3406 C   0  0  0  0  0  0  0  0  0  0  0  0
   19.8414   -4.4097  -15.0849 O   0  0  0  0  0  0  0  0  0  0  0  0
   19.0234   -6.5064  -15.2244 O   0  0  0  0  0  0  0  0  0  0  0  0
  2  1  1  0
  3  4  1  0
  3  2  1  0
  5  6  1  1
  5  4  1  0
  7  5  1  0
  7  8  2  0
 10  9  1  6
 10 11  1  0
 10 12  1  0
 11  7  1  0
 12 17  1  0
 13 12  2  0
 14 15  1  0
 16 15  1  6
 16 18  1  0
 17 16  1  0
 18 20  2  0
 18 19  1  0
M  END
$$$$
