MAS.pdb
     RDKit          3D

 20 19  0  0  1  0  0  0  0  0999 V2000
   16.3679  -12.9557  -15.0481 C   0  0  0  0  0  0  0  0  0  0  0  0
   18.0570  -13.4642  -14.6857 S   0  0  0  0  0  0  0  0  0  0  0  0
   19.0823  -13.4156  -16.1541 C   0  0  0  0  0  0  0  0  0  0  0  0
   19.7317  -12.0327  -16.2562 C   0  0  0  0  0  0  0  0  0  0  0  0
   18.9570  -11.1521  -17.2131 C   0  0  2  0  0  0  0  0  0  0  0  0
   19.1749  -11.6662  -18.5519 N   0  0  0  0  0  0  0  0  0  0  0  0
   19.3499   -9.7453  -17.1658 C   0  0  0  0  0  0  0  0  0  0  0  0
   20.5212   -9.3852  -17.4657 O   0  0  0  0  0  0  0  0  0  0  0  0
   17.5808   -6.5043  -16.5116 C   0  0  0  0  0  0  0  0  0  0  0  0
   18.8813   -7.2999  -16.7142 C   0  0  2  0  0  0  0  0  0  0  0  0
   18.4610   -8.6852  -16.7856 N   0  0  0  0  0  0  0  0  0  0  0  0
   19.8220   -7.0545  -15.6067 C   0  0  0  0  0  0  0  0  0  0  0  0
   19.6653   -7.6845  -14.5290 O   0  0  0  0  0  0  0  0  0  0  0  0
   23.5853   -7.0346  -15.9479 O   0  0  0  0  0  0  0  0  0  0  0  0
   23.2372   -5.8609  -15.2980 C   0  0  0  0  0  0  0  0  0  0  0  0
   21.8788   -6.0022  -14.5983 C   0  0  2  0  0  0  0  0  0  0  0  0
   20.9008   -6.1507  -15.6696 N   0  0  0  0  0  0  0  0  0  0  0  0
   21.6528   -4.7457  -13.8383 C   0  0  0  0  0  0  0  0  0  0  0  0
   22.2937   -4.5986  -12.6281 O   0  0  0  0  0  0  0  0  0  0  0  0
   20.9185   -3.8302  -14.2416 O   0  0  0  0  0  0  0  0  0  0  0  0
  2  1  1  0
  3  4  1  0
  3  2  1  0
  5  6  1  6
  5  4  1  0
  7  5  1  0
  7  8  2  0
 10  9  1  1
 10 11  1  0
 10 12  1  0
 11  7  1  0
 12 17  1  0
 13 12  2  0
 14 15  1  0
 16 15  1  6
 16 18  1  0
 17 16  1  0
 18 20  2  0
 18 19  1  0
M  END
$$$$
