MAS.pdb
     RDKit          3D

 20 19  0  0  1  0  0  0  0  0999 V2000
   23.7696  -15.9389  -21.9322 C   0  0  0  0  0  0  0  0  0  0  0  0
   22.6316  -14.9481  -20.9494 S   0  0  0  0  0  0  0  0  0  0  0  0
   23.2064  -14.7763  -19.2613 C   0  0  0  0  0  0  0  0  0  0  0  0
   22.2875  -13.7977  -18.5248 C   0  0  0  0  0  0  0  0  0  0  0  0
   22.2504  -14.1159  -17.0454 C   0  0  2  0  0  0  0  0  0  0  0  0
   21.3847  -15.2663  -16.8687 N   0  0  0  0  0  0  0  0  0  0  0  0
   21.7632  -13.0131  -16.2194 C   0  0  0  0  0  0  0  0  0  0  0  0
   20.5440  -12.6886  -16.2184 O   0  0  0  0  0  0  0  0  0  0  0  0
   23.2656  -10.7162  -13.6656 C   0  0  0  0  0  0  0  0  0  0  0  0
   22.1216  -11.0790  -14.6275 C   0  0  2  0  0  0  0  0  0  0  0  0
   22.6069  -12.2293  -15.3637 N   0  0  0  0  0  0  0  0  0  0  0  0
   21.7998   -9.9426  -15.5089 C   0  0  0  0  0  0  0  0  0  0  0  0
   22.5118   -9.7465  -16.5274 O   0  0  0  0  0  0  0  0  0  0  0  0
   18.4554   -6.7449  -16.9179 O   0  0  0  0  0  0  0  0  0  0  0  0
   18.8938   -7.7526  -16.0731 C   0  0  0  0  0  0  0  0  0  0  0  0
   20.4090   -7.9579  -16.2027 C   0  0  2  0  0  0  0  0  0  0  0  0
   20.7355   -9.0463  -15.2888 N   0  0  0  0  0  0  0  0  0  0  0  0
   21.0538   -6.6894  -15.7754 C   0  0  0  0  0  0  0  0  0  0  0  0
   21.3798   -5.7709  -16.7486 O   0  0  0  0  0  0  0  0  0  0  0  0
   21.3098   -6.4224  -14.5909 O   0  0  0  0  0  0  0  0  0  0  0  0
  2  1  1  0
  3  4  1  0
  3  2  1  0
  5  6  1  6
  5  4  1  0
  7  5  1  0
  7  8  2  0
 10  9  1  1
 10 11  1  0
 10 12  1  0
 11  7  1  0
 12 17  1  0
 13 12  2  0
 14 15  1  0
 16 15  1  1
 16 18  1  0
 17 16  1  0
 18 20  2  0
 18 19  1  0
M  END
$$$$
