MAS.pdb
     RDKit          3D

 20 19  0  0  1  0  0  0  0  0999 V2000
   23.5241  -15.6770  -14.9115 C   0  0  0  0  0  0  0  0  0  0  0  0
   23.0622  -13.9999  -15.3771 S   0  0  0  0  0  0  0  0  0  0  0  0
   24.5058  -12.9594  -15.5846 C   0  0  0  0  0  0  0  0  0  0  0  0
   24.0449  -11.5185  -15.8212 C   0  0  0  0  0  0  0  0  0  0  0  0
   22.9690  -11.4734  -16.8851 C   0  0  2  0  0  0  0  0  0  0  0  0
   23.6051  -11.7469  -18.1598 N   0  0  0  0  0  0  0  0  0  0  0  0
   22.2694  -10.1925  -16.9591 C   0  0  0  0  0  0  0  0  0  0  0  0
   22.8618   -9.1474  -17.3444 O   0  0  0  0  0  0  0  0  0  0  0  0
   18.7370   -9.0502  -16.4211 C   0  0  0  0  0  0  0  0  0  0  0  0
   20.2232   -8.7342  -16.6590 C   0  0  2  0  0  0  0  0  0  0  0  0
   20.8882  -10.0211  -16.6103 N   0  0  0  0  0  0  0  0  0  0  0  0
   20.7292   -7.8012  -15.6367 C   0  0  0  0  0  0  0  0  0  0  0  0
   21.0631   -8.2580  -14.5130 O   0  0  0  0  0  0  0  0  0  0  0  0
   23.5600   -4.2738  -14.6804 O   0  0  0  0  0  0  0  0  0  0  0  0
   22.8679   -5.1623  -15.4884 C   0  0  0  0  0  0  0  0  0  0  0  0
   21.5162   -5.5343  -14.8644 C   0  0  2  0  0  0  0  0  0  0  0  0
   20.8679   -6.4128  -15.8309 N   0  0  0  0  0  0  0  0  0  0  0  0
   20.7556   -4.2688  -14.6978 C   0  0  0  0  0  0  0  0  0  0  0  0
   20.0441   -3.7960  -15.7782 O   0  0  0  0  0  0  0  0  0  0  0  0
   20.7328   -3.6240  -13.6379 O   0  0  0  0  0  0  0  0  0  0  0  0
  2  1  1  0
  3  4  1  0
  3  2  1  0
  5  6  1  6
  5  4  1  0
  7  5  1  0
  7  8  2  0
 10  9  1  1
 10 11  1  0
 10 12  1  0
 11  7  1  0
 12 17  1  0
 13 12  2  0
 14 15  1  0
 16 15  1  6
 16 18  1  0
 17 16  1  0
 18 20  2  0
 18 19  1  0
M  END
$$$$
