MAS.pdb
     RDKit          3D

 20 19  0  0  1  0  0  0  0  0999 V2000
   28.7662  -13.4124  -15.3755 C   0  0  0  0  0  0  0  0  0  0  0  0
   27.6394  -12.2250  -16.1259 S   0  0  0  0  0  0  0  0  0  0  0  0
   25.9315  -12.6277  -15.7644 C   0  0  0  0  0  0  0  0  0  0  0  0
   25.0368  -11.5056  -16.2983 C   0  0  0  0  0  0  0  0  0  0  0  0
   23.5771  -11.8864  -16.1740 C   0  0  2  0  0  0  0  0  0  0  0  0
   23.3469  -13.0212  -17.0478 N   0  0  0  0  0  0  0  0  0  0  0  0
   22.6565  -10.8085  -16.5292 C   0  0  0  0  0  0  0  0  0  0  0  0
   21.9186  -10.8910  -17.5492 O   0  0  0  0  0  0  0  0  0  0  0  0
   20.1884   -9.2761  -16.0408 C   0  0  0  0  0  0  0  0  0  0  0  0
   21.5537   -8.5710  -16.1036 C   0  0  2  0  0  0  0  0  0  0  0  0
   22.5180   -9.5999  -15.7685 N   0  0  0  0  0  0  0  0  0  0  0  0
   21.5978   -7.4333  -15.1680 C   0  0  0  0  0  0  0  0  0  0  0  0
   21.8087   -7.6606  -13.9487 O   0  0  0  0  0  0  0  0  0  0  0  0
   23.2898   -4.3320  -16.2898 O   0  0  0  0  0  0  0  0  0  0  0  0
   23.0845   -4.5007  -14.9294 C   0  0  0  0  0  0  0  0  0  0  0  0
   21.6511   -4.9681  -14.6438 C   0  0  2  0  0  0  0  0  0  0  0  0
   21.4179   -6.0886  -15.5474 N   0  0  0  0  0  0  0  0  0  0  0  0
   20.7542   -3.8276  -14.9637 C   0  0  0  0  0  0  0  0  0  0  0  0
   20.7416   -2.7541  -14.1009 O   0  0  0  0  0  0  0  0  0  0  0  0
   20.0219   -3.7990  -15.9651 O   0  0  0  0  0  0  0  0  0  0  0  0
  2  1  1  0
  3  4  1  0
  3  2  1  0
  5  6  1  6
  5  4  1  0
  7  5  1  0
  7  8  2  0
 10  9  1  1
 10 11  1  0
 10 12  1  0
 11  7  1  0
 12 17  1  0
 13 12  2  0
 14 15  1  0
 16 15  1  6
 16 18  1  0
 17 16  1  0
 18 20  2  0
 18 19  1  0
M  END
$$$$
