MAS.pdb
     RDKit          3D

 20 19  0  0  1  0  0  0  0  0999 V2000
   28.4062  -12.7733  -15.2150 C   0  0  0  0  0  0  0  0  0  0  0  0
   27.0303  -11.6281  -15.4107 S   0  0  0  0  0  0  0  0  0  0  0  0
   26.5929  -11.4224  -17.1358 C   0  0  0  0  0  0  0  0  0  0  0  0
   25.3666  -10.5101  -17.2280 C   0  0  0  0  0  0  0  0  0  0  0  0
   24.1740  -11.1547  -16.5546 C   0  0  2  0  0  0  0  0  0  0  0  0
   23.8709  -12.3741  -17.2793 N   0  0  0  0  0  0  0  0  0  0  0  0
   22.9864  -10.3036  -16.5227 C   0  0  0  0  0  0  0  0  0  0  0  0
   22.3378  -10.0500  -17.5747 O   0  0  0  0  0  0  0  0  0  0  0  0
   20.8960   -8.7706  -13.8247 C   0  0  0  0  0  0  0  0  0  0  0  0
   21.2715   -8.8911  -15.3113 C   0  0  2  0  0  0  0  0  0  0  0  0
   22.4724   -9.7026  -15.3256 N   0  0  0  0  0  0  0  0  0  0  0  0
   21.4858   -7.5598  -15.9057 C   0  0  0  0  0  0  0  0  0  0  0  0
   22.6181   -7.0227  -15.7944 O   0  0  0  0  0  0  0  0  0  0  0  0
   19.9125   -6.3310  -19.2928 O   0  0  0  0  0  0  0  0  0  0  0  0
   19.7086   -5.3743  -18.3108 C   0  0  0  0  0  0  0  0  0  0  0  0
   20.7371   -5.5184  -17.1811 C   0  0  2  0  0  0  0  0  0  0  0  0
   20.4980   -6.8344  -16.6004 N   0  0  0  0  0  0  0  0  0  0  0  0
   20.4520   -4.4407  -16.1988 C   0  0  0  0  0  0  0  0  0  0  0  0
   21.0327   -3.2089  -16.4049 O   0  0  0  0  0  0  0  0  0  0  0  0
   19.7204   -4.5992  -15.2092 O   0  0  0  0  0  0  0  0  0  0  0  0
  2  1  1  0
  3  4  1  0
  3  2  1  0
  5  6  1  6
  5  4  1  0
  7  5  1  0
  7  8  2  0
 10  9  1  1
 10 11  1  0
 10 12  1  0
 11  7  1  0
 12 17  1  0
 13 12  2  0
 14 15  1  0
 16 15  1  6
 16 18  1  0
 17 16  1  0
 18 20  2  0
 18 19  1  0
M  END
$$$$
