MAS.pdb
     RDKit          3D

 20 19  0  0  1  0  0  0  0  0999 V2000
   20.5209  -24.6559  -14.9200 C   0  0  0  0  0  0  0  0  0  0  0  0
   18.9266  -24.8235  -14.0999 S   0  0  0  0  0  0  0  0  0  0  0  0
   18.6900  -23.5463  -12.8661 C   0  0  0  0  0  0  0  0  0  0  0  0
   19.0530  -22.1924  -13.4822 C   0  0  0  0  0  0  0  0  0  0  0  0
   20.3243  -21.6517  -12.8635 C   0  0  2  0  0  0  0  0  0  0  0  0
   20.0888  -21.5077  -11.4394 N   0  0  0  0  0  0  0  0  0  0  0  0
   20.7458  -20.3661  -13.4160 C   0  0  0  0  0  0  0  0  0  0  0  0
   20.1303  -19.3018  -13.1334 O   0  0  0  0  0  0  0  0  0  0  0  0
   23.6091  -19.1727  -15.5196 C   0  0  0  0  0  0  0  0  0  0  0  0
   22.2280  -18.9354  -14.8857 C   0  0  2  0  0  0  0  0  0  0  0  0
   21.8646  -20.2109  -14.3009 N   0  0  0  0  0  0  0  0  0  0  0  0
   21.2580  -18.4853  -15.8997 C   0  0  0  0  0  0  0  0  0  0  0  0
   20.5359  -19.3439  -16.4691 O   0  0  0  0  0  0  0  0  0  0  0  0
   18.1283  -15.3355  -17.3677 O   0  0  0  0  0  0  0  0  0  0  0  0
   19.0871  -15.8525  -16.5106 C   0  0  0  0  0  0  0  0  0  0  0  0
   20.0963  -16.7203  -17.2743 C   0  0  2  0  0  0  0  0  0  0  0  0
   21.0789  -17.1415  -16.2827 N   0  0  0  0  0  0  0  0  0  0  0  0
   20.7176  -15.8510  -18.3068 C   0  0  0  0  0  0  0  0  0  0  0  0
   21.7671  -15.0446  -17.9258 O   0  0  0  0  0  0  0  0  0  0  0  0
   20.3365  -15.8191  -19.4873 O   0  0  0  0  0  0  0  0  0  0  0  0
  2  1  1  0
  3  4  1  0
  3  2  1  0
  5  6  1  1
  5  4  1  0
  7  5  1  0
  7  8  2  0
 10  9  1  6
 10 11  1  0
 10 12  1  0
 11  7  1  0
 12 17  1  0
 13 12  2  0
 14 15  1  0
 16 15  1  1
 16 18  1  0
 17 16  1  0
 18 20  2  0
 18 19  1  0
M  END
$$$$
