MAS.pdb
     RDKit          3D

 20 19  0  0  1  0  0  0  0  0999 V2000
   14.7695  -14.4883  -15.3237 C   0  0  0  0  0  0  0  0  0  0  0  0
   15.9431  -13.1850  -14.9152 S   0  0  0  0  0  0  0  0  0  0  0  0
   17.3112  -13.1530  -16.0716 C   0  0  0  0  0  0  0  0  0  0  0  0
   18.2534  -12.0084  -15.6888 C   0  0  0  0  0  0  0  0  0  0  0  0
   19.4199  -11.9372  -16.6509 C   0  0  2  0  0  0  0  0  0  0  0  0
   20.2436  -13.1095  -16.4244 N   0  0  0  0  0  0  0  0  0  0  0  0
   20.2367  -10.7354  -16.4959 C   0  0  0  0  0  0  0  0  0  0  0  0
   21.0509  -10.6194  -15.5392 O   0  0  0  0  0  0  0  0  0  0  0  0
   20.9251   -7.6914  -18.5538 C   0  0  0  0  0  0  0  0  0  0  0  0
   20.9756   -8.4198  -17.2002 C   0  0  2  0  0  0  0  0  0  0  0  0
   20.1833   -9.6179  -17.3943 N   0  0  0  0  0  0  0  0  0  0  0  0
   20.4444   -7.5628  -16.1255 C   0  0  0  0  0  0  0  0  0  0  0  0
   19.2076   -7.5782  -15.8950 O   0  0  0  0  0  0  0  0  0  0  0  0
   22.3596   -6.4004  -12.7546 O   0  0  0  0  0  0  0  0  0  0  0  0
   21.8510   -5.3355  -13.4817 C   0  0  0  0  0  0  0  0  0  0  0  0
   20.6719   -5.7809  -14.3570 C   0  0  2  0  0  0  0  0  0  0  0  0
   21.2348   -6.7144  -15.3255 N   0  0  0  0  0  0  0  0  0  0  0  0
   20.1501   -4.5630  -15.0293 C   0  0  0  0  0  0  0  0  0  0  0  0
   19.2667   -3.7688  -14.3322 O   0  0  0  0  0  0  0  0  0  0  0  0
   20.4719   -4.2318  -16.1811 O   0  0  0  0  0  0  0  0  0  0  0  0
  2  1  1  0
  3  4  1  0
  3  2  1  0
  5  6  1  1
  5  4  1  0
  7  5  1  0
  7  8  2  0
 10  9  1  6
 10 11  1  0
 10 12  1  0
 11  7  1  0
 12 17  1  0
 13 12  2  0
 14 15  1  0
 16 15  1  1
 16 18  1  0
 17 16  1  0
 18 20  2  0
 18 19  1  0
M  END
$$$$
