MAS.pdb
     RDKit          3D

 20 19  0  0  1  0  0  0  0  0999 V2000
   21.1944  -20.6398   -9.7001 C   0  0  0  0  0  0  0  0  0  0  0  0
   21.8021  -21.5559   -8.2739 S   0  0  0  0  0  0  0  0  0  0  0  0
   23.5893  -21.6793   -8.2908 C   0  0  0  0  0  0  0  0  0  0  0  0
   24.1200  -20.9778   -9.5442 C   0  0  0  0  0  0  0  0  0  0  0  0
   25.6335  -20.9956   -9.5615 C   0  0  2  0  0  0  0  0  0  0  0  0
   26.0912  -20.2634   -8.3959 N   0  0  0  0  0  0  0  0  0  0  0  0
   26.2142  -20.4017  -10.7639 C   0  0  0  0  0  0  0  0  0  0  0  0
   26.4514  -19.1644  -10.8306 O   0  0  0  0  0  0  0  0  0  0  0  0
   27.9531  -21.6446  -13.7834 C   0  0  0  0  0  0  0  0  0  0  0  0
   27.1053  -20.5412  -13.1282 C   0  0  2  0  0  0  0  0  0  0  0  0
   26.5546  -21.1554  -11.9364 N   0  0  0  0  0  0  0  0  0  0  0  0
   26.0587  -20.0686  -14.0518 C   0  0  0  0  0  0  0  0  0  0  0  0
   25.0231  -20.7674  -14.2010 O   0  0  0  0  0  0  0  0  0  0  0  0
   26.8780  -16.9455  -16.3359 O   0  0  0  0  0  0  0  0  0  0  0  0
   25.5053  -17.0271  -16.1618 C   0  0  0  0  0  0  0  0  0  0  0  0
   25.0913  -18.4335  -15.7087 C   0  0  2  0  0  0  0  0  0  0  0  0
   26.1362  -18.8718  -14.7909 N   0  0  0  0  0  0  0  0  0  0  0  0
   25.0567  -19.2855  -16.9255 C   0  0  0  0  0  0  0  0  0  0  0  0
   26.1469  -20.0865  -17.1843 O   0  0  0  0  0  0  0  0  0  0  0  0
   24.0976  -19.3077  -17.7126 O   0  0  0  0  0  0  0  0  0  0  0  0
  2  1  1  0
  3  4  1  0
  3  2  1  0
  5  6  1  1
  5  4  1  0
  7  5  1  0
  7  8  2  0
 10  9  1  6
 10 11  1  0
 10 12  1  0
 11  7  1  0
 12 17  1  0
 13 12  2  0
 14 15  1  0
 16 15  1  6
 16 18  1  0
 17 16  1  0
 18 20  2  0
 18 19  1  0
M  END
$$$$
