MAS.pdb
     RDKit          3D

 20 19  0  0  1  0  0  0  0  0999 V2000
   27.3306  -12.5169  -14.5580 C   0  0  0  0  0  0  0  0  0  0  0  0
   27.1943  -13.6299  -15.9670 S   0  0  0  0  0  0  0  0  0  0  0  0
   25.4986  -13.7661  -16.5292 C   0  0  0  0  0  0  0  0  0  0  0  0
   24.9179  -12.3584  -16.6894 C   0  0  0  0  0  0  0  0  0  0  0  0
   23.4714  -12.4282  -17.1300 C   0  0  2  0  0  0  0  0  0  0  0  0
   23.4450  -13.0457  -18.4423 N   0  0  0  0  0  0  0  0  0  0  0  0
   22.8139  -11.1248  -17.1960 C   0  0  0  0  0  0  0  0  0  0  0  0
   23.1438  -10.2714  -18.0646 O   0  0  0  0  0  0  0  0  0  0  0  0
   19.7216   -9.6461  -15.7786 C   0  0  0  0  0  0  0  0  0  0  0  0
   21.1098   -9.4298  -16.4043 C   0  0  2  0  0  0  0  0  0  0  0  0
   21.7664  -10.7180  -16.3037 N   0  0  0  0  0  0  0  0  0  0  0  0
   21.8437   -8.3679  -15.6932 C   0  0  0  0  0  0  0  0  0  0  0  0
   22.4405   -8.6569  -14.6241 O   0  0  0  0  0  0  0  0  0  0  0  0
   23.4260   -3.7472  -15.7998 O   0  0  0  0  0  0  0  0  0  0  0  0
   22.7268   -4.7996  -16.3697 C   0  0  0  0  0  0  0  0  0  0  0  0
   22.6782   -6.0049  -15.4212 C   0  0  2  0  0  0  0  0  0  0  0  0
   21.9259   -7.0319  -16.1322 N   0  0  0  0  0  0  0  0  0  0  0  0
   21.9569   -5.5631  -14.1996 C   0  0  0  0  0  0  0  0  0  0  0  0
   20.5831   -5.6607  -14.1900 O   0  0  0  0  0  0  0  0  0  0  0  0
   22.5319   -5.1137  -13.1960 O   0  0  0  0  0  0  0  0  0  0  0  0
  2  1  1  0
  3  4  1  0
  3  2  1  0
  5  6  1  6
  5  4  1  0
  7  5  1  0
  7  8  2  0
 10  9  1  1
 10 11  1  0
 10 12  1  0
 11  7  1  0
 12 17  1  0
 13 12  2  0
 14 15  1  0
 16 15  1  6
 16 18  1  0
 17 16  1  0
 18 20  2  0
 18 19  1  0
M  END
$$$$
