MAS.pdb
     RDKit          3D

 20 19  0  0  1  0  0  0  0  0999 V2000
   21.8385   -6.1057  -13.1519 C   0  0  0  0  0  0  0  0  0  0  0  0
   22.0918   -7.8187  -13.6458 S   0  0  0  0  0  0  0  0  0  0  0  0
   20.9432   -8.9141  -12.8148 C   0  0  0  0  0  0  0  0  0  0  0  0
   19.5732   -8.2333  -12.7483 C   0  0  0  0  0  0  0  0  0  0  0  0
   18.5789   -9.1121  -12.0200 C   0  0  2  0  0  0  0  0  0  0  0  0
   18.3189  -10.2652  -12.8607 N   0  0  0  0  0  0  0  0  0  0  0  0
   17.3165   -8.4423  -11.7145 C   0  0  0  0  0  0  0  0  0  0  0  0
   16.4235   -8.3017  -12.5945 O   0  0  0  0  0  0  0  0  0  0  0  0
   15.6806   -7.0668   -8.6415 C   0  0  0  0  0  0  0  0  0  0  0  0
   15.7917   -7.1365  -10.1739 C   0  0  2  0  0  0  0  0  0  0  0  0
   16.9954   -7.9042  -10.4237 N   0  0  0  0  0  0  0  0  0  0  0  0
   15.8571   -5.7838  -10.7552 C   0  0  0  0  0  0  0  0  0  0  0  0
   16.9657   -5.1895  -10.7810 O   0  0  0  0  0  0  0  0  0  0  0  0
   13.3893   -2.1607  -12.9258 O   0  0  0  0  0  0  0  0  0  0  0  0
   13.4388   -3.4384  -12.3908 C   0  0  0  0  0  0  0  0  0  0  0  0
   14.8384   -3.7519  -11.8452 C   0  0  2  0  0  0  0  0  0  0  0  0
   14.7498   -5.0983  -11.2921 N   0  0  0  0  0  0  0  0  0  0  0  0
   15.1194   -2.7541  -10.7807 C   0  0  0  0  0  0  0  0  0  0  0  0
   15.8960   -1.6641  -11.1060 O   0  0  0  0  0  0  0  0  0  0  0  0
   14.6893   -2.8578   -9.6213 O   0  0  0  0  0  0  0  0  0  0  0  0
  2  1  1  0
  3  4  1  0
  3  2  1  0
  5  6  1  6
  5  4  1  0
  7  5  1  0
  7  8  2  0
 10  9  1  1
 10 11  1  0
 10 12  1  0
 11  7  1  0
 12 17  1  0
 13 12  2  0
 14 15  1  0
 16 15  1  1
 16 18  1  0
 17 16  1  0
 18 20  2  0
 18 19  1  0
M  END
$$$$
