MAS.pdb
     RDKit          3D

 20 19  0  0  1  0  0  0  0  0999 V2000
   29.1263  -20.2360   -4.2181 C   0  0  0  0  0  0  0  0  0  0  0  0
   28.8636  -18.9657   -5.4671 S   0  0  0  0  0  0  0  0  0  0  0  0
   27.1843  -19.0008   -6.0904 C   0  0  0  0  0  0  0  0  0  0  0  0
   27.1407  -19.8847   -7.3400 C   0  0  0  0  0  0  0  0  0  0  0  0
   25.7146  -20.0601   -7.8163 C   0  0  2  0  0  0  0  0  0  0  0  0
   25.0283  -20.8867   -6.8417 N   0  0  0  0  0  0  0  0  0  0  0  0
   25.6080  -20.6791   -9.1358 C   0  0  0  0  0  0  0  0  0  0  0  0
   26.1867  -21.7703   -9.3926 O   0  0  0  0  0  0  0  0  0  0  0  0
   23.4510  -20.4423  -12.0964 C   0  0  0  0  0  0  0  0  0  0  0  0
   24.8731  -20.6712  -11.5572 C   0  0  2  0  0  0  0  0  0  0  0  0
   24.8563  -20.1138  -10.2193 N   0  0  0  0  0  0  0  0  0  0  0  0
   25.8716  -20.0210  -12.4244 C   0  0  0  0  0  0  0  0  0  0  0  0
   26.1202  -18.8000  -12.2507 O   0  0  0  0  0  0  0  0  0  0  0  0
   28.0706  -22.2605  -14.9750 O   0  0  0  0  0  0  0  0  0  0  0  0
   28.6320  -21.0494  -14.6018 C   0  0  0  0  0  0  0  0  0  0  0  0
   27.5449  -20.0064  -14.3097 C   0  0  2  0  0  0  0  0  0  0  0  0
   26.5786  -20.6794  -13.4497 N   0  0  0  0  0  0  0  0  0  0  0  0
   26.9359  -19.6416  -15.6149 C   0  0  0  0  0  0  0  0  0  0  0  0
   27.6959  -18.9094  -16.5000 O   0  0  0  0  0  0  0  0  0  0  0  0
   25.7828  -19.9643  -15.9408 O   0  0  0  0  0  0  0  0  0  0  0  0
  2  1  1  0
  3  4  1  0
  3  2  1  0
  5  6  1  1
  5  4  1  0
  7  5  1  0
  7  8  2  0
 10  9  1  6
 10 11  1  0
 10 12  1  0
 11  7  1  0
 12 17  1  0
 13 12  2  0
 14 15  1  0
 16 15  1  6
 16 18  1  0
 17 16  1  0
 18 20  2  0
 18 19  1  0
M  END
$$$$
