MAS.pdb
     RDKit          3D

 20 19  0  0  1  0  0  0  0  0999 V2000
   15.8064  -14.6321  -14.0341 C   0  0  0  0  0  0  0  0  0  0  0  0
   16.9370  -13.2310  -14.0697 S   0  0  0  0  0  0  0  0  0  0  0  0
   17.1676  -12.6209  -15.7383 C   0  0  0  0  0  0  0  0  0  0  0  0
   18.1891  -11.4805  -15.7094 C   0  0  0  0  0  0  0  0  0  0  0  0
   18.2759  -10.8116  -17.0645 C   0  0  2  0  0  0  0  0  0  0  0  0
   19.0092  -11.7023  -17.9438 N   0  0  0  0  0  0  0  0  0  0  0  0
   18.9375   -9.5089  -17.0352 C   0  0  0  0  0  0  0  0  0  0  0  0
   20.1957   -9.4167  -17.0284 O   0  0  0  0  0  0  0  0  0  0  0  0
   17.7734   -5.9532  -17.2865 C   0  0  0  0  0  0  0  0  0  0  0  0
   18.9039   -6.9794  -17.1016 C   0  0  2  0  0  0  0  0  0  0  0  0
   18.2311   -8.2602  -17.0132 N   0  0  0  0  0  0  0  0  0  0  0  0
   19.6937   -6.6751  -15.8952 C   0  0  0  0  0  0  0  0  0  0  0  0
   19.2440   -7.0251  -14.7736 O   0  0  0  0  0  0  0  0  0  0  0  0
   23.4283   -7.3092  -15.3288 O   0  0  0  0  0  0  0  0  0  0  0  0
   23.1756   -5.9664  -15.0956 C   0  0  0  0  0  0  0  0  0  0  0  0
   21.7093   -5.7435  -14.7018 C   0  0  2  0  0  0  0  0  0  0  0  0
   20.9355   -6.0101  -15.9087 N   0  0  0  0  0  0  0  0  0  0  0  0
   21.5850   -4.3212  -14.2904 C   0  0  0  0  0  0  0  0  0  0  0  0
   21.9468   -3.9870  -13.0041 O   0  0  0  0  0  0  0  0  0  0  0  0
   21.1733   -3.4282  -15.0472 O   0  0  0  0  0  0  0  0  0  0  0  0
  2  1  1  0
  3  4  1  0
  3  2  1  0
  5  6  1  6
  5  4  1  0
  7  5  1  0
  7  8  2  0
 10  9  1  1
 10 11  1  0
 10 12  1  0
 11  7  1  0
 12 17  1  0
 13 12  2  0
 14 15  1  0
 16 15  1  6
 16 18  1  0
 17 16  1  0
 18 20  2  0
 18 19  1  0
M  END
$$$$
