LGQ.pdb
     RDKit          3D

 22 21  0  0  1  0  0  0  0  0999 V2000
    5.4925  -12.5656   26.5403 C   0  0  0  0  0  0  0  0  0  0  0  0
    6.9289  -12.5001   26.0730 C   0  0  2  0  0  0  0  0  0  0  0  0
    7.3974  -11.0790   26.2039 C   0  0  0  0  0  0  0  0  0  0  0  0
    7.1015  -13.0302   24.6871 C   0  0  0  0  0  0  0  0  0  0  0  0
    6.8235  -14.5177   24.6896 C   0  0  2  0  0  0  0  0  0  0  0  0
    7.4546  -15.0860   25.8623 N   0  0  0  0  0  0  0  0  0  0  0  0
    7.4453  -15.1721   23.4875 C   0  0  0  0  0  0  0  0  0  0  0  0
    6.9357  -16.2074   22.9716 O   0  0  0  0  0  0  0  0  0  0  0  0
    8.6255  -14.6458   22.8948 N   0  0  0  0  0  0  0  0  0  0  0  0
    9.6179  -15.4223   22.1975 C   0  0  0  0  0  0  0  0  0  0  0  0
   10.4977  -16.2222   23.0467 C   0  0  0  0  0  0  0  0  0  0  0  0
   11.6800  -16.5139   22.6492 O   0  0  0  0  0  0  0  0  0  0  0  0
   10.3206  -14.4429   29.1088 N   0  0  0  0  0  0  0  0  0  0  0  0
   10.9935  -15.6999   29.0855 C   0  0  0  0  0  0  0  0  0  0  0  0
   11.1231  -16.2819   30.1764 O   0  0  0  0  0  0  0  0  0  0  0  0
   11.5194  -16.3045   27.8591 C   0  0  0  0  0  0  0  0  0  0  0  0
   10.6281  -16.1781   26.6566 C   0  0  0  0  0  0  0  0  0  0  0  0
   11.1645  -16.8142   25.4146 C   0  0  2  0  0  0  0  0  0  0  0  0
   10.1787  -16.7418   24.3239 N   0  0  0  0  0  0  0  0  0  0  0  0
   11.4525  -18.2584   25.5856 C   0  0  0  0  0  0  0  0  0  0  0  0
   12.6697  -18.7435   26.1034 O   0  0  0  0  0  0  0  0  0  0  0  0
   10.6301  -19.1632   25.2805 O   0  0  0  0  0  0  0  0  0  0  0  0
  2  3  1  6
  2  1  1  0
  4  2  1  0
  4  5  1  0
  5  6  1  1
  7  5  1  0
  7  9  1  0
  8  7  2  0
 10  9  1  0
 10 11  1  0
 11 19  1  0
 12 11  2  0
 13 14  1  0
 14 15  2  0
 16 14  1  0
 16 17  1  0
 18 17  1  1
 18 20  1  0
 19 18  1  0
 20 22  2  0
 20 21  1  0
M  END
$$$$
