LGQ.pdb
     RDKit          3D

 22 21  0  0  1  0  0  0  0  0999 V2000
    6.9394  -21.8841   23.5573 C   0  0  0  0  0  0  0  0  0  0  0  0
    7.2462  -20.5346   24.1659 C   0  0  2  0  0  0  0  0  0  0  0  0
    7.8648  -20.7617   25.5157 C   0  0  0  0  0  0  0  0  0  0  0  0
    6.0416  -19.6536   24.2336 C   0  0  0  0  0  0  0  0  0  0  0  0
    5.6521  -19.2418   22.8306 C   0  0  2  0  0  0  0  0  0  0  0  0
    6.5999  -19.8381   21.9127 N   0  0  0  0  0  0  0  0  0  0  0  0
    5.7552  -17.7506   22.6712 C   0  0  0  0  0  0  0  0  0  0  0  0
    5.1261  -16.9674   23.4384 O   0  0  0  0  0  0  0  0  0  0  0  0
    6.5635  -17.1764   21.6525 N   0  0  0  0  0  0  0  0  0  0  0  0
    6.7801  -15.7649   21.4656 C   0  0  0  0  0  0  0  0  0  0  0  0
    7.3866  -15.0688   22.5982 C   0  0  0  0  0  0  0  0  0  0  0  0
    7.6834  -13.8264   22.5020 O   0  0  0  0  0  0  0  0  0  0  0  0
    7.4065  -12.2337   27.5021 N   0  0  0  0  0  0  0  0  0  0  0  0
    6.3252  -12.6121   26.6530 C   0  0  0  0  0  0  0  0  0  0  0  0
    5.3977  -11.7927   26.5348 O   0  0  0  0  0  0  0  0  0  0  0  0
    6.2749  -13.8918   25.9419 C   0  0  0  0  0  0  0  0  0  0  0  0
    7.4815  -14.7676   26.1254 C   0  0  0  0  0  0  0  0  0  0  0  0
    8.3643  -14.8708   24.9234 C   0  0  2  0  0  0  0  0  0  0  0  0
    7.7031  -15.6375   23.8549 N   0  0  0  0  0  0  0  0  0  0  0  0
    9.6288  -15.5943   25.1980 C   0  0  0  0  0  0  0  0  0  0  0  0
   10.7088  -15.0173   25.8951 O   0  0  0  0  0  0  0  0  0  0  0  0
    9.8348  -16.7813   24.8286 O   0  0  0  0  0  0  0  0  0  0  0  0
  2  3  1  1
  2  1  1  0
  4  2  1  0
  4  5  1  0
  5  6  1  6
  7  5  1  0
  7  9  1  0
  8  7  2  0
 10  9  1  0
 10 11  1  0
 11 19  1  0
 12 11  2  0
 13 14  1  0
 14 15  2  0
 16 14  1  0
 16 17  1  0
 18 17  1  1
 18 20  1  0
 19 18  1  0
 20 22  2  0
 20 21  1  0
M  END
$$$$
