LGQ.pdb
     RDKit          3D

 22 21  0  0  1  0  0  0  0  0999 V2000
    5.9001  -11.9043   25.1638 C   0  0  0  0  0  0  0  0  0  0  0  0
    6.4748  -12.9285   26.1160 C   0  0  2  0  0  0  0  0  0  0  0  0
    6.5199  -12.3166   27.4870 C   0  0  0  0  0  0  0  0  0  0  0  0
    7.8102  -13.4309   25.6734 C   0  0  0  0  0  0  0  0  0  0  0  0
    7.6612  -14.1099   24.3293 C   0  0  2  0  0  0  0  0  0  0  0  0
    6.6704  -15.1566   24.4672 N   0  0  0  0  0  0  0  0  0  0  0  0
    8.9512  -14.7676   23.9253 C   0  0  0  0  0  0  0  0  0  0  0  0
   10.0175  -14.0983   23.8127 O   0  0  0  0  0  0  0  0  0  0  0  0
    9.0103  -16.1626   23.6576 N   0  0  0  0  0  0  0  0  0  0  0  0
   10.2046  -16.8882   23.3097 C   0  0  0  0  0  0  0  0  0  0  0  0
   11.0289  -17.3159   24.4379 C   0  0  0  0  0  0  0  0  0  0  0  0
   12.1993  -17.7937   24.2311 O   0  0  0  0  0  0  0  0  0  0  0  0
   11.0491  -15.0382   30.3099 N   0  0  0  0  0  0  0  0  0  0  0  0
   10.6011  -14.6618   29.0095 C   0  0  0  0  0  0  0  0  0  0  0  0
   10.0421  -13.5556   28.9124 O   0  0  0  0  0  0  0  0  0  0  0  0
   10.7722  -15.5090   27.8269 C   0  0  0  0  0  0  0  0  0  0  0  0
   11.4202  -16.8390   28.0872 C   0  0  0  0  0  0  0  0  0  0  0  0
   11.5686  -17.7063   26.8788 C   0  0  2  0  0  0  0  0  0  0  0  0
   10.6651  -17.2632   25.8045 N   0  0  0  0  0  0  0  0  0  0  0  0
   11.2049  -19.1202   27.1365 C   0  0  0  0  0  0  0  0  0  0  0  0
   10.1389  -19.7709   26.4844 O   0  0  0  0  0  0  0  0  0  0  0  0
   11.8217  -19.8488   27.9592 O   0  0  0  0  0  0  0  0  0  0  0  0
  2  3  1  1
  2  1  1  0
  4  2  1  0
  4  5  1  0
  5  6  1  1
  7  5  1  0
  7  9  1  0
  8  7  2  0
 10  9  1  0
 10 11  1  0
 11 19  1  0
 12 11  2  0
 13 14  1  0
 14 15  2  0
 16 14  1  0
 16 17  1  0
 18 17  1  1
 18 20  1  0
 19 18  1  0
 20 22  2  0
 20 21  1  0
M  END
$$$$
