LGQ.pdb
     RDKit          3D

 22 21  0  0  1  0  0  0  0  0999 V2000
    2.5035  -19.8441   19.1080 C   0  0  0  0  0  0  0  0  0  0  0  0
    1.8023  -19.8458   20.4474 C   0  0  2  0  0  0  0  0  0  0  0  0
    0.3476  -19.5544   20.2125 C   0  0  0  0  0  0  0  0  0  0  0  0
    2.4236  -18.8934   21.4163 C   0  0  0  0  0  0  0  0  0  0  0  0
    3.8540  -19.3145   21.6737 C   0  0  2  0  0  0  0  0  0  0  0  0
    3.8354  -20.6776   22.1618 N   0  0  0  0  0  0  0  0  0  0  0  0
    4.4682  -18.4639   22.7504 C   0  0  0  0  0  0  0  0  0  0  0  0
    3.9895  -18.4458   23.9201 O   0  0  0  0  0  0  0  0  0  0  0  0
    5.6061  -17.6542   22.4851 N   0  0  0  0  0  0  0  0  0  0  0  0
    6.2080  -16.7408   23.4218 C   0  0  0  0  0  0  0  0  0  0  0  0
    6.5437  -17.3105   24.7248 C   0  0  0  0  0  0  0  0  0  0  0  0
    5.6206  -17.7951   25.4690 O   0  0  0  0  0  0  0  0  0  0  0  0
    7.6855  -22.3006   27.0230 N   0  0  0  0  0  0  0  0  0  0  0  0
    8.4140  -21.7444   25.9305 C   0  0  0  0  0  0  0  0  0  0  0  0
    8.9565  -22.5510   25.1556 O   0  0  0  0  0  0  0  0  0  0  0  0
    8.5393  -20.3029   25.7024 C   0  0  0  0  0  0  0  0  0  0  0  0
    7.7094  -19.4419   26.6114 C   0  0  0  0  0  0  0  0  0  0  0  0
    8.0843  -17.9947   26.6117 C   0  0  2  0  0  0  0  0  0  0  0  0
    7.8379  -17.3919   25.2916 N   0  0  0  0  0  0  0  0  0  0  0  0
    9.5255  -17.7733   26.8793 C   0  0  0  0  0  0  0  0  0  0  0  0
   10.1204  -18.0143   28.1336 O   0  0  0  0  0  0  0  0  0  0  0  0
   10.3294  -17.3522   26.0050 O   0  0  0  0  0  0  0  0  0  0  0  0
  2  3  1  6
  2  1  1  0
  4  2  1  0
  4  5  1  0
  5  6  1  1
  7  5  1  0
  7  9  1  0
  8  7  2  0
 10  9  1  0
 10 11  1  0
 11 19  1  0
 12 11  2  0
 13 14  1  0
 14 15  2  0
 16 14  1  0
 16 17  1  0
 18 17  1  6
 18 20  1  0
 19 18  1  0
 20 22  2  0
 20 21  1  0
M  END
$$$$
