LGQ.pdb
     RDKit          3D

 22 21  0  0  1  0  0  0  0  0999 V2000
    9.1919  -12.6001   19.4523 C   0  0  0  0  0  0  0  0  0  0  0  0
    8.1143  -13.6550   19.5606 C   0  0  2  0  0  0  0  0  0  0  0  0
    6.8167  -13.0431   19.1154 C   0  0  0  0  0  0  0  0  0  0  0  0
    8.0259  -14.2398   20.9323 C   0  0  0  0  0  0  0  0  0  0  0  0
    9.3814  -14.7869   21.3237 C   0  0  2  0  0  0  0  0  0  0  0  0
    9.7193  -15.8446   20.3945 N   0  0  0  0  0  0  0  0  0  0  0  0
    9.3265  -15.3994   22.6954 C   0  0  0  0  0  0  0  0  0  0  0  0
    9.0129  -14.7085   23.7064 O   0  0  0  0  0  0  0  0  0  0  0  0
    9.6257  -16.7745   22.8967 N   0  0  0  0  0  0  0  0  0  0  0  0
    9.7439  -17.4160   24.1807 C   0  0  0  0  0  0  0  0  0  0  0  0
   10.2875  -16.5818   25.2501 C   0  0  0  0  0  0  0  0  0  0  0  0
   11.4751  -16.1110   25.1543 O   0  0  0  0  0  0  0  0  0  0  0  0
    6.5751  -13.0138   27.9274 N   0  0  0  0  0  0  0  0  0  0  0  0
    7.6063  -12.5057   27.0836 C   0  0  0  0  0  0  0  0  0  0  0  0
    7.3372  -11.4826   26.4308 O   0  0  0  0  0  0  0  0  0  0  0  0
    8.9258  -13.1310   26.9659 C   0  0  0  0  0  0  0  0  0  0  0  0
    9.1593  -14.2979   27.8826 C   0  0  0  0  0  0  0  0  0  0  0  0
   10.1965  -15.2643   27.4083 C   0  0  2  0  0  0  0  0  0  0  0  0
    9.6209  -16.2154   26.4435 N   0  0  0  0  0  0  0  0  0  0  0  0
   10.7464  -16.1014   28.5013 C   0  0  0  0  0  0  0  0  0  0  0  0
   10.5129  -17.4874   28.6000 O   0  0  0  0  0  0  0  0  0  0  0  0
   11.4652  -15.6371   29.4264 O   0  0  0  0  0  0  0  0  0  0  0  0
  2  3  1  1
  2  1  1  0
  4  2  1  0
  4  5  1  0
  5  6  1  6
  7  5  1  0
  7  9  1  0
  8  7  2  0
 10  9  1  0
 10 11  1  0
 11 19  1  0
 12 11  2  0
 13 14  1  0
 14 15  2  0
 16 14  1  0
 16 17  1  0
 18 17  1  1
 18 20  1  0
 19 18  1  0
 20 22  2  0
 20 21  1  0
M  END
$$$$
