LGQ.pdb
     RDKit          3D

 22 21  0  0  1  0  0  0  0  0999 V2000
    5.3892  -12.4335   24.9748 C   0  0  0  0  0  0  0  0  0  0  0  0
    6.0740  -13.1243   26.1323 C   0  0  2  0  0  0  0  0  0  0  0  0
    6.4101  -12.0846   27.1628 C   0  0  0  0  0  0  0  0  0  0  0  0
    7.2722  -13.9053   25.7008 C   0  0  0  0  0  0  0  0  0  0  0  0
    6.8324  -15.0009   24.7543 C   0  0  2  0  0  0  0  0  0  0  0  0
    6.0064  -15.9275   25.4996 N   0  0  0  0  0  0  0  0  0  0  0  0
    8.0213  -15.7701   24.2497 C   0  0  0  0  0  0  0  0  0  0  0  0
    8.4177  -16.8173   24.8364 O   0  0  0  0  0  0  0  0  0  0  0  0
    8.7356  -15.3428   23.0973 N   0  0  0  0  0  0  0  0  0  0  0  0
    9.8701  -16.0230   22.5278 C   0  0  0  0  0  0  0  0  0  0  0  0
   10.9732  -16.2819   23.4504 C   0  0  0  0  0  0  0  0  0  0  0  0
   12.1787  -16.3034   23.0176 O   0  0  0  0  0  0  0  0  0  0  0  0
   10.7201  -13.6394   29.4604 N   0  0  0  0  0  0  0  0  0  0  0  0
   10.6399  -14.9098   28.8175 C   0  0  0  0  0  0  0  0  0  0  0  0
   10.2141  -15.8547   29.5041 O   0  0  0  0  0  0  0  0  0  0  0  0
   11.0311  -15.1279   27.4228 C   0  0  0  0  0  0  0  0  0  0  0  0
   11.6667  -16.4598   27.1428 C   0  0  0  0  0  0  0  0  0  0  0  0
   12.0346  -16.6854   25.7115 C   0  0  2  0  0  0  0  0  0  0  0  0
   10.8593  -16.5268   24.8397 N   0  0  0  0  0  0  0  0  0  0  0  0
   12.5297  -18.0588   25.4537 C   0  0  0  0  0  0  0  0  0  0  0  0
   13.8368  -18.4772   25.7724 O   0  0  0  0  0  0  0  0  0  0  0  0
   11.8189  -18.9577   24.9295 O   0  0  0  0  0  0  0  0  0  0  0  0
  2  3  1  1
  2  1  1  0
  4  2  1  0
  4  5  1  0
  5  6  1  1
  7  5  1  0
  7  9  1  0
  8  7  2  0
 10  9  1  0
 10 11  1  0
 11 19  1  0
 12 11  2  0
 13 14  1  0
 14 15  2  0
 16 14  1  0
 16 17  1  0
 18 17  1  1
 18 20  1  0
 19 18  1  0
 20 22  2  0
 20 21  1  0
M  END
$$$$
