LGQ.pdb
     RDKit          3D

 22 21  0  0  1  0  0  0  0  0999 V2000
    6.5242  -14.2669   19.8470 C   0  0  0  0  0  0  0  0  0  0  0  0
    7.3756  -13.4381   20.7818 C   0  0  2  0  0  0  0  0  0  0  0  0
    7.3787  -12.0230   20.2783 C   0  0  0  0  0  0  0  0  0  0  0  0
    8.7554  -13.9900   20.9351 C   0  0  0  0  0  0  0  0  0  0  0  0
    8.6679  -15.3798   21.5271 C   0  0  2  0  0  0  0  0  0  0  0  0
    8.0558  -15.2686   22.8345 N   0  0  0  0  0  0  0  0  0  0  0  0
   10.0423  -15.9554   21.7260 C   0  0  0  0  0  0  0  0  0  0  0  0
   10.6809  -16.4674   20.7627 O   0  0  0  0  0  0  0  0  0  0  0  0
   10.6651  -15.9411   23.0038 N   0  0  0  0  0  0  0  0  0  0  0  0
   12.0648  -16.1801   23.2446 C   0  0  0  0  0  0  0  0  0  0  0  0
   12.4018  -17.5291   23.6936 C   0  0  0  0  0  0  0  0  0  0  0  0
   11.5646  -18.1986   24.3950 O   0  0  0  0  0  0  0  0  0  0  0  0
   12.5431  -23.0345   20.6921 N   0  0  0  0  0  0  0  0  0  0  0  0
   12.6562  -22.6810   22.0690 C   0  0  0  0  0  0  0  0  0  0  0  0
   11.7285  -23.0415   22.8138 O   0  0  0  0  0  0  0  0  0  0  0  0
   13.7913  -21.9317   22.6130 C   0  0  0  0  0  0  0  0  0  0  0  0
   13.7145  -20.4426   22.4309 C   0  0  0  0  0  0  0  0  0  0  0  0
   13.7717  -19.6564   23.7011 C   0  0  2  0  0  0  0  0  0  0  0  0
   13.6100  -18.2182   23.4322 N   0  0  0  0  0  0  0  0  0  0  0  0
   15.0752  -19.7795   24.3965 C   0  0  0  0  0  0  0  0  0  0  0  0
   16.0433  -18.7559   24.4018 O   0  0  0  0  0  0  0  0  0  0  0  0
   15.4173  -20.8098   25.0364 O   0  0  0  0  0  0  0  0  0  0  0  0
  2  3  1  6
  2  1  1  0
  4  2  1  0
  4  5  1  0
  5  6  1  1
  7  5  1  0
  7  9  1  0
  8  7  2  0
 10  9  1  0
 10 11  1  0
 11 19  1  0
 12 11  2  0
 13 14  1  0
 14 15  2  0
 16 14  1  0
 16 17  1  0
 18 17  1  6
 18 20  1  0
 19 18  1  0
 20 22  2  0
 20 21  1  0
M  END
$$$$
