LGQ.pdb
     RDKit          3D

 22 21  0  0  1  0  0  0  0  0999 V2000
    7.1701  -11.0262   25.2819 C   0  0  0  0  0  0  0  0  0  0  0  0
    6.2000  -12.1828   25.3647 C   0  0  2  0  0  0  0  0  0  0  0  0
    5.1800  -11.8611   26.4193 C   0  0  0  0  0  0  0  0  0  0  0  0
    6.8871  -13.4851   25.6169 C   0  0  0  0  0  0  0  0  0  0  0  0
    7.9817  -13.6725   24.5891 C   0  0  2  0  0  0  0  0  0  0  0  0
    7.3640  -13.6909   23.2797 N   0  0  0  0  0  0  0  0  0  0  0  0
    8.6619  -14.9995   24.7795 C   0  0  0  0  0  0  0  0  0  0  0  0
    9.1175  -15.3432   25.9074 O   0  0  0  0  0  0  0  0  0  0  0  0
    8.8132  -15.9079   23.6965 N   0  0  0  0  0  0  0  0  0  0  0  0
    9.5192  -17.1614   23.7607 C   0  0  0  0  0  0  0  0  0  0  0  0
   10.6369  -17.2035   24.7009 C   0  0  0  0  0  0  0  0  0  0  0  0
   11.6043  -16.3720   24.5834 O   0  0  0  0  0  0  0  0  0  0  0  0
   11.1344  -15.0926   30.4226 N   0  0  0  0  0  0  0  0  0  0  0  0
   10.6102  -15.2778   29.1095 C   0  0  0  0  0  0  0  0  0  0  0  0
   10.0811  -14.2869   28.5769 O   0  0  0  0  0  0  0  0  0  0  0  0
   10.6727  -16.5549   28.3947 C   0  0  0  0  0  0  0  0  0  0  0  0
   11.8536  -16.7131   27.4799 C   0  0  0  0  0  0  0  0  0  0  0  0
   11.8983  -18.0114   26.7400 C   0  0  2  0  0  0  0  0  0  0  0  0
   10.7845  -18.1045   25.7822 N   0  0  0  0  0  0  0  0  0  0  0  0
   11.7471  -19.1870   27.6304 C   0  0  0  0  0  0  0  0  0  0  0  0
   10.6438  -20.0612   27.5688 O   0  0  0  0  0  0  0  0  0  0  0  0
   12.5943  -19.4948   28.5110 O   0  0  0  0  0  0  0  0  0  0  0  0
  2  3  1  1
  2  1  1  0
  4  2  1  0
  4  5  1  0
  5  6  1  6
  7  5  1  0
  7  9  1  0
  8  7  2  0
 10  9  1  0
 10 11  1  0
 11 19  1  0
 12 11  2  0
 13 14  1  0
 14 15  2  0
 16 14  1  0
 16 17  1  0
 18 17  1  1
 18 20  1  0
 19 18  1  0
 20 22  2  0
 20 21  1  0
M  END
$$$$
