LGQ.pdb
     RDKit          3D

 22 21  0  0  1  0  0  0  0  0999 V2000
    6.5874  -12.8698   27.3049 C   0  0  0  0  0  0  0  0  0  0  0  0
    7.2330  -12.6907   25.9496 C   0  0  2  0  0  0  0  0  0  0  0  0
    7.6727  -11.2596   25.8282 C   0  0  0  0  0  0  0  0  0  0  0  0
    6.3337  -13.1060   24.8313 C   0  0  0  0  0  0  0  0  0  0  0  0
    6.5034  -14.5895   24.5867 C   0  0  2  0  0  0  0  0  0  0  0  0
    7.0292  -15.1829   25.7983 N   0  0  0  0  0  0  0  0  0  0  0  0
    7.5112  -14.8322   23.4979 C   0  0  0  0  0  0  0  0  0  0  0  0
    7.2542  -14.5425   22.2946 O   0  0  0  0  0  0  0  0  0  0  0  0
    8.7838  -15.3950   23.7891 N   0  0  0  0  0  0  0  0  0  0  0  0
    9.7887  -15.7189   22.8097 C   0  0  0  0  0  0  0  0  0  0  0  0
   10.7619  -16.7283   23.2209 C   0  0  0  0  0  0  0  0  0  0  0  0
   11.9326  -16.7386   22.7010 O   0  0  0  0  0  0  0  0  0  0  0  0
   11.9680  -19.3712   30.0609 N   0  0  0  0  0  0  0  0  0  0  0  0
   11.2722  -18.8297   28.9401 C   0  0  0  0  0  0  0  0  0  0  0  0
   10.0892  -18.4968   29.1277 O   0  0  0  0  0  0  0  0  0  0  0  0
   11.8866  -18.6607   27.6211 C   0  0  0  0  0  0  0  0  0  0  0  0
   10.9568  -18.1766   26.5451 C   0  0  0  0  0  0  0  0  0  0  0  0
   11.5631  -18.1146   25.1801 C   0  0  2  0  0  0  0  0  0  0  0  0
   10.5503  -17.7515   24.1755 N   0  0  0  0  0  0  0  0  0  0  0  0
   12.1077  -19.4186   24.7320 C   0  0  0  0  0  0  0  0  0  0  0  0
   13.4225  -19.8400   25.0129 O   0  0  0  0  0  0  0  0  0  0  0  0
   11.4359  -20.2505   24.0652 O   0  0  0  0  0  0  0  0  0  0  0  0
  2  3  1  6
  2  1  1  0
  4  2  1  0
  4  5  1  0
  5  6  1  1
  7  5  1  0
  7  9  1  0
  8  7  2  0
 10  9  1  0
 10 11  1  0
 11 19  1  0
 12 11  2  0
 13 14  1  0
 14 15  2  0
 16 14  1  0
 16 17  1  0
 18 17  1  1
 18 20  1  0
 19 18  1  0
 20 22  2  0
 20 21  1  0
M  END
$$$$
