LGQ.pdb
     RDKit          3D

 22 21  0  0  1  0  0  0  0  0999 V2000
    5.1718  -12.9738   26.5938 C   0  0  0  0  0  0  0  0  0  0  0  0
    6.6437  -13.1022   26.2728 C   0  0  2  0  0  0  0  0  0  0  0  0
    7.3687  -11.9752   26.9513 C   0  0  0  0  0  0  0  0  0  0  0  0
    6.9043  -13.1422   24.8024 C   0  0  0  0  0  0  0  0  0  0  0  0
    6.7691  -14.5687   24.3161 C   0  0  2  0  0  0  0  0  0  0  0  0
    7.1106  -15.4475   25.4150 N   0  0  0  0  0  0  0  0  0  0  0  0
    7.7461  -14.8421   23.2067 C   0  0  0  0  0  0  0  0  0  0  0  0
    7.8581  -14.0520   22.2264 O   0  0  0  0  0  0  0  0  0  0  0  0
    8.5737  -15.9979   23.2269 N   0  0  0  0  0  0  0  0  0  0  0  0
    9.9487  -16.0382   22.8008 C   0  0  0  0  0  0  0  0  0  0  0  0
   10.9105  -16.4398   23.8249 C   0  0  0  0  0  0  0  0  0  0  0  0
   12.1660  -16.4062   23.5729 O   0  0  0  0  0  0  0  0  0  0  0  0
   10.7339  -13.2770   29.0451 N   0  0  0  0  0  0  0  0  0  0  0  0
   10.8516  -14.6764   28.7974 C   0  0  0  0  0  0  0  0  0  0  0  0
   10.6563  -15.4311   29.7658 O   0  0  0  0  0  0  0  0  0  0  0  0
   11.1851  -15.2320   27.4836 C   0  0  0  0  0  0  0  0  0  0  0  0
   11.3501  -16.7247   27.4492 C   0  0  0  0  0  0  0  0  0  0  0  0
   11.6387  -17.2879   26.0948 C   0  0  2  0  0  0  0  0  0  0  0  0
   10.6005  -16.8874   25.1313 N   0  0  0  0  0  0  0  0  0  0  0  0
   11.6383  -18.7703   26.0756 C   0  0  0  0  0  0  0  0  0  0  0  0
   12.6307  -19.5476   26.7049 O   0  0  0  0  0  0  0  0  0  0  0  0
   10.7498  -19.4492   25.4944 O   0  0  0  0  0  0  0  0  0  0  0  0
  2  3  1  6
  2  1  1  0
  4  2  1  0
  4  5  1  0
  5  6  1  1
  7  5  1  0
  7  9  1  0
  8  7  2  0
 10  9  1  0
 10 11  1  0
 11 19  1  0
 12 11  2  0
 13 14  1  0
 14 15  2  0
 16 14  1  0
 16 17  1  0
 18 17  1  1
 18 20  1  0
 19 18  1  0
 20 22  2  0
 20 21  1  0
M  END
$$$$
