LGQ.pdb
     RDKit          3D

 22 21  0  0  1  0  0  0  0  0999 V2000
    9.5939  -13.6164   18.8462 C   0  0  0  0  0  0  0  0  0  0  0  0
    8.1483  -13.6598   19.2870 C   0  0  2  0  0  0  0  0  0  0  0  0
    7.5796  -12.2758   19.1569 C   0  0  0  0  0  0  0  0  0  0  0  0
    7.9900  -14.2123   20.6659 C   0  0  0  0  0  0  0  0  0  0  0  0
    8.4540  -15.6525   20.6767 C   0  0  2  0  0  0  0  0  0  0  0  0
    7.6359  -16.3905   19.7372 N   0  0  0  0  0  0  0  0  0  0  0  0
    8.2388  -16.2654   22.0324 C   0  0  0  0  0  0  0  0  0  0  0  0
    7.0741  -16.4857   22.4714 O   0  0  0  0  0  0  0  0  0  0  0  0
    9.3392  -16.6156   22.8616 N   0  0  0  0  0  0  0  0  0  0  0  0
    9.2483  -16.9485   24.2598 C   0  0  0  0  0  0  0  0  0  0  0  0
    9.6887  -15.9043   25.1822 C   0  0  0  0  0  0  0  0  0  0  0  0
   10.4694  -14.9751   24.7723 O   0  0  0  0  0  0  0  0  0  0  0  0
    5.7537  -12.6142   25.8070 N   0  0  0  0  0  0  0  0  0  0  0  0
    6.7736  -12.6812   26.8013 C   0  0  0  0  0  0  0  0  0  0  0  0
    6.9698  -11.6500   27.4673 O   0  0  0  0  0  0  0  0  0  0  0  0
    7.5699  -13.8849   27.0523 C   0  0  0  0  0  0  0  0  0  0  0  0
    8.9407  -13.6336   27.6128 C   0  0  0  0  0  0  0  0  0  0  0  0
    9.9047  -14.7614   27.4292 C   0  0  2  0  0  0  0  0  0  0  0  0
    9.3365  -15.7950   26.5486 N   0  0  0  0  0  0  0  0  0  0  0  0
   10.2218  -15.4602   28.6976 C   0  0  0  0  0  0  0  0  0  0  0  0
   10.9166  -14.8481   29.7596 O   0  0  0  0  0  0  0  0  0  0  0  0
    9.8940  -16.6559   28.9233 O   0  0  0  0  0  0  0  0  0  0  0  0
  2  3  1  1
  2  1  1  0
  4  2  1  0
  4  5  1  0
  5  6  1  6
  7  5  1  0
  7  9  1  0
  8  7  2  0
 10  9  1  0
 10 11  1  0
 11 19  1  0
 12 11  2  0
 13 14  1  0
 14 15  2  0
 16 14  1  0
 16 17  1  0
 18 17  1  1
 18 20  1  0
 19 18  1  0
 20 22  2  0
 20 21  1  0
M  END
$$$$
