LGQ.pdb
     RDKit          3D

 22 21  0  0  1  0  0  0  0  0999 V2000
    5.9666  -12.8588   26.2902 C   0  0  0  0  0  0  0  0  0  0  0  0
    7.4046  -12.7956   25.8274 C   0  0  2  0  0  0  0  0  0  0  0  0
    8.0173  -11.5404   26.3797 C   0  0  0  0  0  0  0  0  0  0  0  0
    7.5286  -12.8824   24.3412 C   0  0  0  0  0  0  0  0  0  0  0  0
    7.3347  -14.3208   23.9132 C   0  0  2  0  0  0  0  0  0  0  0  0
    6.7772  -15.0473   25.0347 N   0  0  0  0  0  0  0  0  0  0  0  0
    8.6571  -14.9555   23.5840 C   0  0  0  0  0  0  0  0  0  0  0  0
    9.4777  -14.3885   22.8075 O   0  0  0  0  0  0  0  0  0  0  0  0
    9.0245  -16.2128   24.1365 N   0  0  0  0  0  0  0  0  0  0  0  0
   10.3008  -16.8548   23.9553 C   0  0  0  0  0  0  0  0  0  0  0  0
   11.1132  -16.9857   25.1627 C   0  0  0  0  0  0  0  0  0  0  0  0
   12.2657  -17.5416   25.1021 O   0  0  0  0  0  0  0  0  0  0  0  0
    8.4560  -15.6109   28.1066 N   0  0  0  0  0  0  0  0  0  0  0  0
    9.3014  -14.4625   28.1006 C   0  0  0  0  0  0  0  0  0  0  0  0
    8.7476  -13.3651   27.9151 O   0  0  0  0  0  0  0  0  0  0  0  0
   10.7512  -14.5340   28.2981 C   0  0  0  0  0  0  0  0  0  0  0  0
   11.2650  -15.8712   28.7502 C   0  0  0  0  0  0  0  0  0  0  0  0
   11.5912  -16.8198   27.6418 C   0  0  2  0  0  0  0  0  0  0  0  0
   10.7558  -16.5488   26.4605 N   0  0  0  0  0  0  0  0  0  0  0  0
   11.3203  -18.2338   27.9956 C   0  0  0  0  0  0  0  0  0  0  0  0
   12.0706  -18.9438   28.9538 O   0  0  0  0  0  0  0  0  0  0  0  0
   10.3977  -18.9094   27.4661 O   0  0  0  0  0  0  0  0  0  0  0  0
  2  3  1  6
  2  1  1  0
  4  2  1  0
  4  5  1  0
  5  6  1  1
  7  5  1  0
  7  9  1  0
  8  7  2  0
 10  9  1  0
 10 11  1  0
 11 19  1  0
 12 11  2  0
 13 14  1  0
 14 15  2  0
 16 14  1  0
 16 17  1  0
 18 17  1  1
 18 20  1  0
 19 18  1  0
 20 22  2  0
 20 21  1  0
M  END
$$$$
