ERG.pdb
     RDKit          3D

 25 24  0  0  1  0  0  0  0  0999 V2000
   34.2134  -35.9511   -5.9352 N   0  0  0  0  0  0  0  0  0  0  0  0
   33.0496  -36.5566   -6.5524 C   0  0  1  0  0  0  0  0  0  0  0  0
   33.1769  -38.0353   -6.4645 C   0  0  0  0  0  0  0  0  0  0  0  0
   33.2078  -38.4951   -5.0425 C   0  0  0  0  0  0  0  0  0  0  0  0
   33.3344  -39.9483   -4.8430 C   0  0  0  0  0  0  0  0  0  0  0  0
   33.3630  -40.4453   -3.7127 O   0  0  0  0  0  0  0  0  0  0  0  0
   31.7904  -36.0583   -5.9226 C   0  0  0  0  0  0  0  0  0  0  0  0
   31.8093  -35.4941   -4.8016 O   0  0  0  0  0  0  0  0  0  0  0  0
   33.4281  -40.8330   -5.9271 O   0  0  0  0  0  0  0  0  0  0  0  0
   24.6413  -32.2497   -7.0026 N   0  0  0  0  0  0  0  0  0  0  0  0
   25.4788  -32.3370   -8.1734 C   0  0  0  0  0  0  0  0  0  0  0  0
   25.6625  -31.3302   -8.9529 N   0  0  0  0  0  0  0  0  0  0  0  0
   26.1347  -33.5482   -8.5103 N   0  0  0  0  0  0  0  0  0  0  0  0
   25.8848  -34.7803   -7.7328 C   0  0  0  0  0  0  0  0  0  0  0  0
   26.9662  -34.8483   -6.7185 C   0  0  0  0  0  0  0  0  0  0  0  0
   28.2340  -35.5087   -7.1581 C   0  0  0  0  0  0  0  0  0  0  0  0
   29.3125  -35.6356   -6.1527 C   0  0  2  0  0  0  0  0  0  0  0  0
   30.5459  -36.2340   -6.6225 N   0  0  0  0  0  0  0  0  0  0  0  0
   28.7700  -36.4234   -5.0021 C   0  0  0  0  0  0  0  0  0  0  0  0
   28.7529  -37.6793   -5.1539 O   0  0  0  0  0  0  0  0  0  0  0  0
   26.3214  -31.3127   -9.7541 N   0  0  0  0  0  0  0  0  0  0  0  0
   28.2943  -35.8566   -3.8044 C   0  0  0  0  0  0  0  0  0  0  0  0
   28.9432  -36.1311   -2.5129 C   0  0  0  0  0  0  0  0  0  0  0  0
   28.2667  -35.3892   -1.4379 O   0  0  0  0  0  0  0  0  0  0  0  0
   28.6056  -35.6337   -0.1208 O   0  0  0  0  0  0  0  0  0  0  0  0
  2  1  1  1
  2  7  1  0
  2  3  1  0
  4  5  1  0
  4  3  1  0
  5  9  1  0
  6  5  2  0
  7  8  2  0
 10 11  1  0
 11 12  2  0
 11 13  1  0
 13 14  1  0
 14 15  1  0
 15 16  1  0
 17 16  1  6
 17 19  1  0
 18 17  1  0
 18  7  1  0
 19 20  2  0
 21 22  1  0
 21 19  1  0
 23 22  1  0
 24 23  1  0
 25 23  2  0
M  END
$$$$
