ERG.pdb
     RDKit          3D

 25 24  0  0  1  0  0  0  0  0999 V2000
   18.1190  -21.0616  -10.0348 N   0  0  0  0  0  0  0  0  0  0  0  0
   19.0989  -21.9621  -10.6102 C   0  0  1  0  0  0  0  0  0  0  0  0
   18.4023  -23.1878  -11.0825 C   0  0  0  0  0  0  0  0  0  0  0  0
   17.3646  -22.8626  -12.1082 C   0  0  0  0  0  0  0  0  0  0  0  0
   16.6302  -24.0124  -12.6616 C   0  0  0  0  0  0  0  0  0  0  0  0
   15.7569  -23.8675  -13.5228 O   0  0  0  0  0  0  0  0  0  0  0  0
   19.8660  -21.2908  -11.7015 C   0  0  0  0  0  0  0  0  0  0  0  0
   19.3976  -20.2908  -12.2983 O   0  0  0  0  0  0  0  0  0  0  0  0
   16.8893  -25.3232  -12.2357 O   0  0  0  0  0  0  0  0  0  0  0  0
   25.4973  -24.6508  -15.0764 N   0  0  0  0  0  0  0  0  0  0  0  0
   25.4930  -23.7138  -16.1727 C   0  0  0  0  0  0  0  0  0  0  0  0
   25.4838  -24.1036  -17.3986 N   0  0  0  0  0  0  0  0  0  0  0  0
   25.4997  -22.3158  -15.9351 N   0  0  0  0  0  0  0  0  0  0  0  0
   25.5019  -21.7876  -14.5546 C   0  0  0  0  0  0  0  0  0  0  0  0
   24.1705  -21.1624  -14.3555 C   0  0  0  0  0  0  0  0  0  0  0  0
   23.3011  -21.7936  -13.3150 C   0  0  0  0  0  0  0  0  0  0  0  0
   21.9570  -21.2082  -13.1131 C   0  0  2  0  0  0  0  0  0  0  0  0
   21.1588  -21.8082  -12.0629 N   0  0  0  0  0  0  0  0  0  0  0  0
   21.2268  -21.2879  -14.4166 C   0  0  0  0  0  0  0  0  0  0  0  0
   20.5927  -22.3620  -14.6279 O   0  0  0  0  0  0  0  0  0  0  0  0
   25.4963  -23.4724  -18.2220 N   0  0  0  0  0  0  0  0  0  0  0  0
   21.2127  -20.2649  -15.3838 C   0  0  0  0  0  0  0  0  0  0  0  0
   20.0242  -19.4243  -15.5967 C   0  0  0  0  0  0  0  0  0  0  0  0
   19.0009  -20.1729  -16.3424 O   0  0  0  0  0  0  0  0  0  0  0  0
   17.6799  -20.1092  -15.9416 O   0  0  0  0  0  0  0  0  0  0  0  0
  2  1  1  6
  2  7  1  0
  2  3  1  0
  4  5  1  0
  4  3  1  0
  5  9  1  0
  6  5  2  0
  7  8  2  0
 10 11  1  0
 11 12  2  0
 11 13  1  0
 13 14  1  0
 14 15  1  0
 15 16  1  0
 17 16  1  6
 17 19  1  0
 18 17  1  0
 18  7  1  0
 19 20  2  0
 21 22  1  0
 21 19  1  0
 23 22  1  0
 24 23  1  0
 25 23  2  0
M  END
$$$$
