ERG.pdb
     RDKit          3D

 25 24  0  0  1  0  0  0  0  0999 V2000
   21.4518  -18.6418  -16.4660 N   0  0  0  0  0  0  0  0  0  0  0  0
   20.6118  -19.8077  -16.6591 C   0  0  1  0  0  0  0  0  0  0  0  0
   21.1046  -20.5610  -17.8424 C   0  0  0  0  0  0  0  0  0  0  0  0
   22.4047  -20.0114  -18.3344 C   0  0  0  0  0  0  0  0  0  0  0  0
   22.8230  -20.4599  -19.6729 C   0  0  0  0  0  0  0  0  0  0  0  0
   22.7338  -19.7215  -20.6589 O   0  0  0  0  0  0  0  0  0  0  0  0
   20.5750  -20.6501  -15.4266 C   0  0  0  0  0  0  0  0  0  0  0  0
   19.8983  -21.7066  -15.3874 O   0  0  0  0  0  0  0  0  0  0  0  0
   23.3413  -21.7451  -19.8880 O   0  0  0  0  0  0  0  0  0  0  0  0
   25.5326  -23.7266  -13.8687 N   0  0  0  0  0  0  0  0  0  0  0  0
   26.3340  -22.5499  -14.0989 C   0  0  0  0  0  0  0  0  0  0  0  0
   27.1726  -22.4795  -15.0719 N   0  0  0  0  0  0  0  0  0  0  0  0
   26.2254  -21.4182  -13.2512 N   0  0  0  0  0  0  0  0  0  0  0  0
   25.1279  -21.3191  -12.2661 C   0  0  0  0  0  0  0  0  0  0  0  0
   23.8710  -21.3145  -13.0556 C   0  0  0  0  0  0  0  0  0  0  0  0
   22.6241  -20.9874  -12.2972 C   0  0  0  0  0  0  0  0  0  0  0  0
   21.3509  -21.0073  -13.0513 C   0  0  2  0  0  0  0  0  0  0  0  0
   21.3308  -20.2327  -14.2760 N   0  0  0  0  0  0  0  0  0  0  0  0
   20.2707  -20.5333  -12.1309 C   0  0  0  0  0  0  0  0  0  0  0  0
   20.0644  -19.2852  -12.1206 O   0  0  0  0  0  0  0  0  0  0  0  0
   27.7752  -21.6605  -15.2778 N   0  0  0  0  0  0  0  0  0  0  0  0
   19.5025  -21.3766  -11.3057 C   0  0  0  0  0  0  0  0  0  0  0  0
   18.6779  -22.4581  -11.8667 C   0  0  0  0  0  0  0  0  0  0  0  0
   17.4301  -21.9095  -12.4194 O   0  0  0  0  0  0  0  0  0  0  0  0
   16.2226  -22.4994  -12.0974 O   0  0  0  0  0  0  0  0  0  0  0  0
  2  1  1  1
  2  7  1  0
  2  3  1  0
  4  5  1  0
  4  3  1  0
  5  9  1  0
  6  5  2  0
  7  8  2  0
 10 11  1  0
 11 12  2  0
 11 13  1  0
 13 14  1  0
 14 15  1  0
 15 16  1  0
 17 16  1  1
 17 19  1  0
 18 17  1  0
 18  7  1  0
 19 20  2  0
 21 22  1  0
 21 19  1  0
 23 22  1  0
 24 23  1  0
 25 23  2  0
M  END
$$$$
