ERG.pdb
     RDKit          3D

 25 24  0  0  1  0  0  0  0  0999 V2000
   21.8127  -15.5337  -17.8088 N   0  0  0  0  0  0  0  0  0  0  0  0
   22.1989  -14.1389  -17.8960 C   0  0  1  0  0  0  0  0  0  0  0  0
   22.7532  -13.8803  -19.2511 C   0  0  0  0  0  0  0  0  0  0  0  0
   22.1780  -14.8190  -20.2623 C   0  0  0  0  0  0  0  0  0  0  0  0
   22.6116  -14.6050  -21.6530 C   0  0  0  0  0  0  0  0  0  0  0  0
   23.4298  -13.7277  -21.9470 O   0  0  0  0  0  0  0  0  0  0  0  0
   21.0471  -13.2442  -17.5752 C   0  0  0  0  0  0  0  0  0  0  0  0
   19.9829  -13.2997  -18.2385 O   0  0  0  0  0  0  0  0  0  0  0  0
   22.1153  -15.3875  -22.7056 O   0  0  0  0  0  0  0  0  0  0  0  0
   14.1513  -11.8637  -14.7367 N   0  0  0  0  0  0  0  0  0  0  0  0
   14.6584  -10.5160  -14.6564 C   0  0  0  0  0  0  0  0  0  0  0  0
   13.8892   -9.4927  -14.7829 N   0  0  0  0  0  0  0  0  0  0  0  0
   16.0371  -10.2693  -14.4339 N   0  0  0  0  0  0  0  0  0  0  0  0
   17.0578  -11.2330  -14.8967 C   0  0  0  0  0  0  0  0  0  0  0  0
   18.3625  -10.6988  -14.4327 C   0  0  0  0  0  0  0  0  0  0  0  0
   19.5638  -11.5230  -14.7712 C   0  0  0  0  0  0  0  0  0  0  0  0
   20.1081  -11.3913  -16.1411 C   0  0  2  0  0  0  0  0  0  0  0  0
   21.1732  -12.3108  -16.4878 N   0  0  0  0  0  0  0  0  0  0  0  0
   20.5779   -9.9807  -16.3092 C   0  0  0  0  0  0  0  0  0  0  0  0
   21.7563   -9.7421  -15.9156 O   0  0  0  0  0  0  0  0  0  0  0  0
   14.1957   -8.5054  -14.6949 N   0  0  0  0  0  0  0  0  0  0  0  0
   19.8013   -8.9446  -16.8619 C   0  0  0  0  0  0  0  0  0  0  0  0
   20.2845   -7.5555  -16.8955 C   0  0  0  0  0  0  0  0  0  0  0  0
   20.2617   -6.9779  -15.5429 O   0  0  0  0  0  0  0  0  0  0  0  0
   20.7485   -5.7012  -15.3367 O   0  0  0  0  0  0  0  0  0  0  0  0
  2  1  1  6
  2  7  1  0
  2  3  1  0
  4  5  1  0
  4  3  1  0
  5  9  1  0
  6  5  2  0
  7  8  2  0
 10 11  1  0
 11 12  2  0
 11 13  1  0
 13 14  1  0
 14 15  1  0
 15 16  1  0
 17 16  1  1
 17 19  1  0
 18 17  1  0
 18  7  1  0
 19 20  2  0
 21 22  1  0
 21 19  1  0
 23 22  1  0
 24 23  1  0
 25 23  2  0
M  END
$$$$
