ERG.pdb
     RDKit          3D

 25 24  0  0  1  0  0  0  0  0999 V2000
   21.1091  -26.8199  -14.5950 N   0  0  0  0  0  0  0  0  0  0  0  0
   21.0484  -25.6513  -13.7389 C   0  0  1  0  0  0  0  0  0  0  0  0
   21.1512  -24.4331  -14.5849 C   0  0  0  0  0  0  0  0  0  0  0  0
   20.0344  -24.3635  -15.5761 C   0  0  0  0  0  0  0  0  0  0  0  0
   20.1027  -23.2521  -16.5394 C   0  0  0  0  0  0  0  0  0  0  0  0
   19.2318  -23.0882  -17.3997 O   0  0  0  0  0  0  0  0  0  0  0  0
   19.8073  -25.6609  -12.9084 C   0  0  0  0  0  0  0  0  0  0  0  0
   18.7413  -26.1575  -13.3472 O   0  0  0  0  0  0  0  0  0  0  0  0
   21.1593  -22.3301  -16.5231 O   0  0  0  0  0  0  0  0  0  0  0  0
   18.0189  -26.0587   -4.0444 N   0  0  0  0  0  0  0  0  0  0  0  0
   16.8058  -25.9010   -4.8082 C   0  0  0  0  0  0  0  0  0  0  0  0
   15.6443  -25.9741   -4.2601 N   0  0  0  0  0  0  0  0  0  0  0  0
   16.8515  -25.6584   -6.2047 N   0  0  0  0  0  0  0  0  0  0  0  0
   18.1475  -25.5201   -6.9020 C   0  0  0  0  0  0  0  0  0  0  0  0
   17.8216  -25.3777   -8.3430 C   0  0  0  0  0  0  0  0  0  0  0  0
   18.9890  -25.2227   -9.2648 C   0  0  0  0  0  0  0  0  0  0  0  0
   18.6962  -25.1062  -10.7108 C   0  0  2  0  0  0  0  0  0  0  0  0
   19.8491  -25.0897  -11.5887 N   0  0  0  0  0  0  0  0  0  0  0  0
   17.8854  -23.8647  -10.9111 C   0  0  0  0  0  0  0  0  0  0  0  0
   18.5398  -22.7838  -10.9736 O   0  0  0  0  0  0  0  0  0  0  0  0
   14.7432  -25.8634   -4.7623 N   0  0  0  0  0  0  0  0  0  0  0  0
   16.4826  -23.8415  -11.0276 C   0  0  0  0  0  0  0  0  0  0  0  0
   15.7398  -22.5751  -11.1231 C   0  0  0  0  0  0  0  0  0  0  0  0
   15.3810  -22.3024  -12.5232 O   0  0  0  0  0  0  0  0  0  0  0  0
   14.5612  -21.2309  -12.8224 O   0  0  0  0  0  0  0  0  0  0  0  0
  2  1  1  6
  2  7  1  0
  2  3  1  0
  4  5  1  0
  4  3  1  0
  5  9  1  0
  6  5  2  0
  7  8  2  0
 10 11  1  0
 11 12  2  0
 11 13  1  0
 13 14  1  0
 14 15  1  0
 15 16  1  0
 17 16  1  1
 17 19  1  0
 18 17  1  0
 18  7  1  0
 19 20  2  0
 21 22  1  0
 21 19  1  0
 23 22  1  0
 24 23  1  0
 25 23  2  0
M  END
$$$$
