ERG.pdb
     RDKit          3D

 25 24  0  0  1  0  0  0  0  0999 V2000
   29.0673  -21.5012  -18.1001 N   0  0  0  0  0  0  0  0  0  0  0  0
   28.9111  -20.4558  -17.1077 C   0  0  1  0  0  0  0  0  0  0  0  0
   28.7858  -19.1490  -17.8057 C   0  0  0  0  0  0  0  0  0  0  0  0
   27.4208  -18.9727  -18.3891 C   0  0  0  0  0  0  0  0  0  0  0  0
   27.1953  -17.7144  -19.1195 C   0  0  0  0  0  0  0  0  0  0  0  0
   28.1179  -16.9259  -19.3487 O   0  0  0  0  0  0  0  0  0  0  0  0
   27.7464  -20.7352  -16.2156 C   0  0  0  0  0  0  0  0  0  0  0  0
   26.7844  -21.4375  -16.6117 O   0  0  0  0  0  0  0  0  0  0  0  0
   25.9231  -17.3549  -19.5875 O   0  0  0  0  0  0  0  0  0  0  0  0
   22.3586  -21.8493  -10.7352 N   0  0  0  0  0  0  0  0  0  0  0  0
   23.3050  -21.1225   -9.9252 C   0  0  0  0  0  0  0  0  0  0  0  0
   22.9533  -20.5263   -8.8409 N   0  0  0  0  0  0  0  0  0  0  0  0
   24.6700  -21.0380  -10.3002 N   0  0  0  0  0  0  0  0  0  0  0  0
   25.1557  -21.7048  -11.5267 C   0  0  0  0  0  0  0  0  0  0  0  0
   26.6094  -21.4144  -11.5999 C   0  0  0  0  0  0  0  0  0  0  0  0
   27.0084  -20.3034  -12.5183 C   0  0  0  0  0  0  0  0  0  0  0  0
   26.6682  -20.4567  -13.9503 C   0  0  2  0  0  0  0  0  0  0  0  0
   27.7408  -20.1854  -14.8863 N   0  0  0  0  0  0  0  0  0  0  0  0
   25.5028  -19.5635  -14.2382 C   0  0  0  0  0  0  0  0  0  0  0  0
   25.7752  -18.3393  -14.4048 O   0  0  0  0  0  0  0  0  0  0  0  0
   23.5957  -20.0037   -8.2160 N   0  0  0  0  0  0  0  0  0  0  0  0
   24.1680  -20.0020  -14.3277 C   0  0  0  0  0  0  0  0  0  0  0  0
   23.0686  -19.0663  -14.6107 C   0  0  0  0  0  0  0  0  0  0  0  0
   22.6894  -19.1438  -16.0297 O   0  0  0  0  0  0  0  0  0  0  0  0
   21.4209  -18.7591  -16.4202 O   0  0  0  0  0  0  0  0  0  0  0  0
  2  1  1  6
  2  7  1  0
  2  3  1  0
  4  5  1  0
  4  3  1  0
  5  9  1  0
  6  5  2  0
  7  8  2  0
 10 11  1  0
 11 12  2  0
 11 13  1  0
 13 14  1  0
 14 15  1  0
 15 16  1  0
 17 16  1  1
 17 19  1  0
 18 17  1  0
 18  7  1  0
 19 20  2  0
 21 22  1  0
 21 19  1  0
 23 22  1  0
 24 23  1  0
 25 23  2  0
M  END
$$$$
