ERG.pdb
     RDKit          3D

 25 24  0  0  1  0  0  0  0  0999 V2000
   20.5940  -15.2753  -16.4245 N   0  0  0  0  0  0  0  0  0  0  0  0
   20.2282  -13.9995  -17.0080 C   0  0  1  0  0  0  0  0  0  0  0  0
   18.8551  -13.6455  -16.5609 C   0  0  0  0  0  0  0  0  0  0  0  0
   17.8889  -14.7501  -16.8448 C   0  0  0  0  0  0  0  0  0  0  0  0
   16.4930  -14.4954  -16.4522 C   0  0  0  0  0  0  0  0  0  0  0  0
   16.1410  -13.4069  -15.9865 O   0  0  0  0  0  0  0  0  0  0  0  0
   21.2268  -12.9456  -16.6582 C   0  0  0  0  0  0  0  0  0  0  0  0
   21.9200  -13.0345  -15.6155 O   0  0  0  0  0  0  0  0  0  0  0  0
   15.5007  -15.4769  -16.5894 O   0  0  0  0  0  0  0  0  0  0  0  0
   28.2497  -10.7723  -16.7667 N   0  0  0  0  0  0  0  0  0  0  0  0
   27.9935   -9.7345  -17.7348 C   0  0  0  0  0  0  0  0  0  0  0  0
   28.9404   -9.0142  -18.2242 N   0  0  0  0  0  0  0  0  0  0  0  0
   26.6753   -9.4685  -18.1850 N   0  0  0  0  0  0  0  0  0  0  0  0
   25.5079   -9.8664  -17.3705 C   0  0  0  0  0  0  0  0  0  0  0  0
   24.3125   -9.4016  -18.1176 C   0  0  0  0  0  0  0  0  0  0  0  0
   23.2650  -10.4356  -18.3832 C   0  0  0  0  0  0  0  0  0  0  0  0
   22.3481  -10.7685  -17.2704 C   0  0  2  0  0  0  0  0  0  0  0  0
   21.3861  -11.8188  -17.5382 N   0  0  0  0  0  0  0  0  0  0  0  0
   21.6353   -9.5127  -16.8784 C   0  0  0  0  0  0  0  0  0  0  0  0
   21.0461   -8.8988  -17.8145 O   0  0  0  0  0  0  0  0  0  0  0  0
   28.8012   -8.1756  -18.8190 N   0  0  0  0  0  0  0  0  0  0  0  0
   21.5913   -8.9994  -15.5681 C   0  0  0  0  0  0  0  0  0  0  0  0
   20.8622   -7.7616  -15.2513 C   0  0  0  0  0  0  0  0  0  0  0  0
   21.0731   -7.3955  -13.8424 O   0  0  0  0  0  0  0  0  0  0  0  0
   20.5129   -6.2335  -13.3469 O   0  0  0  0  0  0  0  0  0  0  0  0
  2  1  1  1
  2  7  1  0
  2  3  1  0
  4  5  1  0
  4  3  1  0
  5  9  1  0
  6  5  2  0
  7  8  2  0
 10 11  1  0
 11 12  2  0
 11 13  1  0
 13 14  1  0
 14 15  1  0
 15 16  1  0
 17 16  1  6
 17 19  1  0
 18 17  1  0
 18  7  1  0
 19 20  2  0
 21 22  1  0
 21 19  1  0
 23 22  1  0
 24 23  1  0
 25 23  2  0
M  END
$$$$
