ERG.pdb
     RDKit          3D

 25 24  0  0  1  0  0  0  0  0999 V2000
   21.5876  -12.2489  -17.6055 N   0  0  0  0  0  0  0  0  0  0  0  0
   20.5433  -11.2875  -17.9010 C   0  0  1  0  0  0  0  0  0  0  0  0
   19.2678  -11.7702  -17.3089 C   0  0  0  0  0  0  0  0  0  0  0  0
   19.4070  -12.0123  -15.8404 C   0  0  0  0  0  0  0  0  0  0  0  0
   18.1759  -12.4116  -15.1386 C   0  0  0  0  0  0  0  0  0  0  0  0
   18.2119  -12.9716  -14.0384 O   0  0  0  0  0  0  0  0  0  0  0  0
   20.9155   -9.9266  -17.4115 C   0  0  0  0  0  0  0  0  0  0  0  0
   22.0620   -9.6963  -16.9554 O   0  0  0  0  0  0  0  0  0  0  0  0
   16.9076  -12.1738  -15.6878 O   0  0  0  0  0  0  0  0  0  0  0  0
   15.8495   -3.7498  -20.6281 N   0  0  0  0  0  0  0  0  0  0  0  0
   16.5673   -4.7673  -21.3557 C   0  0  0  0  0  0  0  0  0  0  0  0
   16.3729   -4.9686  -22.6113 N   0  0  0  0  0  0  0  0  0  0  0  0
   17.5215   -5.5906  -20.7054 N   0  0  0  0  0  0  0  0  0  0  0  0
   17.8425   -5.3859  -19.2772 C   0  0  0  0  0  0  0  0  0  0  0  0
   18.8526   -6.4180  -18.9347 C   0  0  0  0  0  0  0  0  0  0  0  0
   19.2519   -6.4893  -17.4951 C   0  0  0  0  0  0  0  0  0  0  0  0
   20.2623   -7.5052  -17.1248 C   0  0  2  0  0  0  0  0  0  0  0  0
   19.9361   -8.8745  -17.4698 N   0  0  0  0  0  0  0  0  0  0  0  0
   20.4992   -7.3938  -15.6516 C   0  0  0  0  0  0  0  0  0  0  0  0
   19.9538   -8.2841  -14.9372 O   0  0  0  0  0  0  0  0  0  0  0  0
   15.7273   -4.4172  -23.2076 N   0  0  0  0  0  0  0  0  0  0  0  0
   21.2692   -6.3836  -15.0444 C   0  0  0  0  0  0  0  0  0  0  0  0
   21.4910   -6.3550  -13.5903 C   0  0  0  0  0  0  0  0  0  0  0  0
   22.3657   -5.2278  -13.2330 O   0  0  0  0  0  0  0  0  0  0  0  0
   22.9488   -4.4718  -14.2321 O   0  0  0  0  0  0  0  0  0  0  0  0
  2  1  1  1
  2  7  1  0
  2  3  1  0
  4  5  1  0
  4  3  1  0
  5  9  1  0
  6  5  2  0
  7  8  2  0
 10 11  1  0
 11 12  2  0
 11 13  1  0
 13 14  1  0
 14 15  1  0
 15 16  1  0
 17 16  1  1
 17 19  1  0
 18 17  1  0
 18  7  1  0
 19 20  2  0
 21 22  1  0
 21 19  1  0
 23 22  1  0
 24 23  1  0
 25 23  2  0
M  END
$$$$
