ERG.pdb
     RDKit          3D

 25 24  0  0  1  0  0  0  0  0999 V2000
   24.4043  -20.6005  -15.2249 N   0  0  0  0  0  0  0  0  0  0  0  0
   23.3126  -19.8399  -14.6490 C   0  0  1  0  0  0  0  0  0  0  0  0
   22.5704  -19.1638  -15.7456 C   0  0  0  0  0  0  0  0  0  0  0  0
   22.3046  -20.0999  -16.8803 C   0  0  0  0  0  0  0  0  0  0  0  0
   21.6359  -19.5107  -18.0522 C   0  0  0  0  0  0  0  0  0  0  0  0
   20.5842  -19.9790  -18.4995 O   0  0  0  0  0  0  0  0  0  0  0  0
   22.4286  -20.7151  -13.8227 C   0  0  0  0  0  0  0  0  0  0  0  0
   22.4607  -21.9639  -13.9453 O   0  0  0  0  0  0  0  0  0  0  0  0
   22.1630  -18.3915  -18.7128 O   0  0  0  0  0  0  0  0  0  0  0  0
   16.9057  -23.9594   -8.8489 N   0  0  0  0  0  0  0  0  0  0  0  0
   18.1787  -24.2074   -8.2181 C   0  0  0  0  0  0  0  0  0  0  0  0
   18.3231  -25.1097   -7.3125 N   0  0  0  0  0  0  0  0  0  0  0  0
   19.3272  -23.4569   -8.5770 N   0  0  0  0  0  0  0  0  0  0  0  0
   19.2174  -22.3115   -9.5047 C   0  0  0  0  0  0  0  0  0  0  0  0
   20.5920  -21.7701   -9.6480 C   0  0  0  0  0  0  0  0  0  0  0  0
   20.7435  -20.6096  -10.5792 C   0  0  0  0  0  0  0  0  0  0  0  0
   20.6611  -20.8929  -12.0294 C   0  0  2  0  0  0  0  0  0  0  0  0
   21.5331  -20.1045  -12.8769 N   0  0  0  0  0  0  0  0  0  0  0  0
   19.2371  -20.7049  -12.4485 C   0  0  0  0  0  0  0  0  0  0  0  0
   18.7736  -19.5353  -12.3150 O   0  0  0  0  0  0  0  0  0  0  0  0
   19.2212  -25.3495   -6.8519 N   0  0  0  0  0  0  0  0  0  0  0  0
   18.4181  -21.7278  -12.9633 C   0  0  0  0  0  0  0  0  0  0  0  0
   17.0507  -21.4552  -13.4324 C   0  0  0  0  0  0  0  0  0  0  0  0
   16.0787  -21.7793  -12.3771 O   0  0  0  0  0  0  0  0  0  0  0  0
   14.9672  -22.5415  -12.6824 O   0  0  0  0  0  0  0  0  0  0  0  0
  2  1  1  6
  2  7  1  0
  2  3  1  0
  4  5  1  0
  4  3  1  0
  5  9  1  0
  6  5  2  0
  7  8  2  0
 10 11  1  0
 11 12  2  0
 11 13  1  0
 13 14  1  0
 14 15  1  0
 15 16  1  0
 17 16  1  1
 17 19  1  0
 18 17  1  0
 18  7  1  0
 19 20  2  0
 21 22  1  0
 21 19  1  0
 23 22  1  0
 24 23  1  0
 25 23  2  0
M  END
$$$$
