GMW.pdb
     RDKit          3D

 27 28  0  0  1  0  0  0  0  0999 V2000
   28.6413  -23.9256  -17.1617 N   0  0  0  0  0  0  0  0  0  0  0  0
   28.2309  -22.5395  -17.0707 C   0  0  0  0  0  0  0  0  0  0  0  0
   27.5057  -22.3532  -15.7983 C   0  0  0  0  0  0  0  0  0  0  0  0
   27.1770  -23.3334  -15.1090 O   0  0  0  0  0  0  0  0  0  0  0  0
   25.5184  -20.9306   -9.4899 C   0  0  0  0  0  0  0  0  0  0  0  0
   25.9151  -21.0621  -11.2346 S   0  0  0  0  0  0  0  0  0  0  0  0
   26.4863  -19.5355  -11.9550 C   0  0  0  0  0  0  0  0  0  0  0  0
   26.8974  -19.5870  -13.3771 C   0  0  0  0  0  0  0  0  0  0  0  0
   26.4392  -20.7427  -14.1855 C   0  0  2  0  0  0  0  0  0  0  0  0
   27.1929  -21.0122  -15.3839 N   0  0  0  0  0  0  0  0  0  0  0  0
   24.9901  -20.6433  -14.5833 C   0  0  0  0  0  0  0  0  0  0  0  0
   24.6135  -19.7146  -15.3322 O   0  0  0  0  0  0  0  0  0  0  0  0
   24.0386  -21.5925  -14.1188 N   0  0  0  0  0  0  0  0  0  0  0  0
   22.6084  -21.4965  -14.3904 C   0  0  1  0  0  0  0  0  0  0  0  0
   22.0318  -22.8209  -13.9503 C   0  0  0  0  0  0  0  0  0  0  0  0
   20.5695  -22.9163  -14.2187 C   0  0  0  0  0  0  0  0  0  0  0  0
   20.0222  -22.9065  -15.4960 C   0  0  0  0  0  0  0  0  0  0  0  0
   18.6989  -23.0530  -15.4202 N   0  0  0  0  0  0  0  0  0  0  0  0
   18.3755  -23.1570  -14.1212 C   0  0  0  0  0  0  0  0  0  0  0  0
   17.1419  -23.3145  -13.4777 C   0  0  0  0  0  0  0  0  0  0  0  0
   17.0913  -23.3823  -12.1054 C   0  0  0  0  0  0  0  0  0  0  0  0
   18.2433  -23.2967  -11.3540 C   0  0  0  0  0  0  0  0  0  0  0  0
   19.4762  -23.1405  -11.9714 C   0  0  0  0  0  0  0  0  0  0  0  0
   19.5219  -23.0743  -13.3514 C   0  0  0  0  0  0  0  0  0  0  0  0
   21.9995  -20.3071  -13.8292 C   0  0  0  0  0  0  0  0  0  0  0  0
   22.3237  -19.7659  -12.7463 O   0  0  0  0  0  0  0  0  0  0  0  0
   20.9514  -19.6687  -14.5208 O   0  0  0  0  0  0  0  0  0  0  0  0
  2  1  1  0
  2  3  1  0
  3  4  2  0
  6  7  1  0
  6  5  1  0
  9  8  1  6
  8  7  1  0
 10  3  1  0
 10  9  1  0
 11  9  1  0
 11 12  2  0
 13 11  1  0
 14 13  1  0
 14 15  1  1
 16 15  1  0
 16 17  2  0
 18 17  1  0
 19 18  1  0
 20 19  2  0
 21 20  1  0
 22 21  2  0
 22 23  1  0
 23 24  2  0
 24 19  1  0
 24 16  1  0
 25 14  1  0
 26 25  2  0
 27 25  1  0
M  END
$$$$
