GMW.pdb
     RDKit          3D

 27 28  0  0  1  0  0  0  0  0999 V2000
   31.6329  -23.9832  -15.2364 N   0  0  0  0  0  0  0  0  0  0  0  0
   30.4873  -23.3899  -15.8948 C   0  0  0  0  0  0  0  0  0  0  0  0
   29.9401  -22.3382  -15.0150 C   0  0  0  0  0  0  0  0  0  0  0  0
   30.4073  -22.1597  -13.8775 O   0  0  0  0  0  0  0  0  0  0  0  0
   27.0816  -17.0063  -17.5976 C   0  0  0  0  0  0  0  0  0  0  0  0
   28.5719  -16.9138  -16.6031 S   0  0  0  0  0  0  0  0  0  0  0  0
   28.9913  -18.4478  -15.7989 C   0  0  0  0  0  0  0  0  0  0  0  0
   27.8606  -19.2712  -15.3118 C   0  0  0  0  0  0  0  0  0  0  0  0
   28.1794  -20.5726  -14.6763 C   0  0  2  0  0  0  0  0  0  0  0  0
   28.8571  -21.5325  -15.5107 N   0  0  0  0  0  0  0  0  0  0  0  0
   26.9674  -21.2581  -14.1024 C   0  0  0  0  0  0  0  0  0  0  0  0
   26.7032  -22.4349  -14.4350 O   0  0  0  0  0  0  0  0  0  0  0  0
   26.1145  -20.5859  -13.1843 N   0  0  0  0  0  0  0  0  0  0  0  0
   25.1422  -21.2715  -12.3399 C   0  0  1  0  0  0  0  0  0  0  0  0
   25.9611  -21.9788  -11.2867 C   0  0  0  0  0  0  0  0  0  0  0  0
   26.2742  -21.0956  -10.1286 C   0  0  0  0  0  0  0  0  0  0  0  0
   25.3669  -20.1946   -9.5844 C   0  0  0  0  0  0  0  0  0  0  0  0
   25.9149  -19.5825   -8.5339 N   0  0  0  0  0  0  0  0  0  0  0  0
   27.1585  -20.0666   -8.3851 C   0  0  0  0  0  0  0  0  0  0  0  0
   28.1682  -19.7730   -7.4605 C   0  0  0  0  0  0  0  0  0  0  0  0
   29.3787  -20.4197   -7.5429 C   0  0  0  0  0  0  0  0  0  0  0  0
   29.6104  -21.3558   -8.5273 C   0  0  0  0  0  0  0  0  0  0  0  0
   28.6235  -21.6619   -9.4536 C   0  0  0  0  0  0  0  0  0  0  0  0
   27.4078  -21.0099   -9.3657 C   0  0  0  0  0  0  0  0  0  0  0  0
   24.0867  -20.4008  -11.8622 C   0  0  0  0  0  0  0  0  0  0  0  0
   24.1208  -19.1481  -11.8639 O   0  0  0  0  0  0  0  0  0  0  0  0
   22.9030  -20.9612  -11.3432 O   0  0  0  0  0  0  0  0  0  0  0  0
  2  1  1  0
  2  3  1  0
  3  4  2  0
  6  7  1  0
  6  5  1  0
  9  8  1  6
  8  7  1  0
 10  3  1  0
 10  9  1  0
 11  9  1  0
 11 12  2  0
 13 11  1  0
 14 13  1  0
 14 15  1  1
 16 15  1  0
 16 17  2  0
 18 17  1  0
 19 18  1  0
 20 19  2  0
 21 20  1  0
 22 21  2  0
 22 23  1  0
 23 24  2  0
 24 19  1  0
 24 16  1  0
 25 14  1  0
 26 25  2  0
 27 25  1  0
M  END
$$$$
