GMW.pdb
     RDKit          3D

 27 28  0  0  1  0  0  0  0  0999 V2000
   28.4019  -24.0328  -17.7739 N   0  0  0  0  0  0  0  0  0  0  0  0
   27.1153  -23.3868  -17.6150 C   0  0  0  0  0  0  0  0  0  0  0  0
   27.0795  -22.7452  -16.2859 C   0  0  0  0  0  0  0  0  0  0  0  0
   27.0656  -23.4340  -15.2519 O   0  0  0  0  0  0  0  0  0  0  0  0
   29.9705  -19.9372  -12.9547 C   0  0  0  0  0  0  0  0  0  0  0  0
   28.4875  -19.1216  -12.3595 S   0  0  0  0  0  0  0  0  0  0  0  0
   27.4453  -18.4936  -13.6615 C   0  0  0  0  0  0  0  0  0  0  0  0
   27.4807  -19.2246  -14.9493 C   0  0  0  0  0  0  0  0  0  0  0  0
   26.9324  -20.6022  -14.9752 C   0  0  2  0  0  0  0  0  0  0  0  0
   27.0611  -21.3086  -16.2247 N   0  0  0  0  0  0  0  0  0  0  0  0
   25.4817  -20.6642  -14.5754 C   0  0  0  0  0  0  0  0  0  0  0  0
   24.5992  -20.7797  -15.4547 O   0  0  0  0  0  0  0  0  0  0  0  0
   25.0974  -20.5931  -13.2082 N   0  0  0  0  0  0  0  0  0  0  0  0
   23.7095  -20.6307  -12.7600 C   0  0  1  0  0  0  0  0  0  0  0  0
   23.7090  -19.9456  -11.4144 C   0  0  0  0  0  0  0  0  0  0  0  0
   22.3469  -19.8821  -10.8144 C   0  0  0  0  0  0  0  0  0  0  0  0
   21.2882  -19.1882  -11.3879 C   0  0  0  0  0  0  0  0  0  0  0  0
   20.1895  -19.3525  -10.6501 N   0  0  0  0  0  0  0  0  0  0  0  0
   20.5126  -20.1376   -9.6098 C   0  0  0  0  0  0  0  0  0  0  0  0
   19.7559  -20.6160   -8.5331 C   0  0  0  0  0  0  0  0  0  0  0  0
   20.3497  -21.4098   -7.5805 C   0  0  0  0  0  0  0  0  0  0  0  0
   21.6842  -21.7409   -7.6731 C   0  0  0  0  0  0  0  0  0  0  0  0
   22.4524  -21.2777   -8.7319 C   0  0  0  0  0  0  0  0  0  0  0  0
   21.8503  -20.4810   -9.6878 C   0  0  0  0  0  0  0  0  0  0  0  0
   22.7774  -20.1211  -13.7459 C   0  0  0  0  0  0  0  0  0  0  0  0
   21.7140  -20.6820  -14.0995 O   0  0  0  0  0  0  0  0  0  0  0  0
   23.0441  -18.8964  -14.3888 O   0  0  0  0  0  0  0  0  0  0  0  0
  2  1  1  0
  2  3  1  0
  3  4  2  0
  6  7  1  0
  6  5  1  0
  9  8  1  6
  8  7  1  0
 10  3  1  0
 10  9  1  0
 11  9  1  0
 11 12  2  0
 13 11  1  0
 14 13  1  0
 14 15  1  1
 16 15  1  0
 16 17  2  0
 18 17  1  0
 19 18  1  0
 20 19  2  0
 21 20  1  0
 22 21  2  0
 22 23  1  0
 23 24  2  0
 24 19  1  0
 24 16  1  0
 25 14  1  0
 26 25  2  0
 27 25  1  0
M  END
$$$$
