GMW.pdb
     RDKit          3D

 27 28  0  0  1  0  0  0  0  0999 V2000
   26.2993  -16.0875  -15.3057 N   0  0  0  0  0  0  0  0  0  0  0  0
   26.7160  -16.2961  -13.9343 C   0  0  0  0  0  0  0  0  0  0  0  0
   26.4321  -17.6988  -13.5717 C   0  0  0  0  0  0  0  0  0  0  0  0
   25.2611  -18.1084  -13.5007 O   0  0  0  0  0  0  0  0  0  0  0  0
   27.1767  -23.7209  -14.8988 C   0  0  0  0  0  0  0  0  0  0  0  0
   27.3392  -22.1721  -15.7895 S   0  0  0  0  0  0  0  0  0  0  0  0
   28.4529  -21.0157  -15.0161 C   0  0  0  0  0  0  0  0  0  0  0  0
   28.3663  -20.8972  -13.5421 C   0  0  0  0  0  0  0  0  0  0  0  0
   27.3588  -19.9633  -12.9839 C   0  0  2  0  0  0  0  0  0  0  0  0
   27.5440  -18.5705  -13.3046 N   0  0  0  0  0  0  0  0  0  0  0  0
   27.2322  -20.0628  -11.4865 C   0  0  0  0  0  0  0  0  0  0  0  0
   28.0788  -19.5058  -10.7528 O   0  0  0  0  0  0  0  0  0  0  0  0
   26.1608  -20.7835  -10.8905 N   0  0  0  0  0  0  0  0  0  0  0  0
   26.0958  -21.0964   -9.4670 C   0  0  1  0  0  0  0  0  0  0  0  0
   25.6955  -19.8046   -8.7953 C   0  0  0  0  0  0  0  0  0  0  0  0
   26.7619  -19.2831   -7.8953 C   0  0  0  0  0  0  0  0  0  0  0  0
   27.4552  -18.1022   -8.1320 C   0  0  0  0  0  0  0  0  0  0  0  0
   28.3098  -17.8737   -7.1341 N   0  0  0  0  0  0  0  0  0  0  0  0
   28.1865  -18.8812   -6.2552 C   0  0  0  0  0  0  0  0  0  0  0  0
   28.8407  -19.1486   -5.0464 C   0  0  0  0  0  0  0  0  0  0  0  0
   28.5252  -20.2822   -4.3353 C   0  0  0  0  0  0  0  0  0  0  0  0
   27.5704  -21.1607   -4.7996 C   0  0  0  0  0  0  0  0  0  0  0  0
   26.9099  -20.9149   -5.9950 C   0  0  0  0  0  0  0  0  0  0  0  0
   27.2297  -19.7730   -6.7055 C   0  0  0  0  0  0  0  0  0  0  0  0
   25.2795  -22.2578   -9.1747 C   0  0  0  0  0  0  0  0  0  0  0  0
   24.5965  -22.8954  -10.0098 O   0  0  0  0  0  0  0  0  0  0  0  0
   25.2155  -22.7501   -7.8564 O   0  0  0  0  0  0  0  0  0  0  0  0
  2  1  1  0
  2  3  1  0
  3  4  2  0
  6  7  1  0
  6  5  1  0
  9  8  1  1
  8  7  1  0
 10  3  1  0
 10  9  1  0
 11  9  1  0
 11 12  2  0
 13 11  1  0
 14 13  1  0
 14 15  1  1
 16 15  1  0
 16 17  2  0
 18 17  1  0
 19 18  1  0
 20 19  2  0
 21 20  1  0
 22 21  2  0
 22 23  1  0
 23 24  2  0
 24 19  1  0
 24 16  1  0
 25 14  1  0
 26 25  2  0
 27 25  1  0
M  END
$$$$
