GMW.pdb
     RDKit          3D

 27 28  0  0  1  0  0  0  0  0999 V2000
   29.3062  -22.2266  -17.0835 N   0  0  0  0  0  0  0  0  0  0  0  0
   27.9376  -22.1430  -16.6167 C   0  0  0  0  0  0  0  0  0  0  0  0
   27.8652  -21.0970  -15.5773 C   0  0  0  0  0  0  0  0  0  0  0  0
   28.1740  -19.9226  -15.8403 O   0  0  0  0  0  0  0  0  0  0  0  0
   22.7464  -17.3919  -14.9592 C   0  0  0  0  0  0  0  0  0  0  0  0
   22.7724  -19.0407  -14.2526 S   0  0  0  0  0  0  0  0  0  0  0  0
   24.2991  -19.4399  -13.4245 C   0  0  0  0  0  0  0  0  0  0  0  0
   25.2423  -20.3143  -14.1592 C   0  0  0  0  0  0  0  0  0  0  0  0
   26.5223  -20.6594  -13.4947 C   0  0  2  0  0  0  0  0  0  0  0  0
   27.4300  -21.4761  -14.2603 N   0  0  0  0  0  0  0  0  0  0  0  0
   26.3287  -21.3360  -12.1632 C   0  0  0  0  0  0  0  0  0  0  0  0
   25.8240  -22.4797  -12.1149 O   0  0  0  0  0  0  0  0  0  0  0  0
   26.7122  -20.6924  -10.9546 N   0  0  0  0  0  0  0  0  0  0  0  0
   26.5649  -21.3018   -9.6372 C   0  0  1  0  0  0  0  0  0  0  0  0
   27.8921  -21.0859   -8.9502 C   0  0  0  0  0  0  0  0  0  0  0  0
   27.8005  -20.0884   -7.8475 C   0  0  0  0  0  0  0  0  0  0  0  0
   26.9104  -19.0212   -7.8512 C   0  0  0  0  0  0  0  0  0  0  0  0
   27.0282  -18.3325   -6.7153 N   0  0  0  0  0  0  0  0  0  0  0  0
   27.9761  -18.9293   -5.9749 C   0  0  0  0  0  0  0  0  0  0  0  0
   28.5033  -18.6243   -4.7141 C   0  0  0  0  0  0  0  0  0  0  0  0
   29.4976  -19.4103   -4.1814 C   0  0  0  0  0  0  0  0  0  0  0  0
   29.9828  -20.4974   -4.8755 C   0  0  0  0  0  0  0  0  0  0  0  0
   29.4744  -20.8175   -6.1265 C   0  0  0  0  0  0  0  0  0  0  0  0
   28.4738  -20.0249   -6.6571 C   0  0  0  0  0  0  0  0  0  0  0  0
   25.3867  -20.8468   -8.9264 C   0  0  0  0  0  0  0  0  0  0  0  0
   24.9320  -21.3524   -7.8737 O   0  0  0  0  0  0  0  0  0  0  0  0
   24.6569  -19.7476   -9.4198 O   0  0  0  0  0  0  0  0  0  0  0  0
  2  1  1  0
  2  3  1  0
  3  4  2  0
  6  7  1  0
  6  5  1  0
  9  8  1  6
  8  7  1  0
 10  3  1  0
 10  9  1  0
 11  9  1  0
 11 12  2  0
 13 11  1  0
 14 13  1  0
 14 15  1  1
 16 15  1  0
 16 17  2  0
 18 17  1  0
 19 18  1  0
 20 19  2  0
 21 20  1  0
 22 21  2  0
 22 23  1  0
 23 24  2  0
 24 19  1  0
 24 16  1  0
 25 14  1  0
 26 25  2  0
 27 25  1  0
M  END
$$$$
