GMW.pdb
     RDKit          3D

 27 28  0  0  1  0  0  0  0  0999 V2000
   29.9263  -21.7048  -12.4039 N   0  0  0  0  0  0  0  0  0  0  0  0
   29.6175  -20.6766  -11.4316 C   0  0  0  0  0  0  0  0  0  0  0  0
   28.3623  -21.0467  -10.7481 C   0  0  0  0  0  0  0  0  0  0  0  0
   27.6027  -21.8984  -11.2395 O   0  0  0  0  0  0  0  0  0  0  0  0
   29.4212  -20.1772   -4.0106 C   0  0  0  0  0  0  0  0  0  0  0  0
   28.1142  -19.5662   -5.0770 S   0  0  0  0  0  0  0  0  0  0  0  0
   27.8120  -20.5959   -6.4997 C   0  0  0  0  0  0  0  0  0  0  0  0
   26.7334  -20.1595   -7.4163 C   0  0  0  0  0  0  0  0  0  0  0  0
   26.7972  -20.6203   -8.8244 C   0  0  2  0  0  0  0  0  0  0  0  0
   28.0474  -20.3957   -9.5052 N   0  0  0  0  0  0  0  0  0  0  0  0
   25.7095  -20.0324   -9.6843 C   0  0  0  0  0  0  0  0  0  0  0  0
   25.8334  -18.8725  -10.1366 O   0  0  0  0  0  0  0  0  0  0  0  0
   24.5383  -20.7782   -9.9915 N   0  0  0  0  0  0  0  0  0  0  0  0
   23.5836  -20.3872  -11.0231 C   0  0  1  0  0  0  0  0  0  0  0  0
   24.4045  -20.2192  -12.2793 C   0  0  0  0  0  0  0  0  0  0  0  0
   23.5595  -19.9196  -13.4691 C   0  0  0  0  0  0  0  0  0  0  0  0
   22.7006  -18.8297  -13.5446 C   0  0  0  0  0  0  0  0  0  0  0  0
   22.1172  -18.7982  -14.7434 N   0  0  0  0  0  0  0  0  0  0  0  0
   22.5785  -19.8445  -15.4472 C   0  0  0  0  0  0  0  0  0  0  0  0
   22.2979  -20.2917  -16.7442 C   0  0  0  0  0  0  0  0  0  0  0  0
   22.9136  -21.4232  -17.2245 C   0  0  0  0  0  0  0  0  0  0  0  0
   23.8058  -22.1243  -16.4425 C   0  0  0  0  0  0  0  0  0  0  0  0
   24.0983  -21.6986  -15.1544 C   0  0  0  0  0  0  0  0  0  0  0  0
   23.4776  -20.5596  -14.6766 C   0  0  0  0  0  0  0  0  0  0  0  0
   22.4418  -21.2756  -11.1102 C   0  0  0  0  0  0  0  0  0  0  0  0
   22.4820  -22.5238  -11.0062 O   0  0  0  0  0  0  0  0  0  0  0  0
   21.1576  -20.7397  -11.3291 O   0  0  0  0  0  0  0  0  0  0  0  0
  2  1  1  0
  2  3  1  0
  3  4  2  0
  6  7  1  0
  6  5  1  0
  9  8  1  1
  8  7  1  0
 10  3  1  0
 10  9  1  0
 11  9  1  0
 11 12  2  0
 13 11  1  0
 14 13  1  0
 14 15  1  6
 16 15  1  0
 16 17  2  0
 18 17  1  0
 19 18  1  0
 20 19  2  0
 21 20  1  0
 22 21  2  0
 22 23  1  0
 23 24  2  0
 24 19  1  0
 24 16  1  0
 25 14  1  0
 26 25  2  0
 27 25  1  0
M  END
$$$$
