GMW.pdb
     RDKit          3D

 27 28  0  0  1  0  0  0  0  0999 V2000
   29.0778  -22.5104  -17.3078 N   0  0  0  0  0  0  0  0  0  0  0  0
   27.7988  -22.5580  -16.6297 C   0  0  0  0  0  0  0  0  0  0  0  0
   27.8173  -21.5676  -15.5350 C   0  0  0  0  0  0  0  0  0  0  0  0
   28.8918  -21.2141  -15.0208 O   0  0  0  0  0  0  0  0  0  0  0  0
   28.2487  -16.1668  -16.5845 C   0  0  0  0  0  0  0  0  0  0  0  0
   27.7515  -17.2519  -15.2451 S   0  0  0  0  0  0  0  0  0  0  0  0
   26.1057  -17.9095  -15.4309 C   0  0  0  0  0  0  0  0  0  0  0  0
   25.6406  -18.8392  -14.3757 C   0  0  0  0  0  0  0  0  0  0  0  0
   26.4936  -20.0118  -14.0655 C   0  0  2  0  0  0  0  0  0  0  0  0
   26.5626  -21.0285  -15.0846 N   0  0  0  0  0  0  0  0  0  0  0  0
   26.1075  -20.6948  -12.7799 C   0  0  0  0  0  0  0  0  0  0  0  0
   25.0868  -21.4172  -12.7422 O   0  0  0  0  0  0  0  0  0  0  0  0
   26.8884  -20.5307  -11.6028 N   0  0  0  0  0  0  0  0  0  0  0  0
   26.4868  -21.0363  -10.2945 C   0  0  1  0  0  0  0  0  0  0  0  0
   27.6511  -20.7383   -9.3803 C   0  0  0  0  0  0  0  0  0  0  0  0
   27.2210  -20.5295   -7.9693 C   0  0  0  0  0  0  0  0  0  0  0  0
   25.9319  -20.7812   -7.5156 C   0  0  0  0  0  0  0  0  0  0  0  0
   25.8619  -20.5466   -6.2047 N   0  0  0  0  0  0  0  0  0  0  0  0
   27.0777  -20.1474   -5.7981 C   0  0  0  0  0  0  0  0  0  0  0  0
   27.5613  -19.7670   -4.5402 C   0  0  0  0  0  0  0  0  0  0  0  0
   28.8740  -19.3827   -4.4009 C   0  0  0  0  0  0  0  0  0  0  0  0
   29.7215  -19.3673   -5.4875 C   0  0  0  0  0  0  0  0  0  0  0  0
   29.2629  -19.7404   -6.7429 C   0  0  0  0  0  0  0  0  0  0  0  0
   27.9426  -20.1273   -6.8775 C   0  0  0  0  0  0  0  0  0  0  0  0
   25.1892  -20.5510   -9.8689 C   0  0  0  0  0  0  0  0  0  0  0  0
   24.3593  -21.1965   -9.1870 O   0  0  0  0  0  0  0  0  0  0  0  0
   24.7802  -19.2512  -10.2261 O   0  0  0  0  0  0  0  0  0  0  0  0
  2  1  1  0
  2  3  1  0
  3  4  2  0
  6  7  1  0
  6  5  1  0
  9  8  1  6
  8  7  1  0
 10  3  1  0
 10  9  1  0
 11  9  1  0
 11 12  2  0
 13 11  1  0
 14 13  1  0
 14 15  1  1
 16 15  1  0
 16 17  2  0
 18 17  1  0
 19 18  1  0
 20 19  2  0
 21 20  1  0
 22 21  2  0
 22 23  1  0
 23 24  2  0
 24 19  1  0
 24 16  1  0
 25 14  1  0
 26 25  2  0
 27 25  1  0
M  END
$$$$
