GMW.pdb
     RDKit          3D

 27 28  0  0  1  0  0  0  0  0999 V2000
   28.7349  -22.5279  -16.9730 N   0  0  0  0  0  0  0  0  0  0  0  0
   27.6292  -22.8625  -16.0993 C   0  0  0  0  0  0  0  0  0  0  0  0
   27.5005  -21.7972  -15.0853 C   0  0  0  0  0  0  0  0  0  0  0  0
   28.5112  -21.2846  -14.5756 O   0  0  0  0  0  0  0  0  0  0  0  0
   22.1285  -18.0787  -15.3868 C   0  0  0  0  0  0  0  0  0  0  0  0
   23.7630  -17.3956  -15.6698 S   0  0  0  0  0  0  0  0  0  0  0  0
   25.0869  -18.5184  -15.2669 C   0  0  0  0  0  0  0  0  0  0  0  0
   24.9044  -19.3503  -14.0551 C   0  0  0  0  0  0  0  0  0  0  0  0
   25.9629  -20.3369  -13.7306 C   0  0  2  0  0  0  0  0  0  0  0  0
   26.1792  -21.3739  -14.7077 N   0  0  0  0  0  0  0  0  0  0  0  0
   25.7473  -21.0137  -12.4026 C   0  0  0  0  0  0  0  0  0  0  0  0
   25.0391  -22.0430  -12.3373 O   0  0  0  0  0  0  0  0  0  0  0  0
   26.3386  -20.4990  -11.2162 N   0  0  0  0  0  0  0  0  0  0  0  0
   26.0834  -21.0458   -9.8879 C   0  0  1  0  0  0  0  0  0  0  0  0
   27.3195  -20.7237   -9.0826 C   0  0  0  0  0  0  0  0  0  0  0  0
   27.0352  -20.6390   -7.6227 C   0  0  0  0  0  0  0  0  0  0  0  0
   25.9140  -21.2029   -7.0261 C   0  0  0  0  0  0  0  0  0  0  0  0
   25.9571  -21.0041   -5.7081 N   0  0  0  0  0  0  0  0  0  0  0  0
   27.0818  -20.3228   -5.4367 C   0  0  0  0  0  0  0  0  0  0  0  0
   27.6153  -19.8467   -4.2328 C   0  0  0  0  0  0  0  0  0  0  0  0
   28.8027  -19.1537   -4.2389 C   0  0  0  0  0  0  0  0  0  0  0  0
   29.4756  -18.9215   -5.4189 C   0  0  0  0  0  0  0  0  0  0  0  0
   28.9647  -19.3846   -6.6231 C   0  0  0  0  0  0  0  0  0  0  0  0
   27.7712  -20.0820   -6.6115 C   0  0  0  0  0  0  0  0  0  0  0  0
   24.8168  -20.6180   -9.3282 C   0  0  0  0  0  0  0  0  0  0  0  0
   24.2290  -19.5442   -9.5961 O   0  0  0  0  0  0  0  0  0  0  0  0
   24.1509  -21.4433   -8.4010 O   0  0  0  0  0  0  0  0  0  0  0  0
  2  1  1  0
  2  3  1  0
  3  4  2  0
  6  7  1  0
  6  5  1  0
  9  8  1  6
  8  7  1  0
 10  3  1  0
 10  9  1  0
 11  9  1  0
 11 12  2  0
 13 11  1  0
 14 13  1  0
 14 15  1  1
 16 15  1  0
 16 17  2  0
 18 17  1  0
 19 18  1  0
 20 19  2  0
 21 20  1  0
 22 21  2  0
 22 23  1  0
 23 24  2  0
 24 19  1  0
 24 16  1  0
 25 14  1  0
 26 25  2  0
 27 25  1  0
M  END
$$$$
