WPD.pdb
     RDKit          3D

 30 32  0  0  1  0  0  0  0  0999 V2000
    7.0298  -17.9072   25.9489 N   0  0  0  0  0  0  0  0  0  0  0  0
    6.5501  -17.2438   24.7791 C   0  0  1  0  0  0  0  0  0  0  0  0
    6.1054  -15.8233   25.0094 C   0  0  0  0  0  0  0  0  0  0  0  0
    7.1076  -15.1292   25.8576 C   0  0  0  0  0  0  0  0  0  0  0  0
    8.2741  -15.6915   26.3421 C   0  0  0  0  0  0  0  0  0  0  0  0
    8.9463  -14.7963   27.0566 N   0  0  0  0  0  0  0  0  0  0  0  0
    8.2390  -13.6620   27.0473 C   0  0  0  0  0  0  0  0  0  0  0  0
    8.4735  -12.4444   27.6287 C   0  0  0  0  0  0  0  0  0  0  0  0
    7.5949  -11.4158   27.4882 C   0  0  0  0  0  0  0  0  0  0  0  0
    6.4586  -11.5947   26.7555 C   0  0  0  0  0  0  0  0  0  0  0  0
    6.1710  -12.8165   26.1410 C   0  0  0  0  0  0  0  0  0  0  0  0
    7.0822  -13.8344   26.3057 C   0  0  0  0  0  0  0  0  0  0  0  0
    7.4507  -17.2826   23.6100 C   0  0  0  0  0  0  0  0  0  0  0  0
    7.9197  -18.4682   23.3581 O   0  0  0  0  0  0  0  0  0  0  0  0
    7.8231  -16.2040   22.7945 N   0  0  0  0  0  0  0  0  0  0  0  0
    7.4142  -14.8308   22.9845 C   0  0  0  0  0  0  0  0  0  0  0  0
    7.0174  -14.4658   21.5587 C   0  0  0  0  0  0  0  0  0  0  0  0
    7.8176  -15.3609   20.6775 C   0  0  0  0  0  0  0  0  0  0  0  0
    8.6484  -16.2076   21.6359 C   0  0  1  0  0  0  0  0  0  0  0  0
   10.0075  -15.6174   21.8313 C   0  0  0  0  0  0  0  0  0  0  0  0
   10.1289  -14.6819   22.6528 O   0  0  0  0  0  0  0  0  0  0  0  0
   11.1443  -16.0681   21.1384 N   0  0  0  0  0  0  0  0  0  0  0  0
   12.3036  -16.7456   21.6047 C   0  0  1  0  0  0  0  0  0  0  0  0
   12.0320  -17.7043   22.7309 C   0  0  0  0  0  0  0  0  0  0  0  0
   12.5503  -17.1633   24.0102 C   0  0  0  0  0  0  0  0  0  0  0  0
   13.3207  -16.1437   23.9306 O   0  0  0  0  0  0  0  0  0  0  0  0
   13.1500  -17.3544   20.5367 C   0  0  0  0  0  0  0  0  0  0  0  0
   14.3623  -16.7798   20.2106 O   0  0  0  0  0  0  0  0  0  0  0  0
   12.2906  -17.6452   25.2635 O   0  0  0  0  0  0  0  0  0  0  0  0
   12.8224  -18.3702   19.9077 O   0  0  0  0  0  0  0  0  0  0  0  0
  2  1  1  1
  2  3  1  0
  3  4  1  0
  4  5  2  0
  4 12  1  0
  5  6  1  0
  6  7  1  0
  7  8  2  0
  8  9  1  0
 10  9  2  0
 11 10  1  0
 12 11  2  0
 12  7  1  0
 13  2  1  0
 14 13  2  0
 15 19  1  0
 15 13  1  0
 16 17  1  0
 16 15  1  0
 17 18  1  0
 18 19  1  0
 20 22  1  0
 19 20  1  1
 21 20  2  0
 23 22  1  0
 23 24  1  1
 24 25  1  0
 25 29  1  0
 26 25  2  0
 27 23  1  0
 28 27  1  0
 30 27  2  0
M  END
$$$$
