WPD.pdb
     RDKit          3D

 30 32  0  0  1  0  0  0  0  0999 V2000
    6.5894  -18.2718   25.0064 N   0  0  0  0  0  0  0  0  0  0  0  0
    7.0710  -17.0471   24.4527 C   0  0  1  0  0  0  0  0  0  0  0  0
    7.9067  -16.2246   25.3981 C   0  0  0  0  0  0  0  0  0  0  0  0
    7.0736  -15.1324   25.9625 C   0  0  0  0  0  0  0  0  0  0  0  0
    5.7627  -15.2604   26.3831 C   0  0  0  0  0  0  0  0  0  0  0  0
    5.3180  -14.0963   26.8421 N   0  0  0  0  0  0  0  0  0  0  0  0
    6.3144  -13.2124   26.7275 C   0  0  0  0  0  0  0  0  0  0  0  0
    6.3846  -11.8818   27.0439 C   0  0  0  0  0  0  0  0  0  0  0  0
    7.5211  -11.1659   26.8301 C   0  0  0  0  0  0  0  0  0  0  0  0
    8.6136  -11.7799   26.2920 C   0  0  0  0  0  0  0  0  0  0  0  0
    8.5956  -13.1351   25.9515 C   0  0  0  0  0  0  0  0  0  0  0  0
    7.4285  -13.8270   26.1809 C   0  0  0  0  0  0  0  0  0  0  0  0
    7.7796  -17.1659   23.1629 C   0  0  0  0  0  0  0  0  0  0  0  0
    7.9880  -18.3962   22.7993 O   0  0  0  0  0  0  0  0  0  0  0  0
    8.2238  -16.1179   22.3436 N   0  0  0  0  0  0  0  0  0  0  0  0
    8.1038  -14.7099   22.6467 C   0  0  0  0  0  0  0  0  0  0  0  0
    7.5832  -14.1882   21.3124 C   0  0  0  0  0  0  0  0  0  0  0  0
    8.0738  -15.1497   20.2863 C   0  0  0  0  0  0  0  0  0  0  0  0
    8.8626  -16.1898   21.0746 C   0  0  1  0  0  0  0  0  0  0  0  0
   10.3204  -15.8607   21.0860 C   0  0  0  0  0  0  0  0  0  0  0  0
   10.9316  -15.8634   19.9946 O   0  0  0  0  0  0  0  0  0  0  0  0
   11.0254  -15.5487   22.2614 N   0  0  0  0  0  0  0  0  0  0  0  0
   12.2990  -15.9834   22.7190 C   0  0  1  0  0  0  0  0  0  0  0  0
   12.2533  -16.7097   24.0349 C   0  0  0  0  0  0  0  0  0  0  0  0
   13.6246  -17.0225   24.5034 C   0  0  0  0  0  0  0  0  0  0  0  0
   14.5896  -16.5488   23.8079 O   0  0  0  0  0  0  0  0  0  0  0  0
   13.1206  -16.7056   21.7036 C   0  0  0  0  0  0  0  0  0  0  0  0
   12.7717  -17.9860   21.3231 O   0  0  0  0  0  0  0  0  0  0  0  0
   13.9609  -17.7672   25.6002 O   0  0  0  0  0  0  0  0  0  0  0  0
   14.1234  -16.2137   21.1675 O   0  0  0  0  0  0  0  0  0  0  0  0
  2  1  1  1
  2  3  1  0
  3  4  1  0
  4  5  2  0
  4 12  1  0
  5  6  1  0
  6  7  1  0
  7  8  2  0
  8  9  1  0
 10  9  2  0
 11 10  1  0
 12 11  2  0
 12  7  1  0
 13  2  1  0
 14 13  2  0
 15 19  1  0
 15 13  1  0
 16 17  1  0
 16 15  1  0
 17 18  1  0
 18 19  1  0
 20 22  1  0
 19 20  1  1
 21 20  2  0
 23 22  1  0
 23 24  1  1
 24 25  1  0
 25 29  1  0
 26 25  2  0
 27 23  1  0
 28 27  1  0
 30 27  2  0
M  END
$$$$
