WPD.pdb
     RDKit          3D

 30 32  0  0  1  0  0  0  0  0999 V2000
    6.3761  -17.6632   24.4531 N   0  0  0  0  0  0  0  0  0  0  0  0
    6.7946  -16.4714   23.7876 C   0  0  1  0  0  0  0  0  0  0  0  0
    7.7624  -15.6278   24.5752 C   0  0  0  0  0  0  0  0  0  0  0  0
    7.0016  -14.6969   25.4471 C   0  0  0  0  0  0  0  0  0  0  0  0
    5.7654  -14.9560   26.0096 C   0  0  0  0  0  0  0  0  0  0  0  0
    5.3731  -13.9185   26.7400 N   0  0  0  0  0  0  0  0  0  0  0  0
    6.3302  -12.9883   26.6629 C   0  0  0  0  0  0  0  0  0  0  0  0
    6.4249  -11.7393   27.2165 C   0  0  0  0  0  0  0  0  0  0  0  0
    7.5091  -10.9496   26.9918 C   0  0  0  0  0  0  0  0  0  0  0  0
    8.5234  -11.4054   26.2022 C   0  0  0  0  0  0  0  0  0  0  0  0
    8.4773  -12.6718   25.6132 C   0  0  0  0  0  0  0  0  0  0  0  0
    7.3647  -13.4423   25.8619 C   0  0  0  0  0  0  0  0  0  0  0  0
    7.3194  -16.6559   22.4201 C   0  0  0  0  0  0  0  0  0  0  0  0
    7.1038  -17.8442   21.9398 O   0  0  0  0  0  0  0  0  0  0  0  0
    7.9961  -15.7070   21.6399 N   0  0  0  0  0  0  0  0  0  0  0  0
    8.2649  -14.3413   22.0294 C   0  0  0  0  0  0  0  0  0  0  0  0
    7.8539  -13.6100   20.7566 C   0  0  0  0  0  0  0  0  0  0  0  0
    8.0346  -14.5930   19.6525 C   0  0  0  0  0  0  0  0  0  0  0  0
    8.5470  -15.8558   20.3369 C   0  0  1  0  0  0  0  0  0  0  0  0
   10.0393  -15.9224   20.2900 C   0  0  0  0  0  0  0  0  0  0  0  0
   10.6823  -14.8843   20.5611 O   0  0  0  0  0  0  0  0  0  0  0  0
   10.7430  -17.0934   19.9595 N   0  0  0  0  0  0  0  0  0  0  0  0
   12.1298  -17.3939   20.0432 C   0  0  1  0  0  0  0  0  0  0  0  0
   12.4390  -18.5886   20.9024 C   0  0  0  0  0  0  0  0  0  0  0  0
   11.9843  -18.3589   22.2946 C   0  0  0  0  0  0  0  0  0  0  0  0
   12.5030  -17.3630   22.9097 O   0  0  0  0  0  0  0  0  0  0  0  0
   12.8447  -17.4400   18.7338 C   0  0  0  0  0  0  0  0  0  0  0  0
   12.1269  -17.3653   17.5568 O   0  0  0  0  0  0  0  0  0  0  0  0
   11.0703  -19.1047   22.9868 O   0  0  0  0  0  0  0  0  0  0  0  0
   14.0753  -17.5445   18.6357 O   0  0  0  0  0  0  0  0  0  0  0  0
  2  1  1  1
  2  3  1  0
  3  4  1  0
  4  5  2  0
  4 12  1  0
  5  6  1  0
  6  7  1  0
  7  8  2  0
  8  9  1  0
 10  9  2  0
 11 10  1  0
 12 11  2  0
 12  7  1  0
 13  2  1  0
 14 13  2  0
 15 19  1  0
 15 13  1  0
 16 17  1  0
 16 15  1  0
 17 18  1  0
 18 19  1  0
 20 22  1  0
 19 20  1  1
 21 20  2  0
 23 22  1  0
 23 24  1  6
 24 25  1  0
 25 29  1  0
 26 25  2  0
 27 23  1  0
 28 27  1  0
 30 27  2  0
M  END
$$$$
