WPD.pdb
     RDKit          3D

 30 32  0  0  1  0  0  0  0  0999 V2000
    6.1058  -17.8532   24.9697 N   0  0  0  0  0  0  0  0  0  0  0  0
    6.7182  -16.7439   24.3118 C   0  0  1  0  0  0  0  0  0  0  0  0
    7.6367  -15.9327   25.1875 C   0  0  0  0  0  0  0  0  0  0  0  0
    6.8792  -14.7948   25.7680 C   0  0  0  0  0  0  0  0  0  0  0  0
    5.5484  -14.8258   26.1419 C   0  0  0  0  0  0  0  0  0  0  0  0
    5.1875  -13.6456   26.6321 N   0  0  0  0  0  0  0  0  0  0  0  0
    6.2579  -12.8463   26.5837 C   0  0  0  0  0  0  0  0  0  0  0  0
    6.4286  -11.5389   26.9541 C   0  0  0  0  0  0  0  0  0  0  0  0
    7.6279  -10.9152   26.8045 C   0  0  0  0  0  0  0  0  0  0  0  0
    8.6830  -11.6000   26.2772 C   0  0  0  0  0  0  0  0  0  0  0  0
    8.5631  -12.9353   25.8833 C   0  0  0  0  0  0  0  0  0  0  0  0
    7.3348  -13.5332   26.0486 C   0  0  0  0  0  0  0  0  0  0  0  0
    7.4118  -17.0569   23.0466 C   0  0  0  0  0  0  0  0  0  0  0  0
    7.3486  -18.3133   22.7199 O   0  0  0  0  0  0  0  0  0  0  0  0
    8.0973  -16.1597   22.2148 N   0  0  0  0  0  0  0  0  0  0  0  0
    8.3113  -14.7575   22.4924 C   0  0  0  0  0  0  0  0  0  0  0  0
    7.9387  -14.1536   21.1433 C   0  0  0  0  0  0  0  0  0  0  0  0
    8.1956  -15.2235   20.1396 C   0  0  0  0  0  0  0  0  0  0  0  0
    8.7103  -16.4050   20.9548 C   0  0  1  0  0  0  0  0  0  0  0  0
   10.2045  -16.4295   20.9778 C   0  0  0  0  0  0  0  0  0  0  0  0
   10.8050  -15.3682   21.2563 O   0  0  0  0  0  0  0  0  0  0  0  0
   10.9552  -17.5860   20.7043 N   0  0  0  0  0  0  0  0  0  0  0  0
   12.3580  -17.8103   20.7498 C   0  0  1  0  0  0  0  0  0  0  0  0
   12.7438  -19.0913   21.4364 C   0  0  0  0  0  0  0  0  0  0  0  0
   12.1374  -19.1595   22.7875 C   0  0  0  0  0  0  0  0  0  0  0  0
   12.5420  -18.2955   23.6413 O   0  0  0  0  0  0  0  0  0  0  0  0
   13.0672  -17.6313   19.4487 C   0  0  0  0  0  0  0  0  0  0  0  0
   14.4448  -17.7088   19.4015 O   0  0  0  0  0  0  0  0  0  0  0  0
   11.1932  -20.0530   23.2127 O   0  0  0  0  0  0  0  0  0  0  0  0
   12.4799  -17.4109   18.3803 O   0  0  0  0  0  0  0  0  0  0  0  0
  2  1  1  1
  2  3  1  0
  3  4  1  0
  4  5  2  0
  4 12  1  0
  5  6  1  0
  6  7  1  0
  7  8  2  0
  8  9  1  0
 10  9  2  0
 11 10  1  0
 12 11  2  0
 12  7  1  0
 13  2  1  0
 14 13  2  0
 15 19  1  0
 15 13  1  0
 16 17  1  0
 16 15  1  0
 17 18  1  0
 18 19  1  0
 20 22  1  0
 19 20  1  1
 21 20  2  0
 23 22  1  0
 23 24  1  6
 24 25  1  0
 25 29  1  0
 26 25  2  0
 27 23  1  0
 28 27  1  0
 30 27  2  0
M  END
$$$$
