WPD.pdb
     RDKit          3D

 30 32  0  0  1  0  0  0  0  0999 V2000
    7.2085  -16.6370   25.2790 N   0  0  0  0  0  0  0  0  0  0  0  0
    6.5886  -15.9618   24.1843 C   0  0  1  0  0  0  0  0  0  0  0  0
    6.7326  -14.4629   24.2177 C   0  0  0  0  0  0  0  0  0  0  0  0
    7.4557  -14.0691   25.4537 C   0  0  0  0  0  0  0  0  0  0  0  0
    8.5394  -14.7358   25.9947 C   0  0  0  0  0  0  0  0  0  0  0  0
    8.9510  -14.1150   27.0942 N   0  0  0  0  0  0  0  0  0  0  0  0
    8.1551  -13.0570   27.2798 C   0  0  0  0  0  0  0  0  0  0  0  0
    8.1387  -12.0971   28.2564 C   0  0  0  0  0  0  0  0  0  0  0  0
    7.2150  -11.0990   28.2477 C   0  0  0  0  0  0  0  0  0  0  0  0
    6.2865  -11.0481   27.2499 C   0  0  0  0  0  0  0  0  0  0  0  0
    6.2589  -12.0021   26.2291 C   0  0  0  0  0  0  0  0  0  0  0  0
    7.2080  -12.9976   26.2712 C   0  0  0  0  0  0  0  0  0  0  0  0
    6.9591  -16.4511   22.8415 C   0  0  0  0  0  0  0  0  0  0  0  0
    6.4584  -17.6169   22.5601 O   0  0  0  0  0  0  0  0  0  0  0  0
    7.7644  -15.7980   21.8972 N   0  0  0  0  0  0  0  0  0  0  0  0
    8.4425  -14.5384   22.1034 C   0  0  0  0  0  0  0  0  0  0  0  0
    8.0887  -13.8236   20.8043 C   0  0  0  0  0  0  0  0  0  0  0  0
    7.8532  -14.9016   19.8041 C   0  0  0  0  0  0  0  0  0  0  0  0
    8.0842  -16.1996   20.5705 C   0  0  1  0  0  0  0  0  0  0  0  0
    9.4833  -16.6904   20.3831 C   0  0  0  0  0  0  0  0  0  0  0  0
    9.9165  -16.7975   19.2145 O   0  0  0  0  0  0  0  0  0  0  0  0
   10.3251  -17.0309   21.4561 N   0  0  0  0  0  0  0  0  0  0  0  0
   11.7343  -16.9131   21.5996 C   0  0  1  0  0  0  0  0  0  0  0  0
   12.2868  -15.6089   21.0946 C   0  0  0  0  0  0  0  0  0  0  0  0
   13.7684  -15.6175   21.1465 C   0  0  0  0  0  0  0  0  0  0  0  0
   14.3002  -15.8689   22.2836 O   0  0  0  0  0  0  0  0  0  0  0  0
   12.2615  -17.2641   22.9511 C   0  0  0  0  0  0  0  0  0  0  0  0
   11.3920  -17.6752   23.9415 O   0  0  0  0  0  0  0  0  0  0  0  0
   14.6216  -15.3812   20.1040 O   0  0  0  0  0  0  0  0  0  0  0  0
   13.4633  -17.2071   23.2466 O   0  0  0  0  0  0  0  0  0  0  0  0
  2  1  1  1
  2  3  1  0
  3  4  1  0
  4  5  2  0
  4 12  1  0
  5  6  1  0
  6  7  1  0
  7  8  2  0
  8  9  1  0
 10  9  2  0
 11 10  1  0
 12 11  2  0
 12  7  1  0
 13  2  1  0
 14 13  2  0
 15 19  1  0
 15 13  1  0
 16 17  1  0
 16 15  1  0
 17 18  1  0
 18 19  1  0
 20 22  1  0
 19 20  1  1
 21 20  2  0
 23 22  1  0
 23 24  1  1
 24 25  1  0
 25 29  1  0
 26 25  2  0
 27 23  1  0
 28 27  1  0
 30 27  2  0
M  END
$$$$
