WPD.pdb
     RDKit          3D

 30 32  0  0  1  0  0  0  0  0999 V2000
    6.0030  -17.4901   24.3661 N   0  0  0  0  0  0  0  0  0  0  0  0
    6.6563  -16.3729   23.7632 C   0  0  1  0  0  0  0  0  0  0  0  0
    7.6807  -15.7043   24.6421 C   0  0  0  0  0  0  0  0  0  0  0  0
    6.9917  -14.7833   25.5815 C   0  0  0  0  0  0  0  0  0  0  0  0
    5.7861  -15.0344   26.2100 C   0  0  0  0  0  0  0  0  0  0  0  0
    5.4587  -14.0099   26.9890 N   0  0  0  0  0  0  0  0  0  0  0  0
    6.4281  -13.0959   26.8789 C   0  0  0  0  0  0  0  0  0  0  0  0
    6.5806  -11.8642   27.4579 C   0  0  0  0  0  0  0  0  0  0  0  0
    7.6652  -11.0890   27.1893 C   0  0  0  0  0  0  0  0  0  0  0  0
    8.6216  -11.5422   26.3290 C   0  0  0  0  0  0  0  0  0  0  0  0
    8.5152  -12.7912   25.7113 C   0  0  0  0  0  0  0  0  0  0  0  0
    7.4040  -13.5473   26.0062 C   0  0  0  0  0  0  0  0  0  0  0  0
    7.2512  -16.6228   22.4353 C   0  0  0  0  0  0  0  0  0  0  0  0
    7.0355  -17.8249   21.9905 O   0  0  0  0  0  0  0  0  0  0  0  0
    7.9909  -15.7201   21.6577 N   0  0  0  0  0  0  0  0  0  0  0  0
    8.2923  -14.3539   22.0208 C   0  0  0  0  0  0  0  0  0  0  0  0
    7.9574  -13.6453   20.7134 C   0  0  0  0  0  0  0  0  0  0  0  0
    8.1464  -14.6646   19.6441 C   0  0  0  0  0  0  0  0  0  0  0  0
    8.5868  -15.9244   20.3823 C   0  0  1  0  0  0  0  0  0  0  0  0
   10.0765  -16.0433   20.3970 C   0  0  0  0  0  0  0  0  0  0  0  0
   10.7245  -15.2207   21.0812 O   0  0  0  0  0  0  0  0  0  0  0  0
   10.7722  -17.0338   19.6825 N   0  0  0  0  0  0  0  0  0  0  0  0
   12.0799  -17.5600   19.8657 C   0  0  1  0  0  0  0  0  0  0  0  0
   12.4185  -18.6808   18.9221 C   0  0  0  0  0  0  0  0  0  0  0  0
   11.2743  -19.6146   18.7927 C   0  0  0  0  0  0  0  0  0  0  0  0
   10.8328  -20.1332   19.8769 O   0  0  0  0  0  0  0  0  0  0  0  0
   13.1653  -16.5384   19.9415 C   0  0  0  0  0  0  0  0  0  0  0  0
   14.3943  -16.8805   20.4692 O   0  0  0  0  0  0  0  0  0  0  0  0
   10.6468  -19.9787   17.6333 O   0  0  0  0  0  0  0  0  0  0  0  0
   13.0270  -15.3710   19.5502 O   0  0  0  0  0  0  0  0  0  0  0  0
  2  1  1  1
  2  3  1  0
  3  4  1  0
  4  5  2  0
  4 12  1  0
  5  6  1  0
  6  7  1  0
  7  8  2  0
  8  9  1  0
 10  9  2  0
 11 10  1  0
 12 11  2  0
 12  7  1  0
 13  2  1  0
 14 13  2  0
 15 19  1  0
 15 13  1  0
 16 17  1  0
 16 15  1  0
 17 18  1  0
 18 19  1  0
 20 22  1  0
 19 20  1  1
 21 20  2  0
 23 22  1  0
 23 24  1  6
 24 25  1  0
 25 29  1  0
 26 25  2  0
 27 23  1  0
 28 27  1  0
 30 27  2  0
M  END
$$$$
