WPD.pdb
     RDKit          3D

 30 32  0  0  1  0  0  0  0  0999 V2000
    6.4476  -17.9740   25.7378 N   0  0  0  0  0  0  0  0  0  0  0  0
    6.2105  -17.2722   24.5173 C   0  0  1  0  0  0  0  0  0  0  0  0
    5.9318  -15.8022   24.6906 C   0  0  0  0  0  0  0  0  0  0  0  0
    6.8558  -15.2470   25.7121 C   0  0  0  0  0  0  0  0  0  0  0  0
    7.9001  -15.9325   26.3047 C   0  0  0  0  0  0  0  0  0  0  0  0
    8.5313  -15.1419   27.1651 N   0  0  0  0  0  0  0  0  0  0  0  0
    7.9170  -13.9547   27.1446 C   0  0  0  0  0  0  0  0  0  0  0  0
    8.1579  -12.7991   27.8388 C   0  0  0  0  0  0  0  0  0  0  0  0
    7.3848  -11.6948   27.6583 C   0  0  0  0  0  0  0  0  0  0  0  0
    6.3502  -11.7336   26.7705 C   0  0  0  0  0  0  0  0  0  0  0  0
    6.0612  -12.8870   26.0363 C   0  0  0  0  0  0  0  0  0  0  0  0
    6.8639  -13.9849   26.2458 C   0  0  0  0  0  0  0  0  0  0  0  0
    7.2378  -17.4472   23.4715 C   0  0  0  0  0  0  0  0  0  0  0  0
    7.5573  -18.6898   23.2639 O   0  0  0  0  0  0  0  0  0  0  0  0
    7.8644  -16.4382   22.7258 N   0  0  0  0  0  0  0  0  0  0  0  0
    7.7739  -15.0207   22.9936 C   0  0  0  0  0  0  0  0  0  0  0  0
    7.5038  -14.4956   21.5883 C   0  0  0  0  0  0  0  0  0  0  0  0
    8.1000  -15.4989   20.6631 C   0  0  0  0  0  0  0  0  0  0  0  0
    8.6940  -16.5651   21.5774 C   0  0  1  0  0  0  0  0  0  0  0  0
   10.1468  -16.3126   21.8212 C   0  0  0  0  0  0  0  0  0  0  0  0
   10.4807  -15.1956   22.2745 O   0  0  0  0  0  0  0  0  0  0  0  0
   11.1433  -17.2708   21.5670 N   0  0  0  0  0  0  0  0  0  0  0  0
   12.5434  -17.2360   21.8098 C   0  0  1  0  0  0  0  0  0  0  0  0
   13.0935  -18.5216   22.3626 C   0  0  0  0  0  0  0  0  0  0  0  0
   12.4684  -18.8346   23.6700 C   0  0  0  0  0  0  0  0  0  0  0  0
   12.0760  -17.8373   24.3706 O   0  0  0  0  0  0  0  0  0  0  0  0
   13.3656  -16.7090   20.6811 C   0  0  0  0  0  0  0  0  0  0  0  0
   14.7048  -16.4360   20.8765 O   0  0  0  0  0  0  0  0  0  0  0  0
   12.2722  -20.0790   24.2023 O   0  0  0  0  0  0  0  0  0  0  0  0
   12.9078  -16.4952   19.5499 O   0  0  0  0  0  0  0  0  0  0  0  0
  2  1  1  1
  2  3  1  0
  3  4  1  0
  4  5  2  0
  4 12  1  0
  5  6  1  0
  6  7  1  0
  7  8  2  0
  8  9  1  0
 10  9  2  0
 11 10  1  0
 12 11  2  0
 12  7  1  0
 13  2  1  0
 14 13  2  0
 15 19  1  0
 15 13  1  0
 16 17  1  0
 16 15  1  0
 17 18  1  0
 18 19  1  0
 20 22  1  0
 19 20  1  1
 21 20  2  0
 23 22  1  0
 23 24  1  6
 24 25  1  0
 25 29  1  0
 26 25  2  0
 27 23  1  0
 28 27  1  0
 30 27  2  0
M  END
$$$$
