WPD.pdb
     RDKit          3D

 30 32  0  0  1  0  0  0  0  0999 V2000
    6.3581  -17.8340   24.3073 N   0  0  0  0  0  0  0  0  0  0  0  0
    6.9294  -16.6282   23.7991 C   0  0  1  0  0  0  0  0  0  0  0  0
    7.8443  -15.9202   24.7636 C   0  0  0  0  0  0  0  0  0  0  0  0
    7.0500  -14.9676   25.5805 C   0  0  0  0  0  0  0  0  0  0  0  0
    5.9082  -15.2823   26.2937 C   0  0  0  0  0  0  0  0  0  0  0  0
    5.4529  -14.2034   26.9201 N   0  0  0  0  0  0  0  0  0  0  0  0
    6.2763  -13.1918   26.6274 C   0  0  0  0  0  0  0  0  0  0  0  0
    6.2610  -11.8748   27.0028 C   0  0  0  0  0  0  0  0  0  0  0  0
    7.2151  -11.0078   26.5697 C   0  0  0  0  0  0  0  0  0  0  0  0
    8.2076  -11.4530   25.7470 C   0  0  0  0  0  0  0  0  0  0  0  0
    8.2701  -12.7866   25.3340 C   0  0  0  0  0  0  0  0  0  0  0  0
    7.2876  -13.6345   25.7912 C   0  0  0  0  0  0  0  0  0  0  0  0
    7.6055  -16.7449   22.4919 C   0  0  0  0  0  0  0  0  0  0  0  0
    7.7760  -17.9743   22.1062 O   0  0  0  0  0  0  0  0  0  0  0  0
    8.0560  -15.6958   21.6774 N   0  0  0  0  0  0  0  0  0  0  0  0
    7.9396  -14.2883   21.9845 C   0  0  0  0  0  0  0  0  0  0  0  0
    7.4253  -13.7608   20.6501 C   0  0  0  0  0  0  0  0  0  0  0  0
    7.9162  -14.7207   19.6226 C   0  0  0  0  0  0  0  0  0  0  0  0
    8.6989  -15.7659   20.4104 C   0  0  1  0  0  0  0  0  0  0  0  0
   10.1578  -15.4416   20.4278 C   0  0  0  0  0  0  0  0  0  0  0  0
   10.4957  -14.2699   20.7060 O   0  0  0  0  0  0  0  0  0  0  0  0
   11.1561  -16.3912   20.1495 N   0  0  0  0  0  0  0  0  0  0  0  0
   12.2781  -16.8057   20.9174 C   0  0  1  0  0  0  0  0  0  0  0  0
   12.3947  -16.1071   22.2439 C   0  0  0  0  0  0  0  0  0  0  0  0
   13.6122  -16.5547   22.9616 C   0  0  0  0  0  0  0  0  0  0  0  0
   14.7355  -16.2666   22.4189 O   0  0  0  0  0  0  0  0  0  0  0  0
   12.4458  -18.2836   21.0410 C   0  0  0  0  0  0  0  0  0  0  0  0
   11.4861  -19.0311   21.6939 O   0  0  0  0  0  0  0  0  0  0  0  0
   13.6550  -17.2456   24.1412 O   0  0  0  0  0  0  0  0  0  0  0  0
   13.4195  -18.8969   20.5819 O   0  0  0  0  0  0  0  0  0  0  0  0
  2  1  1  1
  2  3  1  0
  3  4  1  0
  4  5  2  0
  4 12  1  0
  5  6  1  0
  6  7  1  0
  7  8  2  0
  8  9  1  0
 10  9  2  0
 11 10  1  0
 12 11  2  0
 12  7  1  0
 13  2  1  0
 14 13  2  0
 15 19  1  0
 15 13  1  0
 16 17  1  0
 16 15  1  0
 17 18  1  0
 18 19  1  0
 20 22  1  0
 19 20  1  1
 21 20  2  0
 23 22  1  0
 23 24  1  1
 24 25  1  0
 25 29  1  0
 26 25  2  0
 27 23  1  0
 28 27  1  0
 30 27  2  0
M  END
$$$$
