WCR.pdb
     RDKit          3D

 32 33  0  0  1  0  0  0  0  0999 V2000
    7.7416  -17.8455   23.4016 N   0  0  0  0  0  0  0  0  0  0  0  0
    8.3140  -16.5543   23.8171 C   0  0  1  0  0  0  0  0  0  0  0  0
    7.9537  -16.4094   25.2761 C   0  0  0  0  0  0  0  0  0  0  0  0
    6.9887  -15.3402   25.5560 C   0  0  0  0  0  0  0  0  0  0  0  0
    5.6287  -15.4707   25.7442 C   0  0  0  0  0  0  0  0  0  0  0  0
    5.1034  -14.2593   25.9754 N   0  0  0  0  0  0  0  0  0  0  0  0
    6.0590  -13.3154   25.9504 C   0  0  0  0  0  0  0  0  0  0  0  0
    6.0314  -11.9513   26.1266 C   0  0  0  0  0  0  0  0  0  0  0  0
    7.2187  -11.2639   26.0351 C   0  0  0  0  0  0  0  0  0  0  0  0
    8.4011  -11.9205   25.7748 C   0  0  0  0  0  0  0  0  0  0  0  0
    8.4163  -13.2792   25.6009 C   0  0  0  0  0  0  0  0  0  0  0  0
    7.2498  -13.9856   25.6869 C   0  0  0  0  0  0  0  0  0  0  0  0
    9.7498  -16.5070   23.5635 C   0  0  0  0  0  0  0  0  0  0  0  0
   10.1942  -15.8680   22.5871 O   0  0  0  0  0  0  0  0  0  0  0  0
   10.6518  -17.1815   24.4160 N   0  0  0  0  0  0  0  0  0  0  0  0
   12.0712  -16.9180   24.2984 C   0  0  1  0  0  0  0  0  0  0  0  0
   12.4425  -15.9317   25.3855 C   0  0  0  0  0  0  0  0  0  0  0  0
   12.0948  -16.6356   27.0306 S   0  0  0  0  0  0  0  0  0  0  0  0
   12.8305  -18.1942   24.5347 C   0  0  0  0  0  0  0  0  0  0  0  0
   12.4084  -19.0002   25.4011 O   0  0  0  0  0  0  0  0  0  0  0  0
   15.1646  -17.5318   18.8368 N   0  0  0  0  0  0  0  0  0  0  0  0
   14.4085  -18.6493   18.3803 C   0  0  0  0  0  0  0  0  0  0  0  0
   13.6109  -18.5481   17.3835 N   0  0  0  0  0  0  0  0  0  0  0  0
   14.5513  -19.8983   19.0547 N   0  0  0  0  0  0  0  0  0  0  0  0
   15.4794  -20.0169   20.1883 C   0  0  0  0  0  0  0  0  0  0  0  0
   14.7508  -19.6908   21.4579 C   0  0  0  0  0  0  0  0  0  0  0  0
   15.4951  -19.9527   22.7120 C   0  0  0  0  0  0  0  0  0  0  0  0
   14.7777  -19.7224   23.9877 C   0  0  2  0  0  0  0  0  0  0  0  0
   13.9897  -18.4985   23.8125 N   0  0  0  0  0  0  0  0  0  0  0  0
   15.6701  -19.6037   25.1633 C   0  0  0  0  0  0  0  0  0  0  0  0
   16.1142  -20.5727   25.8032 O   0  0  0  0  0  0  0  0  0  0  0  0
   16.0318  -18.3332   25.5741 O   0  0  0  0  0  0  0  0  0  0  0  0
  2  1  1  1
  3  4  1  0
  3  2  1  0
  4  5  2  0
  5  6  1  0
  7  8  2  0
  7  6  1  0
  9  8  1  0
 10  9  2  0
 11 10  1  0
 11 12  2  0
 12  4  1  0
 12  7  1  0
 13  2  1  0
 13 14  2  0
 15 13  1  0
 16 15  1  0
 16 17  1  1
 18 17  1  0
 19 16  1  0
 20 19  2  0
 22 21  1  0
 22 23  2  0
 24 22  1  0
 25 24  1  0
 26 25  1  0
 28 27  1  6
 27 26  1  0
 28 29  1  0
 29 19  1  0
 30 28  1  0
 30 32  1  0
 31 30  2  0
M  END
$$$$
