WCR.pdb
     RDKit          3D

 32 33  0  0  1  0  0  0  0  0999 V2000
    8.3532  -17.5637   23.1307 N   0  0  0  0  0  0  0  0  0  0  0  0
    8.9542  -16.2198   23.1427 C   0  0  1  0  0  0  0  0  0  0  0  0
    7.7898  -15.2615   23.0695 C   0  0  0  0  0  0  0  0  0  0  0  0
    7.1553  -14.9833   24.3628 C   0  0  0  0  0  0  0  0  0  0  0  0
    6.4918  -15.8769   25.1772 C   0  0  0  0  0  0  0  0  0  0  0  0
    6.0574  -15.2310   26.2685 N   0  0  0  0  0  0  0  0  0  0  0  0
    6.4035  -13.9338   26.2211 C   0  0  0  0  0  0  0  0  0  0  0  0
    6.1975  -12.8787   27.0795 C   0  0  0  0  0  0  0  0  0  0  0  0
    6.6964  -11.6483   26.7221 C   0  0  0  0  0  0  0  0  0  0  0  0
    7.3821  -11.4762   25.5401 C   0  0  0  0  0  0  0  0  0  0  0  0
    7.5808  -12.5342   24.6930 C   0  0  0  0  0  0  0  0  0  0  0  0
    7.0951  -13.7675   25.0251 C   0  0  0  0  0  0  0  0  0  0  0  0
    9.7946  -16.0276   24.3195 C   0  0  0  0  0  0  0  0  0  0  0  0
   10.7884  -15.2734   24.2649 O   0  0  0  0  0  0  0  0  0  0  0  0
    9.4960  -16.6901   25.5307 N   0  0  0  0  0  0  0  0  0  0  0  0
   10.4280  -16.6025   26.6360 C   0  0  1  0  0  0  0  0  0  0  0  0
    9.7109  -15.9222   27.7829 C   0  0  0  0  0  0  0  0  0  0  0  0
   10.8836  -14.9419   28.7761 S   0  0  0  0  0  0  0  0  0  0  0  0
   10.8095  -17.9907   27.0701 C   0  0  0  0  0  0  0  0  0  0  0  0
   10.1301  -18.9638   26.6579 O   0  0  0  0  0  0  0  0  0  0  0  0
   17.3929  -21.0188   31.1880 N   0  0  0  0  0  0  0  0  0  0  0  0
   17.1197  -19.6906   30.7519 C   0  0  0  0  0  0  0  0  0  0  0  0
   18.0541  -18.9285   30.3205 N   0  0  0  0  0  0  0  0  0  0  0  0
   15.7764  -19.2126   30.8023 N   0  0  0  0  0  0  0  0  0  0  0  0
   14.7369  -20.0166   31.4604 C   0  0  0  0  0  0  0  0  0  0  0  0
   13.6564  -20.3320   30.4692 C   0  0  0  0  0  0  0  0  0  0  0  0
   13.2174  -19.2032   29.6157 C   0  0  0  0  0  0  0  0  0  0  0  0
   12.1544  -19.4781   28.6209 C   0  0  2  0  0  0  0  0  0  0  0  0
   11.8992  -18.2169   27.9181 N   0  0  0  0  0  0  0  0  0  0  0  0
   10.9041  -20.0075   29.2117 C   0  0  0  0  0  0  0  0  0  0  0  0
    9.9973  -19.2967   29.6787 O   0  0  0  0  0  0  0  0  0  0  0  0
   10.7359  -21.3802   29.2452 O   0  0  0  0  0  0  0  0  0  0  0  0
  2  1  1  1
  3  4  1  0
  3  2  1  0
  4  5  2  0
  5  6  1  0
  7  8  2  0
  7  6  1  0
  9  8  1  0
 10  9  2  0
 11 10  1  0
 11 12  2  0
 12  4  1  0
 12  7  1  0
 13  2  1  0
 13 14  2  0
 15 13  1  0
 16 15  1  0
 16 17  1  1
 18 17  1  0
 19 16  1  0
 20 19  2  0
 22 21  1  0
 22 23  2  0
 24 22  1  0
 25 24  1  0
 26 25  1  0
 28 27  1  1
 27 26  1  0
 28 29  1  0
 29 19  1  0
 30 28  1  0
 30 32  1  0
 31 30  2  0
M  END
$$$$
