WCR.pdb
     RDKit          3D

 32 33  0  0  1  0  0  0  0  0999 V2000
    7.8783  -18.0682   25.7785 N   0  0  0  0  0  0  0  0  0  0  0  0
    7.0875  -17.5065   24.6710 C   0  0  1  0  0  0  0  0  0  0  0  0
    6.3035  -16.3680   25.2782 C   0  0  0  0  0  0  0  0  0  0  0  0
    7.0624  -15.5563   26.2363 C   0  0  0  0  0  0  0  0  0  0  0  0
    7.9802  -16.0006   27.1648 C   0  0  0  0  0  0  0  0  0  0  0  0
    8.4513  -14.9483   27.8487 N   0  0  0  0  0  0  0  0  0  0  0  0
    7.8853  -13.8094   27.4158 C   0  0  0  0  0  0  0  0  0  0  0  0
    8.0308  -12.4927   27.7865 C   0  0  0  0  0  0  0  0  0  0  0  0
    7.2832  -11.5483   27.1232 C   0  0  0  0  0  0  0  0  0  0  0  0
    6.4141  -11.9090   26.1175 C   0  0  0  0  0  0  0  0  0  0  0  0
    6.2774  -13.2235   25.7570 C   0  0  0  0  0  0  0  0  0  0  0  0
    7.0091  -14.1813   26.4006 C   0  0  0  0  0  0  0  0  0  0  0  0
    7.9449  -17.0987   23.5635 C   0  0  0  0  0  0  0  0  0  0  0  0
    7.4417  -16.6519   22.5116 O   0  0  0  0  0  0  0  0  0  0  0  0
    9.3496  -17.2044   23.6667 N   0  0  0  0  0  0  0  0  0  0  0  0
   10.1737  -16.8444   22.5312 C   0  0  1  0  0  0  0  0  0  0  0  0
   10.5962  -15.4022   22.7147 C   0  0  0  0  0  0  0  0  0  0  0  0
   11.6820  -15.2362   24.1694 S   0  0  0  0  0  0  0  0  0  0  0  0
   11.4073  -17.7043   22.5253 C   0  0  0  0  0  0  0  0  0  0  0  0
   11.7527  -18.2776   23.5885 O   0  0  0  0  0  0  0  0  0  0  0  0
   13.9810  -21.9691   16.5951 N   0  0  0  0  0  0  0  0  0  0  0  0
   12.5862  -21.7206   16.4483 C   0  0  0  0  0  0  0  0  0  0  0  0
   11.8049  -22.6010   15.9438 N   0  0  0  0  0  0  0  0  0  0  0  0
   12.0628  -20.4638   16.8744 N   0  0  0  0  0  0  0  0  0  0  0  0
   12.9399  -19.4948   17.5467 C   0  0  0  0  0  0  0  0  0  0  0  0
   12.8010  -19.6520   19.0318 C   0  0  0  0  0  0  0  0  0  0  0  0
   13.7197  -18.8303   19.8541 C   0  0  0  0  0  0  0  0  0  0  0  0
   13.3945  -18.6820   21.2920 C   0  0  2  0  0  0  0  0  0  0  0  0
   12.1715  -17.8766   21.3660 N   0  0  0  0  0  0  0  0  0  0  0  0
   14.4764  -18.0607   22.0893 C   0  0  0  0  0  0  0  0  0  0  0  0
   14.6192  -16.8344   22.2362 O   0  0  0  0  0  0  0  0  0  0  0  0
   15.3850  -18.8994   22.7097 O   0  0  0  0  0  0  0  0  0  0  0  0
  2  1  1  1
  3  4  1  0
  3  2  1  0
  4  5  2  0
  5  6  1  0
  7  8  2  0
  7  6  1  0
  9  8  1  0
 10  9  2  0
 11 10  1  0
 11 12  2  0
 12  4  1  0
 12  7  1  0
 13  2  1  0
 13 14  2  0
 15 13  1  0
 16 15  1  0
 16 17  1  1
 18 17  1  0
 19 16  1  0
 20 19  2  0
 22 21  1  0
 22 23  2  0
 24 22  1  0
 25 24  1  0
 26 25  1  0
 28 27  1  6
 27 26  1  0
 28 29  1  0
 29 19  1  0
 30 28  1  0
 30 32  1  0
 31 30  2  0
M  END
$$$$
