WCR.pdb
     RDKit          3D

 32 33  0  0  1  0  0  0  0  0999 V2000
    7.8498  -17.3496   25.8661 N   0  0  0  0  0  0  0  0  0  0  0  0
    7.7481  -16.4021   24.7439 C   0  0  1  0  0  0  0  0  0  0  0  0
    8.7801  -15.3370   25.0266 C   0  0  0  0  0  0  0  0  0  0  0  0
    8.4313  -14.4370   26.1316 C   0  0  0  0  0  0  0  0  0  0  0  0
    8.8773  -14.5027   27.4349 C   0  0  0  0  0  0  0  0  0  0  0  0
    8.3266  -13.5003   28.1341 N   0  0  0  0  0  0  0  0  0  0  0  0
    7.5252  -12.7597   27.3504 C   0  0  0  0  0  0  0  0  0  0  0  0
    6.7519  -11.6473   27.5888 C   0  0  0  0  0  0  0  0  0  0  0  0
    6.0346  -11.1221   26.5398 C   0  0  0  0  0  0  0  0  0  0  0  0
    6.0881  -11.6922   25.2872 C   0  0  0  0  0  0  0  0  0  0  0  0
    6.8616  -12.8001   25.0617 C   0  0  0  0  0  0  0  0  0  0  0  0
    7.5841  -13.3413   26.0875 C   0  0  0  0  0  0  0  0  0  0  0  0
    7.9409  -17.0760   23.4645 C   0  0  0  0  0  0  0  0  0  0  0  0
    8.5834  -18.1453   23.4088 O   0  0  0  0  0  0  0  0  0  0  0  0
    7.4056  -16.5291   22.2774 N   0  0  0  0  0  0  0  0  0  0  0  0
    7.6510  -17.1959   21.0152 C   0  0  1  0  0  0  0  0  0  0  0  0
    6.8215  -16.4939   19.9609 C   0  0  0  0  0  0  0  0  0  0  0  0
    6.9294  -17.3790   18.3711 S   0  0  0  0  0  0  0  0  0  0  0  0
    9.1032  -17.0482   20.6539 C   0  0  0  0  0  0  0  0  0  0  0  0
    9.5703  -15.8954   20.4764 O   0  0  0  0  0  0  0  0  0  0  0  0
   17.0878  -20.7033   21.4136 N   0  0  0  0  0  0  0  0  0  0  0  0
   16.4354  -21.4692   20.4054 C   0  0  0  0  0  0  0  0  0  0  0  0
   17.0461  -22.4104   19.7879 N   0  0  0  0  0  0  0  0  0  0  0  0
   15.0770  -21.1720   20.0867 N   0  0  0  0  0  0  0  0  0  0  0  0
   14.3821  -20.0818   20.7860 C   0  0  0  0  0  0  0  0  0  0  0  0
   12.9645  -20.0103   20.3015 C   0  0  0  0  0  0  0  0  0  0  0  0
   12.1215  -18.9673   20.9314 C   0  0  0  0  0  0  0  0  0  0  0  0
   11.3207  -18.1061   20.0300 C   0  0  2  0  0  0  0  0  0  0  0  0
    9.9376  -18.1625   20.5131 N   0  0  0  0  0  0  0  0  0  0  0  0
   11.3914  -18.5021   18.6050 C   0  0  0  0  0  0  0  0  0  0  0  0
   12.2814  -18.1302   17.8206 O   0  0  0  0  0  0  0  0  0  0  0  0
   10.4038  -19.3390   18.1173 O   0  0  0  0  0  0  0  0  0  0  0  0
  2  1  1  1
  3  4  1  0
  3  2  1  0
  4  5  2  0
  5  6  1  0
  7  8  2  0
  7  6  1  0
  9  8  1  0
 10  9  2  0
 11 10  1  0
 11 12  2  0
 12  4  1  0
 12  7  1  0
 13  2  1  0
 13 14  2  0
 15 13  1  0
 16 15  1  0
 16 17  1  6
 18 17  1  0
 19 16  1  0
 20 19  2  0
 22 21  1  0
 22 23  2  0
 24 22  1  0
 25 24  1  0
 26 25  1  0
 28 27  1  1
 27 26  1  0
 28 29  1  0
 29 19  1  0
 30 28  1  0
 30 32  1  0
 31 30  2  0
M  END
$$$$
