WCR.pdb
     RDKit          3D

 32 33  0  0  1  0  0  0  0  0999 V2000
    5.5861  -17.9602   22.2463 N   0  0  0  0  0  0  0  0  0  0  0  0
    6.6215  -17.0260   21.7746 C   0  0  1  0  0  0  0  0  0  0  0  0
    5.8741  -15.9430   21.0343 C   0  0  0  0  0  0  0  0  0  0  0  0
    6.7181  -15.1101   20.1702 C   0  0  0  0  0  0  0  0  0  0  0  0
    7.0083  -15.3152   18.8377 C   0  0  0  0  0  0  0  0  0  0  0  0
    7.8137  -14.3319   18.4117 N   0  0  0  0  0  0  0  0  0  0  0  0
    8.0777  -13.4700   19.4078 C   0  0  0  0  0  0  0  0  0  0  0  0
    8.8340  -12.3229   19.4764 C   0  0  0  0  0  0  0  0  0  0  0  0
    8.8951  -11.6604   20.6798 C   0  0  0  0  0  0  0  0  0  0  0  0
    8.2196  -12.1305   21.7842 C   0  0  0  0  0  0  0  0  0  0  0  0
    7.4697  -13.2741   21.7039 C   0  0  0  0  0  0  0  0  0  0  0  0
    7.3927  -13.9511   20.5195 C   0  0  0  0  0  0  0  0  0  0  0  0
    7.4262  -16.5255   22.8837 C   0  0  0  0  0  0  0  0  0  0  0  0
    7.1089  -15.4647   23.4609 O   0  0  0  0  0  0  0  0  0  0  0  0
    8.5702  -17.2319   23.3165 N   0  0  0  0  0  0  0  0  0  0  0  0
    9.5074  -16.5847   24.2113 C   0  0  1  0  0  0  0  0  0  0  0  0
    8.7821  -16.3153   25.5127 C   0  0  0  0  0  0  0  0  0  0  0  0
    9.9456  -15.7063   26.7768 S   0  0  0  0  0  0  0  0  0  0  0  0
   10.6506  -17.5213   24.4891 C   0  0  0  0  0  0  0  0  0  0  0  0
   10.4130  -18.6186   25.0530 O   0  0  0  0  0  0  0  0  0  0  0  0
   15.2001  -13.9390   19.5999 N   0  0  0  0  0  0  0  0  0  0  0  0
   14.2114  -14.8255   19.0847 C   0  0  0  0  0  0  0  0  0  0  0  0
   13.6733  -14.6262   17.9398 N   0  0  0  0  0  0  0  0  0  0  0  0
   13.8220  -15.9521   19.8687 N   0  0  0  0  0  0  0  0  0  0  0  0
   14.2488  -16.0511   21.2717 C   0  0  0  0  0  0  0  0  0  0  0  0
   13.6940  -17.3105   21.8678 C   0  0  0  0  0  0  0  0  0  0  0  0
   14.1208  -17.6075   23.2552 C   0  0  0  0  0  0  0  0  0  0  0  0
   13.0922  -18.1310   24.1843 C   0  0  2  0  0  0  0  0  0  0  0  0
   11.9641  -17.1958   24.1336 N   0  0  0  0  0  0  0  0  0  0  0  0
   13.5705  -18.2952   25.5759 C   0  0  0  0  0  0  0  0  0  0  0  0
   13.1753  -17.6102   26.5353 O   0  0  0  0  0  0  0  0  0  0  0  0
   14.5171  -19.2734   25.8226 O   0  0  0  0  0  0  0  0  0  0  0  0
  2  1  1  1
  3  4  1  0
  3  2  1  0
  4  5  2  0
  5  6  1  0
  7  8  2  0
  7  6  1  0
  9  8  1  0
 10  9  2  0
 11 10  1  0
 11 12  2  0
 12  4  1  0
 12  7  1  0
 13  2  1  0
 13 14  2  0
 15 13  1  0
 16 15  1  0
 16 17  1  1
 18 17  1  0
 19 16  1  0
 20 19  2  0
 22 21  1  0
 22 23  2  0
 24 22  1  0
 25 24  1  0
 26 25  1  0
 28 27  1  6
 27 26  1  0
 28 29  1  0
 29 19  1  0
 30 28  1  0
 30 32  1  0
 31 30  2  0
M  END
$$$$
