WCR.pdb
     RDKit          3D

 32 33  0  0  1  0  0  0  0  0999 V2000
    9.0708  -14.6970   21.4489 N   0  0  0  0  0  0  0  0  0  0  0  0
    8.7897  -14.5547   22.8871 C   0  0  1  0  0  0  0  0  0  0  0  0
    7.5651  -15.4008   23.1397 C   0  0  0  0  0  0  0  0  0  0  0  0
    6.7773  -14.9887   24.3069 C   0  0  0  0  0  0  0  0  0  0  0  0
    5.9690  -15.7838   25.0920 C   0  0  0  0  0  0  0  0  0  0  0  0
    5.4239  -15.0305   26.0576 N   0  0  0  0  0  0  0  0  0  0  0  0
    5.8348  -13.7557   25.9534 C   0  0  0  0  0  0  0  0  0  0  0  0
    5.5666  -12.6235   26.6873 C   0  0  0  0  0  0  0  0  0  0  0  0
    6.1670  -11.4475   26.3036 C   0  0  0  0  0  0  0  0  0  0  0  0
    7.0120  -11.4034   25.2169 C   0  0  0  0  0  0  0  0  0  0  0  0
    7.2715  -12.5374   24.4934 C   0  0  0  0  0  0  0  0  0  0  0  0
    6.6873  -13.7187   24.8541 C   0  0  0  0  0  0  0  0  0  0  0  0
    9.9430  -14.9431   23.6915 C   0  0  0  0  0  0  0  0  0  0  0  0
   10.8991  -15.5506   23.1661 O   0  0  0  0  0  0  0  0  0  0  0  0
    9.9921  -14.6383   25.0699 N   0  0  0  0  0  0  0  0  0  0  0  0
   11.1804  -14.9709   25.8283 C   0  0  1  0  0  0  0  0  0  0  0  0
   10.9706  -14.4748   27.2433 C   0  0  0  0  0  0  0  0  0  0  0  0
    9.6388  -15.4158   28.0578 S   0  0  0  0  0  0  0  0  0  0  0  0
   11.3381  -16.4658   25.8670 C   0  0  0  0  0  0  0  0  0  0  0  0
   10.3080  -17.1851   25.8623 O   0  0  0  0  0  0  0  0  0  0  0  0
   15.9487  -22.4151   22.3257 N   0  0  0  0  0  0  0  0  0  0  0  0
   15.6118  -21.1655   21.7308 C   0  0  0  0  0  0  0  0  0  0  0  0
   15.2987  -21.0835   20.4917 N   0  0  0  0  0  0  0  0  0  0  0  0
   15.6276  -19.9914   22.5410 N   0  0  0  0  0  0  0  0  0  0  0  0
   15.9069  -20.0981   23.9801 C   0  0  0  0  0  0  0  0  0  0  0  0
   14.6175  -20.0050   24.7405 C   0  0  0  0  0  0  0  0  0  0  0  0
   14.1133  -18.6336   24.9861 C   0  0  0  0  0  0  0  0  0  0  0  0
   12.8423  -18.5020   25.7360 C   0  0  2  0  0  0  0  0  0  0  0  0
   12.6014  -17.0660   25.9073 N   0  0  0  0  0  0  0  0  0  0  0  0
   12.8471  -19.1895   27.0474 C   0  0  0  0  0  0  0  0  0  0  0  0
   12.8262  -18.6026   28.1432 O   0  0  0  0  0  0  0  0  0  0  0  0
   12.8766  -20.5726   27.0518 O   0  0  0  0  0  0  0  0  0  0  0  0
  2  1  1  6
  3  4  1  0
  3  2  1  0
  4  5  2  0
  5  6  1  0
  7  8  2  0
  7  6  1  0
  9  8  1  0
 10  9  2  0
 11 10  1  0
 11 12  2  0
 12  4  1  0
 12  7  1  0
 13  2  1  0
 13 14  2  0
 15 13  1  0
 16 15  1  0
 16 17  1  1
 18 17  1  0
 19 16  1  0
 20 19  2  0
 22 21  1  0
 22 23  2  0
 24 22  1  0
 25 24  1  0
 26 25  1  0
 28 27  1  1
 27 26  1  0
 28 29  1  0
 29 19  1  0
 30 28  1  0
 30 32  1  0
 31 30  2  0
M  END
$$$$
