WCR.pdb
     RDKit          3D

 32 33  0  0  1  0  0  0  0  0999 V2000
    6.7323  -18.5013   24.9592 N   0  0  0  0  0  0  0  0  0  0  0  0
    6.9792  -17.0995   24.5830 C   0  0  1  0  0  0  0  0  0  0  0  0
    7.4496  -16.4239   25.8485 C   0  0  0  0  0  0  0  0  0  0  0  0
    6.7258  -15.1913   26.1794 C   0  0  0  0  0  0  0  0  0  0  0  0
    5.4096  -15.0761   26.5747 C   0  0  0  0  0  0  0  0  0  0  0  0
    5.1294  -13.7816   26.7816 N   0  0  0  0  0  0  0  0  0  0  0  0
    6.2084  -13.0184   26.5408 C   0  0  0  0  0  0  0  0  0  0  0  0
    6.4288  -11.6622   26.6084 C   0  0  0  0  0  0  0  0  0  0  0  0
    7.6818  -11.1947   26.2888 C   0  0  0  0  0  0  0  0  0  0  0  0
    8.6869  -12.0576   25.9121 C   0  0  0  0  0  0  0  0  0  0  0  0
    8.4556  -13.4063   25.8482 C   0  0  0  0  0  0  0  0  0  0  0  0
    7.2190  -13.8964   26.1608 C   0  0  0  0  0  0  0  0  0  0  0  0
    7.9337  -17.0080   23.4836 C   0  0  0  0  0  0  0  0  0  0  0  0
    8.7866  -17.9045   23.3165 O   0  0  0  0  0  0  0  0  0  0  0  0
    7.9052  -15.9079   22.5981 N   0  0  0  0  0  0  0  0  0  0  0  0
    8.8451  -15.8587   21.4971 C   0  0  1  0  0  0  0  0  0  0  0  0
    8.5459  -14.6073   20.6991 C   0  0  0  0  0  0  0  0  0  0  0  0
    6.9278  -14.7504   19.8719 S   0  0  0  0  0  0  0  0  0  0  0  0
   10.2411  -15.7506   22.0453 C   0  0  0  0  0  0  0  0  0  0  0  0
   10.4279  -15.1058   23.1073 O   0  0  0  0  0  0  0  0  0  0  0  0
   12.1745  -15.5125   27.7940 N   0  0  0  0  0  0  0  0  0  0  0  0
   11.0454  -16.3546   27.5822 C   0  0  0  0  0  0  0  0  0  0  0  0
   10.0531  -16.3500   28.3917 N   0  0  0  0  0  0  0  0  0  0  0  0
   11.0325  -17.2145   26.4439 N   0  0  0  0  0  0  0  0  0  0  0  0
   12.2761  -17.4672   25.7024 C   0  0  0  0  0  0  0  0  0  0  0  0
   12.3046  -16.6012   24.4782 C   0  0  0  0  0  0  0  0  0  0  0  0
   12.5317  -17.3077   23.1958 C   0  0  0  0  0  0  0  0  0  0  0  0
   12.6692  -16.4756   21.9777 C   0  0  2  0  0  0  0  0  0  0  0  0
   11.3277  -16.3506   21.3995 N   0  0  0  0  0  0  0  0  0  0  0  0
   13.6168  -17.0250   20.9813 C   0  0  0  0  0  0  0  0  0  0  0  0
   13.2789  -17.7109   20.0010 O   0  0  0  0  0  0  0  0  0  0  0  0
   14.9630  -16.7571   21.1536 O   0  0  0  0  0  0  0  0  0  0  0  0
  2  1  1  1
  3  4  1  0
  3  2  1  0
  4  5  2  0
  5  6  1  0
  7  8  2  0
  7  6  1  0
  9  8  1  0
 10  9  2  0
 11 10  1  0
 11 12  2  0
 12  4  1  0
 12  7  1  0
 13  2  1  0
 13 14  2  0
 15 13  1  0
 16 15  1  0
 16 17  1  6
 18 17  1  0
 19 16  1  0
 20 19  2  0
 22 21  1  0
 22 23  2  0
 24 22  1  0
 25 24  1  0
 26 25  1  0
 28 27  1  1
 27 26  1  0
 28 29  1  0
 29 19  1  0
 30 28  1  0
 30 32  1  0
 31 30  2  0
M  END
$$$$
