WCR.pdb
     RDKit          3D

 32 33  0  0  1  0  0  0  0  0999 V2000
    6.1524  -17.3096   23.6586 N   0  0  0  0  0  0  0  0  0  0  0  0
    7.0118  -16.2035   23.2051 C   0  0  1  0  0  0  0  0  0  0  0  0
    7.7692  -15.7580   24.4328 C   0  0  0  0  0  0  0  0  0  0  0  0
    6.9348  -15.1236   25.4594 C   0  0  0  0  0  0  0  0  0  0  0  0
    6.2389  -15.7479   26.4733 C   0  0  0  0  0  0  0  0  0  0  0  0
    5.5998  -14.8190   27.1982 N   0  0  0  0  0  0  0  0  0  0  0  0
    5.8389  -13.5900   26.7111 C   0  0  0  0  0  0  0  0  0  0  0  0
    5.4241  -12.3353   27.0933 C   0  0  0  0  0  0  0  0  0  0  0  0
    5.8639  -11.2583   26.3603 C   0  0  0  0  0  0  0  0  0  0  0  0
    6.6950  -11.4296   25.2754 C   0  0  0  0  0  0  0  0  0  0  0  0
    7.1013  -12.6840   24.9041 C   0  0  0  0  0  0  0  0  0  0  0  0
    6.6783  -13.7708   25.6160 C   0  0  0  0  0  0  0  0  0  0  0  0
    7.8758  -16.6221   22.1068 C   0  0  0  0  0  0  0  0  0  0  0  0
    8.3814  -17.7639   22.1059 O   0  0  0  0  0  0  0  0  0  0  0  0
    8.1505  -15.7441   21.0350 N   0  0  0  0  0  0  0  0  0  0  0  0
    9.3300  -15.9627   20.2231 C   0  0  1  0  0  0  0  0  0  0  0  0
    9.2104  -15.0786   18.9998 C   0  0  0  0  0  0  0  0  0  0  0  0
    8.3858  -13.5096   19.4253 S   0  0  0  0  0  0  0  0  0  0  0  0
   10.5471  -15.5398   20.9982 C   0  0  0  0  0  0  0  0  0  0  0  0
   10.3945  -15.0179   22.1308 O   0  0  0  0  0  0  0  0  0  0  0  0
   11.8858  -23.1266   21.2819 N   0  0  0  0  0  0  0  0  0  0  0  0
   13.2575  -22.7685   21.1434 C   0  0  0  0  0  0  0  0  0  0  0  0
   14.1570  -23.6557   20.9339 N   0  0  0  0  0  0  0  0  0  0  0  0
   13.6228  -21.3930   21.2424 N   0  0  0  0  0  0  0  0  0  0  0  0
   12.6193  -20.3952   21.6395 C   0  0  0  0  0  0  0  0  0  0  0  0
   13.2274  -19.0265   21.5611 C   0  0  0  0  0  0  0  0  0  0  0  0
   12.3208  -17.9449   21.1100 C   0  0  0  0  0  0  0  0  0  0  0  0
   12.8629  -16.5661   21.0972 C   0  0  2  0  0  0  0  0  0  0  0  0
   11.8370  -15.7160   20.4854 N   0  0  0  0  0  0  0  0  0  0  0  0
   14.1479  -16.4349   20.3733 C   0  0  0  0  0  0  0  0  0  0  0  0
   15.2507  -16.2911   20.9291 O   0  0  0  0  0  0  0  0  0  0  0  0
   14.1177  -16.4753   18.9908 O   0  0  0  0  0  0  0  0  0  0  0  0
  2  1  1  1
  3  4  1  0
  3  2  1  0
  4  5  2  0
  5  6  1  0
  7  8  2  0
  7  6  1  0
  9  8  1  0
 10  9  2  0
 11 10  1  0
 11 12  2  0
 12  4  1  0
 12  7  1  0
 13  2  1  0
 13 14  2  0
 15 13  1  0
 16 15  1  0
 16 17  1  6
 18 17  1  0
 19 16  1  0
 20 19  2  0
 22 21  1  0
 22 23  2  0
 24 22  1  0
 25 24  1  0
 26 25  1  0
 28 27  1  6
 27 26  1  0
 28 29  1  0
 29 19  1  0
 30 28  1  0
 30 32  1  0
 31 30  2  0
M  END
$$$$
