WCR.pdb
     RDKit          3D

 32 33  0  0  1  0  0  0  0  0999 V2000
    7.8050  -16.4709   23.3753 N   0  0  0  0  0  0  0  0  0  0  0  0
    8.7354  -15.3798   23.7089 C   0  0  1  0  0  0  0  0  0  0  0  0
    8.8049  -15.3622   25.2170 C   0  0  0  0  0  0  0  0  0  0  0  0
    7.6270  -14.7786   25.8686 C   0  0  0  0  0  0  0  0  0  0  0  0
    6.5093  -15.4449   26.3254 C   0  0  0  0  0  0  0  0  0  0  0  0
    5.6594  -14.5550   26.8571 N   0  0  0  0  0  0  0  0  0  0  0  0
    6.1625  -13.3119   26.7762 C   0  0  0  0  0  0  0  0  0  0  0  0
    5.6871  -12.0828   27.1709 C   0  0  0  0  0  0  0  0  0  0  0  0
    6.4732  -10.9797   26.9343 C   0  0  0  0  0  0  0  0  0  0  0  0
    7.7001  -11.1006   26.3204 C   0  0  0  0  0  0  0  0  0  0  0  0
    8.1631  -12.3299   25.9315 C   0  0  0  0  0  0  0  0  0  0  0  0
    7.4011  -13.4418   26.1553 C   0  0  0  0  0  0  0  0  0  0  0  0
   10.0309  -15.5758   23.0676 C   0  0  0  0  0  0  0  0  0  0  0  0
   11.0212  -14.9109   23.4369 O   0  0  0  0  0  0  0  0  0  0  0  0
   10.1804  -16.5164   22.0245 N   0  0  0  0  0  0  0  0  0  0  0  0
   11.4751  -17.1250   21.7980 C   0  0  1  0  0  0  0  0  0  0  0  0
   11.7712  -18.0191   22.9834 C   0  0  0  0  0  0  0  0  0  0  0  0
   13.5543  -18.0066   23.3617 S   0  0  0  0  0  0  0  0  0  0  0  0
   11.4085  -17.9797   20.5626 C   0  0  0  0  0  0  0  0  0  0  0  0
   10.8637  -19.1095   20.6348 O   0  0  0  0  0  0  0  0  0  0  0  0
    9.8071  -13.4878   18.4224 N   0  0  0  0  0  0  0  0  0  0  0  0
    8.5248  -13.8128   17.8944 C   0  0  0  0  0  0  0  0  0  0  0  0
    7.4699  -13.2058   18.2929 N   0  0  0  0  0  0  0  0  0  0  0  0
    8.4274  -14.8355   16.9045 N   0  0  0  0  0  0  0  0  0  0  0  0
    9.6436  -15.5017   16.4173 C   0  0  0  0  0  0  0  0  0  0  0  0
   10.1207  -16.4756   17.4533 C   0  0  0  0  0  0  0  0  0  0  0  0
   11.3053  -17.2833   17.0795 C   0  0  0  0  0  0  0  0  0  0  0  0
   11.7992  -18.2640   18.0741 C   0  0  2  0  0  0  0  0  0  0  0  0
   11.9379  -17.5430   19.3432 N   0  0  0  0  0  0  0  0  0  0  0  0
   13.0792  -18.9059   17.6971 C   0  0  0  0  0  0  0  0  0  0  0  0
   13.1703  -20.0405   17.1970 O   0  0  0  0  0  0  0  0  0  0  0  0
   14.2467  -18.1967   17.9157 O   0  0  0  0  0  0  0  0  0  0  0  0
  2  1  1  1
  3  4  1  0
  3  2  1  0
  4  5  2  0
  5  6  1  0
  7  8  2  0
  7  6  1  0
  9  8  1  0
 10  9  2  0
 11 10  1  0
 11 12  2  0
 12  4  1  0
 12  7  1  0
 13  2  1  0
 13 14  2  0
 15 13  1  0
 16 15  1  0
 16 17  1  1
 18 17  1  0
 19 16  1  0
 20 19  2  0
 22 21  1  0
 22 23  2  0
 24 22  1  0
 25 24  1  0
 26 25  1  0
 28 27  1  6
 27 26  1  0
 28 29  1  0
 29 19  1  0
 30 28  1  0
 30 32  1  0
 31 30  2  0
M  END
$$$$
