WCR.pdb
     RDKit          3D

 32 33  0  0  1  0  0  0  0  0999 V2000
    7.3472  -16.9531   24.0759 N   0  0  0  0  0  0  0  0  0  0  0  0
    8.3184  -16.1155   23.3530 C   0  0  1  0  0  0  0  0  0  0  0  0
    7.6901  -14.7443   23.2856 C   0  0  0  0  0  0  0  0  0  0  0  0
    7.0405  -14.3164   24.5296 C   0  0  0  0  0  0  0  0  0  0  0  0
    6.3193  -15.0986   25.4071 C   0  0  0  0  0  0  0  0  0  0  0  0
    5.8906  -14.3331   26.4207 N   0  0  0  0  0  0  0  0  0  0  0  0
    6.2963  -13.0626   26.2598 C   0  0  0  0  0  0  0  0  0  0  0  0
    6.1197  -11.9223   27.0089 C   0  0  0  0  0  0  0  0  0  0  0  0
    6.6818  -10.7543   26.5499 C   0  0  0  0  0  0  0  0  0  0  0  0
    7.4005  -10.7259   25.3754 C   0  0  0  0  0  0  0  0  0  0  0  0
    7.5696  -11.8677   24.6377 C   0  0  0  0  0  0  0  0  0  0  0  0
    7.0210  -13.0414   25.0720 C   0  0  0  0  0  0  0  0  0  0  0  0
    9.6202  -16.1287   24.0112 C   0  0  0  0  0  0  0  0  0  0  0  0
   10.6084  -15.6020   23.4587 O   0  0  0  0  0  0  0  0  0  0  0  0
    9.7784  -16.7355   25.2769 N   0  0  0  0  0  0  0  0  0  0  0  0
   11.0919  -16.7737   25.8863 C   0  0  1  0  0  0  0  0  0  0  0  0
   11.1604  -15.6429   26.8908 C   0  0  0  0  0  0  0  0  0  0  0  0
    9.8560  -15.8291   28.1503 S   0  0  0  0  0  0  0  0  0  0  0  0
   11.2558  -18.0745   26.6228 C   0  0  0  0  0  0  0  0  0  0  0  0
   10.2931  -18.5143   27.2997 O   0  0  0  0  0  0  0  0  0  0  0  0
   13.9747  -21.2042   22.0125 N   0  0  0  0  0  0  0  0  0  0  0  0
   14.6338  -19.9530   22.1832 C   0  0  0  0  0  0  0  0  0  0  0  0
   14.6366  -19.0723   21.2534 N   0  0  0  0  0  0  0  0  0  0  0  0
   15.2995  -19.6888   23.4170 N   0  0  0  0  0  0  0  0  0  0  0  0
   15.2896  -20.6980   24.4856 C   0  0  0  0  0  0  0  0  0  0  0  0
   13.9209  -20.7560   25.0959 C   0  0  0  0  0  0  0  0  0  0  0  0
   13.8731  -20.6887   26.5753 C   0  0  0  0  0  0  0  0  0  0  0  0
   12.6546  -20.1112   27.1893 C   0  0  2  0  0  0  0  0  0  0  0  0
   12.4517  -18.7988   26.5681 N   0  0  0  0  0  0  0  0  0  0  0  0
   12.7294  -19.9843   28.6626 C   0  0  0  0  0  0  0  0  0  0  0  0
   12.8197  -18.9011   29.2662 O   0  0  0  0  0  0  0  0  0  0  0  0
   12.6964  -21.1456   29.4137 O   0  0  0  0  0  0  0  0  0  0  0  0
  2  1  1  1
  3  4  1  0
  3  2  1  0
  4  5  2  0
  5  6  1  0
  7  8  2  0
  7  6  1  0
  9  8  1  0
 10  9  2  0
 11 10  1  0
 11 12  2  0
 12  4  1  0
 12  7  1  0
 13  2  1  0
 13 14  2  0
 15 13  1  0
 16 15  1  0
 16 17  1  1
 18 17  1  0
 19 16  1  0
 20 19  2  0
 22 21  1  0
 22 23  2  0
 24 22  1  0
 25 24  1  0
 26 25  1  0
 28 27  1  6
 27 26  1  0
 28 29  1  0
 29 19  1  0
 30 28  1  0
 30 32  1  0
 31 30  2  0
M  END
$$$$
