WCR.pdb
     RDKit          3D

 32 33  0  0  1  0  0  0  0  0999 V2000
    8.4790  -15.1561   24.7309 N   0  0  0  0  0  0  0  0  0  0  0  0
    7.7151  -16.3630   24.3739 C   0  0  1  0  0  0  0  0  0  0  0  0
    6.3936  -16.2249   25.0909 C   0  0  0  0  0  0  0  0  0  0  0  0
    6.1975  -14.9292   25.7506 C   0  0  0  0  0  0  0  0  0  0  0  0
    5.0015  -14.2843   25.9861 C   0  0  0  0  0  0  0  0  0  0  0  0
    5.2484  -13.1247   26.6118 N   0  0  0  0  0  0  0  0  0  0  0  0
    6.5676  -12.9631   26.8077 C   0  0  0  0  0  0  0  0  0  0  0  0
    7.3110  -11.9641   27.3923 C   0  0  0  0  0  0  0  0  0  0  0  0
    8.6774  -12.1136   27.4306 C   0  0  0  0  0  0  0  0  0  0  0  0
    9.2846  -13.2300   26.8996 C   0  0  0  0  0  0  0  0  0  0  0  0
    8.5339  -14.2183   26.3197 C   0  0  0  0  0  0  0  0  0  0  0  0
    7.1742  -14.0938   26.2690 C   0  0  0  0  0  0  0  0  0  0  0  0
    7.5826  -16.4955   22.9272 C   0  0  0  0  0  0  0  0  0  0  0  0
    6.8542  -17.3864   22.4425 O   0  0  0  0  0  0  0  0  0  0  0  0
    8.2745  -15.6212   22.0601 N   0  0  0  0  0  0  0  0  0  0  0  0
    8.8242  -16.1367   20.8231 C   0  0  1  0  0  0  0  0  0  0  0  0
    8.6701  -15.0577   19.7722 C   0  0  0  0  0  0  0  0  0  0  0  0
    7.4782  -13.7944   20.3256 S   0  0  0  0  0  0  0  0  0  0  0  0
   10.2907  -16.4105   21.0119 C   0  0  0  0  0  0  0  0  0  0  0  0
   11.0286  -15.4918   21.4476 O   0  0  0  0  0  0  0  0  0  0  0  0
    9.7173  -21.6168   24.0041 N   0  0  0  0  0  0  0  0  0  0  0  0
   10.6850  -22.5956   23.6372 C   0  0  0  0  0  0  0  0  0  0  0  0
   10.4165  -23.8466   23.6904 N   0  0  0  0  0  0  0  0  0  0  0  0
   11.9731  -22.1610   23.2047 N   0  0  0  0  0  0  0  0  0  0  0  0
   12.2586  -20.7244   23.0819 C   0  0  0  0  0  0  0  0  0  0  0  0
   11.5233  -20.1755   21.8956 C   0  0  0  0  0  0  0  0  0  0  0  0
   12.3556  -19.4705   20.8929 C   0  0  0  0  0  0  0  0  0  0  0  0
   12.2655  -17.9921   20.8548 C   0  0  2  0  0  0  0  0  0  0  0  0
   10.8443  -17.6605   20.7138 N   0  0  0  0  0  0  0  0  0  0  0  0
   13.0556  -17.3721   19.7667 C   0  0  0  0  0  0  0  0  0  0  0  0
   12.6462  -17.2283   18.6016 O   0  0  0  0  0  0  0  0  0  0  0  0
   14.3297  -16.9249   20.0673 O   0  0  0  0  0  0  0  0  0  0  0  0
  2  1  1  6
  3  4  1  0
  3  2  1  0
  4  5  2  0
  5  6  1  0
  7  8  2  0
  7  6  1  0
  9  8  1  0
 10  9  2  0
 11 10  1  0
 11 12  2  0
 12  4  1  0
 12  7  1  0
 13  2  1  0
 13 14  2  0
 15 13  1  0
 16 15  1  0
 16 17  1  6
 18 17  1  0
 19 16  1  0
 20 19  2  0
 22 21  1  0
 22 23  2  0
 24 22  1  0
 25 24  1  0
 26 25  1  0
 28 27  1  6
 27 26  1  0
 28 29  1  0
 29 19  1  0
 30 28  1  0
 30 32  1  0
 31 30  2  0
M  END
$$$$
