WCR.pdb
     RDKit          3D

 32 33  0  0  1  0  0  0  0  0999 V2000
    7.5703  -17.4403   26.0736 N   0  0  0  0  0  0  0  0  0  0  0  0
    7.5333  -16.4381   24.9956 C   0  0  1  0  0  0  0  0  0  0  0  0
    8.6744  -15.4942   25.2895 C   0  0  0  0  0  0  0  0  0  0  0  0
    8.4618  -14.6370   26.4611 C   0  0  0  0  0  0  0  0  0  0  0  0
    9.1325  -14.6866   27.6651 C   0  0  0  0  0  0  0  0  0  0  0  0
    8.6436  -13.7369   28.4749 N   0  0  0  0  0  0  0  0  0  0  0  0
    7.6673  -13.0473   27.8616 C   0  0  0  0  0  0  0  0  0  0  0  0
    6.8712  -11.9982   28.2593 C   0  0  0  0  0  0  0  0  0  0  0  0
    5.9462  -11.5138   27.3646 C   0  0  0  0  0  0  0  0  0  0  0  0
    5.8196  -12.0619   26.1075 C   0  0  0  0  0  0  0  0  0  0  0  0
    6.6178  -13.1066   25.7226 C   0  0  0  0  0  0  0  0  0  0  0  0
    7.5450  -13.6063   26.5931 C   0  0  0  0  0  0  0  0  0  0  0  0
    7.6223  -17.0700   23.6838 C   0  0  0  0  0  0  0  0  0  0  0  0
    7.8782  -18.2885   23.5900 O   0  0  0  0  0  0  0  0  0  0  0  0
    7.4211  -16.3138   22.5078 N   0  0  0  0  0  0  0  0  0  0  0  0
    7.4970  -16.9716   21.2196 C   0  0  1  0  0  0  0  0  0  0  0  0
    6.6050  -16.2066   20.2649 C   0  0  0  0  0  0  0  0  0  0  0  0
    6.0085  -14.6698   21.0428 S   0  0  0  0  0  0  0  0  0  0  0  0
    8.9104  -16.8987   20.7115 C   0  0  0  0  0  0  0  0  0  0  0  0
    9.1830  -17.4157   19.5993 O   0  0  0  0  0  0  0  0  0  0  0  0
    9.6590  -14.7611   17.2011 N   0  0  0  0  0  0  0  0  0  0  0  0
    9.0346  -13.5215   17.5211 C   0  0  0  0  0  0  0  0  0  0  0  0
    8.1831  -12.9838   16.7299 N   0  0  0  0  0  0  0  0  0  0  0  0
    9.3729  -12.8774   18.7482 N   0  0  0  0  0  0  0  0  0  0  0  0
   10.7384  -12.9867   19.2808 C   0  0  0  0  0  0  0  0  0  0  0  0
   11.1249  -14.4340   19.3527 C   0  0  0  0  0  0  0  0  0  0  0  0
   11.6682  -14.8908   20.6533 C   0  0  0  0  0  0  0  0  0  0  0  0
   11.3387  -16.2711   21.0793 C   0  0  2  0  0  0  0  0  0  0  0  0
    9.9198  -16.2701   21.4488 N   0  0  0  0  0  0  0  0  0  0  0  0
   12.1688  -16.7654   22.2013 C   0  0  0  0  0  0  0  0  0  0  0  0
   13.3942  -16.9626   22.1288 O   0  0  0  0  0  0  0  0  0  0  0  0
   11.5396  -17.0235   23.4059 O   0  0  0  0  0  0  0  0  0  0  0  0
  2  1  1  1
  3  4  1  0
  3  2  1  0
  4  5  2  0
  5  6  1  0
  7  8  2  0
  7  6  1  0
  9  8  1  0
 10  9  2  0
 11 10  1  0
 11 12  2  0
 12  4  1  0
 12  7  1  0
 13  2  1  0
 13 14  2  0
 15 13  1  0
 16 15  1  0
 16 17  1  6
 18 17  1  0
 19 16  1  0
 20 19  2  0
 22 21  1  0
 22 23  2  0
 24 22  1  0
 25 24  1  0
 26 25  1  0
 28 27  1  1
 27 26  1  0
 28 29  1  0
 29 19  1  0
 30 28  1  0
 30 32  1  0
 31 30  2  0
M  END
$$$$
