WCR.pdb
     RDKit          3D

 32 33  0  0  1  0  0  0  0  0999 V2000
    8.2395  -16.5967   23.4848 N   0  0  0  0  0  0  0  0  0  0  0  0
    8.5138  -15.1509   23.5288 C   0  0  1  0  0  0  0  0  0  0  0  0
    7.1962  -14.4853   23.2121 C   0  0  0  0  0  0  0  0  0  0  0  0
    6.8576  -14.4661   21.7846 C   0  0  0  0  0  0  0  0  0  0  0  0
    5.8639  -15.1833   21.1521 C   0  0  0  0  0  0  0  0  0  0  0  0
    5.8785  -14.8870   19.8448 N   0  0  0  0  0  0  0  0  0  0  0  0
    6.8457  -13.9956   19.5714 C   0  0  0  0  0  0  0  0  0  0  0  0
    7.2565  -13.3887   18.4072 C   0  0  0  0  0  0  0  0  0  0  0  0
    8.3046  -12.5013   18.4763 C   0  0  0  0  0  0  0  0  0  0  0  0
    8.9253  -12.2275   19.6749 C   0  0  0  0  0  0  0  0  0  0  0  0
    8.5076  -12.8382   20.8278 C   0  0  0  0  0  0  0  0  0  0  0  0
    7.4682  -13.7241   20.7860 C   0  0  0  0  0  0  0  0  0  0  0  0
    9.0705  -14.7579   24.8187 C   0  0  0  0  0  0  0  0  0  0  0  0
    9.1980  -13.5493   25.1054 O   0  0  0  0  0  0  0  0  0  0  0  0
    9.4710  -15.7362   25.7555 N   0  0  0  0  0  0  0  0  0  0  0  0
   10.6249  -15.4851   26.5942 C   0  0  1  0  0  0  0  0  0  0  0  0
   10.1892  -15.6643   28.0331 C   0  0  0  0  0  0  0  0  0  0  0  0
   10.8824  -14.3419   29.0786 S   0  0  0  0  0  0  0  0  0  0  0  0
   11.6874  -16.5043   26.2887 C   0  0  0  0  0  0  0  0  0  0  0  0
   11.5868  -17.6538   26.7858 O   0  0  0  0  0  0  0  0  0  0  0  0
   12.1112  -15.1353   19.1482 N   0  0  0  0  0  0  0  0  0  0  0  0
   13.2179  -14.9137   20.0171 C   0  0  0  0  0  0  0  0  0  0  0  0
   14.2078  -14.1850   19.6580 N   0  0  0  0  0  0  0  0  0  0  0  0
   13.2113  -15.5207   21.3081 N   0  0  0  0  0  0  0  0  0  0  0  0
   12.9090  -16.9528   21.4428 C   0  0  0  0  0  0  0  0  0  0  0  0
   12.7857  -17.2957   22.8976 C   0  0  0  0  0  0  0  0  0  0  0  0
   14.0239  -17.1542   23.6988 C   0  0  0  0  0  0  0  0  0  0  0  0
   13.8783  -17.1215   25.1730 C   0  0  2  0  0  0  0  0  0  0  0  0
   12.7778  -16.1985   25.4669 N   0  0  0  0  0  0  0  0  0  0  0  0
   15.1084  -16.7097   25.8869 C   0  0  0  0  0  0  0  0  0  0  0  0
   15.2164  -15.6587   26.5421 O   0  0  0  0  0  0  0  0  0  0  0  0
   16.2061  -17.5489   25.8197 O   0  0  0  0  0  0  0  0  0  0  0  0
  2  1  1  1
  3  4  1  0
  3  2  1  0
  4  5  2  0
  5  6  1  0
  7  8  2  0
  7  6  1  0
  9  8  1  0
 10  9  2  0
 11 10  1  0
 11 12  2  0
 12  4  1  0
 12  7  1  0
 13  2  1  0
 13 14  2  0
 15 13  1  0
 16 15  1  0
 16 17  1  1
 18 17  1  0
 19 16  1  0
 20 19  2  0
 22 21  1  0
 22 23  2  0
 24 22  1  0
 25 24  1  0
 26 25  1  0
 28 27  1  6
 27 26  1  0
 28 29  1  0
 29 19  1  0
 30 28  1  0
 30 32  1  0
 31 30  2  0
M  END
$$$$
