KVL.pdb
     RDKit          3D

 25 24  0  0  1  0  0  0  0  0999 V2000
    7.3781  -18.8592   21.0033 N   0  0  0  0  0  0  0  0  0  0  0  0
    8.7102  -18.5997   20.5593 C   0  0  1  0  0  0  0  0  0  0  0  0
    9.0144  -19.0278   19.1577 C   0  0  0  0  0  0  0  0  0  0  0  0
    9.0175  -20.4996   18.9253 C   0  0  0  0  0  0  0  0  0  0  0  0
    9.3189  -20.9331   17.5249 C   0  0  0  0  0  0  0  0  0  0  0  0
    9.2802  -22.4413   17.3786 C   0  0  0  0  0  0  0  0  0  0  0  0
    9.6375  -22.7592   16.0119 N   0  0  0  0  0  0  0  0  0  0  0  0
    9.1265  -17.1925   20.7820 C   0  0  0  0  0  0  0  0  0  0  0  0
   10.3198  -16.8979   20.5612 O   0  0  0  0  0  0  0  0  0  0  0  0
    8.1080  -12.3909   21.0767 C   0  0  0  0  0  0  0  0  0  0  0  0
    7.6621  -13.8152   20.8767 C   0  0  2  0  0  0  0  0  0  0  0  0
    6.3141  -14.0865   21.4919 C   0  0  0  0  0  0  0  0  0  0  0  0
    8.7118  -14.7994   21.3780 C   0  0  2  0  0  0  0  0  0  0  0  0
    8.2554  -16.1672   21.2283 N   0  0  0  0  0  0  0  0  0  0  0  0
    9.0102  -14.4994   22.8013 C   0  0  0  0  0  0  0  0  0  0  0  0
    9.7612  -13.5263   23.0548 O   0  0  0  0  0  0  0  0  0  0  0  0
    8.3855  -12.0767   26.2305 C   0  0  0  0  0  0  0  0  0  0  0  0
    7.2628  -12.9214   25.6047 C   0  0  2  0  0  0  0  0  0  0  0  0
    5.9762  -12.4186   26.1691 C   0  0  0  0  0  0  0  0  0  0  0  0
    7.5664  -14.3379   25.9354 C   0  0  0  0  0  0  0  0  0  0  0  0
    8.7719  -14.9211   25.2752 C   0  0  2  0  0  0  0  0  0  0  0  0
    8.4940  -15.2501   23.8762 N   0  0  0  0  0  0  0  0  0  0  0  0
    9.1943  -16.1665   25.9495 C   0  0  0  0  0  0  0  0  0  0  0  0
    9.0875  -17.2735   25.3405 O   0  0  0  0  0  0  0  0  0  0  0  0
    9.7183  -16.2091   27.2473 O   0  0  0  0  0  0  0  0  0  0  0  0
  2  1  1  6
  3  2  1  0
  4  3  1  0
  5  6  1  0
  5  4  1  0
  6  7  1  0
  8  2  1  0
  8  9  2  0
 11 13  1  0
 11 10  1  1
 12 11  1  0
 13 14  1  1
 14  8  1  0
 15 13  1  0
 16 15  2  0
 18 17  1  1
 18 20  1  0
 19 18  1  0
 21 20  1  1
 21 23  1  0
 21 22  1  0
 22 15  1  0
 23 25  1  0
 24 23  2  0
M  END
$$$$
