KVL.pdb
     RDKit          3D

 25 24  0  0  1  0  0  0  0  0999 V2000
    6.8422  -18.5731   20.8463 N   0  0  0  0  0  0  0  0  0  0  0  0
    8.2157  -18.4686   20.4700 C   0  0  1  0  0  0  0  0  0  0  0  0
    8.5557  -19.0232   19.1220 C   0  0  0  0  0  0  0  0  0  0  0  0
    8.1462  -20.4371   18.8906 C   0  0  0  0  0  0  0  0  0  0  0  0
    9.2068  -21.4657   19.1296 C   0  0  0  0  0  0  0  0  0  0  0  0
    8.7209  -22.8650   18.8081 C   0  0  0  0  0  0  0  0  0  0  0  0
    9.7837  -23.7877   19.1482 N   0  0  0  0  0  0  0  0  0  0  0  0
    8.7508  -17.0926   20.6233 C   0  0  0  0  0  0  0  0  0  0  0  0
    9.9793  -16.9271   20.4727 O   0  0  0  0  0  0  0  0  0  0  0  0
    8.2431  -12.1887   20.8900 C   0  0  0  0  0  0  0  0  0  0  0  0
    7.6420  -13.5465   20.6395 C   0  0  2  0  0  0  0  0  0  0  0  0
    6.2488  -13.6697   21.1992 C   0  0  0  0  0  0  0  0  0  0  0  0
    8.5495  -14.6571   21.1541 C   0  0  2  0  0  0  0  0  0  0  0  0
    7.9551  -15.9601   20.9291 N   0  0  0  0  0  0  0  0  0  0  0  0
    8.8019  -14.4391   22.6010 C   0  0  0  0  0  0  0  0  0  0  0  0
    9.5318  -13.4740   22.9342 O   0  0  0  0  0  0  0  0  0  0  0  0
    7.5993  -12.2095   26.1544 C   0  0  0  0  0  0  0  0  0  0  0  0
    6.6913  -13.1381   25.3302 C   0  0  2  0  0  0  0  0  0  0  0  0
    5.2851  -12.8274   25.7206 C   0  0  0  0  0  0  0  0  0  0  0  0
    7.1206  -14.5276   25.6356 C   0  0  0  0  0  0  0  0  0  0  0  0
    8.4191  -14.9588   25.0378 C   0  0  2  0  0  0  0  0  0  0  0  0
    8.2648  -15.2587   23.6135 N   0  0  0  0  0  0  0  0  0  0  0  0
    8.9257  -16.1804   25.6973 C   0  0  0  0  0  0  0  0  0  0  0  0
    9.0770  -16.1935   26.9562 O   0  0  0  0  0  0  0  0  0  0  0  0
    9.2577  -17.3546   25.0104 O   0  0  0  0  0  0  0  0  0  0  0  0
  2  1  1  6
  3  2  1  0
  4  3  1  0
  5  6  1  0
  5  4  1  0
  6  7  1  0
  8  2  1  0
  8  9  2  0
 11 13  1  0
 11 10  1  1
 12 11  1  0
 13 14  1  1
 14  8  1  0
 15 13  1  0
 16 15  2  0
 18 17  1  1
 18 20  1  0
 19 18  1  0
 21 20  1  1
 21 23  1  0
 21 22  1  0
 22 15  1  0
 23 25  1  0
 24 23  2  0
M  END
$$$$
