KVL.pdb
     RDKit          3D

 25 24  0  0  1  0  0  0  0  0999 V2000
    7.8691  -16.8003   21.3190 N   0  0  0  0  0  0  0  0  0  0  0  0
    7.1304  -16.6155   22.5271 C   0  0  1  0  0  0  0  0  0  0  0  0
    6.7007  -17.8732   23.2153 C   0  0  0  0  0  0  0  0  0  0  0  0
    6.1880  -18.9486   22.3203 C   0  0  0  0  0  0  0  0  0  0  0  0
    5.6761  -20.1747   23.0090 C   0  0  0  0  0  0  0  0  0  0  0  0
    5.2693  -21.2504   22.0216 C   0  0  0  0  0  0  0  0  0  0  0  0
    4.7803  -22.3818   22.7816 N   0  0  0  0  0  0  0  0  0  0  0  0
    7.8057  -15.6987   23.4792 C   0  0  0  0  0  0  0  0  0  0  0  0
    9.0536  -15.7211   23.5210 O   0  0  0  0  0  0  0  0  0  0  0  0
    7.6746  -11.8827   26.6791 C   0  0  0  0  0  0  0  0  0  0  0  0
    6.9216  -12.8400   25.7935 C   0  0  2  0  0  0  0  0  0  0  0  0
    5.7256  -13.4414   26.4842 C   0  0  0  0  0  0  0  0  0  0  0  0
    7.8424  -13.9176   25.2342 C   0  0  2  0  0  0  0  0  0  0  0  0
    7.1229  -14.8034   24.3402 N   0  0  0  0  0  0  0  0  0  0  0  0
    8.4318  -14.6793   26.3644 C   0  0  0  0  0  0  0  0  0  0  0  0
    7.7364  -15.5783   26.8969 O   0  0  0  0  0  0  0  0  0  0  0  0
   11.6230  -17.4617   26.0487 C   0  0  0  0  0  0  0  0  0  0  0  0
   12.0919  -15.9988   26.1257 C   0  0  2  0  0  0  0  0  0  0  0  0
   13.5379  -15.9873   25.7576 C   0  0  0  0  0  0  0  0  0  0  0  0
   11.8068  -15.5367   27.5089 C   0  0  0  0  0  0  0  0  0  0  0  0
   10.3677  -15.3231   27.8450 C   0  0  2  0  0  0  0  0  0  0  0  0
    9.7273  -14.4436   26.8658 N   0  0  0  0  0  0  0  0  0  0  0  0
   10.2225  -14.6909   29.1728 C   0  0  0  0  0  0  0  0  0  0  0  0
   10.6112  -15.3134   30.2068 O   0  0  0  0  0  0  0  0  0  0  0  0
    9.6720  -13.4190   29.3728 O   0  0  0  0  0  0  0  0  0  0  0  0
  2  1  1  6
  3  2  1  0
  4  3  1  0
  5  6  1  0
  5  4  1  0
  6  7  1  0
  8  2  1  0
  8  9  2  0
 11 13  1  0
 11 10  1  1
 12 11  1  0
 13 14  1  6
 14  8  1  0
 15 13  1  0
 16 15  2  0
 18 17  1  1
 18 20  1  0
 19 18  1  0
 21 20  1  6
 21 23  1  0
 21 22  1  0
 22 15  1  0
 23 25  1  0
 24 23  2  0
M  END
$$$$
