KVL.pdb
     RDKit          3D

 25 24  0  0  1  0  0  0  0  0999 V2000
    9.0961  -19.0390   19.5449 N   0  0  0  0  0  0  0  0  0  0  0  0
    8.4362  -18.4079   20.6428 C   0  0  1  0  0  0  0  0  0  0  0  0
    8.4388  -19.1819   21.9239 C   0  0  0  0  0  0  0  0  0  0  0  0
    8.3993  -20.6640   21.7754 C   0  0  0  0  0  0  0  0  0  0  0  0
    8.3831  -21.4424   23.0536 C   0  0  0  0  0  0  0  0  0  0  0  0
    8.3429  -22.9372   22.8055 C   0  0  0  0  0  0  0  0  0  0  0  0
    8.3711  -23.5970   24.0941 N   0  0  0  0  0  0  0  0  0  0  0  0
    8.8985  -17.0155   20.8680 C   0  0  0  0  0  0  0  0  0  0  0  0
   10.1254  -16.7929   20.8008 O   0  0  0  0  0  0  0  0  0  0  0  0
    8.1638  -12.1523   20.9697 C   0  0  0  0  0  0  0  0  0  0  0  0
    7.6585  -13.5470   20.7105 C   0  0  2  0  0  0  0  0  0  0  0  0
    6.2174  -13.7197   21.1136 C   0  0  0  0  0  0  0  0  0  0  0  0
    8.5509  -14.5907   21.3712 C   0  0  2  0  0  0  0  0  0  0  0  0
    8.0354  -15.9280   21.1536 N   0  0  0  0  0  0  0  0  0  0  0  0
    8.6425  -14.2941   22.8232 C   0  0  0  0  0  0  0  0  0  0  0  0
    8.7610  -13.0951   23.1747 O   0  0  0  0  0  0  0  0  0  0  0  0
    7.9938  -12.1477   26.1175 C   0  0  0  0  0  0  0  0  0  0  0  0
    7.0786  -13.1989   25.4668 C   0  0  2  0  0  0  0  0  0  0  0  0
    5.6868  -12.8965   25.9116 C   0  0  0  0  0  0  0  0  0  0  0  0
    7.5868  -14.5264   25.8996 C   0  0  0  0  0  0  0  0  0  0  0  0
    8.8388  -14.9971   25.2361 C   0  0  2  0  0  0  0  0  0  0  0  0
    8.6030  -15.2881   23.8211 N   0  0  0  0  0  0  0  0  0  0  0  0
    9.3391  -16.2360   25.8677 C   0  0  0  0  0  0  0  0  0  0  0  0
    9.6831  -16.2199   27.0880 O   0  0  0  0  0  0  0  0  0  0  0  0
    9.4616  -17.4576   25.1944 O   0  0  0  0  0  0  0  0  0  0  0  0
  2  1  1  6
  3  2  1  0
  4  3  1  0
  5  6  1  0
  5  4  1  0
  6  7  1  0
  8  2  1  0
  8  9  2  0
 11 13  1  0
 11 10  1  1
 12 11  1  0
 13 14  1  1
 14  8  1  0
 15 13  1  0
 16 15  2  0
 18 17  1  1
 18 20  1  0
 19 18  1  0
 21 20  1  1
 21 23  1  0
 21 22  1  0
 22 15  1  0
 23 25  1  0
 24 23  2  0
M  END
$$$$
