KVL.pdb
     RDKit          3D

 25 24  0  0  1  0  0  0  0  0999 V2000
    7.2788  -18.9794   20.5687 N   0  0  0  0  0  0  0  0  0  0  0  0
    8.3616  -18.8041   21.4829 C   0  0  1  0  0  0  0  0  0  0  0  0
    9.5106  -19.7467   21.3051 C   0  0  0  0  0  0  0  0  0  0  0  0
    9.1390  -21.1690   21.0624 C   0  0  0  0  0  0  0  0  0  0  0  0
   10.2780  -22.1394   21.0306 C   0  0  0  0  0  0  0  0  0  0  0  0
    9.8267  -23.5290   20.6270 C   0  0  0  0  0  0  0  0  0  0  0  0
   10.9958  -24.3830   20.6111 N   0  0  0  0  0  0  0  0  0  0  0  0
    8.8379  -17.3998   21.5475 C   0  0  0  0  0  0  0  0  0  0  0  0
   10.0713  -17.2049   21.5614 O   0  0  0  0  0  0  0  0  0  0  0  0
    6.9701  -14.3002   19.7307 C   0  0  0  0  0  0  0  0  0  0  0  0
    7.4703  -13.9256   21.1008 C   0  0  2  0  0  0  0  0  0  0  0  0
    7.9898  -12.5127   21.1559 C   0  0  0  0  0  0  0  0  0  0  0  0
    8.5091  -14.9213   21.6022 C   0  0  2  0  0  0  0  0  0  0  0  0
    7.9812  -16.2715   21.5942 N   0  0  0  0  0  0  0  0  0  0  0  0
    8.9269  -14.5301   22.9723 C   0  0  0  0  0  0  0  0  0  0  0  0
    9.9675  -13.8397   23.0977 O   0  0  0  0  0  0  0  0  0  0  0  0
    7.8238  -11.4384   25.7942 C   0  0  0  0  0  0  0  0  0  0  0  0
    6.8130  -12.5625   25.5103 C   0  0  2  0  0  0  0  0  0  0  0  0
    5.5040  -12.1207   26.0740 C   0  0  0  0  0  0  0  0  0  0  0  0
    7.3654  -13.7936   26.1325 C   0  0  0  0  0  0  0  0  0  0  0  0
    8.5602  -14.3873   25.4622 C   0  0  2  0  0  0  0  0  0  0  0  0
    8.2158  -14.8942   24.1329 N   0  0  0  0  0  0  0  0  0  0  0  0
    9.0978  -15.5199   26.2446 C   0  0  0  0  0  0  0  0  0  0  0  0
    9.5106  -15.3219   27.4271 O   0  0  0  0  0  0  0  0  0  0  0  0
    9.1842  -16.8300   25.7580 O   0  0  0  0  0  0  0  0  0  0  0  0
  2  1  1  6
  3  2  1  0
  4  3  1  0
  5  6  1  0
  5  4  1  0
  6  7  1  0
  8  2  1  0
  8  9  2  0
 11 13  1  0
 11 10  1  6
 12 11  1  0
 13 14  1  1
 14  8  1  0
 15 13  1  0
 16 15  2  0
 18 17  1  1
 18 20  1  0
 19 18  1  0
 21 20  1  1
 21 23  1  0
 21 22  1  0
 22 15  1  0
 23 25  1  0
 24 23  2  0
M  END
$$$$
