KVL.pdb
     RDKit          3D

 25 24  0  0  1  0  0  0  0  0999 V2000
    7.3055  -18.5270   20.8546 N   0  0  0  0  0  0  0  0  0  0  0  0
    8.6113  -18.2140   20.3688 C   0  0  1  0  0  0  0  0  0  0  0  0
    8.8240  -18.4450   18.9053 C   0  0  0  0  0  0  0  0  0  0  0  0
    9.3283  -19.7982   18.5384 C   0  0  0  0  0  0  0  0  0  0  0  0
    9.5560  -20.0299   17.0774 C   0  0  0  0  0  0  0  0  0  0  0  0
    9.9683  -21.4597   16.7886 C   0  0  0  0  0  0  0  0  0  0  0  0
   10.3764  -21.5272   15.4010 N   0  0  0  0  0  0  0  0  0  0  0  0
    9.0583  -16.8530   20.7574 C   0  0  0  0  0  0  0  0  0  0  0  0
   10.2676  -16.5761   20.6145 O   0  0  0  0  0  0  0  0  0  0  0  0
    7.2657  -13.6017   19.7050 C   0  0  0  0  0  0  0  0  0  0  0  0
    7.6449  -13.4688   21.1562 C   0  0  2  0  0  0  0  0  0  0  0  0
    8.1044  -12.0771   21.5045 C   0  0  0  0  0  0  0  0  0  0  0  0
    8.6796  -14.5136   21.5559 C   0  0  2  0  0  0  0  0  0  0  0  0
    8.1995  -15.8531   21.2787 N   0  0  0  0  0  0  0  0  0  0  0  0
    8.9883  -14.3558   22.9997 C   0  0  0  0  0  0  0  0  0  0  0  0
    9.7246  -13.4000   23.3451 O   0  0  0  0  0  0  0  0  0  0  0  0
    8.0502  -12.2217   26.4518 C   0  0  0  0  0  0  0  0  0  0  0  0
    7.0487  -13.1937   25.8054 C   0  0  2  0  0  0  0  0  0  0  0  0
    5.7031  -12.8599   26.3570 C   0  0  0  0  0  0  0  0  0  0  0  0
    7.5222  -14.5645   26.1292 C   0  0  0  0  0  0  0  0  0  0  0  0
    8.7574  -15.0154   25.4217 C   0  0  2  0  0  0  0  0  0  0  0  0
    8.4973  -15.2225   23.9963 N   0  0  0  0  0  0  0  0  0  0  0  0
    9.2470  -16.2953   25.9751 C   0  0  0  0  0  0  0  0  0  0  0  0
    9.4796  -16.3900   27.2180 O   0  0  0  0  0  0  0  0  0  0  0  0
    9.4767  -17.4399   25.2020 O   0  0  0  0  0  0  0  0  0  0  0  0
  2  1  1  6
  3  2  1  0
  4  3  1  0
  5  6  1  0
  5  4  1  0
  6  7  1  0
  8  2  1  0
  8  9  2  0
 11 13  1  0
 11 10  1  6
 12 11  1  0
 13 14  1  1
 14  8  1  0
 15 13  1  0
 16 15  2  0
 18 17  1  1
 18 20  1  0
 19 18  1  0
 21 20  1  1
 21 23  1  0
 21 22  1  0
 22 15  1  0
 23 25  1  0
 24 23  2  0
M  END
$$$$
