KVL.pdb
     RDKit          3D

 25 24  0  0  1  0  0  0  0  0999 V2000
   12.0388  -17.1574   19.4693 N   0  0  0  0  0  0  0  0  0  0  0  0
   10.7875  -17.4216   20.1046 C   0  0  1  0  0  0  0  0  0  0  0  0
   10.6827  -18.7486   20.7889 C   0  0  0  0  0  0  0  0  0  0  0  0
   10.6646  -19.9338   19.8859 C   0  0  0  0  0  0  0  0  0  0  0  0
   10.5573  -21.2633   20.5648 C   0  0  0  0  0  0  0  0  0  0  0  0
   10.5210  -22.4059   19.5695 C   0  0  0  0  0  0  0  0  0  0  0  0
   10.5359  -23.6435   20.3210 N   0  0  0  0  0  0  0  0  0  0  0  0
   10.3605  -16.3267   21.0112 C   0  0  0  0  0  0  0  0  0  0  0  0
   11.2514  -15.6829   21.6040 O   0  0  0  0  0  0  0  0  0  0  0  0
    6.2857  -15.0227   21.2896 C   0  0  0  0  0  0  0  0  0  0  0  0
    7.4531  -14.0883   21.4677 C   0  0  2  0  0  0  0  0  0  0  0  0
    7.8068  -13.3625   20.1961 C   0  0  0  0  0  0  0  0  0  0  0  0
    8.6599  -14.8149   22.0488 C   0  0  2  0  0  0  0  0  0  0  0  0
    9.0088  -15.9691   21.2439 N   0  0  0  0  0  0  0  0  0  0  0  0
    8.3497  -15.2225   23.4425 C   0  0  0  0  0  0  0  0  0  0  0  0
    8.5336  -16.4223   23.7617 O   0  0  0  0  0  0  0  0  0  0  0  0
    8.2775  -12.1424   27.1929 C   0  0  0  0  0  0  0  0  0  0  0  0
    7.0114  -12.3462   26.3436 C   0  0  2  0  0  0  0  0  0  0  0  0
    5.9793  -11.4069   26.8721 C   0  0  0  0  0  0  0  0  0  0  0  0
    6.6515  -13.7831   26.4610 C   0  0  0  0  0  0  0  0  0  0  0  0
    7.5765  -14.7470   25.7942 C   0  0  2  0  0  0  0  0  0  0  0  0
    7.8613  -14.3325   24.4196 N   0  0  0  0  0  0  0  0  0  0  0  0
    6.9814  -16.0985   25.7371 C   0  0  0  0  0  0  0  0  0  0  0  0
    6.2777  -16.4292   24.7355 O   0  0  0  0  0  0  0  0  0  0  0  0
    7.1461  -17.0639   26.7380 O   0  0  0  0  0  0  0  0  0  0  0  0
  2  1  1  1
  3  2  1  0
  4  3  1  0
  5  6  1  0
  5  4  1  0
  6  7  1  0
  8  2  1  0
  8  9  2  0
 11 13  1  0
 11 10  1  6
 12 11  1  0
 13 14  1  6
 14  8  1  0
 15 13  1  0
 16 15  2  0
 18 17  1  1
 18 20  1  0
 19 18  1  0
 21 20  1  6
 21 23  1  0
 21 22  1  0
 22 15  1  0
 23 25  1  0
 24 23  2  0
M  END
$$$$
