KVL.pdb
     RDKit          3D

 25 24  0  0  1  0  0  0  0  0999 V2000
    7.1638  -20.0196   21.6324 N   0  0  0  0  0  0  0  0  0  0  0  0
    6.7912  -18.9583   22.5123 C   0  0  1  0  0  0  0  0  0  0  0  0
    6.7353  -19.3180   23.9640 C   0  0  0  0  0  0  0  0  0  0  0  0
    7.0938  -20.7276   24.2877 C   0  0  0  0  0  0  0  0  0  0  0  0
    6.9886  -21.1072   25.7315 C   0  0  0  0  0  0  0  0  0  0  0  0
    7.2940  -22.5751   25.9546 C   0  0  0  0  0  0  0  0  0  0  0  0
    7.2557  -22.8196   27.3812 N   0  0  0  0  0  0  0  0  0  0  0  0
    7.5979  -17.7297   22.3050 C   0  0  0  0  0  0  0  0  0  0  0  0
    8.8179  -17.8677   22.0769 O   0  0  0  0  0  0  0  0  0  0  0  0
    6.3156  -14.6462   20.1559 C   0  0  0  0  0  0  0  0  0  0  0  0
    7.0282  -14.1603   21.3903 C   0  0  2  0  0  0  0  0  0  0  0  0
    7.8386  -12.9167   21.1334 C   0  0  0  0  0  0  0  0  0  0  0  0
    7.8797  -15.2627   22.0079 C   0  0  2  0  0  0  0  0  0  0  0  0
    7.0696  -16.4152   22.3502 N   0  0  0  0  0  0  0  0  0  0  0  0
    8.5613  -14.7249   23.2125 C   0  0  0  0  0  0  0  0  0  0  0  0
    8.9600  -13.5352   23.1837 O   0  0  0  0  0  0  0  0  0  0  0  0
    8.3547  -11.9604   26.2648 C   0  0  0  0  0  0  0  0  0  0  0  0
    7.3252  -12.9140   25.6351 C   0  0  2  0  0  0  0  0  0  0  0  0
    5.9745  -12.4020   26.0095 C   0  0  0  0  0  0  0  0  0  0  0  0
    7.6335  -14.2711   26.1560 C   0  0  0  0  0  0  0  0  0  0  0  0
    8.9243  -14.8694   25.7029 C   0  0  2  0  0  0  0  0  0  0  0  0
    8.7814  -15.4811   24.3809 N   0  0  0  0  0  0  0  0  0  0  0  0
    9.3747  -15.9242   26.6348 C   0  0  0  0  0  0  0  0  0  0  0  0
    9.0695  -17.1331   26.4043 O   0  0  0  0  0  0  0  0  0  0  0  0
   10.1354  -15.6743   27.7836 O   0  0  0  0  0  0  0  0  0  0  0  0
  2  1  1  6
  3  2  1  0
  4  3  1  0
  5  6  1  0
  5  4  1  0
  6  7  1  0
  8  2  1  0
  8  9  2  0
 11 13  1  0
 11 10  1  6
 12 11  1  0
 13 14  1  1
 14  8  1  0
 15 13  1  0
 16 15  2  0
 18 17  1  1
 18 20  1  0
 19 18  1  0
 21 20  1  1
 21 23  1  0
 21 22  1  0
 22 15  1  0
 23 25  1  0
 24 23  2  0
M  END
$$$$
