KVL.pdb
     RDKit          3D

 25 24  0  0  1  0  0  0  0  0999 V2000
    6.4467  -17.9609   20.7247 N   0  0  0  0  0  0  0  0  0  0  0  0
    7.8088  -18.0863   20.3148 C   0  0  1  0  0  0  0  0  0  0  0  0
    8.0153  -18.5687   18.9130 C   0  0  0  0  0  0  0  0  0  0  0  0
    7.2059  -19.7564   18.5199 C   0  0  0  0  0  0  0  0  0  0  0  0
    7.9704  -21.0305   18.3413 C   0  0  0  0  0  0  0  0  0  0  0  0
    7.0879  -22.1539   17.8347 C   0  0  0  0  0  0  0  0  0  0  0  0
    7.8761  -23.3685   17.8415 N   0  0  0  0  0  0  0  0  0  0  0  0
    8.6017  -16.8580   20.5710 C   0  0  0  0  0  0  0  0  0  0  0  0
    9.8307  -16.9044   20.3546 O   0  0  0  0  0  0  0  0  0  0  0  0
    7.0223  -12.8811   21.7432 C   0  0  0  0  0  0  0  0  0  0  0  0
    8.2237  -13.2005   20.8935 C   0  0  2  0  0  0  0  0  0  0  0  0
    7.8962  -13.2285   19.4234 C   0  0  0  0  0  0  0  0  0  0  0  0
    8.8894  -14.4961   21.3409 C   0  0  2  0  0  0  0  0  0  0  0  0
    8.0507  -15.6408   21.0443 N   0  0  0  0  0  0  0  0  0  0  0  0
    9.1687  -14.4144   22.7970 C   0  0  0  0  0  0  0  0  0  0  0  0
   10.1711  -13.7576   23.1700 O   0  0  0  0  0  0  0  0  0  0  0  0
    8.1977  -12.0501   26.2379 C   0  0  0  0  0  0  0  0  0  0  0  0
    7.0989  -12.9095   25.5899 C   0  0  2  0  0  0  0  0  0  0  0  0
    5.7965  -12.4393   26.1459 C   0  0  0  0  0  0  0  0  0  0  0  0
    7.4273  -14.3236   25.9072 C   0  0  0  0  0  0  0  0  0  0  0  0
    8.6195  -14.8917   25.2105 C   0  0  2  0  0  0  0  0  0  0  0  0
    8.3675  -15.0350   23.7758 N   0  0  0  0  0  0  0  0  0  0  0  0
    8.9534  -16.2306   25.7394 C   0  0  0  0  0  0  0  0  0  0  0  0
    9.1760  -16.3746   26.9794 O   0  0  0  0  0  0  0  0  0  0  0  0
    9.0425  -17.3806   24.9455 O   0  0  0  0  0  0  0  0  0  0  0  0
  2  1  1  6
  3  2  1  0
  4  3  1  0
  5  6  1  0
  5  4  1  0
  6  7  1  0
  8  2  1  0
  8  9  2  0
 11 13  1  0
 11 10  1  1
 12 11  1  0
 13 14  1  1
 14  8  1  0
 15 13  1  0
 16 15  2  0
 18 17  1  1
 18 20  1  0
 19 18  1  0
 21 20  1  1
 21 23  1  0
 21 22  1  0
 22 15  1  0
 23 25  1  0
 24 23  2  0
M  END
$$$$
