KVL.pdb
     RDKit          3D

 25 24  0  0  1  0  0  0  0  0999 V2000
   11.5072  -17.8809   19.0069 N   0  0  0  0  0  0  0  0  0  0  0  0
   10.5207  -18.1156   20.0124 C   0  0  1  0  0  0  0  0  0  0  0  0
   10.7637  -19.3079   20.8839 C   0  0  0  0  0  0  0  0  0  0  0  0
   10.9330  -20.6017   20.1646 C   0  0  0  0  0  0  0  0  0  0  0  0
   11.0525  -21.8146   21.0333 C   0  0  0  0  0  0  0  0  0  0  0  0
   11.3208  -23.0671   20.2229 C   0  0  0  0  0  0  0  0  0  0  0  0
   11.4306  -24.1744   21.1494 N   0  0  0  0  0  0  0  0  0  0  0  0
   10.2393  -16.9117   20.8337 C   0  0  0  0  0  0  0  0  0  0  0  0
   11.2055  -16.1880   21.1535 O   0  0  0  0  0  0  0  0  0  0  0  0
    7.1376  -14.3572   20.4590 C   0  0  0  0  0  0  0  0  0  0  0  0
    7.3449  -14.7837   21.8883 C   0  0  2  0  0  0  0  0  0  0  0  0
    7.0539  -13.6755   22.8662 C   0  0  0  0  0  0  0  0  0  0  0  0
    8.7403  -15.3592   22.0972 C   0  0  2  0  0  0  0  0  0  0  0  0
    8.9460  -16.5353   21.2751 N   0  0  0  0  0  0  0  0  0  0  0  0
    8.9137  -15.6879   23.5349 C   0  0  0  0  0  0  0  0  0  0  0  0
    8.4059  -16.7530   23.9625 O   0  0  0  0  0  0  0  0  0  0  0  0
    8.6482  -13.0669   28.8154 C   0  0  0  0  0  0  0  0  0  0  0  0
    9.4667  -14.2002   28.1738 C   0  0  2  0  0  0  0  0  0  0  0  0
   10.8489  -14.1035   28.7275 C   0  0  0  0  0  0  0  0  0  0  0  0
    9.3790  -14.0036   26.7035 C   0  0  0  0  0  0  0  0  0  0  0  0
    9.7407  -15.1828   25.8620 C   0  0  2  0  0  0  0  0  0  0  0  0
    9.6170  -14.8665   24.4382 N   0  0  0  0  0  0  0  0  0  0  0  0
    8.8484  -16.3270   26.1427 C   0  0  0  0  0  0  0  0  0  0  0  0
    7.6142  -16.2391   25.8654 O   0  0  0  0  0  0  0  0  0  0  0  0
    9.2832  -17.5323   26.7072 O   0  0  0  0  0  0  0  0  0  0  0  0
  2  1  1  1
  3  2  1  0
  4  3  1  0
  5  6  1  0
  5  4  1  0
  6  7  1  0
  8  2  1  0
  8  9  2  0
 11 13  1  0
 11 10  1  6
 12 11  1  0
 13 14  1  6
 14  8  1  0
 15 13  1  0
 16 15  2  0
 18 17  1  1
 18 20  1  0
 19 18  1  0
 21 20  1  1
 21 23  1  0
 21 22  1  0
 22 15  1  0
 23 25  1  0
 24 23  2  0
M  END
$$$$
