KVL.pdb
     RDKit          3D

 25 24  0  0  1  0  0  0  0  0999 V2000
   11.1629  -17.8872   18.6625 N   0  0  0  0  0  0  0  0  0  0  0  0
   10.4503  -18.1591   19.8698 C   0  0  1  0  0  0  0  0  0  0  0  0
   11.0621  -19.1986   20.7559 C   0  0  0  0  0  0  0  0  0  0  0  0
   11.1157  -20.5740   20.1853 C   0  0  0  0  0  0  0  0  0  0  0  0
   11.5980  -21.6425   21.1155 C   0  0  0  0  0  0  0  0  0  0  0  0
   13.0433  -22.0142   20.8500 C   0  0  0  0  0  0  0  0  0  0  0  0
   13.4304  -23.0029   21.8344 N   0  0  0  0  0  0  0  0  0  0  0  0
   10.1347  -16.9302   20.6401 C   0  0  0  0  0  0  0  0  0  0  0  0
   11.0294  -16.0655   20.7463 O   0  0  0  0  0  0  0  0  0  0  0  0
    6.1606  -15.7481   21.6702 C   0  0  0  0  0  0  0  0  0  0  0  0
    7.3222  -14.8061   21.4939 C   0  0  2  0  0  0  0  0  0  0  0  0
    7.4373  -14.2945   20.0817 C   0  0  0  0  0  0  0  0  0  0  0  0
    8.6253  -15.4401   21.9649 C   0  0  2  0  0  0  0  0  0  0  0  0
    8.8847  -16.6799   21.2599 N   0  0  0  0  0  0  0  0  0  0  0  0
    8.5424  -15.6769   23.4284 C   0  0  0  0  0  0  0  0  0  0  0  0
    8.5240  -16.8644   23.8343 O   0  0  0  0  0  0  0  0  0  0  0  0
    6.8436  -12.5165   25.2264 C   0  0  0  0  0  0  0  0  0  0  0  0
    7.2250  -12.9058   26.6648 C   0  0  2  0  0  0  0  0  0  0  0  0
    7.2420  -11.6462   27.4646 C   0  0  0  0  0  0  0  0  0  0  0  0
    8.5374  -13.5975   26.5806 C   0  0  0  0  0  0  0  0  0  0  0  0
    8.5533  -14.8828   25.8209 C   0  0  2  0  0  0  0  0  0  0  0  0
    8.4837  -14.6388   24.3793 N   0  0  0  0  0  0  0  0  0  0  0  0
    7.3966  -15.7274   26.1854 C   0  0  0  0  0  0  0  0  0  0  0  0
    6.3472  -15.6899   25.4747 O   0  0  0  0  0  0  0  0  0  0  0  0
    7.3797  -16.5889   27.2892 O   0  0  0  0  0  0  0  0  0  0  0  0
  2  1  1  6
  3  2  1  0
  4  3  1  0
  5  6  1  0
  5  4  1  0
  6  7  1  0
  8  2  1  0
  8  9  2  0
 11 13  1  0
 11 10  1  6
 12 11  1  0
 13 14  1  6
 14  8  1  0
 15 13  1  0
 16 15  2  0
 18 17  1  6
 18 20  1  0
 19 18  1  0
 21 20  1  1
 21 23  1  0
 21 22  1  0
 22 15  1  0
 23 25  1  0
 24 23  2  0
M  END
$$$$
