KVL.pdb
     RDKit          3D

 25 24  0  0  1  0  0  0  0  0999 V2000
   10.4174  -18.0203   18.5151 N   0  0  0  0  0  0  0  0  0  0  0  0
    9.5431  -17.8776   19.6351 C   0  0  1  0  0  0  0  0  0  0  0  0
    9.6305  -18.9647   20.6601 C   0  0  0  0  0  0  0  0  0  0  0  0
   10.0134  -20.3066   20.1376 C   0  0  0  0  0  0  0  0  0  0  0  0
   10.0445  -21.4101   21.1482 C   0  0  0  0  0  0  0  0  0  0  0  0
   10.5438  -22.7107   20.5511 C   0  0  0  0  0  0  0  0  0  0  0  0
   10.5711  -23.6980   21.6098 N   0  0  0  0  0  0  0  0  0  0  0  0
    9.6416  -16.5418   20.2747 C   0  0  0  0  0  0  0  0  0  0  0  0
   10.7748  -16.0259   20.3705 O   0  0  0  0  0  0  0  0  0  0  0  0
    6.3078  -13.8645   21.1984 C   0  0  0  0  0  0  0  0  0  0  0  0
    7.7377  -13.5036   20.8939 C   0  0  2  0  0  0  0  0  0  0  0  0
    7.9697  -13.2672   19.4243 C   0  0  0  0  0  0  0  0  0  0  0  0
    8.7018  -14.5444   21.4499 C   0  0  2  0  0  0  0  0  0  0  0  0
    8.5322  -15.8195   20.7813 N   0  0  0  0  0  0  0  0  0  0  0  0
    8.4688  -14.6831   22.9098 C   0  0  0  0  0  0  0  0  0  0  0  0
    7.5714  -15.4728   23.2922 O   0  0  0  0  0  0  0  0  0  0  0  0
    5.9767  -13.4982   26.8961 C   0  0  0  0  0  0  0  0  0  0  0  0
    7.2241  -12.6017   26.8180 C   0  0  2  0  0  0  0  0  0  0  0  0
    6.7803  -11.2130   27.1361 C   0  0  0  0  0  0  0  0  0  0  0  0
    7.7800  -12.7705   25.4503 C   0  0  0  0  0  0  0  0  0  0  0  0
    8.7720  -13.8729   25.2775 C   0  0  2  0  0  0  0  0  0  0  0  0
    9.2024  -13.9750   23.8823 N   0  0  0  0  0  0  0  0  0  0  0  0
    8.1875  -15.1756   25.6592 C   0  0  0  0  0  0  0  0  0  0  0  0
    8.5475  -15.7283   26.7420 O   0  0  0  0  0  0  0  0  0  0  0  0
    7.2389  -15.8583   24.8881 O   0  0  0  0  0  0  0  0  0  0  0  0
  2  1  1  6
  3  2  1  0
  4  3  1  0
  5  6  1  0
  5  4  1  0
  6  7  1  0
  8  2  1  0
  8  9  2  0
 11 13  1  0
 11 10  1  6
 12 11  1  0
 13 14  1  6
 14  8  1  0
 15 13  1  0
 16 15  2  0
 18 17  1  6
 18 20  1  0
 19 18  1  0
 21 20  1  6
 21 23  1  0
 21 22  1  0
 22 15  1  0
 23 25  1  0
 24 23  2  0
M  END
$$$$
