KVL.pdb
     RDKit          3D

 25 24  0  0  1  0  0  0  0  0999 V2000
   12.7756  -17.2406   20.1735 N   0  0  0  0  0  0  0  0  0  0  0  0
   11.7193  -17.7098   21.0120 C   0  0  1  0  0  0  0  0  0  0  0  0
   12.1272  -18.6811   22.0752 C   0  0  0  0  0  0  0  0  0  0  0  0
   12.5314  -20.0300   21.5878 C   0  0  0  0  0  0  0  0  0  0  0  0
   12.0303  -21.1867   22.3944 C   0  0  0  0  0  0  0  0  0  0  0  0
   11.7338  -22.3947   21.5282 C   0  0  0  0  0  0  0  0  0  0  0  0
   11.3392  -23.4775   22.4048 N   0  0  0  0  0  0  0  0  0  0  0  0
   10.9102  -16.6072   21.5887 C   0  0  0  0  0  0  0  0  0  0  0  0
   11.5182  -15.6080   22.0261 O   0  0  0  0  0  0  0  0  0  0  0  0
    7.6870  -15.1269   19.9332 C   0  0  0  0  0  0  0  0  0  0  0  0
    7.4466  -15.3002   21.4096 C   0  0  2  0  0  0  0  0  0  0  0  0
    6.6179  -14.1847   21.9912 C   0  0  0  0  0  0  0  0  0  0  0  0
    8.7572  -15.4741   22.1672 C   0  0  2  0  0  0  0  0  0  0  0  0
    9.4953  -16.6197   21.6728 N   0  0  0  0  0  0  0  0  0  0  0  0
    8.4588  -15.6274   23.6137 C   0  0  0  0  0  0  0  0  0  0  0  0
    8.8099  -16.6913   24.1795 O   0  0  0  0  0  0  0  0  0  0  0  0
    6.0766  -11.4852   26.9739 C   0  0  0  0  0  0  0  0  0  0  0  0
    7.2028  -12.5113   26.7626 C   0  0  2  0  0  0  0  0  0  0  0  0
    8.1708  -11.9013   25.8048 C   0  0  0  0  0  0  0  0  0  0  0  0
    6.5539  -13.7547   26.2715 C   0  0  0  0  0  0  0  0  0  0  0  0
    7.4738  -14.8287   25.7923 C   0  0  2  0  0  0  0  0  0  0  0  0
    7.8041  -14.6418   24.3786 N   0  0  0  0  0  0  0  0  0  0  0  0
    6.8495  -16.1610   25.9308 C   0  0  0  0  0  0  0  0  0  0  0  0
    7.0146  -16.8198   27.0016 O   0  0  0  0  0  0  0  0  0  0  0  0
    6.0675  -16.7609   24.9361 O   0  0  0  0  0  0  0  0  0  0  0  0
  2  1  1  1
  3  2  1  0
  4  3  1  0
  5  6  1  0
  5  4  1  0
  6  7  1  0
  8  2  1  0
  8  9  2  0
 11 13  1  0
 11 10  1  6
 12 11  1  0
 13 14  1  6
 14  8  1  0
 15 13  1  0
 16 15  2  0
 18 17  1  6
 18 20  1  0
 19 18  1  0
 21 20  1  6
 21 23  1  0
 21 22  1  0
 22 15  1  0
 23 25  1  0
 24 23  2  0
M  END
$$$$
