WQN.pdb
     RDKit          3D

 32 33  0  0  1  0  0  0  0  0999 V2000
    6.5989  -17.4246   24.3644 N   0  0  0  0  0  0  0  0  0  0  0  0
    7.0479  -16.2481   23.6439 C   0  0  1  0  0  0  0  0  0  0  0  0
    8.1653  -15.6460   24.4758 C   0  0  0  0  0  0  0  0  0  0  0  0
    7.6194  -14.9074   25.6421 C   0  0  0  0  0  0  0  0  0  0  0  0
    7.0322  -15.4537   26.7890 C   0  0  0  0  0  0  0  0  0  0  0  0
    6.6577  -14.4751   27.6220 N   0  0  0  0  0  0  0  0  0  0  0  0
    6.9737  -13.2691   27.0744 C   0  0  0  0  0  0  0  0  0  0  0  0
    6.7925  -11.9869   27.5405 C   0  0  0  0  0  0  0  0  0  0  0  0
    7.2115  -10.9179   26.7752 C   0  0  0  0  0  0  0  0  0  0  0  0
    7.8027  -11.1915   25.5579 C   0  0  0  0  0  0  0  0  0  0  0  0
    7.9824  -12.4768   25.0946 C   0  0  0  0  0  0  0  0  0  0  0  0
    7.5673  -13.5404   25.8521 C   0  0  0  0  0  0  0  0  0  0  0  0
    7.5166  -16.6722   22.3152 C   0  0  0  0  0  0  0  0  0  0  0  0
    7.7498  -17.8865   22.0800 O   0  0  0  0  0  0  0  0  0  0  0  0
    7.9697  -14.2917   16.3248 N   0  0  0  0  0  0  0  0  0  0  0  0
    8.5254  -13.5287   17.3749 C   0  0  0  0  0  0  0  0  0  0  0  0
    9.1432  -12.4776   17.1125 O   0  0  0  0  0  0  0  0  0  0  0  0
    8.3656  -13.9903   18.7814 C   0  0  0  0  0  0  0  0  0  0  0  0
    7.6476  -15.3040   18.8511 C   0  0  0  0  0  0  0  0  0  0  0  0
    8.1596  -16.2118   19.9164 C   0  0  2  0  0  0  0  0  0  0  0  0
    7.7286  -15.7490   21.2421 N   0  0  0  0  0  0  0  0  0  0  0  0
    9.6290  -16.3257   20.0020 C   0  0  0  0  0  0  0  0  0  0  0  0
   10.2557  -16.9300   19.1020 O   0  0  0  0  0  0  0  0  0  0  0  0
   12.0307  -13.4607   18.8321 N   0  0  0  0  0  0  0  0  0  0  0  0
   12.7837  -14.4876   19.4797 C   0  0  0  0  0  0  0  0  0  0  0  0
   13.5638  -15.1499   18.7558 O   0  0  0  0  0  0  0  0  0  0  0  0
   12.5766  -14.6740   20.9287 C   0  0  0  0  0  0  0  0  0  0  0  0
   11.8483  -15.9491   21.1764 C   0  0  2  0  0  0  0  0  0  0  0  0
   10.4007  -15.7864   21.0558 N   0  0  0  0  0  0  0  0  0  0  0  0
   12.2289  -16.5272   22.4632 C   0  0  0  0  0  0  0  0  0  0  0  0
   11.2744  -16.7779   23.2784 O   0  0  0  0  0  0  0  0  0  0  0  0
   13.4847  -16.8341   22.9029 O   0  0  0  0  0  0  0  0  0  0  0  0
  2  1  1  1
  3  2  1  0
  4  3  1  0
  5  4  2  0
  6  7  1  0
  6  5  1  0
  7 12  2  0
  8  7  1  0
  8  9  2  0
  9 10  1  0
 10 11  2  0
 12  4  1  0
 12 11  1  0
 13  2  1  0
 14 13  2  0
 16 17  2  0
 16 15  1  0
 18 16  1  0
 19 18  1  0
 20 19  1  6
 20 21  1  0
 21 13  1  0
 22 20  1  0
 23 22  2  0
 25 27  1  0
 25 24  1  0
 26 25  2  0
 28 27  1  1
 28 30  1  0
 28 29  1  0
 29 22  1  0
 30 32  1  0
 31 30  2  0
M  END
$$$$
