WQN.pdb
     RDKit          3D

 32 33  0  0  1  0  0  0  0  0999 V2000
    6.9309  -16.7447   23.5667 N   0  0  0  0  0  0  0  0  0  0  0  0
    8.2668  -16.2136   23.7632 C   0  0  1  0  0  0  0  0  0  0  0  0
    8.4619  -16.1104   25.2647 C   0  0  0  0  0  0  0  0  0  0  0  0
    7.4218  -15.2458   25.8766 C   0  0  0  0  0  0  0  0  0  0  0  0
    6.1923  -15.6505   26.4088 C   0  0  0  0  0  0  0  0  0  0  0  0
    5.5207  -14.5880   26.8690 N   0  0  0  0  0  0  0  0  0  0  0  0
    6.2599  -13.4626   26.6655 C   0  0  0  0  0  0  0  0  0  0  0  0
    6.0028  -12.1436   26.9627 C   0  0  0  0  0  0  0  0  0  0  0  0
    6.9370  -11.1789   26.6457 C   0  0  0  0  0  0  0  0  0  0  0  0
    8.1048  -11.5911   26.0352 C   0  0  0  0  0  0  0  0  0  0  0  0
    8.3585  -12.9129   25.7392 C   0  0  0  0  0  0  0  0  0  0  0  0
    7.4329  -13.8731   26.0526 C   0  0  0  0  0  0  0  0  0  0  0  0
    9.2271  -17.1410   23.1447 C   0  0  0  0  0  0  0  0  0  0  0  0
    8.8266  -18.0522   22.3744 O   0  0  0  0  0  0  0  0  0  0  0  0
   13.2207  -16.6798   19.1037 N   0  0  0  0  0  0  0  0  0  0  0  0
   12.6839  -15.5889   19.8216 C   0  0  0  0  0  0  0  0  0  0  0  0
   13.0400  -14.4284   19.5359 O   0  0  0  0  0  0  0  0  0  0  0  0
   11.6996  -15.8401   20.9102 C   0  0  0  0  0  0  0  0  0  0  0  0
   11.4508  -17.3059   21.0996 C   0  0  0  0  0  0  0  0  0  0  0  0
   11.5924  -17.7610   22.5117 C   0  0  2  0  0  0  0  0  0  0  0  0
   10.6368  -17.0602   23.3795 N   0  0  0  0  0  0  0  0  0  0  0  0
   12.9160  -17.5310   23.1237 C   0  0  0  0  0  0  0  0  0  0  0  0
   13.9453  -17.9492   22.5461 O   0  0  0  0  0  0  0  0  0  0  0  0
   15.9718  -15.6333   24.0046 N   0  0  0  0  0  0  0  0  0  0  0  0
   15.9389  -16.7587   24.8840 C   0  0  0  0  0  0  0  0  0  0  0  0
   16.7687  -17.6703   24.6568 O   0  0  0  0  0  0  0  0  0  0  0  0
   14.9401  -16.7462   25.9700 C   0  0  0  0  0  0  0  0  0  0  0  0
   13.7095  -17.4629   25.5346 C   0  0  2  0  0  0  0  0  0  0  0  0
   13.1104  -16.8536   24.3486 N   0  0  0  0  0  0  0  0  0  0  0  0
   12.7537  -17.5761   26.6339 C   0  0  0  0  0  0  0  0  0  0  0  0
   13.1824  -18.1303   27.7052 O   0  0  0  0  0  0  0  0  0  0  0  0
   11.4534  -17.1599   26.6571 O   0  0  0  0  0  0  0  0  0  0  0  0
  2  1  1  1
  3  2  1  0
  4  3  1  0
  5  4  2  0
  6  7  1  0
  6  5  1  0
  7 12  2  0
  8  7  1  0
  8  9  2  0
  9 10  1  0
 10 11  2  0
 12  4  1  0
 12 11  1  0
 13  2  1  0
 14 13  2  0
 16 17  2  0
 16 15  1  0
 18 16  1  0
 19 18  1  0
 20 19  1  6
 20 21  1  0
 21 13  1  0
 22 20  1  0
 23 22  2  0
 25 27  1  0
 25 24  1  0
 26 25  2  0
 28 27  1  1
 28 30  1  0
 28 29  1  0
 29 22  1  0
 30 32  1  0
 31 30  2  0
M  END
$$$$
