WQN.pdb
     RDKit          3D

 32 33  0  0  1  0  0  0  0  0999 V2000
    6.1170  -17.9988   24.0908 N   0  0  0  0  0  0  0  0  0  0  0  0
    6.4794  -16.6000   23.9592 C   0  0  1  0  0  0  0  0  0  0  0  0
    7.2777  -16.2533   25.2024 C   0  0  0  0  0  0  0  0  0  0  0  0
    6.6504  -15.1273   25.9388 C   0  0  0  0  0  0  0  0  0  0  0  0
    5.3980  -15.1192   26.5634 C   0  0  0  0  0  0  0  0  0  0  0  0
    5.1734  -13.9243   27.1233 N   0  0  0  0  0  0  0  0  0  0  0  0
    6.2421  -13.1109   26.8979 C   0  0  0  0  0  0  0  0  0  0  0  0
    6.4827  -11.8074   27.2683 C   0  0  0  0  0  0  0  0  0  0  0  0
    7.6695  -11.2040   26.9061 C   0  0  0  0  0  0  0  0  0  0  0  0
    8.5739  -11.9504   26.1773 C   0  0  0  0  0  0  0  0  0  0  0  0
    8.3293  -13.2555   25.8084 C   0  0  0  0  0  0  0  0  0  0  0  0
    7.1518  -13.8575   26.1663 C   0  0  0  0  0  0  0  0  0  0  0  0
    7.2749  -16.4436   22.7314 C   0  0  0  0  0  0  0  0  0  0  0  0
    7.6445  -17.4544   22.0790 O   0  0  0  0  0  0  0  0  0  0  0  0
    6.6730  -13.2643   17.7824 N   0  0  0  0  0  0  0  0  0  0  0  0
    7.9798  -13.7808   17.9210 C   0  0  0  0  0  0  0  0  0  0  0  0
    8.4237  -14.5712   17.0645 O   0  0  0  0  0  0  0  0  0  0  0  0
    8.8095  -13.3740   19.0884 C   0  0  0  0  0  0  0  0  0  0  0  0
    8.1007  -13.6313   20.3836 C   0  0  0  0  0  0  0  0  0  0  0  0
    8.2582  -15.0252   20.8871 C   0  0  2  0  0  0  0  0  0  0  0  0
    7.6637  -15.1631   22.2231 N   0  0  0  0  0  0  0  0  0  0  0  0
    9.6501  -15.4958   21.0295 C   0  0  0  0  0  0  0  0  0  0  0  0
   10.4023  -15.5133   20.0285 O   0  0  0  0  0  0  0  0  0  0  0  0
   14.1106  -17.2010   22.4321 N   0  0  0  0  0  0  0  0  0  0  0  0
   13.9386  -15.8391   22.0366 C   0  0  0  0  0  0  0  0  0  0  0  0
   14.9817  -15.2010   21.7606 O   0  0  0  0  0  0  0  0  0  0  0  0
   12.5614  -15.3117   21.9893 C   0  0  0  0  0  0  0  0  0  0  0  0
   11.5991  -16.3707   22.4017 C   0  0  2  0  0  0  0  0  0  0  0  0
   10.2106  -15.9403   22.2483 N   0  0  0  0  0  0  0  0  0  0  0  0
   11.8817  -16.8345   23.7581 C   0  0  0  0  0  0  0  0  0  0  0  0
   10.9748  -16.6150   24.6345 O   0  0  0  0  0  0  0  0  0  0  0  0
   13.0004  -17.4769   24.2057 O   0  0  0  0  0  0  0  0  0  0  0  0
  2  1  1  1
  3  2  1  0
  4  3  1  0
  5  4  2  0
  6  7  1  0
  6  5  1  0
  7 12  2  0
  8  7  1  0
  8  9  2  0
  9 10  1  0
 10 11  2  0
 12  4  1  0
 12 11  1  0
 13  2  1  0
 14 13  2  0
 16 17  2  0
 16 15  1  0
 18 16  1  0
 19 18  1  0
 20 19  1  1
 20 21  1  0
 21 13  1  0
 22 20  1  0
 23 22  2  0
 25 27  1  0
 25 24  1  0
 26 25  2  0
 28 27  1  1
 28 30  1  0
 28 29  1  0
 29 22  1  0
 30 32  1  0
 31 30  2  0
M  END
$$$$
