WQN.pdb
     RDKit          3D

 32 33  0  0  1  0  0  0  0  0999 V2000
    5.4707  -17.6053   24.8378 N   0  0  0  0  0  0  0  0  0  0  0  0
    6.5294  -16.6225   24.7028 C   0  0  1  0  0  0  0  0  0  0  0  0
    7.4932  -16.8824   25.8459 C   0  0  0  0  0  0  0  0  0  0  0  0
    7.9870  -15.6073   26.4239 C   0  0  0  0  0  0  0  0  0  0  0  0
    9.1864  -15.4011   27.1149 C   0  0  0  0  0  0  0  0  0  0  0  0
    9.2859  -14.1190   27.4868 N   0  0  0  0  0  0  0  0  0  0  0  0
    8.1828  -13.4394   27.0676 C   0  0  0  0  0  0  0  0  0  0  0  0
    7.8263  -12.1173   27.2056 C   0  0  0  0  0  0  0  0  0  0  0  0
    6.6308  -11.6751   26.6774 C   0  0  0  0  0  0  0  0  0  0  0  0
    5.8366  -12.5965   26.0246 C   0  0  0  0  0  0  0  0  0  0  0  0
    6.1970  -13.9197   25.8883 C   0  0  0  0  0  0  0  0  0  0  0  0
    7.3834  -14.3619   26.4118 C   0  0  0  0  0  0  0  0  0  0  0  0
    7.1674  -16.8094   23.3902 C   0  0  0  0  0  0  0  0  0  0  0  0
    7.1772  -17.9426   22.8427 O   0  0  0  0  0  0  0  0  0  0  0  0
    7.3179  -12.4776   18.9548 N   0  0  0  0  0  0  0  0  0  0  0  0
    8.0183  -13.5266   18.3203 C   0  0  0  0  0  0  0  0  0  0  0  0
    8.1650  -13.5087   17.0819 O   0  0  0  0  0  0  0  0  0  0  0  0
    8.5720  -14.6399   19.1394 C   0  0  0  0  0  0  0  0  0  0  0  0
    8.0536  -14.5993   20.5451 C   0  0  0  0  0  0  0  0  0  0  0  0
    8.1983  -15.8904   21.2754 C   0  0  2  0  0  0  0  0  0  0  0  0
    7.7974  -15.7380   22.6802 N   0  0  0  0  0  0  0  0  0  0  0  0
    9.5651  -16.4465   21.3182 C   0  0  0  0  0  0  0  0  0  0  0  0
   10.0842  -16.8922   20.2695 O   0  0  0  0  0  0  0  0  0  0  0  0
   12.9734  -14.2488   22.5819 N   0  0  0  0  0  0  0  0  0  0  0  0
   13.1253  -15.6183   22.2045 C   0  0  0  0  0  0  0  0  0  0  0  0
   13.6136  -15.8348   21.0706 O   0  0  0  0  0  0  0  0  0  0  0  0
   12.6976  -16.6443   23.1748 C   0  0  0  0  0  0  0  0  0  0  0  0
   11.5174  -17.3819   22.6448 C   0  0  2  0  0  0  0  0  0  0  0  0
   10.3518  -16.5135   22.4902 N   0  0  0  0  0  0  0  0  0  0  0  0
   11.2217  -18.5540   23.4655 C   0  0  0  0  0  0  0  0  0  0  0  0
   12.1654  -19.4089   23.5968 O   0  0  0  0  0  0  0  0  0  0  0  0
   10.0560  -18.8487   24.1125 O   0  0  0  0  0  0  0  0  0  0  0  0
  2  1  1  1
  3  2  1  0
  4  3  1  0
  5  4  2  0
  6  7  1  0
  6  5  1  0
  7 12  2  0
  8  7  1  0
  8  9  2  0
  9 10  1  0
 10 11  2  0
 12  4  1  0
 12 11  1  0
 13  2  1  0
 14 13  2  0
 16 17  2  0
 16 15  1  0
 18 16  1  0
 19 18  1  0
 20 19  1  1
 20 21  1  0
 21 13  1  0
 22 20  1  0
 23 22  2  0
 25 27  1  0
 25 24  1  0
 26 25  2  0
 28 27  1  1
 28 30  1  0
 28 29  1  0
 29 22  1  0
 30 32  1  0
 31 30  2  0
M  END
$$$$
