WQN.pdb
     RDKit          3D

 32 33  0  0  1  0  0  0  0  0999 V2000
    9.3965  -15.3816   22.2129 N   0  0  0  0  0  0  0  0  0  0  0  0
    9.2709  -15.9362   23.5477 C   0  0  1  0  0  0  0  0  0  0  0  0
    7.7897  -15.9091   23.8770 C   0  0  0  0  0  0  0  0  0  0  0  0
    7.2703  -14.5184   23.8714 C   0  0  0  0  0  0  0  0  0  0  0  0
    6.5976  -13.8716   22.8284 C   0  0  0  0  0  0  0  0  0  0  0  0
    6.2855  -12.6214   23.1908 N   0  0  0  0  0  0  0  0  0  0  0  0
    6.7280  -12.3938   24.4584 C   0  0  0  0  0  0  0  0  0  0  0  0
    6.6472  -11.2777   25.2596 C   0  0  0  0  0  0  0  0  0  0  0  0
    7.1861  -11.3099   26.5294 C   0  0  0  0  0  0  0  0  0  0  0  0
    7.7905  -12.4808   26.9417 C   0  0  0  0  0  0  0  0  0  0  0  0
    7.8694  -13.5964   26.1364 C   0  0  0  0  0  0  0  0  0  0  0  0
    7.3354  -13.5675   24.8750 C   0  0  0  0  0  0  0  0  0  0  0  0
    9.8070  -17.3063   23.5300 C   0  0  0  0  0  0  0  0  0  0  0  0
    9.0744  -18.2807   23.8428 O   0  0  0  0  0  0  0  0  0  0  0  0
   13.0544  -20.8789   19.2720 N   0  0  0  0  0  0  0  0  0  0  0  0
   13.7583  -20.7777   20.4918 C   0  0  0  0  0  0  0  0  0  0  0  0
   15.0039  -20.8394   20.4911 O   0  0  0  0  0  0  0  0  0  0  0  0
   13.0028  -20.5985   21.7622 C   0  0  0  0  0  0  0  0  0  0  0  0
   12.5175  -19.1892   21.9197 C   0  0  0  0  0  0  0  0  0  0  0  0
   11.6488  -18.9837   23.1131 C   0  0  2  0  0  0  0  0  0  0  0  0
   11.1596  -17.5997   23.1649 N   0  0  0  0  0  0  0  0  0  0  0  0
   12.2970  -19.2171   24.4187 C   0  0  0  0  0  0  0  0  0  0  0  0
   12.7988  -20.3368   24.6684 O   0  0  0  0  0  0  0  0  0  0  0  0
   15.8137  -16.7720   25.4270 N   0  0  0  0  0  0  0  0  0  0  0  0
   15.2276  -17.8762   26.1185 C   0  0  0  0  0  0  0  0  0  0  0  0
   15.7103  -19.0074   25.8762 O   0  0  0  0  0  0  0  0  0  0  0  0
   14.1174  -17.5877   27.0465 C   0  0  0  0  0  0  0  0  0  0  0  0
   12.9679  -18.4892   26.7568 C   0  0  2  0  0  0  0  0  0  0  0  0
   12.3950  -18.2403   25.4353 N   0  0  0  0  0  0  0  0  0  0  0  0
   11.9619  -18.4096   27.8134 C   0  0  0  0  0  0  0  0  0  0  0  0
   10.7690  -18.1298   27.4427 O   0  0  0  0  0  0  0  0  0  0  0  0
   12.1407  -18.5991   29.1537 O   0  0  0  0  0  0  0  0  0  0  0  0
  2  1  1  6
  3  2  1  0
  4  3  1  0
  5  4  2  0
  6  7  1  0
  6  5  1  0
  7 12  2  0
  8  7  1  0
  8  9  2  0
  9 10  1  0
 10 11  2  0
 12  4  1  0
 12 11  1  0
 13  2  1  0
 14 13  2  0
 16 17  2  0
 16 15  1  0
 18 16  1  0
 19 18  1  0
 20 19  1  6
 20 21  1  0
 21 13  1  0
 22 20  1  0
 23 22  2  0
 25 27  1  0
 25 24  1  0
 26 25  2  0
 28 27  1  1
 28 30  1  0
 28 29  1  0
 29 22  1  0
 30 32  1  0
 31 30  2  0
M  END
$$$$
