WQN.pdb
     RDKit          3D

 32 33  0  0  1  0  0  0  0  0999 V2000
    8.7063  -16.3524   24.6988 N   0  0  0  0  0  0  0  0  0  0  0  0
    7.3621  -16.5337   24.1836 C   0  0  1  0  0  0  0  0  0  0  0  0
    6.5351  -15.3973   24.7560 C   0  0  0  0  0  0  0  0  0  0  0  0
    7.3577  -14.5371   25.6432 C   0  0  0  0  0  0  0  0  0  0  0  0
    8.4550  -14.9279   26.4190 C   0  0  0  0  0  0  0  0  0  0  0  0
    8.9397  -13.8756   27.0894 N   0  0  0  0  0  0  0  0  0  0  0  0
    8.2011  -12.7707   26.7926 C   0  0  0  0  0  0  0  0  0  0  0  0
    8.3057  -11.4681   27.2243 C   0  0  0  0  0  0  0  0  0  0  0  0
    7.4137  -10.5229   26.7610 C   0  0  0  0  0  0  0  0  0  0  0  0
    6.4428  -10.9371   25.8711 C   0  0  0  0  0  0  0  0  0  0  0  0
    6.3413  -12.2424   25.4411 C   0  0  0  0  0  0  0  0  0  0  0  0
    7.2254  -13.1834   25.8994 C   0  0  0  0  0  0  0  0  0  0  0  0
    7.4214  -16.4869   22.7142 C   0  0  0  0  0  0  0  0  0  0  0  0
    6.3656  -16.3806   22.0374 O   0  0  0  0  0  0  0  0  0  0  0  0
    6.2753  -13.3933   19.0299 N   0  0  0  0  0  0  0  0  0  0  0  0
    7.6303  -13.0875   19.2831 C   0  0  0  0  0  0  0  0  0  0  0  0
    8.0526  -11.9344   19.0655 O   0  0  0  0  0  0  0  0  0  0  0  0
    8.5361  -14.1470   19.8066 C   0  0  0  0  0  0  0  0  0  0  0  0
    7.8119  -15.4453   19.9970 C   0  0  0  0  0  0  0  0  0  0  0  0
    8.6742  -16.5419   20.5216 C   0  0  2  0  0  0  0  0  0  0  0  0
    8.6542  -16.5584   21.9902 N   0  0  0  0  0  0  0  0  0  0  0  0
   10.1011  -16.4602   20.1521 C   0  0  0  0  0  0  0  0  0  0  0  0
   10.4363  -16.5751   18.9511 O   0  0  0  0  0  0  0  0  0  0  0  0
   14.5531  -14.2206   19.0766 N   0  0  0  0  0  0  0  0  0  0  0  0
   14.3204  -14.3798   20.4771 C   0  0  0  0  0  0  0  0  0  0  0  0
   15.3284  -14.3297   21.2206 O   0  0  0  0  0  0  0  0  0  0  0  0
   12.9275  -14.5871   20.9175 C   0  0  0  0  0  0  0  0  0  0  0  0
   12.5368  -16.0089   20.7093 C   0  0  2  0  0  0  0  0  0  0  0  0
   11.1451  -16.2557   21.0823 N   0  0  0  0  0  0  0  0  0  0  0  0
   13.4565  -16.9103   21.3995 C   0  0  0  0  0  0  0  0  0  0  0  0
   13.1892  -17.1663   22.6250 O   0  0  0  0  0  0  0  0  0  0  0  0
   14.5708  -17.5157   20.8933 O   0  0  0  0  0  0  0  0  0  0  0  0
  2  1  1  1
  3  2  1  0
  4  3  1  0
  5  4  2  0
  6  7  1  0
  6  5  1  0
  7 12  2  0
  8  7  1  0
  8  9  2  0
  9 10  1  0
 10 11  2  0
 12  4  1  0
 12 11  1  0
 13  2  1  0
 14 13  2  0
 16 17  2  0
 16 15  1  0
 18 16  1  0
 19 18  1  0
 20 19  1  1
 20 21  1  0
 21 13  1  0
 22 20  1  0
 23 22  2  0
 25 27  1  0
 25 24  1  0
 26 25  2  0
 28 27  1  1
 28 30  1  0
 28 29  1  0
 29 22  1  0
 30 32  1  0
 31 30  2  0
M  END
$$$$
