WQN.pdb
     RDKit          3D

 32 33  0  0  1  0  0  0  0  0999 V2000
    7.0953  -17.3390   23.6723 N   0  0  0  0  0  0  0  0  0  0  0  0
    8.0516  -16.2629   23.4918 C   0  0  1  0  0  0  0  0  0  0  0  0
    8.4807  -15.8430   24.8856 C   0  0  0  0  0  0  0  0  0  0  0  0
    7.4322  -15.0189   25.5378 C   0  0  0  0  0  0  0  0  0  0  0  0
    6.3231  -15.4774   26.2578 C   0  0  0  0  0  0  0  0  0  0  0  0
    5.5998  -14.4392   26.6945 N   0  0  0  0  0  0  0  0  0  0  0  0
    6.1857  -13.2779   26.2913 C   0  0  0  0  0  0  0  0  0  0  0  0
    5.8254  -11.9646   26.4898 C   0  0  0  0  0  0  0  0  0  0  0  0
    6.6079  -10.9564   25.9654 C   0  0  0  0  0  0  0  0  0  0  0  0
    7.7342  -11.3206   25.2548 C   0  0  0  0  0  0  0  0  0  0  0  0
    8.0918  -12.6369   25.0582 C   0  0  0  0  0  0  0  0  0  0  0  0
    7.3168  -13.6403   25.5775 C   0  0  0  0  0  0  0  0  0  0  0  0
    9.1794  -16.7766   22.6988 C   0  0  0  0  0  0  0  0  0  0  0  0
    9.3165  -18.0140   22.5140 O   0  0  0  0  0  0  0  0  0  0  0  0
   12.1182  -13.9048   17.7286 N   0  0  0  0  0  0  0  0  0  0  0  0
   12.6933  -13.8504   19.0170 C   0  0  0  0  0  0  0  0  0  0  0  0
   13.8598  -13.4309   19.1536 O   0  0  0  0  0  0  0  0  0  0  0  0
   11.8981  -14.2949   20.1947 C   0  0  0  0  0  0  0  0  0  0  0  0
   11.3513  -15.6767   19.9996 C   0  0  0  0  0  0  0  0  0  0  0  0
   11.2328  -16.4589   21.2626 C   0  0  2  0  0  0  0  0  0  0  0  0
   10.1602  -15.9178   22.1077 N   0  0  0  0  0  0  0  0  0  0  0  0
   12.4355  -16.4698   22.1185 C   0  0  0  0  0  0  0  0  0  0  0  0
   13.5449  -16.7709   21.6221 O   0  0  0  0  0  0  0  0  0  0  0  0
   12.2768  -18.7774   27.2663 N   0  0  0  0  0  0  0  0  0  0  0  0
   12.4268  -19.0388   25.8698 C   0  0  0  0  0  0  0  0  0  0  0  0
   13.0364  -20.0893   25.5600 O   0  0  0  0  0  0  0  0  0  0  0  0
   11.8558  -18.0575   24.9274 C   0  0  0  0  0  0  0  0  0  0  0  0
   12.8930  -17.0594   24.5454 C   0  0  2  0  0  0  0  0  0  0  0  0
   12.4246  -16.1557   23.4963 N   0  0  0  0  0  0  0  0  0  0  0  0
   14.1445  -17.7195   24.1807 C   0  0  0  0  0  0  0  0  0  0  0  0
   14.1508  -18.3507   23.0671 O   0  0  0  0  0  0  0  0  0  0  0  0
   15.3131  -17.7439   24.8866 O   0  0  0  0  0  0  0  0  0  0  0  0
  2  1  1  1
  3  2  1  0
  4  3  1  0
  5  4  2  0
  6  7  1  0
  6  5  1  0
  7 12  2  0
  8  7  1  0
  8  9  2  0
  9 10  1  0
 10 11  2  0
 12  4  1  0
 12 11  1  0
 13  2  1  0
 14 13  2  0
 16 17  2  0
 16 15  1  0
 18 16  1  0
 19 18  1  0
 20 19  1  6
 20 21  1  0
 21 13  1  0
 22 20  1  0
 23 22  2  0
 25 27  1  0
 25 24  1  0
 26 25  2  0
 28 27  1  6
 28 30  1  0
 28 29  1  0
 29 22  1  0
 30 32  1  0
 31 30  2  0
M  END
$$$$
