WQN.pdb
     RDKit          3D

 32 33  0  0  1  0  0  0  0  0999 V2000
    6.0712  -17.6627   24.2170 N   0  0  0  0  0  0  0  0  0  0  0  0
    6.7803  -16.5460   23.6211 C   0  0  1  0  0  0  0  0  0  0  0  0
    7.7927  -16.0901   24.6556 C   0  0  0  0  0  0  0  0  0  0  0  0
    7.1760  -15.1466   25.6217 C   0  0  0  0  0  0  0  0  0  0  0  0
    6.1990  -15.4372   26.5806 C   0  0  0  0  0  0  0  0  0  0  0  0
    5.8875  -14.3309   27.2667 N   0  0  0  0  0  0  0  0  0  0  0  0
    6.6276  -13.2866   26.8017 C   0  0  0  0  0  0  0  0  0  0  0  0
    6.6665  -11.9640   27.1802 C   0  0  0  0  0  0  0  0  0  0  0  0
    7.5228  -11.0954   26.5351 C   0  0  0  0  0  0  0  0  0  0  0  0
    8.3129  -11.6044   25.5238 C   0  0  0  0  0  0  0  0  0  0  0  0
    8.2711  -12.9295   25.1476 C   0  0  0  0  0  0  0  0  0  0  0  0
    7.4218  -13.7945   25.7861 C   0  0  0  0  0  0  0  0  0  0  0  0
    7.4272  -17.0167   22.3863 C   0  0  0  0  0  0  0  0  0  0  0  0
    7.6291  -18.2452   22.2018 O   0  0  0  0  0  0  0  0  0  0  0  0
    8.1232  -14.1222   16.6362 N   0  0  0  0  0  0  0  0  0  0  0  0
    8.4823  -13.5370   17.8700 C   0  0  0  0  0  0  0  0  0  0  0  0
    8.4970  -12.2950   17.9816 O   0  0  0  0  0  0  0  0  0  0  0  0
    8.8384  -14.4120   19.0209 C   0  0  0  0  0  0  0  0  0  0  0  0
    8.1072  -15.7191   18.9653 C   0  0  0  0  0  0  0  0  0  0  0  0
    8.4259  -16.6336   20.0981 C   0  0  2  0  0  0  0  0  0  0  0  0
    7.8530  -16.1245   21.3511 N   0  0  0  0  0  0  0  0  0  0  0  0
    9.8632  -16.8242   20.3758 C   0  0  0  0  0  0  0  0  0  0  0  0
   10.6045  -17.3103   19.4915 O   0  0  0  0  0  0  0  0  0  0  0  0
   14.5543  -16.6843   21.5857 N   0  0  0  0  0  0  0  0  0  0  0  0
   14.0157  -15.6881   22.4565 C   0  0  0  0  0  0  0  0  0  0  0  0
   14.8406  -15.0402   23.1428 O   0  0  0  0  0  0  0  0  0  0  0  0
   12.5505  -15.5137   22.4692 C   0  0  0  0  0  0  0  0  0  0  0  0
   11.8918  -16.7216   21.8992 C   0  0  2  0  0  0  0  0  0  0  0  0
   10.4799  -16.4878   21.6020 N   0  0  0  0  0  0  0  0  0  0  0  0
   12.0837  -17.8807   22.7678 C   0  0  0  0  0  0  0  0  0  0  0  0
   11.1929  -18.0708   23.6673 O   0  0  0  0  0  0  0  0  0  0  0  0
   13.1020  -18.7898   22.7357 O   0  0  0  0  0  0  0  0  0  0  0  0
  2  1  1  1
  3  2  1  0
  4  3  1  0
  5  4  2  0
  6  7  1  0
  6  5  1  0
  7 12  2  0
  8  7  1  0
  8  9  2  0
  9 10  1  0
 10 11  2  0
 12  4  1  0
 12 11  1  0
 13  2  1  0
 14 13  2  0
 16 17  2  0
 16 15  1  0
 18 16  1  0
 19 18  1  0
 20 19  1  6
 20 21  1  0
 21 13  1  0
 22 20  1  0
 23 22  2  0
 25 27  1  0
 25 24  1  0
 26 25  2  0
 28 27  1  1
 28 30  1  0
 28 29  1  0
 29 22  1  0
 30 32  1  0
 31 30  2  0
M  END
$$$$
