WQN.pdb
     RDKit          3D

 32 33  0  0  1  0  0  0  0  0999 V2000
    6.1781  -18.3304   24.8590 N   0  0  0  0  0  0  0  0  0  0  0  0
    6.5524  -16.9667   24.5343 C   0  0  1  0  0  0  0  0  0  0  0  0
    7.3257  -16.4460   25.7318 C   0  0  0  0  0  0  0  0  0  0  0  0
    6.7266  -15.1880   26.2440 C   0  0  0  0  0  0  0  0  0  0  0  0
    5.5372  -15.0522   26.9688 C   0  0  0  0  0  0  0  0  0  0  0  0
    5.3201  -13.7627   27.2548 N   0  0  0  0  0  0  0  0  0  0  0  0
    6.3325  -13.0091   26.7434 C   0  0  0  0  0  0  0  0  0  0  0  0
    6.5570  -11.6516   26.7753 C   0  0  0  0  0  0  0  0  0  0  0  0
    7.6824  -11.1325   26.1687 C   0  0  0  0  0  0  0  0  0  0  0  0
    8.5436  -12.0156   25.5486 C   0  0  0  0  0  0  0  0  0  0  0  0
    8.3154  -13.3744   25.5188 C   0  0  0  0  0  0  0  0  0  0  0  0
    7.1988  -13.8929   26.1201 C   0  0  0  0  0  0  0  0  0  0  0  0
    7.3755  -16.9926   23.3150 C   0  0  0  0  0  0  0  0  0  0  0  0
    8.0527  -18.0133   23.0255 O   0  0  0  0  0  0  0  0  0  0  0  0
    7.3120  -12.8288   18.5058 N   0  0  0  0  0  0  0  0  0  0  0  0
    8.3356  -13.7154   18.1062 C   0  0  0  0  0  0  0  0  0  0  0  0
    8.8581  -13.5860   16.9812 O   0  0  0  0  0  0  0  0  0  0  0  0
    8.7768  -14.7928   19.0343 C   0  0  0  0  0  0  0  0  0  0  0  0
    7.9496  -14.8154   20.2840 C   0  0  0  0  0  0  0  0  0  0  0  0
    8.2698  -15.9506   21.1950 C   0  0  2  0  0  0  0  0  0  0  0  0
    7.4502  -15.8844   22.4121 N   0  0  0  0  0  0  0  0  0  0  0  0
    9.6667  -16.0107   21.6685 C   0  0  0  0  0  0  0  0  0  0  0  0
   10.0440  -15.2405   22.5808 O   0  0  0  0  0  0  0  0  0  0  0  0
   14.1036  -18.9962   23.4991 N   0  0  0  0  0  0  0  0  0  0  0  0
   13.7836  -18.6319   22.1553 C   0  0  0  0  0  0  0  0  0  0  0  0
   14.7515  -18.4404   21.3823 O   0  0  0  0  0  0  0  0  0  0  0  0
   12.3557  -18.5150   21.8023 C   0  0  0  0  0  0  0  0  0  0  0  0
   11.9694  -17.0790   21.7231 C   0  0  2  0  0  0  0  0  0  0  0  0
   10.6358  -16.9002   21.1520 N   0  0  0  0  0  0  0  0  0  0  0  0
   12.9800  -16.3045   21.0065 C   0  0  0  0  0  0  0  0  0  0  0  0
   14.0534  -16.0364   21.6506 O   0  0  0  0  0  0  0  0  0  0  0  0
   12.9182  -15.8306   19.7273 O   0  0  0  0  0  0  0  0  0  0  0  0
  2  1  1  1
  3  2  1  0
  4  3  1  0
  5  4  2  0
  6  7  1  0
  6  5  1  0
  7 12  2  0
  8  7  1  0
  8  9  2  0
  9 10  1  0
 10 11  2  0
 12  4  1  0
 12 11  1  0
 13  2  1  0
 14 13  2  0
 16 17  2  0
 16 15  1  0
 18 16  1  0
 19 18  1  0
 20 19  1  6
 20 21  1  0
 21 13  1  0
 22 20  1  0
 23 22  2  0
 25 27  1  0
 25 24  1  0
 26 25  2  0
 28 27  1  6
 28 30  1  0
 28 29  1  0
 29 22  1  0
 30 32  1  0
 31 30  2  0
M  END
$$$$
