WQN.pdb
     RDKit          3D

 32 33  0  0  1  0  0  0  0  0999 V2000
    6.2598  -17.0319   23.4493 N   0  0  0  0  0  0  0  0  0  0  0  0
    7.0153  -15.8156   23.2152 C   0  0  1  0  0  0  0  0  0  0  0  0
    8.0361  -15.7320   24.3351 C   0  0  0  0  0  0  0  0  0  0  0  0
    7.4880  -14.9900   25.4982 C   0  0  0  0  0  0  0  0  0  0  0  0
    6.7517  -15.5162   26.5658 C   0  0  0  0  0  0  0  0  0  0  0  0
    6.4277  -14.5409   27.4233 N   0  0  0  0  0  0  0  0  0  0  0  0
    6.9240  -13.3565   26.9700 C   0  0  0  0  0  0  0  0  0  0  0  0
    6.8558  -12.0856   27.4938 C   0  0  0  0  0  0  0  0  0  0  0  0
    7.4555  -11.0392   26.8236 C   0  0  0  0  0  0  0  0  0  0  0  0
    8.1063  -11.3230   25.6396 C   0  0  0  0  0  0  0  0  0  0  0  0
    8.1725  -12.5970   25.1183 C   0  0  0  0  0  0  0  0  0  0  0  0
    7.5779  -13.6382   25.7813 C   0  0  0  0  0  0  0  0  0  0  0  0
    7.6537  -15.9167   21.8935 C   0  0  0  0  0  0  0  0  0  0  0  0
    7.7728  -17.0346   21.3277 O   0  0  0  0  0  0  0  0  0  0  0  0
    6.6817  -14.0247   17.1257 N   0  0  0  0  0  0  0  0  0  0  0  0
    8.0409  -14.0701   16.7460 C   0  0  0  0  0  0  0  0  0  0  0  0
    8.3501  -14.4868   15.6120 O   0  0  0  0  0  0  0  0  0  0  0  0
    9.0862  -13.6193   17.7058 C   0  0  0  0  0  0  0  0  0  0  0  0
    8.5654  -13.5856   19.1108 C   0  0  0  0  0  0  0  0  0  0  0  0
    8.6707  -14.8916   19.8211 C   0  0  2  0  0  0  0  0  0  0  0  0
    8.1631  -14.7761   21.1945 N   0  0  0  0  0  0  0  0  0  0  0  0
   10.0373  -15.4337   19.9549 C   0  0  0  0  0  0  0  0  0  0  0  0
   10.5398  -16.0837   19.0100 O   0  0  0  0  0  0  0  0  0  0  0  0
   13.5232  -13.5623   18.9172 N   0  0  0  0  0  0  0  0  0  0  0  0
   13.6300  -14.8066   19.6109 C   0  0  0  0  0  0  0  0  0  0  0  0
   14.0427  -15.7846   18.9443 O   0  0  0  0  0  0  0  0  0  0  0  0
   13.2481  -14.8276   21.0360 C   0  0  0  0  0  0  0  0  0  0  0  0
   12.1779  -15.8390   21.2587 C   0  0  2  0  0  0  0  0  0  0  0  0
   10.8417  -15.2668   21.1048 N   0  0  0  0  0  0  0  0  0  0  0  0
   12.3446  -16.5005   22.5508 C   0  0  0  0  0  0  0  0  0  0  0  0
   13.4857  -17.0368   22.7720 O   0  0  0  0  0  0  0  0  0  0  0  0
   11.4268  -16.6159   23.5552 O   0  0  0  0  0  0  0  0  0  0  0  0
  2  1  1  1
  3  2  1  0
  4  3  1  0
  5  4  2  0
  6  7  1  0
  6  5  1  0
  7 12  2  0
  8  7  1  0
  8  9  2  0
  9 10  1  0
 10 11  2  0
 12  4  1  0
 12 11  1  0
 13  2  1  0
 14 13  2  0
 16 17  2  0
 16 15  1  0
 18 16  1  0
 19 18  1  0
 20 19  1  1
 20 21  1  0
 21 13  1  0
 22 20  1  0
 23 22  2  0
 25 27  1  0
 25 24  1  0
 26 25  2  0
 28 27  1  1
 28 30  1  0
 28 29  1  0
 29 22  1  0
 30 32  1  0
 31 30  2  0
M  END
$$$$
