LCF.pdb
     RDKit          3D

 26 26  0  0  1  0  0  0  0  0999 V2000
    7.2187  -11.8898   19.8153 C   0  0  0  0  0  0  0  0  0  0  0  0
    7.9361  -13.2052   19.7299 C   0  0  1  0  0  0  0  0  0  0  0  0
    9.4262  -13.0012   19.5616 C   0  0  0  0  0  0  0  0  0  0  0  0
    7.5655  -14.1934   20.7651 C   0  0  0  0  0  0  0  0  0  0  0  0
    8.1590  -15.5475   20.7000 C   0  0  2  0  0  0  0  0  0  0  0  0
    7.5808  -16.4404   19.7571 N   0  0  0  0  0  0  0  0  0  0  0  0
    8.2639  -16.2220   22.0118 C   0  0  0  0  0  0  0  0  0  0  0  0
    7.2377  -16.7880   22.4607 O   0  0  0  0  0  0  0  0  0  0  0  0
    9.4339  -16.2827   22.8089 N   0  0  0  0  0  0  0  0  0  0  0  0
    9.4569  -17.0416   24.0703 C   0  0  1  0  0  0  0  0  0  0  0  0
   10.2309  -18.3255   23.8737 C   0  0  0  0  0  0  0  0  0  0  0  0
   10.3563  -19.2754   25.4071 S   0  0  0  0  0  0  0  0  0  0  0  0
   10.0648  -16.2180   25.1528 C   0  0  0  0  0  0  0  0  0  0  0  0
   11.1307  -15.6250   24.9287 O   0  0  0  0  0  0  0  0  0  0  0  0
    9.4294  -16.1250   26.3997 N   0  0  0  0  0  0  0  0  0  0  0  0
    9.9855  -15.4245   27.5136 C   0  0  1  0  0  0  0  0  0  0  0  0
    9.1077  -14.3750   28.1136 C   0  0  0  0  0  0  0  0  0  0  0  0
    8.4001  -13.5820   27.0769 C   0  0  0  0  0  0  0  0  0  0  0  0
    7.1487  -13.9721   26.6150 C   0  0  0  0  0  0  0  0  0  0  0  0
    6.4677  -13.2606   25.6570 C   0  0  0  0  0  0  0  0  0  0  0  0
    7.0089  -12.1176   25.1112 C   0  0  0  0  0  0  0  0  0  0  0  0
    8.2489  -11.7157   25.5571 C   0  0  0  0  0  0  0  0  0  0  0  0
    8.9322  -12.4303   26.5190 C   0  0  0  0  0  0  0  0  0  0  0  0
   10.5567  -16.3345   28.5720 C   0  0  0  0  0  0  0  0  0  0  0  0
   10.4597  -17.7065   28.5203 O   0  0  0  0  0  0  0  0  0  0  0  0
   11.1604  -15.8242   29.5614 O   0  0  0  0  0  0  0  0  0  0  0  0
  2  4  1  0
  2  1  1  1
  3  2  1  0
  4  5  1  0
  5  7  1  0
  5  6  1  6
  7  8  2  0
  9 10  1  0
  9  7  1  0
 10 11  1  6
 12 11  1  0
 13 10  1  0
 13 14  2  0
 15 13  1  0
 16 15  1  0
 16 24  1  0
 16 17  1  1
 18 17  1  0
 19 18  2  0
 20 19  1  0
 21 22  1  0
 21 20  2  0
 22 23  2  0
 23 18  1  0
 24 25  1  0
 26 24  2  0
M  END
$$$$
