LCF.pdb
     RDKit          3D

 26 26  0  0  1  0  0  0  0  0999 V2000
    7.6809  -11.8895   20.1354 C   0  0  0  0  0  0  0  0  0  0  0  0
    8.0373  -13.3189   19.8487 C   0  0  1  0  0  0  0  0  0  0  0  0
    9.5111  -13.4586   19.5347 C   0  0  0  0  0  0  0  0  0  0  0  0
    7.5216  -14.3044   20.8226 C   0  0  0  0  0  0  0  0  0  0  0  0
    7.8369  -15.7359   20.6198 C   0  0  2  0  0  0  0  0  0  0  0  0
    6.8797  -16.4910   19.8889 N   0  0  0  0  0  0  0  0  0  0  0  0
    8.1831  -16.4577   21.8632 C   0  0  0  0  0  0  0  0  0  0  0  0
    7.2470  -16.7602   22.6423 O   0  0  0  0  0  0  0  0  0  0  0  0
    9.4921  -16.8382   22.2504 N   0  0  0  0  0  0  0  0  0  0  0  0
    9.7269  -17.6131   23.4801 C   0  0  1  0  0  0  0  0  0  0  0  0
    8.9158  -18.8884   23.4366 C   0  0  0  0  0  0  0  0  0  0  0  0
    9.6145  -20.0893   22.2793 S   0  0  0  0  0  0  0  0  0  0  0  0
   11.1786  -17.9144   23.6265 C   0  0  0  0  0  0  0  0  0  0  0  0
   11.6361  -18.9361   23.0930 O   0  0  0  0  0  0  0  0  0  0  0  0
   12.0013  -17.0462   24.3591 N   0  0  0  0  0  0  0  0  0  0  0  0
   11.6304  -16.4933   25.6230 C   0  0  1  0  0  0  0  0  0  0  0  0
   10.2344  -15.9684   25.7080 C   0  0  0  0  0  0  0  0  0  0  0  0
   10.0393  -15.0953   26.8929 C   0  0  0  0  0  0  0  0  0  0  0  0
    9.4119  -13.8612   26.7707 C   0  0  0  0  0  0  0  0  0  0  0  0
    9.2160  -13.0299   27.8469 C   0  0  0  0  0  0  0  0  0  0  0  0
    9.6409  -13.3951   29.1053 C   0  0  0  0  0  0  0  0  0  0  0  0
   10.2650  -14.6153   29.2454 C   0  0  0  0  0  0  0  0  0  0  0  0
   10.4615  -15.4495   28.1645 C   0  0  0  0  0  0  0  0  0  0  0  0
   11.9517  -17.3925   26.7904 C   0  0  0  0  0  0  0  0  0  0  0  0
   12.9599  -17.1300   27.6900 O   0  0  0  0  0  0  0  0  0  0  0  0
   11.2661  -18.4427   26.9649 O   0  0  0  0  0  0  0  0  0  0  0  0
  2  4  1  0
  2  1  1  1
  3  2  1  0
  4  5  1  0
  5  7  1  0
  5  6  1  1
  7  8  2  0
  9 10  1  0
  9  7  1  0
 10 11  1  6
 12 11  1  0
 13 10  1  0
 13 14  2  0
 15 13  1  0
 16 15  1  0
 16 24  1  0
 16 17  1  6
 18 17  1  0
 19 18  2  0
 20 19  1  0
 21 22  1  0
 21 20  2  0
 22 23  2  0
 23 18  1  0
 24 25  1  0
 26 24  2  0
M  END
$$$$
