LCF.pdb
     RDKit          3D

 26 26  0  0  1  0  0  0  0  0999 V2000
    6.8909  -11.9821   19.3654 C   0  0  0  0  0  0  0  0  0  0  0  0
    7.8466  -13.1364   19.2823 C   0  0  1  0  0  0  0  0  0  0  0  0
    9.2792  -12.6521   19.2243 C   0  0  0  0  0  0  0  0  0  0  0  0
    7.6059  -14.2249   20.2533 C   0  0  0  0  0  0  0  0  0  0  0  0
    8.5133  -15.3939   20.2499 C   0  0  2  0  0  0  0  0  0  0  0  0
    8.3972  -16.2740   19.1396 N   0  0  0  0  0  0  0  0  0  0  0  0
    8.4864  -16.1800   21.5021 C   0  0  0  0  0  0  0  0  0  0  0  0
    7.4570  -16.8551   21.7453 O   0  0  0  0  0  0  0  0  0  0  0  0
    9.5329  -16.2344   22.4560 N   0  0  0  0  0  0  0  0  0  0  0  0
    9.4359  -17.0995   23.6435 C   0  0  1  0  0  0  0  0  0  0  0  0
   10.2932  -18.3289   23.4447 C   0  0  0  0  0  0  0  0  0  0  0  0
   11.9751  -17.8999   22.9382 S   0  0  0  0  0  0  0  0  0  0  0  0
    9.8598  -16.3500   24.8593 C   0  0  0  0  0  0  0  0  0  0  0  0
   10.7097  -15.4541   24.7458 O   0  0  0  0  0  0  0  0  0  0  0  0
    9.2972  -16.6647   26.1050 N   0  0  0  0  0  0  0  0  0  0  0  0
    9.7502  -16.0995   27.3361 C   0  0  1  0  0  0  0  0  0  0  0  0
    8.7169  -15.3571   28.1191 C   0  0  0  0  0  0  0  0  0  0  0  0
    8.2510  -14.1384   27.4105 C   0  0  0  0  0  0  0  0  0  0  0  0
    7.0383  -14.1311   26.7316 C   0  0  0  0  0  0  0  0  0  0  0  0
    6.5787  -13.0203   26.0663 C   0  0  0  0  0  0  0  0  0  0  0  0
    7.3144  -11.8559   26.0478 C   0  0  0  0  0  0  0  0  0  0  0  0
    8.5193  -11.8448   26.7157 C   0  0  0  0  0  0  0  0  0  0  0  0
    8.9804  -12.9603   27.3835 C   0  0  0  0  0  0  0  0  0  0  0  0
   10.5024  -17.0757   28.2055 C   0  0  0  0  0  0  0  0  0  0  0  0
   11.2125  -16.6994   29.3230 O   0  0  0  0  0  0  0  0  0  0  0  0
   10.4859  -18.3059   27.9054 O   0  0  0  0  0  0  0  0  0  0  0  0
  2  4  1  0
  2  1  1  1
  3  2  1  0
  4  5  1  0
  5  7  1  0
  5  6  1  6
  7  8  2  0
  9 10  1  0
  9  7  1  0
 10 11  1  6
 12 11  1  0
 13 10  1  0
 13 14  2  0
 15 13  1  0
 16 15  1  0
 16 24  1  0
 16 17  1  1
 18 17  1  0
 19 18  2  0
 20 19  1  0
 21 22  1  0
 21 20  2  0
 22 23  2  0
 23 18  1  0
 24 25  1  0
 26 24  2  0
M  END
$$$$
