LCF.pdb
     RDKit          3D

 26 26  0  0  1  0  0  0  0  0999 V2000
    7.1938  -12.5473   18.2482 C   0  0  0  0  0  0  0  0  0  0  0  0
    7.9983  -13.7179   18.7329 C   0  0  1  0  0  0  0  0  0  0  0  0
    9.4788  -13.4820   18.5268 C   0  0  0  0  0  0  0  0  0  0  0  0
    7.6379  -14.2169   20.0770 C   0  0  0  0  0  0  0  0  0  0  0  0
    8.3031  -15.4378   20.5838 C   0  0  2  0  0  0  0  0  0  0  0  0
    8.2239  -16.5865   19.7502 N   0  0  0  0  0  0  0  0  0  0  0  0
    7.9149  -15.8063   21.9624 C   0  0  0  0  0  0  0  0  0  0  0  0
    7.7863  -14.8804   22.7996 O   0  0  0  0  0  0  0  0  0  0  0  0
    7.6749  -17.1260   22.4192 N   0  0  0  0  0  0  0  0  0  0  0  0
    7.3781  -17.3989   23.8353 C   0  0  1  0  0  0  0  0  0  0  0  0
    6.9079  -18.8279   23.9869 C   0  0  0  0  0  0  0  0  0  0  0  0
    6.7296  -19.2953   25.7245 S   0  0  0  0  0  0  0  0  0  0  0  0
    8.5867  -17.1484   24.6696 C   0  0  0  0  0  0  0  0  0  0  0  0
    9.6815  -17.5875   24.2867 O   0  0  0  0  0  0  0  0  0  0  0  0
    8.4715  -16.4259   25.8662 N   0  0  0  0  0  0  0  0  0  0  0  0
    9.5961  -16.0001   26.6373 C   0  0  1  0  0  0  0  0  0  0  0  0
    9.8388  -14.5261   26.6564 C   0  0  0  0  0  0  0  0  0  0  0  0
    8.5725  -13.7545   26.7302 C   0  0  0  0  0  0  0  0  0  0  0  0
    8.2667  -12.9965   27.8542 C   0  0  0  0  0  0  0  0  0  0  0  0
    7.1039  -12.2714   27.9539 C   0  0  0  0  0  0  0  0  0  0  0  0
    6.1851  -12.2695   26.9278 C   0  0  0  0  0  0  0  0  0  0  0  0
    6.4715  -13.0155   25.8055 C   0  0  0  0  0  0  0  0  0  0  0  0
    7.6390  -13.7432   25.7058 C   0  0  0  0  0  0  0  0  0  0  0  0
    9.6255  -16.5802   28.0291 C   0  0  0  0  0  0  0  0  0  0  0  0
    8.6230  -17.3749   28.5369 O   0  0  0  0  0  0  0  0  0  0  0  0
   10.6172  -16.3340   28.7773 O   0  0  0  0  0  0  0  0  0  0  0  0
  2  4  1  0
  2  1  1  1
  3  2  1  0
  4  5  1  0
  5  7  1  0
  5  6  1  6
  7  8  2  0
  9 10  1  0
  9  7  1  0
 10 11  1  6
 12 11  1  0
 13 10  1  0
 13 14  2  0
 15 13  1  0
 16 15  1  0
 16 24  1  0
 16 17  1  1
 18 17  1  0
 19 18  2  0
 20 19  1  0
 21 22  1  0
 21 20  2  0
 22 23  2  0
 23 18  1  0
 24 25  1  0
 26 24  2  0
M  END
$$$$
