LCF.pdb
     RDKit          3D

 26 26  0  0  1  0  0  0  0  0999 V2000
    7.8497  -12.1614   19.1815 C   0  0  0  0  0  0  0  0  0  0  0  0
    8.0505  -13.6470   19.2539 C   0  0  1  0  0  0  0  0  0  0  0  0
    9.5204  -13.9918   19.3577 C   0  0  0  0  0  0  0  0  0  0  0  0
    7.1849  -14.3534   20.2221 C   0  0  0  0  0  0  0  0  0  0  0  0
    7.3425  -15.8162   20.3808 C   0  0  2  0  0  0  0  0  0  0  0  0
    6.6478  -16.6268   19.4421 N   0  0  0  0  0  0  0  0  0  0  0  0
    7.0666  -16.3061   21.7486 C   0  0  0  0  0  0  0  0  0  0  0  0
    5.8857  -16.2347   22.1669 O   0  0  0  0  0  0  0  0  0  0  0  0
    8.0309  -16.8527   22.6314 N   0  0  0  0  0  0  0  0  0  0  0  0
    7.6473  -17.3536   23.9617 C   0  0  1  0  0  0  0  0  0  0  0  0
    7.7123  -18.8641   23.9711 C   0  0  0  0  0  0  0  0  0  0  0  0
    7.3288  -19.5426   25.6027 S   0  0  0  0  0  0  0  0  0  0  0  0
    8.5441  -16.7792   25.0036 C   0  0  0  0  0  0  0  0  0  0  0  0
    9.7461  -16.6235   24.7411 O   0  0  0  0  0  0  0  0  0  0  0  0
    8.0218  -16.4253   26.2563 N   0  0  0  0  0  0  0  0  0  0  0  0
    8.8288  -15.9652   27.3415 C   0  0  1  0  0  0  0  0  0  0  0  0
    8.1814  -14.9644   28.2421 C   0  0  0  0  0  0  0  0  0  0  0  0
    7.6187  -13.8172   27.4860 C   0  0  0  0  0  0  0  0  0  0  0  0
    8.3957  -12.6984   27.2099 C   0  0  0  0  0  0  0  0  0  0  0  0
    7.9054  -11.6207   26.5128 C   0  0  0  0  0  0  0  0  0  0  0  0
    6.6062  -11.6099   26.0554 C   0  0  0  0  0  0  0  0  0  0  0  0
    5.8211  -12.7107   26.3198 C   0  0  0  0  0  0  0  0  0  0  0  0
    6.3138  -13.7925   27.0197 C   0  0  0  0  0  0  0  0  0  0  0  0
    9.4697  -17.0802   28.1294 C   0  0  0  0  0  0  0  0  0  0  0  0
    9.2182  -18.4127   27.8929 O   0  0  0  0  0  0  0  0  0  0  0  0
   10.2835  -16.7902   29.0553 O   0  0  0  0  0  0  0  0  0  0  0  0
  2  4  1  0
  2  1  1  1
  3  2  1  0
  4  5  1  0
  5  7  1  0
  5  6  1  6
  7  8  2  0
  9 10  1  0
  9  7  1  0
 10 11  1  6
 12 11  1  0
 13 10  1  0
 13 14  2  0
 15 13  1  0
 16 15  1  0
 16 24  1  0
 16 17  1  1
 18 17  1  0
 19 18  2  0
 20 19  1  0
 21 22  1  0
 21 20  2  0
 22 23  2  0
 23 18  1  0
 24 25  1  0
 26 24  2  0
M  END
$$$$
