LCF.pdb
     RDKit          3D

 26 26  0  0  1  0  0  0  0  0999 V2000
    5.4087  -20.5480   24.4691 C   0  0  0  0  0  0  0  0  0  0  0  0
    6.0038  -19.5101   23.5629 C   0  0  1  0  0  0  0  0  0  0  0  0
    7.0849  -18.7246   24.2731 C   0  0  0  0  0  0  0  0  0  0  0  0
    6.3788  -19.9900   22.2158 C   0  0  0  0  0  0  0  0  0  0  0  0
    6.9329  -19.0206   21.2447 C   0  0  2  0  0  0  0  0  0  0  0  0
    7.1603  -19.5111   19.9300 N   0  0  0  0  0  0  0  0  0  0  0  0
    8.1437  -18.3176   21.7207 C   0  0  0  0  0  0  0  0  0  0  0  0
    9.1436  -19.0144   22.0196 O   0  0  0  0  0  0  0  0  0  0  0  0
    8.2693  -16.9138   21.8683 N   0  0  0  0  0  0  0  0  0  0  0  0
    9.5350  -16.3054   22.3105 C   0  0  1  0  0  0  0  0  0  0  0  0
   10.1196  -15.4810   21.1859 C   0  0  0  0  0  0  0  0  0  0  0  0
    9.6219  -16.1082   19.5647 S   0  0  0  0  0  0  0  0  0  0  0  0
    9.3045  -15.4642   23.5184 C   0  0  0  0  0  0  0  0  0  0  0  0
    9.1448  -14.2426   23.3772 O   0  0  0  0  0  0  0  0  0  0  0  0
    9.2717  -16.0597   24.7879 N   0  0  0  0  0  0  0  0  0  0  0  0
   10.0984  -15.6385   25.8740 C   0  0  1  0  0  0  0  0  0  0  0  0
    9.9711  -14.1998   26.2558 C   0  0  0  0  0  0  0  0  0  0  0  0
    8.5547  -13.7558   26.2881 C   0  0  0  0  0  0  0  0  0  0  0  0
    8.2092  -12.5205   26.8232 C   0  0  0  0  0  0  0  0  0  0  0  0
    6.9084  -12.0803   26.8680 C   0  0  0  0  0  0  0  0  0  0  0  0
    5.8841  -12.8591   26.3767 C   0  0  0  0  0  0  0  0  0  0  0  0
    6.2079  -14.0870   25.8424 C   0  0  0  0  0  0  0  0  0  0  0  0
    7.5140  -14.5286   25.7976 C   0  0  0  0  0  0  0  0  0  0  0  0
   10.0094  -16.5377   27.0815 C   0  0  0  0  0  0  0  0  0  0  0  0
    9.1696  -17.6259   27.1519 O   0  0  0  0  0  0  0  0  0  0  0  0
   10.7400  -16.2923   28.0863 O   0  0  0  0  0  0  0  0  0  0  0  0
  2  4  1  0
  2  1  1  1
  3  2  1  0
  4  5  1  0
  5  7  1  0
  5  6  1  6
  7  8  2  0
  9 10  1  0
  9  7  1  0
 10 11  1  6
 12 11  1  0
 13 10  1  0
 13 14  2  0
 15 13  1  0
 16 15  1  0
 16 24  1  0
 16 17  1  1
 18 17  1  0
 19 18  2  0
 20 19  1  0
 21 22  1  0
 21 20  2  0
 22 23  2  0
 23 18  1  0
 24 25  1  0
 26 24  2  0
M  END
$$$$
