LCF.pdb
     RDKit          3D

 26 26  0  0  1  0  0  0  0  0999 V2000
    7.6182  -11.8585   18.6761 C   0  0  0  0  0  0  0  0  0  0  0  0
    8.2375  -13.2236   18.7475 C   0  0  1  0  0  0  0  0  0  0  0  0
    9.6958  -13.1801   18.3453 C   0  0  0  0  0  0  0  0  0  0  0  0
    7.9666  -13.9742   19.9920 C   0  0  0  0  0  0  0  0  0  0  0  0
    8.3998  -15.3866   20.0788 C   0  0  2  0  0  0  0  0  0  0  0  0
    8.2792  -16.1533   18.8878 N   0  0  0  0  0  0  0  0  0  0  0  0
    7.7967  -16.1328   21.2041 C   0  0  0  0  0  0  0  0  0  0  0  0
    7.2126  -15.4715   22.0964 O   0  0  0  0  0  0  0  0  0  0  0  0
    7.8240  -17.5410   21.3594 N   0  0  0  0  0  0  0  0  0  0  0  0
    7.3192  -18.1813   22.5854 C   0  0  1  0  0  0  0  0  0  0  0  0
    7.2098  -19.6736   22.3681 C   0  0  0  0  0  0  0  0  0  0  0  0
    7.6788  -20.6034   23.8463 S   0  0  0  0  0  0  0  0  0  0  0  0
    8.2225  -17.8784   23.7308 C   0  0  0  0  0  0  0  0  0  0  0  0
    9.4465  -17.8390   23.5354 O   0  0  0  0  0  0  0  0  0  0  0  0
    7.6816  -17.6438   25.0034 N   0  0  0  0  0  0  0  0  0  0  0  0
    8.4209  -17.0539   26.0739 C   0  0  1  0  0  0  0  0  0  0  0  0
    8.3024  -15.5694   26.1928 C   0  0  0  0  0  0  0  0  0  0  0  0
    9.0567  -15.0424   27.3580 C   0  0  0  0  0  0  0  0  0  0  0  0
    8.4221  -14.2743   28.3269 C   0  0  0  0  0  0  0  0  0  0  0  0
    9.0912  -13.7719   29.4168 C   0  0  0  0  0  0  0  0  0  0  0  0
   10.4357  -14.0151   29.5912 C   0  0  0  0  0  0  0  0  0  0  0  0
   11.0814  -14.7748   28.6405 C   0  0  0  0  0  0  0  0  0  0  0  0
   10.4092  -15.2790   27.5465 C   0  0  0  0  0  0  0  0  0  0  0  0
    8.1992  -17.7313   27.4030 C   0  0  0  0  0  0  0  0  0  0  0  0
    9.2231  -18.0629   28.2612 O   0  0  0  0  0  0  0  0  0  0  0  0
    7.0174  -18.0123   27.7607 O   0  0  0  0  0  0  0  0  0  0  0  0
  2  4  1  0
  2  1  1  1
  3  2  1  0
  4  5  1  0
  5  7  1  0
  5  6  1  6
  7  8  2  0
  9 10  1  0
  9  7  1  0
 10 11  1  6
 12 11  1  0
 13 10  1  0
 13 14  2  0
 15 13  1  0
 16 15  1  0
 16 24  1  0
 16 17  1  1
 18 17  1  0
 19 18  2  0
 20 19  1  0
 21 22  1  0
 21 20  2  0
 22 23  2  0
 23 18  1  0
 24 25  1  0
 26 24  2  0
M  END
$$$$
