LCF.pdb
     RDKit          3D

 26 26  0  0  1  0  0  0  0  0999 V2000
    6.6815  -12.3595   18.8709 C   0  0  0  0  0  0  0  0  0  0  0  0
    7.9213  -13.1364   19.2049 C   0  0  1  0  0  0  0  0  0  0  0  0
    9.0412  -12.2137   19.6347 C   0  0  0  0  0  0  0  0  0  0  0  0
    7.7147  -14.3033   20.0890 C   0  0  0  0  0  0  0  0  0  0  0  0
    8.8990  -15.0479   20.5714 C   0  0  2  0  0  0  0  0  0  0  0  0
    9.4729  -15.9728   19.6571 N   0  0  0  0  0  0  0  0  0  0  0  0
    8.7014  -15.7110   21.8784 C   0  0  0  0  0  0  0  0  0  0  0  0
    7.5914  -15.5645   22.4452 O   0  0  0  0  0  0  0  0  0  0  0  0
    9.6672  -16.5027   22.5480 N   0  0  0  0  0  0  0  0  0  0  0  0
    9.4049  -17.0504   23.8893 C   0  0  1  0  0  0  0  0  0  0  0  0
    9.2622  -18.5531   23.8026 C   0  0  0  0  0  0  0  0  0  0  0  0
   10.7262  -19.3258   23.0753 S   0  0  0  0  0  0  0  0  0  0  0  0
   10.5067  -16.6765   24.8199 C   0  0  0  0  0  0  0  0  0  0  0  0
   11.5609  -17.3291   24.7944 O   0  0  0  0  0  0  0  0  0  0  0  0
   10.3386  -15.6011   25.7044 N   0  0  0  0  0  0  0  0  0  0  0  0
    9.8727  -15.7540   27.0461 C   0  0  1  0  0  0  0  0  0  0  0  0
    8.3893  -15.7126   27.2180 C   0  0  0  0  0  0  0  0  0  0  0  0
    7.8272  -14.3798   26.8832 C   0  0  0  0  0  0  0  0  0  0  0  0
    8.5435  -13.2191   27.1501 C   0  0  0  0  0  0  0  0  0  0  0  0
    8.0519  -11.9711   26.8526 C   0  0  0  0  0  0  0  0  0  0  0  0
    6.8125  -11.8227   26.2703 C   0  0  0  0  0  0  0  0  0  0  0  0
    6.0881  -12.9626   25.9984 C   0  0  0  0  0  0  0  0  0  0  0  0
    6.5820  -14.2155   26.2972 C   0  0  0  0  0  0  0  0  0  0  0  0
   10.4763  -16.9366   27.7615 C   0  0  0  0  0  0  0  0  0  0  0  0
   11.0713  -16.8466   28.9994 O   0  0  0  0  0  0  0  0  0  0  0  0
   10.4382  -18.0751   27.2082 O   0  0  0  0  0  0  0  0  0  0  0  0
  2  4  1  0
  2  1  1  1
  3  2  1  0
  4  5  1  0
  5  7  1  0
  5  6  1  6
  7  8  2  0
  9 10  1  0
  9  7  1  0
 10 11  1  6
 12 11  1  0
 13 10  1  0
 13 14  2  0
 15 13  1  0
 16 15  1  0
 16 24  1  0
 16 17  1  6
 18 17  1  0
 19 18  2  0
 20 19  1  0
 21 22  1  0
 21 20  2  0
 22 23  2  0
 23 18  1  0
 24 25  1  0
 26 24  2  0
M  END
$$$$
