LCF.pdb
     RDKit          3D

 26 26  0  0  1  0  0  0  0  0999 V2000
    7.5391  -12.3903   18.9206 C   0  0  0  0  0  0  0  0  0  0  0  0
    7.9035  -13.8210   19.1900 C   0  0  1  0  0  0  0  0  0  0  0  0
    9.3965  -13.9738   19.3842 C   0  0  0  0  0  0  0  0  0  0  0  0
    7.0794  -14.4993   20.2129 C   0  0  0  0  0  0  0  0  0  0  0  0
    7.3795  -15.9094   20.5470 C   0  0  2  0  0  0  0  0  0  0  0  0
    6.7371  -16.8933   19.7470 N   0  0  0  0  0  0  0  0  0  0  0  0
    7.1923  -16.2421   21.9756 C   0  0  0  0  0  0  0  0  0  0  0  0
    6.7458  -15.3445   22.7302 O   0  0  0  0  0  0  0  0  0  0  0  0
    7.4773  -17.4981   22.5668 N   0  0  0  0  0  0  0  0  0  0  0  0
    7.3299  -17.7076   24.0167 C   0  0  1  0  0  0  0  0  0  0  0  0
    7.0706  -19.1715   24.2921 C   0  0  0  0  0  0  0  0  0  0  0  0
    7.2167  -19.5598   26.0520 S   0  0  0  0  0  0  0  0  0  0  0  0
    8.5541  -17.2443   24.7283 C   0  0  0  0  0  0  0  0  0  0  0  0
    9.6642  -17.4813   24.2290 O   0  0  0  0  0  0  0  0  0  0  0  0
    8.4360  -16.5524   25.9426 N   0  0  0  0  0  0  0  0  0  0  0  0
    9.5497  -15.9857   26.6346 C   0  0  1  0  0  0  0  0  0  0  0  0
    9.8003  -14.5372   26.3680 C   0  0  0  0  0  0  0  0  0  0  0  0
    8.6058  -13.7037   26.6557 C   0  0  0  0  0  0  0  0  0  0  0  0
    7.5371  -13.6630   25.7681 C   0  0  0  0  0  0  0  0  0  0  0  0
    6.4177  -12.9023   26.0047 C   0  0  0  0  0  0  0  0  0  0  0  0
    6.3125  -12.1407   27.1476 C   0  0  0  0  0  0  0  0  0  0  0  0
    7.3625  -12.1687   28.0391 C   0  0  0  0  0  0  0  0  0  0  0  0
    8.4861  -12.9327   27.8012 C   0  0  0  0  0  0  0  0  0  0  0  0
    9.5526  -16.2810   28.1136 C   0  0  0  0  0  0  0  0  0  0  0  0
    8.5649  -17.0064   28.7403 O   0  0  0  0  0  0  0  0  0  0  0  0
   10.5063  -15.8482   28.8254 O   0  0  0  0  0  0  0  0  0  0  0  0
  2  4  1  0
  2  1  1  1
  3  2  1  0
  4  5  1  0
  5  7  1  0
  5  6  1  6
  7  8  2  0
  9 10  1  0
  9  7  1  0
 10 11  1  6
 12 11  1  0
 13 10  1  0
 13 14  2  0
 15 13  1  0
 16 15  1  0
 16 24  1  0
 16 17  1  1
 18 17  1  0
 19 18  2  0
 20 19  1  0
 21 22  1  0
 21 20  2  0
 22 23  2  0
 23 18  1  0
 24 25  1  0
 26 24  2  0
M  END
$$$$
