LCF.pdb
     RDKit          3D

 26 26  0  0  1  0  0  0  0  0999 V2000
    7.2093  -12.1096   18.8647 C   0  0  0  0  0  0  0  0  0  0  0  0
    7.8014  -13.4757   19.0533 C   0  0  1  0  0  0  0  0  0  0  0  0
    9.2435  -13.5104   18.5958 C   0  0  0  0  0  0  0  0  0  0  0  0
    7.5631  -14.0884   20.3775 C   0  0  0  0  0  0  0  0  0  0  0  0
    8.0783  -15.4519   20.6328 C   0  0  2  0  0  0  0  0  0  0  0  0
    7.6611  -16.4602   19.7218 N   0  0  0  0  0  0  0  0  0  0  0  0
    7.8662  -15.9257   22.0175 C   0  0  0  0  0  0  0  0  0  0  0  0
    7.6889  -15.0610   22.9094 O   0  0  0  0  0  0  0  0  0  0  0  0
    7.8466  -17.2833   22.4232 N   0  0  0  0  0  0  0  0  0  0  0  0
    7.6440  -17.6531   23.8339 C   0  0  1  0  0  0  0  0  0  0  0  0
    7.3635  -19.1355   23.9326 C   0  0  0  0  0  0  0  0  0  0  0  0
    5.7397  -19.5580   23.2585 S   0  0  0  0  0  0  0  0  0  0  0  0
    8.8445  -17.2873   24.6369 C   0  0  0  0  0  0  0  0  0  0  0  0
    9.9640  -17.3569   24.1080 O   0  0  0  0  0  0  0  0  0  0  0  0
    8.6940  -16.8729   25.9683 N   0  0  0  0  0  0  0  0  0  0  0  0
    9.7690  -16.3599   26.7569 C   0  0  1  0  0  0  0  0  0  0  0  0
   10.0422  -14.9001   26.5956 C   0  0  0  0  0  0  0  0  0  0  0  0
    8.8199  -14.0802   26.7913 C   0  0  0  0  0  0  0  0  0  0  0  0
    8.6131  -13.3846   27.9765 C   0  0  0  0  0  0  0  0  0  0  0  0
    7.4933  -12.6173   28.1890 C   0  0  0  0  0  0  0  0  0  0  0  0
    6.5202  -12.5082   27.2203 C   0  0  0  0  0  0  0  0  0  0  0  0
    6.7084  -13.1910   26.0386 C   0  0  0  0  0  0  0  0  0  0  0  0
    7.8329  -13.9612   25.8257 C   0  0  0  0  0  0  0  0  0  0  0  0
    9.6847  -16.7460   28.2124 C   0  0  0  0  0  0  0  0  0  0  0  0
    8.6248  -17.4414   28.7487 O   0  0  0  0  0  0  0  0  0  0  0  0
   10.6305  -16.4230   28.9902 O   0  0  0  0  0  0  0  0  0  0  0  0
  2  4  1  0
  2  1  1  1
  3  2  1  0
  4  5  1  0
  5  7  1  0
  5  6  1  6
  7  8  2  0
  9 10  1  0
  9  7  1  0
 10 11  1  6
 12 11  1  0
 13 10  1  0
 13 14  2  0
 15 13  1  0
 16 15  1  0
 16 24  1  0
 16 17  1  1
 18 17  1  0
 19 18  2  0
 20 19  1  0
 21 22  1  0
 21 20  2  0
 22 23  2  0
 23 18  1  0
 24 25  1  0
 26 24  2  0
M  END
$$$$
