LCF.pdb
     RDKit          3D

 26 26  0  0  1  0  0  0  0  0999 V2000
    8.3853  -12.6384   19.0321 C   0  0  0  0  0  0  0  0  0  0  0  0
    8.2460  -13.6227   20.1564 C   0  0  1  0  0  0  0  0  0  0  0  0
    7.7733  -12.9391   21.4211 C   0  0  0  0  0  0  0  0  0  0  0  0
    7.5163  -14.8638   19.8206 C   0  0  0  0  0  0  0  0  0  0  0  0
    7.3511  -15.8965   20.8675 C   0  0  2  0  0  0  0  0  0  0  0  0
    6.3912  -15.6165   21.8780 N   0  0  0  0  0  0  0  0  0  0  0  0
    8.6187  -16.3193   21.5008 C   0  0  0  0  0  0  0  0  0  0  0  0
    9.4560  -16.9213   20.7857 O   0  0  0  0  0  0  0  0  0  0  0  0
    8.9685  -16.1000   22.8564 N   0  0  0  0  0  0  0  0  0  0  0  0
   10.2964  -16.4751   23.3699 C   0  0  1  0  0  0  0  0  0  0  0  0
   11.3651  -15.7416   22.5915 C   0  0  0  0  0  0  0  0  0  0  0  0
   13.0273  -16.2269   23.1120 S   0  0  0  0  0  0  0  0  0  0  0  0
   10.3912  -16.1610   24.8232 C   0  0  0  0  0  0  0  0  0  0  0  0
   10.6869  -15.0076   25.1697 O   0  0  0  0  0  0  0  0  0  0  0  0
   10.1468  -17.1649   25.7718 N   0  0  0  0  0  0  0  0  0  0  0  0
    9.1125  -17.0821   26.7536 C   0  0  1  0  0  0  0  0  0  0  0  0
    7.7744  -16.6602   26.2406 C   0  0  0  0  0  0  0  0  0  0  0  0
    7.5544  -15.1999   26.3947 C   0  0  0  0  0  0  0  0  0  0  0  0
    8.5139  -14.3968   26.9996 C   0  0  0  0  0  0  0  0  0  0  0  0
    8.3411  -13.0429   27.1574 C   0  0  0  0  0  0  0  0  0  0  0  0
    7.1933  -12.4231   26.7151 C   0  0  0  0  0  0  0  0  0  0  0  0
    6.2311  -13.2038   26.1129 C   0  0  0  0  0  0  0  0  0  0  0  0
    6.4049  -14.5630   25.9546 C   0  0  0  0  0  0  0  0  0  0  0  0
    9.0063  -18.3116   27.6206 C   0  0  0  0  0  0  0  0  0  0  0  0
    8.8619  -18.2603   28.9884 O   0  0  0  0  0  0  0  0  0  0  0  0
    9.0479  -19.4540   27.0757 O   0  0  0  0  0  0  0  0  0  0  0  0
  2  4  1  0
  2  1  1  6
  3  2  1  0
  4  5  1  0
  5  7  1  0
  5  6  1  1
  7  8  2  0
  9 10  1  0
  9  7  1  0
 10 11  1  6
 12 11  1  0
 13 10  1  0
 13 14  2  0
 15 13  1  0
 16 15  1  0
 16 24  1  0
 16 17  1  6
 18 17  1  0
 19 18  2  0
 20 19  1  0
 21 22  1  0
 21 20  2  0
 22 23  2  0
 23 18  1  0
 24 25  1  0
 26 24  2  0
M  END
$$$$
