LCF.pdb
     RDKit          3D

 26 26  0  0  1  0  0  0  0  0999 V2000
    7.7713  -12.1261   19.2416 C   0  0  0  0  0  0  0  0  0  0  0  0
    8.0331  -13.5938   19.4139 C   0  0  1  0  0  0  0  0  0  0  0  0
    9.5187  -13.8803   19.4455 C   0  0  0  0  0  0  0  0  0  0  0  0
    7.2590  -14.2500   20.4890 C   0  0  0  0  0  0  0  0  0  0  0  0
    7.4225  -15.7062   20.6952 C   0  0  2  0  0  0  0  0  0  0  0  0
    6.7178  -16.5498   19.7938 N   0  0  0  0  0  0  0  0  0  0  0  0
    7.1658  -16.1499   22.0823 C   0  0  0  0  0  0  0  0  0  0  0  0
    6.0550  -15.8631   22.5907 O   0  0  0  0  0  0  0  0  0  0  0  0
    8.0757  -16.8764   22.8900 N   0  0  0  0  0  0  0  0  0  0  0  0
    7.7444  -17.2300   24.2804 C   0  0  1  0  0  0  0  0  0  0  0  0
    7.6317  -18.7324   24.4067 C   0  0  0  0  0  0  0  0  0  0  0  0
    7.2880  -19.2392   26.1080 S   0  0  0  0  0  0  0  0  0  0  0  0
    8.7836  -16.6978   25.2059 C   0  0  0  0  0  0  0  0  0  0  0  0
    9.9732  -16.7355   24.8576 O   0  0  0  0  0  0  0  0  0  0  0  0
    8.4061  -16.1660   26.4476 N   0  0  0  0  0  0  0  0  0  0  0  0
    9.3405  -15.6516   27.3979 C   0  0  1  0  0  0  0  0  0  0  0  0
    8.8407  -14.5261   28.2435 C   0  0  0  0  0  0  0  0  0  0  0  0
    7.9704  -13.5985   27.4776 C   0  0  0  0  0  0  0  0  0  0  0  0
    8.4739  -12.4054   26.9730 C   0  0  0  0  0  0  0  0  0  0  0  0
    7.6953  -11.5257   26.2605 C   0  0  0  0  0  0  0  0  0  0  0  0
    6.3674  -11.7985   26.0167 C   0  0  0  0  0  0  0  0  0  0  0  0
    5.8510  -12.9768   26.5095 C   0  0  0  0  0  0  0  0  0  0  0  0
    6.6330  -13.8598   27.2248 C   0  0  0  0  0  0  0  0  0  0  0  0
    9.9957  -16.7204   28.2364 C   0  0  0  0  0  0  0  0  0  0  0  0
    9.6662  -18.0541   28.1513 O   0  0  0  0  0  0  0  0  0  0  0  0
   10.8969  -16.3884   29.0617 O   0  0  0  0  0  0  0  0  0  0  0  0
  2  4  1  0
  2  1  1  1
  3  2  1  0
  4  5  1  0
  5  7  1  0
  5  6  1  6
  7  8  2  0
  9 10  1  0
  9  7  1  0
 10 11  1  6
 12 11  1  0
 13 10  1  0
 13 14  2  0
 15 13  1  0
 16 15  1  0
 16 24  1  0
 16 17  1  1
 18 17  1  0
 19 18  2  0
 20 19  1  0
 21 22  1  0
 21 20  2  0
 22 23  2  0
 23 18  1  0
 24 25  1  0
 26 24  2  0
M  END
$$$$
