LCF.pdb
     RDKit          3D

 26 26  0  0  1  0  0  0  0  0999 V2000
    7.7292  -12.0208   19.4832 C   0  0  0  0  0  0  0  0  0  0  0  0
    8.1332  -13.4662   19.4798 C   0  0  1  0  0  0  0  0  0  0  0  0
    9.6147  -13.6153   19.2096 C   0  0  0  0  0  0  0  0  0  0  0  0
    7.6348  -14.2625   20.6215 C   0  0  0  0  0  0  0  0  0  0  0  0
    7.9922  -15.6965   20.6977 C   0  0  2  0  0  0  0  0  0  0  0  0
    7.2160  -16.5791   19.8982 N   0  0  0  0  0  0  0  0  0  0  0  0
    8.0685  -16.2250   22.0767 C   0  0  0  0  0  0  0  0  0  0  0  0
    7.0135  -16.2374   22.7561 O   0  0  0  0  0  0  0  0  0  0  0  0
    9.2411  -16.7213   22.6985 N   0  0  0  0  0  0  0  0  0  0  0  0
    9.1840  -17.3822   24.0130 C   0  0  1  0  0  0  0  0  0  0  0  0
    9.8695  -18.7274   23.9326 C   0  0  0  0  0  0  0  0  0  0  0  0
    8.8975  -19.9208   22.9838 S   0  0  0  0  0  0  0  0  0  0  0  0
    9.8255  -16.5225   25.0470 C   0  0  0  0  0  0  0  0  0  0  0  0
   10.8573  -15.9002   24.7538 O   0  0  0  0  0  0  0  0  0  0  0  0
    9.2592  -16.4292   26.3267 N   0  0  0  0  0  0  0  0  0  0  0  0
    9.8459  -15.6798   27.3919 C   0  0  1  0  0  0  0  0  0  0  0  0
    8.9167  -14.7620   28.1174 C   0  0  0  0  0  0  0  0  0  0  0  0
    8.2215  -13.8301   27.1941 C   0  0  0  0  0  0  0  0  0  0  0  0
    6.9513  -14.1231   26.7121 C   0  0  0  0  0  0  0  0  0  0  0  0
    6.2811  -13.2823   25.8568 C   0  0  0  0  0  0  0  0  0  0  0  0
    6.8525  -12.1004   25.4397 C   0  0  0  0  0  0  0  0  0  0  0  0
    8.1115  -11.7934   25.9074 C   0  0  0  0  0  0  0  0  0  0  0  0
    8.7840  -12.6379   26.7661 C   0  0  0  0  0  0  0  0  0  0  0  0
   10.6456  -16.5242   28.3522 C   0  0  0  0  0  0  0  0  0  0  0  0
   11.4926  -15.9937   29.2986 O   0  0  0  0  0  0  0  0  0  0  0  0
   10.5399  -17.7849   28.2976 O   0  0  0  0  0  0  0  0  0  0  0  0
  2  4  1  0
  2  1  1  1
  3  2  1  0
  4  5  1  0
  5  7  1  0
  5  6  1  6
  7  8  2  0
  9 10  1  0
  9  7  1  0
 10 11  1  6
 12 11  1  0
 13 10  1  0
 13 14  2  0
 15 13  1  0
 16 15  1  0
 16 24  1  0
 16 17  1  1
 18 17  1  0
 19 18  2  0
 20 19  1  0
 21 22  1  0
 21 20  2  0
 22 23  2  0
 23 18  1  0
 24 25  1  0
 26 24  2  0
M  END
$$$$
