FDF.pdb
     RDKit          3D

 31 32  0  0  1  0  0  0  0  0999 V2000
    6.7725  -18.7386   22.2646 N   0  0  0  0  0  0  0  0  0  0  0  0
    7.3614  -17.4305   22.3217 C   0  0  1  0  0  0  0  0  0  0  0  0
    6.4412  -16.4028   22.9084 C   0  0  0  0  0  0  0  0  0  0  0  0
    6.9023  -15.0158   22.7598 C   0  0  0  0  0  0  0  0  0  0  0  0
    7.2182  -14.2958   23.8914 C   0  0  0  0  0  0  0  0  0  0  0  0
    7.6603  -12.9731   23.8181 C   0  0  0  0  0  0  0  0  0  0  0  0
    7.7913  -12.3520   22.5912 C   0  0  0  0  0  0  0  0  0  0  0  0
    7.4771  -13.0679   21.4649 C   0  0  0  0  0  0  0  0  0  0  0  0
    7.0362  -14.3893   21.5497 C   0  0  0  0  0  0  0  0  0  0  0  0
    8.5963  -17.4291   23.1852 C   0  0  0  0  0  0  0  0  0  0  0  0
    8.6197  -18.0421   24.2823 O   0  0  0  0  0  0  0  0  0  0  0  0
    9.7797  -16.7402   22.8000 N   0  0  0  0  0  0  0  0  0  0  0  0
   11.0613  -16.9529   23.4560 C   0  0  1  0  0  0  0  0  0  0  0  0
   12.2030  -16.4705   22.6349 C   0  0  0  0  0  0  0  0  0  0  0  0
   12.1443  -17.0713   21.2898 C   0  0  0  0  0  0  0  0  0  0  0  0
   12.1632  -16.4157   20.2200 O   0  0  0  0  0  0  0  0  0  0  0  0
   11.0903  -16.3852   24.8043 C   0  0  0  0  0  0  0  0  0  0  0  0
   11.8266  -15.4184   25.1313 O   0  0  0  0  0  0  0  0  0  0  0  0
   12.0626  -18.4529   21.1927 O   0  0  0  0  0  0  0  0  0  0  0  0
   10.2297  -16.9723   25.7904 N   0  0  0  0  0  0  0  0  0  0  0  0
   10.5177  -16.7509   27.2191 C   0  0  1  0  0  0  0  0  0  0  0  0
    9.2324  -16.4569   27.9495 C   0  0  0  0  0  0  0  0  0  0  0  0
    8.8065  -15.0714   27.7026 C   0  0  0  0  0  0  0  0  0  0  0  0
    9.4166  -13.9741   28.2386 C   0  0  0  0  0  0  0  0  0  0  0  0
    8.9696  -12.6882   27.9556 C   0  0  0  0  0  0  0  0  0  0  0  0
    7.8903  -12.4750   27.1207 C   0  0  0  0  0  0  0  0  0  0  0  0
    7.2745  -13.5990   26.5792 C   0  0  0  0  0  0  0  0  0  0  0  0
    7.7217  -14.8596   26.8635 C   0  0  0  0  0  0  0  0  0  0  0  0
   11.1195  -17.9832   27.7450 C   0  0  0  0  0  0  0  0  0  0  0  0
   11.2050  -19.1131   26.9592 O   0  0  0  0  0  0  0  0  0  0  0  0
   11.5674  -18.0476   28.9053 O   0  0  0  0  0  0  0  0  0  0  0  0
  2  1  1  1
  3  2  1  0
  4  5  2  0
  4  3  1  0
  6  5  1  0
  7  6  2  0
  8  7  1  0
  8  9  2  0
  9  4  1  0
 10 11  2  0
 10  2  1  0
 12 10  1  0
 13 12  1  0
 13 14  1  6
 15 14  1  0
 16 15  2  0
 17 13  1  0
 18 17  2  0
 19 15  1  0
 20 17  1  0
 21 20  1  0
 21 22  1  1
 23 22  1  0
 24 23  2  0
 25 24  1  0
 26 25  2  0
 26 27  1  0
 27 28  2  0
 28 23  1  0
 29 21  1  0
 29 30  1  0
 31 29  2  0
M  END
$$$$
