FDF.pdb
     RDKit          3D

 31 32  0  0  1  0  0  0  0  0999 V2000
    6.1155  -18.1786   21.7285 N   0  0  0  0  0  0  0  0  0  0  0  0
    6.9752  -17.0291   21.7577 C   0  0  1  0  0  0  0  0  0  0  0  0
    6.3008  -15.8117   22.3148 C   0  0  0  0  0  0  0  0  0  0  0  0
    6.8879  -14.5370   21.8803 C   0  0  0  0  0  0  0  0  0  0  0  0
    7.3606  -13.6634   22.8354 C   0  0  0  0  0  0  0  0  0  0  0  0
    7.9280  -12.4355   22.4879 C   0  0  0  0  0  0  0  0  0  0  0  0
    8.0277  -12.0679   21.1601 C   0  0  0  0  0  0  0  0  0  0  0  0
    7.5576  -12.9367   20.2094 C   0  0  0  0  0  0  0  0  0  0  0  0
    6.9924  -14.1613   20.5677 C   0  0  0  0  0  0  0  0  0  0  0  0
    8.1805  -17.2757   22.6278 C   0  0  0  0  0  0  0  0  0  0  0  0
    8.0834  -17.9258   23.6992 O   0  0  0  0  0  0  0  0  0  0  0  0
    9.4701  -16.7880   22.2778 N   0  0  0  0  0  0  0  0  0  0  0  0
   10.6355  -16.9662   23.1313 C   0  0  1  0  0  0  0  0  0  0  0  0
   11.9092  -16.7110   22.4082 C   0  0  0  0  0  0  0  0  0  0  0  0
   13.0528  -17.1167   23.2457 C   0  0  0  0  0  0  0  0  0  0  0  0
   13.1869  -18.2544   23.7580 O   0  0  0  0  0  0  0  0  0  0  0  0
   10.5452  -16.1742   24.3583 C   0  0  0  0  0  0  0  0  0  0  0  0
   10.9897  -15.0011   24.4578 O   0  0  0  0  0  0  0  0  0  0  0  0
   14.0509  -16.1838   23.4877 O   0  0  0  0  0  0  0  0  0  0  0  0
    9.9153  -16.7810   25.4952 N   0  0  0  0  0  0  0  0  0  0  0  0
    9.9528  -16.0851   26.7943 C   0  0  1  0  0  0  0  0  0  0  0  0
    8.5454  -15.7819   27.2410 C   0  0  0  0  0  0  0  0  0  0  0  0
    8.0156  -14.6182   26.5151 C   0  0  0  0  0  0  0  0  0  0  0  0
    6.9465  -14.6643   25.6674 C   0  0  0  0  0  0  0  0  0  0  0  0
    6.4884  -13.5226   25.0192 C   0  0  0  0  0  0  0  0  0  0  0  0
    7.1000  -12.2991   25.2101 C   0  0  0  0  0  0  0  0  0  0  0  0
    8.1889  -12.2616   26.0754 C   0  0  0  0  0  0  0  0  0  0  0  0
    8.6319  -13.3899   26.7083 C   0  0  0  0  0  0  0  0  0  0  0  0
   10.5994  -16.9843   27.7590 C   0  0  0  0  0  0  0  0  0  0  0  0
   11.0046  -18.2465   27.3793 O   0  0  0  0  0  0  0  0  0  0  0  0
   10.8007  -16.6402   28.9390 O   0  0  0  0  0  0  0  0  0  0  0  0
  2  1  1  1
  3  2  1  0
  4  5  2  0
  4  3  1  0
  6  5  1  0
  7  6  2  0
  8  7  1  0
  8  9  2  0
  9  4  1  0
 10 11  2  0
 10  2  1  0
 12 10  1  0
 13 12  1  0
 13 14  1  6
 15 14  1  0
 16 15  2  0
 17 13  1  0
 18 17  2  0
 19 15  1  0
 20 17  1  0
 21 20  1  0
 21 22  1  1
 23 22  1  0
 24 23  2  0
 25 24  1  0
 26 25  2  0
 26 27  1  0
 27 28  2  0
 28 23  1  0
 29 21  1  0
 29 30  1  0
 31 29  2  0
M  END
$$$$
