FDF.pdb
     RDKit          3D

 31 32  0  0  1  0  0  0  0  0999 V2000
    6.3983  -18.3297   21.3831 N   0  0  0  0  0  0  0  0  0  0  0  0
    7.1607  -17.1132   21.3897 C   0  0  1  0  0  0  0  0  0  0  0  0
    6.3384  -15.9126   21.7494 C   0  0  0  0  0  0  0  0  0  0  0  0
    6.9568  -14.6250   21.4057 C   0  0  0  0  0  0  0  0  0  0  0  0
    7.1914  -13.7114   22.4103 C   0  0  0  0  0  0  0  0  0  0  0  0
    7.7742  -12.4695   22.1493 C   0  0  0  0  0  0  0  0  0  0  0  0
    8.1321  -12.1280   20.8594 C   0  0  0  0  0  0  0  0  0  0  0  0
    7.8989  -13.0365   19.8595 C   0  0  0  0  0  0  0  0  0  0  0  0
    7.3158  -14.2750   20.1316 C   0  0  0  0  0  0  0  0  0  0  0  0
    8.2746  -17.1771   22.4026 C   0  0  0  0  0  0  0  0  0  0  0  0
    8.0787  -17.6482   23.5514 O   0  0  0  0  0  0  0  0  0  0  0  0
    9.5854  -16.7113   22.1058 N   0  0  0  0  0  0  0  0  0  0  0  0
   10.7087  -16.8956   23.0127 C   0  0  1  0  0  0  0  0  0  0  0  0
   12.0111  -16.5766   22.3706 C   0  0  0  0  0  0  0  0  0  0  0  0
   12.1523  -17.3367   21.1152 C   0  0  0  0  0  0  0  0  0  0  0  0
   12.1056  -18.5882   21.0360 O   0  0  0  0  0  0  0  0  0  0  0  0
   10.5314  -16.1596   24.2649 C   0  0  0  0  0  0  0  0  0  0  0  0
   10.9396  -14.9819   24.4379 O   0  0  0  0  0  0  0  0  0  0  0  0
   12.3503  -16.6277   19.9391 O   0  0  0  0  0  0  0  0  0  0  0  0
    9.8563  -16.8295   25.3387 N   0  0  0  0  0  0  0  0  0  0  0  0
    9.8692  -16.2259   26.6835 C   0  0  1  0  0  0  0  0  0  0  0  0
    8.4559  -16.1120   27.1952 C   0  0  0  0  0  0  0  0  0  0  0  0
    7.9324  -14.7581   26.9609 C   0  0  0  0  0  0  0  0  0  0  0  0
    6.6998  -14.4919   26.4382 C   0  0  0  0  0  0  0  0  0  0  0  0
    6.2604  -13.1859   26.2518 C   0  0  0  0  0  0  0  0  0  0  0  0
    7.0571  -12.1095   26.5893 C   0  0  0  0  0  0  0  0  0  0  0  0
    8.3119  -12.3901   27.1211 C   0  0  0  0  0  0  0  0  0  0  0  0
    8.7348  -13.6780   27.3006 C   0  0  0  0  0  0  0  0  0  0  0  0
   10.6464  -17.1130   27.5589 C   0  0  0  0  0  0  0  0  0  0  0  0
   11.0023  -18.3773   27.1390 O   0  0  0  0  0  0  0  0  0  0  0  0
   11.0057  -16.7565   28.6970 O   0  0  0  0  0  0  0  0  0  0  0  0
  2  1  1  1
  3  2  1  0
  4  5  2  0
  4  3  1  0
  6  5  1  0
  7  6  2  0
  8  7  1  0
  8  9  2  0
  9  4  1  0
 10 11  2  0
 10  2  1  0
 12 10  1  0
 13 12  1  0
 13 14  1  6
 15 14  1  0
 16 15  2  0
 17 13  1  0
 18 17  2  0
 19 15  1  0
 20 17  1  0
 21 20  1  0
 21 22  1  1
 23 22  1  0
 24 23  2  0
 25 24  1  0
 26 25  2  0
 26 27  1  0
 27 28  2  0
 28 23  1  0
 29 21  1  0
 29 30  1  0
 31 29  2  0
M  END
$$$$
