FDF.pdb
     RDKit          3D

 31 32  0  0  1  0  0  0  0  0999 V2000
    5.8870  -18.3394   21.3459 N   0  0  0  0  0  0  0  0  0  0  0  0
    6.6663  -17.1337   21.3499 C   0  0  1  0  0  0  0  0  0  0  0  0
    5.9085  -15.9524   21.8768 C   0  0  0  0  0  0  0  0  0  0  0  0
    6.5661  -14.6577   21.6541 C   0  0  0  0  0  0  0  0  0  0  0  0
    7.0040  -13.9385   22.7449 C   0  0  0  0  0  0  0  0  0  0  0  0
    7.6346  -12.7008   22.6008 C   0  0  0  0  0  0  0  0  0  0  0  0
    7.8344  -12.1658   21.3430 C   0  0  0  0  0  0  0  0  0  0  0  0
    7.3990  -12.8809   20.2573 C   0  0  0  0  0  0  0  0  0  0  0  0
    6.7699  -14.1169   20.4127 C   0  0  0  0  0  0  0  0  0  0  0  0
    7.8824  -17.2772   22.2281 C   0  0  0  0  0  0  0  0  0  0  0  0
    7.8102  -17.8485   23.3454 O   0  0  0  0  0  0  0  0  0  0  0  0
    9.1545  -16.7770   21.8346 N   0  0  0  0  0  0  0  0  0  0  0  0
   10.3561  -16.9714   22.6325 C   0  0  1  0  0  0  0  0  0  0  0  0
   11.5951  -16.6578   21.8731 C   0  0  0  0  0  0  0  0  0  0  0  0
   11.6342  -17.4455   20.6274 C   0  0  0  0  0  0  0  0  0  0  0  0
   11.4149  -18.6794   20.5626 O   0  0  0  0  0  0  0  0  0  0  0  0
   10.3006  -16.2389   23.8981 C   0  0  0  0  0  0  0  0  0  0  0  0
   10.7389  -15.0676   24.0383 O   0  0  0  0  0  0  0  0  0  0  0  0
   11.9327  -16.7853   19.4442 O   0  0  0  0  0  0  0  0  0  0  0  0
    9.7139  -16.9046   25.0251 N   0  0  0  0  0  0  0  0  0  0  0  0
    9.8269  -16.2913   26.3609 C   0  0  1  0  0  0  0  0  0  0  0  0
    8.4603  -15.8666   26.8344 C   0  0  0  0  0  0  0  0  0  0  0  0
    8.2546  -14.4316   26.5889 C   0  0  0  0  0  0  0  0  0  0  0  0
    9.1302  -13.4551   26.9678 C   0  0  0  0  0  0  0  0  0  0  0  0
    8.8803  -12.1147   26.6949 C   0  0  0  0  0  0  0  0  0  0  0  0
    7.7351  -11.7229   26.0299 C   0  0  0  0  0  0  0  0  0  0  0  0
    6.8483  -12.7246   25.6478 C   0  0  0  0  0  0  0  0  0  0  0  0
    7.1031  -14.0401   25.9207 C   0  0  0  0  0  0  0  0  0  0  0  0
   10.3758  -17.3070   27.2688 C   0  0  0  0  0  0  0  0  0  0  0  0
   10.5955  -18.5955   26.8295 O   0  0  0  0  0  0  0  0  0  0  0  0
   10.6577  -17.0411   28.4524 O   0  0  0  0  0  0  0  0  0  0  0  0
  2  1  1  1
  3  2  1  0
  4  5  2  0
  4  3  1  0
  6  5  1  0
  7  6  2  0
  8  7  1  0
  8  9  2  0
  9  4  1  0
 10 11  2  0
 10  2  1  0
 12 10  1  0
 13 12  1  0
 13 14  1  6
 15 14  1  0
 16 15  2  0
 17 13  1  0
 18 17  2  0
 19 15  1  0
 20 17  1  0
 21 20  1  0
 21 22  1  1
 23 22  1  0
 24 23  2  0
 25 24  1  0
 26 25  2  0
 26 27  1  0
 27 28  2  0
 28 23  1  0
 29 21  1  0
 29 30  1  0
 31 29  2  0
M  END
$$$$
