FDF.pdb
     RDKit          3D

 31 32  0  0  1  0  0  0  0  0999 V2000
    5.8736  -17.4639   22.2329 N   0  0  0  0  0  0  0  0  0  0  0  0
    7.1008  -16.7267   22.1244 C   0  0  1  0  0  0  0  0  0  0  0  0
    6.9373  -15.2725   22.4498 C   0  0  0  0  0  0  0  0  0  0  0  0
    7.4010  -14.3568   21.3987 C   0  0  0  0  0  0  0  0  0  0  0  0
    7.2629  -12.9994   21.5917 C   0  0  0  0  0  0  0  0  0  0  0  0
    7.6818  -12.0767   20.6307 C   0  0  0  0  0  0  0  0  0  0  0  0
    8.2512  -12.5139   19.4505 C   0  0  0  0  0  0  0  0  0  0  0  0
    8.3889  -13.8643   19.2579 C   0  0  0  0  0  0  0  0  0  0  0  0
    7.9668  -14.7777   20.2250 C   0  0  0  0  0  0  0  0  0  0  0  0
    8.1377  -17.2563   23.0810 C   0  0  0  0  0  0  0  0  0  0  0  0
    7.8129  -17.6759   24.2205 O   0  0  0  0  0  0  0  0  0  0  0  0
    9.5177  -17.3043   22.7395 N   0  0  0  0  0  0  0  0  0  0  0  0
   10.5489  -17.6944   23.6897 C   0  0  1  0  0  0  0  0  0  0  0  0
   11.7130  -18.3390   23.0266 C   0  0  0  0  0  0  0  0  0  0  0  0
   12.6617  -18.8305   24.0426 C   0  0  0  0  0  0  0  0  0  0  0  0
   13.8440  -18.4269   24.1613 O   0  0  0  0  0  0  0  0  0  0  0  0
   10.9640  -16.5784   24.5402 C   0  0  0  0  0  0  0  0  0  0  0  0
   11.7484  -15.6721   24.1569 O   0  0  0  0  0  0  0  0  0  0  0  0
   12.2252  -19.8037   24.9298 O   0  0  0  0  0  0  0  0  0  0  0  0
   10.4409  -16.5309   25.8750 N   0  0  0  0  0  0  0  0  0  0  0  0
   11.0717  -15.6366   26.8627 C   0  0  1  0  0  0  0  0  0  0  0  0
   10.7586  -14.2041   26.5134 C   0  0  0  0  0  0  0  0  0  0  0  0
    9.3042  -13.9951   26.4578 C   0  0  0  0  0  0  0  0  0  0  0  0
    8.4329  -14.8302   25.8197 C   0  0  0  0  0  0  0  0  0  0  0  0
    7.0651  -14.5802   25.8141 C   0  0  0  0  0  0  0  0  0  0  0  0
    6.5384  -13.4759   26.4547 C   0  0  0  0  0  0  0  0  0  0  0  0
    7.4337  -12.6302   27.1020 C   0  0  0  0  0  0  0  0  0  0  0  0
    8.7772  -12.8847   27.1020 C   0  0  0  0  0  0  0  0  0  0  0  0
   10.5077  -15.9636   28.1789 C   0  0  0  0  0  0  0  0  0  0  0  0
    9.6715  -17.0491   28.3339 O   0  0  0  0  0  0  0  0  0  0  0  0
   10.7633  -15.2788   29.1873 O   0  0  0  0  0  0  0  0  0  0  0  0
  2  1  1  1
  3  2  1  0
  4  5  2  0
  4  3  1  0
  6  5  1  0
  7  6  2  0
  8  7  1  0
  8  9  2  0
  9  4  1  0
 10 11  2  0
 10  2  1  0
 12 10  1  0
 13 12  1  0
 13 14  1  6
 15 14  1  0
 16 15  2  0
 17 13  1  0
 18 17  2  0
 19 15  1  0
 20 17  1  0
 21 20  1  0
 21 22  1  6
 23 22  1  0
 24 23  2  0
 25 24  1  0
 26 25  2  0
 26 27  1  0
 27 28  2  0
 28 23  1  0
 29 21  1  0
 29 30  1  0
 31 29  2  0
M  END
$$$$
