FDF.pdb
     RDKit          3D

 31 32  0  0  1  0  0  0  0  0999 V2000
    5.9972  -18.3490   21.3643 N   0  0  0  0  0  0  0  0  0  0  0  0
    6.8532  -17.1964   21.3717 C   0  0  1  0  0  0  0  0  0  0  0  0
    6.1652  -15.9634   21.8754 C   0  0  0  0  0  0  0  0  0  0  0  0
    6.9550  -14.7309   21.7511 C   0  0  0  0  0  0  0  0  0  0  0  0
    7.4467  -14.1387   22.8940 C   0  0  0  0  0  0  0  0  0  0  0  0
    8.2025  -12.9654   22.8439 C   0  0  0  0  0  0  0  0  0  0  0  0
    8.4757  -12.3672   21.6290 C   0  0  0  0  0  0  0  0  0  0  0  0
    7.9868  -12.9560   20.4915 C   0  0  0  0  0  0  0  0  0  0  0  0
    7.2325  -14.1285   20.5531 C   0  0  0  0  0  0  0  0  0  0  0  0
    8.0425  -17.4103   22.2721 C   0  0  0  0  0  0  0  0  0  0  0  0
    7.9031  -17.8891   23.4259 O   0  0  0  0  0  0  0  0  0  0  0  0
    9.3637  -17.0826   21.8594 N   0  0  0  0  0  0  0  0  0  0  0  0
   10.5238  -17.2685   22.7185 C   0  0  1  0  0  0  0  0  0  0  0  0
   11.7756  -17.4676   21.9416 C   0  0  0  0  0  0  0  0  0  0  0  0
   11.5623  -18.4853   20.8964 C   0  0  0  0  0  0  0  0  0  0  0  0
   10.9197  -19.5499   21.0653 O   0  0  0  0  0  0  0  0  0  0  0  0
   10.6631  -16.1888   23.6962 C   0  0  0  0  0  0  0  0  0  0  0  0
   11.2025  -15.0829   23.4322 O   0  0  0  0  0  0  0  0  0  0  0  0
   12.1051  -18.2575   19.6400 O   0  0  0  0  0  0  0  0  0  0  0  0
   10.1536  -16.4196   25.0171 N   0  0  0  0  0  0  0  0  0  0  0  0
   10.7449  -15.6895   26.1532 C   0  0  1  0  0  0  0  0  0  0  0  0
   10.4356  -14.2203   26.0201 C   0  0  0  0  0  0  0  0  0  0  0  0
    8.9821  -13.9984   26.0310 C   0  0  0  0  0  0  0  0  0  0  0  0
    8.1207  -14.5104   25.1039 C   0  0  0  0  0  0  0  0  0  0  0  0
    6.7530  -14.2709   25.1782 C   0  0  0  0  0  0  0  0  0  0  0  0
    6.2164  -13.5047   26.1942 C   0  0  0  0  0  0  0  0  0  0  0  0
    7.1016  -12.9867   27.1344 C   0  0  0  0  0  0  0  0  0  0  0  0
    8.4450  -13.2280   27.0528 C   0  0  0  0  0  0  0  0  0  0  0  0
   10.1379  -16.2175   27.3821 C   0  0  0  0  0  0  0  0  0  0  0  0
   10.5422  -15.7581   28.6178 O   0  0  0  0  0  0  0  0  0  0  0  0
    9.2479  -17.0881   27.3490 O   0  0  0  0  0  0  0  0  0  0  0  0
  2  1  1  1
  3  2  1  0
  4  5  2  0
  4  3  1  0
  6  5  1  0
  7  6  2  0
  8  7  1  0
  8  9  2  0
  9  4  1  0
 10 11  2  0
 10  2  1  0
 12 10  1  0
 13 12  1  0
 13 14  1  6
 15 14  1  0
 16 15  2  0
 17 13  1  0
 18 17  2  0
 19 15  1  0
 20 17  1  0
 21 20  1  0
 21 22  1  6
 23 22  1  0
 24 23  2  0
 25 24  1  0
 26 25  2  0
 26 27  1  0
 27 28  2  0
 28 23  1  0
 29 21  1  0
 29 30  1  0
 31 29  2  0
M  END
$$$$
