FDF.pdb
     RDKit          3D

 31 32  0  0  1  0  0  0  0  0999 V2000
    6.2505  -17.8412   22.9076 N   0  0  0  0  0  0  0  0  0  0  0  0
    7.1211  -16.7899   23.3527 C   0  0  1  0  0  0  0  0  0  0  0  0
    6.7982  -16.3134   24.7369 C   0  0  0  0  0  0  0  0  0  0  0  0
    7.0295  -14.8795   24.9574 C   0  0  0  0  0  0  0  0  0  0  0  0
    6.4152  -14.2640   26.0264 C   0  0  0  0  0  0  0  0  0  0  0  0
    6.5927  -12.9040   26.2893 C   0  0  0  0  0  0  0  0  0  0  0  0
    7.3997  -12.1382   25.4704 C   0  0  0  0  0  0  0  0  0  0  0  0
    8.0112  -12.7500   24.4067 C   0  0  0  0  0  0  0  0  0  0  0  0
    7.8269  -14.1099   24.1531 C   0  0  0  0  0  0  0  0  0  0  0  0
    8.5544  -17.2536   23.3927 C   0  0  0  0  0  0  0  0  0  0  0  0
    8.8441  -18.4342   23.7123 O   0  0  0  0  0  0  0  0  0  0  0  0
    9.6331  -16.3832   23.0733 N   0  0  0  0  0  0  0  0  0  0  0  0
   11.0236  -16.8119   23.1030 C   0  0  1  0  0  0  0  0  0  0  0  0
   11.9294  -15.8371   22.4399 C   0  0  0  0  0  0  0  0  0  0  0  0
   12.2281  -16.2821   21.0664 C   0  0  0  0  0  0  0  0  0  0  0  0
   12.6519  -15.5308   20.1550 O   0  0  0  0  0  0  0  0  0  0  0  0
   11.4732  -17.1278   24.4592 C   0  0  0  0  0  0  0  0  0  0  0  0
   12.6862  -17.1860   24.7891 O   0  0  0  0  0  0  0  0  0  0  0  0
   12.0299  -17.6192   20.7535 O   0  0  0  0  0  0  0  0  0  0  0  0
   10.4671  -17.3810   25.4498 N   0  0  0  0  0  0  0  0  0  0  0  0
   10.8805  -17.7386   26.8189 C   0  0  1  0  0  0  0  0  0  0  0  0
    9.7956  -17.3452   27.7886 C   0  0  0  0  0  0  0  0  0  0  0  0
    9.8484  -15.9012   28.0603 C   0  0  0  0  0  0  0  0  0  0  0  0
   10.4620  -15.3467   29.1464 C   0  0  0  0  0  0  0  0  0  0  0  0
   10.4851  -13.9698   29.3389 C   0  0  0  0  0  0  0  0  0  0  0  0
    9.8865  -13.1125   28.4366 C   0  0  0  0  0  0  0  0  0  0  0  0
    9.2632  -13.6863   27.3329 C   0  0  0  0  0  0  0  0  0  0  0  0
    9.2461  -15.0416   27.1524 C   0  0  0  0  0  0  0  0  0  0  0  0
   11.0782  -19.1936   26.8553 C   0  0  0  0  0  0  0  0  0  0  0  0
   10.7384  -19.9752   25.7712 O   0  0  0  0  0  0  0  0  0  0  0  0
   11.5539  -19.7632   27.8555 O   0  0  0  0  0  0  0  0  0  0  0  0
  2  1  1  1
  3  2  1  0
  4  5  2  0
  4  3  1  0
  6  5  1  0
  7  6  2  0
  8  7  1  0
  8  9  2  0
  9  4  1  0
 10 11  2  0
 10  2  1  0
 12 10  1  0
 13 12  1  0
 13 14  1  1
 15 14  1  0
 16 15  2  0
 17 13  1  0
 18 17  2  0
 19 15  1  0
 20 17  1  0
 21 20  1  0
 21 22  1  1
 23 22  1  0
 24 23  2  0
 25 24  1  0
 26 25  2  0
 26 27  1  0
 27 28  2  0
 28 23  1  0
 29 21  1  0
 29 30  1  0
 31 29  2  0
M  END
$$$$
