FDF.pdb
     RDKit          3D

 31 32  0  0  1  0  0  0  0  0999 V2000
    5.9731  -17.2622   24.4814 N   0  0  0  0  0  0  0  0  0  0  0  0
    7.1437  -16.4312   24.4837 C   0  0  1  0  0  0  0  0  0  0  0  0
    7.4963  -15.9256   25.8502 C   0  0  0  0  0  0  0  0  0  0  0  0
    7.4181  -14.4662   25.9992 C   0  0  0  0  0  0  0  0  0  0  0  0
    8.2673  -13.6759   25.2555 C   0  0  0  0  0  0  0  0  0  0  0  0
    8.2442  -12.2829   25.3526 C   0  0  0  0  0  0  0  0  0  0  0  0
    7.3562  -11.6614   26.2090 C   0  0  0  0  0  0  0  0  0  0  0  0
    6.5110  -12.4472   26.9492 C   0  0  0  0  0  0  0  0  0  0  0  0
    6.5425  -13.8385   26.8443 C   0  0  0  0  0  0  0  0  0  0  0  0
    8.3492  -17.1915   23.9941 C   0  0  0  0  0  0  0  0  0  0  0  0
    8.5285  -18.3944   24.3114 O   0  0  0  0  0  0  0  0  0  0  0  0
    9.3286  -16.5865   23.1585 N   0  0  0  0  0  0  0  0  0  0  0  0
   10.7181  -17.0189   23.1369 C   0  0  1  0  0  0  0  0  0  0  0  0
   11.5174  -16.2997   22.1103 C   0  0  0  0  0  0  0  0  0  0  0  0
   12.6775  -17.1179   21.7121 C   0  0  0  0  0  0  0  0  0  0  0  0
   13.8313  -16.6639   21.5188 O   0  0  0  0  0  0  0  0  0  0  0  0
   11.3406  -16.9366   24.4586 C   0  0  0  0  0  0  0  0  0  0  0  0
   12.2287  -16.0950   24.7529 O   0  0  0  0  0  0  0  0  0  0  0  0
   12.4883  -18.4812   21.5376 O   0  0  0  0  0  0  0  0  0  0  0  0
   10.9046  -17.8698   25.4569 N   0  0  0  0  0  0  0  0  0  0  0  0
   11.4461  -17.7651   26.8240 C   0  0  1  0  0  0  0  0  0  0  0  0
   10.3101  -17.6072   27.8021 C   0  0  0  0  0  0  0  0  0  0  0  0
    9.7227  -16.2636   27.6947 C   0  0  0  0  0  0  0  0  0  0  0  0
   10.0046  -15.2328   28.5442 C   0  0  0  0  0  0  0  0  0  0  0  0
    9.4218  -13.9811   28.3802 C   0  0  0  0  0  0  0  0  0  0  0  0
    8.5350  -13.7357   27.3503 C   0  0  0  0  0  0  0  0  0  0  0  0
    8.2533  -14.7920   26.4896 C   0  0  0  0  0  0  0  0  0  0  0  0
    8.8317  -16.0194   26.6592 C   0  0  0  0  0  0  0  0  0  0  0  0
   12.1780  -19.0069   27.1061 C   0  0  0  0  0  0  0  0  0  0  0  0
   12.1595  -20.0519   26.2066 O   0  0  0  0  0  0  0  0  0  0  0  0
   12.8322  -19.1554   28.1554 O   0  0  0  0  0  0  0  0  0  0  0  0
  2  1  1  1
  3  2  1  0
  4  5  2  0
  4  3  1  0
  6  5  1  0
  7  6  2  0
  8  7  1  0
  8  9  2  0
  9  4  1  0
 10 11  2  0
 10  2  1  0
 12 10  1  0
 13 12  1  0
 13 14  1  6
 15 14  1  0
 16 15  2  0
 17 13  1  0
 18 17  2  0
 19 15  1  0
 20 17  1  0
 21 20  1  0
 21 22  1  1
 23 22  1  0
 24 23  2  0
 25 24  1  0
 26 25  2  0
 26 27  1  0
 27 28  2  0
 28 23  1  0
 29 21  1  0
 29 30  1  0
 31 29  2  0
M  END
$$$$
