FDF.pdb
     RDKit          3D

 31 32  0  0  1  0  0  0  0  0999 V2000
    6.2508  -16.8753   22.0882 N   0  0  0  0  0  0  0  0  0  0  0  0
    7.5165  -16.3591   21.6492 C   0  0  1  0  0  0  0  0  0  0  0  0
    7.5203  -14.8664   21.5109 C   0  0  0  0  0  0  0  0  0  0  0  0
    7.4144  -14.1362   22.7813 C   0  0  0  0  0  0  0  0  0  0  0  0
    6.1665  -13.9361   23.3306 C   0  0  0  0  0  0  0  0  0  0  0  0
    5.9980  -13.2485   24.5344 C   0  0  0  0  0  0  0  0  0  0  0  0
    7.0958  -12.7484   25.2076 C   0  0  0  0  0  0  0  0  0  0  0  0
    8.3375  -12.9472   24.6617 C   0  0  0  0  0  0  0  0  0  0  0  0
    8.4945  -13.6358   23.4580 C   0  0  0  0  0  0  0  0  0  0  0  0
    8.6083  -16.6916   22.6333 C   0  0  0  0  0  0  0  0  0  0  0  0
    8.3570  -17.3259   23.6890 O   0  0  0  0  0  0  0  0  0  0  0  0
    9.9595  -16.3059   22.4125 N   0  0  0  0  0  0  0  0  0  0  0  0
   11.0585  -16.7880   23.2359 C   0  0  1  0  0  0  0  0  0  0  0  0
   12.3826  -16.5630   22.5984 C   0  0  0  0  0  0  0  0  0  0  0  0
   12.5327  -17.4446   21.4263 C   0  0  0  0  0  0  0  0  0  0  0  0
   13.2812  -17.2017   20.4488 O   0  0  0  0  0  0  0  0  0  0  0  0
   11.0132  -16.2380   24.5911 C   0  0  0  0  0  0  0  0  0  0  0  0
   11.5364  -15.1383   24.9083 O   0  0  0  0  0  0  0  0  0  0  0  0
   11.8010  -18.6229   21.3951 O   0  0  0  0  0  0  0  0  0  0  0  0
   10.3343  -17.0041   25.5960 N   0  0  0  0  0  0  0  0  0  0  0  0
   10.4435  -16.5945   27.0079 C   0  0  1  0  0  0  0  0  0  0  0  0
    9.0799  -16.2151   27.5264 C   0  0  0  0  0  0  0  0  0  0  0  0
    8.8425  -14.7759   27.3421 C   0  0  0  0  0  0  0  0  0  0  0  0
    9.6346  -13.7945   27.8647 C   0  0  0  0  0  0  0  0  0  0  0  0
    9.3598  -12.4495   27.6432 C   0  0  0  0  0  0  0  0  0  0  0  0
    8.2736  -12.0579   26.8856 C   0  0  0  0  0  0  0  0  0  0  0  0
    7.4717  -13.0647   26.3572 C   0  0  0  0  0  0  0  0  0  0  0  0
    7.7503  -14.3847   26.5805 C   0  0  0  0  0  0  0  0  0  0  0  0
   10.9621  -17.7429   27.7626 C   0  0  0  0  0  0  0  0  0  0  0  0
   11.1392  -18.9644   27.1477 O   0  0  0  0  0  0  0  0  0  0  0  0
   11.2557  -17.6524   28.9696 O   0  0  0  0  0  0  0  0  0  0  0  0
  2  1  1  1
  3  2  1  0
  4  5  2  0
  4  3  1  0
  6  5  1  0
  7  6  2  0
  8  7  1  0
  8  9  2  0
  9  4  1  0
 10 11  2  0
 10  2  1  0
 12 10  1  0
 13 12  1  0
 13 14  1  6
 15 14  1  0
 16 15  2  0
 17 13  1  0
 18 17  2  0
 19 15  1  0
 20 17  1  0
 21 20  1  0
 21 22  1  1
 23 22  1  0
 24 23  2  0
 25 24  1  0
 26 25  2  0
 26 27  1  0
 27 28  2  0
 28 23  1  0
 29 21  1  0
 29 30  1  0
 31 29  2  0
M  END
$$$$
