FDF.pdb
     RDKit          3D

 31 32  0  0  1  0  0  0  0  0999 V2000
    6.9900  -19.9894   24.1282 N   0  0  0  0  0  0  0  0  0  0  0  0
    7.3168  -19.1793   22.9888 C   0  0  1  0  0  0  0  0  0  0  0  0
    6.4036  -18.0010   22.8310 C   0  0  0  0  0  0  0  0  0  0  0  0
    6.4408  -17.0471   23.9477 C   0  0  0  0  0  0  0  0  0  0  0  0
    6.7136  -15.7228   23.6816 C   0  0  0  0  0  0  0  0  0  0  0  0
    6.7652  -14.7671   24.6986 C   0  0  0  0  0  0  0  0  0  0  0  0
    6.5404  -15.1367   26.0105 C   0  0  0  0  0  0  0  0  0  0  0  0
    6.2690  -16.4541   26.2759 C   0  0  0  0  0  0  0  0  0  0  0  0
    6.2198  -17.4010   25.2519 C   0  0  0  0  0  0  0  0  0  0  0  0
    8.7101  -18.6172   23.1050 C   0  0  0  0  0  0  0  0  0  0  0  0
    9.4872  -18.9968   24.0171 O   0  0  0  0  0  0  0  0  0  0  0  0
    9.2029  -17.6410   22.1953 N   0  0  0  0  0  0  0  0  0  0  0  0
   10.5479  -17.0923   22.2846 C   0  0  1  0  0  0  0  0  0  0  0  0
   10.9704  -16.4251   21.0250 C   0  0  0  0  0  0  0  0  0  0  0  0
   11.2909  -17.4378   20.0026 C   0  0  0  0  0  0  0  0  0  0  0  0
   11.5027  -18.6500   20.2486 O   0  0  0  0  0  0  0  0  0  0  0  0
   10.7063  -16.2092   23.4407 C   0  0  0  0  0  0  0  0  0  0  0  0
   10.3163  -15.0128   23.4549 O   0  0  0  0  0  0  0  0  0  0  0  0
   11.3649  -17.0309   18.6783 O   0  0  0  0  0  0  0  0  0  0  0  0
   11.3400  -16.7511   24.6079 N   0  0  0  0  0  0  0  0  0  0  0  0
   11.1014  -16.1147   25.9161 C   0  0  1  0  0  0  0  0  0  0  0  0
    9.6213  -16.0943   26.2008 C   0  0  0  0  0  0  0  0  0  0  0  0
    9.1410  -14.7101   26.3237 C   0  0  0  0  0  0  0  0  0  0  0  0
    8.5531  -14.1986   27.4446 C   0  0  0  0  0  0  0  0  0  0  0  0
    8.1301  -12.8751   27.4991 C   0  0  0  0  0  0  0  0  0  0  0  0
    8.2897  -12.0295   26.4189 C   0  0  0  0  0  0  0  0  0  0  0  0
    8.8894  -12.5593   25.2807 C   0  0  0  0  0  0  0  0  0  0  0  0
    9.3022  -13.8622   25.2370 C   0  0  0  0  0  0  0  0  0  0  0  0
   11.7935  -16.9189   26.9317 C   0  0  0  0  0  0  0  0  0  0  0  0
   12.2769  -18.1732   26.6239 O   0  0  0  0  0  0  0  0  0  0  0  0
   11.9646  -16.4992   28.0918 O   0  0  0  0  0  0  0  0  0  0  0  0
  2  1  1  1
  3  2  1  0
  4  5  2  0
  4  3  1  0
  6  5  1  0
  7  6  2  0
  8  7  1  0
  8  9  2  0
  9  4  1  0
 10 11  2  0
 10  2  1  0
 12 10  1  0
 13 12  1  0
 13 14  1  6
 15 14  1  0
 16 15  2  0
 17 13  1  0
 18 17  2  0
 19 15  1  0
 20 17  1  0
 21 20  1  0
 21 22  1  1
 23 22  1  0
 24 23  2  0
 25 24  1  0
 26 25  2  0
 26 27  1  0
 27 28  2  0
 28 23  1  0
 29 21  1  0
 29 30  1  0
 31 29  2  0
M  END
$$$$
