FDF.pdb
     RDKit          3D

 31 32  0  0  1  0  0  0  0  0999 V2000
    9.8139  -16.4029   20.5722 N   0  0  0  0  0  0  0  0  0  0  0  0
    9.6926  -15.7061   21.8216 C   0  0  1  0  0  0  0  0  0  0  0  0
    8.3554  -15.0512   21.9956 C   0  0  0  0  0  0  0  0  0  0  0  0
    7.9688  -14.1538   20.8986 C   0  0  0  0  0  0  0  0  0  0  0  0
    8.6431  -12.9617   20.7463 C   0  0  0  0  0  0  0  0  0  0  0  0
    8.3227  -12.0644   19.7253 C   0  0  0  0  0  0  0  0  0  0  0  0
    7.3083  -12.3592   18.8351 C   0  0  0  0  0  0  0  0  0  0  0  0
    6.6371  -13.5451   18.9861 C   0  0  0  0  0  0  0  0  0  0  0  0
    6.9655  -14.4346   20.0100 C   0  0  0  0  0  0  0  0  0  0  0  0
    9.8521  -16.6492   22.9860 C   0  0  0  0  0  0  0  0  0  0  0  0
    9.1383  -16.5348   24.0142 O   0  0  0  0  0  0  0  0  0  0  0  0
   10.8092  -17.7015   22.9727 N   0  0  0  0  0  0  0  0  0  0  0  0
   11.2072  -18.4164   24.1763 C   0  0  1  0  0  0  0  0  0  0  0  0
   12.1326  -19.5427   23.8841 C   0  0  0  0  0  0  0  0  0  0  0  0
   11.6076  -20.3477   22.7661 C   0  0  0  0  0  0  0  0  0  0  0  0
   10.4674  -20.8712   22.7447 O   0  0  0  0  0  0  0  0  0  0  0  0
   11.7562  -17.5189   25.1933 C   0  0  0  0  0  0  0  0  0  0  0  0
   12.7215  -16.7404   24.9794 O   0  0  0  0  0  0  0  0  0  0  0  0
   12.4229  -20.5436   21.6607 O   0  0  0  0  0  0  0  0  0  0  0  0
   11.1513  -17.5404   26.4938 N   0  0  0  0  0  0  0  0  0  0  0  0
   11.6954  -16.6725   27.5540 C   0  0  1  0  0  0  0  0  0  0  0  0
   11.4006  -15.2319   27.2225 C   0  0  0  0  0  0  0  0  0  0  0  0
   10.0243  -14.8874   27.6083 C   0  0  0  0  0  0  0  0  0  0  0  0
    9.6879  -14.2630   28.7747 C   0  0  0  0  0  0  0  0  0  0  0  0
    8.3654  -13.9553   29.0745 C   0  0  0  0  0  0  0  0  0  0  0  0
    7.3432  -14.2714   28.2013 C   0  0  0  0  0  0  0  0  0  0  0  0
    7.6951  -14.9079   27.0152 C   0  0  0  0  0  0  0  0  0  0  0  0
    8.9987  -15.2061   26.7294 C   0  0  0  0  0  0  0  0  0  0  0  0
   11.0313  -17.0409   28.8112 C   0  0  0  0  0  0  0  0  0  0  0  0
   10.1091  -18.0656   28.8435 O   0  0  0  0  0  0  0  0  0  0  0  0
   11.2765  -16.4464   29.8778 O   0  0  0  0  0  0  0  0  0  0  0  0
  2  1  1  6
  3  2  1  0
  4  5  2  0
  4  3  1  0
  6  5  1  0
  7  6  2  0
  8  7  1  0
  8  9  2  0
  9  4  1  0
 10 11  2  0
 10  2  1  0
 12 10  1  0
 13 12  1  0
 13 14  1  6
 15 14  1  0
 16 15  2  0
 17 13  1  0
 18 17  2  0
 19 15  1  0
 20 17  1  0
 21 20  1  0
 21 22  1  6
 23 22  1  0
 24 23  2  0
 25 24  1  0
 26 25  2  0
 26 27  1  0
 27 28  2  0
 28 23  1  0
 29 21  1  0
 29 30  1  0
 31 29  2  0
M  END
$$$$
