FDF.pdb
     RDKit          3D

 31 32  0  0  1  0  0  0  0  0999 V2000
    5.9074  -18.0751   20.7029 N   0  0  0  0  0  0  0  0  0  0  0  0
    6.7769  -16.9342   20.7607 C   0  0  1  0  0  0  0  0  0  0  0  0
    6.0681  -15.6826   21.1830 C   0  0  0  0  0  0  0  0  0  0  0  0
    6.8839  -14.4634   21.1030 C   0  0  0  0  0  0  0  0  0  0  0  0
    7.2626  -13.9975   19.8627 C   0  0  0  0  0  0  0  0  0  0  0  0
    8.0393  -12.8459   19.7189 C   0  0  0  0  0  0  0  0  0  0  0  0
    8.4489  -12.1412   20.8342 C   0  0  0  0  0  0  0  0  0  0  0  0
    8.0725  -12.6042   22.0685 C   0  0  0  0  0  0  0  0  0  0  0  0
    7.2961  -13.7563   22.2007 C   0  0  0  0  0  0  0  0  0  0  0  0
    7.8841  -17.1466   21.7606 C   0  0  0  0  0  0  0  0  0  0  0  0
    7.6428  -17.6051   22.9058 O   0  0  0  0  0  0  0  0  0  0  0  0
    9.2391  -16.8403   21.4551 N   0  0  0  0  0  0  0  0  0  0  0  0
   10.3354  -17.1334   22.3664 C   0  0  1  0  0  0  0  0  0  0  0  0
   11.6594  -17.0820   21.6921 C   0  0  0  0  0  0  0  0  0  0  0  0
   11.6247  -17.8822   20.4543 C   0  0  0  0  0  0  0  0  0  0  0  0
   11.6156  -17.3966   19.2972 O   0  0  0  0  0  0  0  0  0  0  0  0
   10.3041  -16.2826   23.5565 C   0  0  0  0  0  0  0  0  0  0  0  0
   10.8722  -15.1615   23.6195 O   0  0  0  0  0  0  0  0  0  0  0  0
   11.6003  -19.2647   20.5687 O   0  0  0  0  0  0  0  0  0  0  0  0
    9.5852  -16.7664   24.6996 N   0  0  0  0  0  0  0  0  0  0  0  0
    9.7517  -16.0833   25.9953 C   0  0  1  0  0  0  0  0  0  0  0  0
    8.4088  -15.9486   26.6667 C   0  0  0  0  0  0  0  0  0  0  0  0
    7.8614  -14.6006   26.4545 C   0  0  0  0  0  0  0  0  0  0  0  0
    8.3295  -13.7204   25.5219 C   0  0  0  0  0  0  0  0  0  0  0  0
    7.7588  -12.4621   25.3650 C   0  0  0  0  0  0  0  0  0  0  0  0
    6.6962  -12.0573   26.1487 C   0  0  0  0  0  0  0  0  0  0  0  0
    6.2258  -12.9606   27.0967 C   0  0  0  0  0  0  0  0  0  0  0  0
    6.7938  -14.1958   27.2433 C   0  0  0  0  0  0  0  0  0  0  0  0
   10.6409  -16.9111   26.8206 C   0  0  0  0  0  0  0  0  0  0  0  0
   11.2353  -16.3907   27.9508 O   0  0  0  0  0  0  0  0  0  0  0  0
   10.8849  -18.0974   26.5301 O   0  0  0  0  0  0  0  0  0  0  0  0
  2  1  1  1
  3  2  1  0
  4  5  2  0
  4  3  1  0
  6  5  1  0
  7  6  2  0
  8  7  1  0
  8  9  2  0
  9  4  1  0
 10 11  2  0
 10  2  1  0
 12 10  1  0
 13 12  1  0
 13 14  1  6
 15 14  1  0
 16 15  2  0
 17 13  1  0
 18 17  2  0
 19 15  1  0
 20 17  1  0
 21 20  1  0
 21 22  1  1
 23 22  1  0
 24 23  2  0
 25 24  1  0
 26 25  2  0
 26 27  1  0
 27 28  2  0
 28 23  1  0
 29 21  1  0
 29 30  1  0
 31 29  2  0
M  END
$$$$
