FDF.pdb
     RDKit          3D

 31 32  0  0  1  0  0  0  0  0999 V2000
    6.5859  -17.3114   21.6533 N   0  0  0  0  0  0  0  0  0  0  0  0
    7.6958  -16.4439   21.9301 C   0  0  1  0  0  0  0  0  0  0  0  0
    7.2725  -15.1107   22.4693 C   0  0  0  0  0  0  0  0  0  0  0  0
    7.4288  -13.9945   21.5270 C   0  0  0  0  0  0  0  0  0  0  0  0
    8.6652  -13.3990   21.4016 C   0  0  0  0  0  0  0  0  0  0  0  0
    8.8789  -12.3329   20.5253 C   0  0  0  0  0  0  0  0  0  0  0  0
    7.8393  -11.8476   19.7558 C   0  0  0  0  0  0  0  0  0  0  0  0
    6.6090  -12.4397   19.8802 C   0  0  0  0  0  0  0  0  0  0  0  0
    6.4064  -13.5046   20.7591 C   0  0  0  0  0  0  0  0  0  0  0  0
    8.6081  -17.0452   22.9678 C   0  0  0  0  0  0  0  0  0  0  0  0
    8.1465  -17.7190   23.9232 O   0  0  0  0  0  0  0  0  0  0  0  0
   10.0196  -16.8783   22.9121 N   0  0  0  0  0  0  0  0  0  0  0  0
   10.9147  -17.4154   23.9263 C   0  0  1  0  0  0  0  0  0  0  0  0
   12.2739  -17.6916   23.3909 C   0  0  0  0  0  0  0  0  0  0  0  0
   12.7891  -18.9533   23.9535 C   0  0  0  0  0  0  0  0  0  0  0  0
   12.5548  -19.3570   25.1183 O   0  0  0  0  0  0  0  0  0  0  0  0
   10.9678  -16.5678   25.1180 C   0  0  0  0  0  0  0  0  0  0  0  0
   11.4544  -15.4073   25.1194 O   0  0  0  0  0  0  0  0  0  0  0  0
   13.5865  -19.7525   23.1471 O   0  0  0  0  0  0  0  0  0  0  0  0
   10.4337  -17.1026   26.3371 N   0  0  0  0  0  0  0  0  0  0  0  0
   10.5339  -16.3084   27.5750 C   0  0  1  0  0  0  0  0  0  0  0  0
    9.1497  -15.9699   28.0665 C   0  0  0  0  0  0  0  0  0  0  0  0
    8.5624  -14.8979   27.2495 C   0  0  0  0  0  0  0  0  0  0  0  0
    8.9605  -13.5929   27.2948 C   0  0  0  0  0  0  0  0  0  0  0  0
    8.3696  -12.6284   26.4860 C   0  0  0  0  0  0  0  0  0  0  0  0
    7.3566  -12.9570   25.6066 C   0  0  0  0  0  0  0  0  0  0  0  0
    6.9570  -14.2891   25.5673 C   0  0  0  0  0  0  0  0  0  0  0  0
    7.5445  -15.2303   26.3666 C   0  0  0  0  0  0  0  0  0  0  0  0
   11.2301  -17.1309   28.5730 C   0  0  0  0  0  0  0  0  0  0  0  0
   11.6356  -16.5851   29.7727 O   0  0  0  0  0  0  0  0  0  0  0  0
   11.4745  -18.3353   28.3709 O   0  0  0  0  0  0  0  0  0  0  0  0
  2  1  1  1
  3  2  1  0
  4  5  2  0
  4  3  1  0
  6  5  1  0
  7  6  2  0
  8  7  1  0
  8  9  2  0
  9  4  1  0
 10 11  2  0
 10  2  1  0
 12 10  1  0
 13 12  1  0
 13 14  1  6
 15 14  1  0
 16 15  2  0
 17 13  1  0
 18 17  2  0
 19 15  1  0
 20 17  1  0
 21 20  1  0
 21 22  1  1
 23 22  1  0
 24 23  2  0
 25 24  1  0
 26 25  2  0
 26 27  1  0
 27 28  2  0
 28 23  1  0
 29 21  1  0
 29 30  1  0
 31 29  2  0
M  END
$$$$
