MVL.pdb
     RDKit          3D

 24 23  0  0  1  0  0  0  0  0999 V2000
   19.6887  -17.7372  -11.4373 C   0  0  0  0  0  0  0  0  0  0  0  0
   18.5765  -16.9499  -12.6161 S   0  0  0  0  0  0  0  0  0  0  0  0
   18.6669  -17.6601  -14.2560 C   0  0  0  0  0  0  0  0  0  0  0  0
   19.8463  -18.5989  -14.3401 C   0  0  0  0  0  0  0  0  0  0  0  0
   20.0625  -19.1383  -15.7342 C   0  0  2  0  0  0  0  0  0  0  0  0
   19.0210  -20.1412  -15.9494 N   0  0  0  0  0  0  0  0  0  0  0  0
   21.3926  -19.7504  -15.8979 C   0  0  0  0  0  0  0  0  0  0  0  0
   21.6462  -20.9504  -15.5902 O   0  0  0  0  0  0  0  0  0  0  0  0
   25.9174  -19.7335  -17.8044 C   0  0  0  0  0  0  0  0  0  0  0  0
   24.5395  -19.1224  -17.7864 C   0  0  1  0  0  0  0  0  0  0  0  0
   23.7690  -19.6614  -18.9755 C   0  0  0  0  0  0  0  0  0  0  0  0
   23.8219  -19.5964  -16.5491 C   0  0  2  0  0  0  0  0  0  0  0  0
   22.4979  -19.0182  -16.4233 N   0  0  0  0  0  0  0  0  0  0  0  0
   24.6123  -19.4135  -15.3034 C   0  0  0  0  0  0  0  0  0  0  0  0
   24.8420  -18.2772  -14.8184 O   0  0  0  0  0  0  0  0  0  0  0  0
   25.9807  -22.1537  -10.3293 C   0  0  0  0  0  0  0  0  0  0  0  0
   25.5171  -20.7538  -10.8598 C   0  0  1  0  0  0  0  0  0  0  0  0
   26.6550  -19.8374  -10.5366 C   0  0  0  0  0  0  0  0  0  0  0  0
   25.1436  -20.8967  -12.2801 C   0  0  0  0  0  0  0  0  0  0  0  0
   25.9629  -20.3141  -13.3561 C   0  0  2  0  0  0  0  0  0  0  0  0
   25.1562  -20.5101  -14.5854 N   0  0  0  0  0  0  0  0  0  0  0  0
   27.2104  -21.0290  -13.6297 C   0  0  0  0  0  0  0  0  0  0  0  0
   27.2101  -22.0700  -14.3148 O   0  0  0  0  0  0  0  0  0  0  0  0
   28.4472  -20.5983  -13.1524 O   0  0  0  0  0  0  0  0  0  0  0  0
  2  1  1  0
  3  2  1  0
  4  3  1  0
  5  7  1  0
  5  4  1  0
  5  6  1  1
  7  8  2  0
 10  9  1  1
 10 11  1  0
 10 12  1  0
 12 13  1  1
 13  7  1  0
 14 12  1  0
 15 14  2  0
 17 16  1  6
 17 19  1  0
 18 17  1  0
 20 19  1  1
 20 21  1  0
 20 22  1  0
 21 14  1  0
 22 24  1  0
 23 22  2  0
M  END
$$$$
