MVL.pdb
     RDKit          3D

 24 23  0  0  1  0  0  0  0  0999 V2000
   19.9963  -19.9138  -14.0317 C   0  0  0  0  0  0  0  0  0  0  0  0
   19.3712  -19.4120  -15.6453 S   0  0  0  0  0  0  0  0  0  0  0  0
   20.6676  -19.0738  -16.8315 C   0  0  0  0  0  0  0  0  0  0  0  0
   21.9542  -19.7204  -16.3779 C   0  0  0  0  0  0  0  0  0  0  0  0
   23.1045  -19.4504  -17.3187 C   0  0  2  0  0  0  0  0  0  0  0  0
   22.7982  -20.1693  -18.5540 N   0  0  0  0  0  0  0  0  0  0  0  0
   24.3935  -19.9112  -16.7742 C   0  0  0  0  0  0  0  0  0  0  0  0
   24.8013  -21.1040  -16.8732 O   0  0  0  0  0  0  0  0  0  0  0  0
   28.5623  -18.9755  -14.2647 C   0  0  0  0  0  0  0  0  0  0  0  0
   27.3557  -18.3815  -14.9455 C   0  0  1  0  0  0  0  0  0  0  0  0
   27.8203  -17.6970  -16.2159 C   0  0  0  0  0  0  0  0  0  0  0  0
   26.4408  -19.5037  -15.3628 C   0  0  2  0  0  0  0  0  0  0  0  0
   25.2799  -19.0278  -16.0900 N   0  0  0  0  0  0  0  0  0  0  0  0
   26.0474  -20.3922  -14.2377 C   0  0  0  0  0  0  0  0  0  0  0  0
   26.5285  -21.5444  -14.0964 O   0  0  0  0  0  0  0  0  0  0  0  0
   25.9325  -19.5765   -8.6631 C   0  0  0  0  0  0  0  0  0  0  0  0
   25.7691  -20.7873   -9.6447 C   0  0  1  0  0  0  0  0  0  0  0  0
   24.5426  -21.4955   -9.1618 C   0  0  0  0  0  0  0  0  0  0  0  0
   25.7522  -20.2661  -11.0251 C   0  0  0  0  0  0  0  0  0  0  0  0
   24.8447  -20.8151  -12.0465 C   0  0  2  0  0  0  0  0  0  0  0  0
   25.1046  -19.9944  -13.2545 N   0  0  0  0  0  0  0  0  0  0  0  0
   23.4216  -20.6088  -11.7739 C   0  0  0  0  0  0  0  0  0  0  0  0
   22.8853  -19.5053  -11.9923 O   0  0  0  0  0  0  0  0  0  0  0  0
   22.5975  -21.6118  -11.2660 O   0  0  0  0  0  0  0  0  0  0  0  0
  2  1  1  0
  3  2  1  0
  4  3  1  0
  5  7  1  0
  5  4  1  0
  5  6  1  6
  7  8  2  0
 10  9  1  6
 10 11  1  0
 10 12  1  0
 12 13  1  1
 13  7  1  0
 14 12  1  0
 15 14  2  0
 17 16  1  1
 17 19  1  0
 18 17  1  0
 20 19  1  1
 20 21  1  0
 20 22  1  0
 21 14  1  0
 22 24  1  0
 23 22  2  0
M  END
$$$$
