MVL.pdb
     RDKit          3D

 24 23  0  0  1  0  0  0  0  0999 V2000
   25.1278  -15.3965  -16.8206 C   0  0  0  0  0  0  0  0  0  0  0  0
   26.7529  -15.0741  -16.1123 S   0  0  0  0  0  0  0  0  0  0  0  0
   27.6754  -16.5647  -15.7528 C   0  0  0  0  0  0  0  0  0  0  0  0
   26.7433  -17.6228  -15.2134 C   0  0  0  0  0  0  0  0  0  0  0  0
   27.4746  -18.8584  -14.7447 C   0  0  2  0  0  0  0  0  0  0  0  0
   28.0216  -19.4883  -15.9450 N   0  0  0  0  0  0  0  0  0  0  0  0
   26.5877  -19.8011  -14.0409 C   0  0  0  0  0  0  0  0  0  0  0  0
   26.0378  -20.7894  -14.6064 O   0  0  0  0  0  0  0  0  0  0  0  0
   24.4263  -21.3843   -9.8843 C   0  0  0  0  0  0  0  0  0  0  0  0
   25.4917  -20.5063  -10.4895 C   0  0  1  0  0  0  0  0  0  0  0  0
   26.8389  -21.1489  -10.2246 C   0  0  0  0  0  0  0  0  0  0  0  0
   25.3030  -20.4865  -11.9844 C   0  0  2  0  0  0  0  0  0  0  0  0
   26.2878  -19.6587  -12.6539 N   0  0  0  0  0  0  0  0  0  0  0  0
   23.9217  -20.1259  -12.3990 C   0  0  0  0  0  0  0  0  0  0  0  0
   23.4870  -18.9492  -12.3236 O   0  0  0  0  0  0  0  0  0  0  0  0
   20.5415  -21.1107  -16.9659 C   0  0  0  0  0  0  0  0  0  0  0  0
   20.2747  -20.7717  -15.4592 C   0  0  1  0  0  0  0  0  0  0  0  0
   19.0619  -21.5739  -15.1060 C   0  0  0  0  0  0  0  0  0  0  0  0
   21.5101  -21.0391  -14.6980 C   0  0  0  0  0  0  0  0  0  0  0  0
   21.6153  -20.7270  -13.2628 C   0  0  2  0  0  0  0  0  0  0  0  0
   23.0091  -21.0875  -12.9051 N   0  0  0  0  0  0  0  0  0  0  0  0
   20.7939  -21.5695  -12.3924 C   0  0  0  0  0  0  0  0  0  0  0  0
   21.1433  -22.7342  -12.1199 O   0  0  0  0  0  0  0  0  0  0  0  0
   19.5980  -21.1300  -11.8269 O   0  0  0  0  0  0  0  0  0  0  0  0
  2  1  1  0
  3  2  1  0
  4  3  1  0
  5  7  1  0
  5  4  1  0
  5  6  1  6
  7  8  2  0
 10  9  1  1
 10 11  1  0
 10 12  1  0
 12 13  1  6
 13  7  1  0
 14 12  1  0
 15 14  2  0
 17 16  1  6
 17 19  1  0
 18 17  1  0
 20 19  1  6
 20 21  1  0
 20 22  1  0
 21 14  1  0
 22 24  1  0
 23 22  2  0
M  END
$$$$
