MVL.pdb
     RDKit          3D

 24 23  0  0  1  0  0  0  0  0999 V2000
   20.6362  -20.8466  -10.5419 C   0  0  0  0  0  0  0  0  0  0  0  0
   20.5301  -19.3959  -11.6053 S   0  0  0  0  0  0  0  0  0  0  0  0
   21.9492  -19.2005  -12.6776 C   0  0  0  0  0  0  0  0  0  0  0  0
   23.0829  -20.0674  -12.1851 C   0  0  0  0  0  0  0  0  0  0  0  0
   24.3341  -19.9176  -13.0177 C   0  0  2  0  0  0  0  0  0  0  0  0
   23.9632  -20.2897  -14.3817 N   0  0  0  0  0  0  0  0  0  0  0  0
   25.4304  -20.7788  -12.5411 C   0  0  0  0  0  0  0  0  0  0  0  0
   25.4649  -22.0279  -12.7343 O   0  0  0  0  0  0  0  0  0  0  0  0
   29.9794  -21.5136  -10.9809 C   0  0  0  0  0  0  0  0  0  0  0  0
   28.9663  -20.5983  -11.6198 C   0  0  1  0  0  0  0  0  0  0  0  0
   29.1131  -20.7096  -13.1246 C   0  0  0  0  0  0  0  0  0  0  0  0
   27.5867  -21.0979  -11.2769 C   0  0  2  0  0  0  0  0  0  0  0  0
   26.5423  -20.2511  -11.8204 N   0  0  0  0  0  0  0  0  0  0  0  0
   27.3900  -21.3328   -9.8222 C   0  0  0  0  0  0  0  0  0  0  0  0
   27.9191  -22.3034   -9.2246 O   0  0  0  0  0  0  0  0  0  0  0  0
   28.5251  -18.2164   -5.7955 C   0  0  0  0  0  0  0  0  0  0  0  0
   28.2457  -19.6168   -6.4412 C   0  0  1  0  0  0  0  0  0  0  0  0
   28.7099  -20.6003   -5.4135 C   0  0  0  0  0  0  0  0  0  0  0  0
   26.8254  -19.6695   -6.8376 C   0  0  0  0  0  0  0  0  0  0  0  0
   26.2798  -20.8010   -7.6060 C   0  0  2  0  0  0  0  0  0  0  0  0
   26.5931  -20.4762   -9.0191 N   0  0  0  0  0  0  0  0  0  0  0  0
   24.8206  -20.9106   -7.5798 C   0  0  0  0  0  0  0  0  0  0  0  0
   24.1354  -20.5160   -8.5429 O   0  0  0  0  0  0  0  0  0  0  0  0
   24.1239  -21.4520   -6.5006 O   0  0  0  0  0  0  0  0  0  0  0  0
  2  1  1  0
  3  2  1  0
  4  3  1  0
  5  7  1  0
  5  4  1  0
  5  6  1  6
  7  8  2  0
 10  9  1  1
 10 11  1  0
 10 12  1  0
 12 13  1  1
 13  7  1  0
 14 12  1  0
 15 14  2  0
 17 16  1  1
 17 19  1  0
 18 17  1  0
 20 19  1  1
 20 21  1  0
 20 22  1  0
 21 14  1  0
 22 24  1  0
 23 22  2  0
M  END
$$$$
