MVL.pdb
     RDKit          3D

 24 23  0  0  1  0  0  0  0  0999 V2000
   24.1741  -26.5247  -15.6154 C   0  0  0  0  0  0  0  0  0  0  0  0
   24.6378  -26.4339  -17.3542 S   0  0  0  0  0  0  0  0  0  0  0  0
   26.3948  -26.2067  -17.6060 C   0  0  0  0  0  0  0  0  0  0  0  0
   26.9501  -25.3010  -16.5334 C   0  0  0  0  0  0  0  0  0  0  0  0
   27.4310  -23.9779  -17.0805 C   0  0  2  0  0  0  0  0  0  0  0  0
   28.7700  -24.2200  -17.6145 N   0  0  0  0  0  0  0  0  0  0  0  0
   27.4832  -22.9299  -16.0463 C   0  0  0  0  0  0  0  0  0  0  0  0
   28.4988  -22.7194  -15.3231 O   0  0  0  0  0  0  0  0  0  0  0  0
   26.9909  -19.3528  -16.6153 C   0  0  0  0  0  0  0  0  0  0  0  0
   26.0443  -19.6551  -15.4819 C   0  0  1  0  0  0  0  0  0  0  0  0
   24.6596  -19.8571  -16.0650 C   0  0  0  0  0  0  0  0  0  0  0  0
   26.4503  -20.9641  -14.8555 C   0  0  2  0  0  0  0  0  0  0  0  0
   26.3744  -22.0702  -15.7903 N   0  0  0  0  0  0  0  0  0  0  0  0
   25.7177  -21.2675  -13.5980 C   0  0  0  0  0  0  0  0  0  0  0  0
   24.7200  -22.0312  -13.5735 O   0  0  0  0  0  0  0  0  0  0  0  0
   25.2653  -21.1851   -7.9633 C   0  0  0  0  0  0  0  0  0  0  0  0
   25.3637  -19.8514   -8.7805 C   0  0  1  0  0  0  0  0  0  0  0  0
   26.0858  -18.9089   -7.8698 C   0  0  0  0  0  0  0  0  0  0  0  0
   25.9905  -20.1507  -10.0824 C   0  0  0  0  0  0  0  0  0  0  0  0
   25.2763  -20.9014  -11.1286 C   0  0  2  0  0  0  0  0  0  0  0  0
   26.0993  -20.7138  -12.3484 N   0  0  0  0  0  0  0  0  0  0  0  0
   23.9694  -20.3513  -11.4914 C   0  0  0  0  0  0  0  0  0  0  0  0
   22.9194  -20.8815  -11.0801 O   0  0  0  0  0  0  0  0  0  0  0  0
   23.8229  -19.2254  -12.3000 O   0  0  0  0  0  0  0  0  0  0  0  0
  2  1  1  0
  3  2  1  0
  4  3  1  0
  5  7  1  0
  5  4  1  0
  5  6  1  1
  7  8  2  0
 10  9  1  6
 10 11  1  0
 10 12  1  0
 12 13  1  6
 13  7  1  0
 14 12  1  0
 15 14  2  0
 17 16  1  1
 17 19  1  0
 18 17  1  0
 20 19  1  1
 20 21  1  0
 20 22  1  0
 21 14  1  0
 22 24  1  0
 23 22  2  0
M  END
$$$$
