MVL.pdb
     RDKit          3D

 24 23  0  0  1  0  0  0  0  0999 V2000
   12.9677  -27.8224    0.6740 C   0  0  0  0  0  0  0  0  0  0  0  0
   13.1502  -27.1524   -0.9886 S   0  0  0  0  0  0  0  0  0  0  0  0
   12.9433  -25.3765   -1.0615 C   0  0  0  0  0  0  0  0  0  0  0  0
   14.0870  -24.7007   -0.3442 C   0  0  0  0  0  0  0  0  0  0  0  0
   14.0007  -23.1939   -0.4014 C   0  0  2  0  0  0  0  0  0  0  0  0
   14.2045  -22.8266   -1.8015 N   0  0  0  0  0  0  0  0  0  0  0  0
   15.0168  -22.5421    0.4432 C   0  0  0  0  0  0  0  0  0  0  0  0
   16.1668  -22.2249    0.0242 O   0  0  0  0  0  0  0  0  0  0  0  0
   16.2606  -19.7963    4.2560 C   0  0  0  0  0  0  0  0  0  0  0  0
   15.2124  -20.3293    3.3130 C   0  0  1  0  0  0  0  0  0  0  0  0
   14.9956  -19.3019    2.2195 C   0  0  0  0  0  0  0  0  0  0  0  0
   15.7529  -21.5686    2.6477 C   0  0  2  0  0  0  0  0  0  0  0  0
   14.7650  -22.2206    1.8097 N   0  0  0  0  0  0  0  0  0  0  0  0
   16.3704  -22.5273    3.6014 C   0  0  0  0  0  0  0  0  0  0  0  0
   15.6800  -23.2670    4.3466 O   0  0  0  0  0  0  0  0  0  0  0  0
   21.0053  -25.2569    2.5696 C   0  0  0  0  0  0  0  0  0  0  0  0
   19.6133  -25.1806    3.2856 C   0  0  1  0  0  0  0  0  0  0  0  0
   19.4343  -26.5345    3.8973 C   0  0  0  0  0  0  0  0  0  0  0  0
   19.6238  -24.0204    4.1973 C   0  0  0  0  0  0  0  0  0  0  0  0
   18.3842  -23.4984    4.7966 C   0  0  2  0  0  0  0  0  0  0  0  0
   17.7769  -22.6663    3.7293 N   0  0  0  0  0  0  0  0  0  0  0  0
   18.5874  -22.5647    5.9053 C   0  0  0  0  0  0  0  0  0  0  0  0
   18.7696  -21.3509    5.6897 O   0  0  0  0  0  0  0  0  0  0  0  0
   18.5885  -22.9670    7.2399 O   0  0  0  0  0  0  0  0  0  0  0  0
  2  1  1  0
  3  2  1  0
  4  3  1  0
  5  7  1  0
  5  4  1  0
  5  6  1  6
  7  8  2  0
 10  9  1  1
 10 11  1  0
 10 12  1  0
 12 13  1  1
 13  7  1  0
 14 12  1  0
 15 14  2  0
 17 16  1  1
 17 19  1  0
 18 17  1  0
 20 19  1  6
 20 21  1  0
 20 22  1  0
 21 14  1  0
 22 24  1  0
 23 22  2  0
M  END
$$$$
