MVL.pdb
     RDKit          3D

 24 23  0  0  1  0  0  0  0  0999 V2000
   26.1512  -19.4347   -3.2754 C   0  0  0  0  0  0  0  0  0  0  0  0
   27.6609  -20.3806   -3.5451 S   0  0  0  0  0  0  0  0  0  0  0  0
   28.4337  -20.0433   -5.1234 C   0  0  0  0  0  0  0  0  0  0  0  0
   27.3914  -20.0631   -6.2154 C   0  0  0  0  0  0  0  0  0  0  0  0
   27.9684  -19.7529   -7.5763 C   0  0  2  0  0  0  0  0  0  0  0  0
   28.4976  -18.3928   -7.4944 N   0  0  0  0  0  0  0  0  0  0  0  0
   26.9581  -19.8367   -8.6454 C   0  0  0  0  0  0  0  0  0  0  0  0
   26.0987  -18.9343   -8.8594 O   0  0  0  0  0  0  0  0  0  0  0  0
   26.5841  -21.3146  -13.2495 C   0  0  0  0  0  0  0  0  0  0  0  0
   27.1804  -21.5592  -11.8868 C   0  0  1  0  0  0  0  0  0  0  0  0
   28.5456  -20.9015  -11.8445 C   0  0  0  0  0  0  0  0  0  0  0  0
   26.3271  -20.8621  -10.8589 C   0  0  2  0  0  0  0  0  0  0  0  0
   26.8832  -20.9584   -9.5230 N   0  0  0  0  0  0  0  0  0  0  0  0
   24.9044  -21.2924  -10.8848 C   0  0  0  0  0  0  0  0  0  0  0  0
   24.5154  -22.3486  -10.3258 O   0  0  0  0  0  0  0  0  0  0  0  0
   19.6986  -20.2137  -10.0793 C   0  0  0  0  0  0  0  0  0  0  0  0
   20.2237  -19.7662  -11.4865 C   0  0  1  0  0  0  0  0  0  0  0  0
   19.5302  -18.4660  -11.7467 C   0  0  0  0  0  0  0  0  0  0  0  0
   21.6987  -19.7524  -11.4481 C   0  0  0  0  0  0  0  0  0  0  0  0
   22.4859  -20.9896  -11.5819 C   0  0  2  0  0  0  0  0  0  0  0  0
   23.8982  -20.5378  -11.5420 N   0  0  0  0  0  0  0  0  0  0  0  0
   22.3608  -21.6564  -12.8788 C   0  0  0  0  0  0  0  0  0  0  0  0
   21.5528  -22.5917  -13.0382 O   0  0  0  0  0  0  0  0  0  0  0  0
   23.1198  -21.2934  -13.9902 O   0  0  0  0  0  0  0  0  0  0  0  0
  2  1  1  0
  3  2  1  0
  4  3  1  0
  5  7  1  0
  5  4  1  0
  5  6  1  1
  7  8  2  0
 10  9  1  6
 10 11  1  0
 10 12  1  0
 12 13  1  1
 13  7  1  0
 14 12  1  0
 15 14  2  0
 17 16  1  1
 17 19  1  0
 18 17  1  0
 20 19  1  6
 20 21  1  0
 20 22  1  0
 21 14  1  0
 22 24  1  0
 23 22  2  0
M  END
$$$$
