MVL.pdb
     RDKit          3D

 24 23  0  0  1  0  0  0  0  0999 V2000
   18.4410  -19.6175   -9.9197 C   0  0  0  0  0  0  0  0  0  0  0  0
   18.1124  -18.4882  -11.2847 S   0  0  0  0  0  0  0  0  0  0  0  0
   19.1036  -18.8260  -12.7357 C   0  0  0  0  0  0  0  0  0  0  0  0
   20.2017  -19.8015  -12.3864 C   0  0  0  0  0  0  0  0  0  0  0  0
   21.1262  -20.0775  -13.5484 C   0  0  2  0  0  0  0  0  0  0  0  0
   20.3705  -20.9112  -14.4815 N   0  0  0  0  0  0  0  0  0  0  0  0
   22.3558  -20.7745  -13.1326 C   0  0  0  0  0  0  0  0  0  0  0  0
   22.3547  -21.9093  -12.5749 O   0  0  0  0  0  0  0  0  0  0  0  0
   26.9980  -21.8643  -13.7058 C   0  0  0  0  0  0  0  0  0  0  0  0
   25.7291  -21.2031  -14.1799 C   0  0  1  0  0  0  0  0  0  0  0  0
   24.9676  -22.1998  -15.0315 C   0  0  0  0  0  0  0  0  0  0  0  0
   24.8676  -20.9050  -12.9800 C   0  0  2  0  0  0  0  0  0  0  0  0
   23.6479  -20.2061  -13.3363 N   0  0  0  0  0  0  0  0  0  0  0  0
   25.5963  -20.2010  -11.8922 C   0  0  0  0  0  0  0  0  0  0  0  0
   25.8435  -18.9699  -11.9413 O   0  0  0  0  0  0  0  0  0  0  0  0
   28.6100  -20.4920   -7.1529 C   0  0  0  0  0  0  0  0  0  0  0  0
   27.1288  -19.9886   -7.2473 C   0  0  1  0  0  0  0  0  0  0  0  0
   27.2364  -18.4980   -7.1724 C   0  0  0  0  0  0  0  0  0  0  0  0
   26.5199  -20.5645   -8.4617 C   0  0  0  0  0  0  0  0  0  0  0  0
   27.0352  -20.2532   -9.8056 C   0  0  2  0  0  0  0  0  0  0  0  0
   26.0577  -20.8753  -10.7319 N   0  0  0  0  0  0  0  0  0  0  0  0
   28.3047  -20.9009  -10.1385 C   0  0  0  0  0  0  0  0  0  0  0  0
   28.3729  -22.1383  -10.2690 O   0  0  0  0  0  0  0  0  0  0  0  0
   29.4883  -20.1890  -10.3268 O   0  0  0  0  0  0  0  0  0  0  0  0
  2  1  1  0
  3  2  1  0
  4  3  1  0
  5  7  1  0
  5  4  1  0
  5  6  1  6
  7  8  2  0
 10  9  1  1
 10 11  1  0
 10 12  1  0
 12 13  1  6
 13  7  1  0
 14 12  1  0
 15 14  2  0
 17 16  1  6
 17 19  1  0
 18 17  1  0
 20 19  1  1
 20 21  1  0
 20 22  1  0
 21 14  1  0
 22 24  1  0
 23 22  2  0
M  END
$$$$
