MVL.pdb
     RDKit          3D

 24 23  0  0  1  0  0  0  0  0999 V2000
   30.5774  -17.0796  -14.9849 C   0  0  0  0  0  0  0  0  0  0  0  0
   30.0692  -18.0664  -16.4042 S   0  0  0  0  0  0  0  0  0  0  0  0
   28.4886  -18.8732  -16.1745 C   0  0  0  0  0  0  0  0  0  0  0  0
   28.4049  -19.4411  -14.7781 C   0  0  0  0  0  0  0  0  0  0  0  0
   27.0903  -20.1345  -14.5097 C   0  0  2  0  0  0  0  0  0  0  0  0
   26.1766  -19.6986  -15.5642 N   0  0  0  0  0  0  0  0  0  0  0  0
   26.5353  -19.7911  -13.1888 C   0  0  0  0  0  0  0  0  0  0  0  0
   26.3169  -18.6027  -12.8162 O   0  0  0  0  0  0  0  0  0  0  0  0
   23.4448  -20.5503   -9.6909 C   0  0  0  0  0  0  0  0  0  0  0  0
   24.0997  -20.9937  -10.9742 C   0  0  1  0  0  0  0  0  0  0  0  0
   23.3777  -20.3254  -12.1276 C   0  0  0  0  0  0  0  0  0  0  0  0
   25.5169  -20.4818  -10.9899 C   0  0  2  0  0  0  0  0  0  0  0  0
   26.2021  -20.7926  -12.2297 N   0  0  0  0  0  0  0  0  0  0  0  0
   26.3118  -20.9126   -9.8099 C   0  0  0  0  0  0  0  0  0  0  0  0
   26.8964  -22.0242   -9.7677 O   0  0  0  0  0  0  0  0  0  0  0  0
   30.1764  -19.7000   -5.9618 C   0  0  0  0  0  0  0  0  0  0  0  0
   28.6454  -19.5726   -5.6520 C   0  0  1  0  0  0  0  0  0  0  0  0
   28.5478  -18.3947   -4.7343 C   0  0  0  0  0  0  0  0  0  0  0  0
   27.9178  -19.4962   -6.9334 C   0  0  0  0  0  0  0  0  0  0  0  0
   27.0811  -20.6087   -7.4135 C   0  0  2  0  0  0  0  0  0  0  0  0
   26.4594  -20.0959   -8.6589 N   0  0  0  0  0  0  0  0  0  0  0  0
   25.9423  -20.9325   -6.5530 C   0  0  0  0  0  0  0  0  0  0  0  0
   24.8645  -20.3173   -6.6655 O   0  0  0  0  0  0  0  0  0  0  0  0
   25.9925  -21.9272   -5.5777 O   0  0  0  0  0  0  0  0  0  0  0  0
  2  1  1  0
  3  2  1  0
  4  3  1  0
  5  7  1  0
  5  4  1  0
  5  6  1  6
  7  8  2  0
 10  9  1  1
 10 11  1  0
 10 12  1  0
 12 13  1  6
 13  7  1  0
 14 12  1  0
 15 14  2  0
 17 16  1  6
 17 19  1  0
 18 17  1  0
 20 19  1  1
 20 21  1  0
 20 22  1  0
 21 14  1  0
 22 24  1  0
 23 22  2  0
M  END
$$$$
