MVL.pdb
     RDKit          3D

 24 23  0  0  1  0  0  0  0  0999 V2000
   20.0087  -22.1036  -13.7007 C   0  0  0  0  0  0  0  0  0  0  0  0
   19.7248  -20.3249  -13.7444 S   0  0  0  0  0  0  0  0  0  0  0  0
   20.9004  -19.4466  -14.7684 C   0  0  0  0  0  0  0  0  0  0  0  0
   22.1488  -20.2784  -14.9386 C   0  0  0  0  0  0  0  0  0  0  0  0
   23.2614  -19.5239  -15.6270 C   0  0  2  0  0  0  0  0  0  0  0  0
   23.0414  -19.6929  -17.0622 N   0  0  0  0  0  0  0  0  0  0  0  0
   24.5943  -20.0321  -15.2586 C   0  0  0  0  0  0  0  0  0  0  0  0
   25.0712  -21.1148  -15.7048 O   0  0  0  0  0  0  0  0  0  0  0  0
   27.9500  -18.9685  -15.7712 C   0  0  0  0  0  0  0  0  0  0  0  0
   27.8861  -19.0403  -14.2669 C   0  0  1  0  0  0  0  0  0  0  0  0
   27.6297  -17.6427  -13.7386 C   0  0  0  0  0  0  0  0  0  0  0  0
   26.6967  -19.8798  -13.8780 C   0  0  2  0  0  0  0  0  0  0  0  0
   25.4474  -19.3242  -14.3612 N   0  0  0  0  0  0  0  0  0  0  0  0
   26.6319  -20.1703  -12.4215 C   0  0  0  0  0  0  0  0  0  0  0  0
   27.3477  -19.5628  -11.5864 O   0  0  0  0  0  0  0  0  0  0  0  0
   27.3684  -18.8943   -8.0695 C   0  0  0  0  0  0  0  0  0  0  0  0
   27.2787  -20.1682   -8.9779 C   0  0  1  0  0  0  0  0  0  0  0  0
   27.2671  -21.3129   -8.0143 C   0  0  0  0  0  0  0  0  0  0  0  0
   26.1124  -20.0205   -9.8698 C   0  0  0  0  0  0  0  0  0  0  0  0
   25.4236  -21.1903  -10.4399 C   0  0  2  0  0  0  0  0  0  0  0  0
   25.7582  -21.1513  -11.8846 N   0  0  0  0  0  0  0  0  0  0  0  0
   23.9623  -21.1139  -10.4096 C   0  0  0  0  0  0  0  0  0  0  0  0
   23.3387  -21.2741   -9.3427 O   0  0  0  0  0  0  0  0  0  0  0  0
   23.1962  -20.8619  -11.5466 O   0  0  0  0  0  0  0  0  0  0  0  0
  2  1  1  0
  3  2  1  0
  4  3  1  0
  5  7  1  0
  5  4  1  0
  5  6  1  6
  7  8  2  0
 10  9  1  6
 10 11  1  0
 10 12  1  0
 12 13  1  1
 13  7  1  0
 14 12  1  0
 15 14  2  0
 17 16  1  1
 17 19  1  0
 18 17  1  0
 20 19  1  1
 20 21  1  0
 20 22  1  0
 21 14  1  0
 22 24  1  0
 23 22  2  0
M  END
$$$$
