MVL.pdb
     RDKit          3D

 24 23  0  0  1  0  0  0  0  0999 V2000
   25.2825   -8.9579  -19.9463 C   0  0  0  0  0  0  0  0  0  0  0  0
   25.0034  -10.0777  -21.3300 S   0  0  0  0  0  0  0  0  0  0  0  0
   23.7460  -11.3077  -21.0012 C   0  0  0  0  0  0  0  0  0  0  0  0
   22.7116  -10.7394  -20.0597 C   0  0  0  0  0  0  0  0  0  0  0  0
   21.6565  -11.7497  -19.6760 C   0  0  2  0  0  0  0  0  0  0  0  0
   21.0525  -12.2038  -20.9272 N   0  0  0  0  0  0  0  0  0  0  0  0
   20.6231  -11.1742  -18.7976 C   0  0  0  0  0  0  0  0  0  0  0  0
   19.6278  -10.5256  -19.2307 O   0  0  0  0  0  0  0  0  0  0  0  0
   17.8215  -11.3161  -14.9399 C   0  0  0  0  0  0  0  0  0  0  0  0
   18.8545  -11.9277  -15.8516 C   0  0  1  0  0  0  0  0  0  0  0  0
   18.1283  -12.6706  -16.9557 C   0  0  0  0  0  0  0  0  0  0  0  0
   19.6305  -10.8161  -16.5094 C   0  0  2  0  0  0  0  0  0  0  0  0
   20.6784  -11.3143  -17.3794 N   0  0  0  0  0  0  0  0  0  0  0  0
   20.1585   -9.8157  -15.5449 C   0  0  0  0  0  0  0  0  0  0  0  0
   21.0948  -10.0828  -14.7504 O   0  0  0  0  0  0  0  0  0  0  0  0
   22.3298   -5.1207  -14.3978 C   0  0  0  0  0  0  0  0  0  0  0  0
   20.7903   -5.0132  -14.6708 C   0  0  1  0  0  0  0  0  0  0  0  0
   20.6414   -3.7610  -15.4765 C   0  0  0  0  0  0  0  0  0  0  0  0
   20.3399   -6.2751  -15.2890 C   0  0  0  0  0  0  0  0  0  0  0  0
   20.1766   -7.5066  -14.4985 C   0  0  2  0  0  0  0  0  0  0  0  0
   19.6382   -8.4980  -15.4617 N   0  0  0  0  0  0  0  0  0  0  0  0
   19.1539   -7.4315  -13.4542 C   0  0  0  0  0  0  0  0  0  0  0  0
   19.4743   -7.4072  -12.2502 O   0  0  0  0  0  0  0  0  0  0  0  0
   17.7897   -7.3825  -13.7364 O   0  0  0  0  0  0  0  0  0  0  0  0
  2  1  1  0
  3  2  1  0
  4  3  1  0
  5  7  1  0
  5  4  1  0
  5  6  1  6
  7  8  2  0
 10  9  1  1
 10 11  1  0
 10 12  1  0
 12 13  1  1
 13  7  1  0
 14 12  1  0
 15 14  2  0
 17 16  1  6
 17 19  1  0
 18 17  1  0
 20 19  1  6
 20 21  1  0
 20 22  1  0
 21 14  1  0
 22 24  1  0
 23 22  2  0
M  END
$$$$
