MVL.pdb
     RDKit          3D

 24 23  0  0  1  0  0  0  0  0999 V2000
   20.1840  -21.5481   -9.9708 C   0  0  0  0  0  0  0  0  0  0  0  0
   20.9448  -21.0998  -11.5414 S   0  0  0  0  0  0  0  0  0  0  0  0
   22.7034  -21.4261  -11.5933 C   0  0  0  0  0  0  0  0  0  0  0  0
   23.3932  -20.6787  -10.4775 C   0  0  0  0  0  0  0  0  0  0  0  0
   24.8909  -20.8735  -10.4855 C   0  0  2  0  0  0  0  0  0  0  0  0
   25.3579  -20.4990   -9.1520 N   0  0  0  0  0  0  0  0  0  0  0  0
   25.5582  -20.0442  -11.5041 C   0  0  0  0  0  0  0  0  0  0  0  0
   25.8569  -18.8291  -11.3219 O   0  0  0  0  0  0  0  0  0  0  0  0
   28.7391  -20.1683  -12.7486 C   0  0  0  0  0  0  0  0  0  0  0  0
   27.9858  -20.1926  -14.0541 C   0  0  1  0  0  0  0  0  0  0  0  0
   27.9250  -21.6284  -14.5368 C   0  0  0  0  0  0  0  0  0  0  0  0
   26.5664  -19.7577  -13.7956 C   0  0  2  0  0  0  0  0  0  0  0  0
   25.9174  -20.5664  -12.7817 N   0  0  0  0  0  0  0  0  0  0  0  0
   25.7421  -19.6739  -15.0299 C   0  0  0  0  0  0  0  0  0  0  0  0
   24.8570  -20.5236  -15.3014 O   0  0  0  0  0  0  0  0  0  0  0  0
   22.5665  -15.6180  -17.5236 C   0  0  0  0  0  0  0  0  0  0  0  0
   23.2718  -16.9194  -18.0387 C   0  0  1  0  0  0  0  0  0  0  0  0
   23.7864  -16.5523  -19.3950 C   0  0  0  0  0  0  0  0  0  0  0  0
   24.2616  -17.3410  -17.0289 C   0  0  0  0  0  0  0  0  0  0  0  0
   25.0745  -18.5560  -17.2051 C   0  0  2  0  0  0  0  0  0  0  0  0
   25.9038  -18.6299  -15.9774 N   0  0  0  0  0  0  0  0  0  0  0  0
   26.0518  -18.4851  -18.2924 C   0  0  0  0  0  0  0  0  0  0  0  0
   25.7952  -18.9701  -19.4113 O   0  0  0  0  0  0  0  0  0  0  0  0
   27.3006  -17.8833  -18.1463 O   0  0  0  0  0  0  0  0  0  0  0  0
  2  1  1  0
  3  2  1  0
  4  3  1  0
  5  7  1  0
  5  4  1  0
  5  6  1  1
  7  8  2  0
 10  9  1  1
 10 11  1  0
 10 12  1  0
 12 13  1  1
 13  7  1  0
 14 12  1  0
 15 14  2  0
 17 16  1  1
 17 19  1  0
 18 17  1  0
 20 19  1  1
 20 21  1  0
 20 22  1  0
 21 14  1  0
 22 24  1  0
 23 22  2  0
M  END
$$$$
