RFS.pdb
     RDKit          3D

 29 29  0  0  1  0  0  0  0  0999 V2000
   17.4655  -21.6522  -13.3882 N   0  0  0  0  0  0  0  0  0  0  0  0
   17.4416  -23.0667  -13.4323 C   0  0  0  0  0  0  0  0  0  0  0  0
   16.3093  -23.6981  -13.4712 N   0  0  0  0  0  0  0  0  0  0  0  0
   18.6481  -23.8237  -13.4351 N   0  0  0  0  0  0  0  0  0  0  0  0
   19.9545  -23.1754  -13.5252 C   0  0  0  0  0  0  0  0  0  0  0  0
   19.7574  -21.6867  -13.3882 C   0  0  0  0  0  0  0  0  0  0  0  0
   21.0419  -20.9097  -13.5119 C   0  0  0  0  0  0  0  0  0  0  0  0
   21.8285  -20.9075  -12.2234 C   0  0  2  0  0  0  0  0  0  0  0  0
   21.1308  -20.0424  -11.2954 N   0  0  0  0  0  0  0  0  0  0  0  0
   23.2194  -20.4591  -12.4122 C   0  0  0  0  0  0  0  0  0  0  0  0
   23.4257  -19.2465  -12.6757 O   0  0  0  0  0  0  0  0  0  0  0  0
   16.2537  -24.7254  -13.5030 N   0  0  0  0  0  0  0  0  0  0  0  0
   24.3474  -21.2963  -12.3186 C   0  0  2  0  0  0  0  0  0  0  0  0
   25.7139  -20.8168  -12.4181 C   0  0  0  0  0  0  0  0  0  0  0  0
   26.6000  -21.3770  -11.3568 C   0  0  0  0  0  0  0  0  0  0  0  0
   26.3242  -20.8483  -10.0040 C   0  0  0  0  0  0  0  0  0  0  0  0
   26.1996  -19.5435   -9.6541 C   0  0  0  0  0  0  0  0  0  0  0  0
   25.9369  -19.1969   -8.3252 C   0  0  0  0  0  0  0  0  0  0  0  0
   25.7986  -20.1505   -7.3467 C   0  0  0  0  0  0  0  0  0  0  0  0
   25.9226  -21.4890   -7.6853 C   0  0  0  0  0  0  0  0  0  0  0  0
   26.1798  -21.8028   -8.9921 C   0  0  0  0  0  0  0  0  0  0  0  0
   26.2070  -20.9562  -13.7986 O   0  0  0  0  0  0  0  0  0  0  0  0
   26.1566  -22.0701  -14.3525 O   0  0  0  0  0  0  0  0  0  0  0  0
   28.4557  -18.0172  -15.3597 C   0  0  0  0  0  0  0  0  0  0  0  0
   27.6036  -18.5114  -16.3500 C   0  0  1  0  0  0  0  0  0  0  0  0
   27.1340  -19.8726  -15.8803 N   0  0  0  0  0  0  0  0  0  0  0  0
   26.7272  -19.8556  -14.4945 C   0  0  0  0  0  0  0  0  0  0  0  0
   28.2911  -20.7750  -16.0214 O   0  0  0  0  0  0  0  0  0  0  0  0
   28.8568  -21.4137  -14.9370 O   0  0  0  0  0  0  0  0  0  0  0  0
  1  2  1  0
  2  3  2  0
  4  2  1  0
  4  5  1  0
  6  5  1  0
  7  6  1  0
  8  7  1  0
  8  9  1  1
 10 11  2  0
 10  8  1  0
 12 10  1  0
 13 12  1  0
 13 14  1  1
 15 14  1  0
 15 16  2  0
 17 16  1  0
 18 17  2  0
 19 20  2  0
 19 18  1  0
 20 15  1  0
 21 13  1  0
 21 26  1  0
 22 21  2  0
 23 24  1  0
 25 24  1  6
 25 26  1  0
 25 27  1  0
 27 29  2  0
 27 28  1  0
M  END
$$$$
