RFS.pdb
     RDKit          3D

 29 29  0  0  1  0  0  0  0  0999 V2000
   27.6288  -27.8198  -15.8174 N   0  0  0  0  0  0  0  0  0  0  0  0
   26.7668  -27.2092  -16.7595 C   0  0  0  0  0  0  0  0  0  0  0  0
   25.6268  -27.7558  -17.0492 N   0  0  0  0  0  0  0  0  0  0  0  0
   27.1265  -25.9920  -17.4057 N   0  0  0  0  0  0  0  0  0  0  0  0
   28.2965  -25.2234  -16.9869 C   0  0  0  0  0  0  0  0  0  0  0  0
   27.8957  -23.7748  -16.8659 C   0  0  0  0  0  0  0  0  0  0  0  0
   27.0042  -23.5084  -15.6813 C   0  0  0  0  0  0  0  0  0  0  0  0
   26.4572  -22.1014  -15.6895 C   0  0  2  0  0  0  0  0  0  0  0  0
   27.5823  -21.2020  -15.5427 N   0  0  0  0  0  0  0  0  0  0  0  0
   25.4643  -21.8758  -14.6242 C   0  0  0  0  0  0  0  0  0  0  0  0
   25.7985  -22.1159  -13.4355 O   0  0  0  0  0  0  0  0  0  0  0  0
   24.9858  -27.3533  -17.7467 N   0  0  0  0  0  0  0  0  0  0  0  0
   24.1548  -21.4062  -14.8403 C   0  0  1  0  0  0  0  0  0  0  0  0
   23.1881  -21.2049  -13.7764 C   0  0  0  0  0  0  0  0  0  0  0  0
   22.9680  -19.7631  -13.4630 C   0  0  0  0  0  0  0  0  0  0  0  0
   22.0144  -19.5280  -12.3578 C   0  0  0  0  0  0  0  0  0  0  0  0
   20.7005  -19.2116  -12.4752 C   0  0  0  0  0  0  0  0  0  0  0  0
   19.9218  -19.0181  -11.3300 C   0  0  0  0  0  0  0  0  0  0  0  0
   20.4531  -19.1401  -10.0696 C   0  0  0  0  0  0  0  0  0  0  0  0
   21.7939  -19.4629   -9.9298 C   0  0  0  0  0  0  0  0  0  0  0  0
   22.5349  -19.6472  -11.0652 C   0  0  0  0  0  0  0  0  0  0  0  0
   21.9715  -21.9939  -14.0327 O   0  0  0  0  0  0  0  0  0  0  0  0
   21.3775  -21.8596  -15.1187 O   0  0  0  0  0  0  0  0  0  0  0  0
   19.0025  -25.4649  -12.4211 C   0  0  0  0  0  0  0  0  0  0  0  0
   20.0992  -24.6656  -12.0902 C   0  0  2  0  0  0  0  0  0  0  0  0
   20.2731  -23.6750  -13.2226 N   0  0  0  0  0  0  0  0  0  0  0  0
   21.4777  -22.8917  -13.0755 C   0  0  0  0  0  0  0  0  0  0  0  0
   19.1110  -22.7704  -13.1562 O   0  0  0  0  0  0  0  0  0  0  0  0
   17.8659  -23.1445  -13.6184 O   0  0  0  0  0  0  0  0  0  0  0  0
  1  2  1  0
  2  3  2  0
  4  2  1  0
  4  5  1  0
  6  5  1  0
  7  6  1  0
  8  7  1  0
  8  9  1  1
 10 11  2  0
 10  8  1  0
 12 10  1  0
 13 12  1  0
 13 14  1  6
 15 14  1  0
 15 16  2  0
 17 16  1  0
 18 17  2  0
 19 20  2  0
 19 18  1  0
 20 15  1  0
 21 13  1  0
 21 26  1  0
 22 21  2  0
 23 24  1  0
 25 24  1  6
 25 26  1  0
 25 27  1  0
 27 29  2  0
 27 28  1  0
M  END
$$$$
