RFS.pdb
     RDKit          3D

 29 29  0  0  1  0  0  0  0  0999 V2000
   19.4393  -23.1965   -9.0152 N   0  0  0  0  0  0  0  0  0  0  0  0
   18.7394  -24.1518   -9.7903 C   0  0  0  0  0  0  0  0  0  0  0  0
   17.8514  -24.9168   -9.2349 N   0  0  0  0  0  0  0  0  0  0  0  0
   18.9905  -24.2950  -11.1849 N   0  0  0  0  0  0  0  0  0  0  0  0
   19.8762  -23.3774  -11.8982 C   0  0  0  0  0  0  0  0  0  0  0  0
   19.0601  -22.2022  -12.3743 C   0  0  0  0  0  0  0  0  0  0  0  0
   19.8706  -21.2017  -13.1561 C   0  0  0  0  0  0  0  0  0  0  0  0
   21.0954  -20.7494  -12.3982 C   0  0  2  0  0  0  0  0  0  0  0  0
   20.6371  -20.1160  -11.1795 N   0  0  0  0  0  0  0  0  0  0  0  0
   21.9360  -19.8278  -13.1828 C   0  0  0  0  0  0  0  0  0  0  0  0
   21.4103  -18.7784  -13.6355 O   0  0  0  0  0  0  0  0  0  0  0  0
   17.3793  -25.6736   -9.7486 N   0  0  0  0  0  0  0  0  0  0  0  0
   23.2990  -20.0368  -13.4668 C   0  0  2  0  0  0  0  0  0  0  0  0
   24.1109  -19.1095  -14.2334 C   0  0  0  0  0  0  0  0  0  0  0  0
   25.5235  -19.0506  -13.7574 C   0  0  0  0  0  0  0  0  0  0  0  0
   26.3869  -18.1497  -14.5503 C   0  0  0  0  0  0  0  0  0  0  0  0
   26.3975  -16.7938  -14.5083 C   0  0  0  0  0  0  0  0  0  0  0  0
   27.2768  -16.0748  -15.3239 C   0  0  0  0  0  0  0  0  0  0  0  0
   28.1443  -16.7076  -16.1801 C   0  0  0  0  0  0  0  0  0  0  0  0
   28.1478  -18.0927  -16.2367 C   0  0  0  0  0  0  0  0  0  0  0  0
   27.2782  -18.7736  -15.4290 C   0  0  0  0  0  0  0  0  0  0  0  0
   23.9343  -19.3450  -15.6762 O   0  0  0  0  0  0  0  0  0  0  0  0
   23.9416  -20.5132  -16.1068 O   0  0  0  0  0  0  0  0  0  0  0  0
   22.0664  -16.6336  -17.8474 C   0  0  0  0  0  0  0  0  0  0  0  0
   22.2305  -17.8846  -18.4468 C   0  0  1  0  0  0  0  0  0  0  0  0
   23.5761  -18.4113  -17.9929 N   0  0  0  0  0  0  0  0  0  0  0  0
   23.7563  -18.2761  -16.5662 C   0  0  0  0  0  0  0  0  0  0  0  0
   24.5892  -17.5871  -18.6767 O   0  0  0  0  0  0  0  0  0  0  0  0
   24.7563  -17.6206  -20.0459 O   0  0  0  0  0  0  0  0  0  0  0  0
  1  2  1  0
  2  3  2  0
  4  2  1  0
  4  5  1  0
  6  5  1  0
  7  6  1  0
  8  7  1  0
  8  9  1  1
 10 11  2  0
 10  8  1  0
 12 10  1  0
 13 12  1  0
 13 14  1  1
 15 14  1  0
 15 16  2  0
 17 16  1  0
 18 17  2  0
 19 20  2  0
 19 18  1  0
 20 15  1  0
 21 13  1  0
 21 26  1  0
 22 21  2  0
 23 24  1  0
 25 24  1  1
 25 26  1  0
 25 27  1  0
 27 29  2  0
 27 28  1  0
M  END
$$$$
