RFS.pdb
     RDKit          3D

 29 29  0  0  1  0  0  0  0  0999 V2000
   22.4456  -17.2105  -15.4655 N   0  0  0  0  0  0  0  0  0  0  0  0
   22.2137  -18.5436  -15.8807 C   0  0  0  0  0  0  0  0  0  0  0  0
   21.1573  -18.8354  -16.5742 N   0  0  0  0  0  0  0  0  0  0  0  0
   23.1255  -19.5867  -15.5503 N   0  0  0  0  0  0  0  0  0  0  0  0
   24.2237  -19.3701  -14.6111 C   0  0  0  0  0  0  0  0  0  0  0  0
   23.6826  -19.4961  -13.2092 C   0  0  0  0  0  0  0  0  0  0  0  0
   24.1216  -20.7622  -12.5211 C   0  0  0  0  0  0  0  0  0  0  0  0
   25.6183  -20.8132  -12.3306 C   0  0  2  0  0  0  0  0  0  0  0  0
   26.1238  -21.8716  -13.1796 N   0  0  0  0  0  0  0  0  0  0  0  0
   26.0008  -21.0413  -10.9259 C   0  0  0  0  0  0  0  0  0  0  0  0
   25.8800  -22.2014  -10.4547 O   0  0  0  0  0  0  0  0  0  0  0  0
   20.9623  -19.7910  -16.9030 N   0  0  0  0  0  0  0  0  0  0  0  0
   26.4970  -20.0463  -10.0623 C   0  0  2  0  0  0  0  0  0  0  0  0
   26.8386  -20.2869   -8.6722 C   0  0  0  0  0  0  0  0  0  0  0  0
   27.9485  -19.4135   -8.1920 C   0  0  0  0  0  0  0  0  0  0  0  0
   28.3263  -19.6442   -6.7813 C   0  0  0  0  0  0  0  0  0  0  0  0
   29.0154  -20.7047   -6.2904 C   0  0  0  0  0  0  0  0  0  0  0  0
   29.2988  -20.7835   -4.9234 C   0  0  0  0  0  0  0  0  0  0  0  0
   28.8953  -19.8059   -4.0474 C   0  0  0  0  0  0  0  0  0  0  0  0
   28.1901  -18.7147   -4.5307 C   0  0  0  0  0  0  0  0  0  0  0  0
   27.9251  -18.6604   -5.8720 C   0  0  0  0  0  0  0  0  0  0  0  0
   25.6246  -20.2903   -7.8389 O   0  0  0  0  0  0  0  0  0  0  0  0
   24.8661  -19.3032   -7.8659 O   0  0  0  0  0  0  0  0  0  0  0  0
   24.7964  -23.6618   -5.6658 C   0  0  0  0  0  0  0  0  0  0  0  0
   23.6756  -22.8928   -5.9876 C   0  0  1  0  0  0  0  0  0  0  0  0
   24.1594  -21.4674   -6.1552 N   0  0  0  0  0  0  0  0  0  0  0  0
   25.3121  -21.3861   -7.0219 C   0  0  0  0  0  0  0  0  0  0  0  0
   24.5474  -21.0068   -4.8097 O   0  0  0  0  0  0  0  0  0  0  0  0
   23.6328  -20.8974   -3.7823 O   0  0  0  0  0  0  0  0  0  0  0  0
  1  2  1  0
  2  3  2  0
  4  2  1  0
  4  5  1  0
  6  5  1  0
  7  6  1  0
  8  7  1  0
  8  9  1  6
 10 11  2  0
 10  8  1  0
 12 10  1  0
 13 12  1  0
 13 14  1  6
 15 14  1  0
 15 16  2  0
 17 16  1  0
 18 17  2  0
 19 20  2  0
 19 18  1  0
 20 15  1  0
 21 13  1  0
 21 26  1  0
 22 21  2  0
 23 24  1  0
 25 24  1  6
 25 26  1  0
 25 27  1  0
 27 29  2  0
 27 28  1  0
M  END
$$$$
