RFS.pdb
     RDKit          3D

 29 29  0  0  1  0  0  0  0  0999 V2000
   18.1036  -24.7385  -14.4283 N   0  0  0  0  0  0  0  0  0  0  0  0
   19.3232  -25.3265  -14.0157 C   0  0  0  0  0  0  0  0  0  0  0  0
   19.5928  -26.5556  -14.3299 N   0  0  0  0  0  0  0  0  0  0  0  0
   20.2745  -24.5902  -13.2532 N   0  0  0  0  0  0  0  0  0  0  0  0
   20.2742  -23.1291  -13.2397 C   0  0  0  0  0  0  0  0  0  0  0  0
   21.1451  -22.6426  -14.3704 C   0  0  0  0  0  0  0  0  0  0  0  0
   21.8705  -21.3630  -14.0453 C   0  0  0  0  0  0  0  0  0  0  0  0
   21.7329  -20.9886  -12.5894 C   0  0  2  0  0  0  0  0  0  0  0  0
   20.6966  -19.9813  -12.5007 N   0  0  0  0  0  0  0  0  0  0  0  0
   22.9952  -20.4930  -12.0126 C   0  0  0  0  0  0  0  0  0  0  0  0
   23.3606  -19.3222  -12.2921 O   0  0  0  0  0  0  0  0  0  0  0  0
   20.4729  -27.0129  -14.0547 N   0  0  0  0  0  0  0  0  0  0  0  0
   23.8319  -21.2408  -11.1625 C   0  0  2  0  0  0  0  0  0  0  0  0
   25.1139  -20.7648  -10.6757 C   0  0  0  0  0  0  0  0  0  0  0  0
   25.4415  -21.2810   -9.3150 C   0  0  0  0  0  0  0  0  0  0  0  0
   26.5567  -20.5688   -8.6554 C   0  0  0  0  0  0  0  0  0  0  0  0
   26.4922  -19.3681   -8.0272 C   0  0  0  0  0  0  0  0  0  0  0  0
   27.6399  -18.8187   -7.4473 C   0  0  0  0  0  0  0  0  0  0  0  0
   28.8501  -19.4662   -7.4940 C   0  0  0  0  0  0  0  0  0  0  0  0
   28.9354  -20.6941   -8.1317 C   0  0  0  0  0  0  0  0  0  0  0  0
   27.7987  -21.2107   -8.6913 C   0  0  0  0  0  0  0  0  0  0  0  0
   26.1552  -20.9596  -11.6985 O   0  0  0  0  0  0  0  0  0  0  0  0
   26.3966  -22.1101  -12.1087 O   0  0  0  0  0  0  0  0  0  0  0  0
   28.8362  -18.6522  -15.0166 C   0  0  0  0  0  0  0  0  0  0  0  0
   28.0152  -18.4985  -13.8971 C   0  0  1  0  0  0  0  0  0  0  0  0
   27.6317  -19.8920  -13.4442 N   0  0  0  0  0  0  0  0  0  0  0  0
   26.8726  -19.8714  -12.2155 C   0  0  0  0  0  0  0  0  0  0  0  0
   28.8985  -20.6067  -13.2042 O   0  0  0  0  0  0  0  0  0  0  0  0
   29.7303  -20.9875  -14.2372 O   0  0  0  0  0  0  0  0  0  0  0  0
  1  2  1  0
  2  3  2  0
  4  2  1  0
  4  5  1  0
  6  5  1  0
  7  6  1  0
  8  7  1  0
  8  9  1  6
 10 11  2  0
 10  8  1  0
 12 10  1  0
 13 12  1  0
 13 14  1  1
 15 14  1  0
 15 16  2  0
 17 16  1  0
 18 17  2  0
 19 20  2  0
 19 18  1  0
 20 15  1  0
 21 13  1  0
 21 26  1  0
 22 21  2  0
 23 24  1  0
 25 24  1  6
 25 26  1  0
 25 27  1  0
 27 29  2  0
 27 28  1  0
M  END
$$$$
