RFS.pdb
     RDKit          3D

 29 29  0  0  1  0  0  0  0  0999 V2000
   17.4425  -23.7930   -8.9898 N   0  0  0  0  0  0  0  0  0  0  0  0
   18.3324  -24.3525   -8.0420 C   0  0  0  0  0  0  0  0  0  0  0  0
   17.9190  -25.2679   -7.2216 N   0  0  0  0  0  0  0  0  0  0  0  0
   19.6899  -23.9281   -7.9669 N   0  0  0  0  0  0  0  0  0  0  0  0
   20.1192  -22.6451   -8.5188 C   0  0  0  0  0  0  0  0  0  0  0  0
   19.9702  -22.6985  -10.0184 C   0  0  0  0  0  0  0  0  0  0  0  0
   21.2123  -22.2591  -10.7487 C   0  0  0  0  0  0  0  0  0  0  0  0
   21.6316  -20.8613  -10.3623 C   0  0  2  0  0  0  0  0  0  0  0  0
   20.6218  -19.9547  -10.8670 N   0  0  0  0  0  0  0  0  0  0  0  0
   22.9624  -20.5064  -10.8861 C   0  0  0  0  0  0  0  0  0  0  0  0
   23.0470  -19.5603  -11.7107 O   0  0  0  0  0  0  0  0  0  0  0  0
   18.5184  -25.6503   -6.4773 N   0  0  0  0  0  0  0  0  0  0  0  0
   24.1598  -21.1548  -10.5282 C   0  0  2  0  0  0  0  0  0  0  0  0
   25.4716  -20.7225  -10.9747 C   0  0  0  0  0  0  0  0  0  0  0  0
   26.5626  -21.1398  -10.0469 C   0  0  0  0  0  0  0  0  0  0  0  0
   26.5265  -20.4607   -8.7341 C   0  0  0  0  0  0  0  0  0  0  0  0
   26.7301  -19.1401   -8.4994 C   0  0  0  0  0  0  0  0  0  0  0  0
   26.6634  -18.6424   -7.1944 C   0  0  0  0  0  0  0  0  0  0  0  0
   26.3940  -19.4609   -6.1251 C   0  0  0  0  0  0  0  0  0  0  0  0
   26.1831  -20.8131   -6.3454 C   0  0  0  0  0  0  0  0  0  0  0  0
   26.2536  -21.2760   -7.6311 C   0  0  0  0  0  0  0  0  0  0  0  0
   25.6719  -21.0714  -12.3912 O   0  0  0  0  0  0  0  0  0  0  0  0
   25.4084  -22.2259  -12.7760 O   0  0  0  0  0  0  0  0  0  0  0  0
   27.5669  -18.3767  -14.7062 C   0  0  0  0  0  0  0  0  0  0  0  0
   26.6421  -19.0865  -15.4755 C   0  0  1  0  0  0  0  0  0  0  0  0
   26.3363  -20.3632  -14.7202 N   0  0  0  0  0  0  0  0  0  0  0  0
   26.1505  -20.1243  -13.3078 C   0  0  0  0  0  0  0  0  0  0  0  0
   27.5106  -21.2359  -14.9006 O   0  0  0  0  0  0  0  0  0  0  0  0
   27.8214  -21.8005  -16.1206 O   0  0  0  0  0  0  0  0  0  0  0  0
  1  2  1  0
  2  3  2  0
  4  2  1  0
  4  5  1  0
  6  5  1  0
  7  6  1  0
  8  7  1  0
  8  9  1  6
 10 11  2  0
 10  8  1  0
 12 10  1  0
 13 12  1  0
 13 14  1  1
 15 14  1  0
 15 16  2  0
 17 16  1  0
 18 17  2  0
 19 20  2  0
 19 18  1  0
 20 15  1  0
 21 13  1  0
 21 26  1  0
 22 21  2  0
 23 24  1  0
 25 24  1  6
 25 26  1  0
 25 27  1  0
 27 29  2  0
 27 28  1  0
M  END
$$$$
