RFS.pdb
     RDKit          3D

 29 29  0  0  1  0  0  0  0  0999 V2000
   27.1671  -16.0170  -14.7305 N   0  0  0  0  0  0  0  0  0  0  0  0
   28.1322  -16.0332  -15.7657 C   0  0  0  0  0  0  0  0  0  0  0  0
   29.0630  -15.1307  -15.8027 N   0  0  0  0  0  0  0  0  0  0  0  0
   28.1051  -17.0309  -16.7819 N   0  0  0  0  0  0  0  0  0  0  0  0
   27.0415  -18.0311  -16.8399 C   0  0  0  0  0  0  0  0  0  0  0  0
   27.6721  -19.3998  -16.7848 C   0  0  0  0  0  0  0  0  0  0  0  0
   26.8954  -20.3711  -15.9348 C   0  0  0  0  0  0  0  0  0  0  0  0
   27.2212  -20.2260  -14.4679 C   0  0  2  0  0  0  0  0  0  0  0  0
   28.5020  -20.8639  -14.2470 N   0  0  0  0  0  0  0  0  0  0  0  0
   26.1865  -20.8145  -13.5993 C   0  0  0  0  0  0  0  0  0  0  0  0
   25.7274  -21.9465  -13.8996 O   0  0  0  0  0  0  0  0  0  0  0  0
   29.7768  -15.1074  -16.5439 N   0  0  0  0  0  0  0  0  0  0  0  0
   25.6678  -20.1972  -12.4452 C   0  0  2  0  0  0  0  0  0  0  0  0
   24.6337  -20.7872  -11.6147 C   0  0  0  0  0  0  0  0  0  0  0  0
   24.7028  -20.3300  -10.1964 C   0  0  0  0  0  0  0  0  0  0  0  0
   26.0409  -20.4734   -9.5842 C   0  0  0  0  0  0  0  0  0  0  0  0
   26.9618  -21.4292   -9.8648 C   0  0  0  0  0  0  0  0  0  0  0  0
   28.1911  -21.4344   -9.1983 C   0  0  0  0  0  0  0  0  0  0  0  0
   28.5012  -20.4874   -8.2533 C   0  0  0  0  0  0  0  0  0  0  0  0
   27.5726  -19.5028   -7.9533 C   0  0  0  0  0  0  0  0  0  0  0  0
   26.3772  -19.5190   -8.6188 C   0  0  0  0  0  0  0  0  0  0  0  0
   23.3182  -20.6556  -12.2630 O   0  0  0  0  0  0  0  0  0  0  0  0
   22.9498  -19.5378  -12.6692 O   0  0  0  0  0  0  0  0  0  0  0  0
   20.8830  -23.9688  -12.4590 C   0  0  0  0  0  0  0  0  0  0  0  0
   20.7782  -23.1215  -13.5645 C   0  0  1  0  0  0  0  0  0  0  0  0
   21.2002  -21.7437  -13.0981 N   0  0  0  0  0  0  0  0  0  0  0  0
   22.4806  -21.7677  -12.4300 C   0  0  0  0  0  0  0  0  0  0  0  0
   20.1735  -21.3061  -12.1349 O   0  0  0  0  0  0  0  0  0  0  0  0
   18.8543  -21.1332  -12.5005 O   0  0  0  0  0  0  0  0  0  0  0  0
  1  2  1  0
  2  3  2  0
  4  2  1  0
  4  5  1  0
  6  5  1  0
  7  6  1  0
  8  7  1  0
  8  9  1  6
 10 11  2  0
 10  8  1  0
 12 10  1  0
 13 12  1  0
 13 14  1  6
 15 14  1  0
 15 16  2  0
 17 16  1  0
 18 17  2  0
 19 20  2  0
 19 18  1  0
 20 15  1  0
 21 13  1  0
 21 26  1  0
 22 21  2  0
 23 24  1  0
 25 24  1  6
 25 26  1  0
 25 27  1  0
 27 29  2  0
 27 28  1  0
M  END
$$$$
