RFS.pdb
     RDKit          3D

 29 29  0  0  1  0  0  0  0  0999 V2000
   22.0537  -19.0892  -16.0581 N   0  0  0  0  0  0  0  0  0  0  0  0
   21.5328  -18.5871  -14.8415 C   0  0  0  0  0  0  0  0  0  0  0  0
   20.3162  -18.1406  -14.7890 N   0  0  0  0  0  0  0  0  0  0  0  0
   22.3238  -18.5601  -13.6574 N   0  0  0  0  0  0  0  0  0  0  0  0
   23.7219  -18.9849  -13.6648 C   0  0  0  0  0  0  0  0  0  0  0  0
   23.7637  -20.4862  -13.5295 C   0  0  0  0  0  0  0  0  0  0  0  0
   24.2182  -20.9413  -12.1673 C   0  0  0  0  0  0  0  0  0  0  0  0
   25.7110  -20.8002  -11.9923 C   0  0  2  0  0  0  0  0  0  0  0  0
   26.3399  -21.7591  -12.8763 N   0  0  0  0  0  0  0  0  0  0  0  0
   26.1384  -21.0146  -10.5984 C   0  0  0  0  0  0  0  0  0  0  0  0
   26.0723  -22.1784  -10.1256 O   0  0  0  0  0  0  0  0  0  0  0  0
   19.9054  -17.7653  -13.9230 N   0  0  0  0  0  0  0  0  0  0  0  0
   26.6206  -20.0024   -9.7470 C   0  0  2  0  0  0  0  0  0  0  0  0
   27.0406  -20.2375   -8.3775 C   0  0  0  0  0  0  0  0  0  0  0  0
   28.0476  -19.2437   -7.9048 C   0  0  0  0  0  0  0  0  0  0  0  0
   28.5144  -19.4741   -6.5210 C   0  0  0  0  0  0  0  0  0  0  0  0
   29.2885  -20.5004   -6.0876 C   0  0  0  0  0  0  0  0  0  0  0  0
   29.6501  -20.5840   -4.7395 C   0  0  0  0  0  0  0  0  0  0  0  0
   29.2401  -19.6450   -3.8250 C   0  0  0  0  0  0  0  0  0  0  0  0
   28.4485  -18.5891   -4.2493 C   0  0  0  0  0  0  0  0  0  0  0  0
   28.1081  -18.5293   -5.5732 C   0  0  0  0  0  0  0  0  0  0  0  0
   25.8680  -20.4200   -7.5057 O   0  0  0  0  0  0  0  0  0  0  0  0
   24.9531  -19.5760   -7.5329 O   0  0  0  0  0  0  0  0  0  0  0  0
   25.9604  -23.5643   -4.9786 C   0  0  0  0  0  0  0  0  0  0  0  0
   24.6406  -23.2193   -5.2786 C   0  0  1  0  0  0  0  0  0  0  0  0
   24.6643  -21.7819   -5.7553 N   0  0  0  0  0  0  0  0  0  0  0  0
   25.7680  -21.5277   -6.6518 C   0  0  0  0  0  0  0  0  0  0  0  0
   24.8369  -20.9538   -4.5479 O   0  0  0  0  0  0  0  0  0  0  0  0
   23.9211  -20.9660   -3.5159 O   0  0  0  0  0  0  0  0  0  0  0  0
  1  2  1  0
  2  3  2  0
  4  2  1  0
  4  5  1  0
  6  5  1  0
  7  6  1  0
  8  7  1  0
  8  9  1  6
 10 11  2  0
 10  8  1  0
 12 10  1  0
 13 12  1  0
 13 14  1  6
 15 14  1  0
 15 16  2  0
 17 16  1  0
 18 17  2  0
 19 20  2  0
 19 18  1  0
 20 15  1  0
 21 13  1  0
 21 26  1  0
 22 21  2  0
 23 24  1  0
 25 24  1  6
 25 26  1  0
 25 27  1  0
 27 29  2  0
 27 28  1  0
M  END
$$$$
