RFS.pdb
     RDKit          3D

 29 29  0  0  1  0  0  0  0  0999 V2000
   25.9147  -18.4725  -17.2481 N   0  0  0  0  0  0  0  0  0  0  0  0
   26.1850  -17.1216  -16.9237 C   0  0  0  0  0  0  0  0  0  0  0  0
   25.7107  -16.1669  -17.6624 N   0  0  0  0  0  0  0  0  0  0  0  0
   26.9765  -16.7810  -15.7896 N   0  0  0  0  0  0  0  0  0  0  0  0
   27.3874  -17.7901  -14.8160 C   0  0  0  0  0  0  0  0  0  0  0  0
   28.0657  -18.9160  -15.5551 C   0  0  0  0  0  0  0  0  0  0  0  0
   27.4774  -20.2660  -15.2380 C   0  0  0  0  0  0  0  0  0  0  0  0
   27.6960  -20.6542  -13.7957 C   0  0  2  0  0  0  0  0  0  0  0  0
   28.6697  -21.7257  -13.7818 N   0  0  0  0  0  0  0  0  0  0  0  0
   26.4499  -21.0707  -13.1284 C   0  0  0  0  0  0  0  0  0  0  0  0
   26.0682  -22.2615  -13.2652 O   0  0  0  0  0  0  0  0  0  0  0  0
   25.9047  -15.1746  -17.4695 N   0  0  0  0  0  0  0  0  0  0  0  0
   25.6458  -20.2255  -12.3404 C   0  0  2  0  0  0  0  0  0  0  0  0
   24.4328  -20.6633  -11.6739 C   0  0  0  0  0  0  0  0  0  0  0  0
   24.2707  -20.0618  -10.3185 C   0  0  0  0  0  0  0  0  0  0  0  0
   25.3714  -20.3812   -9.3846 C   0  0  0  0  0  0  0  0  0  0  0  0
   25.9777  -21.5847   -9.2285 C   0  0  0  0  0  0  0  0  0  0  0  0
   27.0112  -21.7328   -8.2984 C   0  0  0  0  0  0  0  0  0  0  0  0
   27.4392  -20.6818   -7.5250 C   0  0  0  0  0  0  0  0  0  0  0  0
   26.8317  -19.4443   -7.6705 C   0  0  0  0  0  0  0  0  0  0  0  0
   25.8229  -19.3247   -8.5872 C   0  0  0  0  0  0  0  0  0  0  0  0
   23.2754  -20.5267  -12.5740 O   0  0  0  0  0  0  0  0  0  0  0  0
   23.1619  -19.4983  -13.2666 O   0  0  0  0  0  0  0  0  0  0  0  0
   20.4818  -23.4767  -12.4724 C   0  0  0  0  0  0  0  0  0  0  0  0
   20.5246  -22.8498  -13.7199 C   0  0  1  0  0  0  0  0  0  0  0  0
   21.1289  -21.4789  -13.4975 N   0  0  0  0  0  0  0  0  0  0  0  0
   22.3060  -21.5360  -12.6623 C   0  0  0  0  0  0  0  0  0  0  0  0
   20.0973  -20.6851  -12.8054 O   0  0  0  0  0  0  0  0  0  0  0  0
   18.8556  -20.4559  -13.3617 O   0  0  0  0  0  0  0  0  0  0  0  0
  1  2  1  0
  2  3  2  0
  4  2  1  0
  4  5  1  0
  6  5  1  0
  7  6  1  0
  8  7  1  0
  8  9  1  6
 10 11  2  0
 10  8  1  0
 12 10  1  0
 13 12  1  0
 13 14  1  6
 15 14  1  0
 15 16  2  0
 17 16  1  0
 18 17  2  0
 19 20  2  0
 19 18  1  0
 20 15  1  0
 21 13  1  0
 21 26  1  0
 22 21  2  0
 23 24  1  0
 25 24  1  6
 25 26  1  0
 25 27  1  0
 27 29  2  0
 27 28  1  0
M  END
$$$$
