RFS.pdb
     RDKit          3D

 29 29  0  0  1  0  0  0  0  0999 V2000
   28.5907  -18.5272  -22.6705 N   0  0  0  0  0  0  0  0  0  0  0  0
   28.7141  -19.9372  -22.6781 C   0  0  0  0  0  0  0  0  0  0  0  0
   29.1901  -20.5436  -23.7210 N   0  0  0  0  0  0  0  0  0  0  0  0
   28.3225  -20.7166  -21.5522 N   0  0  0  0  0  0  0  0  0  0  0  0
   28.2622  -20.1410  -20.2104 C   0  0  0  0  0  0  0  0  0  0  0  0
   26.8217  -19.8313  -19.8899 C   0  0  0  0  0  0  0  0  0  0  0  0
   26.2449  -20.7412  -18.8370 C   0  0  0  0  0  0  0  0  0  0  0  0
   27.2927  -21.2059  -17.8546 C   0  0  2  0  0  0  0  0  0  0  0  0
   27.9021  -22.3972  -18.4077 N   0  0  0  0  0  0  0  0  0  0  0  0
   26.7331  -21.4763  -16.5186 C   0  0  0  0  0  0  0  0  0  0  0  0
   26.0342  -22.5104  -16.3617 O   0  0  0  0  0  0  0  0  0  0  0  0
   29.2494  -21.5695  -23.7810 N   0  0  0  0  0  0  0  0  0  0  0  0
   26.9245  -20.6541  -15.3919 C   0  0  2  0  0  0  0  0  0  0  0  0
   26.2705  -20.8763  -14.1152 C   0  0  0  0  0  0  0  0  0  0  0  0
   27.0176  -20.2750  -12.9725 C   0  0  0  0  0  0  0  0  0  0  0  0
   26.3874  -20.5065  -11.6552 C   0  0  0  0  0  0  0  0  0  0  0  0
   26.6082  -21.5565  -10.8250 C   0  0  0  0  0  0  0  0  0  0  0  0
   25.9322  -21.6376   -9.6037 C   0  0  0  0  0  0  0  0  0  0  0  0
   25.0374  -20.6727   -9.2111 C   0  0  0  0  0  0  0  0  0  0  0  0
   24.7989  -19.5923  -10.0463 C   0  0  0  0  0  0  0  0  0  0  0  0
   25.4724  -19.5355  -11.2359 C   0  0  0  0  0  0  0  0  0  0  0  0
   24.8441  -20.5210  -14.2010 O   0  0  0  0  0  0  0  0  0  0  0  0
   24.5245  -19.3686  -14.5476 O   0  0  0  0  0  0  0  0  0  0  0  0
   22.3226  -23.5290  -14.1547 C   0  0  0  0  0  0  0  0  0  0  0  0
   21.6645  -22.3661  -14.5616 C   0  0  1  0  0  0  0  0  0  0  0  0
   22.4263  -21.2026  -13.9618 N   0  0  0  0  0  0  0  0  0  0  0  0
   23.8464  -21.4597  -13.9015 C   0  0  0  0  0  0  0  0  0  0  0  0
   21.9166  -21.0454  -12.5875 O   0  0  0  0  0  0  0  0  0  0  0  0
   22.7248  -21.2219  -11.4832 O   0  0  0  0  0  0  0  0  0  0  0  0
  1  2  1  0
  2  3  2  0
  4  2  1  0
  4  5  1  0
  6  5  1  0
  7  6  1  0
  8  7  1  0
  8  9  1  6
 10 11  2  0
 10  8  1  0
 12 10  1  0
 13 12  1  0
 13 14  1  1
 15 14  1  0
 15 16  2  0
 17 16  1  0
 18 17  2  0
 19 20  2  0
 19 18  1  0
 20 15  1  0
 21 13  1  0
 21 26  1  0
 22 21  2  0
 23 24  1  0
 25 24  1  6
 25 26  1  0
 25 27  1  0
 27 29  2  0
 27 28  1  0
M  END
$$$$
