RFS.pdb
     RDKit          3D

 29 29  0  0  1  0  0  0  0  0999 V2000
   27.4089  -16.8549  -19.5018 N   0  0  0  0  0  0  0  0  0  0  0  0
   26.9874  -16.2739  -18.2820 C   0  0  0  0  0  0  0  0  0  0  0  0
   26.1346  -15.2967  -18.2864 N   0  0  0  0  0  0  0  0  0  0  0  0
   27.4843  -16.7434  -17.0325 N   0  0  0  0  0  0  0  0  0  0  0  0
   28.4883  -17.8026  -16.9608 C   0  0  0  0  0  0  0  0  0  0  0  0
   27.8315  -19.1069  -17.3366 C   0  0  0  0  0  0  0  0  0  0  0  0
   26.9939  -19.6848  -16.2259 C   0  0  0  0  0  0  0  0  0  0  0  0
   27.6471  -20.8892  -15.5922 C   0  0  2  0  0  0  0  0  0  0  0  0
   27.6182  -21.9576  -16.5690 N   0  0  0  0  0  0  0  0  0  0  0  0
   26.9797  -21.3022  -14.3450 C   0  0  0  0  0  0  0  0  0  0  0  0
   25.8647  -21.8787  -14.4268 O   0  0  0  0  0  0  0  0  0  0  0  0
   25.8104  -14.8462  -17.4195 N   0  0  0  0  0  0  0  0  0  0  0  0
   27.5030  -21.0971  -13.0542 C   0  0  2  0  0  0  0  0  0  0  0  0
   26.6959  -21.1173  -11.8479 C   0  0  0  0  0  0  0  0  0  0  0  0
   27.5023  -20.9035  -10.6112 C   0  0  0  0  0  0  0  0  0  0  0  0
   26.6929  -20.5970   -9.4125 C   0  0  0  0  0  0  0  0  0  0  0  0
   26.6833  -19.4317   -8.7179 C   0  0  0  0  0  0  0  0  0  0  0  0
   25.8590  -19.2914   -7.5972 C   0  0  0  0  0  0  0  0  0  0  0  0
   25.0455  -20.3120   -7.1700 C   0  0  0  0  0  0  0  0  0  0  0  0
   25.0418  -21.5101   -7.8672 C   0  0  0  0  0  0  0  0  0  0  0  0
   25.8570  -21.6230   -8.9603 C   0  0  0  0  0  0  0  0  0  0  0  0
   25.5216  -20.2423  -12.0018 O   0  0  0  0  0  0  0  0  0  0  0  0
   25.6873  -19.0583  -12.3496 O   0  0  0  0  0  0  0  0  0  0  0  0
   22.4408  -21.3011  -13.7568 C   0  0  0  0  0  0  0  0  0  0  0  0
   22.5369  -19.9615  -13.3729 C   0  0  1  0  0  0  0  0  0  0  0  0
   23.0157  -19.9540  -11.9361 N   0  0  0  0  0  0  0  0  0  0  0  0
   24.2260  -20.7236  -11.7655 C   0  0  0  0  0  0  0  0  0  0  0  0
   21.9420  -20.5814  -11.1444 O   0  0  0  0  0  0  0  0  0  0  0  0
   20.6889  -20.0147  -11.0330 O   0  0  0  0  0  0  0  0  0  0  0  0
  1  2  1  0
  2  3  2  0
  4  2  1  0
  4  5  1  0
  6  5  1  0
  7  6  1  0
  8  7  1  0
  8  9  1  6
 10 11  2  0
 10  8  1  0
 12 10  1  0
 13 12  1  0
 13 14  1  1
 15 14  1  0
 15 16  2  0
 17 16  1  0
 18 17  2  0
 19 20  2  0
 19 18  1  0
 20 15  1  0
 21 13  1  0
 21 26  1  0
 22 21  2  0
 23 24  1  0
 25 24  1  6
 25 26  1  0
 25 27  1  0
 27 29  2  0
 27 28  1  0
M  END
$$$$
