RFS.pdb
     RDKit          3D

 29 29  0  0  1  0  0  0  0  0999 V2000
   18.1840  -23.4234  -10.3041 N   0  0  0  0  0  0  0  0  0  0  0  0
   17.0907  -22.8353  -10.9841 C   0  0  0  0  0  0  0  0  0  0  0  0
   15.8753  -23.1365  -10.6462 N   0  0  0  0  0  0  0  0  0  0  0  0
   17.2966  -21.9078  -12.0452 N   0  0  0  0  0  0  0  0  0  0  0  0
   18.5816  -21.8104  -12.7340 C   0  0  0  0  0  0  0  0  0  0  0  0
   19.6624  -21.6200  -11.6999 C   0  0  0  0  0  0  0  0  0  0  0  0
   20.6411  -20.5347  -12.0653 C   0  0  0  0  0  0  0  0  0  0  0  0
   21.6775  -21.0158  -13.0518 C   0  0  2  0  0  0  0  0  0  0  0  0
   21.5356  -22.4529  -13.1578 N   0  0  0  0  0  0  0  0  0  0  0  0
   23.0486  -20.6534  -12.6516 C   0  0  0  0  0  0  0  0  0  0  0  0
   23.3130  -19.4390  -12.4576 O   0  0  0  0  0  0  0  0  0  0  0  0
   15.0566  -22.7194  -11.1100 N   0  0  0  0  0  0  0  0  0  0  0  0
   24.0964  -21.5756  -12.4680 C   0  0  1  0  0  0  0  0  0  0  0  0
   25.4778  -21.1881  -12.2474 C   0  0  0  0  0  0  0  0  0  0  0  0
   26.1534  -22.0258  -11.2144 C   0  0  0  0  0  0  0  0  0  0  0  0
   26.8133  -21.2451  -10.1462 C   0  0  0  0  0  0  0  0  0  0  0  0
   28.1448  -21.1808   -9.8947 C   0  0  0  0  0  0  0  0  0  0  0  0
   28.6213  -20.3939   -8.8417 C   0  0  0  0  0  0  0  0  0  0  0  0
   27.7707  -19.6722   -8.0406 C   0  0  0  0  0  0  0  0  0  0  0  0
   26.4067  -19.7256   -8.2825 C   0  0  0  0  0  0  0  0  0  0  0  0
   25.9651  -20.5026   -9.3185 C   0  0  0  0  0  0  0  0  0  0  0  0
   26.1874  -21.0654  -13.5318 O   0  0  0  0  0  0  0  0  0  0  0  0
   26.2682  -22.0582  -14.2788 O   0  0  0  0  0  0  0  0  0  0  0  0
   28.4056  -17.8037  -14.2816 C   0  0  0  0  0  0  0  0  0  0  0  0
   27.6150  -18.0832  -15.3987 C   0  0  1  0  0  0  0  0  0  0  0  0
   27.1757  -19.5270  -15.2707 N   0  0  0  0  0  0  0  0  0  0  0  0
   26.7678  -19.8505  -13.9233 C   0  0  0  0  0  0  0  0  0  0  0  0
   28.3528  -20.3444  -15.6164 O   0  0  0  0  0  0  0  0  0  0  0  0
   28.9378  -21.2042  -14.7096 O   0  0  0  0  0  0  0  0  0  0  0  0
  1  2  1  0
  2  3  2  0
  4  2  1  0
  4  5  1  0
  6  5  1  0
  7  6  1  0
  8  7  1  0
  8  9  1  1
 10 11  2  0
 10  8  1  0
 12 10  1  0
 13 12  1  0
 13 14  1  6
 15 14  1  0
 15 16  2  0
 17 16  1  0
 18 17  2  0
 19 20  2  0
 19 18  1  0
 20 15  1  0
 21 13  1  0
 21 26  1  0
 22 21  2  0
 23 24  1  0
 25 24  1  6
 25 26  1  0
 25 27  1  0
 27 29  2  0
 27 28  1  0
M  END
$$$$
