RFS.pdb
     RDKit          3D

 29 29  0  0  1  0  0  0  0  0999 V2000
   29.4608  -17.5350  -21.3208 N   0  0  0  0  0  0  0  0  0  0  0  0
   30.1779  -18.5919  -20.7108 C   0  0  0  0  0  0  0  0  0  0  0  0
   31.2241  -19.0904  -21.2931 N   0  0  0  0  0  0  0  0  0  0  0  0
   29.7722  -19.1284  -19.4553 N   0  0  0  0  0  0  0  0  0  0  0  0
   28.5719  -18.6492  -18.7736 C   0  0  0  0  0  0  0  0  0  0  0  0
   27.3791  -19.3736  -19.3450 C   0  0  0  0  0  0  0  0  0  0  0  0
   26.4844  -19.9605  -18.2847 C   0  0  0  0  0  0  0  0  0  0  0  0
   27.1623  -21.0754  -17.5255 C   0  0  2  0  0  0  0  0  0  0  0  0
   27.1187  -22.2549  -18.3641 N   0  0  0  0  0  0  0  0  0  0  0  0
   26.5283  -21.3368  -16.2213 C   0  0  0  0  0  0  0  0  0  0  0  0
   25.4690  -22.0148  -16.1971 O   0  0  0  0  0  0  0  0  0  0  0  0
   31.7662  -19.8628  -20.8820 N   0  0  0  0  0  0  0  0  0  0  0  0
   27.0255  -20.8789  -14.9862 C   0  0  1  0  0  0  0  0  0  0  0  0
   26.3098  -21.0182  -13.7311 C   0  0  0  0  0  0  0  0  0  0  0  0
   27.1410  -20.6467  -12.5494 C   0  0  0  0  0  0  0  0  0  0  0  0
   26.4222  -20.7294  -11.2601 C   0  0  0  0  0  0  0  0  0  0  0  0
   26.0387  -21.8611  -10.6178 C   0  0  0  0  0  0  0  0  0  0  0  0
   25.3615  -21.7783   -9.3972 C   0  0  0  0  0  0  0  0  0  0  0  0
   25.0673  -20.5682   -8.8183 C   0  0  0  0  0  0  0  0  0  0  0  0
   25.4512  -19.4010   -9.4600 C   0  0  0  0  0  0  0  0  0  0  0  0
   26.1126  -19.5082  -10.6530 C   0  0  0  0  0  0  0  0  0  0  0  0
   24.9939  -20.3628  -13.8156 O   0  0  0  0  0  0  0  0  0  0  0  0
   24.9050  -19.2457  -14.3582 O   0  0  0  0  0  0  0  0  0  0  0  0
   21.9446  -20.0526  -15.5309 C   0  0  0  0  0  0  0  0  0  0  0  0
   21.6794  -20.8913  -14.4459 C   0  0  2  0  0  0  0  0  0  0  0  0
   22.5255  -20.3923  -13.2931 N   0  0  0  0  0  0  0  0  0  0  0  0
   23.8455  -20.9786  -13.2978 C   0  0  0  0  0  0  0  0  0  0  0  0
   21.8280  -20.8102  -12.0634 O   0  0  0  0  0  0  0  0  0  0  0  0
   20.5750  -20.3343  -11.7358 O   0  0  0  0  0  0  0  0  0  0  0  0
  1  2  1  0
  2  3  2  0
  4  2  1  0
  4  5  1  0
  6  5  1  0
  7  6  1  0
  8  7  1  0
  8  9  1  6
 10 11  2  0
 10  8  1  0
 12 10  1  0
 13 12  1  0
 13 14  1  1
 15 14  1  0
 15 16  2  0
 17 16  1  0
 18 17  2  0
 19 20  2  0
 19 18  1  0
 20 15  1  0
 21 13  1  0
 21 26  1  0
 22 21  2  0
 23 24  1  0
 25 24  1  6
 25 26  1  0
 25 27  1  0
 27 29  2  0
 27 28  1  0
M  END
$$$$
