RFS.pdb
     RDKit          3D

 29 29  0  0  1  0  0  0  0  0999 V2000
   26.6998  -15.2543  -15.3717 N   0  0  0  0  0  0  0  0  0  0  0  0
   26.9722  -16.3899  -16.1713 C   0  0  0  0  0  0  0  0  0  0  0  0
   27.7393  -16.2850  -17.2118 N   0  0  0  0  0  0  0  0  0  0  0  0
   26.4162  -17.6627  -15.8561 N   0  0  0  0  0  0  0  0  0  0  0  0
   26.4641  -18.2004  -14.4983 C   0  0  0  0  0  0  0  0  0  0  0  0
   27.9091  -18.3144  -14.0825 C   0  0  0  0  0  0  0  0  0  0  0  0
   28.0775  -18.8258  -12.6756 C   0  0  0  0  0  0  0  0  0  0  0  0
   28.0541  -20.3340  -12.6149 C   0  0  2  0  0  0  0  0  0  0  0  0
   27.5979  -20.8090  -13.9043 N   0  0  0  0  0  0  0  0  0  0  0  0
   27.1903  -20.8418  -11.5345 C   0  0  0  0  0  0  0  0  0  0  0  0
   26.0433  -21.2622  -11.8344 O   0  0  0  0  0  0  0  0  0  0  0  0
   27.9237  -17.0785  -17.8410 N   0  0  0  0  0  0  0  0  0  0  0  0
   27.5575  -20.8922  -10.1762 C   0  0  2  0  0  0  0  0  0  0  0  0
   26.6954  -21.4113   -9.1301 C   0  0  0  0  0  0  0  0  0  0  0  0
   27.4478  -21.7927   -7.8997 C   0  0  0  0  0  0  0  0  0  0  0  0
   27.5605  -20.7056   -6.9040 C   0  0  0  0  0  0  0  0  0  0  0  0
   28.2624  -19.5526   -7.0396 C   0  0  0  0  0  0  0  0  0  0  0  0
   28.2739  -18.6139   -6.0033 C   0  0  0  0  0  0  0  0  0  0  0  0
   27.5862  -18.8250   -4.8335 C   0  0  0  0  0  0  0  0  0  0  0  0
   26.8633  -19.9974   -4.6768 C   0  0  0  0  0  0  0  0  0  0  0  0
   26.8676  -20.9003   -5.7049 C   0  0  0  0  0  0  0  0  0  0  0  0
   25.5456  -20.5154   -8.9215 O   0  0  0  0  0  0  0  0  0  0  0  0
   25.7486  -19.3063   -8.7042 O   0  0  0  0  0  0  0  0  0  0  0  0
   22.7481  -20.9591  -11.3095 C   0  0  0  0  0  0  0  0  0  0  0  0
   22.8347  -19.7783  -10.5683 C   0  0  1  0  0  0  0  0  0  0  0  0
   23.0523  -20.1851   -9.1257 N   0  0  0  0  0  0  0  0  0  0  0  0
   24.2319  -21.0035   -8.9668 C   0  0  0  0  0  0  0  0  0  0  0  0
   21.8714  -20.9802   -8.7428 O   0  0  0  0  0  0  0  0  0  0  0  0
   21.9781  -22.2856   -8.3088 O   0  0  0  0  0  0  0  0  0  0  0  0
  1  2  1  0
  2  3  2  0
  4  2  1  0
  4  5  1  0
  6  5  1  0
  7  6  1  0
  8  7  1  0
  8  9  1  6
 10 11  2  0
 10  8  1  0
 12 10  1  0
 13 12  1  0
 13 14  1  1
 15 14  1  0
 15 16  2  0
 17 16  1  0
 18 17  2  0
 19 20  2  0
 19 18  1  0
 20 15  1  0
 21 13  1  0
 21 26  1  0
 22 21  2  0
 23 24  1  0
 25 24  1  1
 25 26  1  0
 25 27  1  0
 27 29  2  0
 27 28  1  0
M  END
$$$$
