RFS.pdb
     RDKit          3D

 29 29  0  0  1  0  0  0  0  0999 V2000
   19.8343  -23.7468   -7.6707 N   0  0  0  0  0  0  0  0  0  0  0  0
   18.6583  -23.4606   -8.4044 C   0  0  0  0  0  0  0  0  0  0  0  0
   17.4957  -23.7616   -7.9147 N   0  0  0  0  0  0  0  0  0  0  0  0
   18.7222  -22.8414   -9.6855 N   0  0  0  0  0  0  0  0  0  0  0  0
   19.8449  -23.0765  -10.5907 C   0  0  0  0  0  0  0  0  0  0  0  0
   19.6759  -22.1899  -11.7986 C   0  0  0  0  0  0  0  0  0  0  0  0
   20.7401  -21.1288  -11.9026 C   0  0  0  0  0  0  0  0  0  0  0  0
   21.4319  -21.1505  -13.2442 C   0  0  2  0  0  0  0  0  0  0  0  0
   21.5853  -22.5386  -13.6263 N   0  0  0  0  0  0  0  0  0  0  0  0
   22.7375  -20.4678  -13.2169 C   0  0  0  0  0  0  0  0  0  0  0  0
   22.7719  -19.2578  -12.8747 O   0  0  0  0  0  0  0  0  0  0  0  0
   16.6232  -23.6159   -8.4410 N   0  0  0  0  0  0  0  0  0  0  0  0
   23.9630  -21.0759  -13.5491 C   0  0  1  0  0  0  0  0  0  0  0  0
   25.2105  -20.3463  -13.6858 C   0  0  0  0  0  0  0  0  0  0  0  0
   26.2863  -20.8723  -12.7962 C   0  0  0  0  0  0  0  0  0  0  0  0
   25.9159  -20.9119  -11.3654 C   0  0  0  0  0  0  0  0  0  0  0  0
   25.3007  -21.9317  -10.7160 C   0  0  0  0  0  0  0  0  0  0  0  0
   25.0134  -21.8212   -9.3520 C   0  0  0  0  0  0  0  0  0  0  0  0
   25.3395  -20.6950   -8.6369 C   0  0  0  0  0  0  0  0  0  0  0  0
   25.9687  -19.6426   -9.2836 C   0  0  0  0  0  0  0  0  0  0  0  0
   26.2391  -19.7746  -10.6184 C   0  0  0  0  0  0  0  0  0  0  0  0
   25.5702  -20.2075  -15.1070 O   0  0  0  0  0  0  0  0  0  0  0  0
   25.3032  -21.1339  -15.8948 O   0  0  0  0  0  0  0  0  0  0  0  0
   26.6057  -17.0140  -18.5643 C   0  0  0  0  0  0  0  0  0  0  0  0
   26.4664  -17.2157  -17.1892 C   0  0  2  0  0  0  0  0  0  0  0  0
   26.3665  -18.7120  -16.9768 N   0  0  0  0  0  0  0  0  0  0  0  0
   26.2040  -19.0505  -15.5821 C   0  0  0  0  0  0  0  0  0  0  0  0
   27.6411  -19.2783  -17.4544 O   0  0  0  0  0  0  0  0  0  0  0  0
   27.9180  -19.4256  -18.7981 O   0  0  0  0  0  0  0  0  0  0  0  0
  1  2  1  0
  2  3  2  0
  4  2  1  0
  4  5  1  0
  6  5  1  0
  7  6  1  0
  8  7  1  0
  8  9  1  1
 10 11  2  0
 10  8  1  0
 12 10  1  0
 13 12  1  0
 13 14  1  6
 15 14  1  0
 15 16  2  0
 17 16  1  0
 18 17  2  0
 19 20  2  0
 19 18  1  0
 20 15  1  0
 21 13  1  0
 21 26  1  0
 22 21  2  0
 23 24  1  0
 25 24  1  6
 25 26  1  0
 25 27  1  0
 27 29  2  0
 27 28  1  0
M  END
$$$$
