FAR.pdb
     RDKit          3D

 28 28  0  0  1  0  0  0  0  0999 V2000
    6.8688  -16.2673   26.8749 N   0  0  0  0  0  0  0  0  0  0  0  0
    7.6500  -16.1574   25.6641 C   0  0  1  0  0  0  0  0  0  0  0  0
    8.4580  -14.8758   25.7558 C   0  0  0  0  0  0  0  0  0  0  0  0
    7.5751  -13.6809   25.7526 C   0  0  0  0  0  0  0  0  0  0  0  0
    7.0807  -13.1562   26.9291 C   0  0  0  0  0  0  0  0  0  0  0  0
    6.2558  -12.0376   26.9013 C   0  0  0  0  0  0  0  0  0  0  0  0
    5.9025  -11.4163   25.7229 C   0  0  0  0  0  0  0  0  0  0  0  0
    6.3962  -11.9404   24.5489 C   0  0  0  0  0  0  0  0  0  0  0  0
    7.2247  -13.0628   24.5711 C   0  0  0  0  0  0  0  0  0  0  0  0
    8.6090  -17.2899   25.6376 C   0  0  0  0  0  0  0  0  0  0  0  0
    8.9609  -17.8369   26.7349 O   0  0  0  0  0  0  0  0  0  0  0  0
    8.9764  -20.2390   24.8687 C   0  0  0  0  0  0  0  0  0  0  0  0
    9.8567  -19.0946   24.4532 C   0  0  2  0  0  0  0  0  0  0  0  0
    9.1802  -17.8269   24.4632 N   0  0  0  0  0  0  0  0  0  0  0  0
   10.4918  -19.3777   23.1306 C   0  0  0  0  0  0  0  0  0  0  0  0
   11.3636  -20.2542   23.0793 O   0  0  0  0  0  0  0  0  0  0  0  0
    6.9124  -13.5238   18.6516 N   0  0  0  0  0  0  0  0  0  0  0  0
    8.3154  -13.4228   18.4419 C   0  0  0  0  0  0  0  0  0  0  0  0
    8.7275  -12.5209   17.6097 N   0  0  0  0  0  0  0  0  0  0  0  0
    9.2094  -14.2839   19.1263 N   0  0  0  0  0  0  0  0  0  0  0  0
    9.5338  -14.0383   20.5027 C   0  0  0  0  0  0  0  0  0  0  0  0
   10.5394  -15.0267   21.0499 C   0  0  0  0  0  0  0  0  0  0  0  0
    9.8699  -16.2794   21.5614 C   0  0  0  0  0  0  0  0  0  0  0  0
   10.7538  -17.4923   21.4681 C   0  0  2  0  0  0  0  0  0  0  0  0
   10.1425  -18.6930   21.9448 N   0  0  0  0  0  0  0  0  0  0  0  0
   12.0969  -17.2606   22.0487 C   0  0  0  0  0  0  0  0  0  0  0  0
   13.2878  -17.4175   21.3633 O   0  0  0  0  0  0  0  0  0  0  0  0
   12.1774  -16.8954   23.2464 O   0  0  0  0  0  0  0  0  0  0  0  0
  2  3  1  0
  2  1  1  1
  4  9  2  0
  4  3  1  0
  5  4  1  0
  6  7  1  0
  6  5  2  0
  7  8  2  0
  8  9  1  0
 10 11  2  0
 10  2  1  0
 13 12  1  6
 13 14  1  0
 14 10  1  0
 15 13  1  0
 16 15  2  0
 17 18  1  0
 18 19  2  0
 20 21  1  0
 20 18  1  0
 21 22  1  0
 22 23  1  0
 24 23  1  1
 24 25  1  0
 25 15  1  0
 26 24  1  0
 27 26  1  0
 28 26  2  0
M  END
$$$$
