FAR.pdb
     RDKit          3D

 28 28  0  0  1  0  0  0  0  0999 V2000
    7.9855  -16.0858   27.0702 N   0  0  0  0  0  0  0  0  0  0  0  0
    7.2725  -16.0700   25.8133 C   0  0  1  0  0  0  0  0  0  0  0  0
    7.6019  -14.7622   25.1169 C   0  0  0  0  0  0  0  0  0  0  0  0
    7.0955  -13.5983   25.8891 C   0  0  0  0  0  0  0  0  0  0  0  0
    5.7535  -13.4656   26.1814 C   0  0  0  0  0  0  0  0  0  0  0  0
    5.3027  -12.3675   26.9048 C   0  0  0  0  0  0  0  0  0  0  0  0
    6.1576  -11.3836   27.3527 C   0  0  0  0  0  0  0  0  0  0  0  0
    7.4970  -11.5164   27.0607 C   0  0  0  0  0  0  0  0  0  0  0  0
    7.9547  -12.6166   26.3350 C   0  0  0  0  0  0  0  0  0  0  0  0
    7.8072  -17.1709   24.9736 C   0  0  0  0  0  0  0  0  0  0  0  0
    8.9995  -17.5815   25.1661 O   0  0  0  0  0  0  0  0  0  0  0  0
    6.7399  -19.5504   22.2434 C   0  0  0  0  0  0  0  0  0  0  0  0
    7.7158  -18.7012   23.0073 C   0  0  2  0  0  0  0  0  0  0  0  0
    7.0833  -17.8197   23.9495 N   0  0  0  0  0  0  0  0  0  0  0  0
    8.6127  -17.9627   22.0676 C   0  0  0  0  0  0  0  0  0  0  0  0
    8.1306  -17.5526   21.0044 O   0  0  0  0  0  0  0  0  0  0  0  0
    9.0228  -12.4346   18.4465 N   0  0  0  0  0  0  0  0  0  0  0  0
    8.3623  -13.5516   17.8645 C   0  0  0  0  0  0  0  0  0  0  0  0
    8.3029  -13.5985   16.5721 N   0  0  0  0  0  0  0  0  0  0  0  0
    7.7990  -14.5619   18.6838 N   0  0  0  0  0  0  0  0  0  0  0  0
    8.3067  -14.7811   20.0083 C   0  0  0  0  0  0  0  0  0  0  0  0
    9.7582  -15.2060   20.0132 C   0  0  0  0  0  0  0  0  0  0  0  0
   10.2630  -15.4537   21.4142 C   0  0  0  0  0  0  0  0  0  0  0  0
   10.8254  -16.8365   21.5952 C   0  0  2  0  0  0  0  0  0  0  0  0
    9.9772  -17.7143   22.3385 N   0  0  0  0  0  0  0  0  0  0  0  0
   12.2188  -16.8201   22.0980 C   0  0  0  0  0  0  0  0  0  0  0  0
   13.3001  -16.3108   21.4022 O   0  0  0  0  0  0  0  0  0  0  0  0
   12.4517  -17.2983   23.2344 O   0  0  0  0  0  0  0  0  0  0  0  0
  2  3  1  0
  2  1  1  1
  4  9  2  0
  4  3  1  0
  5  4  1  0
  6  7  1  0
  6  5  2  0
  7  8  2  0
  8  9  1  0
 10 11  2  0
 10  2  1  0
 13 12  1  6
 13 14  1  0
 14 10  1  0
 15 13  1  0
 16 15  2  0
 17 18  1  0
 18 19  2  0
 20 21  1  0
 20 18  1  0
 21 22  1  0
 22 23  1  0
 24 23  1  1
 24 25  1  0
 25 15  1  0
 26 24  1  0
 27 26  1  0
 28 26  2  0
M  END
$$$$
