FAR.pdb
     RDKit          3D

 28 28  0  0  1  0  0  0  0  0999 V2000
    8.1095  -13.1499   18.7606 N   0  0  0  0  0  0  0  0  0  0  0  0
    8.2399  -13.3835   20.1807 C   0  0  1  0  0  0  0  0  0  0  0  0
    6.8803  -13.1421   20.8108 C   0  0  0  0  0  0  0  0  0  0  0  0
    6.8726  -13.5369   22.2431 C   0  0  0  0  0  0  0  0  0  0  0  0
    7.4767  -12.7509   23.2028 C   0  0  0  0  0  0  0  0  0  0  0  0
    7.4573  -13.1410   24.5370 C   0  0  0  0  0  0  0  0  0  0  0  0
    6.8469  -14.3051   24.9516 C   0  0  0  0  0  0  0  0  0  0  0  0
    6.2441  -15.0893   23.9932 C   0  0  0  0  0  0  0  0  0  0  0  0
    6.2606  -14.7024   22.6528 C   0  0  0  0  0  0  0  0  0  0  0  0
    8.5758  -14.8158   20.3767 C   0  0  0  0  0  0  0  0  0  0  0  0
    7.9404  -15.7031   19.7163 O   0  0  0  0  0  0  0  0  0  0  0  0
   11.4255  -16.8089   20.7347 C   0  0  0  0  0  0  0  0  0  0  0  0
   10.0197  -16.6553   21.2419 C   0  0  2  0  0  0  0  0  0  0  0  0
    9.5700  -15.2906   21.2600 N   0  0  0  0  0  0  0  0  0  0  0  0
    9.8718  -17.3092   22.5773 C   0  0  0  0  0  0  0  0  0  0  0  0
   10.2203  -18.4912   22.6882 O   0  0  0  0  0  0  0  0  0  0  0  0
   12.4249  -15.8972   30.3118 N   0  0  0  0  0  0  0  0  0  0  0  0
   11.3089  -15.1341   29.8703 C   0  0  0  0  0  0  0  0  0  0  0  0
   10.7332  -14.3671   30.7400 N   0  0  0  0  0  0  0  0  0  0  0  0
   10.8612  -15.2236   28.5284 N   0  0  0  0  0  0  0  0  0  0  0  0
   11.5609  -16.0541   27.5898 C   0  0  0  0  0  0  0  0  0  0  0  0
   11.0091  -15.9403   26.1863 C   0  0  0  0  0  0  0  0  0  0  0  0
    9.5384  -16.2774   26.1354 C   0  0  0  0  0  0  0  0  0  0  0  0
    9.1936  -17.2133   25.0100 C   0  0  2  0  0  0  0  0  0  0  0  0
    9.3551  -16.6412   23.7103 N   0  0  0  0  0  0  0  0  0  0  0  0
    7.8730  -17.8589   25.1945 C   0  0  0  0  0  0  0  0  0  0  0  0
    7.6223  -18.9014   26.0680 O   0  0  0  0  0  0  0  0  0  0  0  0
    6.9021  -17.4420   24.5178 O   0  0  0  0  0  0  0  0  0  0  0  0
  2  3  1  0
  2  1  1  6
  4  9  2  0
  4  3  1  0
  5  4  1  0
  6  7  1  0
  6  5  2  0
  7  8  2  0
  8  9  1  0
 10 11  2  0
 10  2  1  0
 13 12  1  1
 13 14  1  0
 14 10  1  0
 15 13  1  0
 16 15  2  0
 17 18  1  0
 18 19  2  0
 20 21  1  0
 20 18  1  0
 21 22  1  0
 22 23  1  0
 24 23  1  1
 24 25  1  0
 25 15  1  0
 26 24  1  0
 27 26  1  0
 28 26  2  0
M  END
$$$$
