FAR.pdb
     RDKit          3D

 28 28  0  0  1  0  0  0  0  0999 V2000
    5.9680  -17.3773   25.4022 N   0  0  0  0  0  0  0  0  0  0  0  0
    6.3448  -16.0270   25.0514 C   0  0  1  0  0  0  0  0  0  0  0  0
    7.1815  -15.4748   26.1911 C   0  0  0  0  0  0  0  0  0  0  0  0
    6.8618  -14.0475   26.4517 C   0  0  0  0  0  0  0  0  0  0  0  0
    7.3935  -13.3844   27.5387 C   0  0  0  0  0  0  0  0  0  0  0  0
    7.0795  -12.0488   27.7626 C   0  0  0  0  0  0  0  0  0  0  0  0
    6.2413  -11.3427   26.9269 C   0  0  0  0  0  0  0  0  0  0  0  0
    5.7109  -12.0050   25.8421 C   0  0  0  0  0  0  0  0  0  0  0  0
    6.0228  -13.3454   25.6128 C   0  0  0  0  0  0  0  0  0  0  0  0
    7.2143  -16.0953   23.8505 C   0  0  0  0  0  0  0  0  0  0  0  0
    7.9885  -17.0972   23.6952 O   0  0  0  0  0  0  0  0  0  0  0  0
    8.0358  -14.0526   20.7651 C   0  0  0  0  0  0  0  0  0  0  0  0
    8.1416  -15.2162   21.7095 C   0  0  2  0  0  0  0  0  0  0  0  0
    7.2559  -15.1136   22.8364 N   0  0  0  0  0  0  0  0  0  0  0  0
    9.5606  -15.4187   22.1317 C   0  0  0  0  0  0  0  0  0  0  0  0
   10.1613  -14.4598   22.6323 O   0  0  0  0  0  0  0  0  0  0  0  0
   11.8718  -18.6522   26.9972 N   0  0  0  0  0  0  0  0  0  0  0  0
   10.8295  -19.6143   26.8940 C   0  0  0  0  0  0  0  0  0  0  0  0
   10.0801  -19.7911   27.9347 N   0  0  0  0  0  0  0  0  0  0  0  0
   10.6356  -20.3392   25.6915 N   0  0  0  0  0  0  0  0  0  0  0  0
   11.3856  -19.9983   24.5162 C   0  0  0  0  0  0  0  0  0  0  0  0
   11.1291  -18.5821   24.0515 C   0  0  0  0  0  0  0  0  0  0  0  0
   11.9152  -18.2519   22.8056 C   0  0  0  0  0  0  0  0  0  0  0  0
   11.6213  -16.8745   22.2789 C   0  0  2  0  0  0  0  0  0  0  0  0
   10.2411  -16.6486   21.9852 N   0  0  0  0  0  0  0  0  0  0  0  0
   12.5173  -16.4916   21.1630 C   0  0  0  0  0  0  0  0  0  0  0  0
   13.8562  -16.1744   21.3026 O   0  0  0  0  0  0  0  0  0  0  0  0
   12.0436  -16.4471   20.0019 O   0  0  0  0  0  0  0  0  0  0  0  0
  2  3  1  0
  2  1  1  1
  4  9  2  0
  4  3  1  0
  5  4  1  0
  6  7  1  0
  6  5  2  0
  7  8  2  0
  8  9  1  0
 10 11  2  0
 10  2  1  0
 13 12  1  1
 13 14  1  0
 14 10  1  0
 15 13  1  0
 16 15  2  0
 17 18  1  0
 18 19  2  0
 20 21  1  0
 20 18  1  0
 21 22  1  0
 22 23  1  0
 24 23  1  6
 24 25  1  0
 25 15  1  0
 26 24  1  0
 27 26  1  0
 28 26  2  0
M  END
$$$$
