FAR.pdb
     RDKit          3D

 28 28  0  0  1  0  0  0  0  0999 V2000
    8.3357  -15.9402   27.0253 N   0  0  0  0  0  0  0  0  0  0  0  0
    7.5283  -15.9716   25.8272 C   0  0  1  0  0  0  0  0  0  0  0  0
    7.6869  -14.6310   25.1335 C   0  0  0  0  0  0  0  0  0  0  0  0
    7.1632  -13.5239   25.9746 C   0  0  0  0  0  0  0  0  0  0  0  0
    5.8284  -13.4592   26.3183 C   0  0  0  0  0  0  0  0  0  0  0  0
    5.3612  -12.4133   27.1059 C   0  0  0  0  0  0  0  0  0  0  0  0
    6.1923  -11.4160   27.5686 C   0  0  0  0  0  0  0  0  0  0  0  0
    7.5245  -11.4810   27.2253 C   0  0  0  0  0  0  0  0  0  0  0  0
    7.9987  -12.5286   26.4350 C   0  0  0  0  0  0  0  0  0  0  0  0
    8.0901  -17.0100   24.9277 C   0  0  0  0  0  0  0  0  0  0  0  0
    9.3189  -17.3344   25.0381 O   0  0  0  0  0  0  0  0  0  0  0  0
    6.9683  -19.4840   22.3037 C   0  0  0  0  0  0  0  0  0  0  0  0
    7.9657  -18.6397   23.0449 C   0  0  2  0  0  0  0  0  0  0  0  0
    7.3546  -17.6877   23.9309 N   0  0  0  0  0  0  0  0  0  0  0  0
    8.9096  -17.9860   22.0886 C   0  0  0  0  0  0  0  0  0  0  0  0
    8.4836  -17.6803   20.9678 O   0  0  0  0  0  0  0  0  0  0  0  0
    8.4492  -12.6044   18.7454 N   0  0  0  0  0  0  0  0  0  0  0  0
    8.5959  -13.6145   17.7551 C   0  0  0  0  0  0  0  0  0  0  0  0
    8.4722  -13.2547   16.5176 N   0  0  0  0  0  0  0  0  0  0  0  0
    8.8667  -14.9548   18.1285 N   0  0  0  0  0  0  0  0  0  0  0  0
    8.9598  -15.3109   19.5159 C   0  0  0  0  0  0  0  0  0  0  0  0
   10.3152  -14.9964   20.1086 C   0  0  0  0  0  0  0  0  0  0  0  0
   10.3965  -15.3989   21.5614 C   0  0  0  0  0  0  0  0  0  0  0  0
   11.0756  -16.7254   21.7617 C   0  0  2  0  0  0  0  0  0  0  0  0
   10.2574  -17.7040   22.4062 N   0  0  0  0  0  0  0  0  0  0  0  0
   12.4113  -16.5894   22.3879 C   0  0  0  0  0  0  0  0  0  0  0  0
   13.5835  -16.3459   21.6955 O   0  0  0  0  0  0  0  0  0  0  0  0
   12.5031  -16.7000   23.6344 O   0  0  0  0  0  0  0  0  0  0  0  0
  2  3  1  0
  2  1  1  1
  4  9  2  0
  4  3  1  0
  5  4  1  0
  6  7  1  0
  6  5  2  0
  7  8  2  0
  8  9  1  0
 10 11  2  0
 10  2  1  0
 13 12  1  6
 13 14  1  0
 14 10  1  0
 15 13  1  0
 16 15  2  0
 17 18  1  0
 18 19  2  0
 20 21  1  0
 20 18  1  0
 21 22  1  0
 22 23  1  0
 24 23  1  1
 24 25  1  0
 25 15  1  0
 26 24  1  0
 27 26  1  0
 28 26  2  0
M  END
$$$$
