FAR.pdb
     RDKit          3D

 28 28  0  0  1  0  0  0  0  0999 V2000
    8.4621  -16.2674   26.6343 N   0  0  0  0  0  0  0  0  0  0  0  0
    7.4001  -16.2150   25.6556 C   0  0  1  0  0  0  0  0  0  0  0  0
    7.5407  -14.9076   24.8976 C   0  0  0  0  0  0  0  0  0  0  0  0
    7.1864  -13.7471   25.7548 C   0  0  0  0  0  0  0  0  0  0  0  0
    5.8852  -13.5302   26.1596 C   0  0  0  0  0  0  0  0  0  0  0  0
    5.5774  -12.4369   26.9612 C   0  0  0  0  0  0  0  0  0  0  0  0
    6.5375  -11.5403   27.3784 C   0  0  0  0  0  0  0  0  0  0  0  0
    7.8360  -11.7572   26.9741 C   0  0  0  0  0  0  0  0  0  0  0  0
    8.1504  -12.8529   26.1695 C   0  0  0  0  0  0  0  0  0  0  0  0
    7.6191  -17.3189   24.6880 C   0  0  0  0  0  0  0  0  0  0  0  0
    8.7815  -17.8324   24.5778 O   0  0  0  0  0  0  0  0  0  0  0  0
    5.6979  -19.4444   22.2185 C   0  0  0  0  0  0  0  0  0  0  0  0
    6.9196  -18.7955   22.8046 C   0  0  2  0  0  0  0  0  0  0  0  0
    6.6169  -17.8630   23.8552 N   0  0  0  0  0  0  0  0  0  0  0  0
    7.7479  -18.1732   21.7277 C   0  0  0  0  0  0  0  0  0  0  0  0
    8.0585  -18.8722   20.7551 O   0  0  0  0  0  0  0  0  0  0  0  0
    7.3891  -14.8232   17.5640 N   0  0  0  0  0  0  0  0  0  0  0  0
    7.7759  -13.6216   16.9089 C   0  0  0  0  0  0  0  0  0  0  0  0
    7.5698  -13.5486   15.6329 N   0  0  0  0  0  0  0  0  0  0  0  0
    8.3612  -12.5586   17.6415 N   0  0  0  0  0  0  0  0  0  0  0  0
    8.6337  -12.7138   19.0422 C   0  0  0  0  0  0  0  0  0  0  0  0
    9.2103  -14.0713   19.3769 C   0  0  0  0  0  0  0  0  0  0  0  0
    8.3937  -14.7809   20.4299 C   0  0  0  0  0  0  0  0  0  0  0  0
    8.9100  -16.1594   20.7371 C   0  0  2  0  0  0  0  0  0  0  0  0
    8.1886  -16.8312   21.7718 N   0  0  0  0  0  0  0  0  0  0  0  0
   10.3759  -16.1808   20.9504 C   0  0  0  0  0  0  0  0  0  0  0  0
   11.3188  -16.0729   19.9444 O   0  0  0  0  0  0  0  0  0  0  0  0
   10.8096  -16.3048   22.1213 O   0  0  0  0  0  0  0  0  0  0  0  0
  2  3  1  0
  2  1  1  1
  4  9  2  0
  4  3  1  0
  5  4  1  0
  6  7  1  0
  6  5  2  0
  7  8  2  0
  8  9  1  0
 10 11  2  0
 10  2  1  0
 13 12  1  6
 13 14  1  0
 14 10  1  0
 15 13  1  0
 16 15  2  0
 17 18  1  0
 18 19  2  0
 20 21  1  0
 20 18  1  0
 21 22  1  0
 22 23  1  0
 24 23  1  1
 24 25  1  0
 25 15  1  0
 26 24  1  0
 27 26  1  0
 28 26  2  0
M  END
$$$$
