FAR.pdb
     RDKit          3D

 28 28  0  0  1  0  0  0  0  0999 V2000
    5.5997  -17.8973   24.6729 N   0  0  0  0  0  0  0  0  0  0  0  0
    6.0342  -16.5191   24.6753 C   0  0  1  0  0  0  0  0  0  0  0  0
    6.4382  -16.1691   26.0958 C   0  0  0  0  0  0  0  0  0  0  0  0
    6.7448  -14.7214   26.2276 C   0  0  0  0  0  0  0  0  0  0  0  0
    8.0476  -14.2702   26.2814 C   0  0  0  0  0  0  0  0  0  0  0  0
    8.3101  -12.9107   26.4055 C   0  0  0  0  0  0  0  0  0  0  0  0
    7.3025  -11.9732   26.4787 C   0  0  0  0  0  0  0  0  0  0  0  0
    6.0023  -12.4240   26.4250 C   0  0  0  0  0  0  0  0  0  0  0  0
    5.7333  -13.7874   26.3005 C   0  0  0  0  0  0  0  0  0  0  0  0
    7.2495  -16.4243   23.8284 C   0  0  0  0  0  0  0  0  0  0  0  0
    8.1263  -17.3489   23.8874 O   0  0  0  0  0  0  0  0  0  0  0  0
    8.7935  -14.1195   21.2457 C   0  0  0  0  0  0  0  0  0  0  0  0
    8.6792  -15.3607   22.0844 C   0  0  2  0  0  0  0  0  0  0  0  0
    7.5224  -15.3638   22.9370 N   0  0  0  0  0  0  0  0  0  0  0  0
    9.9398  -15.5890   22.8537 C   0  0  0  0  0  0  0  0  0  0  0  0
   10.4882  -14.6105   23.3758 O   0  0  0  0  0  0  0  0  0  0  0  0
   10.9999  -19.9673   28.6216 N   0  0  0  0  0  0  0  0  0  0  0  0
   12.4086  -19.7746   28.6545 C   0  0  0  0  0  0  0  0  0  0  0  0
   12.9214  -19.3334   29.7583 N   0  0  0  0  0  0  0  0  0  0  0  0
   13.2011  -20.0603   27.5146 N   0  0  0  0  0  0  0  0  0  0  0  0
   12.6250  -19.9924   26.2017 C   0  0  0  0  0  0  0  0  0  0  0  0
   12.3227  -18.5746   25.7705 C   0  0  0  0  0  0  0  0  0  0  0  0
   11.6716  -18.5316   24.4092 C   0  0  0  0  0  0  0  0  0  0  0  0
   11.6813  -17.1562   23.8015 C   0  0  2  0  0  0  0  0  0  0  0  0
   10.5282  -16.8644   23.0093 N   0  0  0  0  0  0  0  0  0  0  0  0
   12.9518  -16.8551   23.1015 C   0  0  0  0  0  0  0  0  0  0  0  0
   13.9717  -16.0792   23.6217 O   0  0  0  0  0  0  0  0  0  0  0  0
   13.1313  -17.3302   21.9542 O   0  0  0  0  0  0  0  0  0  0  0  0
  2  3  1  0
  2  1  1  1
  4  9  2  0
  4  3  1  0
  5  4  1  0
  6  7  1  0
  6  5  2  0
  7  8  2  0
  8  9  1  0
 10 11  2  0
 10  2  1  0
 13 12  1  1
 13 14  1  0
 14 10  1  0
 15 13  1  0
 16 15  2  0
 17 18  1  0
 18 19  2  0
 20 21  1  0
 20 18  1  0
 21 22  1  0
 22 23  1  0
 24 23  1  6
 24 25  1  0
 25 15  1  0
 26 24  1  0
 27 26  1  0
 28 26  2  0
M  END
$$$$
