FAR.pdb
     RDKit          3D

 28 28  0  0  1  0  0  0  0  0999 V2000
    7.5992  -16.5968   17.7930 N   0  0  0  0  0  0  0  0  0  0  0  0
    8.1076  -15.7598   18.8556 C   0  0  1  0  0  0  0  0  0  0  0  0
    6.9336  -14.9908   19.4338 C   0  0  0  0  0  0  0  0  0  0  0  0
    7.3406  -14.2022   20.6253 C   0  0  0  0  0  0  0  0  0  0  0  0
    7.1083  -14.6689   21.9029 C   0  0  0  0  0  0  0  0  0  0  0  0
    7.4974  -13.9130   23.0028 C   0  0  0  0  0  0  0  0  0  0  0  0
    8.1191  -12.6903   22.8692 C   0  0  0  0  0  0  0  0  0  0  0  0
    8.3507  -12.2249   21.5938 C   0  0  0  0  0  0  0  0  0  0  0  0
    7.9623  -12.9795   20.4864 C   0  0  0  0  0  0  0  0  0  0  0  0
    8.6299  -16.6484   19.9236 C   0  0  0  0  0  0  0  0  0  0  0  0
    7.9524  -17.6713   20.2727 O   0  0  0  0  0  0  0  0  0  0  0  0
   11.8085  -17.7547   21.3005 C   0  0  0  0  0  0  0  0  0  0  0  0
   10.3675  -17.4056   21.5434 C   0  0  2  0  0  0  0  0  0  0  0  0
    9.8506  -16.4484   20.6046 N   0  0  0  0  0  0  0  0  0  0  0  0
   10.1682  -16.9643   22.9570 C   0  0  0  0  0  0  0  0  0  0  0  0
   10.5471  -15.8291   23.2712 O   0  0  0  0  0  0  0  0  0  0  0  0
    5.1195  -22.0596   24.8692 N   0  0  0  0  0  0  0  0  0  0  0  0
    5.6454  -21.3991   23.7248 C   0  0  0  0  0  0  0  0  0  0  0  0
    5.5824  -22.0285   22.5952 N   0  0  0  0  0  0  0  0  0  0  0  0
    6.2109  -20.1042   23.8375 N   0  0  0  0  0  0  0  0  0  0  0  0
    6.2311  -19.4354   25.1073 C   0  0  0  0  0  0  0  0  0  0  0  0
    6.9520  -18.1068   25.0549 C   0  0  0  0  0  0  0  0  0  0  0  0
    8.1737  -18.0988   25.9418 C   0  0  0  0  0  0  0  0  0  0  0  0
    9.3508  -17.4122   25.3062 C   0  0  2  0  0  0  0  0  0  0  0  0
    9.5705  -17.7812   23.9431 N   0  0  0  0  0  0  0  0  0  0  0  0
   10.5764  -17.5075   26.1329 C   0  0  0  0  0  0  0  0  0  0  0  0
   10.6898  -17.0371   27.4286 O   0  0  0  0  0  0  0  0  0  0  0  0
   11.5931  -18.0509   25.6374 O   0  0  0  0  0  0  0  0  0  0  0  0
  2  3  1  0
  2  1  1  6
  4  9  2  0
  4  3  1  0
  5  4  1  0
  6  7  1  0
  6  5  2  0
  7  8  2  0
  8  9  1  0
 10 11  2  0
 10  2  1  0
 13 12  1  6
 13 14  1  0
 14 10  1  0
 15 13  1  0
 16 15  2  0
 17 18  1  0
 18 19  2  0
 20 21  1  0
 20 18  1  0
 21 22  1  0
 22 23  1  0
 24 23  1  1
 24 25  1  0
 25 15  1  0
 26 24  1  0
 27 26  1  0
 28 26  2  0
M  END
$$$$
