FAR.pdb
     RDKit          3D

 28 28  0  0  1  0  0  0  0  0999 V2000
    6.4529  -16.1249   25.2843 N   0  0  0  0  0  0  0  0  0  0  0  0
    6.6641  -15.0295   24.3658 C   0  0  1  0  0  0  0  0  0  0  0  0
    7.6798  -14.0938   24.9955 C   0  0  0  0  0  0  0  0  0  0  0  0
    7.0224  -13.1140   25.8984 C   0  0  0  0  0  0  0  0  0  0  0  0
    6.5664  -13.4880   27.1458 C   0  0  0  0  0  0  0  0  0  0  0  0
    5.9538  -12.5538   27.9732 C   0  0  0  0  0  0  0  0  0  0  0  0
    5.7784  -11.2409   27.5926 C   0  0  0  0  0  0  0  0  0  0  0  0
    6.2337  -10.8681   26.3474 C   0  0  0  0  0  0  0  0  0  0  0  0
    6.8494  -11.8017   25.5131 C   0  0  0  0  0  0  0  0  0  0  0  0
    7.2720  -15.5833   23.1302 C   0  0  0  0  0  0  0  0  0  0  0  0
    8.1826  -16.4715   23.2252 O   0  0  0  0  0  0  0  0  0  0  0  0
    7.5879  -14.1897   19.6852 C   0  0  0  0  0  0  0  0  0  0  0  0
    7.8489  -15.2381   20.7292 C   0  0  2  0  0  0  0  0  0  0  0  0
    6.9145  -15.1962   21.8201 N   0  0  0  0  0  0  0  0  0  0  0  0
    9.2639  -15.1619   21.2034 C   0  0  0  0  0  0  0  0  0  0  0  0
    9.5311  -14.3661   22.1124 O   0  0  0  0  0  0  0  0  0  0  0  0
   12.0198  -19.1891   26.0951 N   0  0  0  0  0  0  0  0  0  0  0  0
   12.0814  -20.4846   25.5116 C   0  0  0  0  0  0  0  0  0  0  0  0
   12.8984  -21.3366   26.0433 N   0  0  0  0  0  0  0  0  0  0  0  0
   11.2726  -20.8099   24.3939 N   0  0  0  0  0  0  0  0  0  0  0  0
   10.4532  -19.8034   23.7809 C   0  0  0  0  0  0  0  0  0  0  0  0
   11.2505  -18.8434   22.9264 C   0  0  0  0  0  0  0  0  0  0  0  0
   10.3662  -17.8050   22.2792 C   0  0  0  0  0  0  0  0  0  0  0  0
   11.1309  -16.8540   21.4006 C   0  0  2  0  0  0  0  0  0  0  0  0
   10.3024  -15.9533   20.6626 N   0  0  0  0  0  0  0  0  0  0  0  0
   12.1287  -17.5452   20.5513 C   0  0  0  0  0  0  0  0  0  0  0  0
   12.1030  -17.5694   19.1688 O   0  0  0  0  0  0  0  0  0  0  0  0
   13.0708  -18.1570   21.1104 O   0  0  0  0  0  0  0  0  0  0  0  0
  2  3  1  0
  2  1  1  1
  4  9  2  0
  4  3  1  0
  5  4  1  0
  6  7  1  0
  6  5  2  0
  7  8  2  0
  8  9  1  0
 10 11  2  0
 10  2  1  0
 13 12  1  6
 13 14  1  0
 14 10  1  0
 15 13  1  0
 16 15  2  0
 17 18  1  0
 18 19  2  0
 20 21  1  0
 20 18  1  0
 21 22  1  0
 22 23  1  0
 24 23  1  6
 24 25  1  0
 25 15  1  0
 26 24  1  0
 27 26  1  0
 28 26  2  0
M  END
$$$$
