FAR.pdb
     RDKit          3D

 28 28  0  0  1  0  0  0  0  0999 V2000
    5.5006  -17.8589   24.5569 N   0  0  0  0  0  0  0  0  0  0  0  0
    5.8849  -16.4662   24.5891 C   0  0  1  0  0  0  0  0  0  0  0  0
    6.2550  -16.1268   26.0215 C   0  0  0  0  0  0  0  0  0  0  0  0
    6.5534  -14.6792   26.1721 C   0  0  0  0  0  0  0  0  0  0  0  0
    5.5399  -13.7506   26.2915 C   0  0  0  0  0  0  0  0  0  0  0  0
    5.8433  -12.4012   26.4308 C   0  0  0  0  0  0  0  0  0  0  0  0
    7.1421  -11.9406   26.4555 C   0  0  0  0  0  0  0  0  0  0  0  0
    8.1535  -12.8678   26.3363 C   0  0  0  0  0  0  0  0  0  0  0  0
    7.8544  -14.2234   26.1963 C   0  0  0  0  0  0  0  0  0  0  0  0
    7.1082  -16.3132   23.7628 C   0  0  0  0  0  0  0  0  0  0  0  0
    8.0413  -17.1774   23.8611 O   0  0  0  0  0  0  0  0  0  0  0  0
    8.5352  -13.9933   21.1266 C   0  0  0  0  0  0  0  0  0  0  0  0
    8.5117  -15.1895   22.0352 C   0  0  2  0  0  0  0  0  0  0  0  0
    7.3302  -15.2587   22.8502 N   0  0  0  0  0  0  0  0  0  0  0  0
    9.7595  -15.2469   22.8554 C   0  0  0  0  0  0  0  0  0  0  0  0
   10.0667  -14.2481   23.5181 O   0  0  0  0  0  0  0  0  0  0  0  0
   10.7558  -18.5744   28.6372 N   0  0  0  0  0  0  0  0  0  0  0  0
    9.6584  -19.1394   27.9307 C   0  0  0  0  0  0  0  0  0  0  0  0
    8.4750  -18.9424   28.4171 N   0  0  0  0  0  0  0  0  0  0  0  0
    9.8731  -19.8842   26.7440 N   0  0  0  0  0  0  0  0  0  0  0  0
   10.9574  -19.5448   25.8670 C   0  0  0  0  0  0  0  0  0  0  0  0
   10.7827  -18.1880   25.2221 C   0  0  0  0  0  0  0  0  0  0  0  0
   11.9646  -17.8248   24.3559 C   0  0  0  0  0  0  0  0  0  0  0  0
   11.7993  -16.4960   23.6717 C   0  0  2  0  0  0  0  0  0  0  0  0
   10.5974  -16.3836   22.9066 N   0  0  0  0  0  0  0  0  0  0  0  0
   13.0057  -16.0970   22.9101 C   0  0  0  0  0  0  0  0  0  0  0  0
   14.2256  -15.7792   23.4790 O   0  0  0  0  0  0  0  0  0  0  0  0
   12.9327  -16.0383   21.6588 O   0  0  0  0  0  0  0  0  0  0  0  0
  2  3  1  0
  2  1  1  1
  4  9  2  0
  4  3  1  0
  5  4  1  0
  6  7  1  0
  6  5  2  0
  7  8  2  0
  8  9  1  0
 10 11  2  0
 10  2  1  0
 13 12  1  1
 13 14  1  0
 14 10  1  0
 15 13  1  0
 16 15  2  0
 17 18  1  0
 18 19  2  0
 20 21  1  0
 20 18  1  0
 21 22  1  0
 22 23  1  0
 24 23  1  6
 24 25  1  0
 25 15  1  0
 26 24  1  0
 27 26  1  0
 28 26  2  0
M  END
$$$$
