FAR.pdb
     RDKit          3D

 28 28  0  0  1  0  0  0  0  0999 V2000
    7.7485  -16.4059   27.2824 N   0  0  0  0  0  0  0  0  0  0  0  0
    7.6250  -16.3799   25.8428 C   0  0  1  0  0  0  0  0  0  0  0  0
    8.2670  -15.0952   25.3516 C   0  0  0  0  0  0  0  0  0  0  0  0
    7.5662  -13.9019   25.8921 C   0  0  0  0  0  0  0  0  0  0  0  0
    6.1891  -13.8161   25.8779 C   0  0  0  0  0  0  0  0  0  0  0  0
    5.5554  -12.6892   26.3886 C   0  0  0  0  0  0  0  0  0  0  0  0
    6.2591  -11.6302   26.9205 C   0  0  0  0  0  0  0  0  0  0  0  0
    7.6336  -11.7163   26.9345 C   0  0  0  0  0  0  0  0  0  0  0  0
    8.2746  -12.8451   26.4232 C   0  0  0  0  0  0  0  0  0  0  0  0
    8.4158  -17.5117   25.2983 C   0  0  0  0  0  0  0  0  0  0  0  0
    9.3947  -17.9726   25.9739 O   0  0  0  0  0  0  0  0  0  0  0  0
    8.3122  -20.0768   22.5594 C   0  0  0  0  0  0  0  0  0  0  0  0
    9.0090  -19.1836   23.5463 C   0  0  2  0  0  0  0  0  0  0  0  0
    8.1660  -18.1383   24.0578 N   0  0  0  0  0  0  0  0  0  0  0  0
   10.2733  -18.6443   22.9604 C   0  0  0  0  0  0  0  0  0  0  0  0
   11.1164  -19.4524   22.5516 O   0  0  0  0  0  0  0  0  0  0  0  0
    8.7168  -12.0971   18.4641 N   0  0  0  0  0  0  0  0  0  0  0  0
    8.4842  -13.4154   17.9839 C   0  0  0  0  0  0  0  0  0  0  0  0
    7.7830  -13.5378   16.9025 N   0  0  0  0  0  0  0  0  0  0  0  0
    9.0079  -14.5364   18.6755 N   0  0  0  0  0  0  0  0  0  0  0  0
    9.9662  -14.3499   19.7276 C   0  0  0  0  0  0  0  0  0  0  0  0
   10.4307  -15.6565   20.3313 C   0  0  0  0  0  0  0  0  0  0  0  0
   11.4133  -15.4344   21.4557 C   0  0  0  0  0  0  0  0  0  0  0  0
   11.6995  -16.6876   22.2358 C   0  0  2  0  0  0  0  0  0  0  0  0
   10.5459  -17.2617   22.8539 N   0  0  0  0  0  0  0  0  0  0  0  0
   12.8339  -16.5240   23.1745 C   0  0  0  0  0  0  0  0  0  0  0  0
   14.1209  -16.1822   22.8009 O   0  0  0  0  0  0  0  0  0  0  0  0
   12.6295  -16.7047   24.3992 O   0  0  0  0  0  0  0  0  0  0  0  0
  2  3  1  0
  2  1  1  1
  4  9  2  0
  4  3  1  0
  5  4  1  0
  6  7  1  0
  6  5  2  0
  7  8  2  0
  8  9  1  0
 10 11  2  0
 10  2  1  0
 13 12  1  6
 13 14  1  0
 14 10  1  0
 15 13  1  0
 16 15  2  0
 17 18  1  0
 18 19  2  0
 20 21  1  0
 20 18  1  0
 21 22  1  0
 22 23  1  0
 24 23  1  1
 24 25  1  0
 25 15  1  0
 26 24  1  0
 27 26  1  0
 28 26  2  0
M  END
$$$$
