FAR.pdb
     RDKit          3D

 28 28  0  0  1  0  0  0  0  0999 V2000
    9.3395  -15.3629   26.3235 N   0  0  0  0  0  0  0  0  0  0  0  0
    8.2750  -15.9068   25.5115 C   0  0  1  0  0  0  0  0  0  0  0  0
    7.7399  -14.7815   24.6449 C   0  0  0  0  0  0  0  0  0  0  0  0
    7.2136  -13.6667   25.4740 C   0  0  0  0  0  0  0  0  0  0  0  0
    7.8389  -12.4369   25.4955 C   0  0  0  0  0  0  0  0  0  0  0  0
    7.3284  -11.4087   26.2796 C   0  0  0  0  0  0  0  0  0  0  0  0
    6.1994  -11.5684   27.0537 C   0  0  0  0  0  0  0  0  0  0  0  0
    5.5756  -12.7961   27.0320 C   0  0  0  0  0  0  0  0  0  0  0  0
    6.0838  -13.8314   26.2467 C   0  0  0  0  0  0  0  0  0  0  0  0
    8.8673  -16.9244   24.6078 C   0  0  0  0  0  0  0  0  0  0  0  0
   10.0055  -16.7020   24.0766 O   0  0  0  0  0  0  0  0  0  0  0  0
    8.2331  -20.4082   23.3076 C   0  0  0  0  0  0  0  0  0  0  0  0
    8.7634  -19.0043   23.2368 C   0  0  2  0  0  0  0  0  0  0  0  0
    8.2564  -18.1541   24.2785 N   0  0  0  0  0  0  0  0  0  0  0  0
    8.5280  -18.4250   21.8797 C   0  0  0  0  0  0  0  0  0  0  0  0
    7.3821  -18.0541   21.5960 O   0  0  0  0  0  0  0  0  0  0  0  0
    9.0140  -12.7353   16.6099 N   0  0  0  0  0  0  0  0  0  0  0  0
    8.1031  -13.7599   16.2318 C   0  0  0  0  0  0  0  0  0  0  0  0
    7.9184  -13.9517   14.9649 N   0  0  0  0  0  0  0  0  0  0  0  0
    7.4352  -14.5290   17.2175 N   0  0  0  0  0  0  0  0  0  0  0  0
    7.8268  -14.4309   18.5948 C   0  0  0  0  0  0  0  0  0  0  0  0
    9.1483  -15.1110   18.8749 C   0  0  0  0  0  0  0  0  0  0  0  0
    9.0636  -16.0238   20.0744 C   0  0  0  0  0  0  0  0  0  0  0  0
    9.4971  -17.4307   19.7679 C   0  0  2  0  0  0  0  0  0  0  0  0
    9.5495  -18.2836   20.9135 N   0  0  0  0  0  0  0  0  0  0  0  0
   10.7369  -17.4778   18.9583 C   0  0  0  0  0  0  0  0  0  0  0  0
   11.9159  -18.0793   19.3593 O   0  0  0  0  0  0  0  0  0  0  0  0
   10.7340  -16.9383   17.8254 O   0  0  0  0  0  0  0  0  0  0  0  0
  2  3  1  0
  2  1  1  1
  4  9  2  0
  4  3  1  0
  5  4  1  0
  6  7  1  0
  6  5  2  0
  7  8  2  0
  8  9  1  0
 10 11  2  0
 10  2  1  0
 13 12  1  6
 13 14  1  0
 14 10  1  0
 15 13  1  0
 16 15  2  0
 17 18  1  0
 18 19  2  0
 20 21  1  0
 20 18  1  0
 21 22  1  0
 22 23  1  0
 24 23  1  1
 24 25  1  0
 25 15  1  0
 26 24  1  0
 27 26  1  0
 28 26  2  0
M  END
$$$$
