FAR.pdb
     RDKit          3D

 28 28  0  0  1  0  0  0  0  0999 V2000
    9.4296  -15.2725   22.2787 N   0  0  0  0  0  0  0  0  0  0  0  0
    9.0633  -14.4700   23.4233 C   0  0  1  0  0  0  0  0  0  0  0  0
    7.5771  -14.6648   23.6619 C   0  0  0  0  0  0  0  0  0  0  0  0
    7.0763  -13.7483   24.7185 C   0  0  0  0  0  0  0  0  0  0  0  0
    6.2374  -14.2006   25.7162 C   0  0  0  0  0  0  0  0  0  0  0  0
    5.7810  -13.3242   26.6941 C   0  0  0  0  0  0  0  0  0  0  0  0
    6.1385  -11.9932   26.7103 C   0  0  0  0  0  0  0  0  0  0  0  0
    6.9759  -11.5422   25.7142 C   0  0  0  0  0  0  0  0  0  0  0  0
    7.4369  -12.4176   24.7304 C   0  0  0  0  0  0  0  0  0  0  0  0
    9.7806  -15.0101   24.6052 C   0  0  0  0  0  0  0  0  0  0  0  0
   10.3027  -16.1722   24.5424 O   0  0  0  0  0  0  0  0  0  0  0  0
   10.8950  -13.8827   28.0452 C   0  0  0  0  0  0  0  0  0  0  0  0
   10.7417  -14.8428   26.8997 C   0  0  2  0  0  0  0  0  0  0  0  0
    9.9368  -14.3229   25.8288 N   0  0  0  0  0  0  0  0  0  0  0  0
   10.2366  -16.1617   27.3878 C   0  0  0  0  0  0  0  0  0  0  0  0
    9.0151  -16.3018   27.5268 O   0  0  0  0  0  0  0  0  0  0  0  0
   12.9469  -18.8796   23.2539 N   0  0  0  0  0  0  0  0  0  0  0  0
   11.6650  -19.1430   22.6971 C   0  0  0  0  0  0  0  0  0  0  0  0
   11.3994  -18.6171   21.5444 N   0  0  0  0  0  0  0  0  0  0  0  0
   10.7307  -19.9514   23.3920 N   0  0  0  0  0  0  0  0  0  0  0  0
   10.9773  -20.3270   24.7552 C   0  0  0  0  0  0  0  0  0  0  0  0
   10.6388  -19.2248   25.7339 C   0  0  0  0  0  0  0  0  0  0  0  0
   10.9100  -19.6409   27.1595 C   0  0  0  0  0  0  0  0  0  0  0  0
   10.6608  -18.5347   28.1471 C   0  0  2  0  0  0  0  0  0  0  0  0
   11.0871  -17.2475   27.6953 N   0  0  0  0  0  0  0  0  0  0  0  0
   11.1591  -18.8628   29.5031 C   0  0  0  0  0  0  0  0  0  0  0  0
   12.0626  -18.0959   30.2160 O   0  0  0  0  0  0  0  0  0  0  0  0
   10.7416  -19.9075   30.0587 O   0  0  0  0  0  0  0  0  0  0  0  0
  2  3  1  0
  2  1  1  6
  4  9  2  0
  4  3  1  0
  5  4  1  0
  6  7  1  0
  6  5  2  0
  7  8  2  0
  8  9  1  0
 10 11  2  0
 10  2  1  0
 13 12  1  1
 13 14  1  0
 14 10  1  0
 15 13  1  0
 16 15  2  0
 17 18  1  0
 18 19  2  0
 20 21  1  0
 20 18  1  0
 21 22  1  0
 22 23  1  0
 24 23  1  6
 24 25  1  0
 25 15  1  0
 26 24  1  0
 27 26  1  0
 28 26  2  0
M  END
$$$$
