FAR.pdb
     RDKit          3D

 28 28  0  0  1  0  0  0  0  0999 V2000
    5.8368  -18.2619   24.4167 N   0  0  0  0  0  0  0  0  0  0  0  0
    6.0721  -16.8380   24.3419 C   0  0  1  0  0  0  0  0  0  0  0  0
    6.7778  -16.4232   25.6201 C   0  0  0  0  0  0  0  0  0  0  0  0
    6.8967  -14.9453   25.7144 C   0  0  0  0  0  0  0  0  0  0  0  0
    8.1180  -14.3178   25.5780 C   0  0  0  0  0  0  0  0  0  0  0  0
    8.2049  -12.9335   25.6707 C   0  0  0  0  0  0  0  0  0  0  0  0
    7.0989  -12.1431   25.8981 C   0  0  0  0  0  0  0  0  0  0  0  0
    5.8801  -12.7698   26.0343 C   0  0  0  0  0  0  0  0  0  0  0  0
    5.7874  -14.1589   25.9420 C   0  0  0  0  0  0  0  0  0  0  0  0
    7.0056  -16.5903   23.2149 C   0  0  0  0  0  0  0  0  0  0  0  0
    7.8500  -17.4907   22.8931 O   0  0  0  0  0  0  0  0  0  0  0  0
    7.6591  -13.9740   20.5535 C   0  0  0  0  0  0  0  0  0  0  0  0
    7.8688  -15.2700   21.2841 C   0  0  2  0  0  0  0  0  0  0  0  0
    7.0366  -15.4053   22.4477 N   0  0  0  0  0  0  0  0  0  0  0  0
    9.3153  -15.4590   21.6076 C   0  0  0  0  0  0  0  0  0  0  0  0
   10.1387  -15.3217   20.6943 O   0  0  0  0  0  0  0  0  0  0  0  0
   11.7808  -16.3883   29.8793 N   0  0  0  0  0  0  0  0  0  0  0  0
   10.9727  -15.2840   29.4918 C   0  0  0  0  0  0  0  0  0  0  0  0
   10.5116  -14.5264   30.4348 N   0  0  0  0  0  0  0  0  0  0  0  0
   10.6957  -15.0399   28.1232 N   0  0  0  0  0  0  0  0  0  0  0  0
   11.2016  -15.9291   27.1164 C   0  0  0  0  0  0  0  0  0  0  0  0
   10.8331  -15.4937   25.7157 C   0  0  0  0  0  0  0  0  0  0  0  0
   11.3391  -16.4657   24.6774 C   0  0  0  0  0  0  0  0  0  0  0  0
   11.1485  -15.9681   23.2712 C   0  0  2  0  0  0  0  0  0  0  0  0
    9.7801  -15.7854   22.9016 N   0  0  0  0  0  0  0  0  0  0  0  0
   11.9109  -16.7632   22.2807 C   0  0  0  0  0  0  0  0  0  0  0  0
   11.6059  -18.0605   21.9108 O   0  0  0  0  0  0  0  0  0  0  0  0
   12.9072  -16.2369   21.7285 O   0  0  0  0  0  0  0  0  0  0  0  0
  2  3  1  0
  2  1  1  1
  4  9  2  0
  4  3  1  0
  5  4  1  0
  6  7  1  0
  6  5  2  0
  7  8  2  0
  8  9  1  0
 10 11  2  0
 10  2  1  0
 13 12  1  1
 13 14  1  0
 14 10  1  0
 15 13  1  0
 16 15  2  0
 17 18  1  0
 18 19  2  0
 20 21  1  0
 20 18  1  0
 21 22  1  0
 22 23  1  0
 24 23  1  1
 24 25  1  0
 25 15  1  0
 26 24  1  0
 27 26  1  0
 28 26  2  0
M  END
$$$$
