SAM.pdb
     RDKit          3D

 20 19  0  0  1  0  0  0  0  0999 V2000
   31.3353  -38.3182   -2.0940 O   0  0  0  0  0  0  0  0  0  0  0  0
   30.6712  -37.1878   -1.6249 C   0  0  0  0  0  0  0  0  0  0  0  0
   30.8812  -36.0184   -2.5969 C   0  0  2  0  0  0  0  0  0  0  0  0
   32.2306  -35.5492   -2.4179 N   0  0  0  0  0  0  0  0  0  0  0  0
   29.8745  -34.9896   -2.2070 C   0  0  0  0  0  0  0  0  0  0  0  0
   30.1894  -34.1785   -1.3054 O   0  0  0  0  0  0  0  0  0  0  0  0
   26.6478  -33.6549   -3.5088 C   0  0  0  0  0  0  0  0  0  0  0  0
   27.7656  -33.7263   -2.4784 C   0  0  2  0  0  0  0  0  0  0  0  0
   28.5971  -34.8796   -2.7925 N   0  0  0  0  0  0  0  0  0  0  0  0
   27.1981  -33.8722   -1.1210 C   0  0  0  0  0  0  0  0  0  0  0  0
   27.2009  -34.9945   -0.5664 O   0  0  0  0  0  0  0  0  0  0  0  0
   24.6712  -30.1360    5.3575 C   0  0  0  0  0  0  0  0  0  0  0  0
   25.2327  -29.9565    3.6449 S   0  0  0  0  0  0  0  0  0  0  0  0
   25.3645  -31.6457    2.9480 C   0  0  0  0  0  0  0  0  0  0  0  0
   25.8823  -31.6060    1.5472 C   0  0  0  0  0  0  0  0  0  0  0  0
   26.1235  -32.9591    0.9629 C   0  0  2  0  0  0  0  0  0  0  0  0
   26.6384  -32.7965   -0.3916 N   0  0  0  0  0  0  0  0  0  0  0  0
   24.9645  -33.8489    0.9271 C   0  0  0  0  0  0  0  0  0  0  0  0
   24.1673  -33.7809   -0.0386 O   0  0  0  0  0  0  0  0  0  0  0  0
   24.6521  -34.7966    1.8957 O   0  0  0  0  0  0  0  0  0  0  0  0
  2  1  1  0
  3  2  1  0
  3  5  1  0
  3  4  1  1
  5  6  2  0
  8  7  1  6
  9  8  1  0
  9  5  1  0
 10  8  1  0
 10 11  2  0
 12 13  1  0
 14 13  1  0
 14 15  1  0
 16 15  1  6
 16 17  1  0
 16 18  1  0
 17 10  1  0
 18 19  2  0
 18 20  1  0
M  END
$$$$
