SAM.pdb
     RDKit          3D

 20 19  0  0  1  0  0  0  0  0999 V2000
   21.5200  -13.9361  -15.5648 O   0  0  0  0  0  0  0  0  0  0  0  0
   21.4977  -12.6004  -15.9578 C   0  0  0  0  0  0  0  0  0  0  0  0
   20.1806  -12.2920  -16.6834 C   0  0  2  0  0  0  0  0  0  0  0  0
   20.2946  -12.8157  -18.0198 N   0  0  0  0  0  0  0  0  0  0  0  0
   20.0579  -10.8058  -16.6732 C   0  0  0  0  0  0  0  0  0  0  0  0
   20.7729  -10.1565  -17.4713 O   0  0  0  0  0  0  0  0  0  0  0  0
   17.8704   -8.1827  -15.1754 C   0  0  0  0  0  0  0  0  0  0  0  0
   19.1063   -8.6462  -15.9329 C   0  0  2  0  0  0  0  0  0  0  0  0
   19.1880  -10.0957  -15.8213 N   0  0  0  0  0  0  0  0  0  0  0  0
   20.3192   -8.0298  -15.3542 C   0  0  0  0  0  0  0  0  0  0  0  0
   21.2860   -8.7547  -15.0272 O   0  0  0  0  0  0  0  0  0  0  0  0
   26.4479   -4.8500  -17.3511 C   0  0  0  0  0  0  0  0  0  0  0  0
   24.9150   -5.7969  -17.5360 S   0  0  0  0  0  0  0  0  0  0  0  0
   23.9337   -5.5240  -16.0132 C   0  0  0  0  0  0  0  0  0  0  0  0
   22.6315   -6.2531  -16.0798 C   0  0  0  0  0  0  0  0  0  0  0  0
   21.7540   -6.0144  -14.8951 C   0  0  2  0  0  0  0  0  0  0  0  0
   20.4591   -6.6378  -15.1414 N   0  0  0  0  0  0  0  0  0  0  0  0
   21.5460   -4.6137  -14.5334 C   0  0  0  0  0  0  0  0  0  0  0  0
   22.3065   -4.0766  -13.6931 O   0  0  0  0  0  0  0  0  0  0  0  0
   20.5506   -3.7921  -15.0511 O   0  0  0  0  0  0  0  0  0  0  0  0
  2  1  1  0
  3  2  1  0
  3  5  1  0
  3  4  1  6
  5  6  2  0
  8  7  1  1
  9  8  1  0
  9  5  1  0
 10  8  1  0
 10 11  2  0
 12 13  1  0
 14 13  1  0
 14 15  1  0
 16 15  1  6
 16 17  1  0
 16 18  1  0
 17 10  1  0
 18 19  2  0
 18 20  1  0
M  END
$$$$
