SAM.pdb
     RDKit          3D

 20 19  0  0  1  0  0  0  0  0999 V2000
   16.3562  -14.3206  -14.9574 O   0  0  0  0  0  0  0  0  0  0  0  0
   17.3167  -13.3812  -15.3237 C   0  0  0  0  0  0  0  0  0  0  0  0
   17.2870  -13.1703  -16.8438 C   0  0  2  0  0  0  0  0  0  0  0  0
   17.7892  -14.3741  -17.4536 N   0  0  0  0  0  0  0  0  0  0  0  0
   18.1745  -11.9999  -17.1018 C   0  0  0  0  0  0  0  0  0  0  0  0
   19.3888  -12.2249  -17.3136 O   0  0  0  0  0  0  0  0  0  0  0  0
   17.8636   -8.3125  -17.6359 C   0  0  0  0  0  0  0  0  0  0  0  0
   18.6538   -9.6055  -17.4948 C   0  0  2  0  0  0  0  0  0  0  0  0
   17.7263  -10.6637  -17.1203 N   0  0  0  0  0  0  0  0  0  0  0  0
   19.6917   -9.4567  -16.4525 C   0  0  0  0  0  0  0  0  0  0  0  0
   19.3920   -9.6363  -15.2504 O   0  0  0  0  0  0  0  0  0  0  0  0
   27.2170  -10.4385  -14.7203 C   0  0  0  0  0  0  0  0  0  0  0  0
   25.9497  -10.4040  -16.0139 S   0  0  0  0  0  0  0  0  0  0  0  0
   24.4448   -9.6749  -15.2655 C   0  0  0  0  0  0  0  0  0  0  0  0
   23.2970   -9.7231  -16.2206 C   0  0  0  0  0  0  0  0  0  0  0  0
   22.0608   -9.0667  -15.6996 C   0  0  2  0  0  0  0  0  0  0  0  0
   21.0356   -9.1156  -16.7354 N   0  0  0  0  0  0  0  0  0  0  0  0
   22.2186   -7.6844  -15.2521 C   0  0  0  0  0  0  0  0  0  0  0  0
   22.0378   -6.7498  -16.0686 O   0  0  0  0  0  0  0  0  0  0  0  0
   22.5617   -7.2943  -13.9622 O   0  0  0  0  0  0  0  0  0  0  0  0
  2  1  1  0
  3  2  1  0
  3  5  1  0
  3  4  1  6
  5  6  2  0
  8  7  1  1
  9  8  1  0
  9  5  1  0
 10  8  1  0
 10 11  2  0
 12 13  1  0
 14 13  1  0
 14 15  1  0
 16 15  1  6
 16 17  1  0
 16 18  1  0
 17 10  1  0
 18 19  2  0
 18 20  1  0
M  END
$$$$
