SAM.pdb
     RDKit          3D

 20 19  0  0  1  0  0  0  0  0999 V2000
   15.2350  -12.3232  -14.0956 O   0  0  0  0  0  0  0  0  0  0  0  0
   15.5179  -10.9951  -13.7870 C   0  0  0  0  0  0  0  0  0  0  0  0
   16.9316  -10.6378  -14.2669 C   0  0  2  0  0  0  0  0  0  0  0  0
   17.8022  -11.7162  -13.8765 N   0  0  0  0  0  0  0  0  0  0  0  0
   17.2768   -9.3618  -13.5766 C   0  0  0  0  0  0  0  0  0  0  0  0
   17.5702   -9.4184  -12.3598 O   0  0  0  0  0  0  0  0  0  0  0  0
   17.7887   -5.7535  -14.4134 C   0  0  0  0  0  0  0  0  0  0  0  0
   17.6592   -6.9217  -13.4466 C   0  0  2  0  0  0  0  0  0  0  0  0
   17.2912   -8.1040  -14.2126 N   0  0  0  0  0  0  0  0  0  0  0  0
   16.6178   -6.6342  -12.4373 C   0  0  0  0  0  0  0  0  0  0  0  0
   15.5012   -7.1935  -12.5235 O   0  0  0  0  0  0  0  0  0  0  0  0
   13.7577   -9.1118   -8.4822 C   0  0  0  0  0  0  0  0  0  0  0  0
   14.4227   -7.8759   -7.3373 S   0  0  0  0  0  0  0  0  0  0  0  0
   14.7025   -6.3473   -8.3077 C   0  0  0  0  0  0  0  0  0  0  0  0
   15.6479   -6.5978   -9.4369 C   0  0  0  0  0  0  0  0  0  0  0  0
   15.7533   -5.4532  -10.3905 C   0  0  2  0  0  0  0  0  0  0  0  0
   16.8088   -5.7447  -11.3534 N   0  0  0  0  0  0  0  0  0  0  0  0
   16.0088   -4.1472   -9.7861 C   0  0  0  0  0  0  0  0  0  0  0  0
   17.1699   -3.6739   -9.8139 O   0  0  0  0  0  0  0  0  0  0  0  0
   15.0532   -3.3526   -9.1623 O   0  0  0  0  0  0  0  0  0  0  0  0
  2  1  1  0
  3  2  1  0
  3  5  1  0
  3  4  1  1
  5  6  2  0
  8  7  1  6
  9  8  1  0
  9  5  1  0
 10  8  1  0
 10 11  2  0
 12 13  1  0
 14 13  1  0
 14 15  1  0
 16 15  1  1
 16 17  1  0
 16 18  1  0
 17 10  1  0
 18 19  2  0
 18 20  1  0
M  END
$$$$
