SAM.pdb
     RDKit          3D

 20 19  0  0  1  0  0  0  0  0999 V2000
   21.6609  -19.9365  -12.2820 O   0  0  0  0  0  0  0  0  0  0  0  0
   21.5588  -18.7981  -13.0775 C   0  0  0  0  0  0  0  0  0  0  0  0
   21.8768  -19.1515  -14.5370 C   0  0  2  0  0  0  0  0  0  0  0  0
   21.1068  -20.3210  -14.8725 N   0  0  0  0  0  0  0  0  0  0  0  0
   23.3437  -19.4180  -14.5727 C   0  0  0  0  0  0  0  0  0  0  0  0
   23.7229  -20.6068  -14.4600 O   0  0  0  0  0  0  0  0  0  0  0  0
   26.5155  -17.5858  -15.2822 C   0  0  0  0  0  0  0  0  0  0  0  0
   25.7261  -18.7891  -14.7871 C   0  0  2  0  0  0  0  0  0  0  0  0
   24.3207  -18.4135  -14.7250 N   0  0  0  0  0  0  0  0  0  0  0  0
   26.1975  -19.1898  -13.4443 C   0  0  0  0  0  0  0  0  0  0  0  0
   26.7219  -18.3372  -12.6925 O   0  0  0  0  0  0  0  0  0  0  0  0
   27.1644  -19.5355   -6.5782 C   0  0  0  0  0  0  0  0  0  0  0  0
   26.6451  -18.9342   -8.2059 S   0  0  0  0  0  0  0  0  0  0  0  0
   26.1799  -20.4055   -9.1933 C   0  0  0  0  0  0  0  0  0  0  0  0
   25.8733  -20.0253  -10.6052 C   0  0  0  0  0  0  0  0  0  0  0  0
   26.5673  -20.8783  -11.6158 C   0  0  2  0  0  0  0  0  0  0  0  0
   26.0906  -20.5089  -12.9433 N   0  0  0  0  0  0  0  0  0  0  0  0
   26.4127  -22.3210  -11.4397 C   0  0  0  0  0  0  0  0  0  0  0  0
   25.5469  -22.9325  -12.1100 O   0  0  0  0  0  0  0  0  0  0  0  0
   27.1611  -23.1065  -10.5698 O   0  0  0  0  0  0  0  0  0  0  0  0
  2  1  1  0
  3  2  1  0
  3  5  1  0
  3  4  1  1
  5  6  2  0
  8  7  1  1
  9  8  1  0
  9  5  1  0
 10  8  1  0
 10 11  2  0
 12 13  1  0
 14 13  1  0
 14 15  1  0
 16 15  1  1
 16 17  1  0
 16 18  1  0
 17 10  1  0
 18 19  2  0
 18 20  1  0
M  END
$$$$
