SAM.pdb
     RDKit          3D

 20 19  0  0  1  0  0  0  0  0999 V2000
   14.8430  -20.3342   -7.1638 O   0  0  0  0  0  0  0  0  0  0  0  0
   14.4932  -20.6950   -5.8651 C   0  0  0  0  0  0  0  0  0  0  0  0
   13.1416  -21.4226   -5.8720 C   0  0  2  0  0  0  0  0  0  0  0  0
   12.1157  -20.4201   -5.9972 N   0  0  0  0  0  0  0  0  0  0  0  0
   13.0675  -22.1394   -4.5664 C   0  0  0  0  0  0  0  0  0  0  0  0
   12.7422  -21.4755   -3.5548 O   0  0  0  0  0  0  0  0  0  0  0  0
   13.2844  -25.6271   -3.2506 C   0  0  0  0  0  0  0  0  0  0  0  0
   13.2290  -24.1150   -3.0872 C   0  0  2  0  0  0  0  0  0  0  0  0
   13.3412  -23.5130   -4.4082 N   0  0  0  0  0  0  0  0  0  0  0  0
   14.3422  -23.6544   -2.2302 C   0  0  0  0  0  0  0  0  0  0  0  0
   15.4772  -23.4822   -2.7295 O   0  0  0  0  0  0  0  0  0  0  0  0
   17.1008  -18.4187    1.1102 C   0  0  0  0  0  0  0  0  0  0  0  0
   15.7523  -19.3363    1.8976 S   0  0  0  0  0  0  0  0  0  0  0  0
   16.0173  -21.1075    1.5118 C   0  0  0  0  0  0  0  0  0  0  0  0
   15.0207  -21.5901    0.5090 C   0  0  0  0  0  0  0  0  0  0  0  0
   15.3212  -22.9538   -0.0207 C   0  0  2  0  0  0  0  0  0  0  0  0
   14.2018  -23.3895   -0.8472 N   0  0  0  0  0  0  0  0  0  0  0  0
   15.5956  -23.9775    0.9857 C   0  0  0  0  0  0  0  0  0  0  0  0
   14.7663  -24.9012    1.1646 O   0  0  0  0  0  0  0  0  0  0  0  0
   16.7284  -24.0259    1.7909 O   0  0  0  0  0  0  0  0  0  0  0  0
  2  1  1  0
  3  2  1  0
  3  5  1  0
  3  4  1  1
  5  6  2  0
  8  7  1  6
  9  8  1  0
  9  5  1  0
 10  8  1  0
 10 11  2  0
 12 13  1  0
 14 13  1  0
 14 15  1  0
 16 15  1  1
 16 17  1  0
 16 18  1  0
 17 10  1  0
 18 19  2  0
 18 20  1  0
M  END
$$$$
