SAM.pdb
     RDKit          3D

 20 19  0  0  1  0  0  0  0  0999 V2000
   25.0372  -25.8150  -16.0823 O   0  0  0  0  0  0  0  0  0  0  0  0
   25.3694  -25.1665  -17.2690 C   0  0  0  0  0  0  0  0  0  0  0  0
   26.8107  -24.6439  -17.1921 C   0  0  2  0  0  0  0  0  0  0  0  0
   27.6006  -25.6586  -16.5442 N   0  0  0  0  0  0  0  0  0  0  0  0
   26.7385  -23.3912  -16.3862 C   0  0  0  0  0  0  0  0  0  0  0  0
   27.4859  -23.2986  -15.3849 O   0  0  0  0  0  0  0  0  0  0  0  0
   25.1183  -20.0296  -16.5577 C   0  0  0  0  0  0  0  0  0  0  0  0
   25.9304  -21.1130  -15.8628 C   0  0  2  0  0  0  0  0  0  0  0  0
   25.8820  -22.3128  -16.6864 N   0  0  0  0  0  0  0  0  0  0  0  0
   25.3620  -21.3981  -14.5280 C   0  0  0  0  0  0  0  0  0  0  0  0
   24.4102  -22.2040  -14.4199 O   0  0  0  0  0  0  0  0  0  0  0  0
   26.1075  -20.4050   -6.7178 C   0  0  0  0  0  0  0  0  0  0  0  0
   26.7140  -19.9222   -8.3547 S   0  0  0  0  0  0  0  0  0  0  0  0
   25.6438  -20.7555   -9.5862 C   0  0  0  0  0  0  0  0  0  0  0  0
   26.1269  -20.4954  -10.9757 C   0  0  0  0  0  0  0  0  0  0  0  0
   25.2654  -21.1088  -12.0304 C   0  0  2  0  0  0  0  0  0  0  0  0
   25.8380  -20.8025  -13.3359 N   0  0  0  0  0  0  0  0  0  0  0  0
   23.8624  -20.6995  -12.0189 C   0  0  0  0  0  0  0  0  0  0  0  0
   23.5316  -19.6241  -12.5729 O   0  0  0  0  0  0  0  0  0  0  0  0
   22.8242  -21.4146  -11.4319 O   0  0  0  0  0  0  0  0  0  0  0  0
  2  1  1  0
  3  2  1  0
  3  5  1  0
  3  4  1  1
  5  6  2  0
  8  7  1  6
  9  8  1  0
  9  5  1  0
 10  8  1  0
 10 11  2  0
 12 13  1  0
 14 13  1  0
 14 15  1  0
 16 15  1  1
 16 17  1  0
 16 18  1  0
 17 10  1  0
 18 19  2  0
 18 20  1  0
M  END
$$$$
