SAM.pdb
     RDKit          3D

 20 19  0  0  1  0  0  0  0  0999 V2000
   14.0854  -10.0166  -14.2064 O   0  0  0  0  0  0  0  0  0  0  0  0
   14.0420  -11.3445  -13.7897 C   0  0  0  0  0  0  0  0  0  0  0  0
   15.4584  -11.9362  -13.7846 C   0  0  2  0  0  0  0  0  0  0  0  0
   15.3368  -13.3371  -13.4748 N   0  0  0  0  0  0  0  0  0  0  0  0
   16.1983  -11.1910  -12.7257 C   0  0  0  0  0  0  0  0  0  0  0  0
   15.9310  -11.4571  -11.5309 O   0  0  0  0  0  0  0  0  0  0  0  0
   18.8887   -8.6155  -12.4159 C   0  0  0  0  0  0  0  0  0  0  0  0
   17.6970   -9.4068  -11.8963 C   0  0  2  0  0  0  0  0  0  0  0  0
   17.1752  -10.2106  -12.9926 N   0  0  0  0  0  0  0  0  0  0  0  0
   16.6489   -8.4862  -11.4067 C   0  0  0  0  0  0  0  0  0  0  0  0
   15.8204   -8.0066  -12.2133 O   0  0  0  0  0  0  0  0  0  0  0  0
   11.1803   -6.6257   -6.4042 C   0  0  0  0  0  0  0  0  0  0  0  0
   12.4175   -7.8148   -6.9838 S   0  0  0  0  0  0  0  0  0  0  0  0
   13.6050   -6.8839   -8.0227 C   0  0  0  0  0  0  0  0  0  0  0  0
   14.6508   -7.7923   -8.5821 C   0  0  0  0  0  0  0  0  0  0  0  0
   15.5216   -7.1393   -9.6049 C   0  0  2  0  0  0  0  0  0  0  0  0
   16.5204   -8.1038  -10.0503 N   0  0  0  0  0  0  0  0  0  0  0  0
   16.1993   -5.9186   -9.1728 C   0  0  0  0  0  0  0  0  0  0  0  0
   15.5257   -4.8798   -8.9729 O   0  0  0  0  0  0  0  0  0  0  0  0
   17.5672   -5.7962   -8.9545 O   0  0  0  0  0  0  0  0  0  0  0  0
  2  1  1  0
  3  2  1  0
  3  5  1  0
  3  4  1  1
  5  6  2  0
  8  7  1  6
  9  8  1  0
  9  5  1  0
 10  8  1  0
 10 11  2  0
 12 13  1  0
 14 13  1  0
 14 15  1  0
 16 15  1  1
 16 17  1  0
 16 18  1  0
 17 10  1  0
 18 19  2  0
 18 20  1  0
M  END
$$$$
