SAM.pdb
     RDKit          3D

 20 19  0  0  1  0  0  0  0  0999 V2000
   15.8087  -25.8755   -1.4642 O   0  0  0  0  0  0  0  0  0  0  0  0
   14.5202  -25.4845   -1.8193 C   0  0  0  0  0  0  0  0  0  0  0  0
   14.5691  -24.1457   -2.5686 C   0  0  2  0  0  0  0  0  0  0  0  0
   15.5534  -24.2739   -3.6116 N   0  0  0  0  0  0  0  0  0  0  0  0
   14.9633  -23.1317   -1.5487 C   0  0  0  0  0  0  0  0  0  0  0  0
   16.1784  -22.8409   -1.4553 O   0  0  0  0  0  0  0  0  0  0  0  0
   13.3427  -20.7742    0.8530 C   0  0  0  0  0  0  0  0  0  0  0  0
   14.5427  -21.5004    0.2622 C   0  0  2  0  0  0  0  0  0  0  0  0
   14.0509  -22.4865   -0.6895 N   0  0  0  0  0  0  0  0  0  0  0  0
   15.3073  -22.1750    1.3329 C   0  0  0  0  0  0  0  0  0  0  0  0
   15.1912  -23.4112    1.4914 O   0  0  0  0  0  0  0  0  0  0  0  0
   20.0568  -25.4142    2.4124 C   0  0  0  0  0  0  0  0  0  0  0  0
   20.4486  -24.0335    3.5172 S   0  0  0  0  0  0  0  0  0  0  0  0
   18.8524  -23.3450    4.0955 C   0  0  0  0  0  0  0  0  0  0  0  0
   18.1355  -22.6527    2.9826 C   0  0  0  0  0  0  0  0  0  0  0  0
   16.7853  -22.1445    3.3690 C   0  0  2  0  0  0  0  0  0  0  0  0
   16.1834  -21.4941    2.2110 N   0  0  0  0  0  0  0  0  0  0  0  0
   16.7569  -21.2206    4.5011 C   0  0  0  0  0  0  0  0  0  0  0  0
   16.5472  -20.0016    4.2943 O   0  0  0  0  0  0  0  0  0  0  0  0
   16.9463  -21.5781    5.8316 O   0  0  0  0  0  0  0  0  0  0  0  0
  2  1  1  0
  3  2  1  0
  3  5  1  0
  3  4  1  6
  5  6  2  0
  8  7  1  1
  9  8  1  0
  9  5  1  0
 10  8  1  0
 10 11  2  0
 12 13  1  0
 14 13  1  0
 14 15  1  0
 16 15  1  6
 16 17  1  0
 16 18  1  0
 17 10  1  0
 18 19  2  0
 18 20  1  0
M  END
$$$$
