SAM.pdb
     RDKit          3D

 20 19  0  0  1  0  0  0  0  0999 V2000
   19.6333  -13.6627  -18.8603 O   0  0  0  0  0  0  0  0  0  0  0  0
   20.1644  -12.4720  -18.3714 C   0  0  0  0  0  0  0  0  0  0  0  0
   21.3249  -12.0126  -19.2650 C   0  0  2  0  0  0  0  0  0  0  0  0
   22.4321  -12.8997  -19.0196 N   0  0  0  0  0  0  0  0  0  0  0  0
   21.6241  -10.6140  -18.8431 C   0  0  0  0  0  0  0  0  0  0  0  0
   22.4165  -10.4508  -17.8863 O   0  0  0  0  0  0  0  0  0  0  0  0
   20.8410   -7.1202  -19.9317 C   0  0  0  0  0  0  0  0  0  0  0  0
   21.4999   -8.1505  -19.0259 C   0  0  2  0  0  0  0  0  0  0  0  0
   21.0688   -9.4729  -19.4566 N   0  0  0  0  0  0  0  0  0  0  0  0
   21.0975   -7.9250  -17.6212 C   0  0  0  0  0  0  0  0  0  0  0  0
   20.2715   -8.6961  -17.0826 O   0  0  0  0  0  0  0  0  0  0  0  0
   21.9522   -9.1239  -10.6049 C   0  0  0  0  0  0  0  0  0  0  0  0
   22.1717   -9.3641  -12.3866 S   0  0  0  0  0  0  0  0  0  0  0  0
   21.5833   -7.8350  -13.2064 C   0  0  0  0  0  0  0  0  0  0  0  0
   21.6905   -7.9510  -14.6919 C   0  0  0  0  0  0  0  0  0  0  0  0
   21.2577   -6.7198  -15.4182 C   0  0  2  0  0  0  0  0  0  0  0  0
   21.5998   -6.8662  -16.8281 N   0  0  0  0  0  0  0  0  0  0  0  0
   21.8151   -5.4632  -14.9219 C   0  0  0  0  0  0  0  0  0  0  0  0
   21.2026   -4.8292  -14.0299 O   0  0  0  0  0  0  0  0  0  0  0  0
   23.0014   -4.8848  -15.3600 O   0  0  0  0  0  0  0  0  0  0  0  0
  2  1  1  0
  3  2  1  0
  3  5  1  0
  3  4  1  1
  5  6  2  0
  8  7  1  6
  9  8  1  0
  9  5  1  0
 10  8  1  0
 10 11  2  0
 12 13  1  0
 14 13  1  0
 14 15  1  0
 16 15  1  1
 16 17  1  0
 16 18  1  0
 17 10  1  0
 18 19  2  0
 18 20  1  0
M  END
$$$$
