SAM.pdb
     RDKit          3D

 20 19  0  0  1  0  0  0  0  0999 V2000
   20.4122  -11.9944  -16.1615 O   0  0  0  0  0  0  0  0  0  0  0  0
   19.1660  -12.0731  -15.5452 C   0  0  0  0  0  0  0  0  0  0  0  0
   18.1156  -11.3478  -16.3979 C   0  0  2  0  0  0  0  0  0  0  0  0
   18.3411  -11.7258  -17.7689 N   0  0  0  0  0  0  0  0  0  0  0  0
   18.3535   -9.8931  -16.1721 C   0  0  0  0  0  0  0  0  0  0  0  0
   19.1687   -9.3120  -16.9256 O   0  0  0  0  0  0  0  0  0  0  0  0
   16.9579   -7.1124  -14.1045 C   0  0  0  0  0  0  0  0  0  0  0  0
   17.9588   -7.7069  -15.0848 C   0  0  2  0  0  0  0  0  0  0  0  0
   17.7166   -9.1404  -15.1648 N   0  0  0  0  0  0  0  0  0  0  0  0
   19.3390   -7.4571  -14.6176 C   0  0  0  0  0  0  0  0  0  0  0  0
   20.0584   -8.4205  -14.2693 O   0  0  0  0  0  0  0  0  0  0  0  0
   26.0326   -6.9978  -16.9461 C   0  0  0  0  0  0  0  0  0  0  0  0
   24.2766   -7.4402  -16.9145 S   0  0  0  0  0  0  0  0  0  0  0  0
   23.5070   -6.4688  -15.5653 C   0  0  0  0  0  0  0  0  0  0  0  0
   22.0383   -6.7312  -15.4897 C   0  0  0  0  0  0  0  0  0  0  0  0
   21.3499   -5.9584  -14.4129 C   0  0  2  0  0  0  0  0  0  0  0  0
   19.9119   -6.1656  -14.5374 N   0  0  0  0  0  0  0  0  0  0  0  0
   21.6229   -4.5228  -14.3907 C   0  0  0  0  0  0  0  0  0  0  0  0
   20.8793   -3.7458  -15.0358 O   0  0  0  0  0  0  0  0  0  0  0  0
   22.6649   -3.9163  -13.6976 O   0  0  0  0  0  0  0  0  0  0  0  0
  2  1  1  0
  3  2  1  0
  3  5  1  0
  3  4  1  6
  5  6  2  0
  8  7  1  1
  9  8  1  0
  9  5  1  0
 10  8  1  0
 10 11  2  0
 12 13  1  0
 14 13  1  0
 14 15  1  0
 16 15  1  6
 16 17  1  0
 16 18  1  0
 17 10  1  0
 18 19  2  0
 18 20  1  0
M  END
$$$$
