SAM.pdb
     RDKit          3D

 20 19  0  0  1  0  0  0  0  0999 V2000
   15.2168   -8.8692  -18.5138 O   0  0  0  0  0  0  0  0  0  0  0  0
   16.0863   -8.4001  -17.5324 C   0  0  0  0  0  0  0  0  0  0  0  0
   16.2077   -9.4350  -16.4052 C   0  0  2  0  0  0  0  0  0  0  0  0
   15.0655   -9.2675  -15.5446 N   0  0  0  0  0  0  0  0  0  0  0  0
   17.4862   -9.1163  -15.7068 C   0  0  0  0  0  0  0  0  0  0  0  0
   17.4543   -8.2554  -14.7970 O   0  0  0  0  0  0  0  0  0  0  0  0
   20.9975  -10.3702  -15.5521 C   0  0  0  0  0  0  0  0  0  0  0  0
   19.9060   -9.3526  -15.2532 C   0  0  2  0  0  0  0  0  0  0  0  0
   18.7202   -9.7255  -16.0114 N   0  0  0  0  0  0  0  0  0  0  0  0
   20.3494   -7.9991  -15.6498 C   0  0  0  0  0  0  0  0  0  0  0  0
   20.0355   -7.5500  -16.7753 O   0  0  0  0  0  0  0  0  0  0  0  0
   19.3763   -0.9910  -16.5178 C   0  0  0  0  0  0  0  0  0  0  0  0
   18.9611   -2.7379  -16.2800 S   0  0  0  0  0  0  0  0  0  0  0  0
   20.4850   -3.5732  -15.7001 C   0  0  0  0  0  0  0  0  0  0  0  0
   20.2509   -5.0358  -15.5062 C   0  0  0  0  0  0  0  0  0  0  0  0
   21.4963   -5.8038  -15.2065 C   0  0  2  0  0  0  0  0  0  0  0  0
   21.1255   -7.1589  -14.8165 N   0  0  0  0  0  0  0  0  0  0  0  0
   22.3598   -5.2319  -14.1753 C   0  0  0  0  0  0  0  0  0  0  0  0
   22.2478   -5.6285  -12.9908 O   0  0  0  0  0  0  0  0  0  0  0  0
   23.3274   -4.2566  -14.3911 O   0  0  0  0  0  0  0  0  0  0  0  0
  2  1  1  0
  3  2  1  0
  3  5  1  0
  3  4  1  1
  5  6  2  0
  8  7  1  6
  9  8  1  0
  9  5  1  0
 10  8  1  0
 10 11  2  0
 12 13  1  0
 14 13  1  0
 14 15  1  0
 16 15  1  1
 16 17  1  0
 16 18  1  0
 17 10  1  0
 18 19  2  0
 18 20  1  0
M  END
$$$$
