CSA.pdb
     RDKit          3D

 18 17  0  0  1  0  0  0  0  0999 V2000
    7.7877  -14.2879   17.1735 N   0  0  0  0  0  0  0  0  0  0  0  0
    8.5947  -13.9431   18.3258 C   0  0  1  0  0  0  0  0  0  0  0  0
    8.2361  -12.5178   18.7228 C   0  0  0  0  0  0  0  0  0  0  0  0
    9.1814  -12.0920   20.2136 S   0  0  0  0  0  0  0  0  0  0  0  0
    8.3137  -14.8695   19.4707 C   0  0  0  0  0  0  0  0  0  0  0  0
    7.1440  -15.1086   19.8244 O   0  0  0  0  0  0  0  0  0  0  0  0
   11.3140  -17.2117   21.3556 O   0  0  0  0  0  0  0  0  0  0  0  0
    9.9886  -17.6103   21.2879 C   0  0  0  0  0  0  0  0  0  0  0  0
    9.1042  -16.3728   21.3040 C   0  0  2  0  0  0  0  0  0  0  0  0
    9.3640  -15.5096   20.1956 N   0  0  0  0  0  0  0  0  0  0  0  0
    9.2865  -15.6488   22.6126 C   0  0  0  0  0  0  0  0  0  0  0  0
   10.1670  -14.7860   22.7563 O   0  0  0  0  0  0  0  0  0  0  0  0
    7.3027  -14.7019   25.5043 C   0  0  0  0  0  0  0  0  0  0  0  0
    8.5546  -15.3199   25.0020 C   0  0  2  0  0  0  0  0  0  0  0  0
    8.4485  -15.9400   23.7188 N   0  0  0  0  0  0  0  0  0  0  0  0
    8.9902  -16.3690   25.9628 C   0  0  0  0  0  0  0  0  0  0  0  0
    9.0042  -17.6028   25.6385 O   0  0  0  0  0  0  0  0  0  0  0  0
    9.4049  -16.0867   27.2568 O   0  0  0  0  0  0  0  0  0  0  0  0
  2  1  1  6
  2  3  1  0
  4  3  1  0
  5  2  1  0
  6  5  2  0
  7  8  1  0
  9  8  1  1
  9 10  1  0
 10  5  1  0
 11 15  1  0
 11  9  1  0
 12 11  2  0
 14 13  1  1
 14 15  1  0
 14 16  1  0
 16 18  1  0
 17 16  2  0
M  END
$$$$
