CSA.pdb
     RDKit          3D

 18 17  0  0  1  0  0  0  0  0999 V2000
    6.3566  -15.9289   11.0449 N   0  0  0  0  0  0  0  0  0  0  0  0
    5.5749  -16.9858   11.6530 C   0  0  1  0  0  0  0  0  0  0  0  0
    5.7976  -18.2476   10.8309 C   0  0  0  0  0  0  0  0  0  0  0  0
    7.5819  -18.4287   10.5462 S   0  0  0  0  0  0  0  0  0  0  0  0
    6.0095  -17.2246   13.0679 C   0  0  0  0  0  0  0  0  0  0  0  0
    6.9457  -16.5716   13.5656 O   0  0  0  0  0  0  0  0  0  0  0  0
    4.4203  -20.3368   15.4890 O   0  0  0  0  0  0  0  0  0  0  0  0
    4.6558  -19.0954   16.0579 C   0  0  0  0  0  0  0  0  0  0  0  0
    5.7443  -18.3912   15.2622 C   0  0  2  0  0  0  0  0  0  0  0  0
    5.3753  -18.2001   13.8952 N   0  0  0  0  0  0  0  0  0  0  0  0
    7.0273  -19.1726   15.3760 C   0  0  0  0  0  0  0  0  0  0  0  0
    7.6632  -19.5207   14.3686 O   0  0  0  0  0  0  0  0  0  0  0  0
    9.9833  -19.3715   16.4368 C   0  0  0  0  0  0  0  0  0  0  0  0
    8.8039  -20.1643   16.8636 C   0  0  2  0  0  0  0  0  0  0  0  0
    7.5413  -19.5306   16.6481 N   0  0  0  0  0  0  0  0  0  0  0  0
    8.9143  -20.4406   18.3214 C   0  0  0  0  0  0  0  0  0  0  0  0
    8.1772  -19.8369   19.1700 O   0  0  0  0  0  0  0  0  0  0  0  0
    9.8099  -21.3576   18.8534 O   0  0  0  0  0  0  0  0  0  0  0  0
  2  1  1  6
  2  3  1  0
  4  3  1  0
  5  2  1  0
  6  5  2  0
  7  8  1  0
  9  8  1  1
  9 10  1  0
 10  5  1  0
 11 15  1  0
 11  9  1  0
 12 11  2  0
 14 13  1  1
 14 15  1  0
 14 16  1  0
 16 18  1  0
 17 16  2  0
M  END
$$$$
