CSA.pdb
     RDKit          3D

 18 17  0  0  1  0  0  0  0  0999 V2000
    7.5095  -13.4314   16.3172 N   0  0  0  0  0  0  0  0  0  0  0  0
    7.7072  -14.7214   16.9455 C   0  0  1  0  0  0  0  0  0  0  0  0
    8.9935  -15.3098   16.3826 C   0  0  0  0  0  0  0  0  0  0  0  0
    8.8818  -15.2816   14.5703 S   0  0  0  0  0  0  0  0  0  0  0  0
    7.8292  -14.5775   18.4330 C   0  0  0  0  0  0  0  0  0  0  0  0
    8.5710  -13.7099   18.9303 O   0  0  0  0  0  0  0  0  0  0  0  0
    5.9209  -17.2228   21.1083 O   0  0  0  0  0  0  0  0  0  0  0  0
    5.9874  -15.8839   21.4593 C   0  0  0  0  0  0  0  0  0  0  0  0
    7.1739  -15.2504   20.7489 C   0  0  2  0  0  0  0  0  0  0  0  0
    7.1078  -15.4201   19.3318 N   0  0  0  0  0  0  0  0  0  0  0  0
    8.4507  -15.8231   21.3071 C   0  0  0  0  0  0  0  0  0  0  0  0
    9.1261  -16.6426   20.6648 O   0  0  0  0  0  0  0  0  0  0  0  0
   10.6811  -15.1667   24.2741 C   0  0  0  0  0  0  0  0  0  0  0  0
   10.0178  -16.0346   23.2699 C   0  0  2  0  0  0  0  0  0  0  0  0
    8.9130  -15.4348   22.5902 N   0  0  0  0  0  0  0  0  0  0  0  0
    9.5050  -17.2527   23.9532 C   0  0  0  0  0  0  0  0  0  0  0  0
   10.2944  -18.0769   24.5235 O   0  0  0  0  0  0  0  0  0  0  0  0
    8.1565  -17.5743   24.0184 O   0  0  0  0  0  0  0  0  0  0  0  0
  2  1  1  6
  2  3  1  0
  4  3  1  0
  5  2  1  0
  6  5  2  0
  7  8  1  0
  9  8  1  1
  9 10  1  0
 10  5  1  0
 11 15  1  0
 11  9  1  0
 12 11  2  0
 14 13  1  1
 14 15  1  0
 14 16  1  0
 16 18  1  0
 17 16  2  0
M  END
$$$$
