CSA.pdb
     RDKit          3D

 18 17  0  0  1  0  0  0  0  0999 V2000
    8.7654  -13.6815   16.7351 N   0  0  0  0  0  0  0  0  0  0  0  0
    9.3319  -14.7745   17.4983 C   0  0  1  0  0  0  0  0  0  0  0  0
   10.7995  -14.4492   17.7390 C   0  0  0  0  0  0  0  0  0  0  0  0
   10.8927  -13.1952   19.0490 S   0  0  0  0  0  0  0  0  0  0  0  0
    8.6288  -14.9277   18.8137 C   0  0  0  0  0  0  0  0  0  0  0  0
    8.0041  -13.9753   19.3168 O   0  0  0  0  0  0  0  0  0  0  0  0
    8.5718  -18.5969   20.9684 O   0  0  0  0  0  0  0  0  0  0  0  0
    7.4480  -17.7878   20.9179 C   0  0  0  0  0  0  0  0  0  0  0  0
    7.8921  -16.3443   20.7363 C   0  0  2  0  0  0  0  0  0  0  0  0
    8.6458  -16.1586   19.5368 N   0  0  0  0  0  0  0  0  0  0  0  0
    8.6781  -15.9104   21.9461 C   0  0  0  0  0  0  0  0  0  0  0  0
    9.9165  -15.9879   21.9738 O   0  0  0  0  0  0  0  0  0  0  0  0
    7.8585  -14.0419   25.1314 C   0  0  0  0  0  0  0  0  0  0  0  0
    8.6730  -14.9340   24.2698 C   0  0  2  0  0  0  0  0  0  0  0  0
    8.0142  -15.3994   23.0902 N   0  0  0  0  0  0  0  0  0  0  0  0
    9.0648  -16.1340   25.0573 C   0  0  0  0  0  0  0  0  0  0  0  0
    9.8024  -16.0371   26.0938 O   0  0  0  0  0  0  0  0  0  0  0  0
    8.6639  -17.4211   24.7276 O   0  0  0  0  0  0  0  0  0  0  0  0
  2  1  1  6
  2  3  1  0
  4  3  1  0
  5  2  1  0
  6  5  2  0
  7  8  1  0
  9  8  1  1
  9 10  1  0
 10  5  1  0
 11 15  1  0
 11  9  1  0
 12 11  2  0
 14 13  1  1
 14 15  1  0
 14 16  1  0
 16 18  1  0
 17 16  2  0
M  END
$$$$
