CSA.pdb
     RDKit          3D

 18 17  0  0  1  0  0  0  0  0999 V2000
   -1.3812  -27.6193   31.3894 N   0  0  0  0  0  0  0  0  0  0  0  0
   -2.7006  -27.4634   30.8127 C   0  0  1  0  0  0  0  0  0  0  0  0
   -3.6536  -28.3413   31.6120 C   0  0  0  0  0  0  0  0  0  0  0  0
   -3.3227  -30.0736   31.1797 S   0  0  0  0  0  0  0  0  0  0  0  0
   -3.1506  -26.0351   30.8877 C   0  0  0  0  0  0  0  0  0  0  0  0
   -3.0151  -25.3789   31.9372 O   0  0  0  0  0  0  0  0  0  0  0  0
   -3.6984  -23.6618   27.5802 O   0  0  0  0  0  0  0  0  0  0  0  0
   -3.5561  -23.1155   28.8457 C   0  0  0  0  0  0  0  0  0  0  0  0
   -4.2315  -24.0332   29.8534 C   0  0  2  0  0  0  0  0  0  0  0  0
   -3.7467  -25.3747   29.7711 N   0  0  0  0  0  0  0  0  0  0  0  0
   -5.7236  -23.9799   29.6518 C   0  0  0  0  0  0  0  0  0  0  0  0
   -6.2707  -24.5823   28.7146 O   0  0  0  0  0  0  0  0  0  0  0  0
   -8.6813  -23.4131   31.7319 C   0  0  0  0  0  0  0  0  0  0  0  0
   -7.9680  -23.1615   30.4554 C   0  0  2  0  0  0  0  0  0  0  0  0
   -6.5430  -23.2337   30.5363 N   0  0  0  0  0  0  0  0  0  0  0  0
   -8.3126  -21.7963   29.9748 C   0  0  0  0  0  0  0  0  0  0  0  0
   -9.4962  -21.5027   29.5997 O   0  0  0  0  0  0  0  0  0  0  0  0
   -7.3890  -20.7630   29.9013 O   0  0  0  0  0  0  0  0  0  0  0  0
  2  1  1  1
  2  3  1  0
  4  3  1  0
  5  2  1  0
  6  5  2  0
  7  8  1  0
  9  8  1  6
  9 10  1  0
 10  5  1  0
 11 15  1  0
 11  9  1  0
 12 11  2  0
 14 13  1  1
 14 15  1  0
 14 16  1  0
 16 18  1  0
 17 16  2  0
M  END
$$$$
