CSA.pdb
     RDKit          3D

 18 17  0  0  1  0  0  0  0  0999 V2000
    9.4570  -18.7146   14.0435 N   0  0  0  0  0  0  0  0  0  0  0  0
    9.4925  -20.0163   14.6775 C   0  0  1  0  0  0  0  0  0  0  0  0
   10.8276  -20.6579   14.3260 C   0  0  0  0  0  0  0  0  0  0  0  0
   10.5741  -22.4508   14.1895 S   0  0  0  0  0  0  0  0  0  0  0  0
    9.3731  -19.8881   16.1666 C   0  0  0  0  0  0  0  0  0  0  0  0
    9.7450  -18.8521   16.7486 O   0  0  0  0  0  0  0  0  0  0  0  0
    6.9845  -22.4898   18.4737 O   0  0  0  0  0  0  0  0  0  0  0  0
    7.1986  -21.1555   18.7806 C   0  0  0  0  0  0  0  0  0  0  0  0
    8.6159  -20.7814   18.3744 C   0  0  2  0  0  0  0  0  0  0  0  0
    8.8338  -20.9371   16.9710 N   0  0  0  0  0  0  0  0  0  0  0  0
    9.5946  -21.6033   19.1722 C   0  0  0  0  0  0  0  0  0  0  0  0
   10.0482  -22.6723   18.7342 O   0  0  0  0  0  0  0  0  0  0  0  0
   11.4339  -21.1363   22.4628 C   0  0  0  0  0  0  0  0  0  0  0  0
   10.9184  -21.8956   21.2970 C   0  0  2  0  0  0  0  0  0  0  0  0
   10.0230  -21.1696   20.4524 N   0  0  0  0  0  0  0  0  0  0  0  0
   10.1845  -23.0920   21.7908 C   0  0  0  0  0  0  0  0  0  0  0  0
    8.9099  -23.1438   21.7735 O   0  0  0  0  0  0  0  0  0  0  0  0
   10.8213  -24.2167   22.2963 O   0  0  0  0  0  0  0  0  0  0  0  0
  2  1  1  6
  2  3  1  0
  4  3  1  0
  5  2  1  0
  6  5  2  0
  7  8  1  0
  9  8  1  6
  9 10  1  0
 10  5  1  0
 11 15  1  0
 11  9  1  0
 12 11  2  0
 14 13  1  1
 14 15  1  0
 14 16  1  0
 16 18  1  0
 17 16  2  0
M  END
$$$$
