CSA.pdb
     RDKit          3D

 18 17  0  0  1  0  0  0  0  0999 V2000
   14.0947  -17.3694   16.2543 N   0  0  0  0  0  0  0  0  0  0  0  0
   13.1142  -18.2897   16.7923 C   0  0  1  0  0  0  0  0  0  0  0  0
   13.8737  -19.4632   17.3953 C   0  0  0  0  0  0  0  0  0  0  0  0
   15.0768  -18.8055   18.5860 S   0  0  0  0  0  0  0  0  0  0  0  0
   12.2870  -17.6279   17.8534 C   0  0  0  0  0  0  0  0  0  0  0  0
   12.4626  -16.4297   18.1432 O   0  0  0  0  0  0  0  0  0  0  0  0
    9.4978  -19.7421   20.2540 O   0  0  0  0  0  0  0  0  0  0  0  0
    9.1624  -18.4765   19.8000 C   0  0  0  0  0  0  0  0  0  0  0  0
   10.4414  -17.6962   19.5371 C   0  0  2  0  0  0  0  0  0  0  0  0
   11.2741  -18.3359   18.5683 N   0  0  0  0  0  0  0  0  0  0  0  0
   11.1753  -17.4927   20.8370 C   0  0  0  0  0  0  0  0  0  0  0  0
   12.2210  -18.1107   21.0920 O   0  0  0  0  0  0  0  0  0  0  0  0
   10.6831  -15.2334   23.8592 C   0  0  0  0  0  0  0  0  0  0  0  0
   11.3149  -16.3117   23.0593 C   0  0  2  0  0  0  0  0  0  0  0  0
   10.6830  -16.5825   21.8064 N   0  0  0  0  0  0  0  0  0  0  0  0
   11.2865  -17.5729   23.8479 C   0  0  0  0  0  0  0  0  0  0  0  0
   10.4085  -18.4728   23.6311 O   0  0  0  0  0  0  0  0  0  0  0  0
   12.1958  -17.8564   24.8573 O   0  0  0  0  0  0  0  0  0  0  0  0
  2  1  1  1
  2  3  1  0
  4  3  1  0
  5  2  1  0
  6  5  2  0
  7  8  1  0
  9  8  1  1
  9 10  1  0
 10  5  1  0
 11 15  1  0
 11  9  1  0
 12 11  2  0
 14 13  1  1
 14 15  1  0
 14 16  1  0
 16 18  1  0
 17 16  2  0
M  END
$$$$
