CSA.pdb
     RDKit          3D

 18 17  0  0  1  0  0  0  0  0999 V2000
    5.0620  -13.2893   25.9232 N   0  0  0  0  0  0  0  0  0  0  0  0
    6.1699  -13.2609   24.9907 C   0  0  1  0  0  0  0  0  0  0  0  0
    6.8630  -11.9146   25.1478 C   0  0  0  0  0  0  0  0  0  0  0  0
    6.6871  -11.3871   26.8765 S   0  0  0  0  0  0  0  0  0  0  0  0
    7.1424  -14.3639   25.2834 C   0  0  0  0  0  0  0  0  0  0  0  0
    7.2444  -14.8352   26.4314 O   0  0  0  0  0  0  0  0  0  0  0  0
   10.4156  -15.3890   22.8065 O   0  0  0  0  0  0  0  0  0  0  0  0
    9.6379  -16.4297   23.2886 C   0  0  0  0  0  0  0  0  0  0  0  0
    8.9165  -15.9609   24.5430 C   0  0  2  0  0  0  0  0  0  0  0  0
    7.9832  -14.9143   24.2693 N   0  0  0  0  0  0  0  0  0  0  0  0
    9.9325  -15.5303   25.5688 C   0  0  0  0  0  0  0  0  0  0  0  0
   10.5152  -14.4380   25.4819 O   0  0  0  0  0  0  0  0  0  0  0  0
   10.7015  -14.7887   28.4890 C   0  0  0  0  0  0  0  0  0  0  0  0
   11.1099  -16.0063   27.7460 C   0  0  2  0  0  0  0  0  0  0  0  0
   10.2480  -16.3713   26.6660 N   0  0  0  0  0  0  0  0  0  0  0  0
   11.1426  -17.1556   28.6903 C   0  0  0  0  0  0  0  0  0  0  0  0
   11.8442  -17.1210   29.7553 O   0  0  0  0  0  0  0  0  0  0  0  0
   10.4260  -18.3262   28.4847 O   0  0  0  0  0  0  0  0  0  0  0  0
  2  1  1  1
  2  3  1  0
  4  3  1  0
  5  2  1  0
  6  5  2  0
  7  8  1  0
  9  8  1  6
  9 10  1  0
 10  5  1  0
 11 15  1  0
 11  9  1  0
 12 11  2  0
 14 13  1  1
 14 15  1  0
 14 16  1  0
 16 18  1  0
 17 16  2  0
M  END
$$$$
