CSA.pdb
     RDKit          3D

 18 17  0  0  1  0  0  0  0  0999 V2000
    0.7915  -20.5892   20.8408 N   0  0  0  0  0  0  0  0  0  0  0  0
    1.5211  -19.4443   21.3455 C   0  0  1  0  0  0  0  0  0  0  0  0
    0.8312  -18.9928   22.6253 C   0  0  0  0  0  0  0  0  0  0  0  0
    0.8647  -20.3747   23.8028 S   0  0  0  0  0  0  0  0  0  0  0  0
    2.9449  -19.8078   21.6435 C   0  0  0  0  0  0  0  0  0  0  0  0
    3.2968  -21.0002   21.7128 O   0  0  0  0  0  0  0  0  0  0  0  0
    5.8905  -16.8792   22.3997 O   0  0  0  0  0  0  0  0  0  0  0  0
    6.2594  -18.0233   21.7103 C   0  0  0  0  0  0  0  0  0  0  0  0
    5.3140  -19.1516   22.0936 C   0  0  2  0  0  0  0  0  0  0  0  0
    3.9461  -18.8129   21.8578 N   0  0  0  0  0  0  0  0  0  0  0  0
    5.5425  -19.5229   23.5357 C   0  0  0  0  0  0  0  0  0  0  0  0
    4.9861  -18.9057   24.4576 O   0  0  0  0  0  0  0  0  0  0  0  0
    6.7204  -22.5059   25.3861 C   0  0  0  0  0  0  0  0  0  0  0  0
    6.6700  -21.0337   25.2088 C   0  0  2  0  0  0  0  0  0  0  0  0
    6.4060  -20.5955   23.8745 N   0  0  0  0  0  0  0  0  0  0  0  0
    7.9819  -20.4575   25.6095 C   0  0  0  0  0  0  0  0  0  0  0  0
    8.6954  -19.7934   24.7864 O   0  0  0  0  0  0  0  0  0  0  0  0
    8.5142  -20.5981   26.8835 O   0  0  0  0  0  0  0  0  0  0  0  0
  2  1  1  1
  2  3  1  0
  4  3  1  0
  5  2  1  0
  6  5  2  0
  7  8  1  0
  9  8  1  1
  9 10  1  0
 10  5  1  0
 11 15  1  0
 11  9  1  0
 12 11  2  0
 14 13  1  6
 14 15  1  0
 14 16  1  0
 16 18  1  0
 17 16  2  0
M  END
$$$$
