CSA.pdb
     RDKit          3D

 18 17  0  0  1  0  0  0  0  0999 V2000
    6.2246  -18.9817   17.1855 N   0  0  0  0  0  0  0  0  0  0  0  0
    6.4719  -19.6976   18.4202 C   0  0  1  0  0  0  0  0  0  0  0  0
    7.9528  -20.0487   18.4542 C   0  0  0  0  0  0  0  0  0  0  0  0
    8.3213  -20.7867   20.0720 S   0  0  0  0  0  0  0  0  0  0  0  0
    6.1294  -18.8482   19.6073 C   0  0  0  0  0  0  0  0  0  0  0  0
    6.5338  -17.6733   19.6880 O   0  0  0  0  0  0  0  0  0  0  0  0
    3.7283  -20.3028   22.7395 O   0  0  0  0  0  0  0  0  0  0  0  0
    3.7381  -18.9387   22.4959 C   0  0  0  0  0  0  0  0  0  0  0  0
    5.0643  -18.5665   21.8506 C   0  0  2  0  0  0  0  0  0  0  0  0
    5.3338  -19.3454   20.6835 N   0  0  0  0  0  0  0  0  0  0  0  0
    6.1680  -18.7076   22.8664 C   0  0  0  0  0  0  0  0  0  0  0  0
    6.9237  -19.6921   22.8666 O   0  0  0  0  0  0  0  0  0  0  0  0
    7.4794  -16.5579   25.7175 C   0  0  0  0  0  0  0  0  0  0  0  0
    7.3390  -17.7883   24.9002 C   0  0  2  0  0  0  0  0  0  0  0  0
    6.3693  -17.7096   23.8534 N   0  0  0  0  0  0  0  0  0  0  0  0
    6.9362  -18.9111   25.7894 C   0  0  0  0  0  0  0  0  0  0  0  0
    5.7533  -19.3882   25.7633 O   0  0  0  0  0  0  0  0  0  0  0  0
    7.8018  -19.5093   26.6944 O   0  0  0  0  0  0  0  0  0  0  0  0
  2  1  1  6
  2  3  1  0
  4  3  1  0
  5  2  1  0
  6  5  2  0
  7  8  1  0
  9  8  1  1
  9 10  1  0
 10  5  1  0
 11 15  1  0
 11  9  1  0
 12 11  2  0
 14 13  1  1
 14 15  1  0
 14 16  1  0
 16 18  1  0
 17 16  2  0
M  END
$$$$
