CSA.pdb
     RDKit          3D

 18 17  0  0  1  0  0  0  0  0999 V2000
    8.0800  -16.4515   17.3937 N   0  0  0  0  0  0  0  0  0  0  0  0
    8.6929  -15.3516   16.6778 C   0  0  1  0  0  0  0  0  0  0  0  0
    7.5895  -14.3607   16.3342 C   0  0  0  0  0  0  0  0  0  0  0  0
    8.2399  -13.1957   15.1024 S   0  0  0  0  0  0  0  0  0  0  0  0
    9.7298  -14.6757   17.5241 C   0  0  0  0  0  0  0  0  0  0  0  0
   10.5389  -13.8741   17.0210 O   0  0  0  0  0  0  0  0  0  0  0  0
   10.4647  -15.9127   21.4706 O   0  0  0  0  0  0  0  0  0  0  0  0
   10.6592  -14.5667   21.2045 C   0  0  0  0  0  0  0  0  0  0  0  0
   10.9022  -14.3931   19.7129 C   0  0  2  0  0  0  0  0  0  0  0  0
    9.8318  -14.9200   18.9270 N   0  0  0  0  0  0  0  0  0  0  0  0
   12.2149  -15.0346   19.3455 C   0  0  0  0  0  0  0  0  0  0  0  0
   12.2625  -16.1749   18.8578 O   0  0  0  0  0  0  0  0  0  0  0  0
   15.5617  -13.8325   18.4309 C   0  0  0  0  0  0  0  0  0  0  0  0
   14.7184  -14.8243   19.1428 C   0  0  2  0  0  0  0  0  0  0  0  0
   13.4359  -14.3435   19.5506 N   0  0  0  0  0  0  0  0  0  0  0  0
   15.4327  -15.2675   20.3704 C   0  0  0  0  0  0  0  0  0  0  0  0
   14.9583  -15.0426   21.5332 O   0  0  0  0  0  0  0  0  0  0  0  0
   16.6437  -15.9448   20.3399 O   0  0  0  0  0  0  0  0  0  0  0  0
  2  1  1  1
  2  3  1  0
  4  3  1  0
  5  2  1  0
  6  5  2  0
  7  8  1  0
  9  8  1  1
  9 10  1  0
 10  5  1  0
 11 15  1  0
 11  9  1  0
 12 11  2  0
 14 13  1  1
 14 15  1  0
 14 16  1  0
 16 18  1  0
 17 16  2  0
M  END
$$$$
