CSA.pdb
     RDKit          3D

 18 17  0  0  1  0  0  0  0  0999 V2000
    7.5458  -13.3291   17.4727 N   0  0  0  0  0  0  0  0  0  0  0  0
    8.4744  -13.0576   18.5506 C   0  0  1  0  0  0  0  0  0  0  0  0
    7.6560  -12.6195   19.7572 C   0  0  0  0  0  0  0  0  0  0  0  0
    8.7827  -12.4447   21.1706 S   0  0  0  0  0  0  0  0  0  0  0  0
    9.2634  -14.2845   18.8971 C   0  0  0  0  0  0  0  0  0  0  0  0
    8.7232  -15.4063   18.9113 O   0  0  0  0  0  0  0  0  0  0  0  0
   13.4275  -14.6204   18.6709 O   0  0  0  0  0  0  0  0  0  0  0  0
   12.5337  -15.6792   18.6525 C   0  0  0  0  0  0  0  0  0  0  0  0
   11.3949  -15.3748   19.6139 C   0  0  2  0  0  0  0  0  0  0  0  0
   10.6522  -14.2190   19.2217 N   0  0  0  0  0  0  0  0  0  0  0  0
   11.9485  -15.2198   21.0066 C   0  0  0  0  0  0  0  0  0  0  0  0
   12.5918  -14.2114   21.3375 O   0  0  0  0  0  0  0  0  0  0  0  0
   11.6523  -17.2000   24.2342 C   0  0  0  0  0  0  0  0  0  0  0  0
   12.2095  -16.1654   23.3283 C   0  0  2  0  0  0  0  0  0  0  0  0
   11.7447  -16.2319   21.9786 N   0  0  0  0  0  0  0  0  0  0  0  0
   13.6901  -16.3081   23.2911 C   0  0  0  0  0  0  0  0  0  0  0  0
   14.2864  -16.7850   22.2691 O   0  0  0  0  0  0  0  0  0  0  0  0
   14.5138  -15.9397   24.3456 O   0  0  0  0  0  0  0  0  0  0  0  0
  2  1  1  6
  2  3  1  0
  4  3  1  0
  5  2  1  0
  6  5  2  0
  7  8  1  0
  9  8  1  6
  9 10  1  0
 10  5  1  0
 11 15  1  0
 11  9  1  0
 12 11  2  0
 14 13  1  1
 14 15  1  0
 14 16  1  0
 16 18  1  0
 17 16  2  0
M  END
$$$$
