PYV.pdb
     RDKit          3D

 27 28  0  0  1  0  0  0  0  0999 V2000
    7.9941  -15.5370   18.3417 N   0  0  0  0  0  0  0  0  0  0  0  0
    7.8256  -15.2314   16.9125 C   0  0  0  0  0  0  0  0  0  0  0  0
    7.7898  -13.7307   16.8104 C   0  0  0  0  0  0  0  0  0  0  0  0
    8.0672  -13.2494   18.2247 C   0  0  0  0  0  0  0  0  0  0  0  0
    8.8334  -14.4601   18.7667 C   0  0  1  0  0  0  0  0  0  0  0  0
    9.0184  -14.3848   20.2236 C   0  0  0  0  0  0  0  0  0  0  0  0
   10.1793  -14.1642   20.6552 O   0  0  0  0  0  0  0  0  0  0  0  0
    7.1345  -12.9665   28.8085 O   0  0  0  0  0  0  0  0  0  0  0  0
    7.0967  -13.1402   27.4130 C   0  0  0  0  0  0  0  0  0  0  0  0
    6.5166  -14.2497   26.8471 C   0  0  0  0  0  0  0  0  0  0  0  0
    6.4880  -14.4047   25.4751 C   0  0  0  0  0  0  0  0  0  0  0  0
    7.0336  -13.4636   24.6369 C   0  0  0  0  0  0  0  0  0  0  0  0
    6.9783  -13.6837   23.1765 C   0  0  0  0  0  0  0  0  0  0  0  0
    8.2157  -14.3106   22.6152 C   0  0  2  0  0  0  0  0  0  0  0  0
    7.9893  -14.5417   21.1812 N   0  0  0  0  0  0  0  0  0  0  0  0
    8.6052  -15.5824   23.2847 C   0  0  0  0  0  0  0  0  0  0  0  0
    7.9085  -16.6144   23.1021 O   0  0  0  0  0  0  0  0  0  0  0  0
    7.6168  -12.3497   25.1895 C   0  0  0  0  0  0  0  0  0  0  0  0
    7.6422  -12.1999   26.5689 C   0  0  0  0  0  0  0  0  0  0  0  0
   12.0693  -18.5026   25.0647 C   0  0  0  0  0  0  0  0  0  0  0  0
   11.6015  -17.2501   24.4048 C   0  0  1  0  0  0  0  0  0  0  0  0
   11.9082  -17.2435   22.9298 C   0  0  0  0  0  0  0  0  0  0  0  0
   10.1333  -16.9733   24.6398 C   0  0  2  0  0  0  0  0  0  0  0  0
    9.7333  -15.6914   24.1266 N   0  0  0  0  0  0  0  0  0  0  0  0
    9.8061  -17.0066   26.0952 C   0  0  0  0  0  0  0  0  0  0  0  0
    9.8215  -15.9413   26.7976 O   0  0  0  0  0  0  0  0  0  0  0  0
    9.4762  -18.1958   26.7253 O   0  0  0  0  0  0  0  0  0  0  0  0
  1  2  1  0
  3  2  1  0
  4  5  1  0
  4  3  1  0
  5  1  1  0
  5  6  1  1
  7  6  2  0
  8  9  1  0
  9 19  2  0
 10 11  2  0
 10  9  1  0
 11 12  1  0
 12 13  1  0
 12 18  2  0
 14 13  1  1
 14 15  1  0
 15  6  1  0
 16 14  1  0
 17 16  2  0
 19 18  1  0
 21 23  1  0
 21 20  1  6
 22 21  1  0
 23 25  1  0
 23 24  1  1
 24 16  1  0
 25 27  1  0
 26 25  2  0
M  END
$$$$
