PYV.pdb
     RDKit          3D

 27 28  0  0  1  0  0  0  0  0999 V2000
    8.5340  -16.6162   19.7466 N   0  0  0  0  0  0  0  0  0  0  0  0
    8.3001  -16.5226   18.2971 C   0  0  0  0  0  0  0  0  0  0  0  0
    6.8064  -16.4990   18.1184 C   0  0  0  0  0  0  0  0  0  0  0  0
    6.2573  -16.4611   19.5347 C   0  0  0  0  0  0  0  0  0  0  0  0
    7.4521  -15.8353   20.2609 C   0  0  1  0  0  0  0  0  0  0  0  0
    7.3045  -15.9070   21.7223 C   0  0  0  0  0  0  0  0  0  0  0  0
    6.3957  -15.2177   22.2530 O   0  0  0  0  0  0  0  0  0  0  0  0
    8.2693  -18.6030   30.1764 O   0  0  0  0  0  0  0  0  0  0  0  0
    8.3223  -18.4615   28.7778 C   0  0  0  0  0  0  0  0  0  0  0  0
    7.2584  -18.8153   27.9835 C   0  0  0  0  0  0  0  0  0  0  0  0
    7.3270  -18.6699   26.6119 C   0  0  0  0  0  0  0  0  0  0  0  0
    8.4509  -18.1711   26.0003 C   0  0  0  0  0  0  0  0  0  0  0  0
    8.4703  -18.0413   24.5282 C   0  0  0  0  0  0  0  0  0  0  0  0
    7.8595  -16.7700   24.0282 C   0  0  2  0  0  0  0  0  0  0  0  0
    8.1075  -16.6933   22.5812 N   0  0  0  0  0  0  0  0  0  0  0  0
    8.3746  -15.5464   24.7027 C   0  0  0  0  0  0  0  0  0  0  0  0
    9.5452  -15.1540   24.4589 O   0  0  0  0  0  0  0  0  0  0  0  0
    9.5217  -17.8136   26.7825 C   0  0  0  0  0  0  0  0  0  0  0  0
    9.4464  -17.9622   28.1603 C   0  0  0  0  0  0  0  0  0  0  0  0
    6.7333  -12.0466   24.7716 C   0  0  0  0  0  0  0  0  0  0  0  0
    7.1188  -12.4537   26.1532 C   0  0  1  0  0  0  0  0  0  0  0  0
    5.9178  -12.8110   26.9896 C   0  0  0  0  0  0  0  0  0  0  0  0
    8.1307  -13.5774   26.1755 C   0  0  2  0  0  0  0  0  0  0  0  0
    7.6052  -14.7927   25.6154 N   0  0  0  0  0  0  0  0  0  0  0  0
    8.5778  -13.8707   27.5685 C   0  0  0  0  0  0  0  0  0  0  0  0
    8.2609  -14.9643   28.1448 O   0  0  0  0  0  0  0  0  0  0  0  0
    9.3502  -12.9635   28.2759 O   0  0  0  0  0  0  0  0  0  0  0  0
  1  2  1  0
  3  2  1  0
  4  5  1  0
  4  3  1  0
  5  1  1  0
  5  6  1  1
  7  6  2  0
  8  9  1  0
  9 19  2  0
 10 11  2  0
 10  9  1  0
 11 12  1  0
 12 13  1  0
 12 18  2  0
 14 13  1  1
 14 15  1  0
 15  6  1  0
 16 14  1  0
 17 16  2  0
 19 18  1  0
 21 23  1  0
 21 20  1  6
 22 21  1  0
 23 25  1  0
 23 24  1  1
 24 16  1  0
 25 27  1  0
 26 25  2  0
M  END
$$$$
