PYV.pdb
     RDKit          3D

 27 28  0  0  1  0  0  0  0  0999 V2000
    8.3912  -15.4281   19.4140 N   0  0  0  0  0  0  0  0  0  0  0  0
    8.7072  -14.9424   18.0617 C   0  0  0  0  0  0  0  0  0  0  0  0
    7.9753  -13.6368   17.9082 C   0  0  0  0  0  0  0  0  0  0  0  0
    7.3567  -13.3879   19.2736 C   0  0  0  0  0  0  0  0  0  0  0  0
    8.3161  -14.2025   20.1469 C   0  0  1  0  0  0  0  0  0  0  0  0
    7.8116  -14.3563   21.5196 C   0  0  0  0  0  0  0  0  0  0  0  0
    7.6911  -13.3173   22.2185 O   0  0  0  0  0  0  0  0  0  0  0  0
   10.6756  -20.3246   25.5282 O   0  0  0  0  0  0  0  0  0  0  0  0
    9.6156  -19.5196   25.0728 C   0  0  0  0  0  0  0  0  0  0  0  0
    9.3111  -19.4289   23.7360 C   0  0  0  0  0  0  0  0  0  0  0  0
    8.2671  -18.6339   23.3059 C   0  0  0  0  0  0  0  0  0  0  0  0
    7.5042  -17.9131   24.1916 C   0  0  0  0  0  0  0  0  0  0  0  0
    6.4019  -17.0753   23.6745 C   0  0  0  0  0  0  0  0  0  0  0  0
    6.7918  -15.6513   23.4309 C   0  0  2  0  0  0  0  0  0  0  0  0
    7.4498  -15.5859   22.1180 N   0  0  0  0  0  0  0  0  0  0  0  0
    7.6817  -15.0809   24.4798 C   0  0  0  0  0  0  0  0  0  0  0  0
    8.9293  -15.1220   24.3197 O   0  0  0  0  0  0  0  0  0  0  0  0
    7.7979  -17.9946   25.5308 C   0  0  0  0  0  0  0  0  0  0  0  0
    8.8483  -18.7954   25.9566 C   0  0  0  0  0  0  0  0  0  0  0  0
    7.2380  -11.4404   25.7154 C   0  0  0  0  0  0  0  0  0  0  0  0
    7.4090  -12.3681   26.8700 C   0  0  1  0  0  0  0  0  0  0  0  0
    6.1093  -12.6138   27.5910 C   0  0  0  0  0  0  0  0  0  0  0  0
    8.0530  -13.6801   26.4812 C   0  0  2  0  0  0  0  0  0  0  0  0
    7.1899  -14.4873   25.6626 N   0  0  0  0  0  0  0  0  0  0  0  0
    8.4181  -14.4783   27.6879 C   0  0  0  0  0  0  0  0  0  0  0  0
    7.8230  -15.5749   27.9563 O   0  0  0  0  0  0  0  0  0  0  0  0
    9.4140  -14.0511   28.5515 O   0  0  0  0  0  0  0  0  0  0  0  0
  1  2  1  0
  3  2  1  0
  4  5  1  0
  4  3  1  0
  5  1  1  0
  5  6  1  1
  7  6  2  0
  8  9  1  0
  9 19  2  0
 10 11  2  0
 10  9  1  0
 11 12  1  0
 12 13  1  0
 12 18  2  0
 14 13  1  1
 14 15  1  0
 15  6  1  0
 16 14  1  0
 17 16  2  0
 19 18  1  0
 21 23  1  0
 21 20  1  6
 22 21  1  0
 23 25  1  0
 23 24  1  6
 24 16  1  0
 25 27  1  0
 26 25  2  0
M  END
$$$$
