PYV.pdb
     RDKit          3D

 27 28  0  0  1  0  0  0  0  0999 V2000
    7.6085  -15.5046   18.5642 N   0  0  0  0  0  0  0  0  0  0  0  0
    7.4921  -15.2272   17.1240 C   0  0  0  0  0  0  0  0  0  0  0  0
    7.7927  -13.7624   16.9579 C   0  0  0  0  0  0  0  0  0  0  0  0
    8.1918  -13.2988   18.3489 C   0  0  0  0  0  0  0  0  0  0  0  0
    8.6745  -14.6278   18.9382 C   0  0  1  0  0  0  0  0  0  0  0  0
    8.8929  -14.5370   20.3896 C   0  0  0  0  0  0  0  0  0  0  0  0
   10.0631  -14.3105   20.7920 O   0  0  0  0  0  0  0  0  0  0  0  0
    7.2212  -12.7944   28.9464 O   0  0  0  0  0  0  0  0  0  0  0  0
    7.1576  -13.0117   27.5580 C   0  0  0  0  0  0  0  0  0  0  0  0
    6.5062  -14.1027   27.0352 C   0  0  0  0  0  0  0  0  0  0  0  0
    6.4532  -14.3011   25.6695 C   0  0  0  0  0  0  0  0  0  0  0  0
    7.0444  -13.4226   24.7951 C   0  0  0  0  0  0  0  0  0  0  0  0
    6.9598  -13.6872   23.3435 C   0  0  0  0  0  0  0  0  0  0  0  0
    8.1416  -14.4243   22.7964 C   0  0  2  0  0  0  0  0  0  0  0  0
    7.8864  -14.6850   21.3724 N   0  0  0  0  0  0  0  0  0  0  0  0
    8.4398  -15.6990   23.5061 C   0  0  0  0  0  0  0  0  0  0  0  0
    7.6514  -16.6723   23.3837 O   0  0  0  0  0  0  0  0  0  0  0  0
    7.6989  -12.3278   25.3044 C   0  0  0  0  0  0  0  0  0  0  0  0
    7.7486  -12.1342   26.6777 C   0  0  0  0  0  0  0  0  0  0  0  0
   11.7124  -18.8214   25.3272 C   0  0  0  0  0  0  0  0  0  0  0  0
   11.3436  -17.5366   24.6667 C   0  0  1  0  0  0  0  0  0  0  0  0
   11.6919  -17.5379   23.2010 C   0  0  0  0  0  0  0  0  0  0  0  0
    9.8899  -17.1690   24.8634 C   0  0  2  0  0  0  0  0  0  0  0  0
    9.5789  -15.8742   24.3215 N   0  0  0  0  0  0  0  0  0  0  0  0
    9.5291  -17.1584   26.3111 C   0  0  0  0  0  0  0  0  0  0  0  0
    9.6738  -16.1056   27.0177 O   0  0  0  0  0  0  0  0  0  0  0  0
    9.0266  -18.2921   26.9296 O   0  0  0  0  0  0  0  0  0  0  0  0
  1  2  1  0
  3  2  1  0
  4  5  1  0
  4  3  1  0
  5  1  1  0
  5  6  1  1
  7  6  2  0
  8  9  1  0
  9 19  2  0
 10 11  2  0
 10  9  1  0
 11 12  1  0
 12 13  1  0
 12 18  2  0
 14 13  1  1
 14 15  1  0
 15  6  1  0
 16 14  1  0
 17 16  2  0
 19 18  1  0
 21 23  1  0
 21 20  1  6
 22 21  1  0
 23 25  1  0
 23 24  1  1
 24 16  1  0
 25 27  1  0
 26 25  2  0
M  END
$$$$
