PYV.pdb
     RDKit          3D

 27 28  0  0  1  0  0  0  0  0999 V2000
    7.7178  -15.3927   18.5391 N   0  0  0  0  0  0  0  0  0  0  0  0
    7.6650  -15.0475   17.1100 C   0  0  0  0  0  0  0  0  0  0  0  0
    7.9917  -13.5813   17.0249 C   0  0  0  0  0  0  0  0  0  0  0  0
    8.3387  -13.1884   18.4511 C   0  0  0  0  0  0  0  0  0  0  0  0
    8.7787  -14.5503   18.9971 C   0  0  1  0  0  0  0  0  0  0  0  0
    8.9378  -14.5299   20.4588 C   0  0  0  0  0  0  0  0  0  0  0  0
   10.1070  -14.4686   20.9192 O   0  0  0  0  0  0  0  0  0  0  0  0
    7.1641  -12.6287   28.9524 O   0  0  0  0  0  0  0  0  0  0  0  0
    7.1018  -12.8752   27.5689 C   0  0  0  0  0  0  0  0  0  0  0  0
    7.6565  -12.0040   26.6626 C   0  0  0  0  0  0  0  0  0  0  0  0
    7.5865  -12.2612   25.3076 C   0  0  0  0  0  0  0  0  0  0  0  0
    6.9656  -13.3866   24.8238 C   0  0  0  0  0  0  0  0  0  0  0  0
    6.9167  -13.6087   23.3634 C   0  0  0  0  0  0  0  0  0  0  0  0
    8.0908  -14.3684   22.8308 C   0  0  2  0  0  0  0  0  0  0  0  0
    7.8751  -14.5738   21.3913 N   0  0  0  0  0  0  0  0  0  0  0  0
    8.3217  -15.6751   23.5067 C   0  0  0  0  0  0  0  0  0  0  0  0
    7.4915  -16.6074   23.3472 O   0  0  0  0  0  0  0  0  0  0  0  0
    6.4068  -14.2658   25.7188 C   0  0  0  0  0  0  0  0  0  0  0  0
    6.4807  -14.0016   27.0792 C   0  0  0  0  0  0  0  0  0  0  0  0
   10.9602  -17.9498   22.6888 C   0  0  0  0  0  0  0  0  0  0  0  0
   11.0274  -17.7840   24.1691 C   0  0  1  0  0  0  0  0  0  0  0  0
   12.1857  -16.9154   24.5854 C   0  0  0  0  0  0  0  0  0  0  0  0
    9.7374  -17.2637   24.7628 C   0  0  2  0  0  0  0  0  0  0  0  0
    9.4411  -15.9252   24.3297 N   0  0  0  0  0  0  0  0  0  0  0  0
    9.7944  -17.2607   26.2538 C   0  0  0  0  0  0  0  0  0  0  0  0
    9.8593  -16.1667   26.9077 O   0  0  0  0  0  0  0  0  0  0  0  0
    9.7785  -18.4464   26.9708 O   0  0  0  0  0  0  0  0  0  0  0  0
  1  2  1  0
  3  2  1  0
  4  5  1  0
  4  3  1  0
  5  1  1  0
  5  6  1  1
  7  6  2  0
  8  9  1  0
  9 19  2  0
 10 11  2  0
 10  9  1  0
 11 12  1  0
 12 13  1  0
 12 18  2  0
 14 13  1  1
 14 15  1  0
 15  6  1  0
 16 14  1  0
 17 16  2  0
 19 18  1  0
 21 23  1  0
 21 20  1  6
 22 21  1  0
 23 25  1  0
 23 24  1  6
 24 16  1  0
 25 27  1  0
 26 25  2  0
M  END
$$$$
