PYV.pdb
     RDKit          3D

 27 28  0  0  1  0  0  0  0  0999 V2000
    7.7452  -20.0037   25.5457 N   0  0  0  0  0  0  0  0  0  0  0  0
    7.5192  -21.4248   25.8521 C   0  0  0  0  0  0  0  0  0  0  0  0
    6.0265  -21.6054   25.9058 C   0  0  0  0  0  0  0  0  0  0  0  0
    5.4676  -20.2530   25.4968 C   0  0  0  0  0  0  0  0  0  0  0  0
    6.6463  -19.7213   24.6754 C   0  0  1  0  0  0  0  0  0  0  0  0
    6.4905  -18.2952   24.3520 C   0  0  0  0  0  0  0  0  0  0  0  0
    5.6390  -17.9827   23.4803 O   0  0  0  0  0  0  0  0  0  0  0  0
   11.2013  -15.2427   29.4184 O   0  0  0  0  0  0  0  0  0  0  0  0
   10.1553  -15.1765   28.4802 C   0  0  0  0  0  0  0  0  0  0  0  0
   10.0428  -14.1196   27.6095 C   0  0  0  0  0  0  0  0  0  0  0  0
    9.0097  -14.0702   26.6945 C   0  0  0  0  0  0  0  0  0  0  0  0
    8.0675  -15.0670   26.6242 C   0  0  0  0  0  0  0  0  0  0  0  0
    6.9810  -14.9598   25.6281 C   0  0  0  0  0  0  0  0  0  0  0  0
    7.1558  -15.8625   24.4475 C   0  0  2  0  0  0  0  0  0  0  0  0
    7.2259  -17.2434   24.9467 N   0  0  0  0  0  0  0  0  0  0  0  0
    8.3569  -15.5532   23.6234 C   0  0  0  0  0  0  0  0  0  0  0  0
    9.3252  -16.3570   23.6180 O   0  0  0  0  0  0  0  0  0  0  0  0
    8.1680  -16.1293   27.4889 C   0  0  0  0  0  0  0  0  0  0  0  0
    9.2087  -16.1729   28.4060 C   0  0  0  0  0  0  0  0  0  0  0  0
    8.7085  -13.3263   19.2195 C   0  0  0  0  0  0  0  0  0  0  0  0
    8.3388  -13.2652   20.6626 C   0  0  1  0  0  0  0  0  0  0  0  0
    6.8627  -13.0337   20.8553 C   0  0  0  0  0  0  0  0  0  0  0  0
    8.7875  -14.4837   21.4378 C   0  0  2  0  0  0  0  0  0  0  0  0
    8.4666  -14.3866   22.8358 N   0  0  0  0  0  0  0  0  0  0  0  0
   10.2613  -14.6839   21.3190 C   0  0  0  0  0  0  0  0  0  0  0  0
   11.0325  -14.5055   22.3201 O   0  0  0  0  0  0  0  0  0  0  0  0
   10.8345  -15.0692   20.1177 O   0  0  0  0  0  0  0  0  0  0  0  0
  1  2  1  0
  3  2  1  0
  4  5  1  0
  4  3  1  0
  5  1  1  0
  5  6  1  1
  7  6  2  0
  8  9  1  0
  9 19  2  0
 10 11  2  0
 10  9  1  0
 11 12  1  0
 12 13  1  0
 12 18  2  0
 14 13  1  1
 14 15  1  0
 15  6  1  0
 16 14  1  0
 17 16  2  0
 19 18  1  0
 21 23  1  0
 21 20  1  6
 22 21  1  0
 23 25  1  0
 23 24  1  1
 24 16  1  0
 25 27  1  0
 26 25  2  0
M  END
$$$$
