PYV.pdb
     RDKit          3D

 27 28  0  0  1  0  0  0  0  0999 V2000
    8.1215  -17.5853   19.5719 N   0  0  0  0  0  0  0  0  0  0  0  0
    8.0566  -17.8096   18.1194 C   0  0  0  0  0  0  0  0  0  0  0  0
    8.2957  -16.4682   17.4812 C   0  0  0  0  0  0  0  0  0  0  0  0
    8.6104  -15.5461   18.6473 C   0  0  0  0  0  0  0  0  0  0  0  0
    9.1277  -16.5730   19.6595 C   0  0  1  0  0  0  0  0  0  0  0  0
    9.2768  -15.9924   21.0023 C   0  0  0  0  0  0  0  0  0  0  0  0
   10.3731  -15.4435   21.2838 O   0  0  0  0  0  0  0  0  0  0  0  0
    7.0246  -11.6666   28.4240 O   0  0  0  0  0  0  0  0  0  0  0  0
    7.0482  -12.3978   27.2225 C   0  0  0  0  0  0  0  0  0  0  0  0
    7.0316  -11.7667   26.0021 C   0  0  0  0  0  0  0  0  0  0  0  0
    7.0552  -12.4997   24.8320 C   0  0  0  0  0  0  0  0  0  0  0  0
    7.0958  -13.8723   24.8479 C   0  0  0  0  0  0  0  0  0  0  0  0
    7.1152  -14.6055   23.5647 C   0  0  0  0  0  0  0  0  0  0  0  0
    8.4294  -15.2539   23.2621 C   0  0  2  0  0  0  0  0  0  0  0  0
    8.2801  -16.0028   22.0060 N   0  0  0  0  0  0  0  0  0  0  0  0
    8.9213  -16.1545   24.3412 C   0  0  0  0  0  0  0  0  0  0  0  0
    8.3688  -17.2723   24.5115 O   0  0  0  0  0  0  0  0  0  0  0  0
    7.1127  -14.5159   26.0610 C   0  0  0  0  0  0  0  0  0  0  0  0
    7.0888  -13.7735   27.2333 C   0  0  0  0  0  0  0  0  0  0  0  0
   12.6907  -15.3391   26.1832 C   0  0  0  0  0  0  0  0  0  0  0  0
   12.2037  -16.6887   25.7775 C   0  0  1  0  0  0  0  0  0  0  0  0
   12.9094  -17.7893   26.5259 C   0  0  0  0  0  0  0  0  0  0  0  0
   10.7045  -16.8381   25.9091 C   0  0  2  0  0  0  0  0  0  0  0  0
    9.9919  -15.8133   25.1959 N   0  0  0  0  0  0  0  0  0  0  0  0
   10.2818  -16.7797   27.3388 C   0  0  0  0  0  0  0  0  0  0  0  0
   10.6399  -17.6810   28.1683 O   0  0  0  0  0  0  0  0  0  0  0  0
    9.4881  -15.7446   27.8065 O   0  0  0  0  0  0  0  0  0  0  0  0
  1  2  1  0
  3  2  1  0
  4  5  1  0
  4  3  1  0
  5  1  1  0
  5  6  1  1
  7  6  2  0
  8  9  1  0
  9 19  2  0
 10 11  2  0
 10  9  1  0
 11 12  1  0
 12 13  1  0
 12 18  2  0
 14 13  1  1
 14 15  1  0
 15  6  1  0
 16 14  1  0
 17 16  2  0
 19 18  1  0
 21 23  1  0
 21 20  1  1
 22 21  1  0
 23 25  1  0
 23 24  1  6
 24 16  1  0
 25 27  1  0
 26 25  2  0
M  END
$$$$
