PYV.pdb
     RDKit          3D

 27 28  0  0  1  0  0  0  0  0999 V2000
    8.9448  -14.9464   19.2423 N   0  0  0  0  0  0  0  0  0  0  0  0
    9.0024  -14.2238   17.9621 C   0  0  0  0  0  0  0  0  0  0  0  0
    7.6822  -13.5152   17.8259 C   0  0  0  0  0  0  0  0  0  0  0  0
    6.9685  -13.7908   19.1387 C   0  0  0  0  0  0  0  0  0  0  0  0
    8.1774  -14.0450   20.0445 C   0  0  1  0  0  0  0  0  0  0  0  0
    7.7795  -14.5953   21.3488 C   0  0  0  0  0  0  0  0  0  0  0  0
    7.0956  -13.8625   22.1088 O   0  0  0  0  0  0  0  0  0  0  0  0
    7.5124  -19.8777   28.5351 O   0  0  0  0  0  0  0  0  0  0  0  0
    7.6851  -19.3538   27.2411 C   0  0  0  0  0  0  0  0  0  0  0  0
    8.8921  -18.8380   26.8348 C   0  0  0  0  0  0  0  0  0  0  0  0
    9.0447  -18.3276   25.5607 C   0  0  0  0  0  0  0  0  0  0  0  0
    8.0044  -18.3181   24.6641 C   0  0  0  0  0  0  0  0  0  0  0  0
    8.2236  -17.7552   23.3152 C   0  0  0  0  0  0  0  0  0  0  0  0
    7.7373  -16.3482   23.1641 C   0  0  2  0  0  0  0  0  0  0  0  0
    8.1069  -15.8891   21.8174 N   0  0  0  0  0  0  0  0  0  0  0  0
    8.2719  -15.4110   24.1905 C   0  0  0  0  0  0  0  0  0  0  0  0
    9.4279  -14.9342   24.0481 O   0  0  0  0  0  0  0  0  0  0  0  0
    6.7924  -18.8306   25.0573 C   0  0  0  0  0  0  0  0  0  0  0  0
    6.6457  -19.3421   26.3390 C   0  0  0  0  0  0  0  0  0  0  0  0
    7.3718  -12.0847   27.6949 C   0  0  0  0  0  0  0  0  0  0  0  0
    6.9012  -13.1070   26.7168 C   0  0  1  0  0  0  0  0  0  0  0  0
    6.1301  -12.4856   25.5815 C   0  0  0  0  0  0  0  0  0  0  0  0
    8.0216  -13.9713   26.1831 C   0  0  2  0  0  0  0  0  0  0  0  0
    7.5373  -15.0241   25.3323 N   0  0  0  0  0  0  0  0  0  0  0  0
    8.7927  -14.5994   27.2954 C   0  0  0  0  0  0  0  0  0  0  0  0
    8.5063  -15.7698   27.7158 O   0  0  0  0  0  0  0  0  0  0  0  0
    9.8421  -13.9291   27.9035 O   0  0  0  0  0  0  0  0  0  0  0  0
  1  2  1  0
  3  2  1  0
  4  5  1  0
  4  3  1  0
  5  1  1  0
  5  6  1  1
  7  6  2  0
  8  9  1  0
  9 19  2  0
 10 11  2  0
 10  9  1  0
 11 12  1  0
 12 13  1  0
 12 18  2  0
 14 13  1  1
 14 15  1  0
 15  6  1  0
 16 14  1  0
 17 16  2  0
 19 18  1  0
 21 23  1  0
 21 20  1  1
 22 21  1  0
 23 25  1  0
 23 24  1  6
 24 16  1  0
 25 27  1  0
 26 25  2  0
M  END
$$$$
