PYV.pdb
     RDKit          3D

 27 28  0  0  1  0  0  0  0  0999 V2000
    8.7846  -15.1289   19.2983 N   0  0  0  0  0  0  0  0  0  0  0  0
    8.7349  -14.5083   17.9653 C   0  0  0  0  0  0  0  0  0  0  0  0
    7.4702  -13.6939   17.9337 C   0  0  0  0  0  0  0  0  0  0  0  0
    6.9119  -13.8085   19.3423 C   0  0  0  0  0  0  0  0  0  0  0  0
    8.2031  -14.1061   20.1110 C   0  0  1  0  0  0  0  0  0  0  0  0
    7.9335  -14.5230   21.4953 C   0  0  0  0  0  0  0  0  0  0  0  0
    7.3221  -13.7150   22.2409 O   0  0  0  0  0  0  0  0  0  0  0  0
    7.7059  -19.3983   28.9688 O   0  0  0  0  0  0  0  0  0  0  0  0
    7.8686  -18.9463   27.6466 C   0  0  0  0  0  0  0  0  0  0  0  0
    9.0868  -18.5075   27.1868 C   0  0  0  0  0  0  0  0  0  0  0  0
    9.2292  -18.0671   25.8857 C   0  0  0  0  0  0  0  0  0  0  0  0
    8.1675  -18.0528   25.0146 C   0  0  0  0  0  0  0  0  0  0  0  0
    8.3768  -17.5668   23.6346 C   0  0  0  0  0  0  0  0  0  0  0  0
    7.9097  -16.1624   23.4140 C   0  0  2  0  0  0  0  0  0  0  0  0
    8.3094  -15.7660   22.0560 N   0  0  0  0  0  0  0  0  0  0  0  0
    8.4361  -15.1875   24.4090 C   0  0  0  0  0  0  0  0  0  0  0  0
    9.6176  -14.7689   24.2972 O   0  0  0  0  0  0  0  0  0  0  0  0
    6.9441  -18.4887   25.4613 C   0  0  0  0  0  0  0  0  0  0  0  0
    6.8077  -18.9301   26.7700 C   0  0  0  0  0  0  0  0  0  0  0  0
    6.8830  -11.7909   25.4655 C   0  0  0  0  0  0  0  0  0  0  0  0
    7.2191  -12.6036   26.6695 C   0  0  1  0  0  0  0  0  0  0  0  0
    5.9870  -13.1619   27.3327 C   0  0  0  0  0  0  0  0  0  0  0  0
    8.2078  -13.7098   26.3763 C   0  0  2  0  0  0  0  0  0  0  0  0
    7.6657  -14.7014   25.4876 N   0  0  0  0  0  0  0  0  0  0  0  0
    8.6298  -14.4000   27.6300 C   0  0  0  0  0  0  0  0  0  0  0  0
    8.2805  -15.6042   27.8680 O   0  0  0  0  0  0  0  0  0  0  0  0
    9.4134  -13.7526   28.5719 O   0  0  0  0  0  0  0  0  0  0  0  0
  1  2  1  0
  3  2  1  0
  4  5  1  0
  4  3  1  0
  5  1  1  0
  5  6  1  1
  7  6  2  0
  8  9  1  0
  9 19  2  0
 10 11  2  0
 10  9  1  0
 11 12  1  0
 12 13  1  0
 12 18  2  0
 14 13  1  1
 14 15  1  0
 15  6  1  0
 16 14  1  0
 17 16  2  0
 19 18  1  0
 21 23  1  0
 21 20  1  6
 22 21  1  0
 23 25  1  0
 23 24  1  6
 24 16  1  0
 25 27  1  0
 26 25  2  0
M  END
$$$$
