PYV.pdb
     RDKit          3D

 27 28  0  0  1  0  0  0  0  0999 V2000
    7.7679  -15.4172   18.7194 N   0  0  0  0  0  0  0  0  0  0  0  0
    7.5785  -15.0801   17.2999 C   0  0  0  0  0  0  0  0  0  0  0  0
    7.5635  -13.5773   17.2287 C   0  0  0  0  0  0  0  0  0  0  0  0
    7.8734  -13.1290   18.6471 C   0  0  0  0  0  0  0  0  0  0  0  0
    8.6309  -14.3616   19.1506 C   0  0  1  0  0  0  0  0  0  0  0  0
    8.8430  -14.3188   20.6051 C   0  0  0  0  0  0  0  0  0  0  0  0
   10.0156  -14.1307   21.0200 O   0  0  0  0  0  0  0  0  0  0  0  0
    7.2903  -13.0374   29.2618 O   0  0  0  0  0  0  0  0  0  0  0  0
    7.1895  -13.1951   27.8676 C   0  0  0  0  0  0  0  0  0  0  0  0
    6.6871  -14.3480   27.3139 C   0  0  0  0  0  0  0  0  0  0  0  0
    6.5950  -14.4865   25.9430 C   0  0  0  0  0  0  0  0  0  0  0  0
    6.9987  -13.4856   25.0937 C   0  0  0  0  0  0  0  0  0  0  0  0
    6.8812  -13.6903   23.6347 C   0  0  0  0  0  0  0  0  0  0  0  0
    8.0928  -14.3123   23.0149 C   0  0  2  0  0  0  0  0  0  0  0  0
    7.8278  -14.4731   21.5779 N   0  0  0  0  0  0  0  0  0  0  0  0
    8.4746  -15.6202   23.6158 C   0  0  0  0  0  0  0  0  0  0  0  0
    7.7514  -16.6291   23.4084 O   0  0  0  0  0  0  0  0  0  0  0  0
    7.5028  -12.3279   25.6339 C   0  0  0  0  0  0  0  0  0  0  0  0
    7.5928  -12.1950   27.0124 C   0  0  0  0  0  0  0  0  0  0  0  0
   11.8610  -18.7553   25.0762 C   0  0  0  0  0  0  0  0  0  0  0  0
   11.3989  -17.4751   24.4674 C   0  0  1  0  0  0  0  0  0  0  0  0
   11.5127  -17.4937   22.9653 C   0  0  0  0  0  0  0  0  0  0  0  0
    9.9957  -17.0966   24.8856 C   0  0  2  0  0  0  0  0  0  0  0  0
    9.6237  -15.7889   24.4184 N   0  0  0  0  0  0  0  0  0  0  0  0
    9.8555  -17.1094   26.3711 C   0  0  0  0  0  0  0  0  0  0  0  0
   10.1547  -16.0839   27.0692 O   0  0  0  0  0  0  0  0  0  0  0  0
    9.3962  -18.2358   27.0347 O   0  0  0  0  0  0  0  0  0  0  0  0
  1  2  1  0
  3  2  1  0
  4  5  1  0
  4  3  1  0
  5  1  1  0
  5  6  1  1
  7  6  2  0
  8  9  1  0
  9 19  2  0
 10 11  2  0
 10  9  1  0
 11 12  1  0
 12 13  1  0
 12 18  2  0
 14 13  1  1
 14 15  1  0
 15  6  1  0
 16 14  1  0
 17 16  2  0
 19 18  1  0
 21 23  1  0
 21 20  1  6
 22 21  1  0
 23 25  1  0
 23 24  1  1
 24 16  1  0
 25 27  1  0
 26 25  2  0
M  END
$$$$
