PYV.pdb
     RDKit          3D

 27 28  0  0  1  0  0  0  0  0999 V2000
    8.6427  -16.4734   19.7251 N   0  0  0  0  0  0  0  0  0  0  0  0
    8.5129  -16.2130   18.2830 C   0  0  0  0  0  0  0  0  0  0  0  0
    7.0727  -15.8414   18.0564 C   0  0  0  0  0  0  0  0  0  0  0  0
    6.4705  -15.7963   19.4508 C   0  0  0  0  0  0  0  0  0  0  0  0
    7.7332  -15.5145   20.2711 C   0  0  1  0  0  0  0  0  0  0  0  0
    7.4957  -15.6693   21.7141 C   0  0  0  0  0  0  0  0  0  0  0  0
    6.7002  -14.8658   22.2655 O   0  0  0  0  0  0  0  0  0  0  0  0
    8.2867  -18.7251   30.0704 O   0  0  0  0  0  0  0  0  0  0  0  0
    8.2793  -18.5763   28.6716 C   0  0  0  0  0  0  0  0  0  0  0  0
    9.4156  -18.2218   27.9852 C   0  0  0  0  0  0  0  0  0  0  0  0
    9.3910  -18.0800   26.6117 C   0  0  0  0  0  0  0  0  0  0  0  0
    8.2402  -18.2866   25.8913 C   0  0  0  0  0  0  0  0  0  0  0  0
    8.2711  -18.1164   24.4235 C   0  0  0  0  0  0  0  0  0  0  0  0
    7.7701  -16.7842   23.9617 C   0  0  2  0  0  0  0  0  0  0  0  0
    8.0940  -16.6548   22.5336 N   0  0  0  0  0  0  0  0  0  0  0  0
    8.3298  -15.6321   24.7212 C   0  0  0  0  0  0  0  0  0  0  0  0
    9.5354  -15.3111   24.5555 O   0  0  0  0  0  0  0  0  0  0  0  0
    7.0972  -18.6414   26.5650 C   0  0  0  0  0  0  0  0  0  0  0  0
    7.1286  -18.7823   27.9452 C   0  0  0  0  0  0  0  0  0  0  0  0
    6.7119  -12.0759   25.0430 C   0  0  0  0  0  0  0  0  0  0  0  0
    7.1624  -12.5719   26.3750 C   0  0  1  0  0  0  0  0  0  0  0  0
    6.0004  -12.9458   27.2579 C   0  0  0  0  0  0  0  0  0  0  0  0
    8.1409  -13.7207   26.2758 C   0  0  2  0  0  0  0  0  0  0  0  0
    7.5658  -14.8700   25.6314 N   0  0  0  0  0  0  0  0  0  0  0  0
    8.6143  -14.1420   27.6266 C   0  0  0  0  0  0  0  0  0  0  0  0
    8.2829  -15.2726   28.1171 O   0  0  0  0  0  0  0  0  0  0  0  0
    9.4274  -13.3170   28.3871 O   0  0  0  0  0  0  0  0  0  0  0  0
  1  2  1  0
  3  2  1  0
  4  5  1  0
  4  3  1  0
  5  1  1  0
  5  6  1  1
  7  6  2  0
  8  9  1  0
  9 19  2  0
 10 11  2  0
 10  9  1  0
 11 12  1  0
 12 13  1  0
 12 18  2  0
 14 13  1  1
 14 15  1  0
 15  6  1  0
 16 14  1  0
 17 16  2  0
 19 18  1  0
 21 23  1  0
 21 20  1  6
 22 21  1  0
 23 25  1  0
 23 24  1  1
 24 16  1  0
 25 27  1  0
 26 25  2  0
M  END
$$$$
