MPQ.pdb
     RDKit          3D

 25 25  0  0  1  0  0  0  0  0999 V2000
   27.8471  -11.7683  -15.5285 C   0  0  0  0  0  0  0  0  0  0  0  0
   26.9935  -13.3458  -15.5092 S   0  0  0  0  0  0  0  0  0  0  0  0
   25.5219  -13.3559  -16.5598 C   0  0  0  0  0  0  0  0  0  0  0  0
   24.3878  -12.5772  -15.9272 C   0  0  0  0  0  0  0  0  0  0  0  0
   23.2339  -12.4167  -16.9076 C   0  0  2  0  0  0  0  0  0  0  0  0
   23.6692  -12.8069  -18.1928 N   0  0  0  0  0  0  0  0  0  0  0  0
   22.5720  -11.1183  -16.7758 C   0  0  0  0  0  0  0  0  0  0  0  0
   22.9443  -10.2896  -17.6869 O   0  0  0  0  0  0  0  0  0  0  0  0
   21.6240  -10.7268  -15.7986 N   0  0  0  0  0  0  0  0  0  0  0  0
   21.0811  -11.3734  -14.6409 C   0  0  0  0  0  0  0  0  0  0  0  0
   19.5941  -11.2497  -14.9195 C   0  0  0  0  0  0  0  0  0  0  0  0
   19.5402   -9.8344  -15.4565 C   0  0  0  0  0  0  0  0  0  0  0  0
   20.9602   -9.4406  -15.8049 C   0  0  1  0  0  0  0  0  0  0  0  0
   21.5588   -8.5055  -14.8179 C   0  0  0  0  0  0  0  0  0  0  0  0
   22.5191   -8.8789  -14.1055 O   0  0  0  0  0  0  0  0  0  0  0  0
   24.8493   -5.9332  -17.6142 N   0  0  0  0  0  0  0  0  0  0  0  0
   24.8217   -4.8300  -16.6857 C   0  0  0  0  0  0  0  0  0  0  0  0
   25.6691   -3.9435  -16.8672 O   0  0  0  0  0  0  0  0  0  0  0  0
   23.8368   -4.7593  -15.5772 C   0  0  0  0  0  0  0  0  0  0  0  0
   22.9910   -5.9914  -15.6183 C   0  0  0  0  0  0  0  0  0  0  0  0
   21.9495   -6.0227  -14.5230 C   0  0  2  0  0  0  0  0  0  0  0  0
   21.0857   -7.1808  -14.6389 N   0  0  0  0  0  0  0  0  0  0  0  0
   21.1611   -4.7907  -14.4192 C   0  0  0  0  0  0  0  0  0  0  0  0
   21.5203   -3.8251  -13.5027 O   0  0  0  0  0  0  0  0  0  0  0  0
   20.1621   -4.5863  -15.1438 O   0  0  0  0  0  0  0  0  0  0  0  0
  2  1  1  0
  3  2  1  0
  4  3  1  0
  4  5  1  0
  5  7  1  0
  5  6  1  6
  7  8  2  0
  9 13  1  0
  9  7  1  0
 10  9  1  0
 11 10  1  0
 11 12  1  0
 12 13  1  0
 14 15  2  0
 13 14  1  1
 16 17  1  0
 17 18  2  0
 19 17  1  0
 19 20  1  0
 21 20  1  6
 21 22  1  0
 21 23  1  0
 22 14  1  0
 23 25  2  0
 23 24  1  0
M  END
$$$$
