MPQ.pdb
     RDKit          3D

 25 25  0  0  1  0  0  0  0  0999 V2000
   20.6981  -23.5808  -15.6939 C   0  0  0  0  0  0  0  0  0  0  0  0
   20.2346  -22.1862  -16.7225 S   0  0  0  0  0  0  0  0  0  0  0  0
   21.2819  -20.7379  -16.4476 C   0  0  0  0  0  0  0  0  0  0  0  0
   22.5777  -21.1170  -15.7622 C   0  0  0  0  0  0  0  0  0  0  0  0
   23.7731  -20.7352  -16.6245 C   0  0  2  0  0  0  0  0  0  0  0  0
   23.7406  -21.4967  -17.8129 N   0  0  0  0  0  0  0  0  0  0  0  0
   25.0216  -20.7133  -15.8614 C   0  0  0  0  0  0  0  0  0  0  0  0
   25.7449  -21.7537  -16.0852 O   0  0  0  0  0  0  0  0  0  0  0  0
   25.4673  -19.7138  -14.9618 N   0  0  0  0  0  0  0  0  0  0  0  0
   24.9198  -18.4604  -14.5351 C   0  0  0  0  0  0  0  0  0  0  0  0
   26.0831  -17.5300  -14.8268 C   0  0  0  0  0  0  0  0  0  0  0  0
   27.2371  -18.3896  -14.3539 C   0  0  0  0  0  0  0  0  0  0  0  0
   26.7102  -19.8034  -14.2256 C   0  0  1  0  0  0  0  0  0  0  0  0
   26.4879  -20.2109  -12.8144 C   0  0  0  0  0  0  0  0  0  0  0  0
   25.3787  -20.0031  -12.2709 O   0  0  0  0  0  0  0  0  0  0  0  0
   30.9623  -21.8982   -8.6699 N   0  0  0  0  0  0  0  0  0  0  0  0
   30.8855  -22.2995  -10.0530 C   0  0  0  0  0  0  0  0  0  0  0  0
   31.9354  -22.7257  -10.5560 O   0  0  0  0  0  0  0  0  0  0  0  0
   29.6236  -22.2080  -10.8296 C   0  0  0  0  0  0  0  0  0  0  0  0
   28.5835  -21.5694   -9.9663 C   0  0  0  0  0  0  0  0  0  0  0  0
   27.2777  -21.3435  -10.6937 C   0  0  2  0  0  0  0  0  0  0  0  0
   27.4928  -20.8383  -12.0350 N   0  0  0  0  0  0  0  0  0  0  0  0
   26.3301  -20.4968   -9.9618 C   0  0  0  0  0  0  0  0  0  0  0  0
   26.4411  -19.1245  -10.0370 O   0  0  0  0  0  0  0  0  0  0  0  0
   25.4146  -20.9862   -9.2638 O   0  0  0  0  0  0  0  0  0  0  0  0
  2  1  1  0
  3  2  1  0
  4  3  1  0
  4  5  1  0
  5  7  1  0
  5  6  1  6
  7  8  2  0
  9 13  1  0
  9  7  1  0
 10  9  1  0
 11 10  1  0
 11 12  1  0
 12 13  1  0
 14 15  2  0
 13 14  1  1
 16 17  1  0
 17 18  2  0
 19 17  1  0
 19 20  1  0
 21 20  1  1
 21 22  1  0
 21 23  1  0
 22 14  1  0
 23 25  2  0
 23 24  1  0
M  END
$$$$
