MPQ.pdb
     RDKit          3D

 25 25  0  0  1  0  0  0  0  0999 V2000
   25.2543  -15.8761  -16.3140 C   0  0  0  0  0  0  0  0  0  0  0  0
   27.0406  -15.7426  -16.2180 S   0  0  0  0  0  0  0  0  0  0  0  0
   27.7681  -16.9296  -15.0641 C   0  0  0  0  0  0  0  0  0  0  0  0
   26.7731  -18.0039  -14.6784 C   0  0  0  0  0  0  0  0  0  0  0  0
   27.3979  -19.3863  -14.8086 C   0  0  2  0  0  0  0  0  0  0  0  0
   27.8926  -19.5419  -16.1218 N   0  0  0  0  0  0  0  0  0  0  0  0
   26.5305  -20.4381  -14.2766 C   0  0  0  0  0  0  0  0  0  0  0  0
   26.2243  -21.3120  -15.1699 O   0  0  0  0  0  0  0  0  0  0  0  0
   26.0360  -20.5642  -12.9551 N   0  0  0  0  0  0  0  0  0  0  0  0
   26.2923  -19.8537  -11.7375 C   0  0  0  0  0  0  0  0  0  0  0  0
   26.6579  -21.0006  -10.8128 C   0  0  0  0  0  0  0  0  0  0  0  0
   25.6248  -22.0242  -11.2362 C   0  0  0  0  0  0  0  0  0  0  0  0
   25.0611  -21.5592  -12.5624 C   0  0  1  0  0  0  0  0  0  0  0  0
   23.6990  -20.9791  -12.4393 C   0  0  0  0  0  0  0  0  0  0  0  0
   23.5571  -19.7870  -12.0819 O   0  0  0  0  0  0  0  0  0  0  0  0
   21.6675  -22.9772  -17.4322 N   0  0  0  0  0  0  0  0  0  0  0  0
   20.6692  -21.9615  -17.2049 C   0  0  0  0  0  0  0  0  0  0  0  0
   19.9303  -21.6989  -18.1651 O   0  0  0  0  0  0  0  0  0  0  0  0
   20.5338  -21.2704  -15.8981 C   0  0  0  0  0  0  0  0  0  0  0  0
   21.5897  -21.7915  -14.9770 C   0  0  0  0  0  0  0  0  0  0  0  0
   21.4518  -21.2597  -13.5686 C   0  0  2  0  0  0  0  0  0  0  0  0
   22.5250  -21.7258  -12.7131 N   0  0  0  0  0  0  0  0  0  0  0  0
   20.1447  -21.5259  -12.9597 C   0  0  0  0  0  0  0  0  0  0  0  0
   19.8589  -22.7863  -12.4790 O   0  0  0  0  0  0  0  0  0  0  0  0
   19.2714  -20.6356  -12.8618 O   0  0  0  0  0  0  0  0  0  0  0  0
  2  1  1  0
  3  2  1  0
  4  3  1  0
  4  5  1  0
  5  7  1  0
  5  6  1  6
  7  8  2  0
  9 13  1  0
  9  7  1  0
 10  9  1  0
 11 10  1  0
 11 12  1  0
 12 13  1  0
 14 15  2  0
 13 14  1  1
 16 17  1  0
 17 18  2  0
 19 17  1  0
 19 20  1  0
 21 20  1  6
 21 22  1  0
 21 23  1  0
 22 14  1  0
 23 25  2  0
 23 24  1  0
M  END
$$$$
