MPQ.pdb
     RDKit          3D

 25 25  0  0  1  0  0  0  0  0999 V2000
   22.8146  -20.7797  -12.4047 C   0  0  0  0  0  0  0  0  0  0  0  0
   21.5160  -20.0902  -13.4324 S   0  0  0  0  0  0  0  0  0  0  0  0
   22.1156  -19.5645  -15.0554 C   0  0  0  0  0  0  0  0  0  0  0  0
   22.8555  -18.2463  -14.9690 C   0  0  0  0  0  0  0  0  0  0  0  0
   23.5144  -17.9120  -16.3004 C   0  0  2  0  0  0  0  0  0  0  0  0
   22.5095  -17.7468  -17.2783 N   0  0  0  0  0  0  0  0  0  0  0  0
   24.6264  -18.8119  -16.6091 C   0  0  0  0  0  0  0  0  0  0  0  0
   24.3551  -19.5990  -17.5901 O   0  0  0  0  0  0  0  0  0  0  0  0
   25.8855  -18.8828  -15.9638 N   0  0  0  0  0  0  0  0  0  0  0  0
   26.4457  -18.2169  -14.8255 C   0  0  0  0  0  0  0  0  0  0  0  0
   27.7257  -17.6625  -15.4242 C   0  0  0  0  0  0  0  0  0  0  0  0
   28.1569  -18.8422  -16.2707 C   0  0  0  0  0  0  0  0  0  0  0  0
   26.9552  -19.7542  -16.4010 C   0  0  1  0  0  0  0  0  0  0  0  0
   27.0583  -20.9699  -15.5534 C   0  0  0  0  0  0  0  0  0  0  0  0
   27.0173  -20.8675  -14.3057 O   0  0  0  0  0  0  0  0  0  0  0  0
   22.3258  -22.8199  -15.4099 N   0  0  0  0  0  0  0  0  0  0  0  0
   22.8404  -24.0867  -14.9513 C   0  0  0  0  0  0  0  0  0  0  0  0
   22.0060  -24.8794  -14.4906 O   0  0  0  0  0  0  0  0  0  0  0  0
   24.2845  -24.4226  -15.0260 C   0  0  0  0  0  0  0  0  0  0  0  0
   25.0326  -23.1980  -15.4454 C   0  0  0  0  0  0  0  0  0  0  0  0
   26.5173  -23.4417  -15.5934 C   0  0  2  0  0  0  0  0  0  0  0  0
   27.2039  -22.2701  -16.1002 N   0  0  0  0  0  0  0  0  0  0  0  0
   26.8469  -24.6269  -16.3914 C   0  0  0  0  0  0  0  0  0  0  0  0
   26.8852  -24.5354  -17.7667 O   0  0  0  0  0  0  0  0  0  0  0  0
   27.0968  -25.7302  -15.8576 O   0  0  0  0  0  0  0  0  0  0  0  0
  2  1  1  0
  3  2  1  0
  4  3  1  0
  4  5  1  0
  5  7  1  0
  5  6  1  6
  7  8  2  0
  9 13  1  0
  9  7  1  0
 10  9  1  0
 11 10  1  0
 11 12  1  0
 12 13  1  0
 14 15  2  0
 13 14  1  1
 16 17  1  0
 17 18  2  0
 19 17  1  0
 19 20  1  0
 21 20  1  6
 21 22  1  0
 21 23  1  0
 22 14  1  0
 23 25  2  0
 23 24  1  0
M  END
$$$$
