MPQ.pdb
     RDKit          3D

 25 25  0  0  1  0  0  0  0  0999 V2000
   14.4063   -7.1742   -7.5891 C   0  0  0  0  0  0  0  0  0  0  0  0
   15.8935   -6.2743   -8.0323 S   0  0  0  0  0  0  0  0  0  0  0  0
   15.9514   -5.8436   -9.7875 C   0  0  0  0  0  0  0  0  0  0  0  0
   15.6039   -7.0324  -10.6584 C   0  0  0  0  0  0  0  0  0  0  0  0
   15.7095   -6.6673  -12.1329 C   0  0  2  0  0  0  0  0  0  0  0  0
   14.8963   -5.5406  -12.3835 N   0  0  0  0  0  0  0  0  0  0  0  0
   15.5501   -7.8320  -13.0044 C   0  0  0  0  0  0  0  0  0  0  0  0
   14.3561   -7.9261  -13.4744 O   0  0  0  0  0  0  0  0  0  0  0  0
   16.5309   -8.7947  -13.3483 N   0  0  0  0  0  0  0  0  0  0  0  0
   17.9207   -8.9389  -13.0310 C   0  0  0  0  0  0  0  0  0  0  0  0
   18.5159   -9.0677  -14.4214 C   0  0  0  0  0  0  0  0  0  0  0  0
   17.4858   -9.9690  -15.0700 C   0  0  0  0  0  0  0  0  0  0  0  0
   16.2580   -9.9443  -14.1841 C   0  0  1  0  0  0  0  0  0  0  0  0
   16.0996  -11.1848  -13.3822 C   0  0  0  0  0  0  0  0  0  0  0  0
   16.5864  -11.2509  -12.2300 O   0  0  0  0  0  0  0  0  0  0  0  0
   11.1127  -11.4113  -11.8967 N   0  0  0  0  0  0  0  0  0  0  0  0
   11.4437  -12.6267  -11.1944 C   0  0  0  0  0  0  0  0  0  0  0  0
   10.5497  -13.1048  -10.4810 O   0  0  0  0  0  0  0  0  0  0  0  0
   12.7767  -13.2683  -11.3182 C   0  0  0  0  0  0  0  0  0  0  0  0
   13.6421  -12.3976  -12.1714 C   0  0  0  0  0  0  0  0  0  0  0  0
   14.5936  -13.1894  -13.0393 C   0  0  2  0  0  0  0  0  0  0  0  0
   15.4082  -12.3235  -13.8683 N   0  0  0  0  0  0  0  0  0  0  0  0
   13.9383  -14.2223  -13.8480 C   0  0  0  0  0  0  0  0  0  0  0  0
   14.3485  -15.5345  -13.7429 O   0  0  0  0  0  0  0  0  0  0  0  0
   13.0089  -13.9470  -14.6387 O   0  0  0  0  0  0  0  0  0  0  0  0
  2  1  1  0
  3  2  1  0
  4  3  1  0
  4  5  1  0
  5  7  1  0
  5  6  1  6
  7  8  2  0
  9 13  1  0
  9  7  1  0
 10  9  1  0
 11 10  1  0
 11 12  1  0
 12 13  1  0
 14 15  2  0
 13 14  1  1
 16 17  1  0
 17 18  2  0
 19 17  1  0
 19 20  1  0
 21 20  1  6
 21 22  1  0
 21 23  1  0
 22 14  1  0
 23 25  2  0
 23 24  1  0
M  END
$$$$
