MPQ.pdb
     RDKit          3D

 25 25  0  0  1  0  0  0  0  0999 V2000
   18.5227  -13.7261  -15.0003 C   0  0  0  0  0  0  0  0  0  0  0  0
   19.1834  -14.1966  -16.6003 S   0  0  0  0  0  0  0  0  0  0  0  0
   20.8544  -13.5643  -16.8786 C   0  0  0  0  0  0  0  0  0  0  0  0
   20.9847  -12.1287  -16.4148 C   0  0  0  0  0  0  0  0  0  0  0  0
   22.4186  -11.6414  -16.5725 C   0  0  2  0  0  0  0  0  0  0  0  0
   23.2921  -12.6102  -16.0320 N   0  0  0  0  0  0  0  0  0  0  0  0
   22.5830  -10.2544  -16.1360 C   0  0  0  0  0  0  0  0  0  0  0  0
   23.1484  -10.1727  -14.9830 O   0  0  0  0  0  0  0  0  0  0  0  0
   22.1989   -9.0793  -16.8278 N   0  0  0  0  0  0  0  0  0  0  0  0
   21.5176   -8.8461  -18.0665 C   0  0  0  0  0  0  0  0  0  0  0  0
   22.5029   -7.9239  -18.7615 C   0  0  0  0  0  0  0  0  0  0  0  0
   22.9057   -7.0397  -17.5996 C   0  0  0  0  0  0  0  0  0  0  0  0
   22.4621   -7.7443  -16.3348 C   0  0  1  0  0  0  0  0  0  0  0  0
   21.2529   -7.1320  -15.7265 C   0  0  0  0  0  0  0  0  0  0  0  0
   20.1138   -7.5250  -16.0684 O   0  0  0  0  0  0  0  0  0  0  0  0
   18.5581   -6.4000  -10.5686 N   0  0  0  0  0  0  0  0  0  0  0  0
   19.9255   -6.8378  -10.7046 C   0  0  0  0  0  0  0  0  0  0  0  0
   20.5278   -7.0802   -9.6486 O   0  0  0  0  0  0  0  0  0  0  0  0
   20.5745   -6.9893  -12.0311 C   0  0  0  0  0  0  0  0  0  0  0  0
   19.5984   -6.5735  -13.0844 C   0  0  0  0  0  0  0  0  0  0  0  0
   20.1767   -5.5677  -14.0536 C   0  0  2  0  0  0  0  0  0  0  0  0
   21.3271   -6.1012  -14.7555 N   0  0  0  0  0  0  0  0  0  0  0  0
   20.4904   -4.2709  -13.4453 C   0  0  0  0  0  0  0  0  0  0  0  0
   19.4720   -3.4843  -12.9501 O   0  0  0  0  0  0  0  0  0  0  0  0
   21.6659   -3.8515  -13.3609 O   0  0  0  0  0  0  0  0  0  0  0  0
  2  1  1  0
  3  2  1  0
  4  3  1  0
  4  5  1  0
  5  7  1  0
  5  6  1  1
  7  8  2  0
  9 13  1  0
  9  7  1  0
 10  9  1  0
 11 10  1  0
 11 12  1  0
 12 13  1  0
 14 15  2  0
 13 14  1  6
 16 17  1  0
 17 18  2  0
 19 17  1  0
 19 20  1  0
 21 20  1  1
 21 22  1  0
 21 23  1  0
 22 14  1  0
 23 25  2  0
 23 24  1  0
M  END
$$$$
