MPQ.pdb
     RDKit          3D

 25 25  0  0  1  0  0  0  0  0999 V2000
   20.7004  -22.4301  -22.9025 C   0  0  0  0  0  0  0  0  0  0  0  0
   21.0662  -20.6745  -22.9476 S   0  0  0  0  0  0  0  0  0  0  0  0
   21.8707  -20.0903  -21.4372 C   0  0  0  0  0  0  0  0  0  0  0  0
   21.9400  -21.1833  -20.3916 C   0  0  0  0  0  0  0  0  0  0  0  0
   23.3641  -21.3459  -19.8781 C   0  0  2  0  0  0  0  0  0  0  0  0
   23.9507  -22.4663  -20.5059 N   0  0  0  0  0  0  0  0  0  0  0  0
   23.4392  -21.2637  -18.4189 C   0  0  0  0  0  0  0  0  0  0  0  0
   23.4596  -22.4264  -17.8682 O   0  0  0  0  0  0  0  0  0  0  0  0
   23.4875  -20.0944  -17.6205 N   0  0  0  0  0  0  0  0  0  0  0  0
   23.4192  -18.6952  -17.9212 C   0  0  0  0  0  0  0  0  0  0  0  0
   24.6815  -18.1980  -17.2404 C   0  0  0  0  0  0  0  0  0  0  0  0
   24.6275  -19.0025  -15.9582 C   0  0  0  0  0  0  0  0  0  0  0  0
   23.6303  -20.1201  -16.1805 C   0  0  1  0  0  0  0  0  0  0  0  0
   22.3349  -19.8834  -15.4929 C   0  0  0  0  0  0  0  0  0  0  0  0
   21.5465  -19.0124  -15.9273 O   0  0  0  0  0  0  0  0  0  0  0  0
   17.5176  -22.9854  -14.8194 N   0  0  0  0  0  0  0  0  0  0  0  0
   18.7882  -23.5897  -14.5023 C   0  0  0  0  0  0  0  0  0  0  0  0
   18.8353  -24.8266  -14.5693 O   0  0  0  0  0  0  0  0  0  0  0  0
   19.9707  -22.7787  -14.1181 C   0  0  0  0  0  0  0  0  0  0  0  0
   19.6003  -21.3330  -14.2062 C   0  0  0  0  0  0  0  0  0  0  0  0
   20.6742  -20.4196  -13.6603 C   0  0  2  0  0  0  0  0  0  0  0  0
   21.9382  -20.6121  -14.3429 N   0  0  0  0  0  0  0  0  0  0  0  0
   20.8460  -20.5090  -12.2068 C   0  0  0  0  0  0  0  0  0  0  0  0
   19.8053  -20.1582  -11.3730 O   0  0  0  0  0  0  0  0  0  0  0  0
   21.9188  -20.8977  -11.6942 O   0  0  0  0  0  0  0  0  0  0  0  0
  2  1  1  0
  3  2  1  0
  4  3  1  0
  4  5  1  0
  5  7  1  0
  5  6  1  1
  7  8  2  0
  9 13  1  0
  9  7  1  0
 10  9  1  0
 11 10  1  0
 11 12  1  0
 12 13  1  0
 14 15  2  0
 13 14  1  1
 16 17  1  0
 17 18  2  0
 19 17  1  0
 19 20  1  0
 21 20  1  6
 21 22  1  0
 21 23  1  0
 22 14  1  0
 23 25  2  0
 23 24  1  0
M  END
$$$$
