MPQ.pdb
     RDKit          3D

 25 25  0  0  1  0  0  0  0  0999 V2000
   26.6121  -16.9768  -15.0130 C   0  0  0  0  0  0  0  0  0  0  0  0
   25.7246  -15.4179  -14.9998 S   0  0  0  0  0  0  0  0  0  0  0  0
   24.9152  -15.0623  -16.5772 C   0  0  0  0  0  0  0  0  0  0  0  0
   24.2356  -13.7094  -16.5552 C   0  0  0  0  0  0  0  0  0  0  0  0
   23.4928  -13.4602  -17.8608 C   0  0  2  0  0  0  0  0  0  0  0  0
   24.3812  -13.6679  -18.9383 N   0  0  0  0  0  0  0  0  0  0  0  0
   22.7314  -12.2107  -17.8347 C   0  0  0  0  0  0  0  0  0  0  0  0
   23.3815  -11.2356  -18.3658 O   0  0  0  0  0  0  0  0  0  0  0  0
   21.4320  -12.0013  -17.3107 N   0  0  0  0  0  0  0  0  0  0  0  0
   20.4991  -12.8477  -16.6279 C   0  0  0  0  0  0  0  0  0  0  0  0
   19.2662  -12.6664  -17.4946 C   0  0  0  0  0  0  0  0  0  0  0  0
   19.3398  -11.1760  -17.7544 C   0  0  0  0  0  0  0  0  0  0  0  0
   20.7396  -10.7325  -17.3847 C   0  0  1  0  0  0  0  0  0  0  0  0
   20.7911   -9.9993  -16.0937 C   0  0  0  0  0  0  0  0  0  0  0  0
   20.7111  -10.6287  -15.0137 O   0  0  0  0  0  0  0  0  0  0  0  0
   21.9670   -3.0663  -16.0578 N   0  0  0  0  0  0  0  0  0  0  0  0
   22.2319   -4.3273  -15.4099 C   0  0  0  0  0  0  0  0  0  0  0  0
   23.2089   -4.3537  -14.6474 O   0  0  0  0  0  0  0  0  0  0  0  0
   21.3847   -5.5240  -15.6421 C   0  0  0  0  0  0  0  0  0  0  0  0
   21.9911   -6.6800  -14.9135 C   0  0  0  0  0  0  0  0  0  0  0  0
   21.0433   -7.8504  -14.7813 C   0  0  2  0  0  0  0  0  0  0  0  0
   20.9298   -8.5899  -16.0226 N   0  0  0  0  0  0  0  0  0  0  0  0
   19.7194   -7.4859  -14.2668 C   0  0  0  0  0  0  0  0  0  0  0  0
   19.5673   -7.1739  -12.9324 O   0  0  0  0  0  0  0  0  0  0  0  0
   18.7130   -7.4491  -15.0088 O   0  0  0  0  0  0  0  0  0  0  0  0
  2  1  1  0
  3  2  1  0
  4  3  1  0
  4  5  1  0
  5  7  1  0
  5  6  1  6
  7  8  2  0
  9 13  1  0
  9  7  1  0
 10  9  1  0
 11 10  1  0
 11 12  1  0
 12 13  1  0
 14 15  2  0
 13 14  1  1
 16 17  1  0
 17 18  2  0
 19 17  1  0
 19 20  1  0
 21 20  1  6
 21 22  1  0
 21 23  1  0
 22 14  1  0
 23 25  2  0
 23 24  1  0
M  END
$$$$
