MPQ.pdb
     RDKit          3D

 25 25  0  0  1  0  0  0  0  0999 V2000
   15.6473  -14.2764  -14.8411 C   0  0  0  0  0  0  0  0  0  0  0  0
   16.6408  -12.7840  -14.9010 S   0  0  0  0  0  0  0  0  0  0  0  0
   17.5598  -12.6191  -16.4496 C   0  0  0  0  0  0  0  0  0  0  0  0
   18.3200  -11.3107  -16.5026 C   0  0  0  0  0  0  0  0  0  0  0  0
   19.1838  -11.2418  -17.7545 C   0  0  2  0  0  0  0  0  0  0  0  0
   20.0222  -12.3771  -17.7937 N   0  0  0  0  0  0  0  0  0  0  0  0
   19.8049   -9.9280  -17.9269 C   0  0  0  0  0  0  0  0  0  0  0  0
   21.0815   -9.9710  -17.7712 O   0  0  0  0  0  0  0  0  0  0  0  0
   19.1633   -8.7016  -18.2289 N   0  0  0  0  0  0  0  0  0  0  0  0
   17.7977   -8.3391  -18.4666 C   0  0  0  0  0  0  0  0  0  0  0  0
   17.9208   -7.6377  -19.8072 C   0  0  0  0  0  0  0  0  0  0  0  0
   19.1943   -6.8498  -19.5799 C   0  0  0  0  0  0  0  0  0  0  0  0
   19.8705   -7.4460  -18.3633 C   0  0  1  0  0  0  0  0  0  0  0  0
   19.7281   -6.5997  -17.1507 C   0  0  0  0  0  0  0  0  0  0  0  0
   18.7081   -6.7045  -16.4313 O   0  0  0  0  0  0  0  0  0  0  0  0
   20.7324   -8.8083  -12.9545 N   0  0  0  0  0  0  0  0  0  0  0  0
   21.2262   -7.5713  -12.4012 C   0  0  0  0  0  0  0  0  0  0  0  0
   21.1088   -7.4378  -11.1743 O   0  0  0  0  0  0  0  0  0  0  0  0
   21.8391   -6.5192  -13.2503 C   0  0  0  0  0  0  0  0  0  0  0  0
   21.3870   -6.7277  -14.6600 C   0  0  0  0  0  0  0  0  0  0  0  0
   21.1116   -5.4296  -15.3841 C   0  0  2  0  0  0  0  0  0  0  0  0
   20.7130   -5.6577  -16.7588 N   0  0  0  0  0  0  0  0  0  0  0  0
   22.2140   -4.4653  -15.3125 C   0  0  0  0  0  0  0  0  0  0  0  0
   22.8711   -4.0921  -16.4659 O   0  0  0  0  0  0  0  0  0  0  0  0
   22.5809   -3.9656  -14.2260 O   0  0  0  0  0  0  0  0  0  0  0  0
  2  1  1  0
  3  2  1  0
  4  3  1  0
  4  5  1  0
  5  7  1  0
  5  6  1  1
  7  8  2  0
  9 13  1  0
  9  7  1  0
 10  9  1  0
 11 10  1  0
 11 12  1  0
 12 13  1  0
 14 15  2  0
 13 14  1  1
 16 17  1  0
 17 18  2  0
 19 17  1  0
 19 20  1  0
 21 20  1  6
 21 22  1  0
 21 23  1  0
 22 14  1  0
 23 25  2  0
 23 24  1  0
M  END
$$$$
