MPQ.pdb
     RDKit          3D

 25 25  0  0  1  0  0  0  0  0999 V2000
   28.3090   -9.4761  -22.4446 C   0  0  0  0  0  0  0  0  0  0  0  0
   29.1189  -10.9888  -21.9214 S   0  0  0  0  0  0  0  0  0  0  0  0
   28.0476  -12.0418  -20.9150 C   0  0  0  0  0  0  0  0  0  0  0  0
   27.2078  -11.2205  -19.9596 C   0  0  0  0  0  0  0  0  0  0  0  0
   26.2901  -12.1194  -19.1422 C   0  0  2  0  0  0  0  0  0  0  0  0
   25.5937  -12.9792  -20.0192 N   0  0  0  0  0  0  0  0  0  0  0  0
   25.5086  -11.3665  -18.1604 C   0  0  0  0  0  0  0  0  0  0  0  0
   24.2597  -11.3212  -18.4666 O   0  0  0  0  0  0  0  0  0  0  0  0
   25.9794  -10.7296  -16.9859 N   0  0  0  0  0  0  0  0  0  0  0  0
   27.2816  -10.5653  -16.4112 C   0  0  0  0  0  0  0  0  0  0  0  0
   27.0435  -11.1059  -15.0129 C   0  0  0  0  0  0  0  0  0  0  0  0
   25.6827  -10.5070  -14.7236 C   0  0  0  0  0  0  0  0  0  0  0  0
   25.1124  -10.0475  -16.0490 C   0  0  1  0  0  0  0  0  0  0  0  0
   25.1657   -8.5728  -16.2204 C   0  0  0  0  0  0  0  0  0  0  0  0
   26.2657   -8.0048  -16.4109 O   0  0  0  0  0  0  0  0  0  0  0  0
   21.7582   -5.3331  -19.8738 N   0  0  0  0  0  0  0  0  0  0  0  0
   22.2940   -4.2510  -19.0852 C   0  0  0  0  0  0  0  0  0  0  0  0
   22.0550   -3.1063  -19.4967 O   0  0  0  0  0  0  0  0  0  0  0  0
   23.0855   -4.4929  -17.8528 C   0  0  0  0  0  0  0  0  0  0  0  0
   23.1671   -5.9684  -17.6264 C   0  0  0  0  0  0  0  0  0  0  0  0
   24.0113   -6.3302  -16.4256 C   0  0  2  0  0  0  0  0  0  0  0  0
   24.0056   -7.7583  -16.1782 N   0  0  0  0  0  0  0  0  0  0  0  0
   23.6625   -5.5875  -15.2103 C   0  0  0  0  0  0  0  0  0  0  0  0
   22.9514   -6.2129  -14.2080 O   0  0  0  0  0  0  0  0  0  0  0  0
   23.9933   -4.3914  -15.0529 O   0  0  0  0  0  0  0  0  0  0  0  0
  2  1  1  0
  3  2  1  0
  4  3  1  0
  4  5  1  0
  5  7  1  0
  5  6  1  6
  7  8  2  0
  9 13  1  0
  9  7  1  0
 10  9  1  0
 11 10  1  0
 11 12  1  0
 12 13  1  0
 14 15  2  0
 13 14  1  1
 16 17  1  0
 17 18  2  0
 19 17  1  0
 19 20  1  0
 21 20  1  6
 21 22  1  0
 21 23  1  0
 22 14  1  0
 23 25  2  0
 23 24  1  0
M  END
$$$$
