MPQ.pdb
     RDKit          3D

 25 25  0  0  1  0  0  0  0  0999 V2000
   22.6407  -14.6797  -22.7697 C   0  0  0  0  0  0  0  0  0  0  0  0
   22.5394  -13.2999  -21.6278 S   0  0  0  0  0  0  0  0  0  0  0  0
   22.8725  -13.7836  -19.9176 C   0  0  0  0  0  0  0  0  0  0  0  0
   22.8442  -12.5865  -18.9908 C   0  0  0  0  0  0  0  0  0  0  0  0
   23.1087  -13.0136  -17.5535 C   0  0  2  0  0  0  0  0  0  0  0  0
   22.2325  -14.0700  -17.2225 N   0  0  0  0  0  0  0  0  0  0  0  0
   23.1774  -11.8719  -16.6405 C   0  0  0  0  0  0  0  0  0  0  0  0
   22.1183  -11.7646  -15.9178 O   0  0  0  0  0  0  0  0  0  0  0  0
   24.2369  -10.9425  -16.4972 N   0  0  0  0  0  0  0  0  0  0  0  0
   25.4793  -10.7541  -17.1857 C   0  0  0  0  0  0  0  0  0  0  0  0
   26.4526  -10.7671  -16.0210 C   0  0  0  0  0  0  0  0  0  0  0  0
   25.6734   -9.9478  -15.0132 C   0  0  0  0  0  0  0  0  0  0  0  0
   24.2422   -9.8894  -15.5043 C   0  0  1  0  0  0  0  0  0  0  0  0
   23.8872   -8.5729  -16.0940 C   0  0  0  0  0  0  0  0  0  0  0  0
   23.6717   -8.4764  -17.3241 O   0  0  0  0  0  0  0  0  0  0  0  0
   20.2425   -6.9099  -18.0457 N   0  0  0  0  0  0  0  0  0  0  0  0
   19.7853   -5.9309  -17.0904 C   0  0  0  0  0  0  0  0  0  0  0  0
   18.8932   -5.1637  -17.4808 O   0  0  0  0  0  0  0  0  0  0  0  0
   20.3493   -5.8462  -15.7198 C   0  0  0  0  0  0  0  0  0  0  0  0
   21.3893   -6.9098  -15.5710 C   0  0  0  0  0  0  0  0  0  0  0  0
   22.7954   -6.3548  -15.5536 C   0  0  2  0  0  0  0  0  0  0  0  0
   23.7777   -7.3934  -15.3145 N   0  0  0  0  0  0  0  0  0  0  0  0
   22.9798   -5.2365  -14.6233 C   0  0  0  0  0  0  0  0  0  0  0  0
   23.0303   -5.4776  -13.2666 O   0  0  0  0  0  0  0  0  0  0  0  0
   23.0938   -4.0578  -15.0265 O   0  0  0  0  0  0  0  0  0  0  0  0
  2  1  1  0
  3  2  1  0
  4  3  1  0
  4  5  1  0
  5  7  1  0
  5  6  1  1
  7  8  2  0
  9 13  1  0
  9  7  1  0
 10  9  1  0
 11 10  1  0
 11 12  1  0
 12 13  1  0
 14 15  2  0
 13 14  1  6
 16 17  1  0
 17 18  2  0
 19 17  1  0
 19 20  1  0
 21 20  1  1
 21 22  1  0
 21 23  1  0
 22 14  1  0
 23 25  2  0
 23 24  1  0
M  END
$$$$
