MPQ.pdb
     RDKit          3D

 25 25  0  0  1  0  0  0  0  0999 V2000
   24.5962  -24.4667  -13.9919 C   0  0  0  0  0  0  0  0  0  0  0  0
   23.3764  -23.1812  -13.7134 S   0  0  0  0  0  0  0  0  0  0  0  0
   23.5885  -22.3511  -12.1210 C   0  0  0  0  0  0  0  0  0  0  0  0
   25.0536  -22.1934  -11.7726 C   0  0  0  0  0  0  0  0  0  0  0  0
   25.3627  -20.7523  -11.3906 C   0  0  2  0  0  0  0  0  0  0  0  0
   24.4548  -20.3402  -10.3909 N   0  0  0  0  0  0  0  0  0  0  0  0
   25.5245  -19.8914  -12.5630 C   0  0  0  0  0  0  0  0  0  0  0  0
   24.5392  -19.0765  -12.7058 O   0  0  0  0  0  0  0  0  0  0  0  0
   26.5986  -19.8821  -13.4866 N   0  0  0  0  0  0  0  0  0  0  0  0
   27.7639  -20.7001  -13.6477 C   0  0  0  0  0  0  0  0  0  0  0  0
   28.8527  -19.6424  -13.6549 C   0  0  0  0  0  0  0  0  0  0  0  0
   28.1870  -18.5803  -14.5052 C   0  0  0  0  0  0  0  0  0  0  0  0
   26.7130  -18.9220  -14.5636 C   0  0  1  0  0  0  0  0  0  0  0  0
   26.3065  -19.5047  -15.8683 C   0  0  0  0  0  0  0  0  0  0  0  0
   27.1728  -19.9813  -16.6372 O   0  0  0  0  0  0  0  0  0  0  0  0
   25.2871  -24.5511  -15.9772 N   0  0  0  0  0  0  0  0  0  0  0  0
   24.0444  -23.9737  -15.5274 C   0  0  0  0  0  0  0  0  0  0  0  0
   23.3345  -24.6965  -14.8130 O   0  0  0  0  0  0  0  0  0  0  0  0
   23.6383  -22.5946  -15.8978 C   0  0  0  0  0  0  0  0  0  0  0  0
   24.7561  -21.9633  -16.6640 C   0  0  0  0  0  0  0  0  0  0  0  0
   24.4144  -20.5774  -17.1618 C   0  0  2  0  0  0  0  0  0  0  0  0
   24.9550  -19.5491  -16.2951 N   0  0  0  0  0  0  0  0  0  0  0  0
   22.9817  -20.3667  -17.3925 C   0  0  0  0  0  0  0  0  0  0  0  0
   22.3227  -21.1265  -18.3357 O   0  0  0  0  0  0  0  0  0  0  0  0
   22.3318  -19.5099  -16.7534 O   0  0  0  0  0  0  0  0  0  0  0  0
  2  1  1  0
  3  2  1  0
  4  3  1  0
  4  5  1  0
  5  7  1  0
  5  6  1  1
  7  8  2  0
  9 13  1  0
  9  7  1  0
 10  9  1  0
 11 10  1  0
 11 12  1  0
 12 13  1  0
 14 15  2  0
 13 14  1  6
 16 17  1  0
 17 18  2  0
 19 17  1  0
 19 20  1  0
 21 20  1  1
 21 22  1  0
 21 23  1  0
 22 14  1  0
 23 25  2  0
 23 24  1  0
M  END
$$$$
