MPQ.pdb
     RDKit          3D

 25 25  0  0  1  0  0  0  0  0999 V2000
   21.4140  -17.4801  -14.3214 C   0  0  0  0  0  0  0  0  0  0  0  0
   19.8712  -17.3916  -15.2323 S   0  0  0  0  0  0  0  0  0  0  0  0
   20.0641  -16.6258  -16.8589 C   0  0  0  0  0  0  0  0  0  0  0  0
   20.5364  -15.1920  -16.7405 C   0  0  0  0  0  0  0  0  0  0  0  0
   21.1456  -14.7170  -18.0526 C   0  0  2  0  0  0  0  0  0  0  0  0
   22.2687  -15.5189  -18.3512 N   0  0  0  0  0  0  0  0  0  0  0  0
   21.3145  -13.2639  -18.0905 C   0  0  0  0  0  0  0  0  0  0  0  0
   22.5387  -12.9131  -17.9067 O   0  0  0  0  0  0  0  0  0  0  0  0
   20.3139  -12.2827  -18.2978 N   0  0  0  0  0  0  0  0  0  0  0  0
   18.8939  -12.3493  -18.4773 C   0  0  0  0  0  0  0  0  0  0  0  0
   18.7365  -11.5748  -19.7734 C   0  0  0  0  0  0  0  0  0  0  0  0
   19.7142  -10.4442  -19.5288 C   0  0  0  0  0  0  0  0  0  0  0  0
   20.5936  -10.8645  -18.3700 C   0  0  1  0  0  0  0  0  0  0  0  0
   20.2507  -10.1689  -17.1029 C   0  0  0  0  0  0  0  0  0  0  0  0
   19.4214  -10.6784  -16.3145 O   0  0  0  0  0  0  0  0  0  0  0  0
   23.3748   -5.1686  -14.7440 N   0  0  0  0  0  0  0  0  0  0  0  0
   22.3015   -5.3426  -13.7964 C   0  0  0  0  0  0  0  0  0  0  0  0
   22.2538   -4.5203  -12.8699 O   0  0  0  0  0  0  0  0  0  0  0  0
   21.3117   -6.4417  -13.9224 C   0  0  0  0  0  0  0  0  0  0  0  0
   21.5919   -7.1864  -15.1880 C   0  0  0  0  0  0  0  0  0  0  0  0
   20.5589   -8.2505  -15.4816 C   0  0  2  0  0  0  0  0  0  0  0  0
   20.8298   -8.9282  -16.7338 N   0  0  0  0  0  0  0  0  0  0  0  0
   19.1767   -7.7626  -15.4394 C   0  0  0  0  0  0  0  0  0  0  0  0
   18.4985   -7.7348  -14.2392 O   0  0  0  0  0  0  0  0  0  0  0  0
   18.5875   -7.3668  -16.4694 O   0  0  0  0  0  0  0  0  0  0  0  0
  2  1  1  0
  3  2  1  0
  4  3  1  0
  4  5  1  0
  5  7  1  0
  5  6  1  1
  7  8  2  0
  9 13  1  0
  9  7  1  0
 10  9  1  0
 11 10  1  0
 11 12  1  0
 12 13  1  0
 14 15  2  0
 13 14  1  1
 16 17  1  0
 17 18  2  0
 19 17  1  0
 19 20  1  0
 21 20  1  6
 21 22  1  0
 21 23  1  0
 22 14  1  0
 23 25  2  0
 23 24  1  0
M  END
$$$$
