MPQ.pdb
     RDKit          3D

 25 25  0  0  1  0  0  0  0  0999 V2000
   23.8074  -21.8799   -8.5044 C   0  0  0  0  0  0  0  0  0  0  0  0
   25.0280  -20.5684   -8.5926 S   0  0  0  0  0  0  0  0  0  0  0  0
   24.7819  -19.4806  -10.0159 C   0  0  0  0  0  0  0  0  0  0  0  0
   24.3836  -20.2662  -11.2475 C   0  0  0  0  0  0  0  0  0  0  0  0
   24.0062  -19.3269  -12.3850 C   0  0  2  0  0  0  0  0  0  0  0  0
   22.6019  -19.1839  -12.4119 N   0  0  0  0  0  0  0  0  0  0  0  0
   24.6815  -19.6734  -13.6361 C   0  0  0  0  0  0  0  0  0  0  0  0
   23.9251  -19.4933  -14.6613 O   0  0  0  0  0  0  0  0  0  0  0  0
   26.0034  -20.1558  -13.7999 N   0  0  0  0  0  0  0  0  0  0  0  0
   27.0199  -20.5700  -12.8790 C   0  0  0  0  0  0  0  0  0  0  0  0
   28.1794  -19.6990  -13.3276 C   0  0  0  0  0  0  0  0  0  0  0  0
   28.0190  -19.7949  -14.8307 C   0  0  0  0  0  0  0  0  0  0  0  0
   26.6295  -20.3369  -15.0922 C   0  0  1  0  0  0  0  0  0  0  0  0
   26.6348  -21.7631  -15.5081 C   0  0  0  0  0  0  0  0  0  0  0  0
   26.8531  -22.6603  -14.6619 O   0  0  0  0  0  0  0  0  0  0  0  0
   21.2931  -22.3398  -16.7806 N   0  0  0  0  0  0  0  0  0  0  0  0
   21.9947  -22.7882  -15.6031 C   0  0  0  0  0  0  0  0  0  0  0  0
   21.2980  -23.3041  -14.7169 O   0  0  0  0  0  0  0  0  0  0  0  0
   23.4649  -22.6410  -15.4597 C   0  0  0  0  0  0  0  0  0  0  0  0
   23.9774  -21.8627  -16.6288 C   0  0  0  0  0  0  0  0  0  0  0  0
   25.1014  -22.5676  -17.3535 C   0  0  2  0  0  0  0  0  0  0  0  0
   26.3989  -22.1674  -16.8467 N   0  0  0  0  0  0  0  0  0  0  0  0
   25.0446  -22.4298  -18.8123 C   0  0  0  0  0  0  0  0  0  0  0  0
   25.0157  -23.5581  -19.6044 O   0  0  0  0  0  0  0  0  0  0  0  0
   25.0215  -21.3086  -19.3663 O   0  0  0  0  0  0  0  0  0  0  0  0
  2  1  1  0
  3  2  1  0
  4  3  1  0
  4  5  1  0
  5  7  1  0
  5  6  1  6
  7  8  2  0
  9 13  1  0
  9  7  1  0
 10  9  1  0
 11 10  1  0
 11 12  1  0
 12 13  1  0
 14 15  2  0
 13 14  1  1
 16 17  1  0
 17 18  2  0
 19 17  1  0
 19 20  1  0
 21 20  1  1
 21 22  1  0
 21 23  1  0
 22 14  1  0
 23 25  2  0
 23 24  1  0
M  END
$$$$
