HRA.pdb
     RDKit          3D

 27 27  0  0  1  0  0  0  0  0999 V2000
   21.1067  -18.6044  -16.9024 N   0  0  0  0  0  0  0  0  0  0  0  0
   21.6880  -18.1789  -15.6583 C   0  0  1  0  0  0  0  0  0  0  0  0
   20.6929  -17.5273  -14.7269 C   0  0  0  0  0  0  0  0  0  0  0  0
   20.2267  -16.2318  -15.2815 C   0  0  0  0  0  0  0  0  0  0  0  0
   18.9582  -15.8583  -15.6640 C   0  0  0  0  0  0  0  0  0  0  0  0
   18.9753  -14.5868  -16.1162 N   0  0  0  0  0  0  0  0  0  0  0  0
   20.2485  -14.1624  -16.0187 C   0  0  0  0  0  0  0  0  0  0  0  0
   21.0120  -15.1684  -15.5086 N   0  0  0  0  0  0  0  0  0  0  0  0
   22.3578  -19.3331  -15.0226 C   0  0  0  0  0  0  0  0  0  0  0  0
   21.6718  -20.2221  -14.4677 O   0  0  0  0  0  0  0  0  0  0  0  0
   30.0341  -23.2505  -17.0317 N   0  0  0  0  0  0  0  0  0  0  0  0
   28.6752  -23.5840  -17.2826 C   0  0  0  0  0  0  0  0  0  0  0  0
   28.3862  -24.3874  -18.2521 N   0  0  0  0  0  0  0  0  0  0  0  0
   27.6203  -23.0594  -16.4963 N   0  0  0  0  0  0  0  0  0  0  0  0
   27.8100  -22.1756  -15.3675 C   0  0  0  0  0  0  0  0  0  0  0  0
   26.5179  -21.9346  -14.6234 C   0  0  0  0  0  0  0  0  0  0  0  0
   25.7068  -20.8304  -15.2025 C   0  0  0  0  0  0  0  0  0  0  0  0
   24.4536  -20.5212  -14.4416 C   0  0  2  0  0  0  0  0  0  0  0  0
   23.7804  -19.3916  -15.0659 N   0  0  0  0  0  0  0  0  0  0  0  0
   24.8865  -20.1005  -13.0585 C   0  0  0  0  0  0  0  0  0  0  0  0
   25.5642  -19.0582  -12.8725 O   0  0  0  0  0  0  0  0  0  0  0  0
   27.4181  -24.6365  -18.5308 C   0  0  0  0  0  0  0  0  0  0  0  0
   24.1735  -21.2068   -9.5764 C   0  0  1  0  0  0  0  0  0  0  0  0
   25.0063  -20.4709  -10.5933 N   0  0  0  0  0  0  0  0  0  0  0  0
   24.5440  -20.8672  -11.9132 C   0  0  0  0  0  0  0  0  0  0  0  0
   26.4473  -20.8179  -10.4736 O   0  0  0  0  0  0  0  0  0  0  0  0
   27.0142  -21.5396  -11.3266 O   0  0  0  0  0  0  0  0  0  0  0  0
  2  1  1  6
  2  3  1  0
  4  3  1  0
  5  4  2  0
  6  7  1  0
  6  5  1  0
  7  8  2  0
  8  4  1  0
  9 19  1  0
  9  2  1  0
 10  9  2  0
 11 12  1  0
 12 14  1  0
 13 12  2  0
 14 15  1  0
 16 15  1  0
 18 17  1  6
 17 16  1  0
 18 19  1  0
 20 18  1  0
 21 20  2  0
 23 22  1  1
 23 25  1  0
 23 24  1  0
 24 20  1  0
 25 27  1  0
 26 25  2  0
M  END
$$$$
