HRA.pdb
     RDKit          3D

 27 27  0  0  1  0  0  0  0  0999 V2000
   15.9455  -12.7959    4.3404 N   0  0  0  0  0  0  0  0  0  0  0  0
   17.2286  -12.9337    4.9741 C   0  0  1  0  0  0  0  0  0  0  0  0
   17.6550  -11.6985    5.7324 C   0  0  0  0  0  0  0  0  0  0  0  0
   19.0533  -11.8346    6.2114 C   0  0  0  0  0  0  0  0  0  0  0  0
   19.5190  -11.9769    7.4989 C   0  0  0  0  0  0  0  0  0  0  0  0
   20.8657  -12.0664    7.4883 N   0  0  0  0  0  0  0  0  0  0  0  0
   21.2453  -11.9808    6.2002 C   0  0  0  0  0  0  0  0  0  0  0  0
   20.1370  -11.8392    5.4211 N   0  0  0  0  0  0  0  0  0  0  0  0
   17.2081  -14.1292    5.8430 C   0  0  0  0  0  0  0  0  0  0  0  0
   16.1169  -14.6777    6.1207 O   0  0  0  0  0  0  0  0  0  0  0  0
   17.4376  -21.9323    3.9825 N   0  0  0  0  0  0  0  0  0  0  0  0
   17.5959  -21.9367    5.3951 C   0  0  0  0  0  0  0  0  0  0  0  0
   17.4767  -23.0468    6.0449 N   0  0  0  0  0  0  0  0  0  0  0  0
   17.8830  -20.7528    6.1179 N   0  0  0  0  0  0  0  0  0  0  0  0
   17.9485  -19.4350    5.5259 C   0  0  0  0  0  0  0  0  0  0  0  0
   18.2022  -18.3681    6.5645 C   0  0  0  0  0  0  0  0  0  0  0  0
   18.2095  -16.9922    5.9997 C   0  0  0  0  0  0  0  0  0  0  0  0
   18.4746  -15.9139    7.0059 C   0  0  2  0  0  0  0  0  0  0  0  0
   18.4498  -14.6201    6.3395 N   0  0  0  0  0  0  0  0  0  0  0  0
   19.8733  -16.1463    7.5226 C   0  0  0  0  0  0  0  0  0  0  0  0
   20.8711  -16.0924    6.7598 O   0  0  0  0  0  0  0  0  0  0  0  0
   17.6142  -23.1376    7.0696 C   0  0  0  0  0  0  0  0  0  0  0  0
   21.4184  -16.7514   10.8705 C   0  0  1  0  0  0  0  0  0  0  0  0
   21.4662  -16.6867    9.3663 N   0  0  0  0  0  0  0  0  0  0  0  0
   20.1155  -16.4349    8.8918 C   0  0  0  0  0  0  0  0  0  0  0  0
   21.9421  -17.9672    8.7791 O   0  0  0  0  0  0  0  0  0  0  0  0
   21.1353  -18.8544    8.4161 O   0  0  0  0  0  0  0  0  0  0  0  0
  2  1  1  1
  2  3  1  0
  4  3  1  0
  5  4  2  0
  6  7  1  0
  6  5  1  0
  7  8  2  0
  8  4  1  0
  9 19  1  0
  9  2  1  0
 10  9  2  0
 11 12  1  0
 12 14  1  0
 13 12  2  0
 14 15  1  0
 16 15  1  0
 18 17  1  6
 17 16  1  0
 18 19  1  0
 20 18  1  0
 21 20  2  0
 23 22  1  1
 23 25  1  0
 23 24  1  0
 24 20  1  0
 25 27  1  0
 26 25  2  0
M  END
$$$$
