HRA.pdb
     RDKit          3D

 27 27  0  0  1  0  0  0  0  0999 V2000
   28.0307  -20.9299  -16.9007 N   0  0  0  0  0  0  0  0  0  0  0  0
   27.4653  -19.9847  -15.9766 C   0  0  1  0  0  0  0  0  0  0  0  0
   26.7751  -18.8255  -16.6566 C   0  0  0  0  0  0  0  0  0  0  0  0
   27.7578  -17.9858  -17.3864 C   0  0  0  0  0  0  0  0  0  0  0  0
   29.1225  -18.1359  -17.4854 C   0  0  0  0  0  0  0  0  0  0  0  0
   29.6348  -17.1469  -18.2477 N   0  0  0  0  0  0  0  0  0  0  0  0
   28.5972  -16.3784  -18.6265 C   0  0  0  0  0  0  0  0  0  0  0  0
   27.4511  -16.8920  -18.0995 N   0  0  0  0  0  0  0  0  0  0  0  0
   26.5558  -20.6994  -15.0564 C   0  0  0  0  0  0  0  0  0  0  0  0
   25.9893  -21.7508  -15.4338 O   0  0  0  0  0  0  0  0  0  0  0  0
   21.9939  -20.5885   -8.9472 N   0  0  0  0  0  0  0  0  0  0  0  0
   22.8227  -21.2770   -8.0200 C   0  0  0  0  0  0  0  0  0  0  0  0
   22.2804  -22.0052   -7.1011 N   0  0  0  0  0  0  0  0  0  0  0  0
   24.2355  -21.1894   -8.0732 N   0  0  0  0  0  0  0  0  0  0  0  0
   24.9654  -20.4178   -9.0546 C   0  0  0  0  0  0  0  0  0  0  0  0
   24.7022  -20.9081  -10.4588 C   0  0  0  0  0  0  0  0  0  0  0  0
   25.6039  -20.2956  -11.4707 C   0  0  0  0  0  0  0  0  0  0  0  0
   25.4036  -20.8066  -12.8650 C   0  0  2  0  0  0  0  0  0  0  0  0
   26.3548  -20.1568  -13.7548 N   0  0  0  0  0  0  0  0  0  0  0  0
   24.0146  -20.3860  -13.2787 C   0  0  0  0  0  0  0  0  0  0  0  0
   23.6872  -19.1736  -13.3373 O   0  0  0  0  0  0  0  0  0  0  0  0
   22.8171  -22.5419   -6.3933 C   0  0  0  0  0  0  0  0  0  0  0  0
   21.3856  -21.7347  -15.3144 C   0  0  1  0  0  0  0  0  0  0  0  0
   21.7161  -20.9210  -14.0906 N   0  0  0  0  0  0  0  0  0  0  0  0
   23.0237  -21.3450  -13.6180 C   0  0  0  0  0  0  0  0  0  0  0  0
   20.7262  -21.1427  -13.0033 O   0  0  0  0  0  0  0  0  0  0  0  0
   21.0148  -21.8230  -11.9915 O   0  0  0  0  0  0  0  0  0  0  0  0
  2  1  1  6
  2  3  1  0
  4  3  1  0
  5  4  2  0
  6  7  1  0
  6  5  1  0
  7  8  2  0
  8  4  1  0
  9 19  1  0
  9  2  1  0
 10  9  2  0
 11 12  1  0
 12 14  1  0
 13 12  2  0
 14 15  1  0
 16 15  1  0
 18 17  1  1
 17 16  1  0
 18 19  1  0
 20 18  1  0
 21 20  2  0
 23 22  1  6
 23 25  1  0
 23 24  1  0
 24 20  1  0
 25 27  1  0
 26 25  2  0
M  END
$$$$
