HRA.pdb
     RDKit          3D

 27 27  0  0  1  0  0  0  0  0999 V2000
   30.0071  -25.8528  -15.9339 N   0  0  0  0  0  0  0  0  0  0  0  0
   30.3775  -24.4809  -16.1518 C   0  0  1  0  0  0  0  0  0  0  0  0
   31.3132  -24.2946  -17.3232 C   0  0  0  0  0  0  0  0  0  0  0  0
   32.6794  -24.7644  -16.9824 C   0  0  0  0  0  0  0  0  0  0  0  0
   33.1826  -25.1560  -15.7625 C   0  0  0  0  0  0  0  0  0  0  0  0
   34.4783  -25.5092  -15.8970 N   0  0  0  0  0  0  0  0  0  0  0  0
   34.7886  -25.3406  -17.1955 C   0  0  0  0  0  0  0  0  0  0  0  0
   33.6886  -24.8856  -17.8574 N   0  0  0  0  0  0  0  0  0  0  0  0
   29.1501  -23.6704  -16.2977 C   0  0  0  0  0  0  0  0  0  0  0  0
   28.1802  -24.1222  -16.9488 O   0  0  0  0  0  0  0  0  0  0  0  0
   24.2281  -20.6508  -11.5058 N   0  0  0  0  0  0  0  0  0  0  0  0
   25.5238  -20.6301  -10.9215 C   0  0  0  0  0  0  0  0  0  0  0  0
   25.7016  -21.1459   -9.7505 N   0  0  0  0  0  0  0  0  0  0  0  0
   26.6345  -20.0577  -11.5885 N   0  0  0  0  0  0  0  0  0  0  0  0
   26.5699  -19.4472  -12.8979 C   0  0  0  0  0  0  0  0  0  0  0  0
   26.5784  -20.4823  -13.9978 C   0  0  0  0  0  0  0  0  0  0  0  0
   27.8777  -20.5599  -14.7177 C   0  0  0  0  0  0  0  0  0  0  0  0
   27.9136  -21.5771  -15.8174 C   0  0  2  0  0  0  0  0  0  0  0  0
   29.1163  -22.3860  -15.6827 N   0  0  0  0  0  0  0  0  0  0  0  0
   28.0124  -20.8051  -17.1103 C   0  0  0  0  0  0  0  0  0  0  0  0
   29.0066  -20.0795  -17.3660 O   0  0  0  0  0  0  0  0  0  0  0  0
   26.6261  -21.2270   -9.2860 C   0  0  0  0  0  0  0  0  0  0  0  0
   26.0833  -20.6885  -20.2945 C   0  0  1  0  0  0  0  0  0  0  0  0
   27.1054  -20.1348  -19.3366 N   0  0  0  0  0  0  0  0  0  0  0  0
   26.9846  -20.8694  -18.0882 C   0  0  0  0  0  0  0  0  0  0  0  0
   26.8707  -18.6926  -19.0607 O   0  0  0  0  0  0  0  0  0  0  0  0
   26.1902  -18.3225  -18.0759 O   0  0  0  0  0  0  0  0  0  0  0  0
  2  1  1  6
  2  3  1  0
  4  3  1  0
  5  4  2  0
  6  7  1  0
  6  5  1  0
  7  8  2  0
  8  4  1  0
  9 19  1  0
  9  2  1  0
 10  9  2  0
 11 12  1  0
 12 14  1  0
 13 12  2  0
 14 15  1  0
 16 15  1  0
 18 17  1  1
 17 16  1  0
 18 19  1  0
 20 18  1  0
 21 20  2  0
 23 22  1  6
 23 25  1  0
 23 24  1  0
 24 20  1  0
 25 27  1  0
 26 25  2  0
M  END
$$$$
