HRA.pdb
     RDKit          3D

 27 27  0  0  1  0  0  0  0  0999 V2000
   18.1720  -11.2701  -15.2188 N   0  0  0  0  0  0  0  0  0  0  0  0
   18.9717  -10.6768  -14.1819 C   0  0  1  0  0  0  0  0  0  0  0  0
   20.4537  -10.9042  -14.3678 C   0  0  0  0  0  0  0  0  0  0  0  0
   20.8721  -10.5333  -15.7428 C   0  0  0  0  0  0  0  0  0  0  0  0
   20.4724  -11.0702  -16.9456 C   0  0  0  0  0  0  0  0  0  0  0  0
   21.1016  -10.4372  -17.9580 N   0  0  0  0  0  0  0  0  0  0  0  0
   21.8935   -9.5064  -17.3948 C   0  0  0  0  0  0  0  0  0  0  0  0
   21.7523   -9.5662  -16.0413 N   0  0  0  0  0  0  0  0  0  0  0  0
   18.6464   -9.2379  -14.0898 C   0  0  0  0  0  0  0  0  0  0  0  0
   18.1282   -8.6534  -15.0689 O   0  0  0  0  0  0  0  0  0  0  0  0
   14.7090   -6.5754   -7.2470 N   0  0  0  0  0  0  0  0  0  0  0  0
   14.2859   -7.4875   -8.2518 C   0  0  0  0  0  0  0  0  0  0  0  0
   13.1961   -8.1601   -8.0820 N   0  0  0  0  0  0  0  0  0  0  0  0
   15.0274   -7.6830   -9.4427 N   0  0  0  0  0  0  0  0  0  0  0  0
   16.2664   -7.0030   -9.7494 C   0  0  0  0  0  0  0  0  0  0  0  0
   16.7775   -7.3661  -11.1235 C   0  0  0  0  0  0  0  0  0  0  0  0
   18.1357   -6.8282  -11.4033 C   0  0  0  0  0  0  0  0  0  0  0  0
   18.6502   -7.1363  -12.7765 C   0  0  2  0  0  0  0  0  0  0  0  0
   18.9391   -8.5598  -12.8717 N   0  0  0  0  0  0  0  0  0  0  0  0
   19.9506   -6.3850  -12.9240 C   0  0  0  0  0  0  0  0  0  0  0  0
   21.0451   -6.8942  -12.5729 O   0  0  0  0  0  0  0  0  0  0  0  0
   12.7837   -8.7879   -8.7982 C   0  0  0  0  0  0  0  0  0  0  0  0
   22.0437   -5.3877  -14.6422 C   0  0  2  0  0  0  0  0  0  0  0  0
   21.2565   -4.4374  -13.7783 N   0  0  0  0  0  0  0  0  0  0  0  0
   19.9871   -5.0727  -13.4657 C   0  0  0  0  0  0  0  0  0  0  0  0
   20.9830   -3.1570  -14.4833 O   0  0  0  0  0  0  0  0  0  0  0  0
   19.8539   -2.9111  -14.9677 O   0  0  0  0  0  0  0  0  0  0  0  0
  2  1  1  6
  2  3  1  0
  4  3  1  0
  5  4  2  0
  6  7  1  0
  6  5  1  0
  7  8  2  0
  8  4  1  0
  9 19  1  0
  9  2  1  0
 10  9  2  0
 11 12  1  0
 12 14  1  0
 13 12  2  0
 14 15  1  0
 16 15  1  0
 18 17  1  1
 17 16  1  0
 18 19  1  0
 20 18  1  0
 21 20  2  0
 23 22  1  1
 23 25  1  0
 23 24  1  0
 24 20  1  0
 25 27  1  0
 26 25  2  0
M  END
$$$$
