HRA.pdb
     RDKit          3D

 27 27  0  0  1  0  0  0  0  0999 V2000
   24.0888  -24.1523  -20.0858 N   0  0  0  0  0  0  0  0  0  0  0  0
   23.9603  -24.6429  -18.7405 C   0  0  1  0  0  0  0  0  0  0  0  0
   22.6597  -24.2457  -18.0825 C   0  0  0  0  0  0  0  0  0  0  0  0
   22.5325  -22.7680  -18.0231 C   0  0  0  0  0  0  0  0  0  0  0  0
   21.6986  -21.9398  -18.7396 C   0  0  0  0  0  0  0  0  0  0  0  0
   21.9080  -20.6573  -18.3749 N   0  0  0  0  0  0  0  0  0  0  0  0
   22.8692  -20.6786  -17.4334 C   0  0  0  0  0  0  0  0  0  0  0  0
   23.2498  -21.9688  -17.2194 N   0  0  0  0  0  0  0  0  0  0  0  0
   24.1454  -26.1094  -18.7455 C   0  0  0  0  0  0  0  0  0  0  0  0
   23.7281  -26.7858  -19.7135 O   0  0  0  0  0  0  0  0  0  0  0  0
   31.0521  -31.1497  -16.5202 N   0  0  0  0  0  0  0  0  0  0  0  0
   29.9534  -31.9984  -16.8253 C   0  0  0  0  0  0  0  0  0  0  0  0
   30.1353  -33.2757  -16.8903 N   0  0  0  0  0  0  0  0  0  0  0  0
   28.6552  -31.4832  -17.0616 N   0  0  0  0  0  0  0  0  0  0  0  0
   28.3261  -30.0750  -17.0548 C   0  0  0  0  0  0  0  0  0  0  0  0
   26.8576  -29.8434  -17.3214 C   0  0  0  0  0  0  0  0  0  0  0  0
   26.4933  -28.4023  -17.3755 C   0  0  0  0  0  0  0  0  0  0  0  0
   25.0431  -28.1426  -17.6493 C   0  0  2  0  0  0  0  0  0  0  0  0
   24.8017  -26.7073  -17.6315 N   0  0  0  0  0  0  0  0  0  0  0  0
   24.2754  -28.7596  -16.5060 C   0  0  0  0  0  0  0  0  0  0  0  0
   24.3485  -28.2939  -15.3406 O   0  0  0  0  0  0  0  0  0  0  0  0
   29.3707  -33.9652  -17.0208 C   0  0  0  0  0  0  0  0  0  0  0  0
   21.2515  -30.6320  -16.0923 C   0  0  1  0  0  0  0  0  0  0  0  0
   22.6629  -30.4370  -15.6034 N   0  0  0  0  0  0  0  0  0  0  0  0
   23.4402  -29.8910  -16.7036 C   0  0  0  0  0  0  0  0  0  0  0  0
   23.2783  -31.7237  -15.1831 O   0  0  0  0  0  0  0  0  0  0  0  0
   24.0629  -32.3449  -15.9370 O   0  0  0  0  0  0  0  0  0  0  0  0
  2  1  1  6
  2  3  1  0
  4  3  1  0
  5  4  2  0
  6  7  1  0
  6  5  1  0
  7  8  2  0
  8  4  1  0
  9 19  1  0
  9  2  1  0
 10  9  2  0
 11 12  1  0
 12 14  1  0
 13 12  2  0
 14 15  1  0
 16 15  1  0
 18 17  1  1
 17 16  1  0
 18 19  1  0
 20 18  1  0
 21 20  2  0
 23 22  1  1
 23 25  1  0
 23 24  1  0
 24 20  1  0
 25 27  1  0
 26 25  2  0
M  END
$$$$
