HRA.pdb
     RDKit          3D

 27 27  0  0  1  0  0  0  0  0999 V2000
   24.3915  -12.2037  -17.8066 N   0  0  0  0  0  0  0  0  0  0  0  0
   24.5056  -11.3109  -16.6855 C   0  0  1  0  0  0  0  0  0  0  0  0
   25.9212  -10.8466  -16.4344 C   0  0  0  0  0  0  0  0  0  0  0  0
   26.8038  -11.9996  -16.1263 C   0  0  0  0  0  0  0  0  0  0  0  0
   26.4947  -13.3401  -16.0793 C   0  0  0  0  0  0  0  0  0  0  0  0
   27.5968  -14.0501  -15.7584 N   0  0  0  0  0  0  0  0  0  0  0  0
   28.5945  -13.1603  -15.6043 C   0  0  0  0  0  0  0  0  0  0  0  0
   28.1085  -11.9079  -15.8293 N   0  0  0  0  0  0  0  0  0  0  0  0
   23.5836  -10.1727  -16.8835 C   0  0  0  0  0  0  0  0  0  0  0  0
   23.4817   -9.6441  -18.0144 O   0  0  0  0  0  0  0  0  0  0  0  0
   15.3233   -8.7675  -14.0306 N   0  0  0  0  0  0  0  0  0  0  0  0
   15.7212   -7.7412  -14.9300 C   0  0  0  0  0  0  0  0  0  0  0  0
   14.8322   -6.9357  -15.4093 N   0  0  0  0  0  0  0  0  0  0  0  0
   17.0726   -7.5725  -15.3196 N   0  0  0  0  0  0  0  0  0  0  0  0
   18.1113   -8.5536  -15.0960 C   0  0  0  0  0  0  0  0  0  0  0  0
   19.4529   -8.0698  -15.5934 C   0  0  0  0  0  0  0  0  0  0  0  0
   20.5350   -9.0771  -15.4298 C   0  0  0  0  0  0  0  0  0  0  0  0
   21.8676   -8.6421  -15.9593 C   0  0  2  0  0  0  0  0  0  0  0  0
   22.8339   -9.7128  -15.7629 N   0  0  0  0  0  0  0  0  0  0  0  0
   22.2977   -7.4649  -15.1187 C   0  0  0  0  0  0  0  0  0  0  0  0
   22.6186   -7.6042  -13.9112 O   0  0  0  0  0  0  0  0  0  0  0  0
   15.0476   -6.1467  -16.0482 C   0  0  0  0  0  0  0  0  0  0  0  0
   22.9456   -3.8378  -15.7166 C   0  0  1  0  0  0  0  0  0  0  0  0
   22.6947   -5.0195  -14.8168 N   0  0  0  0  0  0  0  0  0  0  0  0
   22.3563   -6.1536  -15.6607 C   0  0  0  0  0  0  0  0  0  0  0  0
   21.5616   -4.7677  -13.8873 O   0  0  0  0  0  0  0  0  0  0  0  0
   20.4097   -5.1922  -14.1380 O   0  0  0  0  0  0  0  0  0  0  0  0
  2  1  1  6
  2  3  1  0
  4  3  1  0
  5  4  2  0
  6  7  1  0
  6  5  1  0
  7  8  2  0
  8  4  1  0
  9 19  1  0
  9  2  1  0
 10  9  2  0
 11 12  1  0
 12 14  1  0
 13 12  2  0
 14 15  1  0
 16 15  1  0
 18 17  1  1
 17 16  1  0
 18 19  1  0
 20 18  1  0
 21 20  2  0
 23 22  1  6
 23 25  1  0
 23 24  1  0
 24 20  1  0
 25 27  1  0
 26 25  2  0
M  END
$$$$
