HRA.pdb
     RDKit          3D

 27 27  0  0  1  0  0  0  0  0999 V2000
   29.1912  -20.5549  -19.2581 N   0  0  0  0  0  0  0  0  0  0  0  0
   28.5254  -19.5693  -18.4506 C   0  0  1  0  0  0  0  0  0  0  0  0
   27.9544  -18.4254  -19.2556 C   0  0  0  0  0  0  0  0  0  0  0  0
   29.0419  -17.6183  -19.8632 C   0  0  0  0  0  0  0  0  0  0  0  0
   29.5202  -16.3839  -19.4860 C   0  0  0  0  0  0  0  0  0  0  0  0
   30.5183  -16.0103  -20.3143 N   0  0  0  0  0  0  0  0  0  0  0  0
   30.6671  -17.0050  -21.2081 C   0  0  0  0  0  0  0  0  0  0  0  0
   29.7645  -17.9868  -20.9314 N   0  0  0  0  0  0  0  0  0  0  0  0
   27.4876  -20.2375  -17.6374 C   0  0  0  0  0  0  0  0  0  0  0  0
   26.6886  -21.0343  -18.1811 O   0  0  0  0  0  0  0  0  0  0  0  0
   25.3275  -19.9742   -8.8411 N   0  0  0  0  0  0  0  0  0  0  0  0
   24.6616  -20.9457   -9.6369 C   0  0  0  0  0  0  0  0  0  0  0  0
   23.4274  -21.2344   -9.3874 N   0  0  0  0  0  0  0  0  0  0  0  0
   25.3139  -21.6116  -10.7033 N   0  0  0  0  0  0  0  0  0  0  0  0
   26.2668  -20.9839  -11.5917 C   0  0  0  0  0  0  0  0  0  0  0  0
   25.8405  -21.0947  -13.0365 C   0  0  0  0  0  0  0  0  0  0  0  0
   26.8345  -20.5246  -13.9848 C   0  0  0  0  0  0  0  0  0  0  0  0
   26.4349  -20.6164  -15.4261 C   0  0  2  0  0  0  0  0  0  0  0  0
   27.4346  -19.9454  -16.2441 N   0  0  0  0  0  0  0  0  0  0  0  0
   25.1372  -19.8576  -15.5587 C   0  0  0  0  0  0  0  0  0  0  0  0
   25.0632  -18.6328  -15.2852 O   0  0  0  0  0  0  0  0  0  0  0  0
   22.8799  -21.9442   -9.9105 C   0  0  0  0  0  0  0  0  0  0  0  0
   21.8433  -20.4618  -17.1286 C   0  0  1  0  0  0  0  0  0  0  0  0
   22.7073  -19.7534  -16.1182 N   0  0  0  0  0  0  0  0  0  0  0  0
   23.9490  -20.4993  -15.9983 C   0  0  0  0  0  0  0  0  0  0  0  0
   22.0559  -19.7023  -14.7825 O   0  0  0  0  0  0  0  0  0  0  0  0
   21.2048  -18.8245  -14.5084 O   0  0  0  0  0  0  0  0  0  0  0  0
  2  1  1  6
  2  3  1  0
  4  3  1  0
  5  4  2  0
  6  7  1  0
  6  5  1  0
  7  8  2  0
  8  4  1  0
  9 19  1  0
  9  2  1  0
 10  9  2  0
 11 12  1  0
 12 14  1  0
 13 12  2  0
 14 15  1  0
 16 15  1  0
 18 17  1  1
 17 16  1  0
 18 19  1  0
 20 18  1  0
 21 20  2  0
 23 22  1  6
 23 25  1  0
 23 24  1  0
 24 20  1  0
 25 27  1  0
 26 25  2  0
M  END
$$$$
