HRA.pdb
     RDKit          3D

 27 27  0  0  1  0  0  0  0  0999 V2000
   16.3890  -10.0039  -10.4781 N   0  0  0  0  0  0  0  0  0  0  0  0
   15.9453   -8.6662  -10.7616 C   0  0  1  0  0  0  0  0  0  0  0  0
   14.9455   -8.1438   -9.7567 C   0  0  0  0  0  0  0  0  0  0  0  0
   13.7371   -9.0053   -9.7235 C   0  0  0  0  0  0  0  0  0  0  0  0
   13.3388   -9.9037   -8.7597 C   0  0  0  0  0  0  0  0  0  0  0  0
   12.1739  -10.4781   -9.1269 N   0  0  0  0  0  0  0  0  0  0  0  0
   11.8411   -9.9435  -10.3160 C   0  0  0  0  0  0  0  0  0  0  0  0
   12.7970   -9.0438  -10.6794 N   0  0  0  0  0  0  0  0  0  0  0  0
   17.1253   -7.7825  -10.8694 C   0  0  0  0  0  0  0  0  0  0  0  0
   18.0632   -7.8941  -10.0468 O   0  0  0  0  0  0  0  0  0  0  0  0
   22.5323   -8.8137  -13.0911 N   0  0  0  0  0  0  0  0  0  0  0  0
   21.8011   -9.0682  -14.2832 C   0  0  0  0  0  0  0  0  0  0  0  0
   21.6638  -10.2841  -14.6976 N   0  0  0  0  0  0  0  0  0  0  0  0
   21.2132   -8.0224  -15.0362 N   0  0  0  0  0  0  0  0  0  0  0  0
   20.6826   -6.8061  -14.4613 C   0  0  0  0  0  0  0  0  0  0  0  0
   19.2243   -6.9511  -14.0956 C   0  0  0  0  0  0  0  0  0  0  0  0
   18.6589   -5.7348  -13.4527 C   0  0  0  0  0  0  0  0  0  0  0  0
   18.2863   -5.9152  -12.0126 C   0  0  2  0  0  0  0  0  0  0  0  0
   17.1515   -6.8223  -11.9213 N   0  0  0  0  0  0  0  0  0  0  0  0
   17.8435   -4.5618  -11.5131 C   0  0  0  0  0  0  0  0  0  0  0  0
   18.6287   -3.5800  -11.4972 O   0  0  0  0  0  0  0  0  0  0  0  0
   21.0510  -10.5626  -15.4876 C   0  0  0  0  0  0  0  0  0  0  0  0
   14.6519   -2.8859  -10.7469 C   0  0  2  0  0  0  0  0  0  0  0  0
   16.1297   -3.0520  -10.5071 N   0  0  0  0  0  0  0  0  0  0  0  0
   16.5214   -4.3456  -11.0417 C   0  0  0  0  0  0  0  0  0  0  0  0
   16.4546   -3.0223   -9.0563 O   0  0  0  0  0  0  0  0  0  0  0  0
   16.9584   -4.0163   -8.4835 O   0  0  0  0  0  0  0  0  0  0  0  0
  2  1  1  1
  2  3  1  0
  4  3  1  0
  5  4  2  0
  6  7  1  0
  6  5  1  0
  7  8  2  0
  8  4  1  0
  9 19  1  0
  9  2  1  0
 10  9  2  0
 11 12  1  0
 12 14  1  0
 13 12  2  0
 14 15  1  0
 16 15  1  0
 18 17  1  6
 17 16  1  0
 18 19  1  0
 20 18  1  0
 21 20  2  0
 23 22  1  6
 23 25  1  0
 23 24  1  0
 24 20  1  0
 25 27  1  0
 26 25  2  0
M  END
$$$$
