HRA.pdb
     RDKit          3D

 27 27  0  0  1  0  0  0  0  0999 V2000
   24.4208  -22.5949  -18.6800 N   0  0  0  0  0  0  0  0  0  0  0  0
   24.1889  -21.3870  -17.9356 C   0  0  1  0  0  0  0  0  0  0  0  0
   23.3113  -20.3964  -18.6645 C   0  0  0  0  0  0  0  0  0  0  0  0
   24.0159  -19.8446  -19.8487 C   0  0  0  0  0  0  0  0  0  0  0  0
   24.7378  -18.6781  -19.9627 C   0  0  0  0  0  0  0  0  0  0  0  0
   25.2116  -18.5574  -21.2207 N   0  0  0  0  0  0  0  0  0  0  0  0
   24.7899  -19.6429  -21.8948 C   0  0  0  0  0  0  0  0  0  0  0  0
   24.0595  -20.4285  -21.0554 N   0  0  0  0  0  0  0  0  0  0  0  0
   23.6338  -21.7389  -16.6117 C   0  0  0  0  0  0  0  0  0  0  0  0
   22.8661  -22.7223  -16.5005 O   0  0  0  0  0  0  0  0  0  0  0  0
   26.7427  -21.1061   -8.6530 N   0  0  0  0  0  0  0  0  0  0  0  0
   27.0624  -21.0230  -10.0356 C   0  0  0  0  0  0  0  0  0  0  0  0
   28.2151  -21.4357  -10.4477 N   0  0  0  0  0  0  0  0  0  0  0  0
   26.1491  -20.4985  -10.9828 N   0  0  0  0  0  0  0  0  0  0  0  0
   24.7596  -20.2140  -10.7007 C   0  0  0  0  0  0  0  0  0  0  0  0
   23.8441  -20.8147  -11.7411 C   0  0  0  0  0  0  0  0  0  0  0  0
   24.3598  -20.6681  -13.1285 C   0  0  0  0  0  0  0  0  0  0  0  0
   23.4914  -21.2919  -14.1783 C   0  0  2  0  0  0  0  0  0  0  0  0
   23.9988  -20.9337  -15.4948 N   0  0  0  0  0  0  0  0  0  0  0  0
   22.1227  -20.6758  -14.0219 C   0  0  0  0  0  0  0  0  0  0  0  0
   21.9445  -19.4368  -14.1385 O   0  0  0  0  0  0  0  0  0  0  0  0
   28.5300  -21.3875  -11.4354 C   0  0  0  0  0  0  0  0  0  0  0  0
   18.6429  -21.9609  -13.7213 C   0  0  1  0  0  0  0  0  0  0  0  0
   19.6695  -20.8649  -13.6038 N   0  0  0  0  0  0  0  0  0  0  0  0
   20.9828  -21.4735  -13.7369 C   0  0  0  0  0  0  0  0  0  0  0  0
   19.5951  -20.1859  -12.2830 O   0  0  0  0  0  0  0  0  0  0  0  0
   20.3201  -20.5455  -11.3265 O   0  0  0  0  0  0  0  0  0  0  0  0
  2  1  1  6
  2  3  1  0
  4  3  1  0
  5  4  2  0
  6  7  1  0
  6  5  1  0
  7  8  2  0
  8  4  1  0
  9 19  1  0
  9  2  1  0
 10  9  2  0
 11 12  1  0
 12 14  1  0
 13 12  2  0
 14 15  1  0
 16 15  1  0
 18 17  1  1
 17 16  1  0
 18 19  1  0
 20 18  1  0
 21 20  2  0
 23 22  1  6
 23 25  1  0
 23 24  1  0
 24 20  1  0
 25 27  1  0
 26 25  2  0
M  END
$$$$
