HRA.pdb
     RDKit          3D

 27 27  0  0  1  0  0  0  0  0999 V2000
   27.6560  -22.0790  -19.4822 N   0  0  0  0  0  0  0  0  0  0  0  0
   27.7100  -20.8001  -18.8275 C   0  0  1  0  0  0  0  0  0  0  0  0
   27.4603  -19.6402  -19.7629 C   0  0  0  0  0  0  0  0  0  0  0  0
   28.5158  -19.5703  -20.8041 C   0  0  0  0  0  0  0  0  0  0  0  0
   28.3874  -19.6175  -22.1738 C   0  0  0  0  0  0  0  0  0  0  0  0
   29.6048  -19.5215  -22.7485 N   0  0  0  0  0  0  0  0  0  0  0  0
   30.4949  -19.4143  -21.7450 C   0  0  0  0  0  0  0  0  0  0  0  0
   29.8282  -19.4442  -20.5576 N   0  0  0  0  0  0  0  0  0  0  0  0
   26.7624  -20.8020  -17.6931 C   0  0  0  0  0  0  0  0  0  0  0  0
   25.7276  -21.5054  -17.7482 O   0  0  0  0  0  0  0  0  0  0  0  0
   24.8244  -19.7385   -9.5612 N   0  0  0  0  0  0  0  0  0  0  0  0
   25.5556  -20.9428   -9.7498 C   0  0  0  0  0  0  0  0  0  0  0  0
   25.3245  -21.9542   -8.9800 N   0  0  0  0  0  0  0  0  0  0  0  0
   26.5367  -21.0696  -10.7636 N   0  0  0  0  0  0  0  0  0  0  0  0
   26.9260  -20.0003  -11.6560 C   0  0  0  0  0  0  0  0  0  0  0  0
   26.1060  -20.0050  -12.9244 C   0  0  0  0  0  0  0  0  0  0  0  0
   26.9364  -19.9639  -14.1577 C   0  0  0  0  0  0  0  0  0  0  0  0
   26.1492  -19.9928  -15.4324 C   0  0  2  0  0  0  0  0  0  0  0  0
   27.0668  -19.9908  -16.5624 N   0  0  0  0  0  0  0  0  0  0  0  0
   25.3552  -18.7101  -15.4734 C   0  0  0  0  0  0  0  0  0  0  0  0
   25.8941  -17.6152  -15.7755 O   0  0  0  0  0  0  0  0  0  0  0  0
   25.8162  -22.8652   -9.0548 C   0  0  0  0  0  0  0  0  0  0  0  0
   24.0969  -16.4382  -15.9589 C   0  0  2  0  0  0  0  0  0  0  0  0
   23.1749  -17.4973  -15.4137 N   0  0  0  0  0  0  0  0  0  0  0  0
   23.9676  -18.6915  -15.1720 C   0  0  0  0  0  0  0  0  0  0  0  0
   22.0967  -17.8337  -16.3809 O   0  0  0  0  0  0  0  0  0  0  0  0
   22.2648  -18.7088  -17.2619 O   0  0  0  0  0  0  0  0  0  0  0  0
  2  1  1  6
  2  3  1  0
  4  3  1  0
  5  4  2  0
  6  7  1  0
  6  5  1  0
  7  8  2  0
  8  4  1  0
  9 19  1  0
  9  2  1  0
 10  9  2  0
 11 12  1  0
 12 14  1  0
 13 12  2  0
 14 15  1  0
 16 15  1  0
 18 17  1  1
 17 16  1  0
 18 19  1  0
 20 18  1  0
 21 20  2  0
 23 22  1  1
 23 25  1  0
 23 24  1  0
 24 20  1  0
 25 27  1  0
 26 25  2  0
M  END
$$$$
