HRA.pdb
     RDKit          3D

 27 27  0  0  1  0  0  0  0  0999 V2000
   24.2240  -25.6232  -22.9938 N   0  0  0  0  0  0  0  0  0  0  0  0
   25.1628  -26.7036  -22.8591 C   0  0  1  0  0  0  0  0  0  0  0  0
   26.5297  -26.3788  -23.4146 C   0  0  0  0  0  0  0  0  0  0  0  0
   26.4927  -26.3225  -24.8975 C   0  0  0  0  0  0  0  0  0  0  0  0
   26.4491  -25.2216  -25.7227 C   0  0  0  0  0  0  0  0  0  0  0  0
   26.4256  -25.6202  -27.0120 N   0  0  0  0  0  0  0  0  0  0  0  0
   26.4544  -26.9654  -26.9978 C   0  0  0  0  0  0  0  0  0  0  0  0
   26.4953  -27.3932  -25.7053 N   0  0  0  0  0  0  0  0  0  0  0  0
   25.2310  -27.1049  -21.4382 C   0  0  0  0  0  0  0  0  0  0  0  0
   25.1770  -26.2317  -20.5419 O   0  0  0  0  0  0  0  0  0  0  0  0
   22.4084  -32.0240  -15.3070 N   0  0  0  0  0  0  0  0  0  0  0  0
   23.0615  -30.7698  -15.1613 C   0  0  0  0  0  0  0  0  0  0  0  0
   23.3730  -30.3485  -13.9806 N   0  0  0  0  0  0  0  0  0  0  0  0
   23.3845  -29.9619  -16.2791 N   0  0  0  0  0  0  0  0  0  0  0  0
   23.1949  -30.3650  -17.6550 C   0  0  0  0  0  0  0  0  0  0  0  0
   24.4930  -30.7990  -18.2937 C   0  0  0  0  0  0  0  0  0  0  0  0
   24.6680  -30.2770  -19.6755 C   0  0  0  0  0  0  0  0  0  0  0  0
   25.2881  -28.9147  -19.7462 C   0  0  2  0  0  0  0  0  0  0  0  0
   25.3575  -28.4915  -21.1372 N   0  0  0  0  0  0  0  0  0  0  0  0
   26.6992  -29.0605  -19.2315 C   0  0  0  0  0  0  0  0  0  0  0  0
   27.5337  -29.8033  -19.8081 O   0  0  0  0  0  0  0  0  0  0  0  0
   23.9145  -29.4823  -13.7972 C   0  0  0  0  0  0  0  0  0  0  0  0
   28.7074  -27.5087  -16.4871 C   0  0  1  0  0  0  0  0  0  0  0  0
   28.5088  -28.4944  -17.6087 N   0  0  0  0  0  0  0  0  0  0  0  0
   27.1384  -28.3632  -18.0749 C   0  0  0  0  0  0  0  0  0  0  0  0
   28.7200  -29.8932  -17.1506 O   0  0  0  0  0  0  0  0  0  0  0  0
   29.8526  -30.2967  -16.7978 O   0  0  0  0  0  0  0  0  0  0  0  0
  2  1  1  1
  2  3  1  0
  4  3  1  0
  5  4  2  0
  6  7  1  0
  6  5  1  0
  7  8  2  0
  8  4  1  0
  9 19  1  0
  9  2  1  0
 10  9  2  0
 11 12  1  0
 12 14  1  0
 13 12  2  0
 14 15  1  0
 16 15  1  0
 18 17  1  6
 17 16  1  0
 18 19  1  0
 20 18  1  0
 21 20  2  0
 23 22  1  6
 23 25  1  0
 23 24  1  0
 24 20  1  0
 25 27  1  0
 26 25  2  0
M  END
$$$$
