CRS.pdb
     RDKit          3D

 24 23  0  0  1  0  0  0  0  0999 V2000
   32.7240   -9.8323  -16.4903 N   0  0  0  0  0  0  0  0  0  0  0  0
   34.0162  -10.4887  -16.1791 C   0  0  1  0  0  0  0  0  0  0  0  0
   34.8499  -10.5248  -17.4134 C   0  0  0  0  0  0  0  0  0  0  0  0
   34.2707  -11.8128  -18.5264 S   0  0  0  0  0  0  0  0  0  0  0  0
   34.6202   -9.8003  -15.0192 C   0  0  0  0  0  0  0  0  0  0  0  0
   34.3026   -8.5682  -14.7954 O   0  0  0  0  0  0  0  0  0  0  0  0
   37.8826  -12.1873   -7.1343 N   0  0  0  0  0  0  0  0  0  0  0  0
   38.2728  -10.8349   -7.2998 C   0  0  0  0  0  0  0  0  0  0  0  0
   38.9558  -10.2035   -6.4079 N   0  0  0  0  0  0  0  0  0  0  0  0
   37.9196  -10.0951   -8.4872 N   0  0  0  0  0  0  0  0  0  0  0  0
   37.2808  -10.7363   -9.5997 C   0  0  0  0  0  0  0  0  0  0  0  0
   37.1820   -9.7323  -10.7518 C   0  0  0  0  0  0  0  0  0  0  0  0
   36.4302  -10.4158  -11.8360 C   0  0  0  0  0  0  0  0  0  0  0  0
   36.1031   -9.5133  -13.0052 C   0  0  2  0  0  0  0  0  0  0  0  0
   35.5296  -10.3388  -14.0885 N   0  0  0  0  0  0  0  0  0  0  0  0
   37.2890   -8.7826  -13.4202 C   0  0  0  0  0  0  0  0  0  0  0  0
   38.0854   -9.2707  -14.2438 O   0  0  0  0  0  0  0  0  0  0  0  0
   39.2221   -9.2073   -6.5232 O   0  0  0  0  0  0  0  0  0  0  0  0
   37.9743   -4.8393  -12.1415 C   0  0  0  0  0  0  0  0  0  0  0  0
   38.5023   -5.2741  -13.3662 C   0  0  1  0  0  0  0  0  0  0  0  0
   38.7036   -6.7579  -13.3957 N   0  0  0  0  0  0  0  0  0  0  0  0
   37.5741   -7.5049  -12.9065 C   0  0  0  0  0  0  0  0  0  0  0  0
   39.8998   -7.0657  -12.5678 O   0  0  0  0  0  0  0  0  0  0  0  0
   39.8030   -7.7152  -11.4949 O   0  0  0  0  0  0  0  0  0  0  0  0
  2  5  1  0
  2  1  1  6
  3  2  1  0
  4  3  1  0
  5  6  2  0
  7  8  1  0
  8  9  2  0
  8 10  1  0
 10 11  1  0
 11 12  1  0
 12 13  1  0
 14 13  1  1
 15 14  1  0
 15  5  1  0
 16 17  2  0
 16 14  1  0
 18 19  1  0
 20 19  1  6
 20 22  1  0
 20 21  1  0
 21 16  1  0
 22 24  1  0
 23 22  2  0
M  END
$$$$
