CRS.pdb
     RDKit          3D

 24 23  0  0  1  0  0  0  0  0999 V2000
   25.3673  -11.8172  -15.1876 N   0  0  0  0  0  0  0  0  0  0  0  0
   25.4280  -11.1986  -16.5333 C   0  0  1  0  0  0  0  0  0  0  0  0
   25.3530  -12.2727  -17.5631 C   0  0  0  0  0  0  0  0  0  0  0  0
   26.5722  -13.5513  -17.2285 S   0  0  0  0  0  0  0  0  0  0  0  0
   24.3801  -10.1596  -16.6154 C   0  0  0  0  0  0  0  0  0  0  0  0
   24.2803   -9.4643  -17.6996 O   0  0  0  0  0  0  0  0  0  0  0  0
   16.6702  -11.9623  -14.3428 N   0  0  0  0  0  0  0  0  0  0  0  0
   17.1039  -12.1762  -15.6751 C   0  0  0  0  0  0  0  0  0  0  0  0
   16.4429  -12.9102  -16.5026 N   0  0  0  0  0  0  0  0  0  0  0  0
   18.3184  -11.5754  -16.1712 N   0  0  0  0  0  0  0  0  0  0  0  0
   19.1046  -10.7014  -15.3496 C   0  0  0  0  0  0  0  0  0  0  0  0
   20.3512  -10.2828  -16.1344 C   0  0  0  0  0  0  0  0  0  0  0  0
   21.0882   -9.3283  -15.2664 C   0  0  0  0  0  0  0  0  0  0  0  0
   22.3761   -8.8251  -15.8803 C   0  0  2  0  0  0  0  0  0  0  0  0
   23.4375   -9.8214  -15.6254 N   0  0  0  0  0  0  0  0  0  0  0  0
   22.6997   -7.5091  -15.3551 C   0  0  0  0  0  0  0  0  0  0  0  0
   23.2144   -7.3788  -14.2286 O   0  0  0  0  0  0  0  0  0  0  0  0
   16.7682  -13.0718  -17.4746 O   0  0  0  0  0  0  0  0  0  0  0  0
   23.0207   -2.6988  -16.0238 C   0  0  0  0  0  0  0  0  0  0  0  0
   22.6463   -3.9376  -16.5650 C   0  0  2  0  0  0  0  0  0  0  0  0
   22.7903   -5.0503  -15.5729 N   0  0  0  0  0  0  0  0  0  0  0  0
   22.4430   -6.3443  -16.1002 C   0  0  0  0  0  0  0  0  0  0  0  0
   21.9148   -4.7344  -14.4132 O   0  0  0  0  0  0  0  0  0  0  0  0
   20.7223   -5.1320  -14.3668 O   0  0  0  0  0  0  0  0  0  0  0  0
  2  5  1  0
  2  1  1  1
  3  2  1  0
  4  3  1  0
  5  6  2  0
  7  8  1  0
  8  9  2  0
  8 10  1  0
 10 11  1  0
 11 12  1  0
 12 13  1  0
 14 13  1  1
 15 14  1  0
 15  5  1  0
 16 17  2  0
 16 14  1  0
 18 19  1  0
 20 19  1  6
 20 22  1  0
 20 21  1  0
 21 16  1  0
 22 24  1  0
 23 22  2  0
M  END
$$$$
