CRS.pdb
     RDKit          3D

 24 23  0  0  1  0  0  0  0  0999 V2000
   24.8476  -12.0912  -17.2263 N   0  0  0  0  0  0  0  0  0  0  0  0
   24.4384  -11.5903  -15.8924 C   0  0  1  0  0  0  0  0  0  0  0  0
   25.6592  -11.2665  -15.1021 C   0  0  0  0  0  0  0  0  0  0  0  0
   27.1375  -11.5348  -16.0899 S   0  0  0  0  0  0  0  0  0  0  0  0
   23.4874  -10.4757  -16.0858 C   0  0  0  0  0  0  0  0  0  0  0  0
   23.4453   -9.8895  -17.2363 O   0  0  0  0  0  0  0  0  0  0  0  0
   15.6709  -11.8809  -14.5415 N   0  0  0  0  0  0  0  0  0  0  0  0
   16.4294  -12.4407  -15.5998 C   0  0  0  0  0  0  0  0  0  0  0  0
   15.9942  -13.4231  -16.3113 N   0  0  0  0  0  0  0  0  0  0  0  0
   17.7375  -11.9309  -15.9329 N   0  0  0  0  0  0  0  0  0  0  0  0
   18.3139  -10.8346  -15.2099 C   0  0  0  0  0  0  0  0  0  0  0  0
   19.6514  -10.4694  -15.8603 C   0  0  0  0  0  0  0  0  0  0  0  0
   20.2287   -9.3747  -15.0381 C   0  0  0  0  0  0  0  0  0  0  0  0
   21.5930   -8.9213  -15.5091 C   0  0  2  0  0  0  0  0  0  0  0  0
   22.5834   -9.9543  -15.1403 N   0  0  0  0  0  0  0  0  0  0  0  0
   21.9058   -7.6156  -14.9526 C   0  0  0  0  0  0  0  0  0  0  0  0
   22.3937   -7.5066  -13.8120 O   0  0  0  0  0  0  0  0  0  0  0  0
   16.5668  -13.8540  -17.0617 O   0  0  0  0  0  0  0  0  0  0  0  0
   23.1127   -3.0402  -15.6077 C   0  0  0  0  0  0  0  0  0  0  0  0
   22.7497   -4.2793  -16.1561 C   0  0  1  0  0  0  0  0  0  0  0  0
   22.0687   -5.1591  -15.1535 N   0  0  0  0  0  0  0  0  0  0  0  0
   21.6685   -6.4370  -15.6823 C   0  0  0  0  0  0  0  0  0  0  0  0
   20.8722   -4.4301  -14.6552 O   0  0  0  0  0  0  0  0  0  0  0  0
   19.7550   -4.5424  -15.2222 O   0  0  0  0  0  0  0  0  0  0  0  0
  2  5  1  0
  2  1  1  6
  3  2  1  0
  4  3  1  0
  5  6  2  0
  7  8  1  0
  8  9  2  0
  8 10  1  0
 10 11  1  0
 11 12  1  0
 12 13  1  0
 14 13  1  1
 15 14  1  0
 15  5  1  0
 16 17  2  0
 16 14  1  0
 18 19  1  0
 20 19  1  1
 20 22  1  0
 20 21  1  0
 21 16  1  0
 22 24  1  0
 23 22  2  0
M  END
$$$$
