CRS.pdb
     RDKit          3D

 24 23  0  0  1  0  0  0  0  0999 V2000
   26.6854  -11.6251  -17.7291 N   0  0  0  0  0  0  0  0  0  0  0  0
   26.2184  -11.1730  -16.3969 C   0  0  1  0  0  0  0  0  0  0  0  0
   27.3568  -10.5379  -15.6754 C   0  0  0  0  0  0  0  0  0  0  0  0
   28.4721  -11.7928  -15.0315 S   0  0  0  0  0  0  0  0  0  0  0  0
   25.0261  -10.3206  -16.5865 C   0  0  0  0  0  0  0  0  0  0  0  0
   24.9352   -9.6127  -17.6634 O   0  0  0  0  0  0  0  0  0  0  0  0
   16.6270  -11.8912  -16.6055 N   0  0  0  0  0  0  0  0  0  0  0  0
   16.6842  -10.4890  -16.8040 C   0  0  0  0  0  0  0  0  0  0  0  0
   15.6422   -9.7964  -17.1125 N   0  0  0  0  0  0  0  0  0  0  0  0
   17.9249   -9.7650  -16.6684 N   0  0  0  0  0  0  0  0  0  0  0  0
   19.1454  -10.4386  -16.3315 C   0  0  0  0  0  0  0  0  0  0  0  0
   20.2894   -9.4210  -16.3601 C   0  0  0  0  0  0  0  0  0  0  0  0
   21.5268  -10.1769  -16.0356 C   0  0  0  0  0  0  0  0  0  0  0  0
   22.7766   -9.3245  -16.0525 C   0  0  2  0  0  0  0  0  0  0  0  0
   23.9322  -10.1800  -15.7109 N   0  0  0  0  0  0  0  0  0  0  0  0
   22.6241   -8.1955  -15.1500 C   0  0  0  0  0  0  0  0  0  0  0  0
   22.8224   -8.3228  -13.9272 O   0  0  0  0  0  0  0  0  0  0  0  0
   15.6787   -8.7643  -17.2136 O   0  0  0  0  0  0  0  0  0  0  0  0
   22.8613   -3.5506  -14.2688 C   0  0  0  0  0  0  0  0  0  0  0  0
   22.8844   -4.5870  -15.2138 C   0  0  2  0  0  0  0  0  0  0  0  0
   22.1623   -5.8059  -14.7281 N   0  0  0  0  0  0  0  0  0  0  0  0
   22.2493   -6.9269  -15.6275 C   0  0  0  0  0  0  0  0  0  0  0  0
   20.7358   -5.4349  -14.5321 O   0  0  0  0  0  0  0  0  0  0  0  0
   19.9054   -5.5094  -15.4740 O   0  0  0  0  0  0  0  0  0  0  0  0
  2  5  1  0
  2  1  1  6
  3  2  1  0
  4  3  1  0
  5  6  2  0
  7  8  1  0
  8  9  2  0
  8 10  1  0
 10 11  1  0
 11 12  1  0
 12 13  1  0
 14 13  1  1
 15 14  1  0
 15  5  1  0
 16 17  2  0
 16 14  1  0
 18 19  1  0
 20 19  1  1
 20 22  1  0
 20 21  1  0
 21 16  1  0
 22 24  1  0
 23 22  2  0
M  END
$$$$
