CRS.pdb
     RDKit          3D

 24 23  0  0  1  0  0  0  0  0999 V2000
   20.0178   -8.6932  -13.3690 N   0  0  0  0  0  0  0  0  0  0  0  0
   20.0735   -8.3670  -11.9241 C   0  0  1  0  0  0  0  0  0  0  0  0
   21.3354   -7.6263  -11.6437 C   0  0  0  0  0  0  0  0  0  0  0  0
   22.7410   -8.7475  -11.6652 S   0  0  0  0  0  0  0  0  0  0  0  0
   18.8253   -7.6658  -11.5571 C   0  0  0  0  0  0  0  0  0  0  0  0
   18.3187   -6.8229  -12.3949 O   0  0  0  0  0  0  0  0  0  0  0  0
   12.7149  -12.2084   -9.0431 N   0  0  0  0  0  0  0  0  0  0  0  0
   12.5467  -11.5894  -10.3069 C   0  0  0  0  0  0  0  0  0  0  0  0
   11.6203  -11.9467  -11.1284 N   0  0  0  0  0  0  0  0  0  0  0  0
   13.4142  -10.5193  -10.7363 N   0  0  0  0  0  0  0  0  0  0  0  0
   14.1946   -9.7716   -9.7936 C   0  0  0  0  0  0  0  0  0  0  0  0
   14.9802   -8.6978  -10.5518 C   0  0  0  0  0  0  0  0  0  0  0  0
   15.8134   -7.9991   -9.5392 C   0  0  0  0  0  0  0  0  0  0  0  0
   16.8337   -7.0587  -10.1421 C   0  0  2  0  0  0  0  0  0  0  0  0
   18.0873   -7.8085  -10.3663 N   0  0  0  0  0  0  0  0  0  0  0  0
   17.0151   -5.9003   -9.2833 C   0  0  0  0  0  0  0  0  0  0  0  0
   17.6956   -5.9755   -8.2431 O   0  0  0  0  0  0  0  0  0  0  0  0
   11.5431  -11.5401  -12.0800 O   0  0  0  0  0  0  0  0  0  0  0  0
   17.8425   -1.4156   -8.5498 C   0  0  0  0  0  0  0  0  0  0  0  0
   17.6522   -2.5394   -9.3676 C   0  0  1  0  0  0  0  0  0  0  0  0
   16.6760   -3.5074   -8.7733 N   0  0  0  0  0  0  0  0  0  0  0  0
   16.4298   -4.6611   -9.5988 C   0  0  0  0  0  0  0  0  0  0  0  0
   15.4009   -2.7771   -8.5458 O   0  0  0  0  0  0  0  0  0  0  0  0
   14.4412   -2.8697   -9.3538 O   0  0  0  0  0  0  0  0  0  0  0  0
  2  5  1  0
  2  1  1  6
  3  2  1  0
  4  3  1  0
  5  6  2  0
  7  8  1  0
  8  9  2  0
  8 10  1  0
 10 11  1  0
 11 12  1  0
 12 13  1  0
 14 13  1  1
 15 14  1  0
 15  5  1  0
 16 17  2  0
 16 14  1  0
 18 19  1  0
 20 19  1  1
 20 22  1  0
 20 21  1  0
 21 16  1  0
 22 24  1  0
 23 22  2  0
M  END
$$$$
