CRS.pdb
     RDKit          3D

 24 23  0  0  1  0  0  0  0  0999 V2000
   28.8630  -20.8175  -11.8321 N   0  0  0  0  0  0  0  0  0  0  0  0
   27.6667  -21.0531  -10.9889 C   0  0  1  0  0  0  0  0  0  0  0  0
   27.9201  -20.5061   -9.6265 C   0  0  0  0  0  0  0  0  0  0  0  0
   29.1661  -21.4854   -8.7771 S   0  0  0  0  0  0  0  0  0  0  0  0
   26.4878  -20.5028  -11.6900 C   0  0  0  0  0  0  0  0  0  0  0  0
   26.3439  -19.2202  -11.7477 O   0  0  0  0  0  0  0  0  0  0  0  0
   24.6540  -18.2085  -19.0816 N   0  0  0  0  0  0  0  0  0  0  0  0
   23.4341  -17.9497  -18.4080 C   0  0  0  0  0  0  0  0  0  0  0  0
   22.5684  -17.1066  -18.8555 N   0  0  0  0  0  0  0  0  0  0  0  0
   23.1020  -18.6256  -17.1772 N   0  0  0  0  0  0  0  0  0  0  0  0
   24.0416  -19.4944  -16.5296 C   0  0  0  0  0  0  0  0  0  0  0  0
   23.3900  -20.0645  -15.2665 C   0  0  0  0  0  0  0  0  0  0  0  0
   24.4813  -20.7067  -14.4890 C   0  0  0  0  0  0  0  0  0  0  0  0
   24.3338  -20.5416  -12.9924 C   0  0  2  0  0  0  0  0  0  0  0  0
   25.4643  -21.2266  -12.3316 N   0  0  0  0  0  0  0  0  0  0  0  0
   23.0399  -21.0421  -12.5592 C   0  0  0  0  0  0  0  0  0  0  0  0
   22.7929  -22.2626  -12.5609 O   0  0  0  0  0  0  0  0  0  0  0  0
   21.6539  -16.9579  -18.3883 O   0  0  0  0  0  0  0  0  0  0  0  0
   20.6889  -19.3120   -9.6454 C   0  0  0  0  0  0  0  0  0  0  0  0
   20.0051  -19.6937  -10.8092 C   0  0  2  0  0  0  0  0  0  0  0  0
   20.7840  -20.6841  -11.6189 N   0  0  0  0  0  0  0  0  0  0  0  0
   22.0285  -20.1665  -12.1251 C   0  0  0  0  0  0  0  0  0  0  0  0
   19.9243  -21.1116  -12.7543 O   0  0  0  0  0  0  0  0  0  0  0  0
   20.2414  -20.8600  -13.9453 O   0  0  0  0  0  0  0  0  0  0  0  0
  2  5  1  0
  2  1  1  6
  3  2  1  0
  4  3  1  0
  5  6  2  0
  7  8  1  0
  8  9  2  0
  8 10  1  0
 10 11  1  0
 11 12  1  0
 12 13  1  0
 14 13  1  6
 15 14  1  0
 15  5  1  0
 16 17  2  0
 16 14  1  0
 18 19  1  0
 20 19  1  1
 20 22  1  0
 20 21  1  0
 21 16  1  0
 22 24  1  0
 23 22  2  0
M  END
$$$$
