CRS.pdb
     RDKit          3D

 24 23  0  0  1  0  0  0  0  0999 V2000
   27.8641  -25.9403  -16.8424 N   0  0  0  0  0  0  0  0  0  0  0  0
   28.4365  -27.1278  -17.5204 C   0  0  1  0  0  0  0  0  0  0  0  0
   29.8347  -27.3283  -17.0463 C   0  0  0  0  0  0  0  0  0  0  0  0
   30.9035  -26.0237  -17.6700 S   0  0  0  0  0  0  0  0  0  0  0  0
   27.5207  -28.2689  -17.3119 C   0  0  0  0  0  0  0  0  0  0  0  0
   26.5499  -28.1386  -16.4695 O   0  0  0  0  0  0  0  0  0  0  0  0
   23.7930  -32.7614  -23.1188 N   0  0  0  0  0  0  0  0  0  0  0  0
   23.2607  -31.7822  -22.2432 C   0  0  0  0  0  0  0  0  0  0  0  0
   22.3246  -30.9739  -22.6052 N   0  0  0  0  0  0  0  0  0  0  0  0
   23.7476  -31.6442  -20.8920 N   0  0  0  0  0  0  0  0  0  0  0  0
   24.6890  -32.5761  -20.3424 C   0  0  0  0  0  0  0  0  0  0  0  0
   25.0264  -32.1443  -18.9125 C   0  0  0  0  0  0  0  0  0  0  0  0
   26.0608  -31.0843  -19.0311 C   0  0  0  0  0  0  0  0  0  0  0  0
   26.5374  -30.5542  -17.6966 C   0  0  2  0  0  0  0  0  0  0  0  0
   27.5712  -29.5271  -17.9424 N   0  0  0  0  0  0  0  0  0  0  0  0
   27.0144  -31.6472  -16.8658 C   0  0  0  0  0  0  0  0  0  0  0  0
   28.0935  -32.2165  -17.1153 O   0  0  0  0  0  0  0  0  0  0  0  0
   22.0285  -30.1754  -22.0123 O   0  0  0  0  0  0  0  0  0  0  0  0
   26.4932  -34.3862  -12.8702 C   0  0  0  0  0  0  0  0  0  0  0  0
   25.8976  -33.4775  -13.7576 C   0  0  2  0  0  0  0  0  0  0  0  0
   26.8339  -33.0653  -14.8514 N   0  0  0  0  0  0  0  0  0  0  0  0
   26.2748  -32.0953  -15.7567 C   0  0  0  0  0  0  0  0  0  0  0  0
   27.2110  -34.2901  -15.6055 O   0  0  0  0  0  0  0  0  0  0  0  0
   26.4960  -34.7263  -16.5440 O   0  0  0  0  0  0  0  0  0  0  0  0
  2  5  1  0
  2  1  1  1
  3  2  1  0
  4  3  1  0
  5  6  2  0
  7  8  1  0
  8  9  2  0
  8 10  1  0
 10 11  1  0
 11 12  1  0
 12 13  1  0
 14 13  1  6
 15 14  1  0
 15  5  1  0
 16 17  2  0
 16 14  1  0
 18 19  1  0
 20 19  1  1
 20 22  1  0
 20 21  1  0
 21 16  1  0
 22 24  1  0
 23 22  2  0
M  END
$$$$
