CRS.pdb
     RDKit          3D

 24 23  0  0  1  0  0  0  0  0999 V2000
   26.0327  -33.1026   -7.9626 N   0  0  0  0  0  0  0  0  0  0  0  0
   26.1514  -32.8691   -6.5035 C   0  0  1  0  0  0  0  0  0  0  0  0
   24.7855  -32.7552   -5.9193 C   0  0  0  0  0  0  0  0  0  0  0  0
   24.8804  -32.5205   -4.1391 S   0  0  0  0  0  0  0  0  0  0  0  0
   27.0055  -33.9305   -5.9306 C   0  0  0  0  0  0  0  0  0  0  0  0
   26.7592  -35.1598   -6.2421 O   0  0  0  0  0  0  0  0  0  0  0  0
   33.4539  -34.9185   -6.9065 N   0  0  0  0  0  0  0  0  0  0  0  0
   34.1005  -35.6684   -5.8924 C   0  0  0  0  0  0  0  0  0  0  0  0
   35.0756  -36.4710   -6.1483 N   0  0  0  0  0  0  0  0  0  0  0  0
   33.6923  -35.5662   -4.5122 N   0  0  0  0  0  0  0  0  0  0  0  0
   32.6059  -34.7164   -4.1195 C   0  0  0  0  0  0  0  0  0  0  0  0
   31.2906  -35.3783   -4.5403 C   0  0  0  0  0  0  0  0  0  0  0  0
   30.2044  -34.4741   -4.0815 C   0  0  0  0  0  0  0  0  0  0  0  0
   28.8239  -34.9270   -4.5030 C   0  0  2  0  0  0  0  0  0  0  0  0
   28.0986  -33.7653   -5.0582 N   0  0  0  0  0  0  0  0  0  0  0  0
   28.1336  -35.5389   -3.3798 C   0  0  0  0  0  0  0  0  0  0  0  0
   27.5625  -34.8395   -2.5222 O   0  0  0  0  0  0  0  0  0  0  0  0
   35.5797  -36.9800   -5.3976 O   0  0  0  0  0  0  0  0  0  0  0  0
   26.6240  -39.5526   -1.0734 C   0  0  0  0  0  0  0  0  0  0  0  0
   27.3522  -39.0203   -2.1478 C   0  0  2  0  0  0  0  0  0  0  0  0
   27.4069  -37.5243   -2.1027 N   0  0  0  0  0  0  0  0  0  0  0  0
   28.0885  -36.9361   -3.2263 C   0  0  0  0  0  0  0  0  0  0  0  0
   28.0975  -37.1376   -0.8439 O   0  0  0  0  0  0  0  0  0  0  0  0
   29.3512  -37.0536   -0.7850 O   0  0  0  0  0  0  0  0  0  0  0  0
  2  5  1  0
  2  1  1  6
  3  2  1  0
  4  3  1  0
  5  6  2  0
  7  8  1  0
  8  9  2  0
  8 10  1  0
 10 11  1  0
 11 12  1  0
 12 13  1  0
 14 13  1  1
 15 14  1  0
 15  5  1  0
 16 17  2  0
 16 14  1  0
 18 19  1  0
 20 19  1  6
 20 22  1  0
 20 21  1  0
 21 16  1  0
 22 24  1  0
 23 22  2  0
M  END
$$$$
