CRS.pdb
     RDKit          3D

 24 23  0  0  1  0  0  0  0  0999 V2000
   22.0739   -8.2788    9.2555 N   0  0  0  0  0  0  0  0  0  0  0  0
   22.4806   -9.2613    8.2227 C   0  0  1  0  0  0  0  0  0  0  0  0
   23.8721   -9.7125    8.5058 C   0  0  0  0  0  0  0  0  0  0  0  0
   25.0612   -8.5336    7.8503 S   0  0  0  0  0  0  0  0  0  0  0  0
   21.4605  -10.3293    8.1693 C   0  0  0  0  0  0  0  0  0  0  0  0
   20.9512  -10.7559    9.2773 O   0  0  0  0  0  0  0  0  0  0  0  0
   17.9812  -15.7177    2.0259 N   0  0  0  0  0  0  0  0  0  0  0  0
   17.0039  -15.6579    3.0505 C   0  0  0  0  0  0  0  0  0  0  0  0
   15.8721  -16.2667    2.9559 N   0  0  0  0  0  0  0  0  0  0  0  0
   17.2337  -14.9046    4.2595 N   0  0  0  0  0  0  0  0  0  0  0  0
   18.2177  -13.8624    4.3101 C   0  0  0  0  0  0  0  0  0  0  0  0
   18.3229  -13.3590    5.7525 C   0  0  0  0  0  0  0  0  0  0  0  0
   19.3879  -12.3228    5.7548 C   0  0  0  0  0  0  0  0  0  0  0  0
   20.0012  -12.0908    7.1182 C   0  0  2  0  0  0  0  0  0  0  0  0
   20.9500  -10.9621    7.0195 N   0  0  0  0  0  0  0  0  0  0  0  0
   20.6250  -13.3118    7.6003 C   0  0  0  0  0  0  0  0  0  0  0  0
   21.7132  -13.7005    7.1361 O   0  0  0  0  0  0  0  0  0  0  0  0
   15.1746  -16.2525    3.7241 O   0  0  0  0  0  0  0  0  0  0  0  0
   21.0172  -16.7688   10.9361 C   0  0  0  0  0  0  0  0  0  0  0  0
   20.2636  -15.6852   10.4608 C   0  0  2  0  0  0  0  0  0  0  0  0
   20.6530  -15.2990    9.0671 N   0  0  0  0  0  0  0  0  0  0  0  0
   20.0216  -14.0909    8.6037 C   0  0  0  0  0  0  0  0  0  0  0  0
   20.2879  -16.4270    8.1696 O   0  0  0  0  0  0  0  0  0  0  0  0
   19.2711  -16.3723    7.4312 O   0  0  0  0  0  0  0  0  0  0  0  0
  2  5  1  0
  2  1  1  1
  3  2  1  0
  4  3  1  0
  5  6  2  0
  7  8  1  0
  8  9  2  0
  8 10  1  0
 10 11  1  0
 11 12  1  0
 12 13  1  0
 14 13  1  6
 15 14  1  0
 15  5  1  0
 16 17  2  0
 16 14  1  0
 18 19  1  0
 20 19  1  1
 20 22  1  0
 20 21  1  0
 21 16  1  0
 22 24  1  0
 23 22  2  0
M  END
$$$$
