CRS.pdb
     RDKit          3D

 24 23  0  0  1  0  0  0  0  0999 V2000
   28.8597  -21.0748  -18.5766 N   0  0  0  0  0  0  0  0  0  0  0  0
   28.2165  -20.0271  -17.7482 C   0  0  1  0  0  0  0  0  0  0  0  0
   27.6597  -18.9757  -18.6450 C   0  0  0  0  0  0  0  0  0  0  0  0
   26.7427  -17.7572  -17.6922 S   0  0  0  0  0  0  0  0  0  0  0  0
   27.2441  -20.6790  -16.8463 C   0  0  0  0  0  0  0  0  0  0  0  0
   26.4466  -21.5703  -17.3349 O   0  0  0  0  0  0  0  0  0  0  0  0
   23.5176  -19.4290  -10.3156 N   0  0  0  0  0  0  0  0  0  0  0  0
   23.8647  -20.6621   -9.7094 C   0  0  0  0  0  0  0  0  0  0  0  0
   23.1130  -21.2306   -8.8305 N   0  0  0  0  0  0  0  0  0  0  0  0
   25.0887  -21.3450  -10.0523 N   0  0  0  0  0  0  0  0  0  0  0  0
   26.0602  -20.7400  -10.9166 C   0  0  0  0  0  0  0  0  0  0  0  0
   25.4450  -20.5846  -12.3104 C   0  0  0  0  0  0  0  0  0  0  0  0
   26.4056  -21.2031  -13.2604 C   0  0  0  0  0  0  0  0  0  0  0  0
   25.9806  -21.0894  -14.7079 C   0  0  2  0  0  0  0  0  0  0  0  0
   27.0728  -20.4464  -15.4680 N   0  0  0  0  0  0  0  0  0  0  0  0
   24.7238  -20.3659  -14.8048 C   0  0  0  0  0  0  0  0  0  0  0  0
   24.6631  -19.1508  -14.5391 O   0  0  0  0  0  0  0  0  0  0  0  0
   23.3920  -22.1097   -8.3549 O   0  0  0  0  0  0  0  0  0  0  0  0
   21.2369  -22.2497  -16.1924 C   0  0  0  0  0  0  0  0  0  0  0  0
   21.3890  -20.8686  -16.3854 C   0  0  1  0  0  0  0  0  0  0  0  0
   22.3254  -20.2618  -15.3864 N   0  0  0  0  0  0  0  0  0  0  0  0
   23.5396  -21.0131  -15.2008 C   0  0  0  0  0  0  0  0  0  0  0  0
   21.5994  -20.1623  -14.0925 O   0  0  0  0  0  0  0  0  0  0  0  0
   21.9738  -20.8098  -13.0811 O   0  0  0  0  0  0  0  0  0  0  0  0
  2  5  1  0
  2  1  1  6
  3  2  1  0
  4  3  1  0
  5  6  2  0
  7  8  1  0
  8  9  2  0
  8 10  1  0
 10 11  1  0
 11 12  1  0
 12 13  1  0
 14 13  1  1
 15 14  1  0
 15  5  1  0
 16 17  2  0
 16 14  1  0
 18 19  1  0
 20 19  1  6
 20 22  1  0
 20 21  1  0
 21 16  1  0
 22 24  1  0
 23 22  2  0
M  END
$$$$
