CRS.pdb
     RDKit          3D

 24 23  0  0  1  0  0  0  0  0999 V2000
   17.8466  -22.6072   -8.2408 N   0  0  0  0  0  0  0  0  0  0  0  0
   18.8166  -23.1949   -9.1954 C   0  0  1  0  0  0  0  0  0  0  0  0
   18.0715  -23.9720  -10.2252 C   0  0  0  0  0  0  0  0  0  0  0  0
   17.5290  -25.5489   -9.5529 S   0  0  0  0  0  0  0  0  0  0  0  0
   19.6769  -22.1097   -9.7115 C   0  0  0  0  0  0  0  0  0  0  0  0
   19.1172  -21.0841  -10.2628 O   0  0  0  0  0  0  0  0  0  0  0  0
   26.3001  -22.0451  -13.3396 N   0  0  0  0  0  0  0  0  0  0  0  0
   26.7318  -20.7387  -12.9995 C   0  0  0  0  0  0  0  0  0  0  0  0
   27.3314  -19.9722  -13.8442 N   0  0  0  0  0  0  0  0  0  0  0  0
   26.5172  -20.2012  -11.6777 N   0  0  0  0  0  0  0  0  0  0  0  0
   25.6258  -20.8381  -10.7522 C   0  0  0  0  0  0  0  0  0  0  0  0
   24.1860  -20.4955  -11.1454 C   0  0  0  0  0  0  0  0  0  0  0  0
   23.3095  -21.2382  -10.2032 C   0  0  0  0  0  0  0  0  0  0  0  0
   21.8341  -21.0761  -10.4963 C   0  0  2  0  0  0  0  0  0  0  0  0
   21.0832  -22.0470   -9.6731 N   0  0  0  0  0  0  0  0  0  0  0  0
   21.5869  -21.2331  -11.9199 C   0  0  0  0  0  0  0  0  0  0  0  0
   21.6849  -22.3474  -12.4671 O   0  0  0  0  0  0  0  0  0  0  0  0
   27.7002  -19.0404  -13.5751 O   0  0  0  0  0  0  0  0  0  0  0  0
   18.8601  -19.1431  -13.7444 C   0  0  0  0  0  0  0  0  0  0  0  0
   19.9145  -19.3490  -14.6465 C   0  0  2  0  0  0  0  0  0  0  0  0
   20.9246  -20.3199  -14.1173 N   0  0  0  0  0  0  0  0  0  0  0  0
   21.2298  -20.1348  -12.7224 C   0  0  0  0  0  0  0  0  0  0  0  0
   22.1644  -20.1624  -14.9230 O   0  0  0  0  0  0  0  0  0  0  0  0
   23.2513  -19.8199  -14.3903 O   0  0  0  0  0  0  0  0  0  0  0  0
  2  5  1  0
  2  1  1  1
  3  2  1  0
  4  3  1  0
  5  6  2  0
  7  8  1  0
  8  9  2  0
  8 10  1  0
 10 11  1  0
 11 12  1  0
 12 13  1  0
 14 13  1  6
 15 14  1  0
 15  5  1  0
 16 17  2  0
 16 14  1  0
 18 19  1  0
 20 19  1  1
 20 22  1  0
 20 21  1  0
 21 16  1  0
 22 24  1  0
 23 22  2  0
M  END
$$$$
