CRS.pdb
     RDKit          3D

 24 23  0  0  1  0  0  0  0  0999 V2000
   31.7422  -25.4528  -16.5078 N   0  0  0  0  0  0  0  0  0  0  0  0
   30.4368  -24.7532  -16.4445 C   0  0  1  0  0  0  0  0  0  0  0  0
   30.5682  -23.4237  -17.1039 C   0  0  0  0  0  0  0  0  0  0  0  0
   29.0582  -22.4688  -16.9006 S   0  0  0  0  0  0  0  0  0  0  0  0
   29.4025  -25.6466  -17.0068 C   0  0  0  0  0  0  0  0  0  0  0  0
   29.5584  -26.0963  -18.2079 O   0  0  0  0  0  0  0  0  0  0  0  0
   27.5319  -33.0347  -15.7389 N   0  0  0  0  0  0  0  0  0  0  0  0
   26.5872  -31.9938  -15.9203 C   0  0  0  0  0  0  0  0  0  0  0  0
   25.3253  -32.1710  -15.7287 N   0  0  0  0  0  0  0  0  0  0  0  0
   26.9996  -30.6738  -16.3322 N   0  0  0  0  0  0  0  0  0  0  0  0
   28.3699  -30.3865  -16.6429 C   0  0  0  0  0  0  0  0  0  0  0  0
   28.4597  -28.9548  -17.1791 C   0  0  0  0  0  0  0  0  0  0  0  0
   27.2173  -28.2677  -16.7409 C   0  0  0  0  0  0  0  0  0  0  0  0
   27.1702  -26.8045  -17.1225 C   0  0  2  0  0  0  0  0  0  0  0  0
   28.2255  -26.0906  -16.3738 N   0  0  0  0  0  0  0  0  0  0  0  0
   25.8424  -26.2663  -16.8777 C   0  0  0  0  0  0  0  0  0  0  0  0
   25.6366  -25.4731  -15.9400 O   0  0  0  0  0  0  0  0  0  0  0  0
   24.6382  -31.4027  -15.8481 O   0  0  0  0  0  0  0  0  0  0  0  0
   22.3714  -23.8007  -17.7295 C   0  0  0  0  0  0  0  0  0  0  0  0
   23.6023  -24.4564  -17.8802 C   0  0  2  0  0  0  0  0  0  0  0  0
   23.4994  -25.9198  -17.5788 N   0  0  0  0  0  0  0  0  0  0  0  0
   24.7510  -26.6229  -17.6898 C   0  0  0  0  0  0  0  0  0  0  0  0
   22.5141  -26.5056  -18.5260 O   0  0  0  0  0  0  0  0  0  0  0  0
   22.8784  -27.0127  -19.6179 O   0  0  0  0  0  0  0  0  0  0  0  0
  2  5  1  0
  2  1  1  6
  3  2  1  0
  4  3  1  0
  5  6  2  0
  7  8  1  0
  8  9  2  0
  8 10  1  0
 10 11  1  0
 11 12  1  0
 12 13  1  0
 14 13  1  1
 15 14  1  0
 15  5  1  0
 16 17  2  0
 16 14  1  0
 18 19  1  0
 20 19  1  1
 20 22  1  0
 20 21  1  0
 21 16  1  0
 22 24  1  0
 23 22  2  0
M  END
$$$$
