QCE.pdb
     RDKit          3D

 25 24  0  0  1  0  0  0  0  0999 V2000
    9.8049  -19.8282   20.5611 N   0  0  0  0  0  0  0  0  0  0  0  0
    8.5102  -19.3009   20.7752 C   0  0  0  0  0  0  0  0  0  0  0  0
    7.6078  -20.0734   21.1635 O   0  0  0  0  0  0  0  0  0  0  0  0
    8.2367  -17.8802   20.5471 C   0  0  0  0  0  0  0  0  0  0  0  0
    8.3427  -16.9931   21.7387 C   0  0  0  0  0  0  0  0  0  0  0  0
    7.9759  -15.5558   21.5137 C   0  0  2  0  0  0  0  0  0  0  0  0
    8.6352  -15.0759   20.3241 N   0  0  0  0  0  0  0  0  0  0  0  0
    8.2995  -14.8097   22.7366 C   0  0  0  0  0  0  0  0  0  0  0  0
    9.5196  -14.6007   22.9834 O   0  0  0  0  0  0  0  0  0  0  0  0
    7.3768  -14.2970   23.6789 N   0  0  0  0  0  0  0  0  0  0  0  0
    7.8107  -13.6300   24.8983 C   0  0  1  0  0  0  0  0  0  0  0  0
    6.6564  -12.7946   25.3779 C   0  0  0  0  0  0  0  0  0  0  0  0
    6.9249  -12.1110   27.0187 S   0  0  0  0  0  0  0  0  0  0  0  0
    8.2905  -14.6049   25.8986 C   0  0  0  0  0  0  0  0  0  0  0  0
    7.5918  -15.5830   26.2308 O   0  0  0  0  0  0  0  0  0  0  0  0
    9.5808  -14.4761   26.5383 N   0  0  0  0  0  0  0  0  0  0  0  0
   10.0195  -15.4150   27.5696 C   0  0  1  0  0  0  0  0  0  0  0  0
   11.4194  -15.8533   27.2017 C   0  0  0  0  0  0  0  0  0  0  0  0
   11.4532  -16.8134   26.0309 C   0  0  0  0  0  0  0  0  0  0  0  0
   12.8752  -17.1322   25.7148 C   0  0  0  0  0  0  0  0  0  0  0  0
   13.7495  -16.9086   26.6098 O   0  0  0  0  0  0  0  0  0  0  0  0
    9.9533  -14.7889   28.9049 C   0  0  0  0  0  0  0  0  0  0  0  0
    9.7493  -13.5440   28.9824 O   0  0  0  0  0  0  0  0  0  0  0  0
   13.2450  -17.6554   24.4974 O   0  0  0  0  0  0  0  0  0  0  0  0
   10.1018  -15.4944   30.0833 O   0  0  0  0  0  0  0  0  0  0  0  0
  2  4  1  0
  2  1  1  0
  3  2  2  0
  5  4  1  0
  5  6  1  0
  6  7  1  6
  8  6  1  0
  9  8  2  0
 10  8  1  0
 11 10  1  0
 11 14  1  0
 11 12  1  1
 13 12  1  0
 14 16  1  0
 15 14  2  0
 16 17  1  0
 17 18  1  6
 17 22  1  0
 19 20  1  0
 19 18  1  0
 20 24  1  0
 21 20  2  0
 22 23  2  0
 22 25  1  0
M  END
$$$$
