QCE.pdb
     RDKit          3D

 25 24  0  0  1  0  0  0  0  0999 V2000
    9.4944  -14.9020   18.0583 N   0  0  0  0  0  0  0  0  0  0  0  0
    8.1616  -15.0808   18.4965 C   0  0  0  0  0  0  0  0  0  0  0  0
    7.4977  -16.0254   18.0181 O   0  0  0  0  0  0  0  0  0  0  0  0
    7.5759  -14.1778   19.4899 C   0  0  0  0  0  0  0  0  0  0  0  0
    8.2758  -14.1056   20.8026 C   0  0  0  0  0  0  0  0  0  0  0  0
    7.7277  -14.9931   21.8809 C   0  0  2  0  0  0  0  0  0  0  0  0
    6.2865  -14.9420   21.8543 N   0  0  0  0  0  0  0  0  0  0  0  0
    8.3316  -14.5823   23.1551 C   0  0  0  0  0  0  0  0  0  0  0  0
    9.5890  -14.4794   23.1952 O   0  0  0  0  0  0  0  0  0  0  0  0
    7.6441  -14.2888   24.3566 N   0  0  0  0  0  0  0  0  0  0  0  0
    8.3428  -14.1198   25.6228 C   0  0  1  0  0  0  0  0  0  0  0  0
    7.4254  -13.3510   26.5327 C   0  0  0  0  0  0  0  0  0  0  0  0
    6.3668  -12.2006   25.6452 S   0  0  0  0  0  0  0  0  0  0  0  0
    8.7690  -15.4213   26.1757 C   0  0  0  0  0  0  0  0  0  0  0  0
    7.9336  -16.2946   26.4830 O   0  0  0  0  0  0  0  0  0  0  0  0
   10.1619  -15.7458   26.3879 N   0  0  0  0  0  0  0  0  0  0  0  0
   10.5661  -16.9955   27.0303 C   0  0  1  0  0  0  0  0  0  0  0  0
   11.9248  -17.3589   26.4745 C   0  0  0  0  0  0  0  0  0  0  0  0
   12.5459  -18.5582   27.1596 C   0  0  0  0  0  0  0  0  0  0  0  0
   12.3561  -19.7560   26.2920 C   0  0  0  0  0  0  0  0  0  0  0  0
   13.2195  -19.9792   25.3864 O   0  0  0  0  0  0  0  0  0  0  0  0
   10.5751  -16.8459   28.4989 C   0  0  0  0  0  0  0  0  0  0  0  0
   10.7319  -15.6922   28.9908 O   0  0  0  0  0  0  0  0  0  0  0  0
   11.2858  -20.6047   26.4559 O   0  0  0  0  0  0  0  0  0  0  0  0
   10.4191  -17.9052   29.3717 O   0  0  0  0  0  0  0  0  0  0  0  0
  2  4  1  0
  2  1  1  0
  3  2  2  0
  5  4  1  0
  5  6  1  0
  6  7  1  1
  8  6  1  0
  9  8  2  0
 10  8  1  0
 11 10  1  0
 11 14  1  0
 11 12  1  1
 13 12  1  0
 14 16  1  0
 15 14  2  0
 16 17  1  0
 17 18  1  6
 17 22  1  0
 19 20  1  0
 19 18  1  0
 20 24  1  0
 21 20  2  0
 22 23  2  0
 22 25  1  0
M  END
$$$$
