QCE.pdb
     RDKit          3D

 25 24  0  0  1  0  0  0  0  0999 V2000
    9.4575  -14.5943   17.4792 N   0  0  0  0  0  0  0  0  0  0  0  0
    8.1933  -14.0235   17.2029 C   0  0  0  0  0  0  0  0  0  0  0  0
    7.7069  -14.1747   16.0617 O   0  0  0  0  0  0  0  0  0  0  0  0
    7.4725  -13.2735   18.2340 C   0  0  0  0  0  0  0  0  0  0  0  0
    8.0870  -13.2689   19.5906 C   0  0  0  0  0  0  0  0  0  0  0  0
    7.7632  -14.4519   20.4547 C   0  0  2  0  0  0  0  0  0  0  0  0
    6.3747  -14.8023   20.2831 N   0  0  0  0  0  0  0  0  0  0  0  0
    8.1459  -14.1228   21.8338 C   0  0  0  0  0  0  0  0  0  0  0  0
    9.3674  -13.8985   22.0597 O   0  0  0  0  0  0  0  0  0  0  0  0
    7.2796  -14.0320   22.9490 N   0  0  0  0  0  0  0  0  0  0  0  0
    7.7843  -13.9035   24.3087 C   0  0  1  0  0  0  0  0  0  0  0  0
    6.6754  -13.3154   25.1362 C   0  0  0  0  0  0  0  0  0  0  0  0
    7.0473  -13.3069   26.8951 S   0  0  0  0  0  0  0  0  0  0  0  0
    8.2799  -15.1977   24.8190 C   0  0  0  0  0  0  0  0  0  0  0  0
    7.5440  -16.2041   24.8441 O   0  0  0  0  0  0  0  0  0  0  0  0
    9.6293  -15.3625   25.3116 N   0  0  0  0  0  0  0  0  0  0  0  0
   10.1260  -16.6626   25.7595 C   0  0  1  0  0  0  0  0  0  0  0  0
   11.4165  -16.9231   25.0153 C   0  0  0  0  0  0  0  0  0  0  0  0
   12.0822  -18.2228   25.4167 C   0  0  0  0  0  0  0  0  0  0  0  0
   13.3214  -18.3959   24.6055 C   0  0  0  0  0  0  0  0  0  0  0  0
   13.6549  -17.4554   23.8183 O   0  0  0  0  0  0  0  0  0  0  0  0
   10.3035  -16.6747   27.2250 C   0  0  0  0  0  0  0  0  0  0  0  0
   10.6138  -17.7619   27.7901 O   0  0  0  0  0  0  0  0  0  0  0  0
   14.0922  -19.5317   24.6971 O   0  0  0  0  0  0  0  0  0  0  0  0
   10.1492  -15.5545   28.0184 O   0  0  0  0  0  0  0  0  0  0  0  0
  2  4  1  0
  2  1  1  0
  3  2  2  0
  5  4  1  0
  5  6  1  0
  6  7  1  1
  8  6  1  0
  9  8  2  0
 10  8  1  0
 11 10  1  0
 11 14  1  0
 11 12  1  1
 13 12  1  0
 14 16  1  0
 15 14  2  0
 16 17  1  0
 17 18  1  6
 17 22  1  0
 19 20  1  0
 19 18  1  0
 20 24  1  0
 21 20  2  0
 22 23  2  0
 22 25  1  0
M  END
$$$$
