QCE.pdb
     RDKit          3D

 25 24  0  0  1  0  0  0  0  0999 V2000
    8.8741  -17.6957   19.7670 N   0  0  0  0  0  0  0  0  0  0  0  0
    7.5109  -17.3259   19.8400 C   0  0  0  0  0  0  0  0  0  0  0  0
    6.6710  -18.2000   20.1440 O   0  0  0  0  0  0  0  0  0  0  0  0
    7.0964  -15.9482   19.5658 C   0  0  0  0  0  0  0  0  0  0  0  0
    6.5263  -15.1944   20.7168 C   0  0  0  0  0  0  0  0  0  0  0  0
    7.1204  -13.8391   20.9643 C   0  0  2  0  0  0  0  0  0  0  0  0
    7.9126  -13.4499   19.8236 N   0  0  0  0  0  0  0  0  0  0  0  0
    7.8587  -13.8938   22.2326 C   0  0  0  0  0  0  0  0  0  0  0  0
    9.0955  -14.1392   22.1744 O   0  0  0  0  0  0  0  0  0  0  0  0
    7.3225  -13.7004   23.5278 N   0  0  0  0  0  0  0  0  0  0  0  0
    8.1433  -13.8076   24.7257 C   0  0  1  0  0  0  0  0  0  0  0  0
    7.4689  -12.9948   25.7957 C   0  0  0  0  0  0  0  0  0  0  0  0
    5.7115  -13.3466   25.9348 S   0  0  0  0  0  0  0  0  0  0  0  0
    8.3567  -15.2196   25.1024 C   0  0  0  0  0  0  0  0  0  0  0  0
    7.4334  -16.0539   25.0213 O   0  0  0  0  0  0  0  0  0  0  0  0
    9.6332  -15.7018   25.5807 N   0  0  0  0  0  0  0  0  0  0  0  0
    9.8443  -17.1114   25.9063 C   0  0  1  0  0  0  0  0  0  0  0  0
   11.1319  -17.5322   25.2341 C   0  0  0  0  0  0  0  0  0  0  0  0
   11.0423  -17.5278   23.7223 C   0  0  0  0  0  0  0  0  0  0  0  0
   12.3787  -17.8807   23.1628 C   0  0  0  0  0  0  0  0  0  0  0  0
   12.4813  -18.0149   21.9032 O   0  0  0  0  0  0  0  0  0  0  0  0
    9.8771  -17.3079   27.3690 C   0  0  0  0  0  0  0  0  0  0  0  0
   10.0766  -18.4713   27.8211 O   0  0  0  0  0  0  0  0  0  0  0  0
   13.4773  -18.0564   23.9721 O   0  0  0  0  0  0  0  0  0  0  0  0
    9.7018  -16.2823   28.2777 O   0  0  0  0  0  0  0  0  0  0  0  0
  2  4  1  0
  2  1  1  0
  3  2  2  0
  5  4  1  0
  5  6  1  0
  6  7  1  6
  8  6  1  0
  9  8  2  0
 10  8  1  0
 11 10  1  0
 11 14  1  0
 11 12  1  1
 13 12  1  0
 14 16  1  0
 15 14  2  0
 16 17  1  0
 17 18  1  6
 17 22  1  0
 19 20  1  0
 19 18  1  0
 20 24  1  0
 21 20  2  0
 22 23  2  0
 22 25  1  0
M  END
$$$$
