QCE.pdb
     RDKit          3D

 25 24  0  0  1  0  0  0  0  0999 V2000
    8.6063  -19.6045   21.2374 N   0  0  0  0  0  0  0  0  0  0  0  0
    8.0553  -18.9998   22.3911 C   0  0  0  0  0  0  0  0  0  0  0  0
    7.7146  -19.7329   23.3442 O   0  0  0  0  0  0  0  0  0  0  0  0
    7.8902  -17.5463   22.4644 C   0  0  0  0  0  0  0  0  0  0  0  0
    8.3566  -16.7736   21.2798 C   0  0  0  0  0  0  0  0  0  0  0  0
    7.9674  -15.3248   21.2546 C   0  0  2  0  0  0  0  0  0  0  0  0
    8.6061  -14.6786   20.1345 N   0  0  0  0  0  0  0  0  0  0  0  0
    8.2949  -14.7458   22.5639 C   0  0  0  0  0  0  0  0  0  0  0  0
    9.5168  -14.6035   22.8466 O   0  0  0  0  0  0  0  0  0  0  0  0
    7.3740  -14.3281   23.5538 N   0  0  0  0  0  0  0  0  0  0  0  0
    7.8083  -13.7131   24.8001 C   0  0  1  0  0  0  0  0  0  0  0  0
    6.6709  -12.8607   25.2902 C   0  0  0  0  0  0  0  0  0  0  0  0
    6.9430  -12.2213   26.9482 S   0  0  0  0  0  0  0  0  0  0  0  0
    8.2453  -14.7328   25.7750 C   0  0  0  0  0  0  0  0  0  0  0  0
    7.5408  -15.7321   26.0207 O   0  0  0  0  0  0  0  0  0  0  0  0
    9.4985  -14.6254   26.4881 N   0  0  0  0  0  0  0  0  0  0  0  0
    9.9015  -15.6217   27.4794 C   0  0  1  0  0  0  0  0  0  0  0  0
   11.3002  -16.0669   27.1153 C   0  0  0  0  0  0  0  0  0  0  0  0
   11.3621  -16.8170   25.8011 C   0  0  0  0  0  0  0  0  0  0  0  0
   12.7856  -17.1491   25.5065 C   0  0  0  0  0  0  0  0  0  0  0  0
   13.5745  -17.3161   26.4889 O   0  0  0  0  0  0  0  0  0  0  0  0
    9.8212  -15.0609   28.8426 C   0  0  0  0  0  0  0  0  0  0  0  0
    9.5350  -13.8375   28.9800 O   0  0  0  0  0  0  0  0  0  0  0  0
   13.2457  -17.2769   24.2164 O   0  0  0  0  0  0  0  0  0  0  0  0
   10.0419  -15.8056   29.9850 O   0  0  0  0  0  0  0  0  0  0  0  0
  2  4  1  0
  2  1  1  0
  3  2  2  0
  5  4  1  0
  5  6  1  0
  6  7  1  6
  8  6  1  0
  9  8  2  0
 10  8  1  0
 11 10  1  0
 11 14  1  0
 11 12  1  1
 13 12  1  0
 14 16  1  0
 15 14  2  0
 16 17  1  0
 17 18  1  6
 17 22  1  0
 19 20  1  0
 19 18  1  0
 20 24  1  0
 21 20  2  0
 22 23  2  0
 22 25  1  0
M  END
$$$$
