QCE.pdb
     RDKit          3D

 25 24  0  0  1  0  0  0  0  0999 V2000
    8.5309  -12.6030   16.3653 N   0  0  0  0  0  0  0  0  0  0  0  0
    8.1319  -13.8999   15.9665 C   0  0  0  0  0  0  0  0  0  0  0  0
    7.6915  -14.0589   14.8078 O   0  0  0  0  0  0  0  0  0  0  0  0
    8.2350  -15.0296   16.8931 C   0  0  0  0  0  0  0  0  0  0  0  0
    8.6714  -14.7023   18.2789 C   0  0  0  0  0  0  0  0  0  0  0  0
    8.7233  -15.8583   19.2339 C   0  0  2  0  0  0  0  0  0  0  0  0
    7.4652  -16.5626   19.1992 N   0  0  0  0  0  0  0  0  0  0  0  0
    9.0971  -15.3370   20.5550 C   0  0  0  0  0  0  0  0  0  0  0  0
   10.2478  -14.8326   20.6759 O   0  0  0  0  0  0  0  0  0  0  0  0
    8.2943  -15.3430   21.7203 N   0  0  0  0  0  0  0  0  0  0  0  0
    8.8395  -15.0295   23.0335 C   0  0  1  0  0  0  0  0  0  0  0  0
    7.6748  -14.7109   23.9292 C   0  0  0  0  0  0  0  0  0  0  0  0
    6.6809  -16.1566   24.3212 S   0  0  0  0  0  0  0  0  0  0  0  0
    9.6880  -16.1289   23.5360 C   0  0  0  0  0  0  0  0  0  0  0  0
    9.5902  -17.2817   23.0705 O   0  0  0  0  0  0  0  0  0  0  0  0
   10.6646  -15.9275   24.5831 N   0  0  0  0  0  0  0  0  0  0  0  0
   11.6541  -16.9522   24.9125 C   0  0  1  0  0  0  0  0  0  0  0  0
   12.9876  -16.4616   24.3947 C   0  0  0  0  0  0  0  0  0  0  0  0
   14.1336  -17.3946   24.7259 C   0  0  0  0  0  0  0  0  0  0  0  0
   15.4032  -16.7857   24.2351 C   0  0  0  0  0  0  0  0  0  0  0  0
   15.3476  -15.6255   23.7191 O   0  0  0  0  0  0  0  0  0  0  0  0
   11.6701  -17.2116   26.3657 C   0  0  0  0  0  0  0  0  0  0  0  0
   11.0826  -16.3980   27.1342 O   0  0  0  0  0  0  0  0  0  0  0  0
   16.6063  -17.4455   24.3333 O   0  0  0  0  0  0  0  0  0  0  0  0
   12.2953  -18.3034   26.9360 O   0  0  0  0  0  0  0  0  0  0  0  0
  2  4  1  0
  2  1  1  0
  3  2  2  0
  5  4  1  0
  5  6  1  0
  6  7  1  1
  8  6  1  0
  9  8  2  0
 10  8  1  0
 11 10  1  0
 11 14  1  0
 11 12  1  1
 13 12  1  0
 14 16  1  0
 15 14  2  0
 16 17  1  0
 17 18  1  1
 17 22  1  0
 19 20  1  0
 19 18  1  0
 20 24  1  0
 21 20  2  0
 22 23  2  0
 22 25  1  0
M  END
$$$$
