QCE.pdb
     RDKit          3D

 25 24  0  0  1  0  0  0  0  0999 V2000
    2.0150  -20.7039   19.4530 N   0  0  0  0  0  0  0  0  0  0  0  0
    1.4966  -19.5221   20.0318 C   0  0  0  0  0  0  0  0  0  0  0  0
    0.3853  -19.1043   19.6417 O   0  0  0  0  0  0  0  0  0  0  0  0
    2.2476  -18.8070   21.0662 C   0  0  0  0  0  0  0  0  0  0  0  0
    3.5928  -19.3547   21.3956 C   0  0  0  0  0  0  0  0  0  0  0  0
    4.2915  -18.7082   22.5554 C   0  0  2  0  0  0  0  0  0  0  0  0
    3.3430  -17.9227   23.3061 N   0  0  0  0  0  0  0  0  0  0  0  0
    5.4342  -17.9503   22.0295 C   0  0  0  0  0  0  0  0  0  0  0  0
    6.3218  -18.5959   21.4061 O   0  0  0  0  0  0  0  0  0  0  0  0
    5.6482  -16.5569   22.1518 N   0  0  0  0  0  0  0  0  0  0  0  0
    6.8750  -15.9221   21.6913 C   0  0  1  0  0  0  0  0  0  0  0  0
    6.4968  -14.5685   21.1575 C   0  0  0  0  0  0  0  0  0  0  0  0
    7.9247  -13.5668   20.7224 S   0  0  0  0  0  0  0  0  0  0  0  0
    7.8865  -15.8719   22.7663 C   0  0  0  0  0  0  0  0  0  0  0  0
    7.6325  -15.3387   23.8646 O   0  0  0  0  0  0  0  0  0  0  0  0
    9.2095  -16.4315   22.6018 N   0  0  0  0  0  0  0  0  0  0  0  0
   10.2291  -16.3011   23.6416 C   0  0  1  0  0  0  0  0  0  0  0  0
   10.0710  -17.4868   24.5668 C   0  0  0  0  0  0  0  0  0  0  0  0
   11.1176  -17.5310   25.6606 C   0  0  0  0  0  0  0  0  0  0  0  0
   10.8238  -18.6856   26.5572 C   0  0  0  0  0  0  0  0  0  0  0  0
    9.8266  -19.4212   26.2748 O   0  0  0  0  0  0  0  0  0  0  0  0
   11.5761  -16.2244   23.0423 C   0  0  0  0  0  0  0  0  0  0  0  0
   11.7362  -16.6268   21.8548 O   0  0  0  0  0  0  0  0  0  0  0  0
   11.6007  -18.9611   27.6587 O   0  0  0  0  0  0  0  0  0  0  0  0
   12.6791  -15.7321   23.7125 O   0  0  0  0  0  0  0  0  0  0  0  0
  2  4  1  0
  2  1  1  0
  3  2  2  0
  5  4  1  0
  5  6  1  0
  6  7  1  6
  8  6  1  0
  9  8  2  0
 10  8  1  0
 11 10  1  0
 11 14  1  0
 11 12  1  1
 13 12  1  0
 14 16  1  0
 15 14  2  0
 16 17  1  0
 17 18  1  1
 17 22  1  0
 19 20  1  0
 19 18  1  0
 20 24  1  0
 21 20  2  0
 22 23  2  0
 22 25  1  0
M  END
$$$$
