QCE.pdb
     RDKit          3D

 25 24  0  0  1  0  0  0  0  0999 V2000
    9.4273  -12.1941   18.4304 N   0  0  0  0  0  0  0  0  0  0  0  0
   10.5876  -12.8452   18.9100 C   0  0  0  0  0  0  0  0  0  0  0  0
   11.6688  -12.2185   18.9049 O   0  0  0  0  0  0  0  0  0  0  0  0
   10.5197  -14.2230   19.4022 C   0  0  0  0  0  0  0  0  0  0  0  0
    9.1721  -14.8570   19.3907 C   0  0  0  0  0  0  0  0  0  0  0  0
    9.1012  -16.2432   19.9604 C   0  0  2  0  0  0  0  0  0  0  0  0
    8.3905  -17.1000   19.0434 N   0  0  0  0  0  0  0  0  0  0  0  0
    8.5056  -16.1517   21.2997 C   0  0  0  0  0  0  0  0  0  0  0  0
    7.4041  -15.5443   21.4051 O   0  0  0  0  0  0  0  0  0  0  0  0
    9.0442  -16.6769   22.4982 N   0  0  0  0  0  0  0  0  0  0  0  0
    8.2213  -16.9072   23.6771 C   0  0  1  0  0  0  0  0  0  0  0  0
    7.1100  -17.8320   23.2646 C   0  0  0  0  0  0  0  0  0  0  0  0
    6.1930  -18.4880   24.6647 S   0  0  0  0  0  0  0  0  0  0  0  0
    9.0303  -17.4201   24.8013 C   0  0  0  0  0  0  0  0  0  0  0  0
    9.7520  -18.4283   24.6675 O   0  0  0  0  0  0  0  0  0  0  0  0
    9.0261  -16.7872   26.1013 N   0  0  0  0  0  0  0  0  0  0  0  0
   10.0856  -17.0385   27.0770 C   0  0  1  0  0  0  0  0  0  0  0  0
    9.9138  -16.0256   28.1868 C   0  0  0  0  0  0  0  0  0  0  0  0
   10.9230  -16.1908   29.3038 C   0  0  0  0  0  0  0  0  0  0  0  0
   10.6095  -15.2083   30.3808 C   0  0  0  0  0  0  0  0  0  0  0  0
    9.7529  -15.5397   31.2593 O   0  0  0  0  0  0  0  0  0  0  0  0
   10.0240  -18.4306   27.5645 C   0  0  0  0  0  0  0  0  0  0  0  0
   11.0830  -18.9712   27.9931 O   0  0  0  0  0  0  0  0  0  0  0  0
   11.2222  -13.9779   30.4371 O   0  0  0  0  0  0  0  0  0  0  0  0
    8.8637  -19.1799   27.5793 O   0  0  0  0  0  0  0  0  0  0  0  0
  2  4  1  0
  2  1  1  0
  3  2  2  0
  5  4  1  0
  5  6  1  0
  6  7  1  6
  8  6  1  0
  9  8  2  0
 10  8  1  0
 11 10  1  0
 11 14  1  0
 11 12  1  6
 13 12  1  0
 14 16  1  0
 15 14  2  0
 16 17  1  0
 17 18  1  1
 17 22  1  0
 19 20  1  0
 19 18  1  0
 20 24  1  0
 21 20  2  0
 22 23  2  0
 22 25  1  0
M  END
$$$$
