QCE.pdb
     RDKit          3D

 25 24  0  0  1  0  0  0  0  0999 V2000
    6.5888  -17.6551   19.5039 N   0  0  0  0  0  0  0  0  0  0  0  0
    6.9305  -16.7766   18.4495 C   0  0  0  0  0  0  0  0  0  0  0  0
    6.7017  -17.1368   17.2748 O   0  0  0  0  0  0  0  0  0  0  0  0
    7.5376  -15.4739   18.7315 C   0  0  0  0  0  0  0  0  0  0  0  0
    7.7595  -15.1520   20.1686 C   0  0  0  0  0  0  0  0  0  0  0  0
    7.4374  -13.7446   20.5766 C   0  0  2  0  0  0  0  0  0  0  0  0
    7.9941  -12.8289   19.6113 N   0  0  0  0  0  0  0  0  0  0  0  0
    7.9165  -13.5514   21.9513 C   0  0  0  0  0  0  0  0  0  0  0  0
    9.1649  -13.4929   22.1283 O   0  0  0  0  0  0  0  0  0  0  0  0
    7.1165  -13.4249   23.1117 N   0  0  0  0  0  0  0  0  0  0  0  0
    7.6895  -13.4549   24.4499 C   0  0  1  0  0  0  0  0  0  0  0  0
    6.7658  -12.6731   25.3420 C   0  0  0  0  0  0  0  0  0  0  0  0
    7.2141  -12.7851   27.0793 S   0  0  0  0  0  0  0  0  0  0  0  0
    7.9151  -14.8422   24.9034 C   0  0  0  0  0  0  0  0  0  0  0  0
    6.9858  -15.6737   24.9180 O   0  0  0  0  0  0  0  0  0  0  0  0
    9.2110  -15.3024   25.3502 N   0  0  0  0  0  0  0  0  0  0  0  0
    9.4052  -16.6573   25.8643 C   0  0  1  0  0  0  0  0  0  0  0  0
   10.2787  -17.3869   24.8685 C   0  0  0  0  0  0  0  0  0  0  0  0
   11.7310  -17.4584   25.2920 C   0  0  0  0  0  0  0  0  0  0  0  0
   12.5510  -17.8779   24.1193 C   0  0  0  0  0  0  0  0  0  0  0  0
   12.8230  -17.0030   23.2384 O   0  0  0  0  0  0  0  0  0  0  0  0
    9.9954  -16.6204   27.2170 C   0  0  0  0  0  0  0  0  0  0  0  0
   10.5414  -15.5512   27.6123 O   0  0  0  0  0  0  0  0  0  0  0  0
   13.0090  -19.1678   23.9822 O   0  0  0  0  0  0  0  0  0  0  0  0
    9.9824  -17.6978   28.0814 O   0  0  0  0  0  0  0  0  0  0  0  0
  2  4  1  0
  2  1  1  0
  3  2  2  0
  5  4  1  0
  5  6  1  0
  6  7  1  6
  8  6  1  0
  9  8  2  0
 10  8  1  0
 11 10  1  0
 11 14  1  0
 11 12  1  1
 13 12  1  0
 14 16  1  0
 15 14  2  0
 16 17  1  0
 17 18  1  6
 17 22  1  0
 19 20  1  0
 19 18  1  0
 20 24  1  0
 21 20  2  0
 22 23  2  0
 22 25  1  0
M  END
$$$$
