QCE.pdb
     RDKit          3D

 25 24  0  0  1  0  0  0  0  0999 V2000
    9.7392  -13.6444   17.9499 N   0  0  0  0  0  0  0  0  0  0  0  0
    8.3569  -13.5407   17.6692 C   0  0  0  0  0  0  0  0  0  0  0  0
    7.9809  -13.6296   16.4806 O   0  0  0  0  0  0  0  0  0  0  0  0
    7.3900  -13.3347   18.7499 C   0  0  0  0  0  0  0  0  0  0  0  0
    7.9481  -13.3008   20.1303 C   0  0  0  0  0  0  0  0  0  0  0  0
    7.6378  -14.4933   20.9862 C   0  0  2  0  0  0  0  0  0  0  0  0
    6.2076  -14.6572   21.0758 N   0  0  0  0  0  0  0  0  0  0  0  0
    8.3155  -14.3125   22.2765 C   0  0  0  0  0  0  0  0  0  0  0  0
    9.5769  -14.2657   22.2683 O   0  0  0  0  0  0  0  0  0  0  0  0
    7.6959  -14.1862   23.5424 N   0  0  0  0  0  0  0  0  0  0  0  0
    8.4591  -14.2276   24.7817 C   0  0  1  0  0  0  0  0  0  0  0  0
    7.6435  -13.5159   25.8251 C   0  0  0  0  0  0  0  0  0  0  0  0
    5.9366  -14.0775   25.8785 S   0  0  0  0  0  0  0  0  0  0  0  0
    8.8070  -15.6152   25.1486 C   0  0  0  0  0  0  0  0  0  0  0  0
    7.9725  -16.5362   25.0474 O   0  0  0  0  0  0  0  0  0  0  0  0
   10.1190  -15.9731   25.6401 N   0  0  0  0  0  0  0  0  0  0  0  0
   10.4270  -17.3347   26.0744 C   0  0  1  0  0  0  0  0  0  0  0  0
   11.7210  -17.7317   25.4000 C   0  0  0  0  0  0  0  0  0  0  0  0
   11.6094  -17.7962   23.8910 C   0  0  0  0  0  0  0  0  0  0  0  0
   12.9767  -17.6901   23.3053 C   0  0  0  0  0  0  0  0  0  0  0  0
   13.9573  -17.5507   24.1018 O   0  0  0  0  0  0  0  0  0  0  0  0
   10.5096  -17.4047   27.5467 C   0  0  0  0  0  0  0  0  0  0  0  0
   10.4453  -16.3308   28.2102 O   0  0  0  0  0  0  0  0  0  0  0  0
   13.1869  -17.7426   21.9468 O   0  0  0  0  0  0  0  0  0  0  0  0
   10.6530  -18.5882   28.2445 O   0  0  0  0  0  0  0  0  0  0  0  0
  2  4  1  0
  2  1  1  0
  3  2  2  0
  5  4  1  0
  5  6  1  0
  6  7  1  1
  8  6  1  0
  9  8  2  0
 10  8  1  0
 11 10  1  0
 11 14  1  0
 11 12  1  1
 13 12  1  0
 14 16  1  0
 15 14  2  0
 16 17  1  0
 17 18  1  6
 17 22  1  0
 19 20  1  0
 19 18  1  0
 20 24  1  0
 21 20  2  0
 22 23  2  0
 22 25  1  0
M  END
$$$$
