QCE.pdb
     RDKit          3D

 25 24  0  0  1  0  0  0  0  0999 V2000
   15.6593  -25.2126   24.6601 N   0  0  0  0  0  0  0  0  0  0  0  0
   14.4962  -25.6958   24.0168 C   0  0  0  0  0  0  0  0  0  0  0  0
   14.5755  -26.7537   23.3562 O   0  0  0  0  0  0  0  0  0  0  0  0
   13.2283  -24.9707   24.1253 C   0  0  0  0  0  0  0  0  0  0  0  0
   13.2445  -23.7464   24.9732 C   0  0  0  0  0  0  0  0  0  0  0  0
   11.9066  -23.2795   25.4662 C   0  0  2  0  0  0  0  0  0  0  0  0
   11.1437  -22.7614   24.3572 N   0  0  0  0  0  0  0  0  0  0  0  0
   12.1352  -22.3196   26.5539 C   0  0  0  0  0  0  0  0  0  0  0  0
   13.2320  -21.6948   26.5559 O   0  0  0  0  0  0  0  0  0  0  0  0
   11.2460  -22.0202   27.6132 N   0  0  0  0  0  0  0  0  0  0  0  0
   11.5760  -21.0470   28.6447 C   0  0  1  0  0  0  0  0  0  0  0  0
   10.4241  -20.0844   28.7266 C   0  0  0  0  0  0  0  0  0  0  0  0
   10.4055  -19.1482   30.2612 S   0  0  0  0  0  0  0  0  0  0  0  0
   11.8831  -21.7115   29.9274 C   0  0  0  0  0  0  0  0  0  0  0  0
   11.1236  -22.5803   30.4002 O   0  0  0  0  0  0  0  0  0  0  0  0
   13.0670  -21.3915   30.6934 N   0  0  0  0  0  0  0  0  0  0  0  0
   13.3225  -22.0031   31.9965 C   0  0  1  0  0  0  0  0  0  0  0  0
   14.8225  -22.1353   32.1363 C   0  0  0  0  0  0  0  0  0  0  0  0
   15.2426  -22.7994   33.4310 C   0  0  0  0  0  0  0  0  0  0  0  0
   16.7322  -22.8230   33.4950 C   0  0  0  0  0  0  0  0  0  0  0  0
   17.2767  -23.3152   34.5326 O   0  0  0  0  0  0  0  0  0  0  0  0
   12.7207  -21.1963   33.0765 C   0  0  0  0  0  0  0  0  0  0  0  0
   12.3385  -20.0203   32.8150 O   0  0  0  0  0  0  0  0  0  0  0  0
   17.5073  -22.3333   32.4693 O   0  0  0  0  0  0  0  0  0  0  0  0
   12.5496  -21.6600   34.3665 O   0  0  0  0  0  0  0  0  0  0  0  0
  2  4  1  0
  2  1  1  0
  3  2  2  0
  5  4  1  0
  5  6  1  0
  6  7  1  6
  8  6  1  0
  9  8  2  0
 10  8  1  0
 11 10  1  0
 11 14  1  0
 11 12  1  1
 13 12  1  0
 14 16  1  0
 15 14  2  0
 16 17  1  0
 17 18  1  1
 17 22  1  0
 19 20  1  0
 19 18  1  0
 20 24  1  0
 21 20  2  0
 22 23  2  0
 22 25  1  0
M  END
$$$$
