QCE.pdb
     RDKit          3D

 25 24  0  0  1  0  0  0  0  0999 V2000
    7.8396  -17.3766   20.9689 N   0  0  0  0  0  0  0  0  0  0  0  0
    8.1820  -16.8065   19.7207 C   0  0  0  0  0  0  0  0  0  0  0  0
    8.9440  -17.4439   18.9624 O   0  0  0  0  0  0  0  0  0  0  0  0
    7.6526  -15.4985   19.3280 C   0  0  0  0  0  0  0  0  0  0  0  0
    6.7150  -14.8558   20.2902 C   0  0  0  0  0  0  0  0  0  0  0  0
    7.0689  -13.4588   20.7077 C   0  0  2  0  0  0  0  0  0  0  0  0
    7.8947  -12.8522   19.6926 N   0  0  0  0  0  0  0  0  0  0  0  0
    7.6857  -13.5272   22.0387 C   0  0  0  0  0  0  0  0  0  0  0  0
    8.9466  -13.5480   22.0940 O   0  0  0  0  0  0  0  0  0  0  0  0
    7.0072  -13.5751   23.2795 N   0  0  0  0  0  0  0  0  0  0  0  0
    7.7202  -13.6871   24.5442 C   0  0  1  0  0  0  0  0  0  0  0  0
    6.8328  -13.0955   25.6038 C   0  0  0  0  0  0  0  0  0  0  0  0
    5.1906  -13.8267   25.6259 S   0  0  0  0  0  0  0  0  0  0  0  0
    8.1121  -15.0851   24.8144 C   0  0  0  0  0  0  0  0  0  0  0  0
    7.3901  -16.0367   24.4563 O   0  0  0  0  0  0  0  0  0  0  0  0
    9.3396  -15.4188   25.5019 N   0  0  0  0  0  0  0  0  0  0  0  0
    9.8057  -16.8006   25.6063 C   0  0  1  0  0  0  0  0  0  0  0  0
   11.1018  -16.8897   24.8323 C   0  0  0  0  0  0  0  0  0  0  0  0
   11.7107  -18.2763   24.8501 C   0  0  0  0  0  0  0  0  0  0  0  0
   12.9772  -18.2525   24.0635 C   0  0  0  0  0  0  0  0  0  0  0  0
   14.0639  -18.4975   24.6755 O   0  0  0  0  0  0  0  0  0  0  0  0
    9.9616  -17.1912   27.0214 C   0  0  0  0  0  0  0  0  0  0  0  0
   10.2347  -18.3951   27.2926 O   0  0  0  0  0  0  0  0  0  0  0  0
   12.9856  -17.9782   22.7154 O   0  0  0  0  0  0  0  0  0  0  0  0
    9.8259  -16.3062   28.0734 O   0  0  0  0  0  0  0  0  0  0  0  0
  2  4  1  0
  2  1  1  0
  3  2  2  0
  5  4  1  0
  5  6  1  0
  6  7  1  6
  8  6  1  0
  9  8  2  0
 10  8  1  0
 11 10  1  0
 11 14  1  0
 11 12  1  1
 13 12  1  0
 14 16  1  0
 15 14  2  0
 16 17  1  0
 17 18  1  6
 17 22  1  0
 19 20  1  0
 19 18  1  0
 20 24  1  0
 21 20  2  0
 22 23  2  0
 22 25  1  0
M  END
$$$$
