QCE.pdb
     RDKit          3D

 25 24  0  0  1  0  0  0  0  0999 V2000
    8.6693  -12.5789   19.1208 N   0  0  0  0  0  0  0  0  0  0  0  0
    8.8567  -13.4242   18.0025 C   0  0  0  0  0  0  0  0  0  0  0  0
    9.1045  -12.9019   16.8945 O   0  0  0  0  0  0  0  0  0  0  0  0
    8.7628  -14.8790   18.1436 C   0  0  0  0  0  0  0  0  0  0  0  0
    8.4044  -15.3839   19.4981 C   0  0  0  0  0  0  0  0  0  0  0  0
    8.3514  -16.8764   19.6423 C   0  0  2  0  0  0  0  0  0  0  0  0
    7.5121  -17.4262   18.6062 N   0  0  0  0  0  0  0  0  0  0  0  0
    7.9155  -17.1833   21.0107 C   0  0  0  0  0  0  0  0  0  0  0  0
    6.8046  -17.7664   21.1492 O   0  0  0  0  0  0  0  0  0  0  0  0
    8.6171  -16.8885   22.2037 N   0  0  0  0  0  0  0  0  0  0  0  0
    8.1395  -17.3275   23.5073 C   0  0  1  0  0  0  0  0  0  0  0  0
    8.1364  -18.8308   23.4917 C   0  0  0  0  0  0  0  0  0  0  0  0
    7.9375  -19.5446   25.1296 S   0  0  0  0  0  0  0  0  0  0  0  0
    8.9524  -16.7495   24.5964 C   0  0  0  0  0  0  0  0  0  0  0  0
   10.1808  -16.9541   24.6609 O   0  0  0  0  0  0  0  0  0  0  0  0
    8.3716  -15.9263   25.6337 N   0  0  0  0  0  0  0  0  0  0  0  0
    9.2041  -15.1212   26.5262 C   0  0  1  0  0  0  0  0  0  0  0  0
    8.3577  -13.9568   26.9894 C   0  0  0  0  0  0  0  0  0  0  0  0
    7.3868  -13.4705   25.9337 C   0  0  0  0  0  0  0  0  0  0  0  0
    6.6354  -12.3025   26.4766 C   0  0  0  0  0  0  0  0  0  0  0  0
    6.9042  -11.9174   27.6576 O   0  0  0  0  0  0  0  0  0  0  0  0
    9.7063  -15.9395   27.6476 C   0  0  0  0  0  0  0  0  0  0  0  0
    9.1900  -17.0754   27.8493 O   0  0  0  0  0  0  0  0  0  0  0  0
    5.6795  -11.6495   25.7334 O   0  0  0  0  0  0  0  0  0  0  0  0
   10.7180  -15.5296   28.4941 O   0  0  0  0  0  0  0  0  0  0  0  0
  2  4  1  0
  2  1  1  0
  3  2  2  0
  5  4  1  0
  5  6  1  0
  6  7  1  6
  8  6  1  0
  9  8  2  0
 10  8  1  0
 11 10  1  0
 11 14  1  0
 11 12  1  6
 13 12  1  0
 14 16  1  0
 15 14  2  0
 16 17  1  0
 17 18  1  1
 17 22  1  0
 19 20  1  0
 19 18  1  0
 20 24  1  0
 21 20  2  0
 22 23  2  0
 22 25  1  0
M  END
$$$$
