HEM.pdb
     RDKit          3D

 28 28  0  0  1  0  0  0  0  0999 V2000
   27.1097  -20.7079  -16.8586 N   0  0  0  0  0  0  0  0  0  0  0  0
   27.5441  -21.2163  -15.5702 C   0  0  1  0  0  0  0  0  0  0  0  0
   29.0517  -21.0468  -15.5239 C   0  0  0  0  0  0  0  0  0  0  0  0
   29.6128  -21.9814  -16.5348 C   0  0  0  0  0  0  0  0  0  0  0  0
   29.8449  -23.3262  -16.3268 C   0  0  0  0  0  0  0  0  0  0  0  0
   30.3603  -23.8807  -17.4317 N   0  0  0  0  0  0  0  0  0  0  0  0
   30.4583  -22.9046  -18.3375 C   0  0  0  0  0  0  0  0  0  0  0  0
   30.0020  -21.7307  -17.7976 N   0  0  0  0  0  0  0  0  0  0  0  0
   26.8471  -20.5282  -14.4536 C   0  0  0  0  0  0  0  0  0  0  0  0
   27.3192  -19.4491  -14.0144 O   0  0  0  0  0  0  0  0  0  0  0  0
   25.6840  -21.1436  -13.9511 N   0  0  0  0  0  0  0  0  0  0  0  0
   24.9353  -20.5582  -12.8844 C   0  0  1  0  0  0  0  0  0  0  0  0
   23.4496  -20.6220  -13.0242 C   0  0  0  0  0  0  0  0  0  0  0  0
   22.6758  -20.1378  -11.8525 C   0  0  0  0  0  0  0  0  0  0  0  0
   21.2201  -20.2609  -11.9464 C   0  0  0  0  0  0  0  0  0  0  0  0
   20.6642  -21.0121  -12.8145 O   0  0  0  0  0  0  0  0  0  0  0  0
   25.3596  -21.1580  -11.5765 C   0  0  0  0  0  0  0  0  0  0  0  0
   25.3608  -22.4010  -11.3829 O   0  0  0  0  0  0  0  0  0  0  0  0
   20.4028  -19.5387  -11.0640 O   0  0  0  0  0  0  0  0  0  0  0  0
   29.1625  -19.4707   -4.7594 C   0  0  0  0  0  0  0  0  0  0  0  0
   28.5627  -19.0534   -6.3761 S   0  0  0  0  0  0  0  0  0  0  0  0
   27.4200  -20.1874   -7.1366 C   0  0  0  0  0  0  0  0  0  0  0  0
   27.0489  -19.8833   -8.5500 C   0  0  0  0  0  0  0  0  0  0  0  0
   26.1311  -20.8477   -9.2074 C   0  0  2  0  0  0  0  0  0  0  0  0
   25.7698  -20.3136  -10.5279 N   0  0  0  0  0  0  0  0  0  0  0  0
   24.8917  -21.0873   -8.4057 C   0  0  0  0  0  0  0  0  0  0  0  0
   23.8103  -20.4753   -8.7273 O   0  0  0  0  0  0  0  0  0  0  0  0
   24.8035  -21.9226   -7.3290 O   0  0  0  0  0  0  0  0  0  0  0  0
  2  9  1  0
  2  1  1  6
  3  2  1  0
  4  8  1  0
  4  3  1  0
  5  4  2  0
  6  5  1  0
  6  7  1  0
  7  8  2  0
  9 11  1  0
 10  9  2  0
 11 12  1  0
 12 13  1  6
 13 14  1  0
 15 14  1  0
 15 19  1  0
 16 15  2  0
 17 18  2  0
 17 12  1  0
 20 21  1  0
 21 22  1  0
 22 23  1  0
 24 23  1  1
 24 26  1  0
 24 25  1  0
 25 17  1  0
 26 28  1  0
 27 26  2  0
M  END
$$$$
