HEM.pdb
     RDKit          3D

 28 28  0  0  1  0  0  0  0  0999 V2000
   27.0165  -16.7987  -17.6292 N   0  0  0  0  0  0  0  0  0  0  0  0
   27.5094  -17.7749  -16.6746 C   0  0  1  0  0  0  0  0  0  0  0  0
   28.8943  -17.3131  -16.2591 C   0  0  0  0  0  0  0  0  0  0  0  0
   29.7576  -17.4311  -17.4637 C   0  0  0  0  0  0  0  0  0  0  0  0
   29.3190  -17.8038  -18.7184 C   0  0  0  0  0  0  0  0  0  0  0  0
   30.3452  -17.8192  -19.5790 N   0  0  0  0  0  0  0  0  0  0  0  0
   31.4289  -17.4614  -18.8859 C   0  0  0  0  0  0  0  0  0  0  0  0
   31.0806  -17.2205  -17.5826 N   0  0  0  0  0  0  0  0  0  0  0  0
   26.5788  -17.9278  -15.5271 C   0  0  0  0  0  0  0  0  0  0  0  0
   26.2858  -16.9152  -14.8421 O   0  0  0  0  0  0  0  0  0  0  0  0
   26.0799  -19.2211  -15.2775 N   0  0  0  0  0  0  0  0  0  0  0  0
   25.1059  -19.4581  -14.2596 C   0  0  1  0  0  0  0  0  0  0  0  0
   23.8176  -20.0561  -14.7220 C   0  0  0  0  0  0  0  0  0  0  0  0
   22.8206  -20.3296  -13.6555 C   0  0  0  0  0  0  0  0  0  0  0  0
   21.5677  -20.9505  -14.0889 C   0  0  0  0  0  0  0  0  0  0  0  0
   21.4832  -22.2019  -14.3209 O   0  0  0  0  0  0  0  0  0  0  0  0
   25.7044  -20.2955  -13.1683 C   0  0  0  0  0  0  0  0  0  0  0  0
   26.3529  -21.3452  -13.4138 O   0  0  0  0  0  0  0  0  0  0  0  0
   20.4215  -20.1592  -14.2578 O   0  0  0  0  0  0  0  0  0  0  0  0
   29.5884  -19.4774   -7.3434 C   0  0  0  0  0  0  0  0  0  0  0  0
   27.8234  -19.6004   -7.2111 S   0  0  0  0  0  0  0  0  0  0  0  0
   26.9867  -20.6106   -8.4150 C   0  0  0  0  0  0  0  0  0  0  0  0
   26.6470  -19.9370   -9.7029 C   0  0  0  0  0  0  0  0  0  0  0  0
   25.9555  -20.7734  -10.7162 C   0  0  2  0  0  0  0  0  0  0  0  0
   25.5409  -19.9042  -11.8263 N   0  0  0  0  0  0  0  0  0  0  0  0
   24.7605  -21.4740  -10.1529 C   0  0  0  0  0  0  0  0  0  0  0  0
   23.5874  -21.0396  -10.4401 O   0  0  0  0  0  0  0  0  0  0  0  0
   24.8054  -22.5664   -9.3348 O   0  0  0  0  0  0  0  0  0  0  0  0
  2  9  1  0
  2  1  1  6
  3  2  1  0
  4  8  1  0
  4  3  1  0
  5  4  2  0
  6  5  1  0
  6  7  1  0
  7  8  2  0
  9 11  1  0
 10  9  2  0
 11 12  1  0
 12 13  1  6
 13 14  1  0
 15 14  1  0
 15 19  1  0
 16 15  2  0
 17 18  2  0
 17 12  1  0
 20 21  1  0
 21 22  1  0
 22 23  1  0
 24 23  1  1
 24 26  1  0
 24 25  1  0
 25 17  1  0
 26 28  1  0
 27 26  2  0
M  END
$$$$
