HEM.pdb
     RDKit          3D

 28 28  0  0  1  0  0  0  0  0999 V2000
   23.7593  -15.7656  -20.5775 N   0  0  0  0  0  0  0  0  0  0  0  0
   22.6740  -14.9459  -20.0700 C   0  0  1  0  0  0  0  0  0  0  0  0
   22.2710  -15.5408  -18.7330 C   0  0  0  0  0  0  0  0  0  0  0  0
   21.7163  -16.8896  -19.0211 C   0  0  0  0  0  0  0  0  0  0  0  0
   21.6410  -17.4633  -20.2744 C   0  0  0  0  0  0  0  0  0  0  0  0
   21.0845  -18.6788  -20.1917 N   0  0  0  0  0  0  0  0  0  0  0  0
   20.8057  -18.8830  -18.9020 C   0  0  0  0  0  0  0  0  0  0  0  0
   21.1891  -17.7889  -18.1713 N   0  0  0  0  0  0  0  0  0  0  0  0
   23.0724  -13.5182  -19.9748 C   0  0  0  0  0  0  0  0  0  0  0  0
   24.2357  -13.2354  -19.5913 O   0  0  0  0  0  0  0  0  0  0  0  0
   22.1017  -12.5597  -20.3250 N   0  0  0  0  0  0  0  0  0  0  0  0
   22.3790  -11.1602  -20.2515 C   0  0  1  0  0  0  0  0  0  0  0  0
   21.3214  -10.2601  -20.8014 C   0  0  0  0  0  0  0  0  0  0  0  0
   21.6802   -8.8205  -20.8717 C   0  0  0  0  0  0  0  0  0  0  0  0
   20.6600   -7.9287  -21.4259 C   0  0  0  0  0  0  0  0  0  0  0  0
   19.5753   -7.6796  -20.8026 O   0  0  0  0  0  0  0  0  0  0  0  0
   22.7003  -10.7791  -18.8366 C   0  0  0  0  0  0  0  0  0  0  0  0
   22.0592  -11.2446  -17.8595 O   0  0  0  0  0  0  0  0  0  0  0  0
   20.8682   -7.3255  -22.6752 O   0  0  0  0  0  0  0  0  0  0  0  0
   28.0332  -11.1544  -13.6423 C   0  0  0  0  0  0  0  0  0  0  0  0
   27.6546  -10.7183  -15.3199 S   0  0  0  0  0  0  0  0  0  0  0  0
   26.0871   -9.9293  -15.6205 C   0  0  0  0  0  0  0  0  0  0  0  0
   25.4699  -10.2000  -16.9522 C   0  0  0  0  0  0  0  0  0  0  0  0
   24.1645   -9.5431  -17.2140 C   0  0  2  0  0  0  0  0  0  0  0  0
   23.7482   -9.8741  -18.5840 N   0  0  0  0  0  0  0  0  0  0  0  0
   24.2355   -8.0578  -17.0552 C   0  0  0  0  0  0  0  0  0  0  0  0
   24.5074   -7.3314  -18.0778 O   0  0  0  0  0  0  0  0  0  0  0  0
   24.0322   -7.3838  -15.8852 O   0  0  0  0  0  0  0  0  0  0  0  0
  2  9  1  0
  2  1  1  1
  3  2  1  0
  4  8  1  0
  4  3  1  0
  5  4  2  0
  6  5  1  0
  6  7  1  0
  7  8  2  0
  9 11  1  0
 10  9  2  0
 11 12  1  0
 12 13  1  1
 13 14  1  0
 15 14  1  0
 15 19  1  0
 16 15  2  0
 17 18  2  0
 17 12  1  0
 20 21  1  0
 21 22  1  0
 22 23  1  0
 24 23  1  6
 24 26  1  0
 24 25  1  0
 25 17  1  0
 26 28  1  0
 27 26  2  0
M  END
$$$$
