HEM.pdb
     RDKit          3D

 28 28  0  0  1  0  0  0  0  0999 V2000
   17.6787   -9.4674  -16.8021 N   0  0  0  0  0  0  0  0  0  0  0  0
   17.3956   -9.3439  -15.3837 C   0  0  1  0  0  0  0  0  0  0  0  0
   17.4932  -10.7415  -14.7997 C   0  0  0  0  0  0  0  0  0  0  0  0
   16.2531  -11.4552  -15.2034 C   0  0  0  0  0  0  0  0  0  0  0  0
   16.1680  -12.3764  -16.2280 C   0  0  0  0  0  0  0  0  0  0  0  0
   14.9118  -12.8279  -16.3380 N   0  0  0  0  0  0  0  0  0  0  0  0
   14.1993  -12.2045  -15.3964 C   0  0  0  0  0  0  0  0  0  0  0  0
   15.0132  -11.3566  -14.6918 N   0  0  0  0  0  0  0  0  0  0  0  0
   18.3130   -8.3755  -14.7307 C   0  0  0  0  0  0  0  0  0  0  0  0
   18.2578   -8.2311  -13.4831 O   0  0  0  0  0  0  0  0  0  0  0  0
   19.1979   -7.6694  -15.5687 N   0  0  0  0  0  0  0  0  0  0  0  0
   20.2110   -6.8180  -15.0305 C   0  0  1  0  0  0  0  0  0  0  0  0
   21.5972   -7.3742  -15.0394 C   0  0  0  0  0  0  0  0  0  0  0  0
   21.9559   -8.1778  -16.2360 C   0  0  0  0  0  0  0  0  0  0  0  0
   23.3045   -8.7472  -16.2488 C   0  0  0  0  0  0  0  0  0  0  0  0
   24.0885   -8.6398  -15.2484 O   0  0  0  0  0  0  0  0  0  0  0  0
   20.1807   -5.4892  -15.7261 C   0  0  0  0  0  0  0  0  0  0  0  0
   20.0013   -5.3910  -16.9673 O   0  0  0  0  0  0  0  0  0  0  0  0
   23.7594   -9.4318  -17.3858 O   0  0  0  0  0  0  0  0  0  0  0  0
   16.7088    1.0933  -16.7043 C   0  0  0  0  0  0  0  0  0  0  0  0
   17.0105   -0.5590  -16.1326 S   0  0  0  0  0  0  0  0  0  0  0  0
   18.7018   -1.1151  -16.1105 C   0  0  0  0  0  0  0  0  0  0  0  0
   18.9197   -2.5084  -15.6219 C   0  0  0  0  0  0  0  0  0  0  0  0
   20.3257   -2.9852  -15.6100 C   0  0  2  0  0  0  0  0  0  0  0  0
   20.3577   -4.3109  -14.9768 N   0  0  0  0  0  0  0  0  0  0  0  0
   21.2338   -2.0537  -14.8724 C   0  0  0  0  0  0  0  0  0  0  0  0
   21.3568   -2.1760  -13.6007 O   0  0  0  0  0  0  0  0  0  0  0  0
   21.9654   -1.0538  -15.4463 O   0  0  0  0  0  0  0  0  0  0  0  0
  2  9  1  0
  2  1  1  6
  3  2  1  0
  4  8  1  0
  4  3  1  0
  5  4  2  0
  6  5  1  0
  6  7  1  0
  7  8  2  0
  9 11  1  0
 10  9  2  0
 11 12  1  0
 12 13  1  6
 13 14  1  0
 15 14  1  0
 15 19  1  0
 16 15  2  0
 17 18  2  0
 17 12  1  0
 20 21  1  0
 21 22  1  0
 22 23  1  0
 24 23  1  1
 24 26  1  0
 24 25  1  0
 25 17  1  0
 26 28  1  0
 27 26  2  0
M  END
$$$$
