HEM.pdb
     RDKit          3D

 28 28  0  0  1  0  0  0  0  0999 V2000
   17.0547  -13.7566  -17.9422 N   0  0  0  0  0  0  0  0  0  0  0  0
   17.2515  -12.9606  -16.7443 C   0  0  1  0  0  0  0  0  0  0  0  0
   17.8842  -13.8782  -15.7140 C   0  0  0  0  0  0  0  0  0  0  0  0
   16.8304  -14.8437  -15.3049 C   0  0  0  0  0  0  0  0  0  0  0  0
   15.7590  -14.5466  -14.4868 C   0  0  0  0  0  0  0  0  0  0  0  0
   15.0005  -15.6358  -14.3075 N   0  0  0  0  0  0  0  0  0  0  0  0
   15.5775  -16.6200  -15.0012 C   0  0  0  0  0  0  0  0  0  0  0  0
   16.7049  -16.1455  -15.6191 N   0  0  0  0  0  0  0  0  0  0  0  0
   18.0674  -11.7518  -17.0254 C   0  0  0  0  0  0  0  0  0  0  0  0
   19.2433  -11.8956  -17.4461 O   0  0  0  0  0  0  0  0  0  0  0  0
   17.4585  -10.5028  -16.7952 N   0  0  0  0  0  0  0  0  0  0  0  0
   18.1640   -9.2802  -17.0160 C   0  0  1  0  0  0  0  0  0  0  0  0
   17.3285   -8.0422  -17.0241 C   0  0  0  0  0  0  0  0  0  0  0  0
   16.2770   -7.9873  -18.0717 C   0  0  0  0  0  0  0  0  0  0  0  0
   15.4025   -6.8135  -18.0457 C   0  0  0  0  0  0  0  0  0  0  0  0
   14.2280   -6.8618  -17.5504 O   0  0  0  0  0  0  0  0  0  0  0  0
   19.2773   -9.1485  -16.0192 C   0  0  0  0  0  0  0  0  0  0  0  0
   19.1457   -9.5116  -14.8219 O   0  0  0  0  0  0  0  0  0  0  0  0
   15.8560   -5.5967  -18.5765 O   0  0  0  0  0  0  0  0  0  0  0  0
   26.1867  -11.1923  -14.4479 C   0  0  0  0  0  0  0  0  0  0  0  0
   25.3432  -10.2584  -15.6985 S   0  0  0  0  0  0  0  0  0  0  0  0
   24.0191   -9.1949  -15.1640 C   0  0  0  0  0  0  0  0  0  0  0  0
   22.7662   -9.2634  -15.9721 C   0  0  0  0  0  0  0  0  0  0  0  0
   21.6275   -8.4449  -15.4844 C   0  0  2  0  0  0  0  0  0  0  0  0
   20.5096   -8.6030  -16.4251 N   0  0  0  0  0  0  0  0  0  0  0  0
   21.9812   -6.9970  -15.3628 C   0  0  0  0  0  0  0  0  0  0  0  0
   21.8272   -6.2278  -16.3787 O   0  0  0  0  0  0  0  0  0  0  0  0
   22.4692   -6.4011  -14.2353 O   0  0  0  0  0  0  0  0  0  0  0  0
  2  9  1  0
  2  1  1  6
  3  2  1  0
  4  8  1  0
  4  3  1  0
  5  4  2  0
  6  5  1  0
  6  7  1  0
  7  8  2  0
  9 11  1  0
 10  9  2  0
 11 12  1  0
 12 13  1  1
 13 14  1  0
 15 14  1  0
 15 19  1  0
 16 15  2  0
 17 18  2  0
 17 12  1  0
 20 21  1  0
 21 22  1  0
 22 23  1  0
 24 23  1  6
 24 26  1  0
 24 25  1  0
 25 17  1  0
 26 28  1  0
 27 26  2  0
M  END
$$$$
