HEM.pdb
     RDKit          3D

 28 28  0  0  1  0  0  0  0  0999 V2000
   19.0270  -14.3132  -18.1817 N   0  0  0  0  0  0  0  0  0  0  0  0
   18.8253  -13.2810  -17.1810 C   0  0  1  0  0  0  0  0  0  0  0  0
   19.1130  -13.9209  -15.8351 C   0  0  0  0  0  0  0  0  0  0  0  0
   18.0497  -14.9362  -15.6146 C   0  0  0  0  0  0  0  0  0  0  0  0
   16.6932  -14.6885  -15.6787 C   0  0  0  0  0  0  0  0  0  0  0  0
   16.0077  -15.8107  -15.4244 N   0  0  0  0  0  0  0  0  0  0  0  0
   16.9122  -16.7668  -15.1996 C   0  0  0  0  0  0  0  0  0  0  0  0
   18.1727  -16.2412  -15.3130 N   0  0  0  0  0  0  0  0  0  0  0  0
   19.6722  -12.0913  -17.4521 C   0  0  0  0  0  0  0  0  0  0  0  0
   20.8473  -12.2620  -17.8646 O   0  0  0  0  0  0  0  0  0  0  0  0
   19.0918  -10.8287  -17.2222 N   0  0  0  0  0  0  0  0  0  0  0  0
   19.8198   -9.6222  -17.4578 C   0  0  1  0  0  0  0  0  0  0  0  0
   19.0088   -8.3680  -17.4714 C   0  0  0  0  0  0  0  0  0  0  0  0
   19.7627   -7.1224  -17.7653 C   0  0  0  0  0  0  0  0  0  0  0  0
   18.9833   -5.8831  -17.7672 C   0  0  0  0  0  0  0  0  0  0  0  0
   17.8552   -5.8001  -18.3567 O   0  0  0  0  0  0  0  0  0  0  0  0
   20.9415   -9.5040  -16.4687 C   0  0  0  0  0  0  0  0  0  0  0  0
   20.7660   -9.6906  -15.2370 O   0  0  0  0  0  0  0  0  0  0  0  0
   19.4791   -4.7489  -17.1069 O   0  0  0  0  0  0  0  0  0  0  0  0
   28.5463  -10.9290  -15.3194 C   0  0  0  0  0  0  0  0  0  0  0  0
   27.0732  -10.8434  -16.3045 S   0  0  0  0  0  0  0  0  0  0  0  0
   25.7257   -9.8689  -15.6685 C   0  0  0  0  0  0  0  0  0  0  0  0
   24.4583   -9.9237  -16.4549 C   0  0  0  0  0  0  0  0  0  0  0  0
   23.3618   -9.0363  -15.9915 C   0  0  2  0  0  0  0  0  0  0  0  0
   22.2326   -9.1742  -16.9218 N   0  0  0  0  0  0  0  0  0  0  0  0
   23.7836   -7.6033  -15.9217 C   0  0  0  0  0  0  0  0  0  0  0  0
   24.1541   -7.1143  -14.7943 O   0  0  0  0  0  0  0  0  0  0  0  0
   23.8100   -6.7413  -16.9804 O   0  0  0  0  0  0  0  0  0  0  0  0
  2  9  1  0
  2  1  1  6
  3  2  1  0
  4  8  1  0
  4  3  1  0
  5  4  2  0
  6  5  1  0
  6  7  1  0
  7  8  2  0
  9 11  1  0
 10  9  2  0
 11 12  1  0
 12 13  1  1
 13 14  1  0
 15 14  1  0
 15 19  1  0
 16 15  2  0
 17 18  2  0
 17 12  1  0
 20 21  1  0
 21 22  1  0
 22 23  1  0
 24 23  1  6
 24 26  1  0
 24 25  1  0
 25 17  1  0
 26 28  1  0
 27 26  2  0
M  END
$$$$
