HEM.pdb
     RDKit          3D

 28 28  0  0  1  0  0  0  0  0999 V2000
   16.9547  -11.8948  -14.7324 N   0  0  0  0  0  0  0  0  0  0  0  0
   16.3120  -10.7726  -15.3919 C   0  0  1  0  0  0  0  0  0  0  0  0
   14.8186  -10.9447  -15.1819 C   0  0  0  0  0  0  0  0  0  0  0  0
   14.4169  -12.1408  -15.9679 C   0  0  0  0  0  0  0  0  0  0  0  0
   13.9156  -12.1112  -17.2538 C   0  0  0  0  0  0  0  0  0  0  0  0
   13.6465  -13.3550  -17.6718 N   0  0  0  0  0  0  0  0  0  0  0  0
   13.9706  -14.1727  -16.6673 C   0  0  0  0  0  0  0  0  0  0  0  0
   14.4454  -13.4377  -15.6127 N   0  0  0  0  0  0  0  0  0  0  0  0
   16.8257   -9.4767  -14.8793 C   0  0  0  0  0  0  0  0  0  0  0  0
   16.3873   -9.0379  -13.7859 O   0  0  0  0  0  0  0  0  0  0  0  0
   17.7854   -8.8132  -15.6684 N   0  0  0  0  0  0  0  0  0  0  0  0
   18.4456   -7.6354  -15.2016 C   0  0  1  0  0  0  0  0  0  0  0  0
   19.9383   -7.6878  -15.1969 C   0  0  0  0  0  0  0  0  0  0  0  0
   20.5404   -8.6785  -14.2684 C   0  0  0  0  0  0  0  0  0  0  0  0
   22.0020   -8.6788  -14.1861 C   0  0  0  0  0  0  0  0  0  0  0  0
   22.6337   -7.8470  -13.4539 O   0  0  0  0  0  0  0  0  0  0  0  0
   17.9706   -6.4441  -15.9798 C   0  0  0  0  0  0  0  0  0  0  0  0
   17.8073   -6.4848  -17.2265 O   0  0  0  0  0  0  0  0  0  0  0  0
   22.7400   -9.6136  -14.9275 O   0  0  0  0  0  0  0  0  0  0  0  0
   12.9615   -0.5225  -16.2147 C   0  0  0  0  0  0  0  0  0  0  0  0
   13.6938   -1.9965  -15.5523 S   0  0  0  0  0  0  0  0  0  0  0  0
   15.3343   -2.4092  -16.1076 C   0  0  0  0  0  0  0  0  0  0  0  0
   15.8946   -3.6882  -15.5804 C   0  0  0  0  0  0  0  0  0  0  0  0
   17.2678   -4.0341  -16.0267 C   0  0  2  0  0  0  0  0  0  0  0  0
   17.6973   -5.2398  -15.3046 N   0  0  0  0  0  0  0  0  0  0  0  0
   18.2406   -2.9259  -15.7780 C   0  0  0  0  0  0  0  0  0  0  0  0
   18.9593   -2.9510  -14.7148 O   0  0  0  0  0  0  0  0  0  0  0  0
   18.4389   -1.8566  -16.6037 O   0  0  0  0  0  0  0  0  0  0  0  0
  2  9  1  0
  2  1  1  1
  3  2  1  0
  4  8  1  0
  4  3  1  0
  5  4  2  0
  6  5  1  0
  6  7  1  0
  7  8  2  0
  9 11  1  0
 10  9  2  0
 11 12  1  0
 12 13  1  6
 13 14  1  0
 15 14  1  0
 15 19  1  0
 16 15  2  0
 17 18  2  0
 17 12  1  0
 20 21  1  0
 21 22  1  0
 22 23  1  0
 24 23  1  1
 24 26  1  0
 24 25  1  0
 25 17  1  0
 26 28  1  0
 27 26  2  0
M  END
$$$$
