HEM.pdb
     RDKit          3D

 28 28  0  0  1  0  0  0  0  0999 V2000
   18.4373  -11.2089  -14.2768 N   0  0  0  0  0  0  0  0  0  0  0  0
   18.2922  -10.3517  -15.4393 C   0  0  1  0  0  0  0  0  0  0  0  0
   16.8020  -10.2174  -15.6948 C   0  0  0  0  0  0  0  0  0  0  0  0
   16.3051  -11.5801  -16.0205 C   0  0  0  0  0  0  0  0  0  0  0  0
   15.4333  -12.3124  -15.2399 C   0  0  0  0  0  0  0  0  0  0  0  0
   15.1910  -13.4998  -15.8102 N   0  0  0  0  0  0  0  0  0  0  0  0
   15.8982  -13.5299  -16.9423 C   0  0  0  0  0  0  0  0  0  0  0  0
   16.5888  -12.3546  -17.0829 N   0  0  0  0  0  0  0  0  0  0  0  0
   18.9674   -9.0445  -15.2359 C   0  0  0  0  0  0  0  0  0  0  0  0
   18.6340   -8.3337  -14.2541 O   0  0  0  0  0  0  0  0  0  0  0  0
   19.9521   -8.6815  -16.1752 N   0  0  0  0  0  0  0  0  0  0  0  0
   20.7214   -7.4875  -16.0215 C   0  0  1  0  0  0  0  0  0  0  0  0
   22.1555   -7.5837  -16.4278 C   0  0  0  0  0  0  0  0  0  0  0  0
   23.0264   -8.3708  -15.5177 C   0  0  0  0  0  0  0  0  0  0  0  0
   24.4404   -8.4501  -15.8883 C   0  0  0  0  0  0  0  0  0  0  0  0
   25.3404   -7.8167  -15.2433 O   0  0  0  0  0  0  0  0  0  0  0  0
   20.0525   -6.3552  -16.7433 C   0  0  0  0  0  0  0  0  0  0  0  0
   19.7747   -6.4180  -17.9686 O   0  0  0  0  0  0  0  0  0  0  0  0
   24.8299   -9.2404  -16.9801 O   0  0  0  0  0  0  0  0  0  0  0  0
   15.7648   -1.7792  -13.8860 C   0  0  0  0  0  0  0  0  0  0  0  0
   15.6112   -2.0918  -15.6257 S   0  0  0  0  0  0  0  0  0  0  0  0
   17.0988   -2.5087  -16.5108 C   0  0  0  0  0  0  0  0  0  0  0  0
   17.8476   -3.6938  -15.9982 C   0  0  0  0  0  0  0  0  0  0  0  0
   19.1071   -4.0294  -16.7091 C   0  0  2  0  0  0  0  0  0  0  0  0
   19.7221   -5.1830  -16.0378 N   0  0  0  0  0  0  0  0  0  0  0  0
   20.0703   -2.8856  -16.7264 C   0  0  0  0  0  0  0  0  0  0  0  0
   19.8445   -1.8892  -17.5033 O   0  0  0  0  0  0  0  0  0  0  0  0
   21.2031   -2.8030  -15.9685 O   0  0  0  0  0  0  0  0  0  0  0  0
  2  9  1  0
  2  1  1  1
  3  2  1  0
  4  8  1  0
  4  3  1  0
  5  4  2  0
  6  5  1  0
  6  7  1  0
  7  8  2  0
  9 11  1  0
 10  9  2  0
 11 12  1  0
 12 13  1  6
 13 14  1  0
 15 14  1  0
 15 19  1  0
 16 15  2  0
 17 18  2  0
 17 12  1  0
 20 21  1  0
 21 22  1  0
 22 23  1  0
 24 23  1  1
 24 26  1  0
 24 25  1  0
 25 17  1  0
 26 28  1  0
 27 26  2  0
M  END
$$$$
