HEM.pdb
     RDKit          3D

 28 28  0  0  1  0  0  0  0  0999 V2000
   17.6469  -14.7628  -17.9196 N   0  0  0  0  0  0  0  0  0  0  0  0
   17.4086  -13.8422  -16.8227 C   0  0  1  0  0  0  0  0  0  0  0  0
   17.8216  -14.5651  -15.5535 C   0  0  0  0  0  0  0  0  0  0  0  0
   16.8521  -15.6764  -15.3662 C   0  0  0  0  0  0  0  0  0  0  0  0
   15.7026  -15.6042  -14.6052 C   0  0  0  0  0  0  0  0  0  0  0  0
   15.0547  -16.7760  -14.6374 N   0  0  0  0  0  0  0  0  0  0  0  0
   15.7789  -17.5904  -15.4089 C   0  0  0  0  0  0  0  0  0  0  0  0
   16.8879  -16.9257  -15.8630 N   0  0  0  0  0  0  0  0  0  0  0  0
   18.1325  -12.5610  -17.0240 C   0  0  0  0  0  0  0  0  0  0  0  0
   19.3022  -12.5887  -17.4840 O   0  0  0  0  0  0  0  0  0  0  0  0
   17.4482  -11.3797  -16.6775 N   0  0  0  0  0  0  0  0  0  0  0  0
   18.0177  -10.0924  -16.9213 C   0  0  1  0  0  0  0  0  0  0  0  0
   17.0460   -8.9627  -17.0240 C   0  0  0  0  0  0  0  0  0  0  0  0
   17.6376   -7.6371  -17.3387 C   0  0  0  0  0  0  0  0  0  0  0  0
   17.7505   -7.3031  -18.7595 C   0  0  0  0  0  0  0  0  0  0  0  0
   16.7701   -7.4458  -19.5630 O   0  0  0  0  0  0  0  0  0  0  0  0
   19.0561   -9.7906  -15.8816 C   0  0  0  0  0  0  0  0  0  0  0  0
   18.9222  -10.1482  -14.6829 O   0  0  0  0  0  0  0  0  0  0  0  0
   18.9639   -6.8119  -19.2641 O   0  0  0  0  0  0  0  0  0  0  0  0
   26.4970  -10.6277  -14.3154 C   0  0  0  0  0  0  0  0  0  0  0  0
   25.0306  -10.6974  -15.3117 S   0  0  0  0  0  0  0  0  0  0  0  0
   23.7000   -9.5971  -14.8774 C   0  0  0  0  0  0  0  0  0  0  0  0
   22.4684   -9.7075  -15.7133 C   0  0  0  0  0  0  0  0  0  0  0  0
   21.3169   -8.8684  -15.2958 C   0  0  2  0  0  0  0  0  0  0  0  0
   20.2185   -9.0863  -16.2475 N   0  0  0  0  0  0  0  0  0  0  0  0
   21.6621   -7.4140  -15.2510 C   0  0  0  0  0  0  0  0  0  0  0  0
   21.5261   -6.7056  -16.3127 O   0  0  0  0  0  0  0  0  0  0  0  0
   22.1240   -6.7514  -14.1501 O   0  0  0  0  0  0  0  0  0  0  0  0
  2  9  1  0
  2  1  1  6
  3  2  1  0
  4  8  1  0
  4  3  1  0
  5  4  2  0
  6  5  1  0
  6  7  1  0
  7  8  2  0
  9 11  1  0
 10  9  2  0
 11 12  1  0
 12 13  1  1
 13 14  1  0
 15 14  1  0
 15 19  1  0
 16 15  2  0
 17 18  2  0
 17 12  1  0
 20 21  1  0
 21 22  1  0
 22 23  1  0
 24 23  1  6
 24 26  1  0
 24 25  1  0
 25 17  1  0
 26 28  1  0
 27 26  2  0
M  END
$$$$
