HEM.pdb
     RDKit          3D

 28 28  0  0  1  0  0  0  0  0999 V2000
   17.6209  -14.1351  -18.2978 N   0  0  0  0  0  0  0  0  0  0  0  0
   17.7246  -13.5725  -16.9636 C   0  0  1  0  0  0  0  0  0  0  0  0
   18.5936  -14.5225  -16.1597 C   0  0  0  0  0  0  0  0  0  0  0  0
   17.8216  -15.7852  -16.0203 C   0  0  0  0  0  0  0  0  0  0  0  0
   16.8552  -16.0205  -15.0630 C   0  0  0  0  0  0  0  0  0  0  0  0
   16.3569  -17.2556  -15.2057 N   0  0  0  0  0  0  0  0  0  0  0  0
   16.9952  -17.8064  -16.2411 C   0  0  0  0  0  0  0  0  0  0  0  0
   17.8996  -16.9119  -16.7507 N   0  0  0  0  0  0  0  0  0  0  0  0
   18.2578  -12.1867  -17.0003 C   0  0  0  0  0  0  0  0  0  0  0  0
   19.2858  -11.9481  -17.6835 O   0  0  0  0  0  0  0  0  0  0  0  0
   17.5645  -11.2158  -16.2516 N   0  0  0  0  0  0  0  0  0  0  0  0
   18.0158   -9.8616  -16.1920 C   0  0  1  0  0  0  0  0  0  0  0  0
   17.0118   -8.8644  -15.7142 C   0  0  0  0  0  0  0  0  0  0  0  0
   17.4837   -7.4570  -15.6614 C   0  0  0  0  0  0  0  0  0  0  0  0
   16.4937   -6.4607  -15.2487 C   0  0  0  0  0  0  0  0  0  0  0  0
   15.2412   -6.6652  -15.3770 O   0  0  0  0  0  0  0  0  0  0  0  0
   19.2645   -9.7778  -15.3648 C   0  0  0  0  0  0  0  0  0  0  0  0
   19.3653  -10.3533  -14.2507 O   0  0  0  0  0  0  0  0  0  0  0  0
   16.9204   -5.2439  -14.6959 O   0  0  0  0  0  0  0  0  0  0  0  0
   26.6141  -11.3326  -14.8054 C   0  0  0  0  0  0  0  0  0  0  0  0
   25.1194  -11.0294  -15.7120 S   0  0  0  0  0  0  0  0  0  0  0  0
   23.9112   -9.9637  -14.9541 C   0  0  0  0  0  0  0  0  0  0  0  0
   22.6066   -9.8503  -15.6702 C   0  0  0  0  0  0  0  0  0  0  0  0
   21.6090   -8.9287  -15.0705 C   0  0  2  0  0  0  0  0  0  0  0  0
   20.3616   -9.0353  -15.8401 N   0  0  0  0  0  0  0  0  0  0  0  0
   22.0785   -7.5089  -15.0682 C   0  0  0  0  0  0  0  0  0  0  0  0
   21.8478   -6.7719  -16.0934 O   0  0  0  0  0  0  0  0  0  0  0  0
   22.7519   -6.9074  -14.0438 O   0  0  0  0  0  0  0  0  0  0  0  0
  2  9  1  0
  2  1  1  6
  3  2  1  0
  4  8  1  0
  4  3  1  0
  5  4  2  0
  6  5  1  0
  6  7  1  0
  7  8  2  0
  9 11  1  0
 10  9  2  0
 11 12  1  0
 12 13  1  1
 13 14  1  0
 15 14  1  0
 15 19  1  0
 16 15  2  0
 17 18  2  0
 17 12  1  0
 20 21  1  0
 21 22  1  0
 22 23  1  0
 24 23  1  6
 24 26  1  0
 24 25  1  0
 25 17  1  0
 26 28  1  0
 27 26  2  0
M  END
$$$$
