HEM.pdb
     RDKit          3D

 28 28  0  0  1  0  0  0  0  0999 V2000
   26.3491  -20.7805  -16.5585 N   0  0  0  0  0  0  0  0  0  0  0  0
   27.1357  -20.8565  -15.3408 C   0  0  1  0  0  0  0  0  0  0  0  0
   28.5329  -20.3831  -15.6978 C   0  0  0  0  0  0  0  0  0  0  0  0
   29.0866  -21.3820  -16.6495 C   0  0  0  0  0  0  0  0  0  0  0  0
   29.4179  -21.1235  -17.9645 C   0  0  0  0  0  0  0  0  0  0  0  0
   29.8822  -22.2354  -18.5493 N   0  0  0  0  0  0  0  0  0  0  0  0
   29.8493  -23.1956  -17.6222 C   0  0  0  0  0  0  0  0  0  0  0  0
   29.3610  -22.6833  -16.4487 N   0  0  0  0  0  0  0  0  0  0  0  0
   26.5163  -20.0668  -14.2459 C   0  0  0  0  0  0  0  0  0  0  0  0
   26.4722  -18.8146  -14.3485 O   0  0  0  0  0  0  0  0  0  0  0  0
   26.0128  -20.7869  -13.1451 N   0  0  0  0  0  0  0  0  0  0  0  0
   25.3573  -20.1257  -12.0616 C   0  0  1  0  0  0  0  0  0  0  0  0
   23.8855  -19.9259  -12.2194 C   0  0  0  0  0  0  0  0  0  0  0  0
   23.1069  -21.1461  -12.5531 C   0  0  0  0  0  0  0  0  0  0  0  0
   21.6709  -20.9558  -12.7650 C   0  0  0  0  0  0  0  0  0  0  0  0
   21.1601  -20.9442  -13.9338 O   0  0  0  0  0  0  0  0  0  0  0  0
   25.6486  -20.8435  -10.7769 C   0  0  0  0  0  0  0  0  0  0  0  0
   25.5610  -22.0946  -10.6783 O   0  0  0  0  0  0  0  0  0  0  0  0
   20.8224  -20.7803  -11.6616 O   0  0  0  0  0  0  0  0  0  0  0  0
   29.9073  -18.8473   -5.8141 C   0  0  0  0  0  0  0  0  0  0  0  0
   28.3445  -19.2911   -5.1010 S   0  0  0  0  0  0  0  0  0  0  0  0
   27.2655  -20.3141   -6.0803 C   0  0  0  0  0  0  0  0  0  0  0  0
   27.0551  -19.8710   -7.4900 C   0  0  0  0  0  0  0  0  0  0  0  0
   26.1930  -20.7422   -8.3279 C   0  0  2  0  0  0  0  0  0  0  0  0
   26.0316  -20.1044   -9.6420 N   0  0  0  0  0  0  0  0  0  0  0  0
   24.8497  -20.9713   -7.7119 C   0  0  0  0  0  0  0  0  0  0  0  0
   23.8444  -20.2933   -8.1328 O   0  0  0  0  0  0  0  0  0  0  0  0
   24.5878  -21.8625   -6.7110 O   0  0  0  0  0  0  0  0  0  0  0  0
  2  9  1  0
  2  1  1  6
  3  2  1  0
  4  8  1  0
  4  3  1  0
  5  4  2  0
  6  5  1  0
  6  7  1  0
  7  8  2  0
  9 11  1  0
 10  9  2  0
 11 12  1  0
 12 13  1  6
 13 14  1  0
 15 14  1  0
 15 19  1  0
 16 15  2  0
 17 18  2  0
 17 12  1  0
 20 21  1  0
 21 22  1  0
 22 23  1  0
 24 23  1  1
 24 26  1  0
 24 25  1  0
 25 17  1  0
 26 28  1  0
 27 26  2  0
M  END
$$$$
