HEM.pdb
     RDKit          3D

 28 28  0  0  1  0  0  0  0  0999 V2000
   18.5229  -11.4214  -16.6836 N   0  0  0  0  0  0  0  0  0  0  0  0
   19.4239  -10.4804  -17.3238 C   0  0  1  0  0  0  0  0  0  0  0  0
   18.5556   -9.3889  -17.9228 C   0  0  0  0  0  0  0  0  0  0  0  0
   17.8678   -9.9922  -19.0945 C   0  0  0  0  0  0  0  0  0  0  0  0
   18.2104   -9.7717  -20.4135 C   0  0  0  0  0  0  0  0  0  0  0  0
   17.3913  -10.4561  -21.2225 N   0  0  0  0  0  0  0  0  0  0  0  0
   16.5335  -11.1074  -20.4335 C   0  0  0  0  0  0  0  0  0  0  0  0
   16.8157  -10.8297  -19.1216 N   0  0  0  0  0  0  0  0  0  0  0  0
   20.4335   -9.9605  -16.3665 C   0  0  0  0  0  0  0  0  0  0  0  0
   20.0809   -9.7108  -15.1860 O   0  0  0  0  0  0  0  0  0  0  0  0
   21.7416   -9.7765  -16.8554 N   0  0  0  0  0  0  0  0  0  0  0  0
   22.7759   -9.2418  -16.0275 C   0  0  1  0  0  0  0  0  0  0  0  0
   24.1446   -9.7908  -16.2645 C   0  0  0  0  0  0  0  0  0  0  0  0
   24.3375  -11.2136  -15.8841 C   0  0  0  0  0  0  0  0  0  0  0  0
   25.6716  -11.7681  -16.1198 C   0  0  0  0  0  0  0  0  0  0  0  0
   25.8906  -12.6228  -17.0410 O   0  0  0  0  0  0  0  0  0  0  0  0
   22.7911   -7.7456  -16.1355 C   0  0  0  0  0  0  0  0  0  0  0  0
   22.8778   -7.1587  -17.2449 O   0  0  0  0  0  0  0  0  0  0  0  0
   26.7471  -11.3572  -15.3181 O   0  0  0  0  0  0  0  0  0  0  0  0
   19.3829   -1.5227  -17.1667 C   0  0  0  0  0  0  0  0  0  0  0  0
   19.8139   -3.2404  -17.0602 S   0  0  0  0  0  0  0  0  0  0  0  0
   21.1541   -3.6760  -15.9721 C   0  0  0  0  0  0  0  0  0  0  0  0
   21.4707   -5.1319  -15.8841 C   0  0  0  0  0  0  0  0  0  0  0  0
   22.6245   -5.4998  -15.0251 C   0  0  2  0  0  0  0  0  0  0  0  0
   22.7069   -6.9659  -14.9668 N   0  0  0  0  0  0  0  0  0  0  0  0
   22.4993   -4.9479  -13.6409 C   0  0  0  0  0  0  0  0  0  0  0  0
   22.2064   -5.7410  -12.6751 O   0  0  0  0  0  0  0  0  0  0  0  0
   22.6724   -3.6368  -13.3010 O   0  0  0  0  0  0  0  0  0  0  0  0
  2  9  1  0
  2  1  1  1
  3  2  1  0
  4  8  1  0
  4  3  1  0
  5  4  2  0
  6  5  1  0
  6  7  1  0
  7  8  2  0
  9 11  1  0
 10  9  2  0
 11 12  1  0
 12 13  1  6
 13 14  1  0
 15 14  1  0
 15 19  1  0
 16 15  2  0
 17 18  2  0
 17 12  1  0
 20 21  1  0
 21 22  1  0
 22 23  1  0
 24 23  1  6
 24 26  1  0
 24 25  1  0
 25 17  1  0
 26 28  1  0
 27 26  2  0
M  END
$$$$
