HEM.pdb
     RDKit          3D

 28 28  0  0  1  0  0  0  0  0999 V2000
   22.8923  -24.4882  -18.3827 N   0  0  0  0  0  0  0  0  0  0  0  0
   22.4133  -25.8207  -18.0627 C   0  0  1  0  0  0  0  0  0  0  0  0
   23.2313  -26.7872  -18.8997 C   0  0  0  0  0  0  0  0  0  0  0  0
   22.7545  -26.6408  -20.3001 C   0  0  0  0  0  0  0  0  0  0  0  0
   22.1341  -27.6327  -21.0329 C   0  0  0  0  0  0  0  0  0  0  0  0
   21.8369  -27.1820  -22.2586 N   0  0  0  0  0  0  0  0  0  0  0  0
   22.2611  -25.9171  -22.3125 C   0  0  0  0  0  0  0  0  0  0  0  0
   22.8283  -25.5723  -21.1136 N   0  0  0  0  0  0  0  0  0  0  0  0
   22.5037  -26.0931  -16.6053 C   0  0  0  0  0  0  0  0  0  0  0  0
   23.6368  -26.1288  -16.0621 O   0  0  0  0  0  0  0  0  0  0  0  0
   21.2917  -26.2991  -15.9179 N   0  0  0  0  0  0  0  0  0  0  0  0
   21.2602  -26.4577  -14.4985 C   0  0  1  0  0  0  0  0  0  0  0  0
   20.4804  -25.4280  -13.7485 C   0  0  0  0  0  0  0  0  0  0  0  0
   20.3887  -25.6390  -12.2810 C   0  0  0  0  0  0  0  0  0  0  0  0
   19.5795  -24.6696  -11.5403 C   0  0  0  0  0  0  0  0  0  0  0  0
   18.9680  -23.7168  -12.1277 O   0  0  0  0  0  0  0  0  0  0  0  0
   20.7720  -27.8330  -14.1513 C   0  0  0  0  0  0  0  0  0  0  0  0
   19.7570  -28.3371  -14.6974 O   0  0  0  0  0  0  0  0  0  0  0  0
   19.4652  -24.7801  -10.1464 O   0  0  0  0  0  0  0  0  0  0  0  0
   22.2185  -34.8673  -12.9456 C   0  0  0  0  0  0  0  0  0  0  0  0
   22.5477  -33.1303  -13.0956 S   0  0  0  0  0  0  0  0  0  0  0  0
   21.8979  -32.0673  -11.8236 C   0  0  0  0  0  0  0  0  0  0  0  0
   22.0810  -30.6029  -12.0465 C   0  0  0  0  0  0  0  0  0  0  0  0
   20.9735  -29.9041  -12.7461 C   0  0  2  0  0  0  0  0  0  0  0  0
   21.4626  -28.5901  -13.1865 N   0  0  0  0  0  0  0  0  0  0  0  0
   19.7733  -29.7266  -11.8718 C   0  0  0  0  0  0  0  0  0  0  0  0
   19.6707  -28.6649  -11.1579 O   0  0  0  0  0  0  0  0  0  0  0  0
   18.7460  -30.6191  -11.7597 O   0  0  0  0  0  0  0  0  0  0  0  0
  2  9  1  0
  2  1  1  1
  3  2  1  0
  4  8  1  0
  4  3  1  0
  5  4  2  0
  6  5  1  0
  6  7  1  0
  7  8  2  0
  9 11  1  0
 10  9  2  0
 11 12  1  0
 12 13  1  1
 13 14  1  0
 15 14  1  0
 15 19  1  0
 16 15  2  0
 17 18  2  0
 17 12  1  0
 20 21  1  0
 21 22  1  0
 22 23  1  0
 24 23  1  1
 24 26  1  0
 24 25  1  0
 25 17  1  0
 26 28  1  0
 27 26  2  0
M  END
$$$$
