HEM.pdb
     RDKit          3D

 28 28  0  0  1  0  0  0  0  0999 V2000
   20.1372  -12.7782  -19.7552 N   0  0  0  0  0  0  0  0  0  0  0  0
   21.0473  -12.1261  -18.8313 C   0  0  1  0  0  0  0  0  0  0  0  0
   22.3388  -11.8871  -19.5920 C   0  0  0  0  0  0  0  0  0  0  0  0
   22.8979  -13.2283  -19.9063 C   0  0  0  0  0  0  0  0  0  0  0  0
   22.9797  -13.7752  -21.1711 C   0  0  0  0  0  0  0  0  0  0  0  0
   23.5256  -14.9967  -21.1101 N   0  0  0  0  0  0  0  0  0  0  0  0
   23.7907  -15.2315  -19.8227 C   0  0  0  0  0  0  0  0  0  0  0  0
   23.4084  -14.1510  -19.0715 N   0  0  0  0  0  0  0  0  0  0  0  0
   20.4579  -10.8792  -18.2800 C   0  0  0  0  0  0  0  0  0  0  0  0
   20.1884   -9.9348  -19.0648 O   0  0  0  0  0  0  0  0  0  0  0  0
   20.2387  -10.8370  -16.8893 N   0  0  0  0  0  0  0  0  0  0  0  0
   19.6792   -9.6830  -16.2599 C   0  0  1  0  0  0  0  0  0  0  0  0
   18.6948   -9.9526  -15.1694 C   0  0  0  0  0  0  0  0  0  0  0  0
   17.4911  -10.7245  -15.5712 C   0  0  0  0  0  0  0  0  0  0  0  0
   16.5714  -11.0912  -14.4928 C   0  0  0  0  0  0  0  0  0  0  0  0
   16.9504  -11.7904  -13.4955 O   0  0  0  0  0  0  0  0  0  0  0  0
   20.7786   -8.7942  -15.7583 C   0  0  0  0  0  0  0  0  0  0  0  0
   21.7968   -9.2552  -15.1810 O   0  0  0  0  0  0  0  0  0  0  0  0
   15.2346  -10.6688  -14.5453 O   0  0  0  0  0  0  0  0  0  0  0  0
   24.8055   -2.2818  -17.4428 C   0  0  0  0  0  0  0  0  0  0  0  0
   23.5010   -3.4576  -17.6946 S   0  0  0  0  0  0  0  0  0  0  0  0
   23.1164   -4.5472  -16.3400 C   0  0  0  0  0  0  0  0  0  0  0  0
   22.0374   -5.5458  -16.5975 C   0  0  0  0  0  0  0  0  0  0  0  0
   21.7437   -6.4916  -15.4914 C   0  0  2  0  0  0  0  0  0  0  0  0
   20.6775   -7.4013  -15.9333 N   0  0  0  0  0  0  0  0  0  0  0  0
   21.3187   -5.7883  -14.2420 C   0  0  0  0  0  0  0  0  0  0  0  0
   20.0664   -5.6564  -13.9933 O   0  0  0  0  0  0  0  0  0  0  0  0
   22.1676   -5.2563  -13.3142 O   0  0  0  0  0  0  0  0  0  0  0  0
  2  9  1  0
  2  1  1  6
  3  2  1  0
  4  8  1  0
  4  3  1  0
  5  4  2  0
  6  5  1  0
  6  7  1  0
  7  8  2  0
  9 11  1  0
 10  9  2  0
 11 12  1  0
 12 13  1  1
 13 14  1  0
 15 14  1  0
 15 19  1  0
 16 15  2  0
 17 18  2  0
 17 12  1  0
 20 21  1  0
 21 22  1  0
 22 23  1  0
 24 23  1  6
 24 26  1  0
 24 25  1  0
 25 17  1  0
 26 28  1  0
 27 26  2  0
M  END
$$$$
