NLY.pdb
     RDKit          3D

 29 29  0  0  1  0  0  0  0  0999 V2000
   26.6900  -17.6892  -17.6877 N   0  0  0  0  0  0  0  0  0  0  0  0
   27.3255  -18.3598  -16.5722 C   0  0  0  0  0  0  0  0  0  0  0  0
   28.5516  -18.2435  -16.4481 O   0  0  0  0  0  0  0  0  0  0  0  0
   26.4550  -19.1341  -15.6656 C   0  0  0  0  0  0  0  0  0  0  0  0
   27.1415  -20.3469  -15.0815 C   0  0  2  0  0  0  0  0  0  0  0  0
   27.2585  -21.2838  -16.2229 N   0  0  0  0  0  0  0  0  0  0  0  0
   26.2464  -21.0298  -14.0783 C   0  0  0  0  0  0  0  0  0  0  0  0
   25.2606  -21.7493  -14.4705 O   0  0  0  0  0  0  0  0  0  0  0  0
   28.3163  -20.3879  -10.4865 C   0  0  0  0  0  0  0  0  0  0  0  0
   27.0297  -20.5944   -9.7606 C   0  0  2  0  0  0  0  0  0  0  0  0
   27.3513  -20.8966   -8.3201 C   0  0  0  0  0  0  0  0  0  0  0  0
   26.0416  -21.4912  -10.3736 C   0  0  0  0  0  0  0  0  0  0  0  0
   25.5079  -21.2038  -11.7175 C   0  0  2  0  0  0  0  0  0  0  0  0
   26.4988  -20.8736  -12.6991 N   0  0  0  0  0  0  0  0  0  0  0  0
   24.3429  -20.2685  -11.7575 C   0  0  0  0  0  0  0  0  0  0  0  0
   24.4941  -19.0265  -11.9030 O   0  0  0  0  0  0  0  0  0  0  0  0
   18.7155  -19.6861  -18.1455 O   0  0  0  0  0  0  0  0  0  0  0  0
   19.6689  -19.9582  -17.1804 C   0  0  0  0  0  0  0  0  0  0  0  0
   21.0164  -20.0638  -17.4390 C   0  0  0  0  0  0  0  0  0  0  0  0
   21.9019  -20.3374  -16.4197 C   0  0  0  0  0  0  0  0  0  0  0  0
   21.4810  -20.5178  -15.0963 C   0  0  0  0  0  0  0  0  0  0  0  0
   22.4343  -20.8237  -14.0118 C   0  0  0  0  0  0  0  0  0  0  0  0
   22.0128  -20.3655  -12.6547 C   0  0  2  0  0  0  0  0  0  0  0  0
   23.0017  -20.7237  -11.6352 N   0  0  0  0  0  0  0  0  0  0  0  0
   20.7437  -21.0182  -12.2757 C   0  0  0  0  0  0  0  0  0  0  0  0
   20.7046  -22.2868  -11.6670 O   0  0  0  0  0  0  0  0  0  0  0  0
   20.1250  -20.4028  -14.8893 C   0  0  0  0  0  0  0  0  0  0  0  0
   19.2167  -20.1304  -15.8856 C   0  0  0  0  0  0  0  0  0  0  0  0
   19.6008  -20.5049  -12.4611 O   0  0  0  0  0  0  0  0  0  0  0  0
  1  2  1  0
  2  3  2  0
  4  5  1  0
  4  2  1  0
  5  6  1  6
  7  5  1  0
  7  8  2  0
 10  9  1  6
 11 10  1  0
 12 10  1  0
 13 12  1  1
 13 14  1  0
 14  7  1  0
 15 24  1  0
 15 13  1  0
 16 15  2  0
 18 17  1  0
 18 28  2  0
 19 18  1  0
 20 19  2  0
 20 21  1  0
 21 27  2  0
 22 21  1  0
 23 22  1  6
 23 24  1  0
 23 25  1  0
 25 26  1  0
 27 28  1  0
 29 25  2  0
M  END
$$$$
