NLY.pdb
     RDKit          3D

 29 29  0  0  1  0  0  0  0  0999 V2000
   25.7557  -16.5659  -18.8444 N   0  0  0  0  0  0  0  0  0  0  0  0
   25.1886  -16.7062  -17.5191 C   0  0  0  0  0  0  0  0  0  0  0  0
   24.9728  -15.6752  -16.8688 O   0  0  0  0  0  0  0  0  0  0  0  0
   24.9111  -18.0765  -17.0454 C   0  0  0  0  0  0  0  0  0  0  0  0
   25.4146  -18.3295  -15.6434 C   0  0  2  0  0  0  0  0  0  0  0  0
   26.8870  -18.2165  -15.7595 N   0  0  0  0  0  0  0  0  0  0  0  0
   25.1422  -19.7547  -15.2323 C   0  0  0  0  0  0  0  0  0  0  0  0
   26.0898  -20.6178  -15.2120 O   0  0  0  0  0  0  0  0  0  0  0  0
   25.9517  -22.5289  -12.5561 C   0  0  0  0  0  0  0  0  0  0  0  0
   25.6418  -21.1053  -12.2365 C   0  0  2  0  0  0  0  0  0  0  0  0
   26.1436  -20.8207  -10.8448 C   0  0  0  0  0  0  0  0  0  0  0  0
   24.2798  -20.6298  -12.5108 C   0  0  0  0  0  0  0  0  0  0  0  0
   23.5946  -21.0126  -13.7588 C   0  0  2  0  0  0  0  0  0  0  0  0
   23.8340  -20.1370  -14.8681 N   0  0  0  0  0  0  0  0  0  0  0  0
   22.1472  -21.3562  -13.6154 C   0  0  0  0  0  0  0  0  0  0  0  0
   21.7547  -22.2605  -12.8314 O   0  0  0  0  0  0  0  0  0  0  0  0
   20.7286  -19.1859   -8.0374 O   0  0  0  0  0  0  0  0  0  0  0  0
   20.3436  -19.3253   -9.3591 C   0  0  0  0  0  0  0  0  0  0  0  0
   20.7288  -18.4703  -10.3662 C   0  0  0  0  0  0  0  0  0  0  0  0
   20.3011  -18.6794  -11.6590 C   0  0  0  0  0  0  0  0  0  0  0  0
   19.4693  -19.7520  -12.0037 C   0  0  0  0  0  0  0  0  0  0  0  0
   19.0046  -19.9620  -13.3887 C   0  0  0  0  0  0  0  0  0  0  0  0
   19.7257  -21.0320  -14.1398 C   0  0  2  0  0  0  0  0  0  0  0  0
   21.1330  -20.6851  -14.3516 N   0  0  0  0  0  0  0  0  0  0  0  0
   19.1172  -21.2071  -15.4736 C   0  0  0  0  0  0  0  0  0  0  0  0
   17.7794  -21.6119  -15.6412 O   0  0  0  0  0  0  0  0  0  0  0  0
   19.1119  -20.5776  -10.9619 C   0  0  0  0  0  0  0  0  0  0  0  0
   19.5226  -20.3952   -9.6620 C   0  0  0  0  0  0  0  0  0  0  0  0
   19.7325  -21.0127  -16.5635 O   0  0  0  0  0  0  0  0  0  0  0  0
  1  2  1  0
  2  3  2  0
  4  5  1  0
  4  2  1  0
  5  6  1  6
  7  5  1  0
  7  8  2  0
 10  9  1  1
 11 10  1  0
 12 10  1  0
 13 12  1  1
 13 14  1  0
 14  7  1  0
 15 24  1  0
 15 13  1  0
 16 15  2  0
 18 17  1  0
 18 28  2  0
 19 18  1  0
 20 19  2  0
 20 21  1  0
 21 27  2  0
 22 21  1  0
 23 22  1  6
 23 24  1  0
 23 25  1  0
 25 26  1  0
 27 28  1  0
 29 25  2  0
M  END
$$$$
