NLY.pdb
     RDKit          3D

 29 29  0  0  1  0  0  0  0  0999 V2000
   31.0515  -36.7460   -3.3998 N   0  0  0  0  0  0  0  0  0  0  0  0
   30.9281  -37.6616   -2.2843 C   0  0  0  0  0  0  0  0  0  0  0  0
   31.2716  -38.8379   -2.4592 O   0  0  0  0  0  0  0  0  0  0  0  0
   30.3990  -37.1160   -1.0189 C   0  0  0  0  0  0  0  0  0  0  0  0
   30.0842  -35.6402   -1.0985 C   0  0  2  0  0  0  0  0  0  0  0  0
   31.3995  -34.9782   -0.9368 N   0  0  0  0  0  0  0  0  0  0  0  0
   29.2583  -35.2104    0.0879 C   0  0  0  0  0  0  0  0  0  0  0  0
   28.1084  -35.7343    0.3035 O   0  0  0  0  0  0  0  0  0  0  0  0
   29.6289  -35.1395    4.8397 C   0  0  0  0  0  0  0  0  0  0  0  0
   30.4678  -34.1181    4.1483 C   0  0  2  0  0  0  0  0  0  0  0  0
   31.3089  -33.4251    5.1886 C   0  0  0  0  0  0  0  0  0  0  0  0
   29.7982  -33.2209    3.1982 C   0  0  0  0  0  0  0  0  0  0  0  0
   28.9960  -33.7730    2.0914 C   0  0  2  0  0  0  0  0  0  0  0  0
   29.7582  -34.2247    0.9646 N   0  0  0  0  0  0  0  0  0  0  0  0
   27.8187  -32.9493    1.6804 C   0  0  0  0  0  0  0  0  0  0  0  0
   27.9547  -31.8022    1.1782 O   0  0  0  0  0  0  0  0  0  0  0  0
   26.8338  -33.0844   -4.8808 O   0  0  0  0  0  0  0  0  0  0  0  0
   26.3082  -33.1810   -3.6045 C   0  0  0  0  0  0  0  0  0  0  0  0
   26.4677  -34.2774   -2.7884 C   0  0  0  0  0  0  0  0  0  0  0  0
   25.9114  -34.2944   -1.5282 C   0  0  0  0  0  0  0  0  0  0  0  0
   25.1706  -33.2170   -1.0267 C   0  0  0  0  0  0  0  0  0  0  0  0
   24.5665  -33.2479    0.3195 C   0  0  0  0  0  0  0  0  0  0  0  0
   25.3662  -32.5730    1.3845 C   0  0  2  0  0  0  0  0  0  0  0  0
   26.4823  -33.4102    1.8307 N   0  0  0  0  0  0  0  0  0  0  0  0
   24.5169  -32.3179    2.5651 C   0  0  0  0  0  0  0  0  0  0  0  0
   24.8248  -32.8358    3.8373 O   0  0  0  0  0  0  0  0  0  0  0  0
   25.0393  -32.1453   -1.8807 C   0  0  0  0  0  0  0  0  0  0  0  0
   25.5828  -32.0986   -3.1432 C   0  0  0  0  0  0  0  0  0  0  0  0
   23.4573  -31.6247    2.5383 O   0  0  0  0  0  0  0  0  0  0  0  0
  1  2  1  0
  2  3  2  0
  4  5  1  0
  4  2  1  0
  5  6  1  1
  7  5  1  0
  7  8  2  0
 10  9  1  1
 11 10  1  0
 12 10  1  0
 13 12  1  1
 13 14  1  0
 14  7  1  0
 15 24  1  0
 15 13  1  0
 16 15  2  0
 18 17  1  0
 18 28  2  0
 19 18  1  0
 20 19  2  0
 20 21  1  0
 21 27  2  0
 22 21  1  0
 23 22  1  6
 23 24  1  0
 23 25  1  0
 25 26  1  0
 27 28  1  0
 29 25  2  0
M  END
$$$$
