NLY.pdb
     RDKit          3D

 29 29  0  0  1  0  0  0  0  0999 V2000
   29.7851  -19.6477  -20.3002 N   0  0  0  0  0  0  0  0  0  0  0  0
   28.3816  -19.2975  -20.2250 C   0  0  0  0  0  0  0  0  0  0  0  0
   27.9590  -18.4278  -20.9978 O   0  0  0  0  0  0  0  0  0  0  0  0
   27.5609  -20.0101  -19.2262 C   0  0  0  0  0  0  0  0  0  0  0  0
   28.3457  -21.0348  -18.4405 C   0  0  2  0  0  0  0  0  0  0  0  0
   28.0970  -22.3090  -19.1539 N   0  0  0  0  0  0  0  0  0  0  0  0
   27.7556  -21.2117  -17.0640 C   0  0  0  0  0  0  0  0  0  0  0  0
   26.7732  -22.0135  -16.8759 O   0  0  0  0  0  0  0  0  0  0  0  0
   29.6095  -20.3561  -11.3097 C   0  0  0  0  0  0  0  0  0  0  0  0
   28.6801  -20.8600  -12.3621 C   0  0  2  0  0  0  0  0  0  0  0  0
   28.9915  -22.3146  -12.6003 C   0  0  0  0  0  0  0  0  0  0  0  0
   28.5332  -20.0528  -13.5798 C   0  0  0  0  0  0  0  0  0  0  0  0
   27.6753  -20.5201  -14.6840 C   0  0  2  0  0  0  0  0  0  0  0  0
   28.2913  -20.4882  -15.9779 N   0  0  0  0  0  0  0  0  0  0  0  0
   26.2927  -19.9531  -14.7051 C   0  0  0  0  0  0  0  0  0  0  0  0
   26.0079  -18.9241  -15.3733 O   0  0  0  0  0  0  0  0  0  0  0  0
   17.9633  -18.5000  -16.2394 O   0  0  0  0  0  0  0  0  0  0  0  0
   19.2964  -18.8263  -16.0642 C   0  0  0  0  0  0  0  0  0  0  0  0
   20.3259  -17.9155  -16.1292 C   0  0  0  0  0  0  0  0  0  0  0  0
   21.6288  -18.3224  -15.9426 C   0  0  0  0  0  0  0  0  0  0  0  0
   21.9618  -19.6576  -15.6828 C   0  0  0  0  0  0  0  0  0  0  0  0
   23.3612  -20.0882  -15.4969 C   0  0  0  0  0  0  0  0  0  0  0  0
   23.8695  -19.9912  -14.0965 C   0  0  2  0  0  0  0  0  0  0  0  0
   25.2223  -20.5399  -13.9763 N   0  0  0  0  0  0  0  0  0  0  0  0
   23.0029  -20.7730  -13.1921 C   0  0  0  0  0  0  0  0  0  0  0  0
   21.7952  -20.2612  -12.6812 O   0  0  0  0  0  0  0  0  0  0  0  0
   20.8978  -20.5293  -15.6280 C   0  0  0  0  0  0  0  0  0  0  0  0
   19.5872  -20.1535  -15.8096 C   0  0  0  0  0  0  0  0  0  0  0  0
   23.2643  -21.9498  -12.8033 O   0  0  0  0  0  0  0  0  0  0  0  0
  1  2  1  0
  2  3  2  0
  4  5  1  0
  4  2  1  0
  5  6  1  6
  7  5  1  0
  7  8  2  0
 10  9  1  1
 11 10  1  0
 12 10  1  0
 13 12  1  1
 13 14  1  0
 14  7  1  0
 15 24  1  0
 15 13  1  0
 16 15  2  0
 18 17  1  0
 18 28  2  0
 19 18  1  0
 20 19  2  0
 20 21  1  0
 21 27  2  0
 22 21  1  0
 23 22  1  6
 23 24  1  0
 23 25  1  0
 25 26  1  0
 27 28  1  0
 29 25  2  0
M  END
$$$$
