NLY.pdb
     RDKit          3D

 29 29  0  0  1  0  0  0  0  0999 V2000
   24.8339  -20.5744   -6.6764 N   0  0  0  0  0  0  0  0  0  0  0  0
   26.0694  -19.8220   -6.7489 C   0  0  0  0  0  0  0  0  0  0  0  0
   26.5805  -19.4431   -5.6870 O   0  0  0  0  0  0  0  0  0  0  0  0
   26.6251  -19.5650   -8.0921 C   0  0  0  0  0  0  0  0  0  0  0  0
   25.7643  -20.1202   -9.2029 C   0  0  2  0  0  0  0  0  0  0  0  0
   25.6981  -21.5729   -8.9206 N   0  0  0  0  0  0  0  0  0  0  0  0
   26.4660  -19.9905  -10.5315 C   0  0  0  0  0  0  0  0  0  0  0  0
   26.6606  -18.8362  -11.0539 O   0  0  0  0  0  0  0  0  0  0  0  0
   30.3359  -20.1101  -11.2135 C   0  0  0  0  0  0  0  0  0  0  0  0
   29.8584  -21.5032  -11.4511 C   0  0  2  0  0  0  0  0  0  0  0  0
   31.0633  -22.4064  -11.4987 C   0  0  0  0  0  0  0  0  0  0  0  0
   28.8875  -21.7120  -12.5327 C   0  0  0  0  0  0  0  0  0  0  0  0
   27.5606  -21.0719  -12.4761 C   0  0  2  0  0  0  0  0  0  0  0  0
   26.9102  -21.1500  -11.2011 N   0  0  0  0  0  0  0  0  0  0  0  0
   26.6368  -21.4120  -13.6006 C   0  0  0  0  0  0  0  0  0  0  0  0
   26.4554  -22.6013  -13.9734 O   0  0  0  0  0  0  0  0  0  0  0  0
   20.4609  -18.8272  -11.0538 O   0  0  0  0  0  0  0  0  0  0  0  0
   21.2522  -19.4760  -11.9852 C   0  0  0  0  0  0  0  0  0  0  0  0
   21.1624  -19.2750  -13.3436 C   0  0  0  0  0  0  0  0  0  0  0  0
   21.9889  -19.9620  -14.2054 C   0  0  0  0  0  0  0  0  0  0  0  0
   22.9422  -20.8807  -13.7490 C   0  0  0  0  0  0  0  0  0  0  0  0
   23.8152  -21.6227  -14.6794 C   0  0  0  0  0  0  0  0  0  0  0  0
   24.9057  -20.8140  -15.3005 C   0  0  2  0  0  0  0  0  0  0  0  0
   25.9110  -20.4176  -14.3115 N   0  0  0  0  0  0  0  0  0  0  0  0
   24.3474  -19.5725  -15.8723 C   0  0  0  0  0  0  0  0  0  0  0  0
   23.4237  -19.5844  -16.9345 O   0  0  0  0  0  0  0  0  0  0  0  0
   22.9926  -21.0466  -12.3834 C   0  0  0  0  0  0  0  0  0  0  0  0
   22.1817  -20.3757  -11.4980 C   0  0  0  0  0  0  0  0  0  0  0  0
   24.6441  -18.4102  -15.4662 O   0  0  0  0  0  0  0  0  0  0  0  0
  1  2  1  0
  2  3  2  0
  4  5  1  0
  4  2  1  0
  5  6  1  1
  7  5  1  0
  7  8  2  0
 10  9  1  6
 11 10  1  0
 12 10  1  0
 13 12  1  1
 13 14  1  0
 14  7  1  0
 15 24  1  0
 15 13  1  0
 16 15  2  0
 18 17  1  0
 18 28  2  0
 19 18  1  0
 20 19  2  0
 20 21  1  0
 21 27  2  0
 22 21  1  0
 23 22  1  1
 23 24  1  0
 23 25  1  0
 25 26  1  0
 27 28  1  0
 29 25  2  0
M  END
$$$$
