NLY.pdb
     RDKit          3D

 29 29  0  0  1  0  0  0  0  0999 V2000
   35.9382  -29.4390  -22.7223 N   0  0  0  0  0  0  0  0  0  0  0  0
   35.8822  -30.3387  -21.5886 C   0  0  0  0  0  0  0  0  0  0  0  0
   35.9144  -31.5557  -21.8123 O   0  0  0  0  0  0  0  0  0  0  0  0
   35.7907  -29.7291  -20.2473 C   0  0  0  0  0  0  0  0  0  0  0  0
   35.7841  -28.2186  -20.2849 C   0  0  2  0  0  0  0  0  0  0  0  0
   36.8643  -27.8265  -19.3502 N   0  0  0  0  0  0  0  0  0  0  0  0
   34.5080  -27.6799  -19.6885 C   0  0  0  0  0  0  0  0  0  0  0  0
   34.5316  -27.0216  -18.5887 O   0  0  0  0  0  0  0  0  0  0  0  0
   32.5609  -24.5620  -21.3709 C   0  0  0  0  0  0  0  0  0  0  0  0
   31.8716  -25.7911  -21.8600 C   0  0  2  0  0  0  0  0  0  0  0  0
   30.9841  -25.3996  -23.0127 C   0  0  0  0  0  0  0  0  0  0  0  0
   31.2362  -26.6563  -20.8580 C   0  0  0  0  0  0  0  0  0  0  0  0
   32.0551  -27.3541  -19.8500 C   0  0  2  0  0  0  0  0  0  0  0  0
   33.2814  -27.9037  -20.3486 N   0  0  0  0  0  0  0  0  0  0  0  0
   31.3165  -28.3216  -18.9828 C   0  0  0  0  0  0  0  0  0  0  0  0
   30.3040  -27.9768  -18.3175 O   0  0  0  0  0  0  0  0  0  0  0  0
   26.2771  -33.2278  -14.3862 O   0  0  0  0  0  0  0  0  0  0  0  0
   27.1526  -32.4440  -15.1167 C   0  0  0  0  0  0  0  0  0  0  0  0
   28.4787  -32.2677  -14.7943 C   0  0  0  0  0  0  0  0  0  0  0  0
   29.2853  -31.4693  -15.5754 C   0  0  0  0  0  0  0  0  0  0  0  0
   28.8032  -30.8112  -16.7136 C   0  0  0  0  0  0  0  0  0  0  0  0
   29.6702  -29.9470  -17.5381 C   0  0  0  0  0  0  0  0  0  0  0  0
   30.9033  -30.6069  -18.0607 C   0  0  2  0  0  0  0  0  0  0  0  0
   31.7108  -29.6818  -18.8594 N   0  0  0  0  0  0  0  0  0  0  0  0
   30.5357  -31.7330  -18.9420 C   0  0  0  0  0  0  0  0  0  0  0  0
   30.8636  -33.0665  -18.6326 O   0  0  0  0  0  0  0  0  0  0  0  0
   27.4714  -31.0188  -16.9934 C   0  0  0  0  0  0  0  0  0  0  0  0
   26.6415  -31.8097  -16.2334 C   0  0  0  0  0  0  0  0  0  0  0  0
   29.9055  -31.6017  -20.0328 O   0  0  0  0  0  0  0  0  0  0  0  0
  1  2  1  0
  2  3  2  0
  4  5  1  0
  4  2  1  0
  5  6  1  1
  7  5  1  0
  7  8  2  0
 10  9  1  1
 11 10  1  0
 12 10  1  0
 13 12  1  6
 13 14  1  0
 14  7  1  0
 15 24  1  0
 15 13  1  0
 16 15  2  0
 18 17  1  0
 18 28  2  0
 19 18  1  0
 20 19  2  0
 20 21  1  0
 21 27  2  0
 22 21  1  0
 23 22  1  6
 23 24  1  0
 23 25  1  0
 25 26  1  0
 27 28  1  0
 29 25  2  0
M  END
$$$$
