NLY.pdb
     RDKit          3D

 29 29  0  0  1  0  0  0  0  0999 V2000
   28.5317  -20.9840  -17.8236 N   0  0  0  0  0  0  0  0  0  0  0  0
   27.2968  -20.2277  -17.7920 C   0  0  0  0  0  0  0  0  0  0  0  0
   27.1496  -19.3230  -18.6239 O   0  0  0  0  0  0  0  0  0  0  0  0
   26.3048  -20.5982  -16.7635 C   0  0  0  0  0  0  0  0  0  0  0  0
   26.7874  -21.6989  -15.8477 C   0  0  2  0  0  0  0  0  0  0  0  0
   26.5877  -22.9392  -16.6326 N   0  0  0  0  0  0  0  0  0  0  0  0
   25.8841  -21.8220  -14.6463 C   0  0  0  0  0  0  0  0  0  0  0  0
   24.7802  -22.4687  -14.7266 O   0  0  0  0  0  0  0  0  0  0  0  0
   25.8075  -20.0871   -8.6096 C   0  0  0  0  0  0  0  0  0  0  0  0
   25.1569  -20.6656   -9.8208 C   0  0  2  0  0  0  0  0  0  0  0  0
   24.4230  -21.9134   -9.4038 C   0  0  0  0  0  0  0  0  0  0  0  0
   25.9788  -20.8078  -11.0294 C   0  0  0  0  0  0  0  0  0  0  0  0
   25.3526  -21.1479  -12.3200 C   0  0  2  0  0  0  0  0  0  0  0  0
   26.2601  -21.2201  -13.4272 N   0  0  0  0  0  0  0  0  0  0  0  0
   24.1165  -20.3774  -12.6551 C   0  0  0  0  0  0  0  0  0  0  0  0
   24.1480  -19.1387  -12.8810 O   0  0  0  0  0  0  0  0  0  0  0  0
   20.7452  -24.6798  -17.4899 O   0  0  0  0  0  0  0  0  0  0  0  0
   20.9668  -23.5164  -16.7744 C   0  0  0  0  0  0  0  0  0  0  0  0
   22.1124  -22.7603  -16.8720 C   0  0  0  0  0  0  0  0  0  0  0  0
   22.2552  -21.6124  -16.1237 C   0  0  0  0  0  0  0  0  0  0  0  0
   21.2599  -21.1684  -15.2442 C   0  0  0  0  0  0  0  0  0  0  0  0
   21.4256  -19.9446  -14.4361 C   0  0  0  0  0  0  0  0  0  0  0  0
   21.6468  -20.1776  -12.9780 C   0  0  2  0  0  0  0  0  0  0  0  0
   22.8387  -20.9948  -12.7390 N   0  0  0  0  0  0  0  0  0  0  0  0
   20.4985  -20.9085  -12.4060 C   0  0  0  0  0  0  0  0  0  0  0  0
   20.6386  -22.1719  -11.8012 O   0  0  0  0  0  0  0  0  0  0  0  0
   20.1345  -21.9587  -15.1821 C   0  0  0  0  0  0  0  0  0  0  0  0
   19.9627  -23.1091  -15.9162 C   0  0  0  0  0  0  0  0  0  0  0  0
   19.3094  -20.4725  -12.4090 O   0  0  0  0  0  0  0  0  0  0  0  0
  1  2  1  0
  2  3  2  0
  4  5  1  0
  4  2  1  0
  5  6  1  6
  7  5  1  0
  7  8  2  0
 10  9  1  1
 11 10  1  0
 12 10  1  0
 13 12  1  1
 13 14  1  0
 14  7  1  0
 15 24  1  0
 15 13  1  0
 16 15  2  0
 18 17  1  0
 18 28  2  0
 19 18  1  0
 20 19  2  0
 20 21  1  0
 21 27  2  0
 22 21  1  0
 23 22  1  6
 23 24  1  0
 23 25  1  0
 25 26  1  0
 27 28  1  0
 29 25  2  0
M  END
$$$$
