NLY.pdb
     RDKit          3D

 29 29  0  0  1  0  0  0  0  0999 V2000
   22.0334  -13.6168  -18.1823 N   0  0  0  0  0  0  0  0  0  0  0  0
   20.7706  -13.2203  -18.7705 C   0  0  0  0  0  0  0  0  0  0  0  0
   20.1543  -14.0593  -19.4402 O   0  0  0  0  0  0  0  0  0  0  0  0
   20.3153  -11.8381  -18.5230 C   0  0  0  0  0  0  0  0  0  0  0  0
   20.5632  -11.3803  -17.1044 C   0  0  2  0  0  0  0  0  0  0  0  0
   19.6864  -12.2475  -16.2837 N   0  0  0  0  0  0  0  0  0  0  0  0
   20.0547   -9.9746  -16.9055 C   0  0  0  0  0  0  0  0  0  0  0  0
   20.5841   -8.9956  -17.5416 O   0  0  0  0  0  0  0  0  0  0  0  0
   16.4406   -6.9173  -17.5489 C   0  0  0  0  0  0  0  0  0  0  0  0
   16.1825   -8.0891  -16.6626 C   0  0  2  0  0  0  0  0  0  0  0  0
   14.7144   -8.1027  -16.3247 C   0  0  0  0  0  0  0  0  0  0  0  0
   17.0812   -8.2843  -15.5179 C   0  0  0  0  0  0  0  0  0  0  0  0
   18.5354   -8.4098  -15.7257 C   0  0  2  0  0  0  0  0  0  0  0  0
   18.9885   -9.7391  -16.0122 N   0  0  0  0  0  0  0  0  0  0  0  0
   19.3893   -7.7325  -14.7031 C   0  0  0  0  0  0  0  0  0  0  0  0
   19.3553   -8.0611  -13.4876 O   0  0  0  0  0  0  0  0  0  0  0  0
   25.8580   -6.5333  -18.1751 O   0  0  0  0  0  0  0  0  0  0  0  0
   24.9899   -6.6043  -17.1000 C   0  0  0  0  0  0  0  0  0  0  0  0
   24.2855   -7.7346  -16.7539 C   0  0  0  0  0  0  0  0  0  0  0  0
   23.4398   -7.7226  -15.6664 C   0  0  0  0  0  0  0  0  0  0  0  0
   23.2597   -6.5808  -14.8759 C   0  0  0  0  0  0  0  0  0  0  0  0
   22.3419   -6.5718  -13.7201 C   0  0  0  0  0  0  0  0  0  0  0  0
   21.0031   -5.9657  -13.9835 C   0  0  2  0  0  0  0  0  0  0  0  0
   20.2868   -6.6830  -15.0409 N   0  0  0  0  0  0  0  0  0  0  0  0
   21.1639   -4.5704  -14.4389 C   0  0  0  0  0  0  0  0  0  0  0  0
   21.7169   -3.5712  -13.6158 O   0  0  0  0  0  0  0  0  0  0  0  0
   23.9854   -5.4769  -15.2630 C   0  0  0  0  0  0  0  0  0  0  0  0
   24.8372   -5.4580  -16.3427 C   0  0  0  0  0  0  0  0  0  0  0  0
   20.8252   -4.1570  -15.5871 O   0  0  0  0  0  0  0  0  0  0  0  0
  1  2  1  0
  2  3  2  0
  4  5  1  0
  4  2  1  0
  5  6  1  1
  7  5  1  0
  7  8  2  0
 10  9  1  1
 11 10  1  0
 12 10  1  0
 13 12  1  1
 13 14  1  0
 14  7  1  0
 15 24  1  0
 15 13  1  0
 16 15  2  0
 18 17  1  0
 18 28  2  0
 19 18  1  0
 20 19  2  0
 20 21  1  0
 21 27  2  0
 22 21  1  0
 23 22  1  6
 23 24  1  0
 23 25  1  0
 25 26  1  0
 27 28  1  0
 29 25  2  0
M  END
$$$$
