NLY.pdb
     RDKit          3D

 29 29  0  0  1  0  0  0  0  0999 V2000
   22.9585  -15.7596  -21.1267 N   0  0  0  0  0  0  0  0  0  0  0  0
   22.2694  -14.9082  -20.1791 C   0  0  0  0  0  0  0  0  0  0  0  0
   21.1113  -14.5623  -20.4461 O   0  0  0  0  0  0  0  0  0  0  0  0
   23.0075  -14.5177  -18.9618 C   0  0  0  0  0  0  0  0  0  0  0  0
   22.5736  -13.1784  -18.4128 C   0  0  2  0  0  0  0  0  0  0  0  0
   22.6318  -12.2699  -19.5814 N   0  0  0  0  0  0  0  0  0  0  0  0
   23.5918  -12.6534  -17.4320 C   0  0  0  0  0  0  0  0  0  0  0  0
   24.4053  -13.4540  -16.8485 O   0  0  0  0  0  0  0  0  0  0  0  0
   28.4455  -10.2347  -16.8478 C   0  0  0  0  0  0  0  0  0  0  0  0
   27.2175  -10.5248  -16.0523 C   0  0  2  0  0  0  0  0  0  0  0  0
   27.6276  -11.3075  -14.8321 C   0  0  0  0  0  0  0  0  0  0  0  0
   26.0562  -11.0650  -16.7705 C   0  0  0  0  0  0  0  0  0  0  0  0
   24.6887  -10.7120  -16.3473 C   0  0  2  0  0  0  0  0  0  0  0  0
   23.6465  -11.2708  -17.1574 N   0  0  0  0  0  0  0  0  0  0  0  0
   24.4614   -9.2634  -16.0584 C   0  0  0  0  0  0  0  0  0  0  0  0
   25.1556   -8.6387  -15.2133 O   0  0  0  0  0  0  0  0  0  0  0  0
   21.8698   -0.8152  -16.5416 O   0  0  0  0  0  0  0  0  0  0  0  0
   22.1288   -2.1450  -16.8231 C   0  0  0  0  0  0  0  0  0  0  0  0
   21.2192   -2.9992  -17.4033 C   0  0  0  0  0  0  0  0  0  0  0  0
   21.5563   -4.3118  -17.6511 C   0  0  0  0  0  0  0  0  0  0  0  0
   22.8171   -4.8300  -17.3304 C   0  0  0  0  0  0  0  0  0  0  0  0
   23.1665   -6.2408  -17.5869 C   0  0  0  0  0  0  0  0  0  0  0  0
   23.2486   -7.1010  -16.3693 C   0  0  2  0  0  0  0  0  0  0  0  0
   23.4534   -8.5087  -16.7184 N   0  0  0  0  0  0  0  0  0  0  0  0
   21.9836   -7.0219  -15.6120 C   0  0  0  0  0  0  0  0  0  0  0  0
   21.7862   -6.0903  -14.5753 O   0  0  0  0  0  0  0  0  0  0  0  0
   23.6904   -3.9368  -16.7520 C   0  0  0  0  0  0  0  0  0  0  0  0
   23.3835   -2.6215  -16.4925 C   0  0  0  0  0  0  0  0  0  0  0  0
   20.9840   -7.7704  -15.8235 O   0  0  0  0  0  0  0  0  0  0  0  0
  1  2  1  0
  2  3  2  0
  4  5  1  0
  4  2  1  0
  5  6  1  6
  7  5  1  0
  7  8  2  0
 10  9  1  6
 11 10  1  0
 12 10  1  0
 13 12  1  6
 13 14  1  0
 14  7  1  0
 15 24  1  0
 15 13  1  0
 16 15  2  0
 18 17  1  0
 18 28  2  0
 19 18  1  0
 20 19  2  0
 20 21  1  0
 21 27  2  0
 22 21  1  0
 23 22  1  6
 23 24  1  0
 23 25  1  0
 25 26  1  0
 27 28  1  0
 29 25  2  0
M  END
$$$$
