NLY.pdb
     RDKit          3D

 29 29  0  0  1  0  0  0  0  0999 V2000
   45.6028  -10.7105  -10.3198 N   0  0  0  0  0  0  0  0  0  0  0  0
   44.8742   -9.7780   -9.4847 C   0  0  0  0  0  0  0  0  0  0  0  0
   45.5235   -9.0672   -8.7066 O   0  0  0  0  0  0  0  0  0  0  0  0
   43.4054   -9.7488   -9.6285 C   0  0  0  0  0  0  0  0  0  0  0  0
   42.7632   -8.5962   -8.8918 C   0  0  2  0  0  0  0  0  0  0  0  0
   42.7747   -9.0199   -7.4724 N   0  0  0  0  0  0  0  0  0  0  0  0
   41.3094   -8.4694   -9.2719 C   0  0  0  0  0  0  0  0  0  0  0  0
   40.9757   -8.0138  -10.4227 O   0  0  0  0  0  0  0  0  0  0  0  0
   39.0104  -12.0754   -8.5932 C   0  0  0  0  0  0  0  0  0  0  0  0
   38.6512  -11.0750   -7.5467 C   0  0  2  0  0  0  0  0  0  0  0  0
   37.8582  -11.7826   -6.4790 C   0  0  0  0  0  0  0  0  0  0  0  0
   38.0801   -9.7990   -7.9960 C   0  0  0  0  0  0  0  0  0  0  0  0
   38.9217   -8.8122   -8.6970 C   0  0  2  0  0  0  0  0  0  0  0  0
   40.3122   -8.8560   -8.3519 N   0  0  0  0  0  0  0  0  0  0  0  0
   38.3905   -7.4154   -8.7158 C   0  0  0  0  0  0  0  0  0  0  0  0
   37.3372   -7.1147   -9.3377 O   0  0  0  0  0  0  0  0  0  0  0  0
   36.3360    0.9262   -6.8431 O   0  0  0  0  0  0  0  0  0  0  0  0
   36.7393   -0.3970   -6.8109 C   0  0  0  0  0  0  0  0  0  0  0  0
   37.7145   -0.8833   -5.9706 C   0  0  0  0  0  0  0  0  0  0  0  0
   38.0583   -2.2170   -6.0008 C   0  0  0  0  0  0  0  0  0  0  0  0
   37.4435   -3.1248   -6.8719 C   0  0  0  0  0  0  0  0  0  0  0  0
   37.8264   -4.5497   -6.9076 C   0  0  0  0  0  0  0  0  0  0  0  0
   38.5223   -4.9840   -8.1551 C   0  0  2  0  0  0  0  0  0  0  0  0
   39.0392   -6.3492   -8.0350 N   0  0  0  0  0  0  0  0  0  0  0  0
   39.6788   -4.1043   -8.4176 C   0  0  0  0  0  0  0  0  0  0  0  0
   39.5792   -2.9531   -9.2214 O   0  0  0  0  0  0  0  0  0  0  0  0
   36.4757   -2.5900   -7.6918 C   0  0  0  0  0  0  0  0  0  0  0  0
   36.1105   -1.2640   -7.6848 C   0  0  0  0  0  0  0  0  0  0  0  0
   40.8398   -4.3038   -7.9523 O   0  0  0  0  0  0  0  0  0  0  0  0
  1  2  1  0
  2  3  2  0
  4  5  1  0
  4  2  1  0
  5  6  1  1
  7  5  1  0
  7  8  2  0
 10  9  1  6
 11 10  1  0
 12 10  1  0
 13 12  1  1
 13 14  1  0
 14  7  1  0
 15 24  1  0
 15 13  1  0
 16 15  2  0
 18 17  1  0
 18 28  2  0
 19 18  1  0
 20 19  2  0
 20 21  1  0
 21 27  2  0
 22 21  1  0
 23 22  1  1
 23 24  1  0
 23 25  1  0
 25 26  1  0
 27 28  1  0
 29 25  2  0
M  END
$$$$
