NLY.pdb
     RDKit          3D

 29 29  0  0  1  0  0  0  0  0999 V2000
   45.1597  -11.8738   -5.9625 N   0  0  0  0  0  0  0  0  0  0  0  0
   45.2067  -10.4314   -6.0848 C   0  0  0  0  0  0  0  0  0  0  0  0
   46.1063   -9.8279   -5.4858 O   0  0  0  0  0  0  0  0  0  0  0  0
   44.1713   -9.7908   -6.9195 C   0  0  0  0  0  0  0  0  0  0  0  0
   43.2020  -10.7817   -7.5211 C   0  0  2  0  0  0  0  0  0  0  0  0
   43.9208  -11.3261   -8.6965 N   0  0  0  0  0  0  0  0  0  0  0  0
   41.9916  -10.0705   -8.0718 C   0  0  0  0  0  0  0  0  0  0  0  0
   42.0458   -9.4796   -9.2081 O   0  0  0  0  0  0  0  0  0  0  0  0
   37.8994  -11.8579   -8.7792 C   0  0  0  0  0  0  0  0  0  0  0  0
   38.0115  -11.2973   -7.4014 C   0  0  2  0  0  0  0  0  0  0  0  0
   36.7972  -11.7308   -6.6223 C   0  0  0  0  0  0  0  0  0  0  0  0
   38.3510   -9.8744   -7.2740 C   0  0  0  0  0  0  0  0  0  0  0  0
   39.6303   -9.3640   -7.7998 C   0  0  2  0  0  0  0  0  0  0  0  0
   40.7927  -10.0577   -7.3284 N   0  0  0  0  0  0  0  0  0  0  0  0
   39.7994   -7.8802   -7.7442 C   0  0  0  0  0  0  0  0  0  0  0  0
   40.1677   -7.2936   -6.6921 O   0  0  0  0  0  0  0  0  0  0  0  0
   36.7020   -5.6444  -14.4407 O   0  0  0  0  0  0  0  0  0  0  0  0
   37.5899   -5.5455  -13.3841 C   0  0  0  0  0  0  0  0  0  0  0  0
   38.5114   -6.5151  -13.0610 C   0  0  0  0  0  0  0  0  0  0  0  0
   39.3614   -6.3393  -11.9912 C   0  0  0  0  0  0  0  0  0  0  0  0
   39.3289   -5.1869  -11.1960 C   0  0  0  0  0  0  0  0  0  0  0  0
   40.2340   -5.0115  -10.0435 C   0  0  0  0  0  0  0  0  0  0  0  0
   39.7428   -5.5987   -8.7617 C   0  0  2  0  0  0  0  0  0  0  0  0
   39.5566   -7.0475   -8.8706 N   0  0  0  0  0  0  0  0  0  0  0  0
   38.4307   -5.0181   -8.4132 C   0  0  0  0  0  0  0  0  0  0  0  0
   38.2725   -3.6552   -8.0987 O   0  0  0  0  0  0  0  0  0  0  0  0
   38.3903   -4.2478  -11.5594 C   0  0  0  0  0  0  0  0  0  0  0  0
   37.5287   -4.3944  -12.6214 C   0  0  0  0  0  0  0  0  0  0  0  0
   37.3529   -5.6817   -8.3670 O   0  0  0  0  0  0  0  0  0  0  0  0
  1  2  1  0
  2  3  2  0
  4  5  1  0
  4  2  1  0
  5  6  1  6
  7  5  1  0
  7  8  2  0
 10  9  1  6
 11 10  1  0
 12 10  1  0
 13 12  1  1
 13 14  1  0
 14  7  1  0
 15 24  1  0
 15 13  1  0
 16 15  2  0
 18 17  1  0
 18 28  2  0
 19 18  1  0
 20 19  2  0
 20 21  1  0
 21 27  2  0
 22 21  1  0
 23 22  1  6
 23 24  1  0
 23 25  1  0
 25 26  1  0
 27 28  1  0
 29 25  2  0
M  END
$$$$
