NLY.pdb
     RDKit          3D

 29 29  0  0  1  0  0  0  0  0999 V2000
   28.1891  -19.7371  -19.6493 N   0  0  0  0  0  0  0  0  0  0  0  0
   28.4105  -19.5842  -18.2261 C   0  0  0  0  0  0  0  0  0  0  0  0
   29.4656  -19.0520  -17.8574 O   0  0  0  0  0  0  0  0  0  0  0  0
   27.3535  -20.0782  -17.3218 C   0  0  0  0  0  0  0  0  0  0  0  0
   27.8434  -21.1423  -16.3673 C   0  0  2  0  0  0  0  0  0  0  0  0
   27.9219  -22.3671  -17.1968 N   0  0  0  0  0  0  0  0  0  0  0  0
   26.8041  -21.4257  -15.3119 C   0  0  0  0  0  0  0  0  0  0  0  0
   25.7369  -22.0715  -15.6074 O   0  0  0  0  0  0  0  0  0  0  0  0
   24.1857  -21.5879  -10.7655 C   0  0  0  0  0  0  0  0  0  0  0  0
   25.5972  -21.2147  -10.4601 C   0  0  2  0  0  0  0  0  0  0  0  0
   25.5754  -20.1089   -9.4372 C   0  0  0  0  0  0  0  0  0  0  0  0
   26.4993  -20.9869  -11.5961 C   0  0  0  0  0  0  0  0  0  0  0  0
   26.0126  -21.1510  -12.9780 C   0  0  2  0  0  0  0  0  0  0  0  0
   27.0113  -20.9754  -13.9911 N   0  0  0  0  0  0  0  0  0  0  0  0
   24.7481  -20.4236  -13.3025 C   0  0  0  0  0  0  0  0  0  0  0  0
   24.7084  -19.1674  -13.3864 O   0  0  0  0  0  0  0  0  0  0  0  0
   17.6181  -17.4042  -17.2084 O   0  0  0  0  0  0  0  0  0  0  0  0
   18.7758  -18.0066  -16.7487 C   0  0  0  0  0  0  0  0  0  0  0  0
   19.8800  -17.3139  -16.3077 C   0  0  0  0  0  0  0  0  0  0  0  0
   20.9955  -17.9903  -15.8648 C   0  0  0  0  0  0  0  0  0  0  0  0
   21.0580  -19.3891  -15.8426 C   0  0  0  0  0  0  0  0  0  0  0  0
   22.2615  -20.1067  -15.3789 C   0  0  0  0  0  0  0  0  0  0  0  0
   22.3247  -20.3450  -13.9064 C   0  0  2  0  0  0  0  0  0  0  0  0
   23.5216  -21.1036  -13.5354 N   0  0  0  0  0  0  0  0  0  0  0  0
   21.1572  -21.1395  -13.4753 C   0  0  0  0  0  0  0  0  0  0  0  0
   19.9699  -20.5399  -13.0145 O   0  0  0  0  0  0  0  0  0  0  0  0
   19.9295  -20.0356  -16.2936 C   0  0  0  0  0  0  0  0  0  0  0  0
   18.8013  -19.3886  -16.7414 C   0  0  0  0  0  0  0  0  0  0  0  0
   21.1213  -22.4055  -13.4816 O   0  0  0  0  0  0  0  0  0  0  0  0
  1  2  1  0
  2  3  2  0
  4  5  1  0
  4  2  1  0
  5  6  1  6
  7  5  1  0
  7  8  2  0
 10  9  1  6
 11 10  1  0
 12 10  1  0
 13 12  1  1
 13 14  1  0
 14  7  1  0
 15 24  1  0
 15 13  1  0
 16 15  2  0
 18 17  1  0
 18 28  2  0
 19 18  1  0
 20 19  2  0
 20 21  1  0
 21 27  2  0
 22 21  1  0
 23 22  1  6
 23 24  1  0
 23 25  1  0
 25 26  1  0
 27 28  1  0
 29 25  2  0
M  END
$$$$
