NLY.pdb
     RDKit          3D

 29 29  0  0  1  0  0  0  0  0999 V2000
   29.2229  -21.6428  -18.0844 N   0  0  0  0  0  0  0  0  0  0  0  0
   29.0470  -22.9018  -17.3902 C   0  0  0  0  0  0  0  0  0  0  0  0
   29.7483  -23.8598  -17.7405 O   0  0  0  0  0  0  0  0  0  0  0  0
   28.0387  -22.9432  -16.3128 C   0  0  0  0  0  0  0  0  0  0  0  0
   27.3814  -21.6048  -16.0682 C   0  0  2  0  0  0  0  0  0  0  0  0
   28.4761  -20.7505  -15.5523 N   0  0  0  0  0  0  0  0  0  0  0  0
   26.3756  -21.7057  -14.9490 C   0  0  0  0  0  0  0  0  0  0  0  0
   25.2956  -22.3786  -15.1043 O   0  0  0  0  0  0  0  0  0  0  0  0
   25.8771  -20.0473   -8.9146 C   0  0  0  0  0  0  0  0  0  0  0  0
   25.3160  -20.6223  -10.1714 C   0  0  2  0  0  0  0  0  0  0  0  0
   24.6168  -21.9103   -9.8225 C   0  0  0  0  0  0  0  0  0  0  0  0
   26.2046  -20.6987  -11.3379 C   0  0  0  0  0  0  0  0  0  0  0  0
   25.6668  -21.0639  -12.6611 C   0  0  2  0  0  0  0  0  0  0  0  0
   26.6287  -21.0540  -13.7238 N   0  0  0  0  0  0  0  0  0  0  0  0
   24.3953  -20.3798  -13.0469 C   0  0  0  0  0  0  0  0  0  0  0  0
   24.3547  -19.1453  -13.2936 O   0  0  0  0  0  0  0  0  0  0  0  0
   17.2322  -17.9143  -17.2498 O   0  0  0  0  0  0  0  0  0  0  0  0
   18.4140  -18.3880  -16.7079 C   0  0  0  0  0  0  0  0  0  0  0  0
   19.4394  -17.5792  -16.2742 C   0  0  0  0  0  0  0  0  0  0  0  0
   20.5857  -18.1309  -15.7455 C   0  0  0  0  0  0  0  0  0  0  0  0
   20.7591  -19.5154  -15.6264 C   0  0  0  0  0  0  0  0  0  0  0  0
   21.9955  -20.0995  -15.0710 C   0  0  0  0  0  0  0  0  0  0  0  0
   21.9594  -20.3726  -13.6036 C   0  0  2  0  0  0  0  0  0  0  0  0
   23.1627  -21.0793  -13.1584 N   0  0  0  0  0  0  0  0  0  0  0  0
   20.8057  -21.2358  -13.2813 C   0  0  0  0  0  0  0  0  0  0  0  0
   19.5972  -20.7173  -12.7790 O   0  0  0  0  0  0  0  0  0  0  0  0
   19.7062  -20.2808  -16.0741 C   0  0  0  0  0  0  0  0  0  0  0  0
   18.5499  -19.7598  -16.6061 C   0  0  0  0  0  0  0  0  0  0  0  0
   20.8012  -22.4942  -13.4252 O   0  0  0  0  0  0  0  0  0  0  0  0
  1  2  1  0
  2  3  2  0
  4  5  1  0
  4  2  1  0
  5  6  1  1
  7  5  1  0
  7  8  2  0
 10  9  1  1
 11 10  1  0
 12 10  1  0
 13 12  1  1
 13 14  1  0
 14  7  1  0
 15 24  1  0
 15 13  1  0
 16 15  2  0
 18 17  1  0
 18 28  2  0
 19 18  1  0
 20 19  2  0
 20 21  1  0
 21 27  2  0
 22 21  1  0
 23 22  1  6
 23 24  1  0
 23 25  1  0
 25 26  1  0
 27 28  1  0
 29 25  2  0
M  END
$$$$
