NLY.pdb
     RDKit          3D

 29 29  0  0  1  0  0  0  0  0999 V2000
   19.9781  -14.9996  -18.3641 N   0  0  0  0  0  0  0  0  0  0  0  0
   20.1771  -14.9597  -16.9300 C   0  0  0  0  0  0  0  0  0  0  0  0
   19.7712  -15.9191  -16.2615 O   0  0  0  0  0  0  0  0  0  0  0  0
   20.8528  -13.7702  -16.3754 C   0  0  0  0  0  0  0  0  0  0  0  0
   21.1835  -12.7359  -17.4262 C   0  0  2  0  0  0  0  0  0  0  0  0
   22.4121  -13.2532  -18.0721 N   0  0  0  0  0  0  0  0  0  0  0  0
   21.5763  -11.4313  -16.7795 C   0  0  0  0  0  0  0  0  0  0  0  0
   20.7686  -10.8296  -15.9867 O   0  0  0  0  0  0  0  0  0  0  0  0
   25.3306  -10.6842  -14.2356 C   0  0  0  0  0  0  0  0  0  0  0  0
   25.5600  -10.4605  -15.6925 C   0  0  2  0  0  0  0  0  0  0  0  0
   27.0415  -10.2956  -15.9104 C   0  0  0  0  0  0  0  0  0  0  0  0
   24.7220   -9.4596  -16.3650 C   0  0  0  0  0  0  0  0  0  0  0  0
   23.2613   -9.6432  -16.4442 C   0  0  2  0  0  0  0  0  0  0  0  0
   22.8428  -10.8724  -17.0514 N   0  0  0  0  0  0  0  0  0  0  0  0
   22.4954   -8.4697  -16.9637 C   0  0  0  0  0  0  0  0  0  0  0  0
   22.5381   -8.1343  -18.1770 O   0  0  0  0  0  0  0  0  0  0  0  0
   16.4269   -2.3333  -18.5142 O   0  0  0  0  0  0  0  0  0  0  0  0
   17.1487   -3.4175  -18.0473 C   0  0  0  0  0  0  0  0  0  0  0  0
   17.0617   -3.9034  -16.7628 C   0  0  0  0  0  0  0  0  0  0  0  0
   17.8157   -4.9897  -16.3764 C   0  0  0  0  0  0  0  0  0  0  0  0
   18.6905   -5.6395  -17.2560 C   0  0  0  0  0  0  0  0  0  0  0  0
   19.5048   -6.7947  -16.8310 C   0  0  0  0  0  0  0  0  0  0  0  0
   20.9639   -6.5158  -16.6808 C   0  0  2  0  0  0  0  0  0  0  0  0
   21.6767   -7.6674  -16.1229 N   0  0  0  0  0  0  0  0  0  0  0  0
   21.1666   -5.3881  -15.7495 C   0  0  0  0  0  0  0  0  0  0  0  0
   21.7001   -5.5666  -14.4592 O   0  0  0  0  0  0  0  0  0  0  0  0
   18.7420   -5.1160  -18.5281 C   0  0  0  0  0  0  0  0  0  0  0  0
   18.0020   -4.0335  -18.9434 C   0  0  0  0  0  0  0  0  0  0  0  0
   20.8839   -4.1843  -16.0235 O   0  0  0  0  0  0  0  0  0  0  0  0
  1  2  1  0
  2  3  2  0
  4  5  1  0
  4  2  1  0
  5  6  1  1
  7  5  1  0
  7  8  2  0
 10  9  1  1
 11 10  1  0
 12 10  1  0
 13 12  1  6
 13 14  1  0
 14  7  1  0
 15 24  1  0
 15 13  1  0
 16 15  2  0
 18 17  1  0
 18 28  2  0
 19 18  1  0
 20 19  2  0
 20 21  1  0
 21 27  2  0
 22 21  1  0
 23 22  1  1
 23 24  1  0
 23 25  1  0
 25 26  1  0
 27 28  1  0
 29 25  2  0
M  END
$$$$
