GWE.pdb
     RDKit          3D

 28 29  0  0  1  0  0  0  0  0999 V2000
   29.7488  -20.3521  -14.4118 N   0  0  0  0  0  0  0  0  0  0  0  0
   28.8414  -19.5755  -13.5909 C   0  0  0  0  0  0  0  0  0  0  0  0
   27.6814  -20.4285  -13.1491 C   0  0  0  0  0  0  0  0  0  0  0  0
   27.4266  -21.4359  -13.8096 O   0  0  0  0  0  0  0  0  0  0  0  0
   26.9072  -20.1060  -12.0309 N   0  0  0  0  0  0  0  0  0  0  0  0
   25.7843  -20.8020  -11.5886 C   0  0  1  0  0  0  0  0  0  0  0  0
   25.6081  -21.0770  -10.1144 C   0  0  0  0  0  0  0  0  0  0  0  0
   26.6901  -20.5210   -9.2800 C   0  0  0  0  0  0  0  0  0  0  0  0
   26.6565  -19.5552   -8.3076 C   0  0  0  0  0  0  0  0  0  0  0  0
   27.9090  -19.3683   -7.7913 N   0  0  0  0  0  0  0  0  0  0  0  0
   28.7583  -20.1832   -8.3968 C   0  0  0  0  0  0  0  0  0  0  0  0
   30.1254  -20.4438   -8.2979 C   0  0  0  0  0  0  0  0  0  0  0  0
   30.7426  -21.3893   -9.0889 C   0  0  0  0  0  0  0  0  0  0  0  0
   30.0197  -22.1115  -10.0091 C   0  0  0  0  0  0  0  0  0  0  0  0
   28.6510  -21.8441  -10.1019 C   0  0  0  0  0  0  0  0  0  0  0  0
   28.0459  -20.8984   -9.3084 C   0  0  0  0  0  0  0  0  0  0  0  0
   24.4948  -20.5043  -12.2646 C   0  0  0  0  0  0  0  0  0  0  0  0
   24.0250  -19.3340  -12.2869 O   0  0  0  0  0  0  0  0  0  0  0  0
   23.7478  -21.5293  -12.9086 N   0  0  0  0  0  0  0  0  0  0  0  0
   22.4867  -21.3639  -13.5808 C   0  0  1  0  0  0  0  0  0  0  0  0
   22.0888  -22.5499  -14.3788 C   0  0  0  0  0  0  0  0  0  0  0  0
   20.7909  -22.3574  -15.1156 C   0  0  0  0  0  0  0  0  0  0  0  0
   20.4829  -23.5748  -15.9565 C   0  0  0  0  0  0  0  0  0  0  0  0
   21.3087  -24.5180  -16.0351 O   0  0  0  0  0  0  0  0  0  0  0  0
   21.4861  -20.8498  -12.6282 C   0  0  0  0  0  0  0  0  0  0  0  0
   20.5864  -19.8347  -12.8992 O   0  0  0  0  0  0  0  0  0  0  0  0
   19.2890  -23.6362  -16.6330 O   0  0  0  0  0  0  0  0  0  0  0  0
   21.4159  -21.3430  -11.4766 O   0  0  0  0  0  0  0  0  0  0  0  0
  1  2  1  0
  3  4  2  0
  3  2  1  0
  5  3  1  0
  6  5  1  0
  6  7  1  1
  8  7  1  0
  9  8  2  0
 10 11  1  0
 10  9  1  0
 11 16  2  0
 12 11  1  0
 12 13  2  0
 13 14  1  0
 14 15  2  0
 16  8  1  0
 16 15  1  0
 17 19  1  0
 17  6  1  0
 18 17  2  0
 20 25  1  0
 20 19  1  0
 20 21  1  1
 22 21  1  0
 23 22  1  0
 24 23  2  0
 25 26  1  0
 27 23  1  0
 28 25  2  0
M  END
$$$$
