GWE.pdb
     RDKit          3D

 28 29  0  0  1  0  0  0  0  0999 V2000
   29.2602  -21.9636  -14.8150 N   0  0  0  0  0  0  0  0  0  0  0  0
   28.6725  -20.7953  -14.1904 C   0  0  0  0  0  0  0  0  0  0  0  0
   27.4051  -21.1736  -13.4699 C   0  0  0  0  0  0  0  0  0  0  0  0
   26.6376  -21.9550  -14.0324 O   0  0  0  0  0  0  0  0  0  0  0  0
   27.0910  -20.6667  -12.2058 N   0  0  0  0  0  0  0  0  0  0  0  0
   25.9244  -20.9265  -11.4900 C   0  0  1  0  0  0  0  0  0  0  0  0
   25.9629  -20.9495   -9.9808 C   0  0  0  0  0  0  0  0  0  0  0  0
   27.3190  -21.1357   -9.4308 C   0  0  0  0  0  0  0  0  0  0  0  0
   28.4030  -21.8004   -9.9433 C   0  0  0  0  0  0  0  0  0  0  0  0
   29.4616  -21.7006   -9.0833 N   0  0  0  0  0  0  0  0  0  0  0  0
   29.1013  -20.9905   -8.0259 C   0  0  0  0  0  0  0  0  0  0  0  0
   29.7306  -20.5628   -6.8564 C   0  0  0  0  0  0  0  0  0  0  0  0
   29.0707  -19.8037   -5.9136 C   0  0  0  0  0  0  0  0  0  0  0  0
   27.7573  -19.4419   -6.1012 C   0  0  0  0  0  0  0  0  0  0  0  0
   27.1344  -19.8746   -7.2752 C   0  0  0  0  0  0  0  0  0  0  0  0
   27.8020  -20.6319   -8.2085 C   0  0  0  0  0  0  0  0  0  0  0  0
   24.6648  -20.3361  -12.0129 C   0  0  0  0  0  0  0  0  0  0  0  0
   24.5491  -19.0917  -12.1827 O   0  0  0  0  0  0  0  0  0  0  0  0
   23.5482  -21.1548  -12.3389 N   0  0  0  0  0  0  0  0  0  0  0  0
   22.4095  -20.7611  -13.1249 C   0  0  1  0  0  0  0  0  0  0  0  0
   22.2690  -21.5375  -14.3815 C   0  0  0  0  0  0  0  0  0  0  0  0
   21.8651  -22.9684  -14.1494 C   0  0  0  0  0  0  0  0  0  0  0  0
   20.5871  -23.2772  -14.8948 C   0  0  0  0  0  0  0  0  0  0  0  0
   19.9381  -24.3213  -14.6374 O   0  0  0  0  0  0  0  0  0  0  0  0
   21.2169  -20.6916  -12.2613 C   0  0  0  0  0  0  0  0  0  0  0  0
   20.0674  -19.9815  -12.5579 O   0  0  0  0  0  0  0  0  0  0  0  0
   20.1451  -22.4016  -15.8565 O   0  0  0  0  0  0  0  0  0  0  0  0
   21.2065  -21.3072  -11.1680 O   0  0  0  0  0  0  0  0  0  0  0  0
  1  2  1  0
  3  4  2  0
  3  2  1  0
  5  3  1  0
  6  5  1  0
  6  7  1  1
  8  7  1  0
  9  8  2  0
 10 11  1  0
 10  9  1  0
 11 16  2  0
 12 11  1  0
 12 13  2  0
 13 14  1  0
 14 15  2  0
 16  8  1  0
 16 15  1  0
 17 19  1  0
 17  6  1  0
 18 17  2  0
 20 25  1  0
 20 19  1  0
 20 21  1  6
 22 21  1  0
 23 22  1  0
 24 23  2  0
 25 26  1  0
 27 23  1  0
 28 25  2  0
M  END
$$$$
