GWE.pdb
     RDKit          3D

 28 29  0  0  1  0  0  0  0  0999 V2000
   20.4101  -28.9432   -8.9320 N   0  0  0  0  0  0  0  0  0  0  0  0
   21.6821  -29.1914   -9.5806 C   0  0  0  0  0  0  0  0  0  0  0  0
   22.2223  -30.5353   -9.1676 C   0  0  0  0  0  0  0  0  0  0  0  0
   21.5613  -31.1971   -8.3670 O   0  0  0  0  0  0  0  0  0  0  0  0
   23.4305  -31.0332   -9.6636 N   0  0  0  0  0  0  0  0  0  0  0  0
   24.0763  -32.1883   -9.2281 C   0  0  1  0  0  0  0  0  0  0  0  0
   24.9690  -32.9491  -10.1790 C   0  0  0  0  0  0  0  0  0  0  0  0
   24.9046  -34.4121  -10.0011 C   0  0  0  0  0  0  0  0  0  0  0  0
   24.0131  -35.1848   -9.3028 C   0  0  0  0  0  0  0  0  0  0  0  0
   24.3424  -36.5062   -9.4273 N   0  0  0  0  0  0  0  0  0  0  0  0
   25.4211  -36.6190  -10.1861 C   0  0  0  0  0  0  0  0  0  0  0  0
   26.1972  -37.6788  -10.6564 C   0  0  0  0  0  0  0  0  0  0  0  0
   27.2960  -37.4713  -11.4626 C   0  0  0  0  0  0  0  0  0  0  0  0
   27.6631  -36.1983  -11.8310 C   0  0  0  0  0  0  0  0  0  0  0  0
   26.8804  -35.1424  -11.3554 C   0  0  0  0  0  0  0  0  0  0  0  0
   25.7869  -35.3609  -10.5513 C   0  0  0  0  0  0  0  0  0  0  0  0
   24.6053  -32.1844   -7.8394 C   0  0  0  0  0  0  0  0  0  0  0  0
   25.2780  -31.2120   -7.4004 O   0  0  0  0  0  0  0  0  0  0  0  0
   24.3706  -33.2771   -6.9595 N   0  0  0  0  0  0  0  0  0  0  0  0
   24.7520  -33.3466   -5.5741 C   0  0  1  0  0  0  0  0  0  0  0  0
   23.7188  -33.9735   -4.7133 C   0  0  0  0  0  0  0  0  0  0  0  0
   24.1316  -34.0684   -3.2693 C   0  0  0  0  0  0  0  0  0  0  0  0
   22.9153  -34.2424   -2.3893 C   0  0  0  0  0  0  0  0  0  0  0  0
   22.9547  -35.0098   -1.3957 O   0  0  0  0  0  0  0  0  0  0  0  0
   26.1154  -33.8967   -5.4671 C   0  0  0  0  0  0  0  0  0  0  0  0
   26.7363  -34.6628   -6.4372 O   0  0  0  0  0  0  0  0  0  0  0  0
   21.7671  -33.5510   -2.6903 O   0  0  0  0  0  0  0  0  0  0  0  0
   26.7933  -33.6768   -4.4343 O   0  0  0  0  0  0  0  0  0  0  0  0
  1  2  1  0
  3  4  2  0
  3  2  1  0
  5  3  1  0
  6  5  1  0
  6  7  1  6
  8  7  1  0
  9  8  2  0
 10 11  1  0
 10  9  1  0
 11 16  2  0
 12 11  1  0
 12 13  2  0
 13 14  1  0
 14 15  2  0
 16  8  1  0
 16 15  1  0
 17 19  1  0
 17  6  1  0
 18 17  2  0
 20 25  1  0
 20 19  1  0
 20 21  1  1
 22 21  1  0
 23 22  1  0
 24 23  2  0
 25 26  1  0
 27 23  1  0
 28 25  2  0
M  END
$$$$
