GWE.pdb
     RDKit          3D

 28 29  0  0  1  0  0  0  0  0999 V2000
   28.5611  -21.4193  -15.3403 N   0  0  0  0  0  0  0  0  0  0  0  0
   28.2192  -20.4773  -14.2934 C   0  0  0  0  0  0  0  0  0  0  0  0
   27.0806  -21.0120  -13.4650 C   0  0  0  0  0  0  0  0  0  0  0  0
   26.4705  -21.9916  -13.8941 O   0  0  0  0  0  0  0  0  0  0  0  0
   26.7122  -20.4313  -12.2481 N   0  0  0  0  0  0  0  0  0  0  0  0
   25.6295  -20.8115  -11.4581 C   0  0  1  0  0  0  0  0  0  0  0  0
   25.7070  -20.6546   -9.9584 C   0  0  0  0  0  0  0  0  0  0  0  0
   27.0656  -20.8481   -9.4172 C   0  0  0  0  0  0  0  0  0  0  0  0
   28.1688  -21.4414   -9.9745 C   0  0  0  0  0  0  0  0  0  0  0  0
   29.2212  -21.3822   -9.1033 N   0  0  0  0  0  0  0  0  0  0  0  0
   28.8384  -20.7678   -7.9952 C   0  0  0  0  0  0  0  0  0  0  0  0
   29.4519  -20.4176   -6.7920 C   0  0  0  0  0  0  0  0  0  0  0  0
   28.7686  -19.7532   -5.7959 C   0  0  0  0  0  0  0  0  0  0  0  0
   27.4468  -19.4123   -5.9617 C   0  0  0  0  0  0  0  0  0  0  0  0
   26.8398  -19.7669   -7.1697 C   0  0  0  0  0  0  0  0  0  0  0  0
   27.5306  -20.4301   -8.1561 C   0  0  0  0  0  0  0  0  0  0  0  0
   24.2715  -20.5188  -11.9861 C   0  0  0  0  0  0  0  0  0  0  0  0
   23.8538  -19.3334  -12.0904 O   0  0  0  0  0  0  0  0  0  0  0  0
   23.3981  -21.5659  -12.3912 N   0  0  0  0  0  0  0  0  0  0  0  0
   22.1033  -21.4029  -12.9965 C   0  0  1  0  0  0  0  0  0  0  0  0
   21.7451  -22.5084  -13.9192 C   0  0  0  0  0  0  0  0  0  0  0  0
   20.3700  -22.3603  -14.5122 C   0  0  0  0  0  0  0  0  0  0  0  0
   20.4406  -21.5802  -15.8047 C   0  0  0  0  0  0  0  0  0  0  0  0
   20.5158  -20.3265  -15.7867 O   0  0  0  0  0  0  0  0  0  0  0  0
   21.1130  -21.0715  -11.9562 C   0  0  0  0  0  0  0  0  0  0  0  0
   19.9828  -20.3001  -12.1589 O   0  0  0  0  0  0  0  0  0  0  0  0
   20.4215  -22.2596  -16.9983 O   0  0  0  0  0  0  0  0  0  0  0  0
   21.2736  -21.5009  -10.7882 O   0  0  0  0  0  0  0  0  0  0  0  0
  1  2  1  0
  3  4  2  0
  3  2  1  0
  5  3  1  0
  6  5  1  0
  6  7  1  1
  8  7  1  0
  9  8  2  0
 10 11  1  0
 10  9  1  0
 11 16  2  0
 12 11  1  0
 12 13  2  0
 13 14  1  0
 14 15  2  0
 16  8  1  0
 16 15  1  0
 17 19  1  0
 17  6  1  0
 18 17  2  0
 20 25  1  0
 20 19  1  0
 20 21  1  1
 22 21  1  0
 23 22  1  0
 24 23  2  0
 25 26  1  0
 27 23  1  0
 28 25  2  0
M  END
$$$$
