GWE.pdb
     RDKit          3D

 28 29  0  0  1  0  0  0  0  0999 V2000
   28.0297  -22.5249  -15.5000 N   0  0  0  0  0  0  0  0  0  0  0  0
   28.1669  -21.3017  -14.7350 C   0  0  0  0  0  0  0  0  0  0  0  0
   27.4166  -21.4157  -13.4340 C   0  0  0  0  0  0  0  0  0  0  0  0
   26.2817  -21.8919  -13.4669 O   0  0  0  0  0  0  0  0  0  0  0  0
   27.9706  -21.0010  -12.2196 N   0  0  0  0  0  0  0  0  0  0  0  0
   27.2849  -20.8668  -11.0143 C   0  0  1  0  0  0  0  0  0  0  0  0
   28.0553  -20.6187   -9.7396 C   0  0  0  0  0  0  0  0  0  0  0  0
   27.2256  -20.7156   -8.5238 C   0  0  0  0  0  0  0  0  0  0  0  0
   25.9489  -21.1850   -8.3534 C   0  0  0  0  0  0  0  0  0  0  0  0
   25.5878  -21.0897   -7.0378 N   0  0  0  0  0  0  0  0  0  0  0  0
   26.5903  -20.5733   -6.3449 C   0  0  0  0  0  0  0  0  0  0  0  0
   26.8089  -20.2522   -5.0048 C   0  0  0  0  0  0  0  0  0  0  0  0
   28.0024  -19.7137   -4.5733 C   0  0  0  0  0  0  0  0  0  0  0  0
   29.0242  -19.4748   -5.4621 C   0  0  0  0  0  0  0  0  0  0  0  0
   28.7969  -19.7991   -6.8026 C   0  0  0  0  0  0  0  0  0  0  0  0
   27.6024  -20.3352   -7.2220 C   0  0  0  0  0  0  0  0  0  0  0  0
   25.9971  -20.1260  -11.0480 C   0  0  0  0  0  0  0  0  0  0  0  0
   25.9707  -18.8668  -11.1163 O   0  0  0  0  0  0  0  0  0  0  0  0
   24.7520  -20.8123  -11.0042 N   0  0  0  0  0  0  0  0  0  0  0  0
   23.4731  -20.2727  -11.3824 C   0  0  1  0  0  0  0  0  0  0  0  0
   23.0707  -20.6344  -12.7641 C   0  0  0  0  0  0  0  0  0  0  0  0
   23.7216  -19.7737  -13.8129 C   0  0  0  0  0  0  0  0  0  0  0  0
   23.1653  -20.1052  -15.1785 C   0  0  0  0  0  0  0  0  0  0  0  0
   22.8515  -21.2867  -15.4668 O   0  0  0  0  0  0  0  0  0  0  0  0
   22.4895  -20.5498  -10.3201 C   0  0  0  0  0  0  0  0  0  0  0  0
   21.5786  -19.6322   -9.8285 O   0  0  0  0  0  0  0  0  0  0  0  0
   23.0076  -19.0982  -16.0994 O   0  0  0  0  0  0  0  0  0  0  0  0
   22.4459  -21.6898   -9.7977 O   0  0  0  0  0  0  0  0  0  0  0  0
  1  2  1  0
  3  4  2  0
  3  2  1  0
  5  3  1  0
  6  5  1  0
  6  7  1  1
  8  7  1  0
  9  8  2  0
 10 11  1  0
 10  9  1  0
 11 16  2  0
 12 11  1  0
 12 13  2  0
 13 14  1  0
 14 15  2  0
 16  8  1  0
 16 15  1  0
 17 19  1  0
 17  6  1  0
 18 17  2  0
 20 25  1  0
 20 19  1  0
 20 21  1  6
 22 21  1  0
 23 22  1  0
 24 23  2  0
 25 26  1  0
 27 23  1  0
 28 25  2  0
M  END
$$$$
