GWE.pdb
     RDKit          3D

 28 29  0  0  1  0  0  0  0  0999 V2000
   26.9347  -24.5520  -16.1770 N   0  0  0  0  0  0  0  0  0  0  0  0
   27.0195  -23.1472  -15.8312 C   0  0  0  0  0  0  0  0  0  0  0  0
   26.2194  -22.8696  -14.5858 C   0  0  0  0  0  0  0  0  0  0  0  0
   25.3924  -23.7122  -14.2363 O   0  0  0  0  0  0  0  0  0  0  0  0
   26.3932  -21.7018  -13.8375 N   0  0  0  0  0  0  0  0  0  0  0  0
   25.5149  -21.2136  -12.8726 C   0  0  1  0  0  0  0  0  0  0  0  0
   26.0188  -20.2563  -11.8192 C   0  0  0  0  0  0  0  0  0  0  0  0
   27.2060  -20.7505  -11.0964 C   0  0  0  0  0  0  0  0  0  0  0  0
   28.3643  -21.3122  -11.5678 C   0  0  0  0  0  0  0  0  0  0  0  0
   29.1965  -21.6116  -10.5248 N   0  0  0  0  0  0  0  0  0  0  0  0
   28.6167  -21.2617   -9.3875 C   0  0  0  0  0  0  0  0  0  0  0  0
   28.9669  -21.3135   -8.0380 C   0  0  0  0  0  0  0  0  0  0  0  0
   28.1233  -20.8493   -7.0513 C   0  0  0  0  0  0  0  0  0  0  0  0
   26.8975  -20.3153   -7.3730 C   0  0  0  0  0  0  0  0  0  0  0  0
   26.5544  -20.2674   -8.7271 C   0  0  0  0  0  0  0  0  0  0  0  0
   27.4033  -20.7339   -9.7028 C   0  0  0  0  0  0  0  0  0  0  0  0
   24.1353  -20.8868  -13.3177 C   0  0  0  0  0  0  0  0  0  0  0  0
   23.9304  -20.1073  -14.2878 O   0  0  0  0  0  0  0  0  0  0  0  0
   23.0003  -21.4421  -12.6643 N   0  0  0  0  0  0  0  0  0  0  0  0
   21.6244  -21.2211  -13.0215 C   0  0  1  0  0  0  0  0  0  0  0  0
   20.7031  -22.2398  -12.4602 C   0  0  0  0  0  0  0  0  0  0  0  0
   19.2622  -21.9937  -12.8179 C   0  0  0  0  0  0  0  0  0  0  0  0
   18.3906  -23.0945  -12.2588 C   0  0  0  0  0  0  0  0  0  0  0  0
   17.6432  -23.7603  -13.0178 O   0  0  0  0  0  0  0  0  0  0  0  0
   21.2725  -19.8116  -12.7722 C   0  0  0  0  0  0  0  0  0  0  0  0
   21.6156  -19.1011  -11.6360 O   0  0  0  0  0  0  0  0  0  0  0  0
   18.4264  -23.3572  -10.9111 O   0  0  0  0  0  0  0  0  0  0  0  0
   20.6122  -19.1765  -13.6296 O   0  0  0  0  0  0  0  0  0  0  0  0
  1  2  1  0
  3  4  2  0
  3  2  1  0
  5  3  1  0
  6  5  1  0
  6  7  1  6
  8  7  1  0
  9  8  2  0
 10 11  1  0
 10  9  1  0
 11 16  2  0
 12 11  1  0
 12 13  2  0
 13 14  1  0
 14 15  2  0
 16  8  1  0
 16 15  1  0
 17 19  1  0
 17  6  1  0
 18 17  2  0
 20 25  1  0
 20 19  1  0
 20 21  1  1
 22 21  1  0
 23 22  1  0
 24 23  2  0
 25 26  1  0
 27 23  1  0
 28 25  2  0
M  END
$$$$
