GWE.pdb
     RDKit          3D

 28 29  0  0  1  0  0  0  0  0999 V2000
   28.3829  -21.6295  -15.2307 N   0  0  0  0  0  0  0  0  0  0  0  0
   27.8592  -20.5469  -14.4220 C   0  0  0  0  0  0  0  0  0  0  0  0
   26.7764  -21.0579  -13.5083 C   0  0  0  0  0  0  0  0  0  0  0  0
   26.1861  -22.0867  -13.8386 O   0  0  0  0  0  0  0  0  0  0  0  0
   26.4368  -20.4022  -12.3215 N   0  0  0  0  0  0  0  0  0  0  0  0
   25.3857  -20.7439  -11.4733 C   0  0  1  0  0  0  0  0  0  0  0  0
   25.5528  -20.5980   -9.9798 C   0  0  0  0  0  0  0  0  0  0  0  0
   26.9160  -20.9072   -9.5085 C   0  0  0  0  0  0  0  0  0  0  0  0
   27.9346  -21.5913  -10.1200 C   0  0  0  0  0  0  0  0  0  0  0  0
   29.0317  -21.6233   -9.3041 N   0  0  0  0  0  0  0  0  0  0  0  0
   28.7599  -20.9802   -8.1796 C   0  0  0  0  0  0  0  0  0  0  0  0
   29.4620  -20.6853   -7.0105 C   0  0  0  0  0  0  0  0  0  0  0  0
   28.8898  -19.9666   -5.9825 C   0  0  0  0  0  0  0  0  0  0  0  0
   27.5949  -19.5143   -6.0812 C   0  0  0  0  0  0  0  0  0  0  0  0
   26.8987  -19.8142   -7.2555 C   0  0  0  0  0  0  0  0  0  0  0  0
   27.4791  -20.5322   -8.2742 C   0  0  0  0  0  0  0  0  0  0  0  0
   24.0131  -20.3955  -11.9237 C   0  0  0  0  0  0  0  0  0  0  0  0
   23.6678  -19.1945  -12.0944 O   0  0  0  0  0  0  0  0  0  0  0  0
   23.0434  -21.4049  -12.1772 N   0  0  0  0  0  0  0  0  0  0  0  0
   21.7323  -21.2002  -12.7329 C   0  0  1  0  0  0  0  0  0  0  0  0
   21.3019  -22.2959  -13.6361 C   0  0  0  0  0  0  0  0  0  0  0  0
   19.9051  -22.1109  -14.1646 C   0  0  0  0  0  0  0  0  0  0  0  0
   19.5653  -23.2155  -15.1386 C   0  0  0  0  0  0  0  0  0  0  0  0
   20.3473  -24.1857  -15.2966 O   0  0  0  0  0  0  0  0  0  0  0  0
   20.7947  -20.8321  -11.6568 C   0  0  0  0  0  0  0  0  0  0  0  0
   19.8006  -19.8767  -11.7681 O   0  0  0  0  0  0  0  0  0  0  0  0
   18.3912  -23.1446  -15.8479 O   0  0  0  0  0  0  0  0  0  0  0  0
   20.8740  -21.4042  -10.5429 O   0  0  0  0  0  0  0  0  0  0  0  0
  1  2  1  0
  3  4  2  0
  3  2  1  0
  5  3  1  0
  6  5  1  0
  6  7  1  1
  8  7  1  0
  9  8  2  0
 10 11  1  0
 10  9  1  0
 11 16  2  0
 12 11  1  0
 12 13  2  0
 13 14  1  0
 14 15  2  0
 16  8  1  0
 16 15  1  0
 17 19  1  0
 17  6  1  0
 18 17  2  0
 20 25  1  0
 20 19  1  0
 20 21  1  1
 22 21  1  0
 23 22  1  0
 24 23  2  0
 25 26  1  0
 27 23  1  0
 28 25  2  0
M  END
$$$$
