GWE.pdb
     RDKit          3D

 28 29  0  0  1  0  0  0  0  0999 V2000
   28.5537  -22.5278  -15.4457 N   0  0  0  0  0  0  0  0  0  0  0  0
   28.3419  -21.3266  -14.6631 C   0  0  0  0  0  0  0  0  0  0  0  0
   27.2615  -21.5573  -13.6393 C   0  0  0  0  0  0  0  0  0  0  0  0
   26.4569  -22.4651  -13.8500 O   0  0  0  0  0  0  0  0  0  0  0  0
   27.1574  -20.7792  -12.4828 N   0  0  0  0  0  0  0  0  0  0  0  0
   26.0921  -20.7918  -11.5850 C   0  0  1  0  0  0  0  0  0  0  0  0
   26.2977  -20.2944  -10.1743 C   0  0  0  0  0  0  0  0  0  0  0  0
   27.5181  -20.8240   -9.5370 C   0  0  0  0  0  0  0  0  0  0  0  0
   28.5147  -21.6165  -10.0453 C   0  0  0  0  0  0  0  0  0  0  0  0
   29.4600  -21.8515   -9.0855 N   0  0  0  0  0  0  0  0  0  0  0  0
   29.1109  -21.2358   -7.9670 C   0  0  0  0  0  0  0  0  0  0  0  0
   29.6606  -21.1089   -6.6909 C   0  0  0  0  0  0  0  0  0  0  0  0
   29.0424  -20.3695   -5.7051 C   0  0  0  0  0  0  0  0  0  0  0  0
   27.8518  -19.7281   -5.9543 C   0  0  0  0  0  0  0  0  0  0  0  0
   27.3079  -19.8606   -7.2350 C   0  0  0  0  0  0  0  0  0  0  0  0
   27.9328  -20.6011   -8.2105 C   0  0  0  0  0  0  0  0  0  0  0  0
   24.7530  -20.4326  -12.1199 C   0  0  0  0  0  0  0  0  0  0  0  0
   24.5741  -19.3650  -12.7671 O   0  0  0  0  0  0  0  0  0  0  0  0
   23.6288  -21.2809  -11.9196 N   0  0  0  0  0  0  0  0  0  0  0  0
   22.3373  -21.1361  -12.5365 C   0  0  1  0  0  0  0  0  0  0  0  0
   21.6327  -22.4276  -12.7294 C   0  0  0  0  0  0  0  0  0  0  0  0
   20.2890  -22.2742  -13.3894 C   0  0  0  0  0  0  0  0  0  0  0  0
   19.3752  -23.4068  -12.9817 C   0  0  0  0  0  0  0  0  0  0  0  0
   19.7920  -24.5917  -12.9847 O   0  0  0  0  0  0  0  0  0  0  0  0
   21.5810  -20.0738  -11.8491 C   0  0  0  0  0  0  0  0  0  0  0  0
   20.6923  -19.2117  -12.4658 O   0  0  0  0  0  0  0  0  0  0  0  0
   18.0841  -23.1237  -12.6082 O   0  0  0  0  0  0  0  0  0  0  0  0
   21.7289  -19.9074  -10.6142 O   0  0  0  0  0  0  0  0  0  0  0  0
  1  2  1  0
  3  4  2  0
  3  2  1  0
  5  3  1  0
  6  5  1  0
  6  7  1  1
  8  7  1  0
  9  8  2  0
 10 11  1  0
 10  9  1  0
 11 16  2  0
 12 11  1  0
 12 13  2  0
 13 14  1  0
 14 15  2  0
 16  8  1  0
 16 15  1  0
 17 19  1  0
 17  6  1  0
 18 17  2  0
 20 25  1  0
 20 19  1  0
 20 21  1  1
 22 21  1  0
 23 22  1  0
 24 23  2  0
 25 26  1  0
 27 23  1  0
 28 25  2  0
M  END
$$$$
