GWE.pdb
     RDKit          3D

 28 29  0  0  1  0  0  0  0  0999 V2000
   30.9036  -21.7148  -12.0054 N   0  0  0  0  0  0  0  0  0  0  0  0
   30.1727  -20.7165  -11.2507 C   0  0  0  0  0  0  0  0  0  0  0  0
   28.7541  -21.1703  -11.0268 C   0  0  0  0  0  0  0  0  0  0  0  0
   28.3422  -22.1161  -11.6988 O   0  0  0  0  0  0  0  0  0  0  0  0
   27.9166  -20.5529  -10.0934 N   0  0  0  0  0  0  0  0  0  0  0  0
   26.6169  -20.9445   -9.7798 C   0  0  1  0  0  0  0  0  0  0  0  0
   26.1781  -20.9911   -8.3358 C   0  0  0  0  0  0  0  0  0  0  0  0
   26.9048  -20.0428   -7.4705 C   0  0  0  0  0  0  0  0  0  0  0  0
   26.9640  -18.6735   -7.5046 C   0  0  0  0  0  0  0  0  0  0  0  0
   27.7610  -18.2150   -6.4924 N   0  0  0  0  0  0  0  0  0  0  0  0
   28.2228  -19.2433   -5.7986 C   0  0  0  0  0  0  0  0  0  0  0  0
   29.0510  -19.3986   -4.6866 C   0  0  0  0  0  0  0  0  0  0  0  0
   29.3539  -20.6427   -4.1757 C   0  0  0  0  0  0  0  0  0  0  0  0
   28.8421  -21.7802   -4.7546 C   0  0  0  0  0  0  0  0  0  0  0  0
   28.0136  -21.6159   -5.8682 C   0  0  0  0  0  0  0  0  0  0  0  0
   27.7187  -20.3702   -6.3697 C   0  0  0  0  0  0  0  0  0  0  0  0
   25.5335  -20.4774  -10.6834 C   0  0  0  0  0  0  0  0  0  0  0  0
   25.4114  -19.2574  -10.9789 O   0  0  0  0  0  0  0  0  0  0  0  0
   24.5985  -21.3907  -11.2447 N   0  0  0  0  0  0  0  0  0  0  0  0
   23.5736  -21.0725  -12.2028 C   0  0  1  0  0  0  0  0  0  0  0  0
   23.2141  -22.2164  -13.0769 C   0  0  0  0  0  0  0  0  0  0  0  0
   22.1050  -21.8959  -14.0422 C   0  0  0  0  0  0  0  0  0  0  0  0
   22.2722  -22.6964  -15.3132 C   0  0  0  0  0  0  0  0  0  0  0  0
   23.1942  -23.5435  -15.4137 O   0  0  0  0  0  0  0  0  0  0  0  0
   22.4572  -20.3934  -11.5206 C   0  0  0  0  0  0  0  0  0  0  0  0
   21.7196  -19.3533  -12.0568 O   0  0  0  0  0  0  0  0  0  0  0  0
   21.4033  -22.4857  -16.3559 O   0  0  0  0  0  0  0  0  0  0  0  0
   22.1231  -20.7563  -10.3669 O   0  0  0  0  0  0  0  0  0  0  0  0
  1  2  1  0
  3  4  2  0
  3  2  1  0
  5  3  1  0
  6  5  1  0
  6  7  1  1
  8  7  1  0
  9  8  2  0
 10 11  1  0
 10  9  1  0
 11 16  2  0
 12 11  1  0
 12 13  2  0
 13 14  1  0
 14 15  2  0
 16  8  1  0
 16 15  1  0
 17 19  1  0
 17  6  1  0
 18 17  2  0
 20 25  1  0
 20 19  1  0
 20 21  1  1
 22 21  1  0
 23 22  1  0
 24 23  2  0
 25 26  1  0
 27 23  1  0
 28 25  2  0
M  END
$$$$
