GWE.pdb
     RDKit          3D

 28 29  0  0  1  0  0  0  0  0999 V2000
   27.4149  -22.2681  -15.3308 N   0  0  0  0  0  0  0  0  0  0  0  0
   27.3531  -21.1026  -14.4716 C   0  0  0  0  0  0  0  0  0  0  0  0
   26.7821  -21.4766  -13.1290 C   0  0  0  0  0  0  0  0  0  0  0  0
   25.6896  -22.0441  -13.1089 O   0  0  0  0  0  0  0  0  0  0  0  0
   27.4524  -21.1983  -11.9344 N   0  0  0  0  0  0  0  0  0  0  0  0
   26.8553  -20.8216  -10.7334 C   0  0  1  0  0  0  0  0  0  0  0  0
   27.7204  -20.4440   -9.5548 C   0  0  0  0  0  0  0  0  0  0  0  0
   27.0336  -20.5765   -8.2560 C   0  0  0  0  0  0  0  0  0  0  0  0
   25.7960  -21.0820   -7.9519 C   0  0  0  0  0  0  0  0  0  0  0  0
   25.5810  -21.0109   -6.6032 N   0  0  0  0  0  0  0  0  0  0  0  0
   26.6408  -20.4753   -6.0184 C   0  0  0  0  0  0  0  0  0  0  0  0
   26.9986  -20.1632   -4.7065 C   0  0  0  0  0  0  0  0  0  0  0  0
   28.2185  -19.5975   -4.4023 C   0  0  0  0  0  0  0  0  0  0  0  0
   29.1287  -19.3215   -5.3954 C   0  0  0  0  0  0  0  0  0  0  0  0
   28.7623  -19.6370   -6.7068 C   0  0  0  0  0  0  0  0  0  0  0  0
   27.5427  -20.2004   -6.9988 C   0  0  0  0  0  0  0  0  0  0  0  0
   25.6271  -19.9895  -10.8207 C   0  0  0  0  0  0  0  0  0  0  0  0
   25.6952  -18.7429  -10.9998 O   0  0  0  0  0  0  0  0  0  0  0  0
   24.3343  -20.5715  -10.7052 N   0  0  0  0  0  0  0  0  0  0  0  0
   23.0849  -19.9284  -11.0130 C   0  0  1  0  0  0  0  0  0  0  0  0
   22.8778  -19.7174  -12.4670 C   0  0  0  0  0  0  0  0  0  0  0  0
   22.2662  -20.9078  -13.1551 C   0  0  0  0  0  0  0  0  0  0  0  0
   22.8812  -21.0923  -14.5233 C   0  0  0  0  0  0  0  0  0  0  0  0
   24.1066  -20.8822  -14.7024 O   0  0  0  0  0  0  0  0  0  0  0  0
   21.9934  -20.6027  -10.2871 C   0  0  0  0  0  0  0  0  0  0  0  0
   22.0434  -21.9021   -9.8156 O   0  0  0  0  0  0  0  0  0  0  0  0
   22.0833  -21.4925  -15.5673 O   0  0  0  0  0  0  0  0  0  0  0  0
   20.9241  -19.9856  -10.0629 O   0  0  0  0  0  0  0  0  0  0  0  0
  1  2  1  0
  3  4  2  0
  3  2  1  0
  5  3  1  0
  6  5  1  0
  6  7  1  1
  8  7  1  0
  9  8  2  0
 10 11  1  0
 10  9  1  0
 11 16  2  0
 12 11  1  0
 12 13  2  0
 13 14  1  0
 14 15  2  0
 16  8  1  0
 16 15  1  0
 17 19  1  0
 17  6  1  0
 18 17  2  0
 20 25  1  0
 20 19  1  0
 20 21  1  6
 22 21  1  0
 23 22  1  0
 24 23  2  0
 25 26  1  0
 27 23  1  0
 28 25  2  0
M  END
$$$$
