GWE.pdb
     RDKit          3D

 28 29  0  0  1  0  0  0  0  0999 V2000
   28.7862  -22.5015  -15.5526 N   0  0  0  0  0  0  0  0  0  0  0  0
   28.1102  -21.2684  -15.2022 C   0  0  0  0  0  0  0  0  0  0  0  0
   27.1061  -21.5194  -14.1080 C   0  0  0  0  0  0  0  0  0  0  0  0
   26.5259  -22.6053  -14.1008 O   0  0  0  0  0  0  0  0  0  0  0  0
   26.8268  -20.5660  -13.1247 N   0  0  0  0  0  0  0  0  0  0  0  0
   25.8249  -20.6582  -12.1610 C   0  0  1  0  0  0  0  0  0  0  0  0
   26.0653  -20.1033  -10.7775 C   0  0  0  0  0  0  0  0  0  0  0  0
   27.3179  -20.5816  -10.1625 C   0  0  0  0  0  0  0  0  0  0  0  0
   28.3873  -21.2364  -10.7167 C   0  0  0  0  0  0  0  0  0  0  0  0
   29.3354  -21.4752   -9.7606 N   0  0  0  0  0  0  0  0  0  0  0  0
   28.9174  -20.9956   -8.6000 C   0  0  0  0  0  0  0  0  0  0  0  0
   29.4352  -20.9378   -7.3057 C   0  0  0  0  0  0  0  0  0  0  0  0
   28.7403  -20.3465   -6.2722 C   0  0  0  0  0  0  0  0  0  0  0  0
   27.5019  -19.7897   -6.4901 C   0  0  0  0  0  0  0  0  0  0  0  0
   26.9905  -19.8521   -7.7894 C   0  0  0  0  0  0  0  0  0  0  0  0
   27.6920  -20.4448   -8.8125 C   0  0  0  0  0  0  0  0  0  0  0  0
   24.4264  -20.4480  -12.6176 C   0  0  0  0  0  0  0  0  0  0  0  0
   24.0461  -19.3301  -13.0609 O   0  0  0  0  0  0  0  0  0  0  0  0
   23.4707  -21.5005  -12.5698 N   0  0  0  0  0  0  0  0  0  0  0  0
   22.1348  -21.4569  -13.1017 C   0  0  1  0  0  0  0  0  0  0  0  0
   21.5986  -22.7965  -13.4478 C   0  0  0  0  0  0  0  0  0  0  0  0
   20.2123  -22.7448  -14.0310 C   0  0  0  0  0  0  0  0  0  0  0  0
   19.4912  -24.0488  -13.7783 C   0  0  0  0  0  0  0  0  0  0  0  0
   19.6985  -24.6947  -12.7212 O   0  0  0  0  0  0  0  0  0  0  0  0
   21.2884  -20.6165  -12.2356 C   0  0  0  0  0  0  0  0  0  0  0  0
   20.3464  -19.7113  -12.6904 O   0  0  0  0  0  0  0  0  0  0  0  0
   18.6070  -24.5178  -14.7190 O   0  0  0  0  0  0  0  0  0  0  0  0
   21.4030  -20.6988  -10.9888 O   0  0  0  0  0  0  0  0  0  0  0  0
  1  2  1  0
  3  4  2  0
  3  2  1  0
  5  3  1  0
  6  5  1  0
  6  7  1  1
  8  7  1  0
  9  8  2  0
 10 11  1  0
 10  9  1  0
 11 16  2  0
 12 11  1  0
 12 13  2  0
 13 14  1  0
 14 15  2  0
 16  8  1  0
 16 15  1  0
 17 19  1  0
 17  6  1  0
 18 17  2  0
 20 25  1  0
 20 19  1  0
 20 21  1  1
 22 21  1  0
 23 22  1  0
 24 23  2  0
 25 26  1  0
 27 23  1  0
 28 25  2  0
M  END
$$$$
