GWE.pdb
     RDKit          3D

 28 29  0  0  1  0  0  0  0  0999 V2000
   28.9277  -21.7258  -15.1087 N   0  0  0  0  0  0  0  0  0  0  0  0
   28.0675  -20.6326  -14.7021 C   0  0  0  0  0  0  0  0  0  0  0  0
   26.9205  -21.1536  -13.8765 C   0  0  0  0  0  0  0  0  0  0  0  0
   26.3194  -22.1447  -14.2916 O   0  0  0  0  0  0  0  0  0  0  0  0
   26.5348  -20.5479  -12.6773 N   0  0  0  0  0  0  0  0  0  0  0  0
   25.4837  -20.9561  -11.8590 C   0  0  1  0  0  0  0  0  0  0  0  0
   25.6204  -20.8519  -10.3589 C   0  0  0  0  0  0  0  0  0  0  0  0
   26.9603  -21.2211   -9.8644 C   0  0  0  0  0  0  0  0  0  0  0  0
   27.9309  -22.0079  -10.4287 C   0  0  0  0  0  0  0  0  0  0  0  0
   29.0237  -22.0620   -9.6083 N   0  0  0  0  0  0  0  0  0  0  0  0
   28.7957  -21.3341   -8.5266 C   0  0  0  0  0  0  0  0  0  0  0  0
   29.5163  -21.0147   -7.3753 C   0  0  0  0  0  0  0  0  0  0  0  0
   28.9935  -20.1975   -6.3958 C   0  0  0  0  0  0  0  0  0  0  0  0
   27.7316  -19.6672   -6.5270 C   0  0  0  0  0  0  0  0  0  0  0  0
   27.0165  -19.9922   -7.6832 C   0  0  0  0  0  0  0  0  0  0  0  0
   27.5475  -20.8088   -8.6534 C   0  0  0  0  0  0  0  0  0  0  0  0
   24.1063  -20.6457  -12.3225 C   0  0  0  0  0  0  0  0  0  0  0  0
   23.7292  -19.4547  -12.4955 O   0  0  0  0  0  0  0  0  0  0  0  0
   23.1677  -21.6815  -12.5862 N   0  0  0  0  0  0  0  0  0  0  0  0
   21.8209  -21.5044  -13.0598 C   0  0  1  0  0  0  0  0  0  0  0  0
   21.2090  -22.7576  -13.5666 C   0  0  0  0  0  0  0  0  0  0  0  0
   19.8340  -22.5523  -14.1426 C   0  0  0  0  0  0  0  0  0  0  0  0
   18.9270  -23.6948  -13.7473 C   0  0  0  0  0  0  0  0  0  0  0  0
   19.3380  -24.8804  -13.8027 O   0  0  0  0  0  0  0  0  0  0  0  0
   21.0426  -20.7543  -12.0576 C   0  0  0  0  0  0  0  0  0  0  0  0
   20.1247  -19.7620  -12.3516 O   0  0  0  0  0  0  0  0  0  0  0  0
   17.6486  -23.4197  -13.3271 O   0  0  0  0  0  0  0  0  0  0  0  0
   21.1978  -21.0047  -10.8379 O   0  0  0  0  0  0  0  0  0  0  0  0
  1  2  1  0
  3  4  2  0
  3  2  1  0
  5  3  1  0
  6  5  1  0
  6  7  1  1
  8  7  1  0
  9  8  2  0
 10 11  1  0
 10  9  1  0
 11 16  2  0
 12 11  1  0
 12 13  2  0
 13 14  1  0
 14 15  2  0
 16  8  1  0
 16 15  1  0
 17 19  1  0
 17  6  1  0
 18 17  2  0
 20 25  1  0
 20 19  1  0
 20 21  1  1
 22 21  1  0
 23 22  1  0
 24 23  2  0
 25 26  1  0
 27 23  1  0
 28 25  2  0
M  END
$$$$
