GWE.pdb
     RDKit          3D

 28 29  0  0  1  0  0  0  0  0999 V2000
   22.6447  -17.5836  -16.2858 N   0  0  0  0  0  0  0  0  0  0  0  0
   22.0462  -16.4066  -16.8831 C   0  0  0  0  0  0  0  0  0  0  0  0
   22.5019  -15.1674  -16.1584 C   0  0  0  0  0  0  0  0  0  0  0  0
   22.3312  -15.1208  -14.9399 O   0  0  0  0  0  0  0  0  0  0  0  0
   23.1002  -14.0953  -16.8265 N   0  0  0  0  0  0  0  0  0  0  0  0
   23.4851  -12.8873  -16.2490 C   0  0  1  0  0  0  0  0  0  0  0  0
   24.9476  -12.6150  -15.9904 C   0  0  0  0  0  0  0  0  0  0  0  0
   25.8446  -13.6411  -16.5548 C   0  0  0  0  0  0  0  0  0  0  0  0
   26.4491  -13.7158  -17.7830 C   0  0  0  0  0  0  0  0  0  0  0  0
   27.2067  -14.8515  -17.8625 N   0  0  0  0  0  0  0  0  0  0  0  0
   27.1154  -15.5194  -16.7235 C   0  0  0  0  0  0  0  0  0  0  0  0
   27.6501  -16.7074  -16.2241 C   0  0  0  0  0  0  0  0  0  0  0  0
   27.3637  -17.1532  -14.9513 C   0  0  0  0  0  0  0  0  0  0  0  0
   26.5327  -16.4309  -14.1275 C   0  0  0  0  0  0  0  0  0  0  0  0
   26.0012  -15.2422  -14.6356 C   0  0  0  0  0  0  0  0  0  0  0  0
   26.2931  -14.8074  -15.9067 C   0  0  0  0  0  0  0  0  0  0  0  0
   22.7521  -11.6683  -16.6793 C   0  0  0  0  0  0  0  0  0  0  0  0
   22.5880  -11.4033  -17.9014 O   0  0  0  0  0  0  0  0  0  0  0  0
   22.2115  -10.7602  -15.7272 N   0  0  0  0  0  0  0  0  0  0  0  0
   21.5337   -9.5262  -16.0228 C   0  0  1  0  0  0  0  0  0  0  0  0
   20.4473   -9.2105  -15.0628 C   0  0  0  0  0  0  0  0  0  0  0  0
   19.7326   -7.9253  -15.3818 C   0  0  0  0  0  0  0  0  0  0  0  0
   18.6182   -7.6878  -14.3889 C   0  0  0  0  0  0  0  0  0  0  0  0
   18.4108   -8.5063  -13.4590 O   0  0  0  0  0  0  0  0  0  0  0  0
   22.5282   -8.4640  -16.2589 C   0  0  0  0  0  0  0  0  0  0  0  0
   22.2749   -7.2796  -16.9271 O   0  0  0  0  0  0  0  0  0  0  0  0
   17.8359   -6.5660  -14.5166 O   0  0  0  0  0  0  0  0  0  0  0  0
   23.7018   -8.6093  -15.8395 O   0  0  0  0  0  0  0  0  0  0  0  0
  1  2  1  0
  3  4  2  0
  3  2  1  0
  5  3  1  0
  6  5  1  0
  6  7  1  6
  8  7  1  0
  9  8  2  0
 10 11  1  0
 10  9  1  0
 11 16  2  0
 12 11  1  0
 12 13  2  0
 13 14  1  0
 14 15  2  0
 16  8  1  0
 16 15  1  0
 17 19  1  0
 17  6  1  0
 18 17  2  0
 20 25  1  0
 20 19  1  0
 20 21  1  1
 22 21  1  0
 23 22  1  0
 24 23  2  0
 25 26  1  0
 27 23  1  0
 28 25  2  0
M  END
$$$$
