QDN.pdb
     RDKit          3D

 26 25  0  0  1  0  0  0  0  0999 V2000
   12.6861  -13.3300  -10.9939 N   0  0  0  0  0  0  0  0  0  0  0  0
   12.2521  -12.1589  -10.2776 C   0  0  0  0  0  0  0  0  0  0  0  0
   11.3225  -12.3139   -9.4807 O   0  0  0  0  0  0  0  0  0  0  0  0
   12.9754  -10.9135  -10.5869 C   0  0  0  0  0  0  0  0  0  0  0  0
   14.0077  -11.0194  -11.6471 C   0  0  0  0  0  0  0  0  0  0  0  0
   15.3906  -10.8080  -11.1025 C   0  0  2  0  0  0  0  0  0  0  0  0
   15.4543  -11.2533   -9.7054 N   0  0  0  0  0  0  0  0  0  0  0  0
   15.7175   -9.3627  -11.1171 C   0  0  0  0  0  0  0  0  0  0  0  0
   15.6329   -8.7305  -12.1953 O   0  0  0  0  0  0  0  0  0  0  0  0
   16.1282   -8.6600   -9.9389 N   0  0  0  0  0  0  0  0  0  0  0  0
   16.4788   -7.2854  -10.0456 C   0  0  1  0  0  0  0  0  0  0  0  0
   16.0193   -6.5162   -8.8391 C   0  0  0  0  0  0  0  0  0  0  0  0
   16.1476   -5.0652   -9.0576 C   0  0  0  0  0  0  0  0  0  0  0  0
   15.7852   -4.5317  -10.1221 O   0  0  0  0  0  0  0  0  0  0  0  0
   17.9096   -7.0496  -10.2881 C   0  0  0  0  0  0  0  0  0  0  0  0
   18.8662   -7.6361   -9.7582 O   0  0  0  0  0  0  0  0  0  0  0  0
   16.6896   -4.2325   -8.0580 O   0  0  0  0  0  0  0  0  0  0  0  0
   21.9575   -5.9016  -13.1166 N   0  0  0  0  0  0  0  0  0  0  0  0
   21.1814   -7.1169  -13.1824 C   0  0  0  0  0  0  0  0  0  0  0  0
   21.6899   -8.0207  -13.8858 O   0  0  0  0  0  0  0  0  0  0  0  0
   19.9013   -7.2224  -12.4570 C   0  0  0  0  0  0  0  0  0  0  0  0
   19.5316   -5.9057  -11.8258 C   0  0  2  0  0  0  0  0  0  0  0  0
   18.2219   -6.0186  -11.2528 N   0  0  0  0  0  0  0  0  0  0  0  0
   19.5384   -4.7736  -12.7857 C   0  0  0  0  0  0  0  0  0  0  0  0
   18.3512   -4.4049  -13.4004 O   0  0  0  0  0  0  0  0  0  0  0  0
   20.5700   -4.1172  -13.0813 O   0  0  0  0  0  0  0  0  0  0  0  0
  2  1  1  0
  2  3  2  0
  4  5  1  0
  4  2  1  0
  5  6  1  0
  6  7  1  1
  8  6  1  0
  8 10  1  0
  9  8  2  0
 11 10  1  0
 11 12  1  1
 13 14  2  0
 13 12  1  0
 15 11  1  0
 16 15  2  0
 17 13  1  0
 18 19  1  0
 19 21  1  0
 20 19  2  0
 22 21  1  6
 22 24  1  0
 22 23  1  0
 23 15  1  0
 24 25  1  0
 26 24  2  0
M  END
$$$$
