QDN.pdb
     RDKit          3D

 26 25  0  0  1  0  0  0  0  0999 V2000
   15.7619  -13.4922  -10.5067 N   0  0  0  0  0  0  0  0  0  0  0  0
   14.5265  -13.1428  -11.1584 C   0  0  0  0  0  0  0  0  0  0  0  0
   13.9510  -14.0479  -11.7691 O   0  0  0  0  0  0  0  0  0  0  0  0
   14.1004  -11.7400  -11.0150 C   0  0  0  0  0  0  0  0  0  0  0  0
   14.9586  -10.8960  -10.1478 C   0  0  0  0  0  0  0  0  0  0  0  0
   16.1924  -10.4318  -10.8661 C   0  0  2  0  0  0  0  0  0  0  0  0
   17.3309  -11.2893  -10.5156 N   0  0  0  0  0  0  0  0  0  0  0  0
   16.5322   -9.0549  -10.4362 C   0  0  0  0  0  0  0  0  0  0  0  0
   17.0845   -8.8832   -9.3250 O   0  0  0  0  0  0  0  0  0  0  0  0
   16.2509   -7.9094  -11.2482 N   0  0  0  0  0  0  0  0  0  0  0  0
   16.5096   -6.6134  -10.7214 C   0  0  1  0  0  0  0  0  0  0  0  0
   17.1622   -5.7333  -11.7500 C   0  0  0  0  0  0  0  0  0  0  0  0
   18.4504   -6.2979  -12.1871 C   0  0  0  0  0  0  0  0  0  0  0  0
   18.5852   -6.8244  -13.3068 O   0  0  0  0  0  0  0  0  0  0  0  0
   15.3253   -5.9493  -10.1573 C   0  0  0  0  0  0  0  0  0  0  0  0
   14.1961   -5.8716  -10.6659 O   0  0  0  0  0  0  0  0  0  0  0  0
   19.5774   -6.2574  -11.3416 O   0  0  0  0  0  0  0  0  0  0  0  0
   13.9798   -2.8072   -5.2012 N   0  0  0  0  0  0  0  0  0  0  0  0
   13.6652   -4.0053   -5.9423 C   0  0  0  0  0  0  0  0  0  0  0  0
   12.4641   -4.3562   -5.8772 O   0  0  0  0  0  0  0  0  0  0  0  0
   14.7184   -4.7125   -6.6950 C   0  0  0  0  0  0  0  0  0  0  0  0
   14.4166   -4.7116   -8.1708 C   0  0  2  0  0  0  0  0  0  0  0  0
   15.5111   -5.3224   -8.8675 N   0  0  0  0  0  0  0  0  0  0  0  0
   14.1970   -3.3514   -8.7227 C   0  0  0  0  0  0  0  0  0  0  0  0
   12.9307   -2.7908   -8.6477 O   0  0  0  0  0  0  0  0  0  0  0  0
   15.1017   -2.6643   -9.2629 O   0  0  0  0  0  0  0  0  0  0  0  0
  2  1  1  0
  2  3  2  0
  4  5  1  0
  4  2  1  0
  5  6  1  0
  6  7  1  1
  8  6  1  0
  8 10  1  0
  9  8  2  0
 11 10  1  0
 11 12  1  6
 13 14  2  0
 13 12  1  0
 15 11  1  0
 16 15  2  0
 17 13  1  0
 18 19  1  0
 19 21  1  0
 20 19  2  0
 22 21  1  1
 22 24  1  0
 22 23  1  0
 23 15  1  0
 24 25  1  0
 26 24  2  0
M  END
$$$$
