QDN.pdb
     RDKit          3D

 26 25  0  0  1  0  0  0  0  0999 V2000
   16.0604  -13.4425  -11.8420 N   0  0  0  0  0  0  0  0  0  0  0  0
   15.0054  -13.5174  -10.8652 C   0  0  0  0  0  0  0  0  0  0  0  0
   14.7178  -14.6438  -10.4506 O   0  0  0  0  0  0  0  0  0  0  0  0
   14.3960  -12.2328  -10.4799 C   0  0  0  0  0  0  0  0  0  0  0  0
   15.0189  -11.0250  -11.0749 C   0  0  0  0  0  0  0  0  0  0  0  0
   14.3053   -9.7696  -10.6647 C   0  0  2  0  0  0  0  0  0  0  0  0
   12.9756   -9.7216  -11.2844 N   0  0  0  0  0  0  0  0  0  0  0  0
   15.0568   -8.5873  -11.1480 C   0  0  0  0  0  0  0  0  0  0  0  0
   15.0647   -8.3308  -12.3741 O   0  0  0  0  0  0  0  0  0  0  0  0
   15.7771   -7.7245  -10.2607 N   0  0  0  0  0  0  0  0  0  0  0  0
   16.5046   -6.6303  -10.8062 C   0  0  1  0  0  0  0  0  0  0  0  0
   16.3242   -5.3932   -9.9722 C   0  0  0  0  0  0  0  0  0  0  0  0
   16.6834   -5.6471   -8.5665 C   0  0  0  0  0  0  0  0  0  0  0  0
   17.8129   -5.3714   -8.1222 O   0  0  0  0  0  0  0  0  0  0  0  0
   17.9344   -6.9049  -11.0113 C   0  0  0  0  0  0  0  0  0  0  0  0
   18.6516   -7.6748  -10.3536 O   0  0  0  0  0  0  0  0  0  0  0  0
   15.7493   -6.2147   -7.6768 O   0  0  0  0  0  0  0  0  0  0  0  0
   22.3990   -7.1317  -13.4517 N   0  0  0  0  0  0  0  0  0  0  0  0
   21.3015   -7.9957  -13.8158 C   0  0  0  0  0  0  0  0  0  0  0  0
   21.6143   -8.9397  -14.5781 O   0  0  0  0  0  0  0  0  0  0  0  0
   19.9452   -7.7339  -13.2984 C   0  0  0  0  0  0  0  0  0  0  0  0
   19.9146   -6.4632  -12.4903 C   0  0  2  0  0  0  0  0  0  0  0  0
   18.5605   -6.1931  -12.1033 N   0  0  0  0  0  0  0  0  0  0  0  0
   20.4459   -5.2885  -13.2257 C   0  0  0  0  0  0  0  0  0  0  0  0
   21.8091   -5.0351  -13.1950 O   0  0  0  0  0  0  0  0  0  0  0  0
   19.7258   -4.4957  -13.8855 O   0  0  0  0  0  0  0  0  0  0  0  0
  2  1  1  0
  2  3  2  0
  4  5  1  0
  4  2  1  0
  5  6  1  0
  6  7  1  6
  8  6  1  0
  8 10  1  0
  9  8  2  0
 11 10  1  0
 11 12  1  1
 13 14  2  0
 13 12  1  0
 15 11  1  0
 16 15  2  0
 17 13  1  0
 18 19  1  0
 19 21  1  0
 20 19  2  0
 22 21  1  6
 22 24  1  0
 22 23  1  0
 23 15  1  0
 24 25  1  0
 26 24  2  0
M  END
$$$$
