QDN.pdb
     RDKit          3D

 26 25  0  0  1  0  0  0  0  0999 V2000
   12.5137  -13.5688  -15.9893 N   0  0  0  0  0  0  0  0  0  0  0  0
   13.1934  -14.4587  -15.0844 C   0  0  0  0  0  0  0  0  0  0  0  0
   12.4837  -15.0916  -14.2976 O   0  0  0  0  0  0  0  0  0  0  0  0
   14.6604  -14.5032  -15.2102 C   0  0  0  0  0  0  0  0  0  0  0  0
   15.2296  -13.7289  -16.3404 C   0  0  0  0  0  0  0  0  0  0  0  0
   16.7294  -13.6876  -16.2891 C   0  0  2  0  0  0  0  0  0  0  0  0
   17.1984  -14.0913  -14.9582 N   0  0  0  0  0  0  0  0  0  0  0  0
   17.1988  -12.3006  -16.5170 C   0  0  0  0  0  0  0  0  0  0  0  0
   17.9363  -12.0616  -17.5010 O   0  0  0  0  0  0  0  0  0  0  0  0
   16.8384  -11.2195  -15.6497 N   0  0  0  0  0  0  0  0  0  0  0  0
   17.3431   -9.9186  -15.9269 C   0  0  1  0  0  0  0  0  0  0  0  0
   16.2856   -8.8726  -15.7120 C   0  0  0  0  0  0  0  0  0  0  0  0
   16.7721   -7.5405  -16.1096 C   0  0  0  0  0  0  0  0  0  0  0  0
   17.1316   -7.2993  -17.2765 O   0  0  0  0  0  0  0  0  0  0  0  0
   18.5606   -9.5766  -15.1770 C   0  0  0  0  0  0  0  0  0  0  0  0
   18.8140   -9.8510  -13.9937 O   0  0  0  0  0  0  0  0  0  0  0  0
   16.8449   -6.4917  -15.1709 O   0  0  0  0  0  0  0  0  0  0  0  0
   23.9201   -9.9168  -14.7968 N   0  0  0  0  0  0  0  0  0  0  0  0
   23.2547   -8.9354  -15.6202 C   0  0  0  0  0  0  0  0  0  0  0  0
   23.9089   -7.8827  -15.8050 O   0  0  0  0  0  0  0  0  0  0  0  0
   21.9136   -9.2110  -16.1692 C   0  0  0  0  0  0  0  0  0  0  0  0
   20.8463   -8.5499  -15.3369 C   0  0  2  0  0  0  0  0  0  0  0  0
   19.5650   -8.8401  -15.9118 N   0  0  0  0  0  0  0  0  0  0  0  0
   21.0061   -7.0774  -15.2417 C   0  0  0  0  0  0  0  0  0  0  0  0
   21.8026   -6.5502  -14.2361 O   0  0  0  0  0  0  0  0  0  0  0  0
   20.4556   -6.2646  -16.0284 O   0  0  0  0  0  0  0  0  0  0  0  0
  2  1  1  0
  2  3  2  0
  4  5  1  0
  4  2  1  0
  5  6  1  0
  6  7  1  1
  8  6  1  0
  8 10  1  0
  9  8  2  0
 11 10  1  0
 11 12  1  1
 13 14  2  0
 13 12  1  0
 15 11  1  0
 16 15  2  0
 17 13  1  0
 18 19  1  0
 19 21  1  0
 20 19  2  0
 22 21  1  6
 22 24  1  0
 22 23  1  0
 23 15  1  0
 24 25  1  0
 26 24  2  0
M  END
$$$$
