QDN.pdb
     RDKit          3D

 26 25  0  0  1  0  0  0  0  0999 V2000
   25.2649  -32.3296  -14.5269 N   0  0  0  0  0  0  0  0  0  0  0  0
   25.4647  -33.7260  -14.8152 C   0  0  0  0  0  0  0  0  0  0  0  0
   25.9099  -33.9992  -15.9334 O   0  0  0  0  0  0  0  0  0  0  0  0
   25.1102  -34.6609  -13.7335 C   0  0  0  0  0  0  0  0  0  0  0  0
   24.6253  -34.0344  -12.4793 C   0  0  0  0  0  0  0  0  0  0  0  0
   24.2909  -35.0606  -11.4359 C   0  0  2  0  0  0  0  0  0  0  0  0
   23.0951  -35.8123  -11.8350 N   0  0  0  0  0  0  0  0  0  0  0  0
   23.9769  -34.3859  -10.1544 C   0  0  0  0  0  0  0  0  0  0  0  0
   24.8603  -33.6926   -9.5992 O   0  0  0  0  0  0  0  0  0  0  0  0
   22.6953  -34.4983   -9.5254 N   0  0  0  0  0  0  0  0  0  0  0  0
   22.4723  -33.8211   -8.2943 C   0  0  1  0  0  0  0  0  0  0  0  0
   21.0065  -33.7652   -7.9672 C   0  0  0  0  0  0  0  0  0  0  0  0
   20.7513  -32.8502   -6.8416 C   0  0  0  0  0  0  0  0  0  0  0  0
   19.6061  -32.6834   -6.3837 O   0  0  0  0  0  0  0  0  0  0  0  0
   23.2284  -34.3744   -7.1612 C   0  0  0  0  0  0  0  0  0  0  0  0
   23.1474  -35.5215   -6.6948 O   0  0  0  0  0  0  0  0  0  0  0  0
   21.8069  -32.1311   -6.2458 O   0  0  0  0  0  0  0  0  0  0  0  0
   27.2371  -35.1924   -4.5221 N   0  0  0  0  0  0  0  0  0  0  0  0
   27.3991  -33.8216   -4.9444 C   0  0  0  0  0  0  0  0  0  0  0  0
   28.5740  -33.3917   -4.8740 O   0  0  0  0  0  0  0  0  0  0  0  0
   26.2354  -33.0443   -5.4105 C   0  0  0  0  0  0  0  0  0  0  0  0
   24.9960  -33.8997   -5.4425 C   0  0  2  0  0  0  0  0  0  0  0  0
   24.1663  -33.4719   -6.5311 N   0  0  0  0  0  0  0  0  0  0  0  0
   24.2081  -33.8363   -4.1862 C   0  0  0  0  0  0  0  0  0  0  0  0
   24.6806  -34.4955   -3.0612 O   0  0  0  0  0  0  0  0  0  0  0  0
   23.1214  -33.2123   -4.0762 O   0  0  0  0  0  0  0  0  0  0  0  0
  2  1  1  0
  2  3  2  0
  4  5  1  0
  4  2  1  0
  5  6  1  0
  6  7  1  6
  8  6  1  0
  8 10  1  0
  9  8  2  0
 11 10  1  0
 11 12  1  1
 13 14  2  0
 13 12  1  0
 15 11  1  0
 16 15  2  0
 17 13  1  0
 18 19  1  0
 19 21  1  0
 20 19  2  0
 22 21  1  1
 22 24  1  0
 22 23  1  0
 23 15  1  0
 24 25  1  0
 26 24  2  0
M  END
$$$$
