QDN.pdb
     RDKit          3D

 26 25  0  0  1  0  0  0  0  0999 V2000
   18.5787  -15.5665  -19.7894 N   0  0  0  0  0  0  0  0  0  0  0  0
   19.8944  -16.1038  -19.5588 C   0  0  0  0  0  0  0  0  0  0  0  0
   20.0394  -17.3122  -19.7634 O   0  0  0  0  0  0  0  0  0  0  0  0
   20.9102  -15.1388  -19.1040 C   0  0  0  0  0  0  0  0  0  0  0  0
   20.4321  -13.7470  -18.9165 C   0  0  0  0  0  0  0  0  0  0  0  0
   21.0946  -13.0825  -17.7447 C   0  0  2  0  0  0  0  0  0  0  0  0
   20.8948  -13.8853  -16.5323 N   0  0  0  0  0  0  0  0  0  0  0  0
   20.4711  -11.7602  -17.5023 C   0  0  0  0  0  0  0  0  0  0  0  0
   20.5904  -10.8631  -18.3684 O   0  0  0  0  0  0  0  0  0  0  0  0
   19.7344  -11.4697  -16.3091 N   0  0  0  0  0  0  0  0  0  0  0  0
   19.2036  -10.1620  -16.1304 C   0  0  1  0  0  0  0  0  0  0  0  0
   18.0396  -10.1774  -15.1799 C   0  0  0  0  0  0  0  0  0  0  0  0
   16.8859  -10.8780  -15.7694 C   0  0  0  0  0  0  0  0  0  0  0  0
   16.7186  -10.9365  -17.0014 O   0  0  0  0  0  0  0  0  0  0  0  0
   20.1977   -9.1654  -15.7054 C   0  0  0  0  0  0  0  0  0  0  0  0
   21.0164   -9.2713  -14.7790 O   0  0  0  0  0  0  0  0  0  0  0  0
   15.9300  -11.5078  -14.9472 O   0  0  0  0  0  0  0  0  0  0  0  0
   22.4209   -7.4066  -19.5311 N   0  0  0  0  0  0  0  0  0  0  0  0
   22.5687   -7.1324  -18.1216 C   0  0  0  0  0  0  0  0  0  0  0  0
   23.5493   -7.6965  -17.5827 O   0  0  0  0  0  0  0  0  0  0  0  0
   21.6091   -6.2508  -17.4305 C   0  0  0  0  0  0  0  0  0  0  0  0
   21.1326   -6.8773  -16.1463 C   0  0  2  0  0  0  0  0  0  0  0  0
   20.2120   -7.9314  -16.4592 N   0  0  0  0  0  0  0  0  0  0  0  0
   20.4653   -5.9130  -15.2365 C   0  0  0  0  0  0  0  0  0  0  0  0
   21.0992   -5.5503  -14.0575 O   0  0  0  0  0  0  0  0  0  0  0  0
   19.3428   -5.3959  -15.4714 O   0  0  0  0  0  0  0  0  0  0  0  0
  2  1  1  0
  2  3  2  0
  4  5  1  0
  4  2  1  0
  5  6  1  0
  6  7  1  1
  8  6  1  0
  8 10  1  0
  9  8  2  0
 11 10  1  0
 11 12  1  1
 13 14  2  0
 13 12  1  0
 15 11  1  0
 16 15  2  0
 17 13  1  0
 18 19  1  0
 19 21  1  0
 20 19  2  0
 22 21  1  6
 22 24  1  0
 22 23  1  0
 23 15  1  0
 24 25  1  0
 26 24  2  0
M  END
$$$$
