QDN.pdb
     RDKit          3D

 26 25  0  0  1  0  0  0  0  0999 V2000
   46.4088   -9.0337   -2.2704 N   0  0  0  0  0  0  0  0  0  0  0  0
   46.9852   -9.7201   -3.3971 C   0  0  0  0  0  0  0  0  0  0  0  0
   48.0068  -10.3770   -3.1779 O   0  0  0  0  0  0  0  0  0  0  0  0
   46.2802   -9.5517   -4.6795 C   0  0  0  0  0  0  0  0  0  0  0  0
   45.2353   -8.4989   -4.7019 C   0  0  0  0  0  0  0  0  0  0  0  0
   43.8535   -9.0830   -4.6455 C   0  0  2  0  0  0  0  0  0  0  0  0
   43.9139  -10.4732   -4.1785 N   0  0  0  0  0  0  0  0  0  0  0  0
   43.2638   -9.1026   -6.0049 C   0  0  0  0  0  0  0  0  0  0  0  0
   43.1167   -8.0214   -6.6201 O   0  0  0  0  0  0  0  0  0  0  0  0
   42.8544  -10.3175   -6.6429 N   0  0  0  0  0  0  0  0  0  0  0  0
   42.2248  -10.2464   -7.9167 C   0  0  1  0  0  0  0  0  0  0  0  0
   42.2236  -11.5882   -8.5936 C   0  0  0  0  0  0  0  0  0  0  0  0
   43.5951  -12.0192   -8.9139 C   0  0  0  0  0  0  0  0  0  0  0  0
   44.1047  -13.0217   -8.3808 O   0  0  0  0  0  0  0  0  0  0  0  0
   40.8643   -9.6900   -7.8818 C   0  0  0  0  0  0  0  0  0  0  0  0
   39.9987   -9.8805   -7.0133 O   0  0  0  0  0  0  0  0  0  0  0  0
   44.3762  -11.3015   -9.8420 O   0  0  0  0  0  0  0  0  0  0  0  0
   37.2782   -6.1858   -8.7813 N   0  0  0  0  0  0  0  0  0  0  0  0
   38.1876   -6.2655   -7.6631 C   0  0  0  0  0  0  0  0  0  0  0  0
   37.8709   -5.5505   -6.6840 O   0  0  0  0  0  0  0  0  0  0  0  0
   39.3756   -7.1371   -7.7310 C   0  0  0  0  0  0  0  0  0  0  0  0
   39.3260   -8.0187   -8.9514 C   0  0  2  0  0  0  0  0  0  0  0  0
   40.5098   -8.8272   -8.9868 N   0  0  0  0  0  0  0  0  0  0  0  0
   39.2286   -7.2562  -10.2211 C   0  0  0  0  0  0  0  0  0  0  0  0
   37.9939   -6.7655  -10.6188 O   0  0  0  0  0  0  0  0  0  0  0  0
   40.2115   -7.0235  -10.9710 O   0  0  0  0  0  0  0  0  0  0  0  0
  2  1  1  0
  2  3  2  0
  4  5  1  0
  4  2  1  0
  5  6  1  0
  6  7  1  6
  8  6  1  0
  8 10  1  0
  9  8  2  0
 11 10  1  0
 11 12  1  1
 13 14  2  0
 13 12  1  0
 15 11  1  0
 16 15  2  0
 17 13  1  0
 18 19  1  0
 19 21  1  0
 20 19  2  0
 22 21  1  1
 22 24  1  0
 22 23  1  0
 23 15  1  0
 24 25  1  0
 26 24  2  0
M  END
$$$$
