QDN.pdb
     RDKit          3D

 26 25  0  0  1  0  0  0  0  0999 V2000
   17.3708  -14.6623  -13.1122 N   0  0  0  0  0  0  0  0  0  0  0  0
   17.3172  -15.2803  -14.4115 C   0  0  0  0  0  0  0  0  0  0  0  0
   16.9548  -16.4595  -14.4459 O   0  0  0  0  0  0  0  0  0  0  0  0
   17.7046  -14.4234  -15.5454 C   0  0  0  0  0  0  0  0  0  0  0  0
   18.1288  -13.0466  -15.1914 C   0  0  0  0  0  0  0  0  0  0  0  0
   18.5516  -12.2647  -16.4012 C   0  0  2  0  0  0  0  0  0  0  0  0
   19.5147  -13.0414  -17.1906 N   0  0  0  0  0  0  0  0  0  0  0  0
   19.2351  -11.0199  -15.9774 C   0  0  0  0  0  0  0  0  0  0  0  0
   18.8864  -10.4679  -14.9083 O   0  0  0  0  0  0  0  0  0  0  0  0
   20.2836  -10.4231  -16.7488 N   0  0  0  0  0  0  0  0  0  0  0  0
   20.8584   -9.2022  -16.2986 C   0  0  1  0  0  0  0  0  0  0  0  0
   22.2945   -9.0914  -16.7277 C   0  0  0  0  0  0  0  0  0  0  0  0
   23.1328  -10.0784  -16.0259 C   0  0  0  0  0  0  0  0  0  0  0  0
   22.9748  -10.3254  -14.8163 O   0  0  0  0  0  0  0  0  0  0  0  0
   20.1099   -8.0031  -16.7031 C   0  0  0  0  0  0  0  0  0  0  0  0
   19.6696   -7.7401  -17.8330 O   0  0  0  0  0  0  0  0  0  0  0  0
   24.1470  -10.7773  -16.7109 O   0  0  0  0  0  0  0  0  0  0  0  0
   17.4271   -3.6754  -16.1055 N   0  0  0  0  0  0  0  0  0  0  0  0
   16.9429   -4.7869  -15.3221 C   0  0  0  0  0  0  0  0  0  0  0  0
   15.8041   -4.6171  -14.8277 O   0  0  0  0  0  0  0  0  0  0  0  0
   17.7707   -5.9965  -15.1558 C   0  0  0  0  0  0  0  0  0  0  0  0
   19.0737   -5.8620  -15.8994 C   0  0  2  0  0  0  0  0  0  0  0  0
   19.8667   -7.0323  -15.6592 N   0  0  0  0  0  0  0  0  0  0  0  0
   19.8545   -4.6643  -15.5009 C   0  0  0  0  0  0  0  0  0  0  0  0
   19.2930   -3.4075  -15.6701 O   0  0  0  0  0  0  0  0  0  0  0  0
   21.0121   -4.7186  -15.0115 O   0  0  0  0  0  0  0  0  0  0  0  0
  2  1  1  0
  2  3  2  0
  4  5  1  0
  4  2  1  0
  5  6  1  0
  6  7  1  6
  8  6  1  0
  8 10  1  0
  9  8  2  0
 11 10  1  0
 11 12  1  6
 13 14  2  0
 13 12  1  0
 15 11  1  0
 16 15  2  0
 17 13  1  0
 18 19  1  0
 19 21  1  0
 20 19  2  0
 22 21  1  1
 22 24  1  0
 22 23  1  0
 23 15  1  0
 24 25  1  0
 26 24  2  0
M  END
$$$$
