QDN.pdb
     RDKit          3D

 26 25  0  0  1  0  0  0  0  0999 V2000
   20.1975  -28.4851  -12.6057 N   0  0  0  0  0  0  0  0  0  0  0  0
   20.5836  -28.8692  -13.9385 C   0  0  0  0  0  0  0  0  0  0  0  0
   20.2934  -30.0172  -14.2866 O   0  0  0  0  0  0  0  0  0  0  0  0
   21.2817  -27.8384  -14.7258 C   0  0  0  0  0  0  0  0  0  0  0  0
   21.4345  -26.5204  -14.0621 C   0  0  0  0  0  0  0  0  0  0  0  0
   20.5401  -25.4810  -14.6731 C   0  0  2  0  0  0  0  0  0  0  0  0
   21.3230  -24.5882  -15.5357 N   0  0  0  0  0  0  0  0  0  0  0  0
   19.9430  -24.6455  -13.6046 C   0  0  0  0  0  0  0  0  0  0  0  0
   20.6894  -23.9079  -12.9204 O   0  0  0  0  0  0  0  0  0  0  0  0
   18.5386  -24.6510  -13.3251 N   0  0  0  0  0  0  0  0  0  0  0  0
   18.0510  -23.8715  -12.2395 C   0  0  1  0  0  0  0  0  0  0  0  0
   16.9525  -22.9491  -12.6882 C   0  0  0  0  0  0  0  0  0  0  0  0
   16.9472  -21.7089  -11.8938 C   0  0  0  0  0  0  0  0  0  0  0  0
   17.7954  -21.4986  -11.0076 O   0  0  0  0  0  0  0  0  0  0  0  0
   17.6116  -24.6653  -11.0825 C   0  0  0  0  0  0  0  0  0  0  0  0
   16.8567  -25.6501  -11.0923 O   0  0  0  0  0  0  0  0  0  0  0  0
   15.9721  -20.7160  -12.1171 O   0  0  0  0  0  0  0  0  0  0  0  0
   18.0064  -26.6013   -6.4277 N   0  0  0  0  0  0  0  0  0  0  0  0
   18.6604  -25.3177   -6.3360 C   0  0  0  0  0  0  0  0  0  0  0  0
   19.2736  -25.1229   -5.2607 O   0  0  0  0  0  0  0  0  0  0  0  0
   18.5754  -24.3579   -7.4528 C   0  0  0  0  0  0  0  0  0  0  0  0
   17.7692  -24.9276   -8.5905 C   0  0  2  0  0  0  0  0  0  0  0  0
   18.1236  -24.2408   -9.7984 N   0  0  0  0  0  0  0  0  0  0  0  0
   16.3038  -24.8113   -8.3856 C   0  0  0  0  0  0  0  0  0  0  0  0
   15.5651  -25.9590   -8.1399 O   0  0  0  0  0  0  0  0  0  0  0  0
   15.6799  -23.7195   -8.4216 O   0  0  0  0  0  0  0  0  0  0  0  0
  2  1  1  0
  2  3  2  0
  4  5  1  0
  4  2  1  0
  5  6  1  0
  6  7  1  6
  8  6  1  0
  8 10  1  0
  9  8  2  0
 11 10  1  0
 11 12  1  6
 13 14  2  0
 13 12  1  0
 15 11  1  0
 16 15  2  0
 17 13  1  0
 18 19  1  0
 19 21  1  0
 20 19  2  0
 22 21  1  1
 22 24  1  0
 22 23  1  0
 23 15  1  0
 24 25  1  0
 26 24  2  0
M  END
$$$$
