QDN.pdb
     RDKit          3D

 26 25  0  0  1  0  0  0  0  0999 V2000
   19.6911  -14.0620  -18.3016 N   0  0  0  0  0  0  0  0  0  0  0  0
   19.1435  -13.8544  -16.9863 C   0  0  0  0  0  0  0  0  0  0  0  0
   18.5158  -14.7972  -16.4960 O   0  0  0  0  0  0  0  0  0  0  0  0
   19.4014  -12.5343  -16.3856 C   0  0  0  0  0  0  0  0  0  0  0  0
   20.1658  -11.5847  -17.2311 C   0  0  0  0  0  0  0  0  0  0  0  0
   21.3470  -11.0140  -16.5012 C   0  0  2  0  0  0  0  0  0  0  0  0
   21.8033  -11.9539  -15.4704 N   0  0  0  0  0  0  0  0  0  0  0  0
   20.9508   -9.7643  -15.8103 C   0  0  0  0  0  0  0  0  0  0  0  0
   20.1595   -9.8293  -14.8413 O   0  0  0  0  0  0  0  0  0  0  0  0
   21.4417   -8.4804  -16.2118 N   0  0  0  0  0  0  0  0  0  0  0  0
   21.0601   -7.3334  -15.4616 C   0  0  1  0  0  0  0  0  0  0  0  0
   22.2377   -6.4321  -15.2175 C   0  0  0  0  0  0  0  0  0  0  0  0
   21.8590   -5.2854  -14.3742 C   0  0  0  0  0  0  0  0  0  0  0  0
   21.2032   -5.4348  -13.3270 O   0  0  0  0  0  0  0  0  0  0  0  0
   19.9487   -6.5739  -16.0530 C   0  0  0  0  0  0  0  0  0  0  0  0
   19.7877   -6.2909  -17.2504 O   0  0  0  0  0  0  0  0  0  0  0  0
   22.2323   -3.9746  -14.7330 O   0  0  0  0  0  0  0  0  0  0  0  0
   14.3579   -6.2084  -16.7540 N   0  0  0  0  0  0  0  0  0  0  0  0
   15.3661   -5.5847  -15.9304 C   0  0  0  0  0  0  0  0  0  0  0  0
   15.0886   -4.4195  -15.5625 O   0  0  0  0  0  0  0  0  0  0  0  0
   16.6010   -6.3142  -15.5859 C   0  0  0  0  0  0  0  0  0  0  0  0
   17.7880   -5.3869  -15.5774 C   0  0  2  0  0  0  0  0  0  0  0  0
   18.9393   -6.1127  -15.1258 N   0  0  0  0  0  0  0  0  0  0  0  0
   17.5979   -4.2003  -14.7062 C   0  0  0  0  0  0  0  0  0  0  0  0
   17.8233   -4.3227  -13.3432 O   0  0  0  0  0  0  0  0  0  0  0  0
   17.2395   -3.0727  -15.1334 O   0  0  0  0  0  0  0  0  0  0  0  0
  2  1  1  0
  2  3  2  0
  4  5  1  0
  4  2  1  0
  5  6  1  0
  6  7  1  1
  8  6  1  0
  8 10  1  0
  9  8  2  0
 11 10  1  0
 11 12  1  6
 13 14  2  0
 13 12  1  0
 15 11  1  0
 16 15  2  0
 17 13  1  0
 18 19  1  0
 19 21  1  0
 20 19  2  0
 22 21  1  1
 22 24  1  0
 22 23  1  0
 23 15  1  0
 24 25  1  0
 26 24  2  0
M  END
$$$$
