QDN.pdb
     RDKit          3D

 26 25  0  0  1  0  0  0  0  0999 V2000
   14.4132  -13.0357   -9.3578 N   0  0  0  0  0  0  0  0  0  0  0  0
   15.3283  -12.2931  -10.1848 C   0  0  0  0  0  0  0  0  0  0  0  0
   16.5269  -12.3947   -9.9084 O   0  0  0  0  0  0  0  0  0  0  0  0
   14.7169  -11.4989  -11.2643 C   0  0  0  0  0  0  0  0  0  0  0  0
   15.2083  -10.1048  -11.3904 C   0  0  0  0  0  0  0  0  0  0  0  0
   14.5421   -9.1873  -10.4066 C   0  0  2  0  0  0  0  0  0  0  0  0
   13.1101   -9.0793  -10.7096 N   0  0  0  0  0  0  0  0  0  0  0  0
   15.1184   -7.8269  -10.5231 C   0  0  0  0  0  0  0  0  0  0  0  0
   15.1470   -7.2723  -11.6459 O   0  0  0  0  0  0  0  0  0  0  0  0
   15.6457   -7.1210   -9.3943 N   0  0  0  0  0  0  0  0  0  0  0  0
   16.2355   -5.8425   -9.5976 C   0  0  1  0  0  0  0  0  0  0  0  0
   15.8532   -4.8911   -8.4988 C   0  0  0  0  0  0  0  0  0  0  0  0
   14.3920   -4.7174   -8.4355 C   0  0  0  0  0  0  0  0  0  0  0  0
   13.7244   -4.4365   -9.4477 O   0  0  0  0  0  0  0  0  0  0  0  0
   17.6964   -5.8761   -9.7597 C   0  0  0  0  0  0  0  0  0  0  0  0
   18.5149   -6.4864   -9.0544 O   0  0  0  0  0  0  0  0  0  0  0  0
   13.7022   -4.8658   -7.2154 O   0  0  0  0  0  0  0  0  0  0  0  0
   22.1704   -6.4466  -11.9517 N   0  0  0  0  0  0  0  0  0  0  0  0
   20.9534   -7.0017  -12.4945 C   0  0  0  0  0  0  0  0  0  0  0  0
   21.1096   -7.6697  -13.5431 O   0  0  0  0  0  0  0  0  0  0  0  0
   19.6625   -6.7646  -11.8213 C   0  0  0  0  0  0  0  0  0  0  0  0
   19.5498   -5.3338  -11.3643 C   0  0  2  0  0  0  0  0  0  0  0  0
   18.2236   -5.1098  -10.8670 N   0  0  0  0  0  0  0  0  0  0  0  0
   19.8297   -4.3514  -12.4411 C   0  0  0  0  0  0  0  0  0  0  0  0
   18.7861   -3.9179  -13.2451 O   0  0  0  0  0  0  0  0  0  0  0  0
   20.9725   -3.8797  -12.6739 O   0  0  0  0  0  0  0  0  0  0  0  0
  2  1  1  0
  2  3  2  0
  4  5  1  0
  4  2  1  0
  5  6  1  0
  6  7  1  6
  8  6  1  0
  8 10  1  0
  9  8  2  0
 11 10  1  0
 11 12  1  1
 13 14  2  0
 13 12  1  0
 15 11  1  0
 16 15  2  0
 17 13  1  0
 18 19  1  0
 19 21  1  0
 20 19  2  0
 22 21  1  6
 22 24  1  0
 22 23  1  0
 23 15  1  0
 24 25  1  0
 26 24  2  0
M  END
$$$$
