NFY.pdb
     RDKit          3D

 32 33  0  0  1  0  0  0  0  0999 V2000
   12.5858  -18.2314   18.4758 N   0  0  0  0  0  0  0  0  0  0  0  0
   11.3301  -17.7342   18.8776 C   0  0  0  0  0  0  0  0  0  0  0  0
   10.2763  -18.1687   18.3743 O   0  0  0  0  0  0  0  0  0  0  0  0
   11.2593  -16.6825   19.9107 C   0  0  0  0  0  0  0  0  0  0  0  0
   10.6247  -17.2810   21.1362 C   0  0  2  0  0  0  0  0  0  0  0  0
    9.2827  -17.7224   20.9133 N   0  0  0  0  0  0  0  0  0  0  0  0
   10.6433  -16.2398   22.1962 C   0  0  0  0  0  0  0  0  0  0  0  0
   11.6690  -15.5306   22.4048 O   0  0  0  0  0  0  0  0  0  0  0  0
    9.4993  -16.0380   22.9828 N   0  0  0  0  0  0  0  0  0  0  0  0
    9.4162  -15.0679   24.0875 C   0  0  1  0  0  0  0  0  0  0  0  0
    8.0083  -14.5903   24.0507 C   0  0  0  0  0  0  0  0  0  0  0  0
    7.5770  -13.6405   25.0545 C   0  0  0  0  0  0  0  0  0  0  0  0
    7.9116  -12.3036   25.1056 C   0  0  0  0  0  0  0  0  0  0  0  0
    7.4477  -11.4542   26.0841 C   0  0  0  0  0  0  0  0  0  0  0  0
    6.6063  -11.9283   27.0770 C   0  0  0  0  0  0  0  0  0  0  0  0
    6.2629  -13.2567   27.0416 C   0  0  0  0  0  0  0  0  0  0  0  0
    6.7311  -14.1024   26.0582 C   0  0  0  0  0  0  0  0  0  0  0  0
    9.8002  -15.8086   25.3122 C   0  0  0  0  0  0  0  0  0  0  0  0
    9.4308  -17.0182   25.5133 O   0  0  0  0  0  0  0  0  0  0  0  0
   14.2103  -19.8579   23.5780 O   0  0  0  0  0  0  0  0  0  0  0  0
   13.8042  -18.9330   24.5009 C   0  0  0  0  0  0  0  0  0  0  0  0
   13.8803  -17.5781   24.2692 C   0  0  0  0  0  0  0  0  0  0  0  0
   13.4422  -16.7439   25.2706 C   0  0  0  0  0  0  0  0  0  0  0  0
   12.9375  -17.1747   26.4787 C   0  0  0  0  0  0  0  0  0  0  0  0
   12.4809  -16.2505   27.5384 C   0  0  0  0  0  0  0  0  0  0  0  0
   11.0062  -16.0480   27.5226 C   0  0  2  0  0  0  0  0  0  0  0  0
   10.5987  -15.2605   26.3557 N   0  0  0  0  0  0  0  0  0  0  0  0
   10.4153  -15.4789   28.7325 C   0  0  0  0  0  0  0  0  0  0  0  0
    9.8132  -14.3512   28.6845 O   0  0  0  0  0  0  0  0  0  0  0  0
   12.8674  -18.5374   26.6963 C   0  0  0  0  0  0  0  0  0  0  0  0
   13.2988  -19.3943   25.7110 C   0  0  0  0  0  0  0  0  0  0  0  0
   10.4408  -16.0623   29.9825 O   0  0  0  0  0  0  0  0  0  0  0  0
  1  2  1  0
  2  3  2  0
  4  5  1  0
  4  2  1  0
  5  6  1  6
  7  9  1  0
  7  5  1  0
  8  7  2  0
 10  9  1  0
 10 11  1  1
 11 12  1  0
 12 17  1  0
 12 13  2  0
 13 14  1  0
 14 15  2  0
 16 15  1  0
 17 16  2  0
 18 27  1  0
 18 10  1  0
 19 18  2  0
 20 21  1  0
 21 31  2  0
 22 21  1  0
 22 23  2  0
 23 24  1  0
 24 30  2  0
 24 25  1  0
 26 25  1  1
 26 28  1  0
 26 27  1  0
 28 32  1  0
 29 28  2  0
 31 30  1  0
M  END
$$$$
