NFY.pdb
     RDKit          3D

 32 33  0  0  1  0  0  0  0  0999 V2000
    5.9431  -19.0339   19.4219 N   0  0  0  0  0  0  0  0  0  0  0  0
    7.3453  -19.0712   19.5553 C   0  0  0  0  0  0  0  0  0  0  0  0
    8.0578  -19.6243   18.6955 O   0  0  0  0  0  0  0  0  0  0  0  0
    7.9825  -18.4459   20.7306 C   0  0  0  0  0  0  0  0  0  0  0  0
    8.2963  -17.0170   20.3801 C   0  0  2  0  0  0  0  0  0  0  0  0
    9.3066  -16.8956   19.3751 N   0  0  0  0  0  0  0  0  0  0  0  0
    8.7429  -16.3444   21.6276 C   0  0  0  0  0  0  0  0  0  0  0  0
    9.8858  -16.5642   22.1214 O   0  0  0  0  0  0  0  0  0  0  0  0
    7.8794  -15.4459   22.2720 N   0  0  0  0  0  0  0  0  0  0  0  0
    8.1954  -14.7567   23.5343 C   0  0  1  0  0  0  0  0  0  0  0  0
    7.1781  -13.6759   23.6265 C   0  0  0  0  0  0  0  0  0  0  0  0
    7.0260  -12.9791   24.8863 C   0  0  0  0  0  0  0  0  0  0  0  0
    6.1184  -13.2835   25.8791 C   0  0  0  0  0  0  0  0  0  0  0  0
    6.0432  -12.5847   27.0624 C   0  0  0  0  0  0  0  0  0  0  0  0
    6.9006  -11.5233   27.3007 C   0  0  0  0  0  0  0  0  0  0  0  0
    7.8105  -11.2064   26.3231 C   0  0  0  0  0  0  0  0  0  0  0  0
    7.8807  -11.9107   25.1397 C   0  0  0  0  0  0  0  0  0  0  0  0
    8.1182  -15.7891   24.5946 C   0  0  0  0  0  0  0  0  0  0  0  0
    7.1351  -16.6062   24.6708 O   0  0  0  0  0  0  0  0  0  0  0  0
    8.1889  -22.4859   29.7490 O   0  0  0  0  0  0  0  0  0  0  0  0
    8.3659  -21.4878   28.8300 C   0  0  0  0  0  0  0  0  0  0  0  0
    9.6031  -21.1686   28.3177 C   0  0  0  0  0  0  0  0  0  0  0  0
    9.6583  -20.1465   27.3996 C   0  0  0  0  0  0  0  0  0  0  0  0
    8.5644  -19.4291   26.9654 C   0  0  0  0  0  0  0  0  0  0  0  0
    8.6588  -18.3301   25.9812 C   0  0  0  0  0  0  0  0  0  0  0  0
    9.0098  -17.0280   26.6115 C   0  0  2  0  0  0  0  0  0  0  0  0
    9.1063  -15.9681   25.6039 N   0  0  0  0  0  0  0  0  0  0  0  0
   10.2026  -17.0154   27.4565 C   0  0  0  0  0  0  0  0  0  0  0  0
   10.0985  -17.2022   28.7178 O   0  0  0  0  0  0  0  0  0  0  0  0
    7.3295  -19.7615   27.4887 C   0  0  0  0  0  0  0  0  0  0  0  0
    7.2460  -20.7802   28.4086 C   0  0  0  0  0  0  0  0  0  0  0  0
   11.4928  -16.8138   27.0114 O   0  0  0  0  0  0  0  0  0  0  0  0
  1  2  1  0
  2  3  2  0
  4  5  1  0
  4  2  1  0
  5  6  1  6
  7  9  1  0
  7  5  1  0
  8  7  2  0
 10  9  1  0
 10 11  1  1
 11 12  1  0
 12 17  1  0
 12 13  2  0
 13 14  1  0
 14 15  2  0
 16 15  1  0
 17 16  2  0
 18 27  1  0
 18 10  1  0
 19 18  2  0
 20 21  1  0
 21 31  2  0
 22 21  1  0
 22 23  2  0
 23 24  1  0
 24 30  2  0
 24 25  1  0
 26 25  1  6
 26 28  1  0
 26 27  1  0
 28 32  1  0
 29 28  2  0
 31 30  1  0
M  END
$$$$
