NFY.pdb
     RDKit          3D

 32 33  0  0  1  0  0  0  0  0999 V2000
    8.3776  -17.1928   14.6178 N   0  0  0  0  0  0  0  0  0  0  0  0
    9.4796  -17.4796   15.4478 C   0  0  0  0  0  0  0  0  0  0  0  0
   10.3428  -18.3103   15.1051 O   0  0  0  0  0  0  0  0  0  0  0  0
    9.6157  -16.7865   16.7437 C   0  0  0  0  0  0  0  0  0  0  0  0
    9.8069  -17.8317   17.8085 C   0  0  2  0  0  0  0  0  0  0  0  0
    8.6343  -18.6173   18.0394 N   0  0  0  0  0  0  0  0  0  0  0  0
   10.1936  -17.1245   19.0569 C   0  0  0  0  0  0  0  0  0  0  0  0
   11.3315  -16.5883   19.1846 O   0  0  0  0  0  0  0  0  0  0  0  0
    9.2778  -17.0490   20.1170 N   0  0  0  0  0  0  0  0  0  0  0  0
    9.5500  -16.3762   21.3982 C   0  0  1  0  0  0  0  0  0  0  0  0
    8.2439  -15.7782   21.7829 C   0  0  0  0  0  0  0  0  0  0  0  0
    7.8048  -14.5823   21.0951 C   0  0  0  0  0  0  0  0  0  0  0  0
    6.9250  -14.5314   20.0344 C   0  0  0  0  0  0  0  0  0  0  0  0
    6.5388  -13.3517   19.4401 C   0  0  0  0  0  0  0  0  0  0  0  0
    7.0357  -12.1438   19.9011 C   0  0  0  0  0  0  0  0  0  0  0  0
    7.9128  -12.1758   20.9563 C   0  0  0  0  0  0  0  0  0  0  0  0
    8.2955  -13.3613   21.5475 C   0  0  0  0  0  0  0  0  0  0  0  0
   10.0575  -17.4265   22.3121 C   0  0  0  0  0  0  0  0  0  0  0  0
    9.4431  -18.5390   22.4695 O   0  0  0  0  0  0  0  0  0  0  0  0
   15.3318  -23.6680   24.8882 O   0  0  0  0  0  0  0  0  0  0  0  0
   14.7645  -22.5380   24.3653 C   0  0  0  0  0  0  0  0  0  0  0  0
   15.4339  -21.3364   24.3073 C   0  0  0  0  0  0  0  0  0  0  0  0
   14.7621  -20.2688   23.7601 C   0  0  0  0  0  0  0  0  0  0  0  0
   13.4745  -20.3257   23.2717 C   0  0  0  0  0  0  0  0  0  0  0  0
   12.7775  -19.1563   22.6952 C   0  0  0  0  0  0  0  0  0  0  0  0
   11.9110  -18.4622   23.6869 C   0  0  2  0  0  0  0  0  0  0  0  0
   11.2487  -17.3031   23.0822 N   0  0  0  0  0  0  0  0  0  0  0  0
   12.5472  -18.0675   24.9423 C   0  0  0  0  0  0  0  0  0  0  0  0
   13.2000  -16.9696   25.0146 O   0  0  0  0  0  0  0  0  0  0  0  0
   12.8159  -21.5387   23.3368 C   0  0  0  0  0  0  0  0  0  0  0  0
   13.4648  -22.6229   23.8793 C   0  0  0  0  0  0  0  0  0  0  0  0
   12.5139  -18.7927   26.1155 O   0  0  0  0  0  0  0  0  0  0  0  0
  1  2  1  0
  2  3  2  0
  4  5  1  0
  4  2  1  0
  5  6  1  1
  7  9  1  0
  7  5  1  0
  8  7  2  0
 10  9  1  0
 10 11  1  1
 11 12  1  0
 12 17  1  0
 12 13  2  0
 13 14  1  0
 14 15  2  0
 16 15  1  0
 17 16  2  0
 18 27  1  0
 18 10  1  0
 19 18  2  0
 20 21  1  0
 21 31  2  0
 22 21  1  0
 22 23  2  0
 23 24  1  0
 24 30  2  0
 24 25  1  0
 26 25  1  6
 26 28  1  0
 26 27  1  0
 28 32  1  0
 29 28  2  0
 31 30  1  0
M  END
$$$$
