NFY.pdb
     RDKit          3D

 32 33  0  0  1  0  0  0  0  0999 V2000
   12.1649  -17.6348   16.9383 N   0  0  0  0  0  0  0  0  0  0  0  0
   10.7975  -17.5873   17.2749 C   0  0  0  0  0  0  0  0  0  0  0  0
    9.9897  -18.4074   16.7976 O   0  0  0  0  0  0  0  0  0  0  0  0
   10.3119  -16.5513   18.2071 C   0  0  0  0  0  0  0  0  0  0  0  0
    9.8020  -17.2433   19.4416 C   0  0  2  0  0  0  0  0  0  0  0  0
    8.4444  -17.6767   19.3206 N   0  0  0  0  0  0  0  0  0  0  0  0
    9.9258  -16.2831   20.5689 C   0  0  0  0  0  0  0  0  0  0  0  0
   11.0141  -15.6858   20.8087 O   0  0  0  0  0  0  0  0  0  0  0  0
    8.8126  -16.0327   21.3851 N   0  0  0  0  0  0  0  0  0  0  0  0
    8.8173  -15.1036   22.5275 C   0  0  1  0  0  0  0  0  0  0  0  0
    7.3838  -14.7623   22.7282 C   0  0  0  0  0  0  0  0  0  0  0  0
    7.0385  -13.8328   23.7831 C   0  0  0  0  0  0  0  0  0  0  0  0
    7.2504  -12.4702   23.7675 C   0  0  0  0  0  0  0  0  0  0  0  0
    6.8782  -11.6444   24.8036 C   0  0  0  0  0  0  0  0  0  0  0  0
    6.2619  -12.1701   25.9270 C   0  0  0  0  0  0  0  0  0  0  0  0
    6.0432  -13.5247   25.9595 C   0  0  0  0  0  0  0  0  0  0  0  0
    6.4184  -14.3467   24.9178 C   0  0  0  0  0  0  0  0  0  0  0  0
    9.4554  -15.8350   23.6472 C   0  0  0  0  0  0  0  0  0  0  0  0
    9.2296  -17.0779   23.8573 O   0  0  0  0  0  0  0  0  0  0  0  0
   11.6351  -16.5957   32.1451 O   0  0  0  0  0  0  0  0  0  0  0  0
   11.4574  -16.1897   30.8507 C   0  0  0  0  0  0  0  0  0  0  0  0
   11.9387  -16.9089   29.7800 C   0  0  0  0  0  0  0  0  0  0  0  0
   11.6991  -16.4024   28.5243 C   0  0  0  0  0  0  0  0  0  0  0  0
   11.0151  -15.2324   28.2734 C   0  0  0  0  0  0  0  0  0  0  0  0
   10.7802  -14.7113   26.9100 C   0  0  0  0  0  0  0  0  0  0  0  0
   10.5854  -15.7965   25.9098 C   0  0  2  0  0  0  0  0  0  0  0  0
   10.3598  -15.2410   24.5725 N   0  0  0  0  0  0  0  0  0  0  0  0
    9.5514  -16.7837   26.2148 C   0  0  0  0  0  0  0  0  0  0  0  0
    8.3178  -16.5010   26.0274 O   0  0  0  0  0  0  0  0  0  0  0  0
   10.5381  -14.5220   29.3583 C   0  0  0  0  0  0  0  0  0  0  0  0
   10.7637  -15.0062   30.6254 C   0  0  0  0  0  0  0  0  0  0  0  0
    9.7804  -18.0518   26.7076 O   0  0  0  0  0  0  0  0  0  0  0  0
  1  2  1  0
  2  3  2  0
  4  5  1  0
  4  2  1  0
  5  6  1  6
  7  9  1  0
  7  5  1  0
  8  7  2  0
 10  9  1  0
 10 11  1  1
 11 12  1  0
 12 17  1  0
 12 13  2  0
 13 14  1  0
 14 15  2  0
 16 15  1  0
 17 16  2  0
 18 27  1  0
 18 10  1  0
 19 18  2  0
 20 21  1  0
 21 31  2  0
 22 21  1  0
 22 23  2  0
 23 24  1  0
 24 30  2  0
 24 25  1  0
 26 25  1  1
 26 28  1  0
 26 27  1  0
 28 32  1  0
 29 28  2  0
 31 30  1  0
M  END
$$$$
