NFY.pdb
     RDKit          3D

 32 33  0  0  1  0  0  0  0  0999 V2000
    9.3279  -17.1712   16.3473 N   0  0  0  0  0  0  0  0  0  0  0  0
   10.1205  -17.4481   17.4790 C   0  0  0  0  0  0  0  0  0  0  0  0
   10.7305  -18.5293   17.5870 O   0  0  0  0  0  0  0  0  0  0  0  0
   10.2317  -16.4434   18.5544 C   0  0  0  0  0  0  0  0  0  0  0  0
    9.9037  -17.1222   19.8562 C   0  0  2  0  0  0  0  0  0  0  0  0
    8.6065  -17.7245   19.8627 N   0  0  0  0  0  0  0  0  0  0  0  0
    9.9865  -16.0923   20.9242 C   0  0  0  0  0  0  0  0  0  0  0  0
   11.0410  -15.4199   21.1104 O   0  0  0  0  0  0  0  0  0  0  0  0
    8.8720  -15.8597   21.7439 N   0  0  0  0  0  0  0  0  0  0  0  0
    8.8682  -14.9375   22.8918 C   0  0  1  0  0  0  0  0  0  0  0  0
    7.4405  -14.5508   23.0465 C   0  0  0  0  0  0  0  0  0  0  0  0
    7.0691  -13.7263   24.1770 C   0  0  0  0  0  0  0  0  0  0  0  0
    6.4982  -14.1676   25.3522 C   0  0  0  0  0  0  0  0  0  0  0  0
    6.1871  -13.3244   26.3945 C   0  0  0  0  0  0  0  0  0  0  0  0
    6.4447  -11.9672   26.2936 C   0  0  0  0  0  0  0  0  0  0  0  0
    7.0128  -11.5104   25.1307 C   0  0  0  0  0  0  0  0  0  0  0  0
    7.3221  -12.3607   24.0901 C   0  0  0  0  0  0  0  0  0  0  0  0
    9.4439  -15.6956   24.0275 C   0  0  0  0  0  0  0  0  0  0  0  0
    9.1902  -16.9378   24.2079 O   0  0  0  0  0  0  0  0  0  0  0  0
   12.3750  -17.4420   32.1250 O   0  0  0  0  0  0  0  0  0  0  0  0
   12.0764  -16.7916   30.9589 C   0  0  0  0  0  0  0  0  0  0  0  0
   11.1113  -15.8125   30.8874 C   0  0  0  0  0  0  0  0  0  0  0  0
   10.8984  -15.2286   29.6609 C   0  0  0  0  0  0  0  0  0  0  0  0
   11.5829  -15.5590   28.5111 C   0  0  0  0  0  0  0  0  0  0  0  0
   11.3248  -14.9161   27.2051 C   0  0  0  0  0  0  0  0  0  0  0  0
   10.6702  -15.8365   26.2353 C   0  0  2  0  0  0  0  0  0  0  0  0
   10.3145  -15.1297   25.0017 N   0  0  0  0  0  0  0  0  0  0  0  0
    9.5138  -16.5834   26.7269 C   0  0  0  0  0  0  0  0  0  0  0  0
    9.6396  -17.8089   27.0718 O   0  0  0  0  0  0  0  0  0  0  0  0
   12.5486  -16.5434   28.5990 C   0  0  0  0  0  0  0  0  0  0  0  0
   12.7819  -17.1438   29.8140 C   0  0  0  0  0  0  0  0  0  0  0  0
    8.2378  -16.0773   26.8649 O   0  0  0  0  0  0  0  0  0  0  0  0
  1  2  1  0
  2  3  2  0
  4  5  1  0
  4  2  1  0
  5  6  1  6
  7  9  1  0
  7  5  1  0
  8  7  2  0
 10  9  1  0
 10 11  1  1
 11 12  1  0
 12 17  1  0
 12 13  2  0
 13 14  1  0
 14 15  2  0
 16 15  1  0
 17 16  2  0
 18 27  1  0
 18 10  1  0
 19 18  2  0
 20 21  1  0
 21 31  2  0
 22 21  1  0
 22 23  2  0
 23 24  1  0
 24 30  2  0
 24 25  1  0
 26 25  1  1
 26 28  1  0
 26 27  1  0
 28 32  1  0
 29 28  2  0
 31 30  1  0
M  END
$$$$
