NFY.pdb
     RDKit          3D

 32 33  0  0  1  0  0  0  0  0999 V2000
   11.2584  -18.6390   17.9446 N   0  0  0  0  0  0  0  0  0  0  0  0
   10.4961  -17.4778   18.1813 C   0  0  0  0  0  0  0  0  0  0  0  0
    9.5941  -17.1302   17.3949 O   0  0  0  0  0  0  0  0  0  0  0  0
   10.7682  -16.6588   19.3786 C   0  0  0  0  0  0  0  0  0  0  0  0
    9.7089  -16.9689   20.4006 C   0  0  2  0  0  0  0  0  0  0  0  0
    8.3801  -16.8245   19.8918 N   0  0  0  0  0  0  0  0  0  0  0  0
    9.9141  -16.0424   21.5441 C   0  0  0  0  0  0  0  0  0  0  0  0
   11.0717  -15.6709   21.8912 O   0  0  0  0  0  0  0  0  0  0  0  0
    8.8009  -15.5687   22.2544 N   0  0  0  0  0  0  0  0  0  0  0  0
    8.8852  -14.8127   23.5152 C   0  0  1  0  0  0  0  0  0  0  0  0
    7.5936  -14.0793   23.5899 C   0  0  0  0  0  0  0  0  0  0  0  0
    7.2645  -13.3876   24.8184 C   0  0  0  0  0  0  0  0  0  0  0  0
    6.4139  -13.8420   25.8043 C   0  0  0  0  0  0  0  0  0  0  0  0
    6.1618  -13.1348   26.9577 C   0  0  0  0  0  0  0  0  0  0  0  0
    6.7712  -11.9095   27.1712 C   0  0  0  0  0  0  0  0  0  0  0  0
    7.6211  -11.4418   26.2002 C   0  0  0  0  0  0  0  0  0  0  0  0
    7.8695  -12.1555   25.0467 C   0  0  0  0  0  0  0  0  0  0  0  0
    9.1031  -15.8185   24.5815 C   0  0  0  0  0  0  0  0  0  0  0  0
    8.4215  -16.9012   24.6378 O   0  0  0  0  0  0  0  0  0  0  0  0
   16.0826  -15.8638   23.9602 O   0  0  0  0  0  0  0  0  0  0  0  0
   14.9191  -16.3425   24.4978 C   0  0  0  0  0  0  0  0  0  0  0  0
   14.8054  -16.6789   25.8279 C   0  0  0  0  0  0  0  0  0  0  0  0
   13.5860  -17.1495   26.2549 C   0  0  0  0  0  0  0  0  0  0  0  0
   12.4828  -17.3042   25.4434 C   0  0  0  0  0  0  0  0  0  0  0  0
   11.1867  -17.8200   25.9329 C   0  0  0  0  0  0  0  0  0  0  0  0
   10.3540  -16.7617   26.5673 C   0  0  2  0  0  0  0  0  0  0  0  0
   10.0688  -15.6816   25.6186 N   0  0  0  0  0  0  0  0  0  0  0  0
   10.8600  -16.1991   27.8180 C   0  0  0  0  0  0  0  0  0  0  0  0
   10.9416  -14.9309   27.9655 O   0  0  0  0  0  0  0  0  0  0  0  0
   12.6126  -16.9622   24.1109 C   0  0  0  0  0  0  0  0  0  0  0  0
   13.8213  -16.4886   23.6575 C   0  0  0  0  0  0  0  0  0  0  0  0
   11.2784  -16.9312   28.9099 O   0  0  0  0  0  0  0  0  0  0  0  0
  1  2  1  0
  2  3  2  0
  4  5  1  0
  4  2  1  0
  5  6  1  6
  7  9  1  0
  7  5  1  0
  8  7  2  0
 10  9  1  0
 10 11  1  1
 11 12  1  0
 12 17  1  0
 12 13  2  0
 13 14  1  0
 14 15  2  0
 16 15  1  0
 17 16  2  0
 18 27  1  0
 18 10  1  0
 19 18  2  0
 20 21  1  0
 21 31  2  0
 22 21  1  0
 22 23  2  0
 23 24  1  0
 24 30  2  0
 24 25  1  0
 26 25  1  6
 26 28  1  0
 26 27  1  0
 28 32  1  0
 29 28  2  0
 31 30  1  0
M  END
$$$$
