NFY.pdb
     RDKit          3D

 32 33  0  0  1  0  0  0  0  0999 V2000
    9.5418  -17.2450   17.3699 N   0  0  0  0  0  0  0  0  0  0  0  0
   10.3951  -17.3938   18.4813 C   0  0  0  0  0  0  0  0  0  0  0  0
   11.1467  -18.3822   18.5861 O   0  0  0  0  0  0  0  0  0  0  0  0
   10.4007  -16.3645   19.5389 C   0  0  0  0  0  0  0  0  0  0  0  0
   10.0088  -17.0278   20.8309 C   0  0  2  0  0  0  0  0  0  0  0  0
    8.7137  -17.6325   20.7799 N   0  0  0  0  0  0  0  0  0  0  0  0
   10.0366  -15.9847   21.8888 C   0  0  0  0  0  0  0  0  0  0  0  0
   11.0256  -15.2084   22.0224 O   0  0  0  0  0  0  0  0  0  0  0  0
    8.9432  -15.8570   22.7584 N   0  0  0  0  0  0  0  0  0  0  0  0
    8.8979  -14.9264   23.8987 C   0  0  1  0  0  0  0  0  0  0  0  0
    7.4746  -14.5013   23.9686 C   0  0  0  0  0  0  0  0  0  0  0  0
    7.0581  -13.6695   25.0779 C   0  0  0  0  0  0  0  0  0  0  0  0
    6.3726  -14.0913   26.1977 C   0  0  0  0  0  0  0  0  0  0  0  0
    6.0243  -13.2431   27.2240 C   0  0  0  0  0  0  0  0  0  0  0  0
    6.3603  -11.9008   27.1633 C   0  0  0  0  0  0  0  0  0  0  0  0
    7.0429  -11.4635   26.0557 C   0  0  0  0  0  0  0  0  0  0  0  0
    7.3890  -12.3187   25.0308 C   0  0  0  0  0  0  0  0  0  0  0  0
    9.3873  -15.6907   25.0702 C   0  0  0  0  0  0  0  0  0  0  0  0
    9.0171  -16.8964   25.2922 O   0  0  0  0  0  0  0  0  0  0  0  0
   13.8368  -18.9863   22.3750 O   0  0  0  0  0  0  0  0  0  0  0  0
   13.4774  -18.2374   23.4623 C   0  0  0  0  0  0  0  0  0  0  0  0
   13.4798  -16.8609   23.4424 C   0  0  0  0  0  0  0  0  0  0  0  0
   13.0990  -16.2153   24.5952 C   0  0  0  0  0  0  0  0  0  0  0  0
   12.7197  -16.8531   25.7567 C   0  0  0  0  0  0  0  0  0  0  0  0
   12.3221  -16.1287   26.9825 C   0  0  0  0  0  0  0  0  0  0  0  0
   10.8452  -15.9974   27.1143 C   0  0  2  0  0  0  0  0  0  0  0  0
   10.2951  -15.1711   26.0360 N   0  0  0  0  0  0  0  0  0  0  0  0
   10.3475  -15.5213   28.4036 C   0  0  0  0  0  0  0  0  0  0  0  0
    9.6764  -14.4343   28.4717 O   0  0  0  0  0  0  0  0  0  0  0  0
   12.7224  -18.2349   25.7609 C   0  0  0  0  0  0  0  0  0  0  0  0
   13.0988  -18.9057   24.6210 C   0  0  0  0  0  0  0  0  0  0  0  0
   10.5356  -16.1555   29.6143 O   0  0  0  0  0  0  0  0  0  0  0  0
  1  2  1  0
  2  3  2  0
  4  5  1  0
  4  2  1  0
  5  6  1  6
  7  9  1  0
  7  5  1  0
  8  7  2  0
 10  9  1  0
 10 11  1  1
 11 12  1  0
 12 17  1  0
 12 13  2  0
 13 14  1  0
 14 15  2  0
 16 15  1  0
 17 16  2  0
 18 27  1  0
 18 10  1  0
 19 18  2  0
 20 21  1  0
 21 31  2  0
 22 21  1  0
 22 23  2  0
 23 24  1  0
 24 30  2  0
 24 25  1  0
 26 25  1  1
 26 28  1  0
 26 27  1  0
 28 32  1  0
 29 28  2  0
 31 30  1  0
M  END
$$$$
