NFY.pdb
     RDKit          3D

 32 33  0  0  1  0  0  0  0  0999 V2000
   10.5760  -17.1309   17.4458 N   0  0  0  0  0  0  0  0  0  0  0  0
   11.0267  -17.4650   18.7384 C   0  0  0  0  0  0  0  0  0  0  0  0
   11.4599  -18.6054   18.9927 O   0  0  0  0  0  0  0  0  0  0  0  0
   10.9861  -16.4503   19.8092 C   0  0  0  0  0  0  0  0  0  0  0  0
   10.1699  -17.0080   20.9431 C   0  0  2  0  0  0  0  0  0  0  0  0
    8.8088  -17.2593   20.5829 N   0  0  0  0  0  0  0  0  0  0  0  0
   10.2235  -16.0211   22.0528 C   0  0  0  0  0  0  0  0  0  0  0  0
   11.2666  -15.3445   22.2826 O   0  0  0  0  0  0  0  0  0  0  0  0
    9.0936  -15.8347   22.8633 N   0  0  0  0  0  0  0  0  0  0  0  0
    9.0566  -14.9488   24.0389 C   0  0  1  0  0  0  0  0  0  0  0  0
    7.6307  -14.5397   24.1447 C   0  0  0  0  0  0  0  0  0  0  0  0
    7.2338  -13.7089   25.2619 C   0  0  0  0  0  0  0  0  0  0  0  0
    7.5208  -12.3695   25.4211 C   0  0  0  0  0  0  0  0  0  0  0  0
    7.0935  -11.6376   26.5055 C   0  0  0  0  0  0  0  0  0  0  0  0
    6.3405  -12.2399   27.4998 C   0  0  0  0  0  0  0  0  0  0  0  0
    6.0455  -13.5728   27.3576 C   0  0  0  0  0  0  0  0  0  0  0  0
    6.4767  -14.3004   26.2684 C   0  0  0  0  0  0  0  0  0  0  0  0
    9.5690  -15.7528   25.1733 C   0  0  0  0  0  0  0  0  0  0  0  0
    9.2067  -16.9671   25.3582 O   0  0  0  0  0  0  0  0  0  0  0  0
   14.5580  -18.2116   22.4529 O   0  0  0  0  0  0  0  0  0  0  0  0
   14.0364  -17.7731   23.6394 C   0  0  0  0  0  0  0  0  0  0  0  0
   13.5266  -18.6353   24.5838 C   0  0  0  0  0  0  0  0  0  0  0  0
   13.0292  -18.0792   25.7387 C   0  0  0  0  0  0  0  0  0  0  0  0
   13.0090  -16.7274   26.0069 C   0  0  0  0  0  0  0  0  0  0  0  0
   12.4601  -16.1606   27.2571 C   0  0  0  0  0  0  0  0  0  0  0  0
   10.9730  -16.0946   27.2493 C   0  0  2  0  0  0  0  0  0  0  0  0
   10.4920  -15.2647   26.1412 N   0  0  0  0  0  0  0  0  0  0  0  0
   10.3346  -15.6728   28.4948 C   0  0  0  0  0  0  0  0  0  0  0  0
   10.5373  -16.3280   29.5748 O   0  0  0  0  0  0  0  0  0  0  0  0
   13.5244  -15.8749   25.0494 C   0  0  0  0  0  0  0  0  0  0  0  0
   14.0285  -16.4048   23.8849 C   0  0  0  0  0  0  0  0  0  0  0  0
    9.4951  -14.5867   28.6324 O   0  0  0  0  0  0  0  0  0  0  0  0
  1  2  1  0
  2  3  2  0
  4  5  1  0
  4  2  1  0
  5  6  1  6
  7  9  1  0
  7  5  1  0
  8  7  2  0
 10  9  1  0
 10 11  1  1
 11 12  1  0
 12 17  1  0
 12 13  2  0
 13 14  1  0
 14 15  2  0
 16 15  1  0
 17 16  2  0
 18 27  1  0
 18 10  1  0
 19 18  2  0
 20 21  1  0
 21 31  2  0
 22 21  1  0
 22 23  2  0
 23 24  1  0
 24 30  2  0
 24 25  1  0
 26 25  1  1
 26 28  1  0
 26 27  1  0
 28 32  1  0
 29 28  2  0
 31 30  1  0
M  END
$$$$
