NFY.pdb
     RDKit          3D

 32 33  0  0  1  0  0  0  0  0999 V2000
   12.2475  -17.7155   17.5535 N   0  0  0  0  0  0  0  0  0  0  0  0
   10.9125  -17.3633   17.8349 C   0  0  0  0  0  0  0  0  0  0  0  0
    9.9638  -17.9295   17.2587 O   0  0  0  0  0  0  0  0  0  0  0  0
   10.6310  -16.3078   18.8274 C   0  0  0  0  0  0  0  0  0  0  0  0
    9.9712  -16.9544   20.0145 C   0  0  2  0  0  0  0  0  0  0  0  0
    8.5982  -17.2816   19.7832 N   0  0  0  0  0  0  0  0  0  0  0  0
   10.0780  -16.0034   21.1513 C   0  0  0  0  0  0  0  0  0  0  0  0
   11.1588  -15.3981   21.4042 O   0  0  0  0  0  0  0  0  0  0  0  0
    8.9567  -15.7709   21.9618 N   0  0  0  0  0  0  0  0  0  0  0  0
    8.9538  -14.8779   23.1326 C   0  0  1  0  0  0  0  0  0  0  0  0
    7.5301  -14.4750   23.2827 C   0  0  0  0  0  0  0  0  0  0  0  0
    7.1627  -13.6546   24.4175 C   0  0  0  0  0  0  0  0  0  0  0  0
    7.4483  -12.3151   24.5786 C   0  0  0  0  0  0  0  0  0  0  0  0
    7.0499  -11.5935   25.6808 C   0  0  0  0  0  0  0  0  0  0  0  0
    6.3292  -12.2068   26.6921 C   0  0  0  0  0  0  0  0  0  0  0  0
    6.0360  -13.5400   26.5482 C   0  0  0  0  0  0  0  0  0  0  0  0
    6.4381  -14.2572   25.4413 C   0  0  0  0  0  0  0  0  0  0  0  0
    9.5072  -15.6723   24.2544 C   0  0  0  0  0  0  0  0  0  0  0  0
    9.3489  -16.9411   24.3257 O   0  0  0  0  0  0  0  0  0  0  0  0
   12.4373  -17.7042   32.3409 O   0  0  0  0  0  0  0  0  0  0  0  0
   12.2314  -17.1116   31.1250 C   0  0  0  0  0  0  0  0  0  0  0  0
   12.8266  -17.5702   29.9714 C   0  0  0  0  0  0  0  0  0  0  0  0
   12.5451  -16.8942   28.8077 C   0  0  0  0  0  0  0  0  0  0  0  0
   11.7137  -15.7980   28.7248 C   0  0  0  0  0  0  0  0  0  0  0  0
   11.4370  -15.0888   27.4575 C   0  0  0  0  0  0  0  0  0  0  0  0
   10.6041  -15.8942   26.5228 C   0  0  2  0  0  0  0  0  0  0  0  0
   10.2513  -15.1150   25.3327 N   0  0  0  0  0  0  0  0  0  0  0  0
    9.4021  -16.5062   27.0860 C   0  0  0  0  0  0  0  0  0  0  0  0
    8.2887  -15.8765   27.0620 O   0  0  0  0  0  0  0  0  0  0  0  0
   11.1237  -15.3498   29.8911 C   0  0  0  0  0  0  0  0  0  0  0  0
   11.3881  -16.0079   31.0692 C   0  0  0  0  0  0  0  0  0  0  0  0
    9.3416  -17.7552   27.6689 O   0  0  0  0  0  0  0  0  0  0  0  0
  1  2  1  0
  2  3  2  0
  4  5  1  0
  4  2  1  0
  5  6  1  6
  7  9  1  0
  7  5  1  0
  8  7  2  0
 10  9  1  0
 10 11  1  1
 11 12  1  0
 12 17  1  0
 12 13  2  0
 13 14  1  0
 14 15  2  0
 16 15  1  0
 17 16  2  0
 18 27  1  0
 18 10  1  0
 19 18  2  0
 20 21  1  0
 21 31  2  0
 22 21  1  0
 22 23  2  0
 23 24  1  0
 24 30  2  0
 24 25  1  0
 26 25  1  1
 26 28  1  0
 26 27  1  0
 28 32  1  0
 29 28  2  0
 31 30  1  0
M  END
$$$$
