NFY.pdb
     RDKit          3D

 32 33  0  0  1  0  0  0  0  0999 V2000
   10.6097  -17.7289   15.6462 N   0  0  0  0  0  0  0  0  0  0  0  0
    9.5020  -17.5748   16.5033 C   0  0  0  0  0  0  0  0  0  0  0  0
    8.4809  -18.2756   16.3655 O   0  0  0  0  0  0  0  0  0  0  0  0
    9.5496  -16.5685   17.5819 C   0  0  0  0  0  0  0  0  0  0  0  0
    9.4760  -17.2966   18.8962 C   0  0  2  0  0  0  0  0  0  0  0  0
    8.2252  -17.9594   19.1002 N   0  0  0  0  0  0  0  0  0  0  0  0
    9.6955  -16.2929   19.9698 C   0  0  0  0  0  0  0  0  0  0  0  0
   10.7296  -15.5657   19.9902 O   0  0  0  0  0  0  0  0  0  0  0  0
    8.7357  -16.1476   20.9827 N   0  0  0  0  0  0  0  0  0  0  0  0
    8.8834  -15.2472   22.1385 C   0  0  1  0  0  0  0  0  0  0  0  0
    7.4876  -14.8841   22.5009 C   0  0  0  0  0  0  0  0  0  0  0  0
    7.2638  -14.1486   23.7276 C   0  0  0  0  0  0  0  0  0  0  0  0
    7.4922  -12.8024   23.9214 C   0  0  0  0  0  0  0  0  0  0  0  0
    7.2384  -12.1659   25.1150 C   0  0  0  0  0  0  0  0  0  0  0  0
    6.7315  -12.8769   26.1901 C   0  0  0  0  0  0  0  0  0  0  0  0
    6.4981  -14.2180   26.0148 C   0  0  0  0  0  0  0  0  0  0  0  0
    6.7544  -14.8498   24.8162 C   0  0  0  0  0  0  0  0  0  0  0  0
    9.6227  -16.0180   23.1657 C   0  0  0  0  0  0  0  0  0  0  0  0
    9.2656  -17.1984   23.5108 O   0  0  0  0  0  0  0  0  0  0  0  0
   10.6382  -16.1665   31.5857 O   0  0  0  0  0  0  0  0  0  0  0  0
   10.5152  -15.8034   30.2723 C   0  0  0  0  0  0  0  0  0  0  0  0
   10.4120  -14.4886   29.8777 C   0  0  0  0  0  0  0  0  0  0  0  0
   10.2930  -14.2447   28.5297 C   0  0  0  0  0  0  0  0  0  0  0  0
   10.2705  -15.2235   27.5597 C   0  0  0  0  0  0  0  0  0  0  0  0
   10.1343  -14.9277   26.1176 C   0  0  0  0  0  0  0  0  0  0  0  0
   11.0034  -15.7922   25.2730 C   0  0  2  0  0  0  0  0  0  0  0  0
   10.7736  -15.5327   23.8490 N   0  0  0  0  0  0  0  0  0  0  0  0
   10.9362  -17.2297   25.5296 C   0  0  0  0  0  0  0  0  0  0  0  0
   11.8644  -17.8080   26.1935 O   0  0  0  0  0  0  0  0  0  0  0  0
   10.3752  -16.5383   27.9714 C   0  0  0  0  0  0  0  0  0  0  0  0
   10.4955  -16.8104   29.3140 C   0  0  0  0  0  0  0  0  0  0  0  0
    9.9244  -18.0681   25.1095 O   0  0  0  0  0  0  0  0  0  0  0  0
  1  2  1  0
  2  3  2  0
  4  5  1  0
  4  2  1  0
  5  6  1  1
  7  9  1  0
  7  5  1  0
  8  7  2  0
 10  9  1  0
 10 11  1  1
 11 12  1  0
 12 17  1  0
 12 13  2  0
 13 14  1  0
 14 15  2  0
 16 15  1  0
 17 16  2  0
 18 27  1  0
 18 10  1  0
 19 18  2  0
 20 21  1  0
 21 31  2  0
 22 21  1  0
 22 23  2  0
 23 24  1  0
 24 30  2  0
 24 25  1  0
 26 25  1  1
 26 28  1  0
 26 27  1  0
 28 32  1  0
 29 28  2  0
 31 30  1  0
M  END
$$$$
