NFY.pdb
     RDKit          3D

 32 33  0  0  1  0  0  0  0  0999 V2000
    9.8540  -18.9283   18.5644 N   0  0  0  0  0  0  0  0  0  0  0  0
   11.1391  -18.5523   19.0035 C   0  0  0  0  0  0  0  0  0  0  0  0
   12.1628  -19.0012   18.4528 O   0  0  0  0  0  0  0  0  0  0  0  0
   11.2773  -17.6123   20.1328 C   0  0  0  0  0  0  0  0  0  0  0  0
    9.8987  -17.3104   20.6537 C   0  0  2  0  0  0  0  0  0  0  0  0
    9.0401  -16.7348   19.6653 N   0  0  0  0  0  0  0  0  0  0  0  0
   10.0538  -16.3715   21.7950 C   0  0  0  0  0  0  0  0  0  0  0  0
   11.1956  -16.0475   22.2308 O   0  0  0  0  0  0  0  0  0  0  0  0
    8.9102  -15.8320   22.4026 N   0  0  0  0  0  0  0  0  0  0  0  0
    8.9404  -14.9182   23.5569 C   0  0  1  0  0  0  0  0  0  0  0  0
    7.5803  -14.3173   23.5844 C   0  0  0  0  0  0  0  0  0  0  0  0
    7.2481  -13.4147   24.6664 C   0  0  0  0  0  0  0  0  0  0  0  0
    7.6513  -12.1009   24.7819 C   0  0  0  0  0  0  0  0  0  0  0  0
    7.2803  -11.2953   25.8342 C   0  0  0  0  0  0  0  0  0  0  0  0
    6.4674  -11.7922   26.8395 C   0  0  0  0  0  0  0  0  0  0  0  0
    6.0566  -13.0981   26.7407 C   0  0  0  0  0  0  0  0  0  0  0  0
    6.4319  -13.9000   25.6835 C   0  0  0  0  0  0  0  0  0  0  0  0
    9.2858  -15.7536   24.7311 C   0  0  0  0  0  0  0  0  0  0  0  0
    9.0365  -17.0094   24.7630 O   0  0  0  0  0  0  0  0  0  0  0  0
   13.6087  -20.2339   30.5977 O   0  0  0  0  0  0  0  0  0  0  0  0
   13.1856  -19.3104   29.6811 C   0  0  0  0  0  0  0  0  0  0  0  0
   13.4081  -17.9609   29.8379 C   0  0  0  0  0  0  0  0  0  0  0  0
   12.9367  -17.1277   28.8509 C   0  0  0  0  0  0  0  0  0  0  0  0
   12.2624  -17.5543   27.7271 C   0  0  0  0  0  0  0  0  0  0  0  0
   11.7620  -16.6307   26.6868 C   0  0  0  0  0  0  0  0  0  0  0  0
   10.3878  -16.1364   26.9754 C   0  0  2  0  0  0  0  0  0  0  0  0
    9.9144  -15.2528   25.9063 N   0  0  0  0  0  0  0  0  0  0  0  0
   10.1877  -15.4926   28.2725 C   0  0  0  0  0  0  0  0  0  0  0  0
    9.8198  -16.1848   29.2835 O   0  0  0  0  0  0  0  0  0  0  0  0
   12.0469  -18.9117   27.5839 C   0  0  0  0  0  0  0  0  0  0  0  0
   12.5082  -19.7675   28.5564 C   0  0  0  0  0  0  0  0  0  0  0  0
   10.3644  -14.1491   28.5313 O   0  0  0  0  0  0  0  0  0  0  0  0
  1  2  1  0
  2  3  2  0
  4  5  1  0
  4  2  1  0
  5  6  1  6
  7  9  1  0
  7  5  1  0
  8  7  2  0
 10  9  1  0
 10 11  1  1
 11 12  1  0
 12 17  1  0
 12 13  2  0
 13 14  1  0
 14 15  2  0
 16 15  1  0
 17 16  2  0
 18 27  1  0
 18 10  1  0
 19 18  2  0
 20 21  1  0
 21 31  2  0
 22 21  1  0
 22 23  2  0
 23 24  1  0
 24 30  2  0
 24 25  1  0
 26 25  1  6
 26 28  1  0
 26 27  1  0
 28 32  1  0
 29 28  2  0
 31 30  1  0
M  END
$$$$
