NFY.pdb
     RDKit          3D

 32 33  0  0  1  0  0  0  0  0999 V2000
    8.8479  -16.8365   16.1950 N   0  0  0  0  0  0  0  0  0  0  0  0
    9.8190  -17.1822   17.1558 C   0  0  0  0  0  0  0  0  0  0  0  0
   10.4724  -18.2387   17.0573 O   0  0  0  0  0  0  0  0  0  0  0  0
   10.0679  -16.2805   18.2974 C   0  0  0  0  0  0  0  0  0  0  0  0
    9.6641  -17.0033   19.5533 C   0  0  2  0  0  0  0  0  0  0  0  0
    8.3210  -17.4930   19.5107 N   0  0  0  0  0  0  0  0  0  0  0  0
    9.8165  -16.0478   20.6810 C   0  0  0  0  0  0  0  0  0  0  0  0
   10.8952  -15.4149   20.8667 O   0  0  0  0  0  0  0  0  0  0  0  0
    8.7417  -15.8421   21.5589 N   0  0  0  0  0  0  0  0  0  0  0  0
    8.7736  -14.9141   22.7017 C   0  0  1  0  0  0  0  0  0  0  0  0
    7.3571  -14.4951   22.8734 C   0  0  0  0  0  0  0  0  0  0  0  0
    6.9980  -13.7526   24.0632 C   0  0  0  0  0  0  0  0  0  0  0  0
    6.3538  -14.2578   25.1730 C   0  0  0  0  0  0  0  0  0  0  0  0
    6.0596  -13.4929   26.2787 C   0  0  0  0  0  0  0  0  0  0  0  0
    6.4107  -12.1535   26.3131 C   0  0  0  0  0  0  0  0  0  0  0  0
    7.0526  -11.6340   25.2168 C   0  0  0  0  0  0  0  0  0  0  0  0
    7.3446  -12.4059   24.1121 C   0  0  0  0  0  0  0  0  0  0  0  0
    9.3478  -15.6788   23.8337 C   0  0  0  0  0  0  0  0  0  0  0  0
    9.1126  -16.9275   23.9933 O   0  0  0  0  0  0  0  0  0  0  0  0
   12.1597  -17.4146   31.9793 O   0  0  0  0  0  0  0  0  0  0  0  0
   11.8934  -16.7608   30.8072 C   0  0  0  0  0  0  0  0  0  0  0  0
   11.0984  -15.6381   30.7537 C   0  0  0  0  0  0  0  0  0  0  0  0
   10.9015  -15.0660   29.5190 C   0  0  0  0  0  0  0  0  0  0  0  0
   11.4440  -15.5412   28.3445 C   0  0  0  0  0  0  0  0  0  0  0  0
   11.2069  -14.9059   27.0308 C   0  0  0  0  0  0  0  0  0  0  0  0
   10.5099  -15.8112   26.0765 C   0  0  2  0  0  0  0  0  0  0  0  0
   10.1968  -15.1128   24.8267 N   0  0  0  0  0  0  0  0  0  0  0  0
    9.3143  -16.4870   26.5769 C   0  0  0  0  0  0  0  0  0  0  0  0
    8.1719  -15.9170   26.4943 O   0  0  0  0  0  0  0  0  0  0  0  0
   12.2398  -16.6686   28.4145 C   0  0  0  0  0  0  0  0  0  0  0  0
   12.4533  -17.2607   29.6371 C   0  0  0  0  0  0  0  0  0  0  0  0
    9.2897  -17.7385   27.1570 O   0  0  0  0  0  0  0  0  0  0  0  0
  1  2  1  0
  2  3  2  0
  4  5  1  0
  4  2  1  0
  5  6  1  6
  7  9  1  0
  7  5  1  0
  8  7  2  0
 10  9  1  0
 10 11  1  1
 11 12  1  0
 12 17  1  0
 12 13  2  0
 13 14  1  0
 14 15  2  0
 16 15  1  0
 17 16  2  0
 18 27  1  0
 18 10  1  0
 19 18  2  0
 20 21  1  0
 21 31  2  0
 22 21  1  0
 22 23  2  0
 23 24  1  0
 24 30  2  0
 24 25  1  0
 26 25  1  1
 26 28  1  0
 26 27  1  0
 28 32  1  0
 29 28  2  0
 31 30  1  0
M  END
$$$$
