NFY.pdb
     RDKit          3D

 32 33  0  0  1  0  0  0  0  0999 V2000
   10.0775  -19.6200   19.7900 N   0  0  0  0  0  0  0  0  0  0  0  0
   10.9197  -18.5460   19.4395 C   0  0  0  0  0  0  0  0  0  0  0  0
   11.5452  -18.5455   18.3618 O   0  0  0  0  0  0  0  0  0  0  0  0
   11.0646  -17.4027   20.3614 C   0  0  0  0  0  0  0  0  0  0  0  0
    9.7044  -17.0839   20.9192 C   0  0  2  0  0  0  0  0  0  0  0  0
    8.8044  -16.5627   19.9374 N   0  0  0  0  0  0  0  0  0  0  0  0
    9.8951  -16.0893   22.0065 C   0  0  0  0  0  0  0  0  0  0  0  0
   10.9527  -15.4017   22.0921 O   0  0  0  0  0  0  0  0  0  0  0  0
    8.8810  -15.9077   22.9589 N   0  0  0  0  0  0  0  0  0  0  0  0
    8.9646  -14.9636   24.0858 C   0  0  1  0  0  0  0  0  0  0  0  0
    7.5665  -14.4931   24.2743 C   0  0  0  0  0  0  0  0  0  0  0  0
    7.2849  -13.5937   25.3732 C   0  0  0  0  0  0  0  0  0  0  0  0
    7.7157  -12.2886   25.4864 C   0  0  0  0  0  0  0  0  0  0  0  0
    7.3926  -11.4853   26.5561 C   0  0  0  0  0  0  0  0  0  0  0  0
    6.6023  -11.9757   27.5824 C   0  0  0  0  0  0  0  0  0  0  0  0
    6.1645  -13.2730   27.4861 C   0  0  0  0  0  0  0  0  0  0  0  0
    6.4917  -14.0727   26.4114 C   0  0  0  0  0  0  0  0  0  0  0  0
    9.5317  -15.7299   25.2203 C   0  0  0  0  0  0  0  0  0  0  0  0
    9.1450  -16.9203   25.4913 O   0  0  0  0  0  0  0  0  0  0  0  0
   13.8938  -19.1301   22.3984 O   0  0  0  0  0  0  0  0  0  0  0  0
   13.5812  -18.3656   23.4892 C   0  0  0  0  0  0  0  0  0  0  0  0
   13.6409  -16.9904   23.4669 C   0  0  0  0  0  0  0  0  0  0  0  0
   13.3036  -16.3281   24.6236 C   0  0  0  0  0  0  0  0  0  0  0  0
   12.9141  -16.9481   25.7914 C   0  0  0  0  0  0  0  0  0  0  0  0
   12.5643  -16.2061   27.0213 C   0  0  0  0  0  0  0  0  0  0  0  0
   11.0949  -16.0338   27.1855 C   0  0  2  0  0  0  0  0  0  0  0  0
   10.5374  -15.2291   26.0948 N   0  0  0  0  0  0  0  0  0  0  0  0
   10.6422  -15.5041   28.4705 C   0  0  0  0  0  0  0  0  0  0  0  0
   10.9507  -16.1041   29.5575 O   0  0  0  0  0  0  0  0  0  0  0  0
   12.8590  -18.3287   25.7980 C   0  0  0  0  0  0  0  0  0  0  0  0
   13.1911  -19.0161   24.6542 C   0  0  0  0  0  0  0  0  0  0  0  0
    9.8795  -14.3670   28.6401 O   0  0  0  0  0  0  0  0  0  0  0  0
  1  2  1  0
  2  3  2  0
  4  5  1  0
  4  2  1  0
  5  6  1  6
  7  9  1  0
  7  5  1  0
  8  7  2  0
 10  9  1  0
 10 11  1  1
 11 12  1  0
 12 17  1  0
 12 13  2  0
 13 14  1  0
 14 15  2  0
 16 15  1  0
 17 16  2  0
 18 27  1  0
 18 10  1  0
 19 18  2  0
 20 21  1  0
 21 31  2  0
 22 21  1  0
 22 23  2  0
 23 24  1  0
 24 30  2  0
 24 25  1  0
 26 25  1  1
 26 28  1  0
 26 27  1  0
 28 32  1  0
 29 28  2  0
 31 30  1  0
M  END
$$$$
