IWQ.pdb
     RDKit          3D

 32 33  0  0  1  0  0  0  0  0999 V2000
    7.8759  -15.9196   17.1144 C   0  0  0  0  0  0  0  0  0  0  0  0
    7.0121  -15.6694   18.3328 C   0  0  0  0  0  0  0  0  0  0  0  0
    7.8983  -15.4797   19.5117 C   0  0  2  0  0  0  0  0  0  0  0  0
    8.9449  -16.5591   19.5426 C   0  0  0  0  0  0  0  0  0  0  0  0
    7.1654  -15.3499   20.8219 C   0  0  2  0  0  0  0  0  0  0  0  0
    6.1977  -14.2794   20.6535 N   0  0  0  0  0  0  0  0  0  0  0  0
    8.0360  -15.1513   21.9714 C   0  0  0  0  0  0  0  0  0  0  0  0
    8.6654  -14.0846   22.1188 O   0  0  0  0  0  0  0  0  0  0  0  0
    8.1854  -16.1643   22.9449 N   0  0  0  0  0  0  0  0  0  0  0  0
    9.0579  -16.0425   24.0934 C   0  0  1  0  0  0  0  0  0  0  0  0
    8.3054  -16.3050   25.3658 C   0  0  0  0  0  0  0  0  0  0  0  0
    7.2641  -15.2731   25.6012 C   0  0  0  0  0  0  0  0  0  0  0  0
    5.8933  -15.3696   25.4916 C   0  0  0  0  0  0  0  0  0  0  0  0
    5.3282  -14.1820   25.8002 N   0  0  0  0  0  0  0  0  0  0  0  0
    6.2848  -13.2881   26.1147 C   0  0  0  0  0  0  0  0  0  0  0  0
    6.2066  -11.9661   26.4917 C   0  0  0  0  0  0  0  0  0  0  0  0
    7.3876  -11.3102   26.7519 C   0  0  0  0  0  0  0  0  0  0  0  0
    8.6171  -11.9646   26.6366 C   0  0  0  0  0  0  0  0  0  0  0  0
    8.6510  -13.2814   26.2585 C   0  0  0  0  0  0  0  0  0  0  0  0
    7.4989  -13.9593   25.9938 C   0  0  0  0  0  0  0  0  0  0  0  0
   10.1621  -17.0567   23.9977 C   0  0  0  0  0  0  0  0  0  0  0  0
    9.9099  -18.2449   23.6777 O   0  0  0  0  0  0  0  0  0  0  0  0
   15.1811  -15.9860   21.3334 N   0  0  0  0  0  0  0  0  0  0  0  0
   15.4021  -15.5554   22.6946 C   0  0  0  0  0  0  0  0  0  0  0  0
   16.4291  -14.8698   22.9149 O   0  0  0  0  0  0  0  0  0  0  0  0
   14.3995  -15.9600   23.6981 C   0  0  0  0  0  0  0  0  0  0  0  0
   13.6636  -17.1848   23.2700 C   0  0  0  0  0  0  0  0  0  0  0  0
   12.6139  -17.6770   24.2245 C   0  0  2  0  0  0  0  0  0  0  0  0
   11.5019  -16.7201   24.2595 N   0  0  0  0  0  0  0  0  0  0  0  0
   13.1665  -17.8809   25.5849 C   0  0  0  0  0  0  0  0  0  0  0  0
   13.4055  -16.8200   26.4260 O   0  0  0  0  0  0  0  0  0  0  0  0
   13.4163  -19.0406   25.9652 O   0  0  0  0  0  0  0  0  0  0  0  0
  2  1  1  0
  3  4  1  1
  3  2  1  0
  5  3  1  0
  5  6  1  6
  7  5  1  0
  7  8  2  0
  9  7  1  0
 10  9  1  0
 10 11  1  1
 12 11  1  0
 13 12  2  0
 14 13  1  0
 15 14  1  0
 15 20  2  0
 16 15  1  0
 17 16  2  0
 17 18  1  0
 18 19  2  0
 19 20  1  0
 20 12  1  0
 21 10  1  0
 22 21  2  0
 23 24  1  0
 24 25  2  0
 24 26  1  0
 26 27  1  0
 28 29  1  0
 28 27  1  6
 29 21  1  0
 30 28  1  0
 31 30  1  0
 32 30  2  0
M  END
$$$$
