IWQ.pdb
     RDKit          3D

 32 33  0  0  1  0  0  0  0  0999 V2000
    6.5322  -12.6593   19.0656 C   0  0  0  0  0  0  0  0  0  0  0  0
    6.9641  -14.0642   19.4300 C   0  0  0  0  0  0  0  0  0  0  0  0
    7.8943  -13.9892   20.5877 C   0  0  2  0  0  0  0  0  0  0  0  0
    9.0097  -13.0269   20.2850 C   0  0  0  0  0  0  0  0  0  0  0  0
    8.4004  -15.3269   21.0622 C   0  0  2  0  0  0  0  0  0  0  0  0
    7.2460  -16.2059   21.1376 N   0  0  0  0  0  0  0  0  0  0  0  0
    9.1512  -15.2693   22.3079 C   0  0  0  0  0  0  0  0  0  0  0  0
   10.1664  -14.5517   22.4087 O   0  0  0  0  0  0  0  0  0  0  0  0
    8.7442  -16.0260   23.4294 N   0  0  0  0  0  0  0  0  0  0  0  0
    9.4863  -16.0711   24.6714 C   0  0  1  0  0  0  0  0  0  0  0  0
    8.5720  -16.3468   25.8299 C   0  0  0  0  0  0  0  0  0  0  0  0
    7.4363  -15.3908   25.8622 C   0  0  0  0  0  0  0  0  0  0  0  0
    6.1185  -15.5825   25.5061 C   0  0  0  0  0  0  0  0  0  0  0  0
    5.4257  -14.4382   25.6954 N   0  0  0  0  0  0  0  0  0  0  0  0
    6.2449  -13.4808   26.1703 C   0  0  0  0  0  0  0  0  0  0  0  0
    6.0080  -12.1687   26.5143 C   0  0  0  0  0  0  0  0  0  0  0  0
    7.0735  -11.4328   26.9788 C   0  0  0  0  0  0  0  0  0  0  0  0
    8.3458  -11.9995   27.0953 C   0  0  0  0  0  0  0  0  0  0  0  0
    8.5391  -13.3094   26.7421 C   0  0  0  0  0  0  0  0  0  0  0  0
    7.5042  -14.0652   26.2786 C   0  0  0  0  0  0  0  0  0  0  0  0
   10.4986  -17.1795   24.6140 C   0  0  0  0  0  0  0  0  0  0  0  0
   10.1282  -18.3780   24.5470 O   0  0  0  0  0  0  0  0  0  0  0  0
   16.5024  -16.1543   23.5826 N   0  0  0  0  0  0  0  0  0  0  0  0
   15.4298  -15.9744   22.6316 C   0  0  0  0  0  0  0  0  0  0  0  0
   15.6895  -15.3098   21.6000 O   0  0  0  0  0  0  0  0  0  0  0  0
   14.1303  -16.5899   22.9607 C   0  0  0  0  0  0  0  0  0  0  0  0
   14.2147  -17.4091   24.2043 C   0  0  0  0  0  0  0  0  0  0  0  0
   12.9119  -17.9640   24.7045 C   0  0  2  0  0  0  0  0  0  0  0  0
   11.8808  -16.9224   24.6335 N   0  0  0  0  0  0  0  0  0  0  0  0
   13.0347  -18.4797   26.0889 C   0  0  0  0  0  0  0  0  0  0  0  0
   13.8430  -19.5521   26.3834 O   0  0  0  0  0  0  0  0  0  0  0  0
   12.3886  -17.9239   26.9975 O   0  0  0  0  0  0  0  0  0  0  0  0
  2  1  1  0
  3  4  1  6
  3  2  1  0
  5  3  1  0
  5  6  1  1
  7  5  1  0
  7  8  2  0
  9  7  1  0
 10  9  1  0
 10 11  1  1
 12 11  1  0
 13 12  2  0
 14 13  1  0
 15 14  1  0
 15 20  2  0
 16 15  1  0
 17 16  2  0
 17 18  1  0
 18 19  2  0
 19 20  1  0
 20 12  1  0
 21 10  1  0
 22 21  2  0
 23 24  1  0
 24 25  2  0
 24 26  1  0
 26 27  1  0
 28 29  1  0
 28 27  1  1
 29 21  1  0
 30 28  1  0
 31 30  1  0
 32 30  2  0
M  END
$$$$
