IWQ.pdb
     RDKit          3D

 32 33  0  0  1  0  0  0  0  0999 V2000
   10.1287  -19.3011   17.8237 C   0  0  0  0  0  0  0  0  0  0  0  0
   11.4398  -18.8712   18.4479 C   0  0  0  0  0  0  0  0  0  0  0  0
   11.1565  -18.2629   19.7748 C   0  0  2  0  0  0  0  0  0  0  0  0
   10.6408  -19.3139   20.7188 C   0  0  0  0  0  0  0  0  0  0  0  0
   10.2652  -17.0492   19.7212 C   0  0  2  0  0  0  0  0  0  0  0  0
   10.8170  -16.1719   18.7030 N   0  0  0  0  0  0  0  0  0  0  0  0
   10.0877  -16.3863   21.0049 C   0  0  0  0  0  0  0  0  0  0  0  0
   11.0716  -15.9800   21.6550 O   0  0  0  0  0  0  0  0  0  0  0  0
    8.7955  -16.1894   21.5410 N   0  0  0  0  0  0  0  0  0  0  0  0
    8.5555  -15.7128   22.8865 C   0  0  1  0  0  0  0  0  0  0  0  0
    7.0993  -15.4126   23.0949 C   0  0  0  0  0  0  0  0  0  0  0  0
    6.8146  -15.0716   24.5117 C   0  0  0  0  0  0  0  0  0  0  0  0
    6.3177  -15.8668   25.5222 C   0  0  0  0  0  0  0  0  0  0  0  0
    6.2157  -15.1452   26.6597 N   0  0  0  0  0  0  0  0  0  0  0  0
    6.6318  -13.8835   26.4399 C   0  0  0  0  0  0  0  0  0  0  0  0
    6.7154  -12.7939   27.2774 C   0  0  0  0  0  0  0  0  0  0  0  0
    7.1923  -11.6191   26.7435 C   0  0  0  0  0  0  0  0  0  0  0  0
    7.5759  -11.5394   25.4019 C   0  0  0  0  0  0  0  0  0  0  0  0
    7.4769  -12.6476   24.6019 C   0  0  0  0  0  0  0  0  0  0  0  0
    7.0086  -13.8262   25.1005 C   0  0  0  0  0  0  0  0  0  0  0  0
    8.9498  -16.7732   23.8749 C   0  0  0  0  0  0  0  0  0  0  0  0
    8.7614  -17.9878   23.6156 O   0  0  0  0  0  0  0  0  0  0  0  0
   14.0545  -19.0484   23.3444 N   0  0  0  0  0  0  0  0  0  0  0  0
   14.0825  -18.0323   24.3710 C   0  0  0  0  0  0  0  0  0  0  0  0
   15.0462  -17.2298   24.3511 O   0  0  0  0  0  0  0  0  0  0  0  0
   12.9752  -18.0318   25.3456 C   0  0  0  0  0  0  0  0  0  0  0  0
   11.7914  -17.2888   24.8249 C   0  0  0  0  0  0  0  0  0  0  0  0
   10.6054  -17.2329   25.7445 C   0  0  2  0  0  0  0  0  0  0  0  0
    9.5363  -16.4519   25.1118 N   0  0  0  0  0  0  0  0  0  0  0  0
   10.9631  -16.6525   27.0608 C   0  0  0  0  0  0  0  0  0  0  0  0
   10.3391  -17.0611   28.2158 O   0  0  0  0  0  0  0  0  0  0  0  0
   11.8481  -15.7773   27.1120 O   0  0  0  0  0  0  0  0  0  0  0  0
  2  1  1  0
  3  4  1  1
  3  2  1  0
  5  3  1  0
  5  6  1  6
  7  5  1  0
  7  8  2  0
  9  7  1  0
 10  9  1  0
 10 11  1  6
 12 11  1  0
 13 12  2  0
 14 13  1  0
 15 14  1  0
 15 20  2  0
 16 15  1  0
 17 16  2  0
 17 18  1  0
 18 19  2  0
 19 20  1  0
 20 12  1  0
 21 10  1  0
 22 21  2  0
 23 24  1  0
 24 25  2  0
 24 26  1  0
 26 27  1  0
 28 29  1  0
 28 27  1  6
 29 21  1  0
 30 28  1  0
 31 30  1  0
 32 30  2  0
M  END
$$$$
