IWQ.pdb
     RDKit          3D

 32 33  0  0  1  0  0  0  0  0999 V2000
    6.8161  -12.3262   18.8714 C   0  0  0  0  0  0  0  0  0  0  0  0
    7.0018  -13.7667   19.2999 C   0  0  0  0  0  0  0  0  0  0  0  0
    8.0345  -13.8144   20.3687 C   0  0  2  0  0  0  0  0  0  0  0  0
    9.2387  -13.0161   19.9510 C   0  0  0  0  0  0  0  0  0  0  0  0
    8.3941  -15.2064   20.8197 C   0  0  2  0  0  0  0  0  0  0  0  0
    7.1418  -15.9090   21.0408 N   0  0  0  0  0  0  0  0  0  0  0  0
    9.2778  -15.2458   21.9757 C   0  0  0  0  0  0  0  0  0  0  0  0
   10.4254  -14.7604   21.9188 O   0  0  0  0  0  0  0  0  0  0  0  0
    8.8526  -15.8352   23.1872 N   0  0  0  0  0  0  0  0  0  0  0  0
    9.6243  -15.7857   24.4108 C   0  0  1  0  0  0  0  0  0  0  0  0
    8.7747  -16.1526   25.5931 C   0  0  0  0  0  0  0  0  0  0  0  0
    7.5889  -15.2659   25.7032 C   0  0  0  0  0  0  0  0  0  0  0  0
    6.2571  -15.5525   25.4926 C   0  0  0  0  0  0  0  0  0  0  0  0
    5.5146  -14.4442   25.7055 N   0  0  0  0  0  0  0  0  0  0  0  0
    6.3140  -13.4182   26.0543 C   0  0  0  0  0  0  0  0  0  0  0  0
    6.0289  -12.1079   26.3671 C   0  0  0  0  0  0  0  0  0  0  0  0
    7.0860  -11.2886   26.6892 C   0  0  0  0  0  0  0  0  0  0  0  0
    8.3974  -11.7720   26.6971 C   0  0  0  0  0  0  0  0  0  0  0  0
    8.6382  -13.0832   26.3795 C   0  0  0  0  0  0  0  0  0  0  0  0
    7.6128  -13.9205   26.0561 C   0  0  0  0  0  0  0  0  0  0  0  0
   10.7536  -16.7735   24.3352 C   0  0  0  0  0  0  0  0  0  0  0  0
   10.5190  -18.0011   24.2085 O   0  0  0  0  0  0  0  0  0  0  0  0
   18.0308  -16.5679   23.4390 N   0  0  0  0  0  0  0  0  0  0  0  0
   16.7130  -16.4832   22.8529 C   0  0  0  0  0  0  0  0  0  0  0  0
   16.5768  -15.7200   21.8669 O   0  0  0  0  0  0  0  0  0  0  0  0
   15.6512  -17.3028   23.4666 C   0  0  0  0  0  0  0  0  0  0  0  0
   14.3891  -16.5252   23.6312 C   0  0  0  0  0  0  0  0  0  0  0  0
   13.2412  -17.2748   24.2441 C   0  0  2  0  0  0  0  0  0  0  0  0
   12.0982  -16.3683   24.4029 N   0  0  0  0  0  0  0  0  0  0  0  0
   13.6147  -17.8729   25.5481 C   0  0  0  0  0  0  0  0  0  0  0  0
   14.3865  -19.0084   25.6191 O   0  0  0  0  0  0  0  0  0  0  0  0
   13.2167  -17.3287   26.5957 O   0  0  0  0  0  0  0  0  0  0  0  0
  2  1  1  0
  3  4  1  6
  3  2  1  0
  5  3  1  0
  5  6  1  1
  7  5  1  0
  7  8  2  0
  9  7  1  0
 10  9  1  0
 10 11  1  1
 12 11  1  0
 13 12  2  0
 14 13  1  0
 15 14  1  0
 15 20  2  0
 16 15  1  0
 17 16  2  0
 17 18  1  0
 18 19  2  0
 19 20  1  0
 20 12  1  0
 21 10  1  0
 22 21  2  0
 23 24  1  0
 24 25  2  0
 24 26  1  0
 26 27  1  0
 28 29  1  0
 28 27  1  1
 29 21  1  0
 30 28  1  0
 31 30  1  0
 32 30  2  0
M  END
$$$$
