IWQ.pdb
     RDKit          3D

 32 33  0  0  1  0  0  0  0  0999 V2000
    7.4337  -12.6389   18.2972 C   0  0  0  0  0  0  0  0  0  0  0  0
    6.8043  -13.5289   19.3484 C   0  0  0  0  0  0  0  0  0  0  0  0
    7.8789  -14.3175   20.0075 C   0  0  2  0  0  0  0  0  0  0  0  0
    8.6622  -15.0776   18.9729 C   0  0  0  0  0  0  0  0  0  0  0  0
    7.3983  -15.2005   21.1300 C   0  0  2  0  0  0  0  0  0  0  0  0
    5.9561  -15.0387   21.1988 N   0  0  0  0  0  0  0  0  0  0  0  0
    8.0578  -14.9527   22.4037 C   0  0  0  0  0  0  0  0  0  0  0  0
    8.2374  -13.7884   22.8137 O   0  0  0  0  0  0  0  0  0  0  0  0
    8.5083  -16.0275   23.2023 N   0  0  0  0  0  0  0  0  0  0  0  0
    9.4298  -15.8672   24.3070 C   0  0  1  0  0  0  0  0  0  0  0  0
    8.7749  -16.2366   25.6065 C   0  0  0  0  0  0  0  0  0  0  0  0
    7.6703  -15.3022   25.9405 C   0  0  0  0  0  0  0  0  0  0  0  0
    6.3073  -15.5023   25.8910 C   0  0  0  0  0  0  0  0  0  0  0  0
    5.6686  -14.3783   26.2830 N   0  0  0  0  0  0  0  0  0  0  0  0
    6.5681  -13.4262   26.5952 C   0  0  0  0  0  0  0  0  0  0  0  0
    6.4074  -12.1328   27.0392 C   0  0  0  0  0  0  0  0  0  0  0  0
    7.5459  -11.3974   27.2751 C   0  0  0  0  0  0  0  0  0  0  0  0
    8.8149  -11.9463   27.0705 C   0  0  0  0  0  0  0  0  0  0  0  0
    8.9310  -13.2380   26.6277 C   0  0  0  0  0  0  0  0  0  0  0  0
    7.8227  -13.9928   26.3849 C   0  0  0  0  0  0  0  0  0  0  0  0
   10.6101  -16.7766   24.1152 C   0  0  0  0  0  0  0  0  0  0  0  0
   10.4411  -17.9940   23.8558 O   0  0  0  0  0  0  0  0  0  0  0  0
   15.6972  -14.4557   21.8001 N   0  0  0  0  0  0  0  0  0  0  0  0
   16.2907  -15.7252   22.1511 C   0  0  0  0  0  0  0  0  0  0  0  0
   17.5030  -15.8835   21.8709 O   0  0  0  0  0  0  0  0  0  0  0  0
   15.4172  -16.7163   22.8075 C   0  0  0  0  0  0  0  0  0  0  0  0
   14.0602  -16.1565   23.0714 C   0  0  0  0  0  0  0  0  0  0  0  0
   13.1119  -17.0692   23.7947 C   0  0  2  0  0  0  0  0  0  0  0  0
   11.9315  -16.3071   24.2177 N   0  0  0  0  0  0  0  0  0  0  0  0
   13.7595  -17.7141   24.9619 C   0  0  0  0  0  0  0  0  0  0  0  0
   14.6168  -18.7776   24.8068 O   0  0  0  0  0  0  0  0  0  0  0  0
   13.5160  -17.2768   26.1027 O   0  0  0  0  0  0  0  0  0  0  0  0
  2  1  1  0
  3  4  1  6
  3  2  1  0
  5  3  1  0
  5  6  1  1
  7  5  1  0
  7  8  2  0
  9  7  1  0
 10  9  1  0
 10 11  1  1
 12 11  1  0
 13 12  2  0
 14 13  1  0
 15 14  1  0
 15 20  2  0
 16 15  1  0
 17 16  2  0
 17 18  1  0
 18 19  2  0
 19 20  1  0
 20 12  1  0
 21 10  1  0
 22 21  2  0
 23 24  1  0
 24 25  2  0
 24 26  1  0
 26 27  1  0
 28 29  1  0
 28 27  1  1
 29 21  1  0
 30 28  1  0
 31 30  1  0
 32 30  2  0
M  END
$$$$
