IWQ.pdb
     RDKit          3D

 32 33  0  0  1  0  0  0  0  0999 V2000
    7.1936  -12.2819   20.0289 C   0  0  0  0  0  0  0  0  0  0  0  0
    7.3881  -13.5401   20.8489 C   0  0  0  0  0  0  0  0  0  0  0  0
    8.0558  -14.5615   19.9992 C   0  0  2  0  0  0  0  0  0  0  0  0
    7.2565  -14.7839   18.7449 C   0  0  0  0  0  0  0  0  0  0  0  0
    8.3751  -15.8486   20.7148 C   0  0  2  0  0  0  0  0  0  0  0  0
    7.1037  -16.4828   21.0181 N   0  0  0  0  0  0  0  0  0  0  0  0
    9.2193  -15.6811   21.8886 C   0  0  0  0  0  0  0  0  0  0  0  0
   10.3585  -15.1827   21.7899 O   0  0  0  0  0  0  0  0  0  0  0  0
    8.7646  -16.0801   23.1653 N   0  0  0  0  0  0  0  0  0  0  0  0
    9.5624  -15.9630   24.3674 C   0  0  1  0  0  0  0  0  0  0  0  0
    8.7285  -16.2207   25.5890 C   0  0  0  0  0  0  0  0  0  0  0  0
    7.6008  -15.2597   25.6867 C   0  0  0  0  0  0  0  0  0  0  0  0
    6.2580  -15.4560   25.4443 C   0  0  0  0  0  0  0  0  0  0  0  0
    5.5849  -14.3043   25.6572 N   0  0  0  0  0  0  0  0  0  0  0  0
    6.4415  -13.3372   26.0369 C   0  0  0  0  0  0  0  0  0  0  0  0
    6.2356  -12.0152   26.3621 C   0  0  0  0  0  0  0  0  0  0  0  0
    7.3366  -11.2709   26.7177 C   0  0  0  0  0  0  0  0  0  0  0  0
    8.6132  -11.8390   26.7462 C   0  0  0  0  0  0  0  0  0  0  0  0
    8.7749  -13.1590   26.4153 C   0  0  0  0  0  0  0  0  0  0  0  0
    7.7045  -13.9233   26.0588 C   0  0  0  0  0  0  0  0  0  0  0  0
   10.6645  -16.9836   24.3425 C   0  0  0  0  0  0  0  0  0  0  0  0
   10.4648  -18.1254   23.8583 O   0  0  0  0  0  0  0  0  0  0  0  0
   17.6705  -17.0438   23.3541 N   0  0  0  0  0  0  0  0  0  0  0  0
   16.3439  -16.4872   23.2218 C   0  0  0  0  0  0  0  0  0  0  0  0
   16.2639  -15.2780   22.8979 O   0  0  0  0  0  0  0  0  0  0  0  0
   15.2074  -17.3919   23.4780 C   0  0  0  0  0  0  0  0  0  0  0  0
   14.3449  -16.8839   24.5837 C   0  0  0  0  0  0  0  0  0  0  0  0
   13.0705  -17.6446   24.8135 C   0  0  2  0  0  0  0  0  0  0  0  0
   11.9443  -16.7048   24.8538 N   0  0  0  0  0  0  0  0  0  0  0  0
   13.1281  -18.4400   26.0631 C   0  0  0  0  0  0  0  0  0  0  0  0
   13.9933  -19.5001   26.1966 O   0  0  0  0  0  0  0  0  0  0  0  0
   12.3736  -18.1345   27.0061 O   0  0  0  0  0  0  0  0  0  0  0  0
  2  1  1  0
  3  4  1  6
  3  2  1  0
  5  3  1  0
  5  6  1  1
  7  5  1  0
  7  8  2  0
  9  7  1  0
 10  9  1  0
 10 11  1  1
 12 11  1  0
 13 12  2  0
 14 13  1  0
 15 14  1  0
 15 20  2  0
 16 15  1  0
 17 16  2  0
 17 18  1  0
 18 19  2  0
 19 20  1  0
 20 12  1  0
 21 10  1  0
 22 21  2  0
 23 24  1  0
 24 25  2  0
 24 26  1  0
 26 27  1  0
 28 29  1  0
 28 27  1  1
 29 21  1  0
 30 28  1  0
 31 30  1  0
 32 30  2  0
M  END
$$$$
