IWQ.pdb
     RDKit          3D

 32 33  0  0  1  0  0  0  0  0999 V2000
    6.7211  -12.2084   19.1565 C   0  0  0  0  0  0  0  0  0  0  0  0
    6.9741  -13.6755   19.4340 C   0  0  0  0  0  0  0  0  0  0  0  0
    7.9626  -13.7856   20.5393 C   0  0  2  0  0  0  0  0  0  0  0  0
    9.1534  -12.9144   20.2481 C   0  0  0  0  0  0  0  0  0  0  0  0
    8.3533  -15.2002   20.8811 C   0  0  2  0  0  0  0  0  0  0  0  0
    7.1223  -15.9696   20.9400 N   0  0  0  0  0  0  0  0  0  0  0  0
    9.1542  -15.3186   22.0908 C   0  0  0  0  0  0  0  0  0  0  0  0
   10.2957  -14.8198   22.1521 O   0  0  0  0  0  0  0  0  0  0  0  0
    8.6536  -16.0020   23.2215 N   0  0  0  0  0  0  0  0  0  0  0  0
    9.3728  -16.1035   24.4736 C   0  0  1  0  0  0  0  0  0  0  0  0
    8.4332  -16.3996   25.6065 C   0  0  0  0  0  0  0  0  0  0  0  0
    7.3509  -15.3866   25.6906 C   0  0  0  0  0  0  0  0  0  0  0  0
    5.9976  -15.5289   25.4695 C   0  0  0  0  0  0  0  0  0  0  0  0
    5.3794  -14.3427   25.6581 N   0  0  0  0  0  0  0  0  0  0  0  0
    6.2831  -13.4051   26.0007 C   0  0  0  0  0  0  0  0  0  0  0  0
    6.1406  -12.0668   26.2912 C   0  0  0  0  0  0  0  0  0  0  0  0
    7.2782  -11.3632   26.6130 C   0  0  0  0  0  0  0  0  0  0  0  0
    8.5285  -11.9872   26.6424 C   0  0  0  0  0  0  0  0  0  0  0  0
    8.6269  -13.3217   26.3466 C   0  0  0  0  0  0  0  0  0  0  0  0
    7.5189  -14.0466   26.0241 C   0  0  0  0  0  0  0  0  0  0  0  0
   10.3644  -17.2293   24.3957 C   0  0  0  0  0  0  0  0  0  0  0  0
   10.1366  -18.2302   23.6717 O   0  0  0  0  0  0  0  0  0  0  0  0
   15.2848  -17.7407   21.9613 N   0  0  0  0  0  0  0  0  0  0  0  0
   15.3840  -16.7509   23.0090 C   0  0  0  0  0  0  0  0  0  0  0  0
   16.2465  -15.8520   22.8628 O   0  0  0  0  0  0  0  0  0  0  0  0
   14.4613  -16.8878   24.1517 C   0  0  0  0  0  0  0  0  0  0  0  0
   13.5294  -18.0373   23.9650 C   0  0  0  0  0  0  0  0  0  0  0  0
   12.5677  -18.2818   25.0923 C   0  0  2  0  0  0  0  0  0  0  0  0
   11.5689  -17.2071   25.1207 N   0  0  0  0  0  0  0  0  0  0  0  0
   13.2678  -18.3746   26.3957 C   0  0  0  0  0  0  0  0  0  0  0  0
   14.1379  -19.4037   26.6683 O   0  0  0  0  0  0  0  0  0  0  0  0
   13.0574  -17.4980   27.2555 O   0  0  0  0  0  0  0  0  0  0  0  0
  2  1  1  0
  3  4  1  6
  3  2  1  0
  5  3  1  0
  5  6  1  1
  7  5  1  0
  7  8  2  0
  9  7  1  0
 10  9  1  0
 10 11  1  1
 12 11  1  0
 13 12  2  0
 14 13  1  0
 15 14  1  0
 15 20  2  0
 16 15  1  0
 17 16  2  0
 17 18  1  0
 18 19  2  0
 19 20  1  0
 20 12  1  0
 21 10  1  0
 22 21  2  0
 23 24  1  0
 24 25  2  0
 24 26  1  0
 26 27  1  0
 28 29  1  0
 28 27  1  6
 29 21  1  0
 30 28  1  0
 31 30  1  0
 32 30  2  0
M  END
$$$$
