IWQ.pdb
     RDKit          3D

 32 33  0  0  1  0  0  0  0  0999 V2000
   12.5072  -19.5250   18.3230 C   0  0  0  0  0  0  0  0  0  0  0  0
   11.0600  -19.2071   18.6356 C   0  0  0  0  0  0  0  0  0  0  0  0
   11.0154  -18.3318   19.8368 C   0  0  2  0  0  0  0  0  0  0  0  0
   11.6914  -19.0164   20.9928 C   0  0  0  0  0  0  0  0  0  0  0  0
    9.6376  -17.8333   20.1881 C   0  0  2  0  0  0  0  0  0  0  0  0
    8.9988  -17.4591   18.9379 N   0  0  0  0  0  0  0  0  0  0  0  0
    9.6277  -16.7612   21.1727 C   0  0  0  0  0  0  0  0  0  0  0  0
   10.1826  -15.6700   20.9338 O   0  0  0  0  0  0  0  0  0  0  0  0
    8.9883  -16.9355   22.4204 N   0  0  0  0  0  0  0  0  0  0  0  0
    8.8631  -15.8820   23.4051 C   0  0  1  0  0  0  0  0  0  0  0  0
    7.6077  -16.0509   24.2111 C   0  0  0  0  0  0  0  0  0  0  0  0
    7.4184  -14.9247   25.1600 C   0  0  0  0  0  0  0  0  0  0  0  0
    6.3471  -14.0689   25.3026 C   0  0  0  0  0  0  0  0  0  0  0  0
    6.5989  -13.1873   26.2947 N   0  0  0  0  0  0  0  0  0  0  0  0
    7.8135  -13.4284   26.8237 C   0  0  0  0  0  0  0  0  0  0  0  0
    8.5023  -12.8080   27.8418 C   0  0  0  0  0  0  0  0  0  0  0  0
    9.7487  -13.2990   28.1552 C   0  0  0  0  0  0  0  0  0  0  0  0
   10.2909  -14.3859   27.4637 C   0  0  0  0  0  0  0  0  0  0  0  0
    9.5722  -14.9750   26.4565 C   0  0  0  0  0  0  0  0  0  0  0  0
    8.3348  -14.5125   26.1220 C   0  0  0  0  0  0  0  0  0  0  0  0
   10.0265  -15.9377   24.3539 C   0  0  0  0  0  0  0  0  0  0  0  0
   10.1287  -15.1026   25.2866 O   0  0  0  0  0  0  0  0  0  0  0  0
   10.3197  -17.2994   29.0129 N   0  0  0  0  0  0  0  0  0  0  0  0
   10.9579  -18.4068   28.3394 C   0  0  0  0  0  0  0  0  0  0  0  0
   10.4539  -19.5428   28.5091 O   0  0  0  0  0  0  0  0  0  0  0  0
   12.1410  -18.0990   27.5139 C   0  0  0  0  0  0  0  0  0  0  0  0
   11.8534  -18.2776   26.0613 C   0  0  0  0  0  0  0  0  0  0  0  0
   12.1311  -17.0835   25.1939 C   0  0  2  0  0  0  0  0  0  0  0  0
   11.0327  -16.9128   24.2360 N   0  0  0  0  0  0  0  0  0  0  0  0
   13.4249  -17.2156   24.4824 C   0  0  0  0  0  0  0  0  0  0  0  0
   13.4762  -17.4167   23.1233 O   0  0  0  0  0  0  0  0  0  0  0  0
   14.4820  -17.1415   25.1374 O   0  0  0  0  0  0  0  0  0  0  0  0
  2  1  1  0
  3  4  1  1
  3  2  1  0
  5  3  1  0
  5  6  1  6
  7  5  1  0
  7  8  2  0
  9  7  1  0
 10  9  1  0
 10 11  1  1
 12 11  1  0
 13 12  2  0
 14 13  1  0
 15 14  1  0
 15 20  2  0
 16 15  1  0
 17 16  2  0
 17 18  1  0
 18 19  2  0
 19 20  1  0
 20 12  1  0
 21 10  1  0
 22 21  2  0
 23 24  1  0
 24 25  2  0
 24 26  1  0
 26 27  1  0
 28 29  1  0
 28 27  1  6
 29 21  1  0
 30 28  1  0
 31 30  1  0
 32 30  2  0
M  END
$$$$
