IWQ.pdb
     RDKit          3D

 32 33  0  0  1  0  0  0  0  0999 V2000
    7.7675  -17.4634   17.2996 C   0  0  0  0  0  0  0  0  0  0  0  0
    6.9998  -16.9158   18.4844 C   0  0  0  0  0  0  0  0  0  0  0  0
    7.9737  -16.4740   19.5176 C   0  0  2  0  0  0  0  0  0  0  0  0
    8.9756  -17.5657   19.7747 C   0  0  0  0  0  0  0  0  0  0  0  0
    7.3407  -15.9624   20.7857 C   0  0  2  0  0  0  0  0  0  0  0  0
    6.4135  -14.9143   20.3949 N   0  0  0  0  0  0  0  0  0  0  0  0
    8.2975  -15.5264   21.7923 C   0  0  0  0  0  0  0  0  0  0  0  0
    8.9788  -14.4957   21.6213 O   0  0  0  0  0  0  0  0  0  0  0  0
    8.4736  -16.2628   22.9850 N   0  0  0  0  0  0  0  0  0  0  0  0
    9.4279  -15.9003   24.0112 C   0  0  1  0  0  0  0  0  0  0  0  0
    8.8563  -16.1366   25.3793 C   0  0  0  0  0  0  0  0  0  0  0  0
    7.7061  -15.2369   25.6479 C   0  0  0  0  0  0  0  0  0  0  0  0
    6.3563  -15.5169   25.6527 C   0  0  0  0  0  0  0  0  0  0  0  0
    5.6611  -14.3971   25.9487 N   0  0  0  0  0  0  0  0  0  0  0  0
    6.5097  -13.3699   26.1434 C   0  0  0  0  0  0  0  0  0  0  0  0
    6.2828  -12.0498   26.4624 C   0  0  0  0  0  0  0  0  0  0  0  0
    7.3811  -11.2321   26.5964 C   0  0  0  0  0  0  0  0  0  0  0  0
    8.6755  -11.7268   26.4145 C   0  0  0  0  0  0  0  0  0  0  0  0
    8.8579  -13.0475   26.0976 C   0  0  0  0  0  0  0  0  0  0  0  0
    7.7908  -13.8835   25.9579 C   0  0  0  0  0  0  0  0  0  0  0  0
   10.6596  -16.7498   23.8773 C   0  0  0  0  0  0  0  0  0  0  0  0
   10.5808  -18.0017   23.9445 O   0  0  0  0  0  0  0  0  0  0  0  0
   17.3818  -15.1000   23.6454 N   0  0  0  0  0  0  0  0  0  0  0  0
   16.6556  -15.7478   22.5777 C   0  0  0  0  0  0  0  0  0  0  0  0
   16.9673  -15.4324   21.4044 O   0  0  0  0  0  0  0  0  0  0  0  0
   15.6169  -16.7206   22.9658 C   0  0  0  0  0  0  0  0  0  0  0  0
   14.2924  -16.0596   23.1490 C   0  0  0  0  0  0  0  0  0  0  0  0
   13.1733  -16.9607   23.5862 C   0  0  2  0  0  0  0  0  0  0  0  0
   11.9311  -16.1846   23.6750 N   0  0  0  0  0  0  0  0  0  0  0  0
   13.4728  -17.6117   24.8839 C   0  0  0  0  0  0  0  0  0  0  0  0
   13.2712  -16.9568   26.0758 O   0  0  0  0  0  0  0  0  0  0  0  0
   13.9157  -18.7761   24.8848 O   0  0  0  0  0  0  0  0  0  0  0  0
  2  1  1  0
  3  4  1  1
  3  2  1  0
  5  3  1  0
  5  6  1  6
  7  5  1  0
  7  8  2  0
  9  7  1  0
 10  9  1  0
 10 11  1  1
 12 11  1  0
 13 12  2  0
 14 13  1  0
 15 14  1  0
 15 20  2  0
 16 15  1  0
 17 16  2  0
 17 18  1  0
 18 19  2  0
 19 20  1  0
 20 12  1  0
 21 10  1  0
 22 21  2  0
 23 24  1  0
 24 25  2  0
 24 26  1  0
 26 27  1  0
 28 29  1  0
 28 27  1  1
 29 21  1  0
 30 28  1  0
 31 30  1  0
 32 30  2  0
M  END
$$$$
