IWQ.pdb
     RDKit          3D

 32 33  0  0  1  0  0  0  0  0999 V2000
    7.2365  -12.6133   18.3374 C   0  0  0  0  0  0  0  0  0  0  0  0
    7.0060  -13.8651   19.1578 C   0  0  0  0  0  0  0  0  0  0  0  0
    8.0003  -13.8977   20.2630 C   0  0  2  0  0  0  0  0  0  0  0  0
    9.3915  -13.7927   19.7014 C   0  0  0  0  0  0  0  0  0  0  0  0
    7.8442  -15.0664   21.2011 C   0  0  2  0  0  0  0  0  0  0  0  0
    6.4179  -15.3143   21.3240 N   0  0  0  0  0  0  0  0  0  0  0  0
    8.5011  -14.8864   22.4876 C   0  0  0  0  0  0  0  0  0  0  0  0
    8.8519  -13.7529   22.8721 O   0  0  0  0  0  0  0  0  0  0  0  0
    8.7545  -15.9936   23.3277 N   0  0  0  0  0  0  0  0  0  0  0  0
    9.5742  -15.9186   24.5184 C   0  0  1  0  0  0  0  0  0  0  0  0
    8.7722  -16.2590   25.7411 C   0  0  0  0  0  0  0  0  0  0  0  0
    7.5988  -15.3608   25.8858 C   0  0  0  0  0  0  0  0  0  0  0  0
    6.2703  -15.6019   25.6078 C   0  0  0  0  0  0  0  0  0  0  0  0
    5.5403  -14.5004   25.8883 N   0  0  0  0  0  0  0  0  0  0  0  0
    6.3447  -13.5234   26.3484 C   0  0  0  0  0  0  0  0  0  0  0  0
    6.0716  -12.2384   26.7607 C   0  0  0  0  0  0  0  0  0  0  0  0
    7.1310  -11.4703   27.1854 C   0  0  0  0  0  0  0  0  0  0  0  0
    8.4327  -11.9791   27.1963 C   0  0  0  0  0  0  0  0  0  0  0  0
    8.6616  -13.2637   26.7777 C   0  0  0  0  0  0  0  0  0  0  0  0
    7.6337  -14.0503   26.3512 C   0  0  0  0  0  0  0  0  0  0  0  0
   10.6994  -16.9089   24.4192 C   0  0  0  0  0  0  0  0  0  0  0  0
   10.4854  -18.0780   24.0125 O   0  0  0  0  0  0  0  0  0  0  0  0
   16.5967  -15.0699   23.3282 N   0  0  0  0  0  0  0  0  0  0  0  0
   15.4664  -15.4077   22.4942 C   0  0  0  0  0  0  0  0  0  0  0  0
   15.6576  -15.4208   21.2546 O   0  0  0  0  0  0  0  0  0  0  0  0
   14.1937  -15.7072   23.1772 C   0  0  0  0  0  0  0  0  0  0  0  0
   14.3841  -16.7007   24.2732 C   0  0  0  0  0  0  0  0  0  0  0  0
   13.1613  -17.4828   24.6588 C   0  0  2  0  0  0  0  0  0  0  0  0
   12.0174  -16.5709   24.7735 N   0  0  0  0  0  0  0  0  0  0  0  0
   13.3649  -18.2227   25.9271 C   0  0  0  0  0  0  0  0  0  0  0  0
   14.2430  -19.2776   26.0065 O   0  0  0  0  0  0  0  0  0  0  0  0
   12.7231  -17.8746   26.9364 O   0  0  0  0  0  0  0  0  0  0  0  0
  2  1  1  0
  3  4  1  6
  3  2  1  0
  5  3  1  0
  5  6  1  1
  7  5  1  0
  7  8  2  0
  9  7  1  0
 10  9  1  0
 10 11  1  1
 12 11  1  0
 13 12  2  0
 14 13  1  0
 15 14  1  0
 15 20  2  0
 16 15  1  0
 17 16  2  0
 17 18  1  0
 18 19  2  0
 19 20  1  0
 20 12  1  0
 21 10  1  0
 22 21  2  0
 23 24  1  0
 24 25  2  0
 24 26  1  0
 26 27  1  0
 28 29  1  0
 28 27  1  1
 29 21  1  0
 30 28  1  0
 31 30  1  0
 32 30  2  0
M  END
$$$$
