IWQ.pdb
     RDKit          3D

 32 33  0  0  1  0  0  0  0  0999 V2000
    8.8240  -21.9758   18.9739 C   0  0  0  0  0  0  0  0  0  0  0  0
    8.4198  -20.5334   18.7521 C   0  0  0  0  0  0  0  0  0  0  0  0
    8.9170  -19.7204   19.8936 C   0  0  2  0  0  0  0  0  0  0  0  0
    8.4621  -20.3300   21.1909 C   0  0  0  0  0  0  0  0  0  0  0  0
    8.5860  -18.2535   19.7988 C   0  0  2  0  0  0  0  0  0  0  0  0
    9.0056  -17.8164   18.4782 N   0  0  0  0  0  0  0  0  0  0  0  0
    9.1532  -17.4469   20.8695 C   0  0  0  0  0  0  0  0  0  0  0  0
   10.3815  -17.4465   21.0864 O   0  0  0  0  0  0  0  0  0  0  0  0
    8.3225  -16.6472   21.6858 N   0  0  0  0  0  0  0  0  0  0  0  0
    8.8137  -15.8740   22.8065 C   0  0  1  0  0  0  0  0  0  0  0  0
    7.8933  -14.7269   23.1082 C   0  0  0  0  0  0  0  0  0  0  0  0
    8.3687  -13.9449   24.2775 C   0  0  0  0  0  0  0  0  0  0  0  0
    9.6489  -13.5578   24.6117 C   0  0  0  0  0  0  0  0  0  0  0  0
    9.6246  -12.8565   25.7660 N   0  0  0  0  0  0  0  0  0  0  0  0
    8.3595  -12.7619   26.2174 C   0  0  0  0  0  0  0  0  0  0  0  0
    7.8353  -12.1533   27.3357 C   0  0  0  0  0  0  0  0  0  0  0  0
    6.4746  -12.2333   27.5219 C   0  0  0  0  0  0  0  0  0  0  0  0
    5.6596  -12.9075   26.6084 C   0  0  0  0  0  0  0  0  0  0  0  0
    6.2214  -13.5000   25.5078 C   0  0  0  0  0  0  0  0  0  0  0  0
    7.5659  -13.4386   25.2946 C   0  0  0  0  0  0  0  0  0  0  0  0
    8.8769  -16.7435   24.0300 C   0  0  0  0  0  0  0  0  0  0  0  0
    7.8482  -17.3307   24.4482 O   0  0  0  0  0  0  0  0  0  0  0  0
   13.3610  -20.4485   25.5915 N   0  0  0  0  0  0  0  0  0  0  0  0
   12.8024  -20.0145   24.3318 C   0  0  0  0  0  0  0  0  0  0  0  0
   13.3445  -20.4511   23.2884 O   0  0  0  0  0  0  0  0  0  0  0  0
   11.6462  -19.1003   24.3894 C   0  0  0  0  0  0  0  0  0  0  0  0
   11.3193  -18.7230   25.7949 C   0  0  0  0  0  0  0  0  0  0  0  0
   10.1886  -17.7482   25.9581 C   0  0  2  0  0  0  0  0  0  0  0  0
   10.0730  -16.9306   24.7450 N   0  0  0  0  0  0  0  0  0  0  0  0
   10.3795  -16.8863   27.1490 C   0  0  0  0  0  0  0  0  0  0  0  0
   10.3750  -17.4112   28.4197 O   0  0  0  0  0  0  0  0  0  0  0  0
   10.5467  -15.6627   26.9855 O   0  0  0  0  0  0  0  0  0  0  0  0
  2  1  1  0
  3  4  1  1
  3  2  1  0
  5  3  1  0
  5  6  1  6
  7  5  1  0
  7  8  2  0
  9  7  1  0
 10  9  1  0
 10 11  1  1
 12 11  1  0
 13 12  2  0
 14 13  1  0
 15 14  1  0
 15 20  2  0
 16 15  1  0
 17 16  2  0
 17 18  1  0
 18 19  2  0
 19 20  1  0
 20 12  1  0
 21 10  1  0
 22 21  2  0
 23 24  1  0
 24 25  2  0
 24 26  1  0
 26 27  1  0
 28 29  1  0
 28 27  1  6
 29 21  1  0
 30 28  1  0
 31 30  1  0
 32 30  2  0
M  END
$$$$
