IWQ.pdb
     RDKit          3D

 32 33  0  0  1  0  0  0  0  0999 V2000
    7.4260  -12.8770   16.3475 C   0  0  0  0  0  0  0  0  0  0  0  0
    8.1442  -13.9700   17.1108 C   0  0  0  0  0  0  0  0  0  0  0  0
    8.0393  -13.6801   18.5655 C   0  0  2  0  0  0  0  0  0  0  0  0
    8.5816  -12.3072   18.8529 C   0  0  0  0  0  0  0  0  0  0  0  0
    8.6463  -14.7367   19.4520 C   0  0  2  0  0  0  0  0  0  0  0  0
    8.1332  -16.0144   18.9883 N   0  0  0  0  0  0  0  0  0  0  0  0
    8.4226  -14.5183   20.8737 C   0  0  0  0  0  0  0  0  0  0  0  0
    7.7228  -13.5653   21.2709 O   0  0  0  0  0  0  0  0  0  0  0  0
    8.9946  -15.3829   21.8335 N   0  0  0  0  0  0  0  0  0  0  0  0
    8.7763  -15.2472   23.2580 C   0  0  1  0  0  0  0  0  0  0  0  0
    7.3135  -15.3350   23.5847 C   0  0  0  0  0  0  0  0  0  0  0  0
    7.0698  -15.1292   25.0349 C   0  0  0  0  0  0  0  0  0  0  0  0
    6.6978  -16.0410   25.9996 C   0  0  0  0  0  0  0  0  0  0  0  0
    6.5874  -15.4192   27.1938 N   0  0  0  0  0  0  0  0  0  0  0  0
    6.8759  -14.1111   27.0569 C   0  0  0  0  0  0  0  0  0  0  0  0
    6.9018  -13.0840   27.9736 C   0  0  0  0  0  0  0  0  0  0  0  0
    7.2431  -11.8329   27.5144 C   0  0  0  0  0  0  0  0  0  0  0  0
    7.5509  -11.6174   26.1681 C   0  0  0  0  0  0  0  0  0  0  0  0
    7.5132  -12.6672   25.2880 C   0  0  0  0  0  0  0  0  0  0  0  0
    7.1790  -13.9186   25.7114 C   0  0  0  0  0  0  0  0  0  0  0  0
    9.4746  -16.3619   23.9837 C   0  0  0  0  0  0  0  0  0  0  0  0
    8.8516  -17.4066   24.2977 O   0  0  0  0  0  0  0  0  0  0  0  0
   15.1310  -15.6475   24.1325 N   0  0  0  0  0  0  0  0  0  0  0  0
   14.4935  -16.1770   22.9491 C   0  0  0  0  0  0  0  0  0  0  0  0
   14.9965  -15.8644   21.8435 O   0  0  0  0  0  0  0  0  0  0  0  0
   13.3121  -17.0370   23.1506 C   0  0  0  0  0  0  0  0  0  0  0  0
   13.0361  -17.2529   24.6004 C   0  0  0  0  0  0  0  0  0  0  0  0
   11.5860  -17.3658   24.9745 C   0  0  2  0  0  0  0  0  0  0  0  0
   10.8335  -16.2802   24.3354 N   0  0  0  0  0  0  0  0  0  0  0  0
   11.3980  -17.3327   26.4445 C   0  0  0  0  0  0  0  0  0  0  0  0
   10.5742  -16.4066   27.0393 O   0  0  0  0  0  0  0  0  0  0  0  0
   12.0028  -18.1647   27.1473 O   0  0  0  0  0  0  0  0  0  0  0  0
  2  1  1  0
  3  4  1  6
  3  2  1  0
  5  3  1  0
  5  6  1  6
  7  5  1  0
  7  8  2  0
  9  7  1  0
 10  9  1  0
 10 11  1  6
 12 11  1  0
 13 12  2  0
 14 13  1  0
 15 14  1  0
 15 20  2  0
 16 15  1  0
 17 16  2  0
 17 18  1  0
 18 19  2  0
 19 20  1  0
 20 12  1  0
 21 10  1  0
 22 21  2  0
 23 24  1  0
 24 25  2  0
 24 26  1  0
 26 27  1  0
 28 29  1  0
 28 27  1  1
 29 21  1  0
 30 28  1  0
 31 30  1  0
 32 30  2  0
M  END
$$$$
