IWQ.pdb
     RDKit          3D

 32 33  0  0  1  0  0  0  0  0999 V2000
    6.5445  -12.5205   19.1219 C   0  0  0  0  0  0  0  0  0  0  0  0
    6.8665  -13.9644   19.4454 C   0  0  0  0  0  0  0  0  0  0  0  0
    7.8355  -13.9931   20.5729 C   0  0  2  0  0  0  0  0  0  0  0  0
    9.0092  -13.1063   20.2602 C   0  0  0  0  0  0  0  0  0  0  0  0
    8.2554  -15.3781   20.9925 C   0  0  2  0  0  0  0  0  0  0  0  0
    7.0383  -16.1612   21.1208 N   0  0  0  0  0  0  0  0  0  0  0  0
    9.0792  -15.4104   22.1921 C   0  0  0  0  0  0  0  0  0  0  0  0
   10.1960  -14.8553   22.2147 O   0  0  0  0  0  0  0  0  0  0  0  0
    8.6297  -16.0720   23.3566 N   0  0  0  0  0  0  0  0  0  0  0  0
    9.4128  -16.1688   24.5701 C   0  0  1  0  0  0  0  0  0  0  0  0
    8.5243  -16.3595   25.7652 C   0  0  0  0  0  0  0  0  0  0  0  0
    7.4526  -15.3329   25.8119 C   0  0  0  0  0  0  0  0  0  0  0  0
    6.1091  -15.4543   25.5282 C   0  0  0  0  0  0  0  0  0  0  0  0
    5.4985  -14.2619   25.7023 N   0  0  0  0  0  0  0  0  0  0  0  0
    6.3980  -13.3405   26.0963 C   0  0  0  0  0  0  0  0  0  0  0  0
    6.2600  -12.0036   26.3956 C   0  0  0  0  0  0  0  0  0  0  0  0
    7.3909  -11.3192   26.7767 C   0  0  0  0  0  0  0  0  0  0  0  0
    8.6303  -11.9605   26.8554 C   0  0  0  0  0  0  0  0  0  0  0  0
    8.7245  -13.2928   26.5489 C   0  0  0  0  0  0  0  0  0  0  0  0
    7.6229  -13.9990   26.1682 C   0  0  0  0  0  0  0  0  0  0  0  0
   10.3278  -17.3573   24.4863 C   0  0  0  0  0  0  0  0  0  0  0  0
    9.9044  -18.4582   24.0543 O   0  0  0  0  0  0  0  0  0  0  0  0
   15.2164  -16.5088   22.2224 N   0  0  0  0  0  0  0  0  0  0  0  0
   15.4158  -16.1579   23.6095 C   0  0  0  0  0  0  0  0  0  0  0  0
   16.1766  -15.1896   23.8479 O   0  0  0  0  0  0  0  0  0  0  0  0
   14.7053  -16.9690   24.6161 C   0  0  0  0  0  0  0  0  0  0  0  0
   13.8111  -17.9748   23.9732 C   0  0  0  0  0  0  0  0  0  0  0  0
   12.6232  -18.4005   24.7875 C   0  0  2  0  0  0  0  0  0  0  0  0
   11.6747  -17.2849   24.8832 N   0  0  0  0  0  0  0  0  0  0  0  0
   13.0246  -18.8582   26.1391 C   0  0  0  0  0  0  0  0  0  0  0  0
   13.8092  -19.9738   26.3125 O   0  0  0  0  0  0  0  0  0  0  0  0
   12.6385  -18.2128   27.1322 O   0  0  0  0  0  0  0  0  0  0  0  0
  2  1  1  0
  3  4  1  6
  3  2  1  0
  5  3  1  0
  5  6  1  1
  7  5  1  0
  7  8  2  0
  9  7  1  0
 10  9  1  0
 10 11  1  1
 12 11  1  0
 13 12  2  0
 14 13  1  0
 15 14  1  0
 15 20  2  0
 16 15  1  0
 17 16  2  0
 17 18  1  0
 18 19  2  0
 19 20  1  0
 20 12  1  0
 21 10  1  0
 22 21  2  0
 23 24  1  0
 24 25  2  0
 24 26  1  0
 26 27  1  0
 28 29  1  0
 28 27  1  6
 29 21  1  0
 30 28  1  0
 31 30  1  0
 32 30  2  0
M  END
$$$$
