IWQ.pdb
     RDKit          3D

 32 33  0  0  1  0  0  0  0  0999 V2000
    7.4576  -12.3678   17.1847 C   0  0  0  0  0  0  0  0  0  0  0  0
    7.8758  -13.7305   17.6960 C   0  0  0  0  0  0  0  0  0  0  0  0
    8.2617  -13.6026   19.1263 C   0  0  2  0  0  0  0  0  0  0  0  0
    9.2207  -12.4566   19.2958 C   0  0  0  0  0  0  0  0  0  0  0  0
    8.7725  -14.8778   19.7456 C   0  0  2  0  0  0  0  0  0  0  0  0
    7.8261  -15.9214   19.3904 N   0  0  0  0  0  0  0  0  0  0  0  0
    9.0063  -14.7888   21.1795 C   0  0  0  0  0  0  0  0  0  0  0  0
    9.9671  -14.1333   21.6302 O   0  0  0  0  0  0  0  0  0  0  0  0
    8.1484  -15.4440   22.0909 N   0  0  0  0  0  0  0  0  0  0  0  0
    8.3181  -15.3855   23.5272 C   0  0  1  0  0  0  0  0  0  0  0  0
    7.0045  -15.5775   24.2283 C   0  0  0  0  0  0  0  0  0  0  0  0
    7.1051  -15.2339   25.6693 C   0  0  0  0  0  0  0  0  0  0  0  0
    7.2583  -16.0631   26.7599 C   0  0  0  0  0  0  0  0  0  0  0  0
    7.3038  -15.3239   27.8897 N   0  0  0  0  0  0  0  0  0  0  0  0
    7.1849  -14.0173   27.5867 C   0  0  0  0  0  0  0  0  0  0  0  0
    7.1752  -12.8952   28.3846 C   0  0  0  0  0  0  0  0  0  0  0  0
    7.0357  -11.6761   27.7625 C   0  0  0  0  0  0  0  0  0  0  0  0
    6.9089  -11.5850   26.3736 C   0  0  0  0  0  0  0  0  0  0  0  0
    6.9234  -12.7265   25.6155 C   0  0  0  0  0  0  0  0  0  0  0  0
    7.0602  -13.9493   26.2014 C   0  0  0  0  0  0  0  0  0  0  0  0
    9.2387  -16.4864   23.9714 C   0  0  0  0  0  0  0  0  0  0  0  0
    9.0504  -17.6679   23.5886 O   0  0  0  0  0  0  0  0  0  0  0  0
   14.6424  -16.1445   21.7285 N   0  0  0  0  0  0  0  0  0  0  0  0
   14.2717  -16.2690   23.1192 C   0  0  0  0  0  0  0  0  0  0  0  0
   15.1668  -16.0458   23.9690 O   0  0  0  0  0  0  0  0  0  0  0  0
   12.8754  -16.6450   23.4109 C   0  0  0  0  0  0  0  0  0  0  0  0
   12.6675  -16.8795   24.8691 C   0  0  0  0  0  0  0  0  0  0  0  0
   11.2744  -17.2715   25.2704 C   0  0  2  0  0  0  0  0  0  0  0  0
   10.3313  -16.2407   24.8217 N   0  0  0  0  0  0  0  0  0  0  0  0
   11.1652  -17.4730   26.7350 C   0  0  0  0  0  0  0  0  0  0  0  0
   11.8920  -18.4464   27.3789 O   0  0  0  0  0  0  0  0  0  0  0  0
   10.3970  -16.7410   27.3875 O   0  0  0  0  0  0  0  0  0  0  0  0
  2  1  1  0
  3  4  1  6
  3  2  1  0
  5  3  1  0
  5  6  1  1
  7  5  1  0
  7  8  2  0
  9  7  1  0
 10  9  1  0
 10 11  1  1
 12 11  1  0
 13 12  2  0
 14 13  1  0
 15 14  1  0
 15 20  2  0
 16 15  1  0
 17 16  2  0
 17 18  1  0
 18 19  2  0
 19 20  1  0
 20 12  1  0
 21 10  1  0
 22 21  2  0
 23 24  1  0
 24 25  2  0
 24 26  1  0
 26 27  1  0
 28 29  1  0
 28 27  1  1
 29 21  1  0
 30 28  1  0
 31 30  1  0
 32 30  2  0
M  END
$$$$
