IWQ.pdb
     RDKit          3D

 32 33  0  0  1  0  0  0  0  0999 V2000
    7.0196  -23.0490   22.3745 C   0  0  0  0  0  0  0  0  0  0  0  0
    6.4318  -22.0396   23.3384 C   0  0  0  0  0  0  0  0  0  0  0  0
    7.0513  -20.7141   23.0733 C   0  0  2  0  0  0  0  0  0  0  0  0
    8.5462  -20.8561   22.9922 C   0  0  0  0  0  0  0  0  0  0  0  0
    6.6265  -19.6303   24.0301 C   0  0  2  0  0  0  0  0  0  0  0  0
    5.1751  -19.5805   23.9851 N   0  0  0  0  0  0  0  0  0  0  0  0
    7.2461  -18.3380   23.7757 C   0  0  0  0  0  0  0  0  0  0  0  0
    6.9021  -17.6469   22.7959 O   0  0  0  0  0  0  0  0  0  0  0  0
    8.2508  -17.8397   24.6349 N   0  0  0  0  0  0  0  0  0  0  0  0
    8.9448  -16.5899   24.4080 C   0  0  1  0  0  0  0  0  0  0  0  0
    9.0700  -15.8093   25.6844 C   0  0  0  0  0  0  0  0  0  0  0  0
    7.8257  -15.0556   25.9819 C   0  0  0  0  0  0  0  0  0  0  0  0
    6.5504  -15.5250   26.2133 C   0  0  0  0  0  0  0  0  0  0  0  0
    5.7187  -14.4856   26.4437 N   0  0  0  0  0  0  0  0  0  0  0  0
    6.4028  -13.3279   26.3732 C   0  0  0  0  0  0  0  0  0  0  0  0
    5.9994  -12.0212   26.5332 C   0  0  0  0  0  0  0  0  0  0  0  0
    6.9556  -11.0414   26.3977 C   0  0  0  0  0  0  0  0  0  0  0  0
    8.2843  -11.3648   26.1086 C   0  0  0  0  0  0  0  0  0  0  0  0
    8.6444  -12.6783   25.9571 C   0  0  0  0  0  0  0  0  0  0  0  0
    7.7210  -13.6723   26.0851 C   0  0  0  0  0  0  0  0  0  0  0  0
   10.3324  -16.8677   23.9040 C   0  0  0  0  0  0  0  0  0  0  0  0
   11.0309  -17.7717   24.4263 O   0  0  0  0  0  0  0  0  0  0  0  0
   13.4038  -13.6441   18.9547 N   0  0  0  0  0  0  0  0  0  0  0  0
   13.8278  -15.0135   19.1336 C   0  0  0  0  0  0  0  0  0  0  0  0
   14.1669  -15.6434   18.1033 O   0  0  0  0  0  0  0  0  0  0  0  0
   13.8244  -15.5431   20.5104 C   0  0  0  0  0  0  0  0  0  0  0  0
   12.4611  -15.4868   21.1126 C   0  0  0  0  0  0  0  0  0  0  0  0
   12.2505  -16.3515   22.3222 C   0  0  2  0  0  0  0  0  0  0  0  0
   10.8957  -16.1366   22.8433 N   0  0  0  0  0  0  0  0  0  0  0  0
   13.2604  -16.0760   23.3718 C   0  0  0  0  0  0  0  0  0  0  0  0
   14.5687  -16.4731   23.2271 O   0  0  0  0  0  0  0  0  0  0  0  0
   12.9075  -15.4718   24.4025 O   0  0  0  0  0  0  0  0  0  0  0  0
  2  1  1  0
  3  4  1  1
  3  2  1  0
  5  3  1  0
  5  6  1  6
  7  5  1  0
  7  8  2  0
  9  7  1  0
 10  9  1  0
 10 11  1  1
 12 11  1  0
 13 12  2  0
 14 13  1  0
 15 14  1  0
 15 20  2  0
 16 15  1  0
 17 16  2  0
 17 18  1  0
 18 19  2  0
 19 20  1  0
 20 12  1  0
 21 10  1  0
 22 21  2  0
 23 24  1  0
 24 25  2  0
 24 26  1  0
 26 27  1  0
 28 29  1  0
 28 27  1  6
 29 21  1  0
 30 28  1  0
 31 30  1  0
 32 30  2  0
M  END
$$$$
