IWQ.pdb
     RDKit          3D

 32 33  0  0  1  0  0  0  0  0999 V2000
   11.1592  -18.7944   17.5581 C   0  0  0  0  0  0  0  0  0  0  0  0
    9.9182  -18.9450   18.4128 C   0  0  0  0  0  0  0  0  0  0  0  0
    9.8774  -17.8259   19.3911 C   0  0  2  0  0  0  0  0  0  0  0  0
   11.1791  -17.7555   20.1410 C   0  0  0  0  0  0  0  0  0  0  0  0
    8.6835  -17.8510   20.3102 C   0  0  2  0  0  0  0  0  0  0  0  0
    7.5113  -18.0065   19.4660 N   0  0  0  0  0  0  0  0  0  0  0  0
    8.5941  -16.7011   21.1981 C   0  0  0  0  0  0  0  0  0  0  0  0
    8.5192  -15.5439   20.7384 O   0  0  0  0  0  0  0  0  0  0  0  0
    8.5901  -16.8728   22.6004 N   0  0  0  0  0  0  0  0  0  0  0  0
    8.5735  -15.7700   23.5377 C   0  0  1  0  0  0  0  0  0  0  0  0
    7.3818  -15.8596   24.4465 C   0  0  0  0  0  0  0  0  0  0  0  0
    7.1935  -14.6044   25.2172 C   0  0  0  0  0  0  0  0  0  0  0  0
    6.1797  -13.6734   25.1426 C   0  0  0  0  0  0  0  0  0  0  0  0
    6.4079  -12.6811   26.0305 N   0  0  0  0  0  0  0  0  0  0  0  0
    7.5508  -12.9212   26.7010 C   0  0  0  0  0  0  0  0  0  0  0  0
    8.1917  -12.2103   27.6908 C   0  0  0  0  0  0  0  0  0  0  0  0
    9.3665  -12.7288   28.1843 C   0  0  0  0  0  0  0  0  0  0  0  0
    9.8858  -13.9313   27.6966 C   0  0  0  0  0  0  0  0  0  0  0  0
    9.2165  -14.6080   26.7106 C   0  0  0  0  0  0  0  0  0  0  0  0
    8.0503  -14.1210   26.2008 C   0  0  0  0  0  0  0  0  0  0  0  0
    9.8065  -15.8177   24.3945 C   0  0  0  0  0  0  0  0  0  0  0  0
    9.7947  -15.3383   25.5555 O   0  0  0  0  0  0  0  0  0  0  0  0
   11.4572  -19.9522   26.4759 N   0  0  0  0  0  0  0  0  0  0  0  0
   10.9384  -18.8335   27.2285 C   0  0  0  0  0  0  0  0  0  0  0  0
   10.2514  -19.1000   28.2435 O   0  0  0  0  0  0  0  0  0  0  0  0
   11.2656  -17.4825   26.7349 C   0  0  0  0  0  0  0  0  0  0  0  0
   12.2859  -17.5317   25.6481 C   0  0  0  0  0  0  0  0  0  0  0  0
   12.2659  -16.3775   24.6874 C   0  0  2  0  0  0  0  0  0  0  0  0
   11.0053  -16.3922   23.9364 N   0  0  0  0  0  0  0  0  0  0  0  0
   13.4226  -16.4189   23.7613 C   0  0  0  0  0  0  0  0  0  0  0  0
   13.2505  -16.6066   22.4102 O   0  0  0  0  0  0  0  0  0  0  0  0
   14.5703  -16.2798   24.2254 O   0  0  0  0  0  0  0  0  0  0  0  0
  2  1  1  0
  3  4  1  1
  3  2  1  0
  5  3  1  0
  5  6  1  6
  7  5  1  0
  7  8  2  0
  9  7  1  0
 10  9  1  0
 10 11  1  1
 12 11  1  0
 13 12  2  0
 14 13  1  0
 15 14  1  0
 15 20  2  0
 16 15  1  0
 17 16  2  0
 17 18  1  0
 18 19  2  0
 19 20  1  0
 20 12  1  0
 21 10  1  0
 22 21  2  0
 23 24  1  0
 24 25  2  0
 24 26  1  0
 26 27  1  0
 28 29  1  0
 28 27  1  1
 29 21  1  0
 30 28  1  0
 31 30  1  0
 32 30  2  0
M  END
$$$$
