IWQ.pdb
     RDKit          3D

 32 33  0  0  1  0  0  0  0  0999 V2000
    6.8507  -12.3495   19.1457 C   0  0  0  0  0  0  0  0  0  0  0  0
    7.0436  -13.8133   19.4821 C   0  0  0  0  0  0  0  0  0  0  0  0
    7.9734  -13.9158   20.6380 C   0  0  2  0  0  0  0  0  0  0  0  0
    9.1846  -13.0578   20.3965 C   0  0  0  0  0  0  0  0  0  0  0  0
    8.3345  -15.3286   21.0179 C   0  0  2  0  0  0  0  0  0  0  0  0
    7.0882  -16.0720   21.0895 N   0  0  0  0  0  0  0  0  0  0  0  0
    9.1266  -15.4316   22.2347 C   0  0  0  0  0  0  0  0  0  0  0  0
   10.2540  -14.9031   22.3093 O   0  0  0  0  0  0  0  0  0  0  0  0
    8.6336  -16.1333   23.3575 N   0  0  0  0  0  0  0  0  0  0  0  0
    9.3225  -16.1856   24.6294 C   0  0  1  0  0  0  0  0  0  0  0  0
    8.3492  -16.3773   25.7564 C   0  0  0  0  0  0  0  0  0  0  0  0
    7.3154  -15.3115   25.7656 C   0  0  0  0  0  0  0  0  0  0  0  0
    5.9709  -15.3916   25.4721 C   0  0  0  0  0  0  0  0  0  0  0  0
    5.4028  -14.1736   25.6087 N   0  0  0  0  0  0  0  0  0  0  0  0
    6.3319  -13.2752   25.9869 C   0  0  0  0  0  0  0  0  0  0  0  0
    6.2402  -11.9267   26.2495 C   0  0  0  0  0  0  0  0  0  0  0  0
    7.3920  -11.2739   26.6234 C   0  0  0  0  0  0  0  0  0  0  0  0
    8.6064  -11.9574   26.7311 C   0  0  0  0  0  0  0  0  0  0  0  0
    8.6545  -13.3000   26.4608 C   0  0  0  0  0  0  0  0  0  0  0  0
    7.5312  -13.9756   26.0882 C   0  0  0  0  0  0  0  0  0  0  0  0
   10.2713  -17.3503   24.6416 C   0  0  0  0  0  0  0  0  0  0  0  0
    9.8727  -18.5001   24.3299 O   0  0  0  0  0  0  0  0  0  0  0  0
   16.1728  -15.9927   22.6367 N   0  0  0  0  0  0  0  0  0  0  0  0
   14.9109  -16.0694   23.3358 C   0  0  0  0  0  0  0  0  0  0  0  0
   14.4670  -15.0042   23.8274 O   0  0  0  0  0  0  0  0  0  0  0  0
   14.2609  -17.3917   23.4052 C   0  0  0  0  0  0  0  0  0  0  0  0
   13.9679  -17.7816   24.8147 C   0  0  0  0  0  0  0  0  0  0  0  0
   12.5841  -18.3078   25.0674 C   0  0  2  0  0  0  0  0  0  0  0  0
   11.6232  -17.2010   24.9979 N   0  0  0  0  0  0  0  0  0  0  0  0
   12.4926  -18.9935   26.3785 C   0  0  0  0  0  0  0  0  0  0  0  0
   13.2721  -20.0882   26.6689 O   0  0  0  0  0  0  0  0  0  0  0  0
   11.6904  -18.5621   27.2284 O   0  0  0  0  0  0  0  0  0  0  0  0
  2  1  1  0
  3  4  1  6
  3  2  1  0
  5  3  1  0
  5  6  1  1
  7  5  1  0
  7  8  2  0
  9  7  1  0
 10  9  1  0
 10 11  1  1
 12 11  1  0
 13 12  2  0
 14 13  1  0
 15 14  1  0
 15 20  2  0
 16 15  1  0
 17 16  2  0
 17 18  1  0
 18 19  2  0
 19 20  1  0
 20 12  1  0
 21 10  1  0
 22 21  2  0
 23 24  1  0
 24 25  2  0
 24 26  1  0
 26 27  1  0
 28 29  1  0
 28 27  1  1
 29 21  1  0
 30 28  1  0
 31 30  1  0
 32 30  2  0
M  END
$$$$
