TGW.pdb
     RDKit          3D

 26 27  0  0  1  0  0  0  0  0999 V2000
   25.0410  -16.5090  -15.8479 C   0  0  0  0  0  0  0  0  0  0  0  0
   25.3561  -17.6904  -14.9741 C   0  0  1  0  0  0  0  0  0  0  0  0
   24.3936  -17.8857  -13.9715 O   0  0  0  0  0  0  0  0  0  0  0  0
   25.6021  -18.9575  -15.7682 C   0  0  2  0  0  0  0  0  0  0  0  0
   24.4045  -19.1944  -16.5527 N   0  0  0  0  0  0  0  0  0  0  0  0
   25.8509  -20.1286  -14.9281 C   0  0  0  0  0  0  0  0  0  0  0  0
   24.9766  -21.0475  -14.7908 O   0  0  0  0  0  0  0  0  0  0  0  0
   27.0632  -20.3457  -14.2033 N   0  0  0  0  0  0  0  0  0  0  0  0
   27.2416  -21.4726  -13.3396 C   0  0  0  0  0  0  0  0  0  0  0  0
   26.7012  -21.2909  -11.9825 C   0  0  0  0  0  0  0  0  0  0  0  0
   25.5157  -20.9632  -11.7327 O   0  0  0  0  0  0  0  0  0  0  0  0
   27.5775  -21.5003  -10.8899 N   0  0  0  0  0  0  0  0  0  0  0  0
   27.1961  -21.1646   -9.5176 C   0  0  1  0  0  0  0  0  0  0  0  0
   28.3145  -20.3933   -8.9231 C   0  0  0  0  0  0  0  0  0  0  0  0
   27.9791  -19.8370   -7.6074 C   0  0  0  0  0  0  0  0  0  0  0  0
   26.8677  -19.0390   -7.3515 C   0  0  0  0  0  0  0  0  0  0  0  0
   26.8964  -18.6852   -6.0786 N   0  0  0  0  0  0  0  0  0  0  0  0
   27.9668  -19.1973   -5.4456 C   0  0  0  0  0  0  0  0  0  0  0  0
   28.4190  -19.1355   -4.1580 C   0  0  0  0  0  0  0  0  0  0  0  0
   29.5675  -19.8051   -3.8133 C   0  0  0  0  0  0  0  0  0  0  0  0
   30.2684  -20.5389   -4.7538 C   0  0  0  0  0  0  0  0  0  0  0  0
   29.7986  -20.5892   -6.0456 C   0  0  0  0  0  0  0  0  0  0  0  0
   28.6563  -19.9248   -6.3976 C   0  0  0  0  0  0  0  0  0  0  0  0
   25.8844  -20.5215   -9.5714 C   0  0  0  0  0  0  0  0  0  0  0  0
   24.8585  -20.8638   -8.6632 O   0  0  0  0  0  0  0  0  0  0  0  0
   25.5556  -19.6361  -10.3988 O   0  0  0  0  0  0  0  0  0  0  0  0
  2  1  1  6
  3  2  1  0
  4  2  1  0
  4  5  1  1
  6  4  1  0
  7  6  2  0
  8  6  1  0
  9  8  1  0
 10  9  1  0
 10 12  1  0
 11 10  2  0
 13 12  1  0
 13 14  1  6
 15 14  1  0
 15 16  2  0
 17 16  1  0
 18 17  1  0
 19 18  2  0
 20 19  1  0
 21 20  2  0
 21 22  1  0
 22 23  2  0
 23 18  1  0
 23 15  1  0
 24 25  1  0
 24 13  1  0
 26 24  2  0
M  END
$$$$
