TGW.pdb
     RDKit          3D

 26 27  0  0  1  0  0  0  0  0999 V2000
   25.7784  -14.8987  -17.1869 C   0  0  0  0  0  0  0  0  0  0  0  0
   26.6573  -16.0760  -16.8710 C   0  0  1  0  0  0  0  0  0  0  0  0
   28.0149  -15.7265  -16.8020 O   0  0  0  0  0  0  0  0  0  0  0  0
   26.2090  -16.8264  -15.6330 C   0  0  2  0  0  0  0  0  0  0  0  0
   26.4583  -15.9498  -14.5036 N   0  0  0  0  0  0  0  0  0  0  0  0
   26.9326  -18.0798  -15.4215 C   0  0  0  0  0  0  0  0  0  0  0  0
   26.8285  -19.0547  -16.2378 O   0  0  0  0  0  0  0  0  0  0  0  0
   27.7993  -18.3214  -14.3112 N   0  0  0  0  0  0  0  0  0  0  0  0
   28.5258  -19.5457  -14.1658 C   0  0  0  0  0  0  0  0  0  0  0  0
   27.7303  -20.6664  -13.6386 C   0  0  0  0  0  0  0  0  0  0  0  0
   27.9058  -21.8677  -13.9566 O   0  0  0  0  0  0  0  0  0  0  0  0
   26.7015  -20.3671  -12.7126 N   0  0  0  0  0  0  0  0  0  0  0  0
   25.7496  -21.3821  -12.2597 C   0  0  1  0  0  0  0  0  0  0  0  0
   26.3219  -22.0168  -11.0478 C   0  0  0  0  0  0  0  0  0  0  0  0
   26.2722  -21.1377   -9.8741 C   0  0  0  0  0  0  0  0  0  0  0  0
   25.1633  -20.3819   -9.5044 C   0  0  0  0  0  0  0  0  0  0  0  0
   25.4790  -19.6823   -8.4287 N   0  0  0  0  0  0  0  0  0  0  0  0
   26.7445  -19.9168   -8.0386 C   0  0  0  0  0  0  0  0  0  0  0  0
   27.5112  -19.4620   -7.0033 C   0  0  0  0  0  0  0  0  0  0  0  0
   28.7973  -19.9228   -6.8629 C   0  0  0  0  0  0  0  0  0  0  0  0
   29.3221  -20.8397   -7.7562 C   0  0  0  0  0  0  0  0  0  0  0  0
   28.5359  -21.2859   -8.7929 C   0  0  0  0  0  0  0  0  0  0  0  0
   27.2545  -20.8317   -8.9406 C   0  0  0  0  0  0  0  0  0  0  0  0
   24.4452  -20.7347  -12.1323 C   0  0  0  0  0  0  0  0  0  0  0  0
   23.2586  -21.4887  -11.9987 O   0  0  0  0  0  0  0  0  0  0  0  0
   24.2606  -19.4927  -12.1292 O   0  0  0  0  0  0  0  0  0  0  0  0
  2  1  1  1
  3  2  1  0
  4  2  1  0
  4  5  1  1
  6  4  1  0
  7  6  2  0
  8  6  1  0
  9  8  1  0
 10  9  1  0
 10 12  1  0
 11 10  2  0
 13 12  1  0
 13 14  1  1
 15 14  1  0
 15 16  2  0
 17 16  1  0
 18 17  1  0
 19 18  2  0
 20 19  1  0
 21 20  2  0
 21 22  1  0
 22 23  2  0
 23 18  1  0
 23 15  1  0
 24 25  1  0
 24 13  1  0
 26 24  2  0
M  END
$$$$
