TGW.pdb
     RDKit          3D

 26 27  0  0  1  0  0  0  0  0999 V2000
   26.3735  -21.1164  -18.4339 C   0  0  0  0  0  0  0  0  0  0  0  0
   27.3821  -22.2267  -18.3413 C   0  0  1  0  0  0  0  0  0  0  0  0
   27.7126  -22.7551  -19.5989 O   0  0  0  0  0  0  0  0  0  0  0  0
   28.6179  -21.8318  -17.5579 C   0  0  2  0  0  0  0  0  0  0  0  0
   29.3342  -23.0598  -17.2665 N   0  0  0  0  0  0  0  0  0  0  0  0
   28.3131  -21.1569  -16.2966 C   0  0  0  0  0  0  0  0  0  0  0  0
   27.5981  -20.1009  -16.2623 O   0  0  0  0  0  0  0  0  0  0  0  0
   28.7755  -21.6059  -15.0212 N   0  0  0  0  0  0  0  0  0  0  0  0
   28.4282  -20.9339  -13.8065 C   0  0  0  0  0  0  0  0  0  0  0  0
   27.1210  -21.3193  -13.2502 C   0  0  0  0  0  0  0  0  0  0  0  0
   26.1892  -21.8250  -13.9220 O   0  0  0  0  0  0  0  0  0  0  0  0
   26.9034  -21.1050  -11.8673 N   0  0  0  0  0  0  0  0  0  0  0  0
   25.7063  -21.6008  -11.1871 C   0  0  1  0  0  0  0  0  0  0  0  0
   26.1148  -22.0289   -9.8273 C   0  0  0  0  0  0  0  0  0  0  0  0
   26.5811  -20.9103   -9.0003 C   0  0  0  0  0  0  0  0  0  0  0  0
   25.8717  -19.7289   -8.8037 C   0  0  0  0  0  0  0  0  0  0  0  0
   26.5990  -18.9312   -8.0414 N   0  0  0  0  0  0  0  0  0  0  0  0
   27.7694  -19.5006   -7.7028 C   0  0  0  0  0  0  0  0  0  0  0  0
   28.8267  -19.0979   -6.9370 C   0  0  0  0  0  0  0  0  0  0  0  0
   29.8944  -19.9438   -6.7626 C   0  0  0  0  0  0  0  0  0  0  0  0
   29.9097  -21.1953   -7.3524 C   0  0  0  0  0  0  0  0  0  0  0  0
   28.8368  -21.5835   -8.1207 C   0  0  0  0  0  0  0  0  0  0  0  0
   27.7700  -20.7471   -8.3003 C   0  0  0  0  0  0  0  0  0  0  0  0
   24.6815  -20.5634  -11.2902 C   0  0  0  0  0  0  0  0  0  0  0  0
   23.3115  -20.8624  -11.1232 O   0  0  0  0  0  0  0  0  0  0  0  0
   24.9117  -19.3522  -11.5280 O   0  0  0  0  0  0  0  0  0  0  0  0
  2  1  1  6
  3  2  1  0
  4  2  1  0
  4  5  1  1
  6  4  1  0
  7  6  2  0
  8  6  1  0
  9  8  1  0
 10  9  1  0
 10 12  1  0
 11 10  2  0
 13 12  1  0
 13 14  1  1
 15 14  1  0
 15 16  2  0
 17 16  1  0
 18 17  1  0
 19 18  2  0
 20 19  1  0
 21 20  2  0
 21 22  1  0
 22 23  2  0
 23 18  1  0
 23 15  1  0
 24 25  1  0
 24 13  1  0
 26 24  2  0
M  END
$$$$
