TGW.pdb
     RDKit          3D

 26 27  0  0  1  0  0  0  0  0999 V2000
   29.1011  -18.3898  -18.8674 C   0  0  0  0  0  0  0  0  0  0  0  0
   28.2132  -18.0859  -17.6937 C   0  0  1  0  0  0  0  0  0  0  0  0
   26.8509  -18.2108  -18.0074 O   0  0  0  0  0  0  0  0  0  0  0  0
   28.5789  -18.8859  -16.4596 C   0  0  2  0  0  0  0  0  0  0  0  0
   28.3349  -20.2798  -16.7815 N   0  0  0  0  0  0  0  0  0  0  0  0
   27.7856  -18.5313  -15.2831 C   0  0  0  0  0  0  0  0  0  0  0  0
   27.9349  -17.4103  -14.6925 O   0  0  0  0  0  0  0  0  0  0  0  0
   26.7971  -19.3844  -14.7025 N   0  0  0  0  0  0  0  0  0  0  0  0
   26.0654  -19.0127  -13.5302 C   0  0  0  0  0  0  0  0  0  0  0  0
   26.2257  -19.9355  -12.3947 C   0  0  0  0  0  0  0  0  0  0  0  0
   26.5007  -21.1547  -12.5091 O   0  0  0  0  0  0  0  0  0  0  0  0
   26.0588  -19.4111  -11.0898 N   0  0  0  0  0  0  0  0  0  0  0  0
   26.2820  -20.2257   -9.8948 C   0  0  1  0  0  0  0  0  0  0  0  0
   26.6385  -19.3031   -8.7899 C   0  0  0  0  0  0  0  0  0  0  0  0
   26.7877  -19.9942   -7.5042 C   0  0  0  0  0  0  0  0  0  0  0  0
   25.9612  -21.0244   -7.0649 C   0  0  0  0  0  0  0  0  0  0  0  0
   26.3556  -21.3849   -5.8563 N   0  0  0  0  0  0  0  0  0  0  0  0
   27.4089  -20.6588   -5.4414 C   0  0  0  0  0  0  0  0  0  0  0  0
   28.1676  -20.6631   -4.3053 C   0  0  0  0  0  0  0  0  0  0  0  0
   29.2179  -19.7854   -4.1921 C   0  0  0  0  0  0  0  0  0  0  0  0
   29.5140  -18.9004   -5.2135 C   0  0  0  0  0  0  0  0  0  0  0  0
   28.7387  -18.9098   -6.3496 C   0  0  0  0  0  0  0  0  0  0  0  0
   27.6906  -19.7797   -6.4704 C   0  0  0  0  0  0  0  0  0  0  0  0
   25.1045  -21.0731   -9.7150 C   0  0  0  0  0  0  0  0  0  0  0  0
   25.2253  -22.4487   -9.4196 O   0  0  0  0  0  0  0  0  0  0  0  0
   23.9170  -20.6748   -9.8024 O   0  0  0  0  0  0  0  0  0  0  0  0
  2  1  1  6
  3  2  1  0
  4  2  1  0
  4  5  1  6
  6  4  1  0
  7  6  2  0
  8  6  1  0
  9  8  1  0
 10  9  1  0
 10 12  1  0
 11 10  2  0
 13 12  1  0
 13 14  1  1
 15 14  1  0
 15 16  2  0
 17 16  1  0
 18 17  1  0
 19 18  2  0
 20 19  1  0
 21 20  2  0
 21 22  1  0
 22 23  2  0
 23 18  1  0
 23 15  1  0
 24 25  1  0
 24 13  1  0
 26 24  2  0
M  END
$$$$
