TGW.pdb
     RDKit          3D

 26 27  0  0  1  0  0  0  0  0999 V2000
   31.1701  -30.4206  -16.6529 C   0  0  0  0  0  0  0  0  0  0  0  0
   29.6904  -30.6489  -16.5226 C   0  0  1  0  0  0  0  0  0  0  0  0
   28.9475  -29.4783  -16.7410 O   0  0  0  0  0  0  0  0  0  0  0  0
   29.1962  -31.7940  -17.3835 C   0  0  2  0  0  0  0  0  0  0  0  0
   29.3562  -31.3746  -18.7635 N   0  0  0  0  0  0  0  0  0  0  0  0
   27.7902  -32.1258  -17.1550 C   0  0  0  0  0  0  0  0  0  0  0  0
   26.9752  -32.2757  -18.1251 O   0  0  0  0  0  0  0  0  0  0  0  0
   27.2152  -32.3075  -15.8594 N   0  0  0  0  0  0  0  0  0  0  0  0
   25.8190  -32.5617  -15.6758 C   0  0  0  0  0  0  0  0  0  0  0  0
   25.4309  -32.8524  -14.2860 C   0  0  0  0  0  0  0  0  0  0  0  0
   26.2406  -32.9442  -13.3314 O   0  0  0  0  0  0  0  0  0  0  0  0
   24.0544  -33.0398  -14.0107 N   0  0  0  0  0  0  0  0  0  0  0  0
   23.5480  -33.1525  -12.6424 C   0  0  1  0  0  0  0  0  0  0  0  0
   22.7310  -31.9449  -12.3716 C   0  0  0  0  0  0  0  0  0  0  0  0
   21.5292  -31.8774  -13.2106 C   0  0  0  0  0  0  0  0  0  0  0  0
   20.4181  -32.7022  -13.0600 C   0  0  0  0  0  0  0  0  0  0  0  0
   19.5439  -32.3952  -14.0022 N   0  0  0  0  0  0  0  0  0  0  0  0
   19.9935  -31.4036  -14.7918 C   0  0  0  0  0  0  0  0  0  0  0  0
   19.4668  -30.7397  -15.8632 C   0  0  0  0  0  0  0  0  0  0  0  0
   20.1887  -29.7317  -16.4538 C   0  0  0  0  0  0  0  0  0  0  0  0
   21.4396  -29.3832  -15.9760 C   0  0  0  0  0  0  0  0  0  0  0  0
   21.9544  -30.0633  -14.8969 C   0  0  0  0  0  0  0  0  0  0  0  0
   21.2426  -31.0688  -14.3033 C   0  0  0  0  0  0  0  0  0  0  0  0
   22.8921  -34.4535  -12.5229 C   0  0  0  0  0  0  0  0  0  0  0  0
   22.6793  -35.0581  -11.2646 O   0  0  0  0  0  0  0  0  0  0  0  0
   22.4704  -35.1332  -13.4908 O   0  0  0  0  0  0  0  0  0  0  0  0
  2  1  1  6
  3  2  1  0
  4  2  1  0
  4  5  1  6
  6  4  1  0
  7  6  2  0
  8  6  1  0
  9  8  1  0
 10  9  1  0
 10 12  1  0
 11 10  2  0
 13 12  1  0
 13 14  1  6
 15 14  1  0
 15 16  2  0
 17 16  1  0
 18 17  1  0
 19 18  2  0
 20 19  1  0
 21 20  2  0
 21 22  1  0
 22 23  2  0
 23 18  1  0
 23 15  1  0
 24 25  1  0
 24 13  1  0
 26 24  2  0
M  END
$$$$
