TGW.pdb
     RDKit          3D

 26 27  0  0  1  0  0  0  0  0999 V2000
   27.3967  -21.6874  -18.3985 C   0  0  0  0  0  0  0  0  0  0  0  0
   27.2629  -20.9262  -17.1097 C   0  0  1  0  0  0  0  0  0  0  0  0
   26.2676  -19.9386  -17.1729 O   0  0  0  0  0  0  0  0  0  0  0  0
   27.0759  -21.8332  -15.9102 C   0  0  2  0  0  0  0  0  0  0  0  0
   25.7538  -22.4185  -16.0348 N   0  0  0  0  0  0  0  0  0  0  0  0
   27.1567  -21.1273  -14.6318 C   0  0  0  0  0  0  0  0  0  0  0  0
   28.2727  -20.7241  -14.1632 O   0  0  0  0  0  0  0  0  0  0  0  0
   26.0240  -20.8321  -13.8120 N   0  0  0  0  0  0  0  0  0  0  0  0
   26.1437  -20.1170  -12.5783 C   0  0  0  0  0  0  0  0  0  0  0  0
   25.7228  -20.8779  -11.3906 C   0  0  0  0  0  0  0  0  0  0  0  0
   25.3845  -22.0863  -11.4097 O   0  0  0  0  0  0  0  0  0  0  0  0
   25.6993  -20.2004  -10.1472 N   0  0  0  0  0  0  0  0  0  0  0  0
   25.2156  -20.8438   -8.9251 C   0  0  1  0  0  0  0  0  0  0  0  0
   25.7341  -20.0610   -7.7773 C   0  0  0  0  0  0  0  0  0  0  0  0
   27.1687  -20.2716   -7.5532 C   0  0  0  0  0  0  0  0  0  0  0  0
   28.0062  -20.9668   -8.4210 C   0  0  0  0  0  0  0  0  0  0  0  0
   29.2170  -20.9968   -7.8926 N   0  0  0  0  0  0  0  0  0  0  0  0
   29.2574  -20.3594   -6.7090 C   0  0  0  0  0  0  0  0  0  0  0  0
   30.2524  -20.1087   -5.8071 C   0  0  0  0  0  0  0  0  0  0  0  0
   29.9684  -19.3908   -4.6713 C   0  0  0  0  0  0  0  0  0  0  0  0
   28.6893  -18.9207   -4.4324 C   0  0  0  0  0  0  0  0  0  0  0  0
   27.6999  -19.1834   -5.3511 C   0  0  0  0  0  0  0  0  0  0  0  0
   27.9738  -19.8982   -6.4844 C   0  0  0  0  0  0  0  0  0  0  0  0
   23.7658  -20.9851   -9.0477 C   0  0  0  0  0  0  0  0  0  0  0  0
   23.0391  -21.8675   -8.2185 O   0  0  0  0  0  0  0  0  0  0  0  0
   23.0535  -20.3591   -9.8707 O   0  0  0  0  0  0  0  0  0  0  0  0
  2  1  1  6
  3  2  1  0
  4  2  1  0
  4  5  1  6
  6  4  1  0
  7  6  2  0
  8  6  1  0
  9  8  1  0
 10  9  1  0
 10 12  1  0
 11 10  2  0
 13 12  1  0
 13 14  1  1
 15 14  1  0
 15 16  2  0
 17 16  1  0
 18 17  1  0
 19 18  2  0
 20 19  1  0
 21 20  2  0
 21 22  1  0
 22 23  2  0
 23 18  1  0
 23 15  1  0
 24 25  1  0
 24 13  1  0
 26 24  2  0
M  END
$$$$
