TGW.pdb
     RDKit          3D

 26 27  0  0  1  0  0  0  0  0999 V2000
   24.5177  -19.9731  -17.0776 C   0  0  0  0  0  0  0  0  0  0  0  0
   25.6048  -20.7784  -17.7320 C   0  0  1  0  0  0  0  0  0  0  0  0
   26.5481  -19.9710  -18.3863 O   0  0  0  0  0  0  0  0  0  0  0  0
   26.2672  -21.7523  -16.7784 C   0  0  2  0  0  0  0  0  0  0  0  0
   25.2309  -22.6641  -16.3305 N   0  0  0  0  0  0  0  0  0  0  0  0
   26.8594  -21.1052  -15.6080 C   0  0  0  0  0  0  0  0  0  0  0  0
   28.0940  -20.7851  -15.5774 O   0  0  0  0  0  0  0  0  0  0  0  0
   26.1295  -20.7807  -14.4230 N   0  0  0  0  0  0  0  0  0  0  0  0
   26.7300  -20.0840  -13.3268 C   0  0  0  0  0  0  0  0  0  0  0  0
   26.4873  -20.6962  -12.0104 C   0  0  0  0  0  0  0  0  0  0  0  0
   26.2518  -21.9159  -11.8316 O   0  0  0  0  0  0  0  0  0  0  0  0
   26.5227  -19.8522  -10.8736 N   0  0  0  0  0  0  0  0  0  0  0  0
   26.3567  -20.3751   -9.5170 C   0  0  1  0  0  0  0  0  0  0  0  0
   26.8490  -19.3374   -8.5789 C   0  0  0  0  0  0  0  0  0  0  0  0
   26.7649  -19.7598   -7.1763 C   0  0  0  0  0  0  0  0  0  0  0  0
   25.6568  -20.3813   -6.6076 C   0  0  0  0  0  0  0  0  0  0  0  0
   25.9084  -20.5850   -5.3264 N   0  0  0  0  0  0  0  0  0  0  0  0
   27.1297  -20.1377   -4.9838 C   0  0  0  0  0  0  0  0  0  0  0  0
   27.8383  -20.1335   -3.8158 C   0  0  0  0  0  0  0  0  0  0  0  0
   29.1065  -19.6067   -3.7980 C   0  0  0  0  0  0  0  0  0  0  0  0
   29.6713  -19.0822   -4.9469 C   0  0  0  0  0  0  0  0  0  0  0  0
   28.9427  -19.0942   -6.1136 C   0  0  0  0  0  0  0  0  0  0  0  0
   27.6790  -19.6161   -6.1401 C   0  0  0  0  0  0  0  0  0  0  0  0
   24.9667  -20.8062   -9.3798 C   0  0  0  0  0  0  0  0  0  0  0  0
   24.6156  -21.9183   -8.5833 O   0  0  0  0  0  0  0  0  0  0  0  0
   23.9875  -20.2503   -9.9356 O   0  0  0  0  0  0  0  0  0  0  0  0
  2  1  1  1
  3  2  1  0
  4  2  1  0
  4  5  1  1
  6  4  1  0
  7  6  2  0
  8  6  1  0
  9  8  1  0
 10  9  1  0
 10 12  1  0
 11 10  2  0
 13 12  1  0
 13 14  1  1
 15 14  1  0
 15 16  2  0
 17 16  1  0
 18 17  1  0
 19 18  2  0
 20 19  1  0
 21 20  2  0
 21 22  1  0
 22 23  2  0
 23 18  1  0
 23 15  1  0
 24 25  1  0
 24 13  1  0
 26 24  2  0
M  END
$$$$
