TGW.pdb
     RDKit          3D

 26 27  0  0  1  0  0  0  0  0999 V2000
   27.6573  -21.0793  -18.9702 C   0  0  0  0  0  0  0  0  0  0  0  0
   28.0730  -21.0969  -17.5261 C   0  0  1  0  0  0  0  0  0  0  0  0
   28.9640  -20.0586  -17.2134 O   0  0  0  0  0  0  0  0  0  0  0  0
   26.8920  -21.1259  -16.5769 C   0  0  2  0  0  0  0  0  0  0  0  0
   26.1490  -19.8997  -16.8016 N   0  0  0  0  0  0  0  0  0  0  0  0
   27.2821  -21.1855  -15.1685 C   0  0  0  0  0  0  0  0  0  0  0  0
   27.7671  -22.2485  -14.6563 O   0  0  0  0  0  0  0  0  0  0  0  0
   27.1594  -20.0884  -14.2610 N   0  0  0  0  0  0  0  0  0  0  0  0
   27.5859  -20.1774  -12.8980 C   0  0  0  0  0  0  0  0  0  0  0  0
   26.6082  -20.8049  -11.9941 C   0  0  0  0  0  0  0  0  0  0  0  0
   25.5218  -21.3090  -12.3694 O   0  0  0  0  0  0  0  0  0  0  0  0
   26.9158  -20.8412  -10.6121 N   0  0  0  0  0  0  0  0  0  0  0  0
   26.0206  -21.4650   -9.6370 C   0  0  1  0  0  0  0  0  0  0  0  0
   26.8252  -21.7710   -8.4294 C   0  0  0  0  0  0  0  0  0  0  0  0
   27.1960  -20.5660   -7.6788 C   0  0  0  0  0  0  0  0  0  0  0  0
   26.7891  -19.2769   -8.0106 C   0  0  0  0  0  0  0  0  0  0  0  0
   27.3352  -18.4359   -7.1499 N   0  0  0  0  0  0  0  0  0  0  0  0
   28.0949  -19.0772   -6.2441 C   0  0  0  0  0  0  0  0  0  0  0  0
   28.8322  -18.6642   -5.1707 C   0  0  0  0  0  0  0  0  0  0  0  0
   29.4955  -19.5950   -4.4094 C   0  0  0  0  0  0  0  0  0  0  0  0
   29.4245  -20.9420   -4.7175 C   0  0  0  0  0  0  0  0  0  0  0  0
   28.6781  -21.3394   -5.8024 C   0  0  0  0  0  0  0  0  0  0  0  0
   28.0151  -20.4191   -6.5663 C   0  0  0  0  0  0  0  0  0  0  0  0
   24.8657  -20.5837   -9.4747 C   0  0  0  0  0  0  0  0  0  0  0  0
   23.6581  -21.0487   -8.9091 O   0  0  0  0  0  0  0  0  0  0  0  0
   24.8368  -19.3740   -9.8097 O   0  0  0  0  0  0  0  0  0  0  0  0
  2  1  1  6
  3  2  1  0
  4  2  1  0
  4  5  1  1
  6  4  1  0
  7  6  2  0
  8  6  1  0
  9  8  1  0
 10  9  1  0
 10 12  1  0
 11 10  2  0
 13 12  1  0
 13 14  1  1
 15 14  1  0
 15 16  2  0
 17 16  1  0
 18 17  1  0
 19 18  2  0
 20 19  1  0
 21 20  2  0
 21 22  1  0
 22 23  2  0
 23 18  1  0
 23 15  1  0
 24 25  1  0
 24 13  1  0
 26 24  2  0
M  END
$$$$
