TGW.pdb
     RDKit          3D

 26 27  0  0  1  0  0  0  0  0999 V2000
   24.5928  -18.3255  -17.9173 C   0  0  0  0  0  0  0  0  0  0  0  0
   25.2127  -18.9187  -16.6834 C   0  0  1  0  0  0  0  0  0  0  0  0
   24.4630  -19.9882  -16.1698 O   0  0  0  0  0  0  0  0  0  0  0  0
   26.6661  -19.2987  -16.8827 C   0  0  2  0  0  0  0  0  0  0  0  0
   26.6883  -20.3358  -17.8975 N   0  0  0  0  0  0  0  0  0  0  0  0
   27.3011  -19.8158  -15.6708 C   0  0  0  0  0  0  0  0  0  0  0  0
   27.5991  -21.0504  -15.5501 O   0  0  0  0  0  0  0  0  0  0  0  0
   27.6371  -19.0079  -14.5409 N   0  0  0  0  0  0  0  0  0  0  0  0
   28.2800  -19.5495  -13.3829 C   0  0  0  0  0  0  0  0  0  0  0  0
   27.3704  -20.2196  -12.4394 C   0  0  0  0  0  0  0  0  0  0  0  0
   26.1748  -20.5049  -12.6932 O   0  0  0  0  0  0  0  0  0  0  0  0
   27.8797  -20.5641  -11.1636 N   0  0  0  0  0  0  0  0  0  0  0  0
   27.0461  -21.2040  -10.1453 C   0  0  1  0  0  0  0  0  0  0  0  0
   27.9232  -21.5277   -8.9941 C   0  0  0  0  0  0  0  0  0  0  0  0
   27.4761  -20.8937   -7.7488 C   0  0  0  0  0  0  0  0  0  0  0  0
   26.1487  -20.6029   -7.4473 C   0  0  0  0  0  0  0  0  0  0  0  0
   26.1132  -20.0032   -6.2703 N   0  0  0  0  0  0  0  0  0  0  0  0
   27.3443  -19.8665   -5.7462 C   0  0  0  0  0  0  0  0  0  0  0  0
   27.8178  -19.3425   -4.5768 C   0  0  0  0  0  0  0  0  0  0  0  0
   29.1667  -19.3742   -4.3206 C   0  0  0  0  0  0  0  0  0  0  0  0
   30.0474  -19.9296   -5.2318 C   0  0  0  0  0  0  0  0  0  0  0  0
   29.5527  -20.4517   -6.4042 C   0  0  0  0  0  0  0  0  0  0  0  0
   28.2111  -20.4236   -6.6677 C   0  0  0  0  0  0  0  0  0  0  0  0
   25.9031  -20.3266   -9.8989 C   0  0  0  0  0  0  0  0  0  0  0  0
   24.6323  -20.8474   -9.5701 O   0  0  0  0  0  0  0  0  0  0  0  0
   25.9394  -19.0727   -9.9535 O   0  0  0  0  0  0  0  0  0  0  0  0
  2  1  1  6
  3  2  1  0
  4  2  1  0
  4  5  1  6
  6  4  1  0
  7  6  2  0
  8  6  1  0
  9  8  1  0
 10  9  1  0
 10 12  1  0
 11 10  2  0
 13 12  1  0
 13 14  1  1
 15 14  1  0
 15 16  2  0
 17 16  1  0
 18 17  1  0
 19 18  2  0
 20 19  1  0
 21 20  2  0
 21 22  1  0
 22 23  2  0
 23 18  1  0
 23 15  1  0
 24 25  1  0
 24 13  1  0
 26 24  2  0
M  END
$$$$
