TGW.pdb
     RDKit          3D

 26 27  0  0  1  0  0  0  0  0999 V2000
   25.0571  -20.8051  -16.2505 C   0  0  0  0  0  0  0  0  0  0  0  0
   26.3257  -21.2795  -16.9018 C   0  0  1  0  0  0  0  0  0  0  0  0
   26.2274  -21.3146  -18.3014 O   0  0  0  0  0  0  0  0  0  0  0  0
   27.5444  -20.5028  -16.4457 C   0  0  2  0  0  0  0  0  0  0  0  0
   28.6901  -21.1062  -17.1009 N   0  0  0  0  0  0  0  0  0  0  0  0
   27.7537  -20.5504  -14.9989 C   0  0  0  0  0  0  0  0  0  0  0  0
   28.2324  -21.5867  -14.4290 O   0  0  0  0  0  0  0  0  0  0  0  0
   27.4497  -19.4700  -14.1142 N   0  0  0  0  0  0  0  0  0  0  0  0
   27.6982  -19.5464  -12.7070 C   0  0  0  0  0  0  0  0  0  0  0  0
   26.6973  -20.3189  -11.9533 C   0  0  0  0  0  0  0  0  0  0  0  0
   25.7000  -20.8776  -12.4716 O   0  0  0  0  0  0  0  0  0  0  0  0
   26.8735  -20.4384  -10.5532 N   0  0  0  0  0  0  0  0  0  0  0  0
   26.0156  -21.2977   -9.7365 C   0  0  1  0  0  0  0  0  0  0  0  0
   26.7640  -21.6223   -8.4981 C   0  0  0  0  0  0  0  0  0  0  0  0
   26.9479  -20.4552   -7.6282 C   0  0  0  0  0  0  0  0  0  0  0  0
   26.4514  -19.1841   -7.9027 C   0  0  0  0  0  0  0  0  0  0  0  0
   26.8339  -18.3719   -6.9330 N   0  0  0  0  0  0  0  0  0  0  0  0
   27.5658  -19.0160   -6.0065 C   0  0  0  0  0  0  0  0  0  0  0  0
   28.1593  -18.6291   -4.8384 C   0  0  0  0  0  0  0  0  0  0  0  0
   28.8365  -19.5573   -4.0861 C   0  0  0  0  0  0  0  0  0  0  0  0
   28.9231  -20.8753   -4.4979 C   0  0  0  0  0  0  0  0  0  0  0  0
   28.3201  -21.2465   -5.6772 C   0  0  0  0  0  0  0  0  0  0  0  0
   27.6444  -20.3286   -6.4328 C   0  0  0  0  0  0  0  0  0  0  0  0
   24.7280  -20.6211   -9.5909 C   0  0  0  0  0  0  0  0  0  0  0  0
   23.6128  -21.2746   -9.0220 O   0  0  0  0  0  0  0  0  0  0  0  0
   24.4978  -19.4383   -9.9439 O   0  0  0  0  0  0  0  0  0  0  0  0
  2  1  1  1
  3  2  1  0
  4  2  1  0
  4  5  1  6
  6  4  1  0
  7  6  2  0
  8  6  1  0
  9  8  1  0
 10  9  1  0
 10 12  1  0
 11 10  2  0
 13 12  1  0
 13 14  1  1
 15 14  1  0
 15 16  2  0
 17 16  1  0
 18 17  1  0
 19 18  2  0
 20 19  1  0
 21 20  2  0
 21 22  1  0
 22 23  2  0
 23 18  1  0
 23 15  1  0
 24 25  1  0
 24 13  1  0
 26 24  2  0
M  END
$$$$
