TGW.pdb
     RDKit          3D

 26 27  0  0  1  0  0  0  0  0999 V2000
   26.0765  -17.1957  -19.8169 C   0  0  0  0  0  0  0  0  0  0  0  0
   25.9325  -17.6521  -18.3924 C   0  0  1  0  0  0  0  0  0  0  0  0
   26.6407  -18.8364  -18.1362 O   0  0  0  0  0  0  0  0  0  0  0  0
   26.2761  -16.5670  -17.3919 C   0  0  2  0  0  0  0  0  0  0  0  0
   27.6811  -16.2576  -17.5817 N   0  0  0  0  0  0  0  0  0  0  0  0
   26.0698  -16.9738  -16.0022 C   0  0  0  0  0  0  0  0  0  0  0  0
   24.9063  -17.2409  -15.5522 O   0  0  0  0  0  0  0  0  0  0  0  0
   27.1238  -17.1062  -15.0463 N   0  0  0  0  0  0  0  0  0  0  0  0
   26.8923  -17.5958  -13.7218 C   0  0  0  0  0  0  0  0  0  0  0  0
   26.5043  -19.0142  -13.6564 C   0  0  0  0  0  0  0  0  0  0  0  0
   26.0545  -19.6685  -14.6284 O   0  0  0  0  0  0  0  0  0  0  0  0
   26.6493  -19.6814  -12.4157 N   0  0  0  0  0  0  0  0  0  0  0  0
   26.4483  -21.1250  -12.2860 C   0  0  1  0  0  0  0  0  0  0  0  0
   27.2143  -21.5741  -11.0983 C   0  0  0  0  0  0  0  0  0  0  0  0
   26.7147  -20.9866   -9.8500 C   0  0  0  0  0  0  0  0  0  0  0  0
   25.3723  -20.7343   -9.5821 C   0  0  0  0  0  0  0  0  0  0  0  0
   25.2869  -20.1699   -8.3902 N   0  0  0  0  0  0  0  0  0  0  0  0
   26.4979  -20.0213   -7.8242 C   0  0  0  0  0  0  0  0  0  0  0  0
   26.9231  -19.5211   -6.6262 C   0  0  0  0  0  0  0  0  0  0  0  0
   28.2639  -19.5302   -6.3289 C   0  0  0  0  0  0  0  0  0  0  0  0
   29.1847  -20.0392   -7.2274 C   0  0  0  0  0  0  0  0  0  0  0  0
   28.7383  -20.5379   -8.4292 C   0  0  0  0  0  0  0  0  0  0  0  0
   27.4051  -20.5319   -8.7336 C   0  0  0  0  0  0  0  0  0  0  0  0
   25.0072  -21.3700  -12.2936 C   0  0  0  0  0  0  0  0  0  0  0  0
   24.4768  -22.6343  -12.6318 O   0  0  0  0  0  0  0  0  0  0  0  0
   24.1347  -20.5124  -12.0108 O   0  0  0  0  0  0  0  0  0  0  0  0
  2  1  1  6
  3  2  1  0
  4  2  1  0
  4  5  1  1
  6  4  1  0
  7  6  2  0
  8  6  1  0
  9  8  1  0
 10  9  1  0
 10 12  1  0
 11 10  2  0
 13 12  1  0
 13 14  1  1
 15 14  1  0
 15 16  2  0
 17 16  1  0
 18 17  1  0
 19 18  2  0
 20 19  1  0
 21 20  2  0
 21 22  1  0
 22 23  2  0
 23 18  1  0
 23 15  1  0
 24 25  1  0
 24 13  1  0
 26 24  2  0
M  END
$$$$
