TGW.pdb
     RDKit          3D

 26 27  0  0  1  0  0  0  0  0999 V2000
   23.6708  -16.2296  -18.3678 C   0  0  0  0  0  0  0  0  0  0  0  0
   24.9747  -16.7727  -17.8545 C   0  0  1  0  0  0  0  0  0  0  0  0
   26.0225  -15.8461  -17.9702 O   0  0  0  0  0  0  0  0  0  0  0  0
   24.8667  -17.3223  -16.4463 C   0  0  2  0  0  0  0  0  0  0  0  0
   24.5785  -16.1933  -15.5813 N   0  0  0  0  0  0  0  0  0  0  0  0
   26.0939  -17.9677  -15.9806 C   0  0  0  0  0  0  0  0  0  0  0  0
   26.4422  -19.1198  -16.4035 O   0  0  0  0  0  0  0  0  0  0  0  0
   26.9914  -17.3831  -15.0346 N   0  0  0  0  0  0  0  0  0  0  0  0
   27.0973  -17.8618  -13.6902 C   0  0  0  0  0  0  0  0  0  0  0  0
   26.9863  -19.3233  -13.5542 C   0  0  0  0  0  0  0  0  0  0  0  0
   27.0244  -20.1269  -14.5174 O   0  0  0  0  0  0  0  0  0  0  0  0
   26.8268  -19.8544  -12.2510 N   0  0  0  0  0  0  0  0  0  0  0  0
   26.7543  -21.2954  -12.0069 C   0  0  1  0  0  0  0  0  0  0  0  0
   27.5404  -21.5772  -10.7814 C   0  0  0  0  0  0  0  0  0  0  0  0
   27.0359  -20.8534   -9.6091 C   0  0  0  0  0  0  0  0  0  0  0  0
   25.7475  -20.3384   -9.4977 C   0  0  0  0  0  0  0  0  0  0  0  0
   25.6484  -19.7188   -8.3347 N   0  0  0  0  0  0  0  0  0  0  0  0
   26.7987  -19.7806   -7.6404 C   0  0  0  0  0  0  0  0  0  0  0  0
   27.1845  -19.3212   -6.4131 C   0  0  0  0  0  0  0  0  0  0  0  0
   28.4590  -19.5738   -5.9681 C   0  0  0  0  0  0  0  0  0  0  0  0
   29.3526  -20.2864   -6.7477 C   0  0  0  0  0  0  0  0  0  0  0  0
   28.9470  -20.7405   -7.9811 C   0  0  0  0  0  0  0  0  0  0  0  0
   27.6800  -20.4927   -8.4322 C   0  0  0  0  0  0  0  0  0  0  0  0
   25.3412  -21.6696  -12.0049 C   0  0  0  0  0  0  0  0  0  0  0  0
   24.9369  -23.0204  -12.0852 O   0  0  0  0  0  0  0  0  0  0  0  0
   24.3864  -20.8572  -11.9342 O   0  0  0  0  0  0  0  0  0  0  0  0
  2  1  1  1
  3  2  1  0
  4  2  1  0
  4  5  1  1
  6  4  1  0
  7  6  2  0
  8  6  1  0
  9  8  1  0
 10  9  1  0
 10 12  1  0
 11 10  2  0
 13 12  1  0
 13 14  1  1
 15 14  1  0
 15 16  2  0
 17 16  1  0
 18 17  1  0
 19 18  2  0
 20 19  1  0
 21 20  2  0
 21 22  1  0
 22 23  2  0
 23 18  1  0
 23 15  1  0
 24 25  1  0
 24 13  1  0
 26 24  2  0
M  END
$$$$
