TGW.pdb
     RDKit          3D

 26 27  0  0  1  0  0  0  0  0999 V2000
   25.1661  -19.6976  -18.7493 C   0  0  0  0  0  0  0  0  0  0  0  0
   25.4764  -19.3312  -17.3252 C   0  0  1  0  0  0  0  0  0  0  0  0
   24.6839  -18.2698  -16.8613 O   0  0  0  0  0  0  0  0  0  0  0  0
   25.4216  -20.5215  -16.3887 C   0  0  2  0  0  0  0  0  0  0  0  0
   24.0703  -21.0455  -16.4626 N   0  0  0  0  0  0  0  0  0  0  0  0
   25.7152  -20.1781  -14.9976 C   0  0  0  0  0  0  0  0  0  0  0  0
   24.7840  -20.0205  -14.1399 O   0  0  0  0  0  0  0  0  0  0  0  0
   27.0361  -19.9926  -14.4849 N   0  0  0  0  0  0  0  0  0  0  0  0
   27.2796  -19.6437  -13.1186 C   0  0  0  0  0  0  0  0  0  0  0  0
   26.9249  -20.6937  -12.1499 C   0  0  0  0  0  0  0  0  0  0  0  0
   26.7291  -21.8960  -12.4520 O   0  0  0  0  0  0  0  0  0  0  0  0
   26.7973  -20.3206  -10.7896 N   0  0  0  0  0  0  0  0  0  0  0  0
   26.4604  -21.2932   -9.7495 C   0  0  1  0  0  0  0  0  0  0  0  0
   27.6529  -21.4441   -8.8811 C   0  0  0  0  0  0  0  0  0  0  0  0
   27.7397  -20.3982   -7.8557 C   0  0  0  0  0  0  0  0  0  0  0  0
   27.0900  -19.1693   -7.9294 C   0  0  0  0  0  0  0  0  0  0  0  0
   27.4187  -18.4626   -6.8622 N   0  0  0  0  0  0  0  0  0  0  0  0
   28.2584  -19.1394   -6.0587 C   0  0  0  0  0  0  0  0  0  0  0  0
   28.8536  -18.8537   -4.8626 C   0  0  0  0  0  0  0  0  0  0  0  0
   29.6640  -19.7916   -4.2712 C   0  0  0  0  0  0  0  0  0  0  0  0
   29.8827  -21.0183   -4.8725 C   0  0  0  0  0  0  0  0  0  0  0  0
   29.2758  -21.2882   -6.0770 C   0  0  0  0  0  0  0  0  0  0  0  0
   28.4680  -20.3598   -6.6733 C   0  0  0  0  0  0  0  0  0  0  0  0
   25.2173  -20.8503   -9.1204 C   0  0  0  0  0  0  0  0  0  0  0  0
   24.5382  -21.6581   -8.1821 O   0  0  0  0  0  0  0  0  0  0  0  0
   24.6548  -19.7504   -9.3450 O   0  0  0  0  0  0  0  0  0  0  0  0
  2  1  1  6
  3  2  1  0
  4  2  1  0
  4  5  1  1
  6  4  1  0
  7  6  2  0
  8  6  1  0
  9  8  1  0
 10  9  1  0
 10 12  1  0
 11 10  2  0
 13 12  1  0
 13 14  1  1
 15 14  1  0
 15 16  2  0
 17 16  1  0
 18 17  1  0
 19 18  2  0
 20 19  1  0
 21 20  2  0
 21 22  1  0
 22 23  2  0
 23 18  1  0
 23 15  1  0
 24 25  1  0
 24 13  1  0
 26 24  2  0
M  END
$$$$
