HSH.pdb
     RDKit          3D

 27 28  0  0  1  0  0  0  0  0999 V2000
    7.8632  -17.0622   19.5670 N   0  0  0  0  0  0  0  0  0  0  0  0
    8.4427  -16.1348   20.5052 C   0  0  1  0  0  0  0  0  0  0  0  0
    7.6245  -14.8843   20.5854 C   0  0  0  0  0  0  0  0  0  0  0  0
    7.7866  -14.1545   19.3003 C   0  0  0  0  0  0  0  0  0  0  0  0
    8.6059  -14.4605   18.2368 C   0  0  0  0  0  0  0  0  0  0  0  0
    8.4615  -13.5490   17.2578 N   0  0  0  0  0  0  0  0  0  0  0  0
    7.5491  -12.6702   17.7107 C   0  0  0  0  0  0  0  0  0  0  0  0
    7.1297  -13.0241   18.9494 N   0  0  0  0  0  0  0  0  0  0  0  0
    8.5774  -16.8200   21.8166 C   0  0  0  0  0  0  0  0  0  0  0  0
    7.6172  -16.9109   22.6313 O   0  0  0  0  0  0  0  0  0  0  0  0
   12.1912  -18.6414   22.9679 O   0  0  0  0  0  0  0  0  0  0  0  0
   11.0040  -19.1998   23.4491 C   0  0  0  0  0  0  0  0  0  0  0  0
    9.9657  -18.1315   23.4616 C   0  0  2  0  0  0  0  0  0  0  0  0
    9.8071  -17.4215   22.2397 N   0  0  0  0  0  0  0  0  0  0  0  0
   10.1795  -17.1863   24.6141 C   0  0  0  0  0  0  0  0  0  0  0  0
   11.0458  -16.2832   24.5697 O   0  0  0  0  0  0  0  0  0  0  0  0
    9.4029  -17.2847   25.7994 N   0  0  0  0  0  0  0  0  0  0  0  0
    9.7352  -16.5596   27.0235 C   0  0  1  0  0  0  0  0  0  0  0  0
    8.5835  -15.7545   27.5154 C   0  0  0  0  0  0  0  0  0  0  0  0
    8.1178  -14.7845   26.5065 C   0  0  0  0  0  0  0  0  0  0  0  0
    8.6510  -14.4835   25.2490 C   0  0  0  0  0  0  0  0  0  0  0  0
    7.9201  -13.5144   24.6640 N   0  0  0  0  0  0  0  0  0  0  0  0
    6.9401  -13.1955   25.5180 C   0  0  0  0  0  0  0  0  0  0  0  0
    7.0516  -13.9500   26.6208 N   0  0  0  0  0  0  0  0  0  0  0  0
   10.3160  -17.4511   28.0391 C   0  0  0  0  0  0  0  0  0  0  0  0
   10.4700  -18.7904   27.8161 O   0  0  0  0  0  0  0  0  0  0  0  0
   10.6749  -16.9631   29.1352 O   0  0  0  0  0  0  0  0  0  0  0  0
  2  1  1  6
  3  2  1  0
  3  4  1  0
  4  8  1  0
  5  4  2  0
  5  6  1  0
  6  7  1  0
  8  7  2  0
  9  2  1  0
  9 10  2  0
 11 12  1  0
 13 12  1  6
 13 15  1  0
 13 14  1  0
 14  9  1  0
 15 17  1  0
 16 15  2  0
 17 18  1  0
 18 19  1  1
 19 20  1  0
 20 21  2  0
 20 24  1  0
 21 22  1  0
 22 23  1  0
 24 23  2  0
 25 26  1  0
 25 18  1  0
 27 25  2  0
M  END
$$$$
