HSH.pdb
     RDKit          3D

 27 28  0  0  1  0  0  0  0  0999 V2000
   10.7009  -18.7077   18.7948 N   0  0  0  0  0  0  0  0  0  0  0  0
   11.5714  -17.7878   19.4818 C   0  0  1  0  0  0  0  0  0  0  0  0
   12.4528  -17.0684   18.5095 C   0  0  0  0  0  0  0  0  0  0  0  0
   13.3852  -18.0656   17.9208 C   0  0  0  0  0  0  0  0  0  0  0  0
   14.4520  -18.6998   18.5171 C   0  0  0  0  0  0  0  0  0  0  0  0
   15.0469  -19.5342   17.6452 N   0  0  0  0  0  0  0  0  0  0  0  0
   14.3498  -19.4212   16.5000 C   0  0  0  0  0  0  0  0  0  0  0  0
   13.3377  -18.5333   16.6514 N   0  0  0  0  0  0  0  0  0  0  0  0
   10.7322  -16.8656   20.2898 C   0  0  0  0  0  0  0  0  0  0  0  0
   10.9983  -15.6365   20.4028 O   0  0  0  0  0  0  0  0  0  0  0  0
    7.2674  -18.1721   22.4042 O   0  0  0  0  0  0  0  0  0  0  0  0
    7.3931  -16.8288   22.0403 C   0  0  0  0  0  0  0  0  0  0  0  0
    8.8455  -16.5180   21.9247 C   0  0  2  0  0  0  0  0  0  0  0  0
    9.5667  -17.3136   20.9924 N   0  0  0  0  0  0  0  0  0  0  0  0
    9.5085  -16.5321   23.2766 C   0  0  0  0  0  0  0  0  0  0  0  0
   10.2704  -17.4631   23.6238 O   0  0  0  0  0  0  0  0  0  0  0  0
    9.2930  -15.4851   24.2122 N   0  0  0  0  0  0  0  0  0  0  0  0
    9.8289  -15.5177   25.5709 C   0  0  1  0  0  0  0  0  0  0  0  0
    9.2687  -14.4222   26.4093 C   0  0  0  0  0  0  0  0  0  0  0  0
    9.7782  -14.4709   27.7927 C   0  0  0  0  0  0  0  0  0  0  0  0
   10.5727  -15.4396   28.4146 C   0  0  0  0  0  0  0  0  0  0  0  0
   10.7873  -15.0965   29.6998 N   0  0  0  0  0  0  0  0  0  0  0  0
   10.1501  -13.9377   29.9060 C   0  0  0  0  0  0  0  0  0  0  0  0
    9.5449  -13.5578   28.7714 N   0  0  0  0  0  0  0  0  0  0  0  0
    9.6981  -16.8540   26.1717 C   0  0  0  0  0  0  0  0  0  0  0  0
    8.5321  -17.5627   26.1008 O   0  0  0  0  0  0  0  0  0  0  0  0
   10.6851  -17.3479   26.7634 O   0  0  0  0  0  0  0  0  0  0  0  0
  2  1  1  6
  3  2  1  0
  3  4  1  0
  4  8  1  0
  5  4  2  0
  5  6  1  0
  6  7  1  0
  8  7  2  0
  9  2  1  0
  9 10  2  0
 11 12  1  0
 13 12  1  1
 13 15  1  0
 13 14  1  0
 14  9  1  0
 15 17  1  0
 16 15  2  0
 17 18  1  0
 18 19  1  1
 19 20  1  0
 20 21  2  0
 20 24  1  0
 21 22  1  0
 22 23  1  0
 24 23  2  0
 25 26  1  0
 25 18  1  0
 27 25  2  0
M  END
$$$$
