HSH.pdb
     RDKit          3D

 27 28  0  0  1  0  0  0  0  0999 V2000
   10.5760  -20.0713   18.2509 N   0  0  0  0  0  0  0  0  0  0  0  0
   11.0335  -18.9917   19.0883 C   0  0  1  0  0  0  0  0  0  0  0  0
   10.9054  -17.6811   18.3773 C   0  0  0  0  0  0  0  0  0  0  0  0
   12.1826  -17.4293   17.6593 C   0  0  0  0  0  0  0  0  0  0  0  0
   13.2827  -16.7204   18.0875 C   0  0  0  0  0  0  0  0  0  0  0  0
   14.2389  -16.7242   17.1410 N   0  0  0  0  0  0  0  0  0  0  0  0
   13.7351  -17.4377   16.1178 C   0  0  0  0  0  0  0  0  0  0  0  0
   12.4874  -17.8726   16.4172 N   0  0  0  0  0  0  0  0  0  0  0  0
   10.2699  -19.0329   20.3621 C   0  0  0  0  0  0  0  0  0  0  0  0
    9.0151  -18.8977   20.4005 O   0  0  0  0  0  0  0  0  0  0  0  0
   11.6360  -21.0660   23.6652 O   0  0  0  0  0  0  0  0  0  0  0  0
   10.2885  -20.7670   23.4469 C   0  0  0  0  0  0  0  0  0  0  0  0
   10.2108  -19.4021   22.8548 C   0  0  2  0  0  0  0  0  0  0  0  0
   10.9101  -19.2289   21.6288 N   0  0  0  0  0  0  0  0  0  0  0  0
   10.6117  -18.3554   23.8603 C   0  0  0  0  0  0  0  0  0  0  0  0
   11.7769  -17.8987   23.9025 O   0  0  0  0  0  0  0  0  0  0  0  0
    9.6788  -17.8451   24.8022 N   0  0  0  0  0  0  0  0  0  0  0  0
   10.0540  -16.9037   25.8545 C   0  0  1  0  0  0  0  0  0  0  0  0
    8.9352  -15.9805   26.1907 C   0  0  0  0  0  0  0  0  0  0  0  0
    8.5647  -15.1242   25.0484 C   0  0  0  0  0  0  0  0  0  0  0  0
    9.1626  -15.0132   23.7888 C   0  0  0  0  0  0  0  0  0  0  0  0
    8.5109  -14.0902   23.0546 N   0  0  0  0  0  0  0  0  0  0  0  0
    7.5180  -13.6157   23.8164 C   0  0  0  0  0  0  0  0  0  0  0  0
    7.5437  -14.2285   25.0087 N   0  0  0  0  0  0  0  0  0  0  0  0
   10.6264  -17.5953   27.0197 C   0  0  0  0  0  0  0  0  0  0  0  0
   11.2899  -16.9174   28.0032 O   0  0  0  0  0  0  0  0  0  0  0  0
   10.4997  -18.8383   27.1050 O   0  0  0  0  0  0  0  0  0  0  0  0
  2  1  1  6
  3  2  1  0
  3  4  1  0
  4  8  1  0
  5  4  2  0
  5  6  1  0
  6  7  1  0
  8  7  2  0
  9  2  1  0
  9 10  2  0
 11 12  1  0
 13 12  1  1
 13 15  1  0
 13 14  1  0
 14  9  1  0
 15 17  1  0
 16 15  2  0
 17 18  1  0
 18 19  1  1
 19 20  1  0
 20 21  2  0
 20 24  1  0
 21 22  1  0
 22 23  1  0
 24 23  2  0
 25 26  1  0
 25 18  1  0
 27 25  2  0
M  END
$$$$
