HSH.pdb
     RDKit          3D

 27 28  0  0  1  0  0  0  0  0999 V2000
   10.2212  -16.1940   19.8129 N   0  0  0  0  0  0  0  0  0  0  0  0
   10.0280  -15.6739   21.1426 C   0  0  1  0  0  0  0  0  0  0  0  0
    8.6102  -15.2366   21.3378 C   0  0  0  0  0  0  0  0  0  0  0  0
    8.2990  -14.2298   20.2891 C   0  0  0  0  0  0  0  0  0  0  0  0
    8.8089  -12.9594   20.1406 C   0  0  0  0  0  0  0  0  0  0  0  0
    8.2719  -12.3633   19.0605 N   0  0  0  0  0  0  0  0  0  0  0  0
    7.4235  -13.2638   18.5321 C   0  0  0  0  0  0  0  0  0  0  0  0
    7.4287  -14.4022   19.2667 N   0  0  0  0  0  0  0  0  0  0  0  0
   10.4492  -16.7139   22.1165 C   0  0  0  0  0  0  0  0  0  0  0  0
    9.8117  -17.7931   22.2681 O   0  0  0  0  0  0  0  0  0  0  0  0
   13.8935  -16.1793   24.3929 O   0  0  0  0  0  0  0  0  0  0  0  0
   13.5726  -17.5041   24.0850 C   0  0  0  0  0  0  0  0  0  0  0  0
   12.1103  -17.5702   23.8080 C   0  0  2  0  0  0  0  0  0  0  0  0
   11.6069  -16.5573   22.9461 N   0  0  0  0  0  0  0  0  0  0  0  0
   11.3218  -17.6332   25.0892 C   0  0  0  0  0  0  0  0  0  0  0  0
   10.9154  -16.5958   25.6609 O   0  0  0  0  0  0  0  0  0  0  0  0
   11.0085  -18.8771   25.6994 N   0  0  0  0  0  0  0  0  0  0  0  0
   10.3891  -18.9754   27.0190 C   0  0  1  0  0  0  0  0  0  0  0  0
    9.3870  -20.0752   27.0753 C   0  0  0  0  0  0  0  0  0  0  0  0
    8.2938  -19.8754   26.1054 C   0  0  0  0  0  0  0  0  0  0  0  0
    8.0400  -18.7885   25.2623 C   0  0  0  0  0  0  0  0  0  0  0  0
    6.9171  -19.0147   24.5527 N   0  0  0  0  0  0  0  0  0  0  0  0
    6.4553  -20.2145   24.9249 C   0  0  0  0  0  0  0  0  0  0  0  0
    7.2723  -20.7347   25.8521 N   0  0  0  0  0  0  0  0  0  0  0  0
   11.3987  -19.0340   28.0871 C   0  0  0  0  0  0  0  0  0  0  0  0
   11.0496  -19.0081   29.4079 O   0  0  0  0  0  0  0  0  0  0  0  0
   12.6079  -19.1078   27.7700 O   0  0  0  0  0  0  0  0  0  0  0  0
  2  1  1  6
  3  2  1  0
  3  4  1  0
  4  8  1  0
  5  4  2  0
  5  6  1  0
  6  7  1  0
  8  7  2  0
  9  2  1  0
  9 10  2  0
 11 12  1  0
 13 12  1  1
 13 15  1  0
 13 14  1  0
 14  9  1  0
 15 17  1  0
 16 15  2  0
 17 18  1  0
 18 19  1  6
 19 20  1  0
 20 21  2  0
 20 24  1  0
 21 22  1  0
 22 23  1  0
 24 23  2  0
 25 26  1  0
 25 18  1  0
 27 25  2  0
M  END
$$$$
