HSH.pdb
     RDKit          3D

 27 28  0  0  1  0  0  0  0  0999 V2000
    9.7913  -16.8014   16.6492 N   0  0  0  0  0  0  0  0  0  0  0  0
    9.1101  -16.0483   17.6714 C   0  0  1  0  0  0  0  0  0  0  0  0
    7.6689  -15.8587   17.3156 C   0  0  0  0  0  0  0  0  0  0  0  0
    7.6148  -15.1540   16.0076 C   0  0  0  0  0  0  0  0  0  0  0  0
    7.9288  -13.8435   15.7251 C   0  0  0  0  0  0  0  0  0  0  0  0
    7.7474  -13.5910   14.4160 N   0  0  0  0  0  0  0  0  0  0  0  0
    7.3186  -14.7473   13.8784 C   0  0  0  0  0  0  0  0  0  0  0  0
    7.2329  -15.7059   14.8320 N   0  0  0  0  0  0  0  0  0  0  0  0
    9.2958  -16.7480   18.9688 C   0  0  0  0  0  0  0  0  0  0  0  0
    8.7240  -16.3668   20.0281 O   0  0  0  0  0  0  0  0  0  0  0  0
   11.4218  -20.3057   21.4920 O   0  0  0  0  0  0  0  0  0  0  0  0
   11.4453  -19.6243   20.2722 C   0  0  0  0  0  0  0  0  0  0  0  0
   10.4420  -18.5250   20.3406 C   0  0  2  0  0  0  0  0  0  0  0  0
   10.1365  -17.9007   19.1000 N   0  0  0  0  0  0  0  0  0  0  0  0
   10.8295  -17.5062   21.3794 C   0  0  0  0  0  0  0  0  0  0  0  0
   10.9419  -16.2915   21.0968 O   0  0  0  0  0  0  0  0  0  0  0  0
   11.0831  -17.8871   22.7242 N   0  0  0  0  0  0  0  0  0  0  0  0
   10.5405  -17.1568   23.8673 C   0  0  1  0  0  0  0  0  0  0  0  0
    9.0762  -16.9263   23.7276 C   0  0  0  0  0  0  0  0  0  0  0  0
    8.7755  -15.5624   23.2531 C   0  0  0  0  0  0  0  0  0  0  0  0
    9.6479  -14.5066   22.9693 C   0  0  0  0  0  0  0  0  0  0  0  0
    8.9437  -13.4254   22.5809 N   0  0  0  0  0  0  0  0  0  0  0  0
    7.6508  -13.7700   22.6118 C   0  0  0  0  0  0  0  0  0  0  0  0
    7.5424  -15.0450   23.0123 N   0  0  0  0  0  0  0  0  0  0  0  0
   10.9262  -17.7829   25.1412 C   0  0  0  0  0  0  0  0  0  0  0  0
   10.4862  -19.0280   25.4921 O   0  0  0  0  0  0  0  0  0  0  0  0
   11.6763  -17.1516   25.9203 O   0  0  0  0  0  0  0  0  0  0  0  0
  2  1  1  6
  3  2  1  0
  3  4  1  0
  4  8  1  0
  5  4  2  0
  5  6  1  0
  6  7  1  0
  8  7  2  0
  9  2  1  0
  9 10  2  0
 11 12  1  0
 13 12  1  6
 13 15  1  0
 13 14  1  0
 14  9  1  0
 15 17  1  0
 16 15  2  0
 17 18  1  0
 18 19  1  6
 19 20  1  0
 20 21  2  0
 20 24  1  0
 21 22  1  0
 22 23  1  0
 24 23  2  0
 25 26  1  0
 25 18  1  0
 27 25  2  0
M  END
$$$$
