HSH.pdb
     RDKit          3D

 27 28  0  0  1  0  0  0  0  0999 V2000
    8.7330  -16.6566   20.3531 N   0  0  0  0  0  0  0  0  0  0  0  0
    8.8201  -15.7527   21.4717 C   0  0  1  0  0  0  0  0  0  0  0  0
    7.7193  -14.7402   21.4197 C   0  0  0  0  0  0  0  0  0  0  0  0
    7.8562  -13.9883   20.1445 C   0  0  0  0  0  0  0  0  0  0  0  0
    8.5385  -12.8158   19.9085 C   0  0  0  0  0  0  0  0  0  0  0  0
    8.4205  -12.4580   18.6169 N   0  0  0  0  0  0  0  0  0  0  0  0
    7.6621  -13.4098   18.0435 C   0  0  0  0  0  0  0  0  0  0  0  0
    7.3116  -14.3459   18.9580 N   0  0  0  0  0  0  0  0  0  0  0  0
    8.8063  -16.5547   22.7223 C   0  0  0  0  0  0  0  0  0  0  0  0
    7.7351  -16.8499   23.3220 O   0  0  0  0  0  0  0  0  0  0  0  0
   11.8500  -19.0713   23.7278 O   0  0  0  0  0  0  0  0  0  0  0  0
   10.6155  -19.1888   24.3719 C   0  0  0  0  0  0  0  0  0  0  0  0
   10.0412  -17.8218   24.5176 C   0  0  2  0  0  0  0  0  0  0  0  0
   10.0093  -17.0442   23.3274 N   0  0  0  0  0  0  0  0  0  0  0  0
   10.7130  -17.0721   25.6374 C   0  0  0  0  0  0  0  0  0  0  0  0
   11.8065  -16.4853   25.4704 O   0  0  0  0  0  0  0  0  0  0  0  0
   10.1285  -17.0025   26.9302 N   0  0  0  0  0  0  0  0  0  0  0  0
   10.8070  -16.3933   28.0717 C   0  0  1  0  0  0  0  0  0  0  0  0
    9.9230  -15.4335   28.7886 C   0  0  0  0  0  0  0  0  0  0  0  0
    9.3139  -14.4531   27.8701 C   0  0  0  0  0  0  0  0  0  0  0  0
    9.5068  -14.2826   26.4953 C   0  0  0  0  0  0  0  0  0  0  0  0
    8.7633  -13.2484   26.0556 N   0  0  0  0  0  0  0  0  0  0  0  0
    8.1065  -12.7615   27.1153 C   0  0  0  0  0  0  0  0  0  0  0  0
    8.4303  -13.4759   28.2027 N   0  0  0  0  0  0  0  0  0  0  0  0
   11.4150  -17.4093   28.9444 C   0  0  0  0  0  0  0  0  0  0  0  0
   12.1945  -17.0656   30.0126 O   0  0  0  0  0  0  0  0  0  0  0  0
   11.2097  -18.6192   28.6947 O   0  0  0  0  0  0  0  0  0  0  0  0
  2  1  1  6
  3  2  1  0
  3  4  1  0
  4  8  1  0
  5  4  2  0
  5  6  1  0
  6  7  1  0
  8  7  2  0
  9  2  1  0
  9 10  2  0
 11 12  1  0
 13 12  1  6
 13 15  1  0
 13 14  1  0
 14  9  1  0
 15 17  1  0
 16 15  2  0
 17 18  1  0
 18 19  1  1
 19 20  1  0
 20 21  2  0
 20 24  1  0
 21 22  1  0
 22 23  1  0
 24 23  2  0
 25 26  1  0
 25 18  1  0
 27 25  2  0
M  END
$$$$
