HSH.pdb
     RDKit          3D

 27 28  0  0  1  0  0  0  0  0999 V2000
   13.1740  -16.6821   14.5637 N   0  0  0  0  0  0  0  0  0  0  0  0
   13.7497  -16.4272   15.8597 C   0  0  1  0  0  0  0  0  0  0  0  0
   14.3408  -15.0534   15.9141 C   0  0  0  0  0  0  0  0  0  0  0  0
   15.6470  -15.0947   15.2052 C   0  0  0  0  0  0  0  0  0  0  0  0
   16.0179  -14.4428   14.0504 C   0  0  0  0  0  0  0  0  0  0  0  0
   17.2905  -14.7423   13.7325 N   0  0  0  0  0  0  0  0  0  0  0  0
   17.7166  -15.5841   14.6915 C   0  0  0  0  0  0  0  0  0  0  0  0
   16.7302  -15.8079   15.5929 N   0  0  0  0  0  0  0  0  0  0  0  0
   12.6993  -16.6433   16.8879 C   0  0  0  0  0  0  0  0  0  0  0  0
   11.5319  -16.1777   16.7672 O   0  0  0  0  0  0  0  0  0  0  0  0
   13.3983  -19.0687   20.2411 O   0  0  0  0  0  0  0  0  0  0  0  0
   12.0760  -18.9074   19.8189 C   0  0  0  0  0  0  0  0  0  0  0  0
   11.9776  -17.6042   19.1037 C   0  0  2  0  0  0  0  0  0  0  0  0
   12.9453  -17.3947   18.0829 N   0  0  0  0  0  0  0  0  0  0  0  0
   11.9592  -16.4557   20.0773 C   0  0  0  0  0  0  0  0  0  0  0  0
   12.3663  -15.3162   19.7552 O   0  0  0  0  0  0  0  0  0  0  0  0
   11.4773  -16.6233   21.4030 N   0  0  0  0  0  0  0  0  0  0  0  0
   10.7091  -15.5943   22.0998 C   0  0  1  0  0  0  0  0  0  0  0  0
    9.3778  -15.3801   21.4686 C   0  0  0  0  0  0  0  0  0  0  0  0
    9.4540  -14.4575   20.3202 C   0  0  0  0  0  0  0  0  0  0  0  0
   10.5670  -13.8167   19.7662 C   0  0  0  0  0  0  0  0  0  0  0  0
   10.1798  -13.0420   18.7339 N   0  0  0  0  0  0  0  0  0  0  0  0
    8.8530  -13.1764   18.6213 C   0  0  0  0  0  0  0  0  0  0  0  0
    8.4123  -14.0203   19.5654 N   0  0  0  0  0  0  0  0  0  0  0  0
   10.6478  -15.8523   23.5467 C   0  0  0  0  0  0  0  0  0  0  0  0
   10.4641  -14.8431   24.4493 O   0  0  0  0  0  0  0  0  0  0  0  0
   10.7696  -17.0300   23.9546 O   0  0  0  0  0  0  0  0  0  0  0  0
  2  1  1  6
  3  2  1  0
  3  4  1  0
  4  8  1  0
  5  4  2  0
  5  6  1  0
  6  7  1  0
  8  7  2  0
  9  2  1  0
  9 10  2  0
 11 12  1  0
 13 12  1  1
 13 15  1  0
 13 14  1  0
 14  9  1  0
 15 17  1  0
 16 15  2  0
 17 18  1  0
 18 19  1  6
 19 20  1  0
 20 21  2  0
 20 24  1  0
 21 22  1  0
 22 23  1  0
 24 23  2  0
 25 26  1  0
 25 18  1  0
 27 25  2  0
M  END
$$$$
