HSH.pdb
     RDKit          3D

 27 28  0  0  1  0  0  0  0  0999 V2000
   12.6020  -20.8406   17.0256 N   0  0  0  0  0  0  0  0  0  0  0  0
   12.7439  -21.7265   18.1529 C   0  0  1  0  0  0  0  0  0  0  0  0
   14.1446  -22.2455   18.2438 C   0  0  0  0  0  0  0  0  0  0  0  0
   14.3706  -23.1433   17.0805 C   0  0  0  0  0  0  0  0  0  0  0  0
   15.1486  -22.9245   15.9657 C   0  0  0  0  0  0  0  0  0  0  0  0
   15.0899  -23.9843   15.1391 N   0  0  0  0  0  0  0  0  0  0  0  0
   14.2726  -24.8687   15.7389 C   0  0  0  0  0  0  0  0  0  0  0  0
   13.8277  -24.3727   16.9186 N   0  0  0  0  0  0  0  0  0  0  0  0
   12.3193  -20.9977   19.3760 C   0  0  0  0  0  0  0  0  0  0  0  0
   12.2878  -19.7367   19.4324 O   0  0  0  0  0  0  0  0  0  0  0  0
    9.6392  -19.9915   22.8468 O   0  0  0  0  0  0  0  0  0  0  0  0
    9.9610  -20.6720   21.6695 C   0  0  0  0  0  0  0  0  0  0  0  0
   11.4065  -21.0285   21.7253 C   0  0  2  0  0  0  0  0  0  0  0  0
   11.9184  -21.6807   20.5700 N   0  0  0  0  0  0  0  0  0  0  0  0
   11.7205  -21.8105   22.9733 C   0  0  0  0  0  0  0  0  0  0  0  0
   11.3602  -23.0020   23.1087 O   0  0  0  0  0  0  0  0  0  0  0  0
   12.4401  -21.2227   24.0477 N   0  0  0  0  0  0  0  0  0  0  0  0
   12.6757  -21.9150   25.3125 C   0  0  1  0  0  0  0  0  0  0  0  0
   14.0220  -21.6039   25.8671 C   0  0  0  0  0  0  0  0  0  0  0  0
   15.1029  -21.9933   24.9420 C   0  0  0  0  0  0  0  0  0  0  0  0
   15.3326  -23.2184   24.3075 C   0  0  0  0  0  0  0  0  0  0  0  0
   16.4520  -23.1424   23.5613 N   0  0  0  0  0  0  0  0  0  0  0  0
   16.9350  -21.9028   23.7075 C   0  0  0  0  0  0  0  0  0  0  0  0
   16.1345  -21.2105   24.5308 N   0  0  0  0  0  0  0  0  0  0  0  0
   11.5746  -21.6949   26.2626 C   0  0  0  0  0  0  0  0  0  0  0  0
   11.5364  -22.3218   27.4761 O   0  0  0  0  0  0  0  0  0  0  0  0
   10.6505  -20.9122   25.9434 O   0  0  0  0  0  0  0  0  0  0  0  0
  2  1  1  6
  3  2  1  0
  3  4  1  0
  4  8  1  0
  5  4  2  0
  5  6  1  0
  6  7  1  0
  8  7  2  0
  9  2  1  0
  9 10  2  0
 11 12  1  0
 13 12  1  6
 13 15  1  0
 13 14  1  0
 14  9  1  0
 15 17  1  0
 16 15  2  0
 17 18  1  0
 18 19  1  1
 19 20  1  0
 20 21  2  0
 20 24  1  0
 21 22  1  0
 22 23  1  0
 24 23  2  0
 25 26  1  0
 25 18  1  0
 27 25  2  0
M  END
$$$$
