HSH.pdb
     RDKit          3D

 27 28  0  0  1  0  0  0  0  0999 V2000
    8.0576  -12.7077   17.0661 N   0  0  0  0  0  0  0  0  0  0  0  0
    8.2919  -14.0395   17.5635 C   0  0  1  0  0  0  0  0  0  0  0  0
    9.2758  -14.7613   16.6972 C   0  0  0  0  0  0  0  0  0  0  0  0
    8.6133  -15.0404   15.3959 C   0  0  0  0  0  0  0  0  0  0  0  0
    7.2747  -14.9688   15.0814 C   0  0  0  0  0  0  0  0  0  0  0  0
    7.0789  -15.2995   13.7920 N   0  0  0  0  0  0  0  0  0  0  0  0
    8.2990  -15.5788   13.2988 C   0  0  0  0  0  0  0  0  0  0  0  0
    9.2411  -15.4261   14.2603 N   0  0  0  0  0  0  0  0  0  0  0  0
    8.7354  -13.9385   18.9779 C   0  0  0  0  0  0  0  0  0  0  0  0
    9.6621  -13.1610   19.3398 O   0  0  0  0  0  0  0  0  0  0  0  0
    6.9259  -16.2082   22.0561 O   0  0  0  0  0  0  0  0  0  0  0  0
    7.5489  -15.0038   22.3940 C   0  0  0  0  0  0  0  0  0  0  0  0
    8.5931  -14.7232   21.3690 C   0  0  2  0  0  0  0  0  0  0  0  0
    8.1385  -14.7179   20.0216 N   0  0  0  0  0  0  0  0  0  0  0  0
    9.7748  -15.6408   21.5390 C   0  0  0  0  0  0  0  0  0  0  0  0
    9.8878  -16.6950   20.8727 O   0  0  0  0  0  0  0  0  0  0  0  0
   10.8096  -15.3432   22.4655 N   0  0  0  0  0  0  0  0  0  0  0  0
   11.9040  -16.2680   22.7509 C   0  0  1  0  0  0  0  0  0  0  0  0
   13.2318  -15.6110   22.6026 C   0  0  0  0  0  0  0  0  0  0  0  0
   13.5149  -15.2499   21.2007 C   0  0  0  0  0  0  0  0  0  0  0  0
   12.8421  -15.6230   20.0326 C   0  0  0  0  0  0  0  0  0  0  0  0
   13.4539  -15.0810   18.9614 N   0  0  0  0  0  0  0  0  0  0  0  0
   14.4944  -14.3761   19.4215 C   0  0  0  0  0  0  0  0  0  0  0  0
   14.5373  -14.4722   20.7582 N   0  0  0  0  0  0  0  0  0  0  0  0
   11.7157  -16.9462   24.0426 C   0  0  0  0  0  0  0  0  0  0  0  0
   12.5560  -17.9385   24.4623 O   0  0  0  0  0  0  0  0  0  0  0  0
   10.7570  -16.6008   24.7705 O   0  0  0  0  0  0  0  0  0  0  0  0
  2  1  1  6
  3  2  1  0
  3  4  1  0
  4  8  1  0
  5  4  2  0
  5  6  1  0
  6  7  1  0
  8  7  2  0
  9  2  1  0
  9 10  2  0
 11 12  1  0
 13 12  1  1
 13 15  1  0
 13 14  1  0
 14  9  1  0
 15 17  1  0
 16 15  2  0
 17 18  1  0
 18 19  1  1
 19 20  1  0
 20 21  2  0
 20 24  1  0
 21 22  1  0
 22 23  1  0
 24 23  2  0
 25 26  1  0
 25 18  1  0
 27 25  2  0
M  END
$$$$
