MRA.pdb
     RDKit          3D

 25 24  0  0  1  0  0  0  0  0999 V2000
   15.4111   -3.0647   -7.8476 C   0  0  0  0  0  0  0  0  0  0  0  0
   14.6385   -4.1940   -6.6479 S   0  0  0  0  0  0  0  0  0  0  0  0
   14.0123   -5.6556   -7.4686 C   0  0  0  0  0  0  0  0  0  0  0  0
   15.1205   -6.4887   -8.0154 C   0  0  0  0  0  0  0  0  0  0  0  0
   14.6800   -7.6582   -8.8568 C   0  0  2  0  0  0  0  0  0  0  0  0
   13.9835   -8.6619   -8.1229 N   0  0  0  0  0  0  0  0  0  0  0  0
   15.8714   -8.1864   -9.5753 C   0  0  0  0  0  0  0  0  0  0  0  0
   16.5792   -9.0406   -8.9939 O   0  0  0  0  0  0  0  0  0  0  0  0
   16.8074  -12.4615  -16.6959 N   0  0  0  0  0  0  0  0  0  0  0  0
   18.1013  -11.8672  -16.6828 C   0  0  0  0  0  0  0  0  0  0  0  0
   19.0172  -12.2943  -17.5007 N   0  0  0  0  0  0  0  0  0  0  0  0
   18.3645  -10.8212  -15.7791 N   0  0  0  0  0  0  0  0  0  0  0  0
   17.1554  -10.1833  -15.1412 C   0  0  0  0  0  0  0  0  0  0  0  0
   17.6342   -9.6642  -13.8431 C   0  0  0  0  0  0  0  0  0  0  0  0
   16.7751   -8.9889  -12.8745 C   0  0  0  0  0  0  0  0  0  0  0  0
   17.3496   -8.4766  -11.6244 C   0  0  2  0  0  0  0  0  0  0  0  0
   16.2432   -7.7769  -10.8707 N   0  0  0  0  0  0  0  0  0  0  0  0
   18.3119   -7.3754  -11.8762 C   0  0  0  0  0  0  0  0  0  0  0  0
   18.0656   -6.2094  -12.2058 O   0  0  0  0  0  0  0  0  0  0  0  0
   20.0037  -12.0056  -17.3573 C   0  0  0  0  0  0  0  0  0  0  0  0
   22.0779   -7.1723  -11.6090 C   0  0  1  0  0  0  0  0  0  0  0  0
   20.7167   -6.6110  -12.0068 N   0  0  0  0  0  0  0  0  0  0  0  0
   19.7250   -7.6472  -11.7316 C   0  0  0  0  0  0  0  0  0  0  0  0
   20.7405   -6.3685  -13.4554 O   0  0  0  0  0  0  0  0  0  0  0  0
   21.2857   -5.1821  -13.9498 O   0  0  0  0  0  0  0  0  0  0  0  0
  1  2  1  0
  2  3  1  0
  4  3  1  0
  5  4  1  0
  5  6  1  1
  7 17  1  0
  7  5  1  0
  8  7  2  0
  9 10  1  0
 10 12  1  0
 10 11  2  0
 12 13  1  0
 14 15  1  0
 14 13  1  0
 16 15  1  6
 16 17  1  0
 18 22  1  0
 18 16  1  0
 19 18  2  0
 21 20  1  1
 21 23  1  0
 21 22  1  0
 23 24  1  0
 25 23  2  0
M  END
$$$$
