MRA.pdb
     RDKit          3D

 25 24  0  0  1  0  0  0  0  0999 V2000
   21.2673  -11.6373    5.1361 C   0  0  0  0  0  0  0  0  0  0  0  0
   20.4531  -13.2422    5.4054 S   0  0  0  0  0  0  0  0  0  0  0  0
   18.7715  -13.2080    4.7947 C   0  0  0  0  0  0  0  0  0  0  0  0
   18.0785  -14.5049    5.0379 C   0  0  0  0  0  0  0  0  0  0  0  0
   16.7236  -14.6317    4.3914 C   0  0  2  0  0  0  0  0  0  0  0  0
   15.7389  -13.7662    4.9503 N   0  0  0  0  0  0  0  0  0  0  0  0
   16.3250  -16.0650    4.4290 C   0  0  0  0  0  0  0  0  0  0  0  0
   15.7613  -16.4928    5.4623 O   0  0  0  0  0  0  0  0  0  0  0  0
   17.1784  -22.9333    2.0990 N   0  0  0  0  0  0  0  0  0  0  0  0
   16.1933  -23.3105    1.1425 C   0  0  0  0  0  0  0  0  0  0  0  0
   16.2201  -24.5016    0.6222 N   0  0  0  0  0  0  0  0  0  0  0  0
   15.2026  -22.3802    0.7777 N   0  0  0  0  0  0  0  0  0  0  0  0
   15.6823  -20.9714    0.5305 C   0  0  0  0  0  0  0  0  0  0  0  0
   15.7133  -20.3359    1.8642 C   0  0  0  0  0  0  0  0  0  0  0  0
   16.1343  -18.9568    2.0945 C   0  0  0  0  0  0  0  0  0  0  0  0
   16.1034  -18.4034    3.4540 C   0  0  2  0  0  0  0  0  0  0  0  0
   16.5483  -16.9624    3.3666 N   0  0  0  0  0  0  0  0  0  0  0  0
   17.1490  -19.0099    4.3147 C   0  0  0  0  0  0  0  0  0  0  0  0
   18.3655  -18.7889    4.3054 O   0  0  0  0  0  0  0  0  0  0  0  0
   15.5421  -24.7474   -0.1241 C   0  0  0  0  0  0  0  0  0  0  0  0
   17.4526  -20.2268    7.5887 C   0  0  1  0  0  0  0  0  0  0  0  0
   17.7408  -20.6427    6.1500 N   0  0  0  0  0  0  0  0  0  0  0  0
   16.7482  -19.9863    5.3034 C   0  0  0  0  0  0  0  0  0  0  0  0
   17.5388  -22.0947    6.0566 O   0  0  0  0  0  0  0  0  0  0  0  0
   18.4120  -22.9591    6.7195 O   0  0  0  0  0  0  0  0  0  0  0  0
  1  2  1  0
  2  3  1  0
  4  3  1  0
  5  4  1  0
  5  6  1  1
  7 17  1  0
  7  5  1  0
  8  7  2  0
  9 10  1  0
 10 12  1  0
 10 11  2  0
 12 13  1  0
 14 15  1  0
 14 13  1  0
 16 15  1  6
 16 17  1  0
 18 22  1  0
 18 16  1  0
 19 18  2  0
 21 20  1  6
 21 23  1  0
 21 22  1  0
 23 24  1  0
 25 23  2  0
M  END
$$$$
