MRA.pdb
     RDKit          3D

 25 24  0  0  1  0  0  0  0  0999 V2000
   14.6230  -24.8390  -11.8992 C   0  0  0  0  0  0  0  0  0  0  0  0
   15.6267  -25.7337  -10.6731 S   0  0  0  0  0  0  0  0  0  0  0  0
   16.5487  -24.5878   -9.6540 C   0  0  0  0  0  0  0  0  0  0  0  0
   17.3363  -25.3019   -8.6094 C   0  0  0  0  0  0  0  0  0  0  0  0
   18.2030  -24.4168   -7.7521 C   0  0  2  0  0  0  0  0  0  0  0  0
   19.5744  -24.4087   -8.1401 N   0  0  0  0  0  0  0  0  0  0  0  0
   18.0044  -24.8109   -6.3308 C   0  0  0  0  0  0  0  0  0  0  0  0
   19.0211  -25.0052   -5.6258 O   0  0  0  0  0  0  0  0  0  0  0  0
   13.0993  -21.4357   -0.0001 N   0  0  0  0  0  0  0  0  0  0  0  0
   13.7573  -22.5497    0.5947 C   0  0  0  0  0  0  0  0  0  0  0  0
   13.6602  -22.7497    1.8756 N   0  0  0  0  0  0  0  0  0  0  0  0
   14.5041  -23.4189   -0.2220 N   0  0  0  0  0  0  0  0  0  0  0  0
   14.6807  -22.9847   -1.6560 C   0  0  0  0  0  0  0  0  0  0  0  0
   15.4298  -24.0831   -2.3010 C   0  0  0  0  0  0  0  0  0  0  0  0
   15.7978  -24.0917   -3.7141 C   0  0  0  0  0  0  0  0  0  0  0  0
   16.5911  -25.2031   -4.2531 C   0  0  2  0  0  0  0  0  0  0  0  0
   16.7368  -24.9765   -5.7395 N   0  0  0  0  0  0  0  0  0  0  0  0
   15.8453  -26.4848   -4.1961 C   0  0  0  0  0  0  0  0  0  0  0  0
   14.9586  -26.8845   -4.9597 O   0  0  0  0  0  0  0  0  0  0  0  0
   14.1196  -23.5785    2.2985 C   0  0  0  0  0  0  0  0  0  0  0  0
   16.1042  -29.5061   -1.9473 C   0  0  1  0  0  0  0  0  0  0  0  0
   15.3612  -28.6285   -2.9493 N   0  0  0  0  0  0  0  0  0  0  0  0
   16.1560  -27.4175   -3.1355 C   0  0  0  0  0  0  0  0  0  0  0  0
   14.0777  -28.2492   -2.3441 O   0  0  0  0  0  0  0  0  0  0  0  0
   13.0317  -29.1731   -2.3034 O   0  0  0  0  0  0  0  0  0  0  0  0
  1  2  1  0
  2  3  1  0
  4  3  1  0
  5  4  1  0
  5  6  1  6
  7 17  1  0
  7  5  1  0
  8  7  2  0
  9 10  1  0
 10 12  1  0
 10 11  2  0
 12 13  1  0
 14 15  1  0
 14 13  1  0
 16 15  1  6
 16 17  1  0
 18 22  1  0
 18 16  1  0
 19 18  2  0
 21 20  1  6
 21 23  1  0
 21 22  1  0
 23 24  1  0
 25 23  2  0
M  END
$$$$
