MRA.pdb
     RDKit          3D

 25 24  0  0  1  0  0  0  0  0999 V2000
   31.6330  -22.9542   -9.9030 C   0  0  0  0  0  0  0  0  0  0  0  0
   32.3485  -21.5902  -10.8719 S   0  0  0  0  0  0  0  0  0  0  0  0
   31.1012  -20.3662  -11.2566 C   0  0  0  0  0  0  0  0  0  0  0  0
   29.7927  -21.0051  -11.5740 C   0  0  0  0  0  0  0  0  0  0  0  0
   29.1684  -20.5628  -12.8718 C   0  0  2  0  0  0  0  0  0  0  0  0
   29.2010  -19.1520  -13.0716 N   0  0  0  0  0  0  0  0  0  0  0  0
   27.7930  -21.1270  -12.9399 C   0  0  0  0  0  0  0  0  0  0  0  0
   27.6627  -22.3710  -12.8768 O   0  0  0  0  0  0  0  0  0  0  0  0
   22.2818  -21.3908   -7.6224 N   0  0  0  0  0  0  0  0  0  0  0  0
   21.7783  -21.0550   -8.9113 C   0  0  0  0  0  0  0  0  0  0  0  0
   20.5054  -20.8463   -9.0739 N   0  0  0  0  0  0  0  0  0  0  0  0
   22.6750  -20.9540   -9.9910 N   0  0  0  0  0  0  0  0  0  0  0  0
   24.0912  -21.3936   -9.7132 C   0  0  0  0  0  0  0  0  0  0  0  0
   24.9038  -20.7684  -10.7774 C   0  0  0  0  0  0  0  0  0  0  0  0
   24.4308  -20.5661  -12.1441 C   0  0  0  0  0  0  0  0  0  0  0  0
   25.2768  -20.9686  -13.2744 C   0  0  2  0  0  0  0  0  0  0  0  0
   26.6341  -20.3373  -13.0715 N   0  0  0  0  0  0  0  0  0  0  0  0
   24.8225  -20.3500  -14.5444 C   0  0  0  0  0  0  0  0  0  0  0  0
   24.8521  -19.1556  -14.8631 O   0  0  0  0  0  0  0  0  0  0  0  0
   20.1376  -20.6544  -10.0252 C   0  0  0  0  0  0  0  0  0  0  0  0
   23.6216  -21.8194  -17.8018 C   0  0  1  0  0  0  0  0  0  0  0  0
   23.8122  -20.6506  -16.8408 N   0  0  0  0  0  0  0  0  0  0  0  0
   24.2684  -21.2064  -15.5697 C   0  0  0  0  0  0  0  0  0  0  0  0
   22.4981  -20.0297  -16.6276 O   0  0  0  0  0  0  0  0  0  0  0  0
   22.0186  -19.0919  -17.5440 O   0  0  0  0  0  0  0  0  0  0  0  0
  1  2  1  0
  2  3  1  0
  4  3  1  0
  5  4  1  0
  5  6  1  1
  7 17  1  0
  7  5  1  0
  8  7  2  0
  9 10  1  0
 10 12  1  0
 10 11  2  0
 12 13  1  0
 14 15  1  0
 14 13  1  0
 16 15  1  1
 16 17  1  0
 18 22  1  0
 18 16  1  0
 19 18  2  0
 21 20  1  6
 21 23  1  0
 21 22  1  0
 23 24  1  0
 25 23  2  0
M  END
$$$$
