MRA.pdb
     RDKit          3D

 25 24  0  0  1  0  0  0  0  0999 V2000
   26.6065  -14.9328  -17.7050 C   0  0  0  0  0  0  0  0  0  0  0  0
   27.9205  -15.5064  -18.8256 S   0  0  0  0  0  0  0  0  0  0  0  0
   28.5408  -17.1027  -18.3073 C   0  0  0  0  0  0  0  0  0  0  0  0
   27.4626  -17.9336  -17.7003 C   0  0  0  0  0  0  0  0  0  0  0  0
   27.9248  -19.2400  -17.1090 C   0  0  2  0  0  0  0  0  0  0  0  0
   28.5913  -20.0869  -18.0415 N   0  0  0  0  0  0  0  0  0  0  0  0
   26.7551  -19.8953  -16.4630 C   0  0  0  0  0  0  0  0  0  0  0  0
   26.0897  -20.7125  -17.1397 O   0  0  0  0  0  0  0  0  0  0  0  0
   26.6343  -20.3298   -8.4883 N   0  0  0  0  0  0  0  0  0  0  0  0
   25.3858  -20.7319   -9.0425 C   0  0  0  0  0  0  0  0  0  0  0  0
   24.2976  -20.6086   -8.3418 N   0  0  0  0  0  0  0  0  0  0  0  0
   25.3542  -21.2573  -10.3475 N   0  0  0  0  0  0  0  0  0  0  0  0
   26.6853  -21.3507  -11.0513 C   0  0  0  0  0  0  0  0  0  0  0  0
   26.3628  -21.2986  -12.4925 C   0  0  0  0  0  0  0  0  0  0  0  0
   25.3810  -20.3850  -13.0701 C   0  0  0  0  0  0  0  0  0  0  0  0
   25.1767  -20.3597  -14.5237 C   0  0  2  0  0  0  0  0  0  0  0  0
   26.3589  -19.6448  -15.1348 N   0  0  0  0  0  0  0  0  0  0  0  0
   24.0415  -19.4816  -14.9007 C   0  0  0  0  0  0  0  0  0  0  0  0
   24.0467  -18.2551  -15.0570 O   0  0  0  0  0  0  0  0  0  0  0  0
   23.3950  -20.9291   -8.7411 C   0  0  0  0  0  0  0  0  0  0  0  0
   21.5485  -19.2262  -17.0229 C   0  0  1  0  0  0  0  0  0  0  0  0
   21.5959  -19.2679  -15.4990 N   0  0  0  0  0  0  0  0  0  0  0  0
   22.7466  -20.0856  -15.1248 C   0  0  0  0  0  0  0  0  0  0  0  0
   20.3782  -19.9449  -15.0334 O   0  0  0  0  0  0  0  0  0  0  0  0
   19.1410  -19.3114  -15.1642 O   0  0  0  0  0  0  0  0  0  0  0  0
  1  2  1  0
  2  3  1  0
  4  3  1  0
  5  4  1  0
  5  6  1  6
  7 17  1  0
  7  5  1  0
  8  7  2  0
  9 10  1  0
 10 12  1  0
 10 11  2  0
 12 13  1  0
 14 15  1  0
 14 13  1  0
 16 15  1  1
 16 17  1  0
 18 22  1  0
 18 16  1  0
 19 18  2  0
 21 20  1  1
 21 23  1  0
 21 22  1  0
 23 24  1  0
 25 23  2  0
M  END
$$$$
