MRA.pdb
     RDKit          3D

 25 24  0  0  1  0  0  0  0  0999 V2000
   27.9143  -19.1963   -4.5184 C   0  0  0  0  0  0  0  0  0  0  0  0
   29.0190  -20.0967   -5.6500 S   0  0  0  0  0  0  0  0  0  0  0  0
   28.2111  -20.3931   -7.2189 C   0  0  0  0  0  0  0  0  0  0  0  0
   26.7330  -20.4957   -7.0581 C   0  0  0  0  0  0  0  0  0  0  0  0
   25.9286  -19.8364   -8.1481 C   0  0  2  0  0  0  0  0  0  0  0  0
   24.5205  -19.8953   -7.9364 N   0  0  0  0  0  0  0  0  0  0  0  0
   26.3448  -20.4240   -9.4505 C   0  0  0  0  0  0  0  0  0  0  0  0
   27.5699  -20.4908   -9.7021 O   0  0  0  0  0  0  0  0  0  0  0  0
   22.4692  -25.2572  -15.9568 N   0  0  0  0  0  0  0  0  0  0  0  0
   23.7341  -24.8290  -16.4511 C   0  0  0  0  0  0  0  0  0  0  0  0
   24.1123  -25.1753  -17.6458 N   0  0  0  0  0  0  0  0  0  0  0  0
   24.5550  -24.0328  -15.6311 N   0  0  0  0  0  0  0  0  0  0  0  0
   24.0490  -23.7910  -14.2306 C   0  0  0  0  0  0  0  0  0  0  0  0
   25.0229  -22.8588  -13.6254 C   0  0  0  0  0  0  0  0  0  0  0  0
   24.9121  -22.3436  -12.2635 C   0  0  0  0  0  0  0  0  0  0  0  0
   25.9091  -21.3895  -11.7626 C   0  0  2  0  0  0  0  0  0  0  0  0
   25.4356  -20.9070  -10.4117 N   0  0  0  0  0  0  0  0  0  0  0  0
   25.9203  -20.1401  -12.5632 C   0  0  0  0  0  0  0  0  0  0  0  0
   25.1161  -19.2018  -12.5215 O   0  0  0  0  0  0  0  0  0  0  0  0
   25.0509  -24.8916  -17.9857 C   0  0  0  0  0  0  0  0  0  0  0  0
   28.4273  -18.6175  -14.9119 C   0  0  1  0  0  0  0  0  0  0  0  0
   27.0029  -18.7681  -14.3880 N   0  0  0  0  0  0  0  0  0  0  0  0
   26.9821  -19.9466  -13.5258 C   0  0  0  0  0  0  0  0  0  0  0  0
   26.1287  -19.0243  -15.5404 O   0  0  0  0  0  0  0  0  0  0  0  0
   25.8326  -17.9885  -16.4285 O   0  0  0  0  0  0  0  0  0  0  0  0
  1  2  1  0
  2  3  1  0
  4  3  1  0
  5  4  1  0
  5  6  1  1
  7 17  1  0
  7  5  1  0
  8  7  2  0
  9 10  1  0
 10 12  1  0
 10 11  2  0
 12 13  1  0
 14 15  1  0
 14 13  1  0
 16 15  1  6
 16 17  1  0
 18 22  1  0
 18 16  1  0
 19 18  2  0
 21 20  1  1
 21 23  1  0
 21 22  1  0
 23 24  1  0
 25 23  2  0
M  END
$$$$
