MRA.pdb
     RDKit          3D

 25 24  0  0  1  0  0  0  0  0999 V2000
   27.9793  -18.0029   -5.7198 C   0  0  0  0  0  0  0  0  0  0  0  0
   27.5866  -19.7358   -5.3271 S   0  0  0  0  0  0  0  0  0  0  0  0
   27.7922  -20.7730   -6.7707 C   0  0  0  0  0  0  0  0  0  0  0  0
   26.9659  -20.2863   -7.9116 C   0  0  0  0  0  0  0  0  0  0  0  0
   27.0995  -21.0884   -9.1798 C   0  0  2  0  0  0  0  0  0  0  0  0
   28.4441  -21.2254   -9.6321 N   0  0  0  0  0  0  0  0  0  0  0  0
   26.2012  -20.4888  -10.2036 C   0  0  0  0  0  0  0  0  0  0  0  0
   26.5255  -19.3847  -10.6979 O   0  0  0  0  0  0  0  0  0  0  0  0
   24.3432  -23.7578  -15.4740 N   0  0  0  0  0  0  0  0  0  0  0  0
   25.7355  -24.0351  -15.5850 C   0  0  0  0  0  0  0  0  0  0  0  0
   26.1370  -25.2525  -15.8020 N   0  0  0  0  0  0  0  0  0  0  0  0
   26.6557  -22.9782  -15.4578 N   0  0  0  0  0  0  0  0  0  0  0  0
   26.0734  -21.6426  -15.0667 C   0  0  0  0  0  0  0  0  0  0  0  0
   25.8983  -21.7136  -13.6011 C   0  0  0  0  0  0  0  0  0  0  0  0
   24.5978  -21.6750  -12.9381 C   0  0  0  0  0  0  0  0  0  0  0  0
   24.3304  -20.6531  -11.9186 C   0  0  2  0  0  0  0  0  0  0  0  0
   25.0092  -21.0964  -10.6440 N   0  0  0  0  0  0  0  0  0  0  0  0
   22.8988  -20.6320  -11.5284 C   0  0  0  0  0  0  0  0  0  0  0  0
   22.3115  -21.3885  -10.7464 O   0  0  0  0  0  0  0  0  0  0  0  0
   27.1519  -25.4445  -15.9016 C   0  0  0  0  0  0  0  0  0  0  0  0
   20.0381  -18.3475  -12.4845 C   0  0  1  0  0  0  0  0  0  0  0  0
   20.6453  -19.5009  -11.6927 N   0  0  0  0  0  0  0  0  0  0  0  0
   22.0409  -19.6211  -12.1060 C   0  0  0  0  0  0  0  0  0  0  0  0
   19.9413  -20.7295  -12.0835 O   0  0  0  0  0  0  0  0  0  0  0  0
   18.7784  -21.1054  -11.4085 O   0  0  0  0  0  0  0  0  0  0  0  0
  1  2  1  0
  2  3  1  0
  4  3  1  0
  5  4  1  0
  5  6  1  6
  7 17  1  0
  7  5  1  0
  8  7  2  0
  9 10  1  0
 10 12  1  0
 10 11  2  0
 12 13  1  0
 14 15  1  0
 14 13  1  0
 16 15  1  6
 16 17  1  0
 18 22  1  0
 18 16  1  0
 19 18  2  0
 21 20  1  1
 21 23  1  0
 21 22  1  0
 23 24  1  0
 25 23  2  0
M  END
$$$$
