MRA.pdb
     RDKit          3D

 25 24  0  0  1  0  0  0  0  0999 V2000
   19.5563  -18.3823  -15.2878 C   0  0  0  0  0  0  0  0  0  0  0  0
   19.9492  -16.6095  -15.1686 S   0  0  0  0  0  0  0  0  0  0  0  0
   18.4915  -15.6174  -15.4728 C   0  0  0  0  0  0  0  0  0  0  0  0
   18.7921  -14.1618  -15.3629 C   0  0  0  0  0  0  0  0  0  0  0  0
   17.6187  -13.2506  -15.6129 C   0  0  2  0  0  0  0  0  0  0  0  0
   17.1261  -13.3044  -16.9492 N   0  0  0  0  0  0  0  0  0  0  0  0
   18.0018  -11.8760  -15.1906 C   0  0  0  0  0  0  0  0  0  0  0  0
   18.4192  -11.7139  -14.0210 O   0  0  0  0  0  0  0  0  0  0  0  0
   22.6819   -7.5584  -20.3674 N   0  0  0  0  0  0  0  0  0  0  0  0
   21.3276   -7.6742  -20.7917 C   0  0  0  0  0  0  0  0  0  0  0  0
   21.0113   -7.4079  -22.0243 N   0  0  0  0  0  0  0  0  0  0  0  0
   20.3518   -8.0786  -19.8620 N   0  0  0  0  0  0  0  0  0  0  0  0
   20.8462   -8.3387  -18.4606 C   0  0  0  0  0  0  0  0  0  0  0  0
   19.6432   -8.7238  -17.6936 C   0  0  0  0  0  0  0  0  0  0  0  0
   19.6728   -9.1308  -16.2915 C   0  0  0  0  0  0  0  0  0  0  0  0
   18.4143   -9.3975  -15.5841 C   0  0  2  0  0  0  0  0  0  0  0  0
   17.9195  -10.7517  -16.0350 N   0  0  0  0  0  0  0  0  0  0  0  0
   17.3297   -8.4925  -16.0385 C   0  0  0  0  0  0  0  0  0  0  0  0
   16.7313   -8.5043  -17.1205 O   0  0  0  0  0  0  0  0  0  0  0  0
   20.0124   -7.4091  -22.3059 C   0  0  0  0  0  0  0  0  0  0  0  0
   15.3751   -5.7835  -14.2853 C   0  0  1  0  0  0  0  0  0  0  0  0
   15.8139   -6.5336  -15.5386 N   0  0  0  0  0  0  0  0  0  0  0  0
   16.8796   -7.4503  -15.1425 C   0  0  0  0  0  0  0  0  0  0  0  0
   16.3758   -5.5497  -16.4734 O   0  0  0  0  0  0  0  0  0  0  0  0
   15.5204   -4.7347  -17.2174 O   0  0  0  0  0  0  0  0  0  0  0  0
  1  2  1  0
  2  3  1  0
  4  3  1  0
  5  4  1  0
  5  6  1  6
  7 17  1  0
  7  5  1  0
  8  7  2  0
  9 10  1  0
 10 12  1  0
 10 11  2  0
 12 13  1  0
 14 15  1  0
 14 13  1  0
 16 15  1  6
 16 17  1  0
 18 22  1  0
 18 16  1  0
 19 18  2  0
 21 20  1  1
 21 23  1  0
 21 22  1  0
 23 24  1  0
 25 23  2  0
M  END
$$$$
