MRA.pdb
     RDKit          3D

 25 24  0  0  1  0  0  0  0  0999 V2000
   29.0238  -19.7338   -6.4400 C   0  0  0  0  0  0  0  0  0  0  0  0
   27.3312  -19.5901   -5.7876 S   0  0  0  0  0  0  0  0  0  0  0  0
   26.1366  -20.1304   -7.0054 C   0  0  0  0  0  0  0  0  0  0  0  0
   26.7555  -20.2556   -8.3554 C   0  0  0  0  0  0  0  0  0  0  0  0
   25.7957  -20.6002   -9.4643 C   0  0  2  0  0  0  0  0  0  0  0  0
   25.0901  -21.8203   -9.2527 N   0  0  0  0  0  0  0  0  0  0  0  0
   26.5461  -20.5791  -10.7493 C   0  0  0  0  0  0  0  0  0  0  0  0
   27.6513  -21.1663  -10.7958 O   0  0  0  0  0  0  0  0  0  0  0  0
   23.9910  -24.8304  -13.2717 N   0  0  0  0  0  0  0  0  0  0  0  0
   23.1187  -23.9522  -13.9756 C   0  0  0  0  0  0  0  0  0  0  0  0
   21.8358  -24.0180  -13.7756 N   0  0  0  0  0  0  0  0  0  0  0  0
   23.6667  -23.0232  -14.8793 N   0  0  0  0  0  0  0  0  0  0  0  0
   25.1696  -22.8932  -14.8585 C   0  0  0  0  0  0  0  0  0  0  0  0
   25.4386  -21.6632  -14.0849 C   0  0  0  0  0  0  0  0  0  0  0  0
   26.7736  -21.1040  -13.8915 C   0  0  0  0  0  0  0  0  0  0  0  0
   26.9358  -19.8456  -13.1530 C   0  0  2  0  0  0  0  0  0  0  0  0
   26.0795  -19.9352  -11.9118 N   0  0  0  0  0  0  0  0  0  0  0  0
   26.3282  -18.7033  -13.8797 C   0  0  0  0  0  0  0  0  0  0  0  0
   25.1365  -18.3763  -13.9243 O   0  0  0  0  0  0  0  0  0  0  0  0
   21.2135  -23.3180  -14.2226 C   0  0  0  0  0  0  0  0  0  0  0  0
   27.8119  -15.8550  -15.8617 C   0  0  1  0  0  0  0  0  0  0  0  0
   26.6411  -16.7303  -15.4270 N   0  0  0  0  0  0  0  0  0  0  0  0
   27.1934  -17.8339  -14.6459 C   0  0  0  0  0  0  0  0  0  0  0  0
   26.0256  -17.2862  -16.6394 O   0  0  0  0  0  0  0  0  0  0  0  0
   25.1181  -16.5170  -17.3701 O   0  0  0  0  0  0  0  0  0  0  0  0
  1  2  1  0
  2  3  1  0
  4  3  1  0
  5  4  1  0
  5  6  1  1
  7 17  1  0
  7  5  1  0
  8  7  2  0
  9 10  1  0
 10 12  1  0
 10 11  2  0
 12 13  1  0
 14 15  1  0
 14 13  1  0
 16 15  1  6
 16 17  1  0
 18 22  1  0
 18 16  1  0
 19 18  2  0
 21 20  1  1
 21 23  1  0
 21 22  1  0
 23 24  1  0
 25 23  2  0
M  END
$$$$
