MRA.pdb
     RDKit          3D

 25 24  0  0  1  0  0  0  0  0999 V2000
   29.1732  -28.4827  -16.7205 C   0  0  0  0  0  0  0  0  0  0  0  0
   28.8338  -26.9644  -15.7766 S   0  0  0  0  0  0  0  0  0  0  0  0
   28.8189  -25.5385  -16.8576 C   0  0  0  0  0  0  0  0  0  0  0  0
   28.4357  -24.3014  -16.1200 C   0  0  0  0  0  0  0  0  0  0  0  0
   28.3884  -23.0510  -16.9590 C   0  0  2  0  0  0  0  0  0  0  0  0
   29.6602  -22.6502  -17.4620 N   0  0  0  0  0  0  0  0  0  0  0  0
   27.7163  -21.9863  -16.1656 C   0  0  0  0  0  0  0  0  0  0  0  0
   28.4360  -21.1462  -15.5784 O   0  0  0  0  0  0  0  0  0  0  0  0
   20.7764  -19.7685  -15.0267 N   0  0  0  0  0  0  0  0  0  0  0  0
   20.7013  -18.3739  -15.3043 C   0  0  0  0  0  0  0  0  0  0  0  0
   19.5595  -17.7582  -15.2188 N   0  0  0  0  0  0  0  0  0  0  0  0
   21.8733  -17.6846  -15.6671 N   0  0  0  0  0  0  0  0  0  0  0  0
   22.7938  -18.4078  -16.6187 C   0  0  0  0  0  0  0  0  0  0  0  0
   23.7549  -19.1241  -15.7544 C   0  0  0  0  0  0  0  0  0  0  0  0
   24.7436  -20.0742  -16.2567 C   0  0  0  0  0  0  0  0  0  0  0  0
   25.6876  -20.7034  -15.3250 C   0  0  2  0  0  0  0  0  0  0  0  0
   26.3178  -21.8748  -16.0410 N   0  0  0  0  0  0  0  0  0  0  0  0
   24.9846  -21.3594  -14.1947 C   0  0  0  0  0  0  0  0  0  0  0  0
   24.1113  -22.2333  -14.2454 O   0  0  0  0  0  0  0  0  0  0  0  0
   19.4993  -16.7564  -15.4831 C   0  0  0  0  0  0  0  0  0  0  0  0
   25.2841  -20.9784  -10.4433 C   0  0  1  0  0  0  0  0  0  0  0  0
   24.6157  -21.5250  -11.7005 N   0  0  0  0  0  0  0  0  0  0  0  0
   25.3263  -20.9637  -12.8464 C   0  0  0  0  0  0  0  0  0  0  0  0
   23.2346  -21.0253  -11.7245 O   0  0  0  0  0  0  0  0  0  0  0  0
   22.2580  -21.6523  -10.9484 O   0  0  0  0  0  0  0  0  0  0  0  0
  1  2  1  0
  2  3  1  0
  4  3  1  0
  5  4  1  0
  5  6  1  1
  7 17  1  0
  7  5  1  0
  8  7  2  0
  9 10  1  0
 10 12  1  0
 10 11  2  0
 12 13  1  0
 14 15  1  0
 14 13  1  0
 16 15  1  6
 16 17  1  0
 18 22  1  0
 18 16  1  0
 19 18  2  0
 21 20  1  1
 21 23  1  0
 21 22  1  0
 23 24  1  0
 25 23  2  0
M  END
$$$$
