MRA.pdb
     RDKit          3D

 25 24  0  0  1  0  0  0  0  0999 V2000
   28.2538  -39.8271   -0.6022 C   0  0  0  0  0  0  0  0  0  0  0  0
   29.4977  -40.8624   -1.4344 S   0  0  0  0  0  0  0  0  0  0  0  0
   30.6357  -39.8504   -2.3739 C   0  0  0  0  0  0  0  0  0  0  0  0
   30.1054  -38.4707   -2.5650 C   0  0  0  0  0  0  0  0  0  0  0  0
   31.0353  -37.5270   -3.2823 C   0  0  2  0  0  0  0  0  0  0  0  0
   32.1930  -37.1793   -2.5272 N   0  0  0  0  0  0  0  0  0  0  0  0
   30.2475  -36.3411   -3.7157 C   0  0  0  0  0  0  0  0  0  0  0  0
   30.4131  -35.2654   -3.0961 O   0  0  0  0  0  0  0  0  0  0  0  0
   24.3737  -33.4101   -8.1427 N   0  0  0  0  0  0  0  0  0  0  0  0
   25.2256  -32.4130   -8.6973 C   0  0  0  0  0  0  0  0  0  0  0  0
   24.7314  -31.2631   -9.0489 N   0  0  0  0  0  0  0  0  0  0  0  0
   26.5956  -32.6937   -8.8537 N   0  0  0  0  0  0  0  0  0  0  0  0
   27.0254  -34.0942   -8.4933 C   0  0  0  0  0  0  0  0  0  0  0  0
   27.8951  -33.9368   -7.3090 C   0  0  0  0  0  0  0  0  0  0  0  0
   28.5615  -35.0507   -6.6400 C   0  0  0  0  0  0  0  0  0  0  0  0
   28.5517  -35.1306   -5.1741 C   0  0  2  0  0  0  0  0  0  0  0  0
   29.3284  -36.3657   -4.7827 N   0  0  0  0  0  0  0  0  0  0  0  0
   27.1946  -35.4268   -4.6520 C   0  0  0  0  0  0  0  0  0  0  0  0
   26.5299  -36.4587   -4.8010 O   0  0  0  0  0  0  0  0  0  0  0  0
   25.3720  -30.5008   -9.3415 C   0  0  0  0  0  0  0  0  0  0  0  0
   24.7750  -33.4065   -2.5600 C   0  0  1  0  0  0  0  0  0  0  0  0
   25.1478  -34.6147   -3.4129 N   0  0  0  0  0  0  0  0  0  0  0  0
   26.5221  -34.4166   -3.8654 C   0  0  0  0  0  0  0  0  0  0  0  0
   24.2702  -34.6168   -4.5909 O   0  0  0  0  0  0  0  0  0  0  0  0
   22.9107  -34.8967   -4.4408 O   0  0  0  0  0  0  0  0  0  0  0  0
  1  2  1  0
  2  3  1  0
  4  3  1  0
  5  4  1  0
  5  6  1  1
  7 17  1  0
  7  5  1  0
  8  7  2  0
  9 10  1  0
 10 12  1  0
 10 11  2  0
 12 13  1  0
 14 15  1  0
 14 13  1  0
 16 15  1  6
 16 17  1  0
 18 22  1  0
 18 16  1  0
 19 18  2  0
 21 20  1  1
 21 23  1  0
 21 22  1  0
 23 24  1  0
 25 23  2  0
M  END
$$$$
