MRA.pdb
     RDKit          3D

 25 24  0  0  1  0  0  0  0  0999 V2000
   28.9309  -19.0995   -5.4171 C   0  0  0  0  0  0  0  0  0  0  0  0
   27.7861  -20.4969   -5.1974 S   0  0  0  0  0  0  0  0  0  0  0  0
   26.3706  -20.3301   -6.2793 C   0  0  0  0  0  0  0  0  0  0  0  0
   26.7805  -20.3161   -7.7121 C   0  0  0  0  0  0  0  0  0  0  0  0
   25.6573  -20.0952   -8.6916 C   0  0  2  0  0  0  0  0  0  0  0  0
   24.4973  -20.8770   -8.4189 N   0  0  0  0  0  0  0  0  0  0  0  0
   26.1913  -20.3085  -10.0642 C   0  0  0  0  0  0  0  0  0  0  0  0
   27.2661  -19.7443  -10.3723 O   0  0  0  0  0  0  0  0  0  0  0  0
   26.0398  -23.2669  -17.6389 N   0  0  0  0  0  0  0  0  0  0  0  0
   24.6621  -23.2444  -17.2797 C   0  0  0  0  0  0  0  0  0  0  0  0
   23.7720  -22.8774  -18.1533 N   0  0  0  0  0  0  0  0  0  0  0  0
   24.2886  -23.6239  -15.9771 N   0  0  0  0  0  0  0  0  0  0  0  0
   25.4157  -24.0390  -15.0643 C   0  0  0  0  0  0  0  0  0  0  0  0
   25.8589  -22.7912  -14.4083 C   0  0  0  0  0  0  0  0  0  0  0  0
   25.5689  -22.4614  -13.0157 C   0  0  0  0  0  0  0  0  0  0  0  0
   26.0958  -21.2194  -12.4367 C   0  0  2  0  0  0  0  0  0  0  0  0
   25.5528  -21.1088  -11.0314 N   0  0  0  0  0  0  0  0  0  0  0  0
   25.5209  -20.0216  -13.0975 C   0  0  0  0  0  0  0  0  0  0  0  0
   24.3671  -19.5851  -13.0125 O   0  0  0  0  0  0  0  0  0  0  0  0
   22.7698  -22.8624  -17.8847 C   0  0  0  0  0  0  0  0  0  0  0  0
   27.0637  -17.1625  -14.9670 C   0  0  1  0  0  0  0  0  0  0  0  0
   25.8622  -18.0368  -14.6235 N   0  0  0  0  0  0  0  0  0  0  0  0
   26.3738  -19.2319  -13.9580 C   0  0  0  0  0  0  0  0  0  0  0  0
   25.2328  -18.4458  -15.8861 O   0  0  0  0  0  0  0  0  0  0  0  0
   24.2474  -17.6409  -16.4610 O   0  0  0  0  0  0  0  0  0  0  0  0
  1  2  1  0
  2  3  1  0
  4  3  1  0
  5  4  1  0
  5  6  1  1
  7 17  1  0
  7  5  1  0
  8  7  2  0
  9 10  1  0
 10 12  1  0
 10 11  2  0
 12 13  1  0
 14 15  1  0
 14 13  1  0
 16 15  1  6
 16 17  1  0
 18 22  1  0
 18 16  1  0
 19 18  2  0
 21 20  1  1
 21 23  1  0
 21 22  1  0
 23 24  1  0
 25 23  2  0
M  END
$$$$
