MRA.pdb
     RDKit          3D

 25 24  0  0  1  0  0  0  0  0999 V2000
   27.7304  -12.2465  -14.9223 C   0  0  0  0  0  0  0  0  0  0  0  0
   28.1286  -13.3959  -16.2757 S   0  0  0  0  0  0  0  0  0  0  0  0
   26.6632  -14.2709  -16.8132 C   0  0  0  0  0  0  0  0  0  0  0  0
   25.5343  -13.3328  -17.0716 C   0  0  0  0  0  0  0  0  0  0  0  0
   24.2681  -13.9836  -17.5645 C   0  0  2  0  0  0  0  0  0  0  0  0
   24.4547  -14.7985  -18.7188 N   0  0  0  0  0  0  0  0  0  0  0  0
   23.2478  -12.9189  -17.7646 C   0  0  0  0  0  0  0  0  0  0  0  0
   23.1363  -12.4170  -18.9066 O   0  0  0  0  0  0  0  0  0  0  0  0
   15.2110  -13.0376  -15.6417 N   0  0  0  0  0  0  0  0  0  0  0  0
   16.3659  -13.7877  -16.0040 C   0  0  0  0  0  0  0  0  0  0  0  0
   16.2964  -15.0835  -16.0840 N   0  0  0  0  0  0  0  0  0  0  0  0
   17.5678  -13.1064  -16.2714 N   0  0  0  0  0  0  0  0  0  0  0  0
   17.5325  -11.6104  -16.0801 C   0  0  0  0  0  0  0  0  0  0  0  0
   18.8617  -11.1352  -16.5173 C   0  0  0  0  0  0  0  0  0  0  0  0
   20.0661  -11.9604  -16.4892 C   0  0  0  0  0  0  0  0  0  0  0  0
   21.3262  -11.4277  -17.0218 C   0  0  2  0  0  0  0  0  0  0  0  0
   22.4042  -12.4478  -16.7398 N   0  0  0  0  0  0  0  0  0  0  0  0
   21.7908  -10.2489  -16.2495 C   0  0  0  0  0  0  0  0  0  0  0  0
   22.2247  -10.2196  -15.0920 O   0  0  0  0  0  0  0  0  0  0  0  0
   17.1345  -15.6220  -16.3748 C   0  0  0  0  0  0  0  0  0  0  0  0
   22.2324   -6.6152  -17.1946 C   0  0  1  0  0  0  0  0  0  0  0  0
   22.2657   -7.7677  -16.1962 N   0  0  0  0  0  0  0  0  0  0  0  0
   21.7521   -8.9496  -16.8834 C   0  0  0  0  0  0  0  0  0  0  0  0
   21.3456   -7.4351  -15.1005 O   0  0  0  0  0  0  0  0  0  0  0  0
   21.7900   -6.6439  -14.0395 O   0  0  0  0  0  0  0  0  0  0  0  0
  1  2  1  0
  2  3  1  0
  4  3  1  0
  5  4  1  0
  5  6  1  6
  7 17  1  0
  7  5  1  0
  8  7  2  0
  9 10  1  0
 10 12  1  0
 10 11  2  0
 12 13  1  0
 14 15  1  0
 14 13  1  0
 16 15  1  1
 16 17  1  0
 18 22  1  0
 18 16  1  0
 19 18  2  0
 21 20  1  6
 21 23  1  0
 21 22  1  0
 23 24  1  0
 25 23  2  0
M  END
$$$$
