ISE.pdb
     RDKit          3D

 24 23  0  0  1  0  0  0  0  0999 V2000
   16.4137  -13.5378  -18.9123 C   0  0  0  0  0  0  0  0  0  0  0  0
   17.8023  -13.9699  -18.4143 C   0  0  0  0  0  0  0  0  0  0  0  0
   18.4647  -12.8591  -17.6744 C   0  0  2  0  0  0  0  0  0  0  0  0
   18.5927  -11.5948  -18.4951 C   0  0  0  0  0  0  0  0  0  0  0  0
   19.7764  -13.1769  -17.0519 C   0  0  2  0  0  0  0  0  0  0  0  0
   19.6566  -14.4272  -16.3221 N   0  0  0  0  0  0  0  0  0  0  0  0
   20.2625  -12.0844  -16.1762 C   0  0  0  0  0  0  0  0  0  0  0  0
   19.5947  -11.5668  -15.2485 O   0  0  0  0  0  0  0  0  0  0  0  0
   24.1654  -10.2405  -16.7206 O   0  0  0  0  0  0  0  0  0  0  0  0
   23.6006  -10.4408  -15.4672 C   0  0  0  0  0  0  0  0  0  0  0  0
   22.0904  -10.4678  -15.5190 C   0  0  2  0  0  0  0  0  0  0  0  0
   21.5838  -11.5317  -16.3473 N   0  0  0  0  0  0  0  0  0  0  0  0
   21.5723   -9.1421  -15.9081 C   0  0  0  0  0  0  0  0  0  0  0  0
   21.2658   -8.9039  -17.0994 O   0  0  0  0  0  0  0  0  0  0  0  0
   21.4231   -8.1361  -14.9224 N   0  0  0  0  0  0  0  0  0  0  0  0
   21.0512   -6.7496  -15.2613 C   0  0  1  0  0  0  0  0  0  0  0  0
   19.5685   -6.6917  -15.1705 C   0  0  0  0  0  0  0  0  0  0  0  0
   18.8858   -5.4021  -15.3940 C   0  0  0  0  0  0  0  0  0  0  0  0
   17.4468   -5.2867  -15.2454 C   0  0  0  0  0  0  0  0  0  0  0  0
   16.6918   -6.2087  -14.9864 O   0  0  0  0  0  0  0  0  0  0  0  0
   21.7633   -5.7833  -14.4768 C   0  0  0  0  0  0  0  0  0  0  0  0
   21.8701   -4.4579  -14.9352 O   0  0  0  0  0  0  0  0  0  0  0  0
   16.8484   -4.0094  -15.4101 O   0  0  0  0  0  0  0  0  0  0  0  0
   22.3287   -6.0199  -13.3608 O   0  0  0  0  0  0  0  0  0  0  0  0
  1  2  1  0
  3  2  1  0
  3  5  1  0
  3  4  1  6
  5  6  1  1
  7  5  1  0
  7 12  1  0
  8  7  2  0
 10  9  1  0
 11 10  1  6
 11 12  1  0
 11 13  1  0
 13 14  2  0
 13 15  1  0
 15 16  1  0
 16 17  1  1
 16 21  1  0
 17 18  1  0
 18 19  1  0
 19 23  1  0
 19 20  2  0
 21 22  1  0
 24 21  2  0
M  END
$$$$
