ISE.pdb
     RDKit          3D

 24 23  0  0  1  0  0  0  0  0999 V2000
   16.5564  -13.8816  -18.2367 C   0  0  0  0  0  0  0  0  0  0  0  0
   17.7991  -13.0941  -18.6820 C   0  0  0  0  0  0  0  0  0  0  0  0
   18.1268  -12.0268  -17.6954 C   0  0  2  0  0  0  0  0  0  0  0  0
   16.9597  -11.1088  -17.4069 C   0  0  0  0  0  0  0  0  0  0  0  0
   19.3340  -11.2110  -17.9891 C   0  0  2  0  0  0  0  0  0  0  0  0
   20.4200  -12.1008  -18.3617 N   0  0  0  0  0  0  0  0  0  0  0  0
   19.7146  -10.3404  -16.8516 C   0  0  0  0  0  0  0  0  0  0  0  0
   18.9477   -9.5132  -16.3021 O   0  0  0  0  0  0  0  0  0  0  0  0
   22.9637   -9.4396  -13.3001 O   0  0  0  0  0  0  0  0  0  0  0  0
   22.6438  -10.1634  -14.4419 C   0  0  0  0  0  0  0  0  0  0  0  0
   21.4347   -9.6017  -15.1540 C   0  0  2  0  0  0  0  0  0  0  0  0
   21.0416  -10.3967  -16.2887 N   0  0  0  0  0  0  0  0  0  0  0  0
   21.6611   -8.1846  -15.4975 C   0  0  0  0  0  0  0  0  0  0  0  0
   22.3068   -7.8751  -16.5257 O   0  0  0  0  0  0  0  0  0  0  0  0
   21.1421   -7.1722  -14.6541 N   0  0  0  0  0  0  0  0  0  0  0  0
   21.3914   -5.7389  -14.8978 C   0  0  1  0  0  0  0  0  0  0  0  0
   20.0515   -5.1112  -15.0425 C   0  0  0  0  0  0  0  0  0  0  0  0
   19.2872   -5.3303  -16.2863 C   0  0  0  0  0  0  0  0  0  0  0  0
   17.9366   -4.8191  -16.4291 C   0  0  0  0  0  0  0  0  0  0  0  0
   17.3415   -4.1643  -15.5898 O   0  0  0  0  0  0  0  0  0  0  0  0
   22.2509   -5.1558  -13.9092 C   0  0  0  0  0  0  0  0  0  0  0  0
   22.8284   -3.8954  -14.1460 O   0  0  0  0  0  0  0  0  0  0  0  0
   17.2326   -5.0901  -17.6323 O   0  0  0  0  0  0  0  0  0  0  0  0
   22.5514   -5.6907  -12.7935 O   0  0  0  0  0  0  0  0  0  0  0  0
  1  2  1  0
  3  2  1  0
  3  5  1  0
  3  4  1  6
  5  6  1  1
  7  5  1  0
  7 12  1  0
  8  7  2  0
 10  9  1  0
 11 10  1  6
 11 12  1  0
 11 13  1  0
 13 14  2  0
 13 15  1  0
 15 16  1  0
 16 17  1  1
 16 21  1  0
 17 18  1  0
 18 19  1  0
 19 23  1  0
 19 20  2  0
 21 22  1  0
 24 21  2  0
M  END
$$$$
