ISE.pdb
     RDKit          3D

 24 23  0  0  1  0  0  0  0  0999 V2000
   19.4073  -14.4413  -20.3033 C   0  0  0  0  0  0  0  0  0  0  0  0
   20.3499  -14.0123  -19.1674 C   0  0  0  0  0  0  0  0  0  0  0  0
   20.0155  -12.6387  -18.6970 C   0  0  2  0  0  0  0  0  0  0  0  0
   19.9009  -11.6380  -19.8257 C   0  0  0  0  0  0  0  0  0  0  0  0
   20.8878  -12.0804  -17.6310 C   0  0  2  0  0  0  0  0  0  0  0  0
   20.9428  -13.0258  -16.5294 N   0  0  0  0  0  0  0  0  0  0  0  0
   20.4342  -10.7451  -17.1751 C   0  0  0  0  0  0  0  0  0  0  0  0
   20.4916   -9.7004  -17.8677 O   0  0  0  0  0  0  0  0  0  0  0  0
   18.1490   -8.0909  -13.7486 O   0  0  0  0  0  0  0  0  0  0  0  0
   18.5360   -9.3474  -14.1976 C   0  0  0  0  0  0  0  0  0  0  0  0
   19.5233   -9.2667  -15.3391 C   0  0  2  0  0  0  0  0  0  0  0  0
   19.8785  -10.5630  -15.8564 N   0  0  0  0  0  0  0  0  0  0  0  0
   20.6975   -8.4677  -14.9389 C   0  0  0  0  0  0  0  0  0  0  0  0
   21.6593   -9.0058  -14.3429 O   0  0  0  0  0  0  0  0  0  0  0  0
   20.7306   -7.0828  -15.2335 N   0  0  0  0  0  0  0  0  0  0  0  0
   21.8627   -6.2211  -14.8444 C   0  0  1  0  0  0  0  0  0  0  0  0
   22.1983   -5.4200  -16.0509 C   0  0  0  0  0  0  0  0  0  0  0  0
   23.3062   -4.4470  -15.9807 C   0  0  0  0  0  0  0  0  0  0  0  0
   23.6086   -3.5816  -17.1057 C   0  0  0  0  0  0  0  0  0  0  0  0
   23.0542   -3.6221  -18.1912 O   0  0  0  0  0  0  0  0  0  0  0  0
   21.5969   -5.4717  -13.6511 C   0  0  0  0  0  0  0  0  0  0  0  0
   22.6673   -5.0476  -12.8433 O   0  0  0  0  0  0  0  0  0  0  0  0
   24.6265   -2.6031  -16.9541 O   0  0  0  0  0  0  0  0  0  0  0  0
   20.4391   -5.1397  -13.2381 O   0  0  0  0  0  0  0  0  0  0  0  0
  1  2  1  0
  3  2  1  0
  3  5  1  0
  3  4  1  6
  5  6  1  1
  7  5  1  0
  7 12  1  0
  8  7  2  0
 10  9  1  0
 11 10  1  1
 11 12  1  0
 11 13  1  0
 13 14  2  0
 13 15  1  0
 15 16  1  0
 16 17  1  6
 16 21  1  0
 17 18  1  0
 18 19  1  0
 19 23  1  0
 19 20  2  0
 21 22  1  0
 24 21  2  0
M  END
$$$$
