ISE.pdb
     RDKit          3D

 24 23  0  0  1  0  0  0  0  0999 V2000
   21.7043  -19.1393  -15.8689 C   0  0  0  0  0  0  0  0  0  0  0  0
   20.7522  -20.2949  -15.5211 C   0  0  0  0  0  0  0  0  0  0  0  0
   20.1456  -20.0896  -14.1758 C   0  0  2  0  0  0  0  0  0  0  0  0
   19.8575  -18.6361  -13.8718 C   0  0  0  0  0  0  0  0  0  0  0  0
   20.8712  -20.6976  -13.0300 C   0  0  2  0  0  0  0  0  0  0  0  0
   21.2534  -22.0533  -13.3852 N   0  0  0  0  0  0  0  0  0  0  0  0
   20.0734  -20.6707  -11.7812 C   0  0  0  0  0  0  0  0  0  0  0  0
   19.7650  -19.6266  -11.1573 O   0  0  0  0  0  0  0  0  0  0  0  0
   16.8246  -20.9119   -8.9607 O   0  0  0  0  0  0  0  0  0  0  0  0
   17.6140  -20.9093  -10.1039 C   0  0  0  0  0  0  0  0  0  0  0  0
   18.7498  -21.9026  -10.0158 C   0  0  2  0  0  0  0  0  0  0  0  0
   19.5865  -21.8921  -11.1879 N   0  0  0  0  0  0  0  0  0  0  0  0
   18.2263  -23.2449   -9.6970 C   0  0  0  0  0  0  0  0  0  0  0  0
   17.8420  -24.0108  -10.6111 O   0  0  0  0  0  0  0  0  0  0  0  0
   18.1604  -23.6638   -8.3458 N   0  0  0  0  0  0  0  0  0  0  0  0
   17.6691  -24.9993   -7.9577 C   0  0  1  0  0  0  0  0  0  0  0  0
   18.1854  -25.2402   -6.5846 C   0  0  0  0  0  0  0  0  0  0  0  0
   17.9343  -26.5455   -5.9424 C   0  0  0  0  0  0  0  0  0  0  0  0
   18.4225  -26.8221   -4.6041 C   0  0  0  0  0  0  0  0  0  0  0  0
   18.2335  -27.8575   -3.9881 O   0  0  0  0  0  0  0  0  0  0  0  0
   16.2510  -25.1319   -8.1241 C   0  0  0  0  0  0  0  0  0  0  0  0
   15.7012  -26.3899   -8.4294 O   0  0  0  0  0  0  0  0  0  0  0  0
   19.1823  -25.8232   -3.9395 O   0  0  0  0  0  0  0  0  0  0  0  0
   15.4096  -24.1823   -8.0161 O   0  0  0  0  0  0  0  0  0  0  0  0
  1  2  1  0
  3  2  1  0
  3  5  1  0
  3  4  1  1
  5  6  1  6
  7  5  1  0
  7 12  1  0
  8  7  2  0
 10  9  1  0
 11 10  1  6
 11 12  1  0
 11 13  1  0
 13 14  2  0
 13 15  1  0
 15 16  1  0
 16 17  1  1
 16 21  1  0
 17 18  1  0
 18 19  1  0
 19 23  1  0
 19 20  2  0
 21 22  1  0
 24 21  2  0
M  END
$$$$
