ISE.pdb
     RDKit          3D

 24 23  0  0  1  0  0  0  0  0999 V2000
   27.4961  -19.2545   -6.8842 C   0  0  0  0  0  0  0  0  0  0  0  0
   27.9078  -20.3861   -7.8396 C   0  0  0  0  0  0  0  0  0  0  0  0
   27.0902  -20.3468   -9.0845 C   0  0  2  0  0  0  0  0  0  0  0  0
   25.6077  -20.4978   -8.8241 C   0  0  0  0  0  0  0  0  0  0  0  0
   27.4977  -21.2813  -10.1660 C   0  0  2  0  0  0  0  0  0  0  0  0
   28.9031  -21.0668  -10.4640 N   0  0  0  0  0  0  0  0  0  0  0  0
   26.6596  -21.1363  -11.3798 C   0  0  0  0  0  0  0  0  0  0  0  0
   26.7830  -20.2150  -12.2226 O   0  0  0  0  0  0  0  0  0  0  0  0
   23.9352  -23.3519  -14.6917 O   0  0  0  0  0  0  0  0  0  0  0  0
   24.5595  -23.4103  -13.4519 C   0  0  0  0  0  0  0  0  0  0  0  0
   24.8452  -22.0361  -12.8911 C   0  0  2  0  0  0  0  0  0  0  0  0
   25.6123  -22.0838  -11.6732 N   0  0  0  0  0  0  0  0  0  0  0  0
   23.5889  -21.2754  -12.7481 C   0  0  0  0  0  0  0  0  0  0  0  0
   22.8915  -21.3886  -11.7133 O   0  0  0  0  0  0  0  0  0  0  0  0
   23.1744  -20.4129  -13.7921 N   0  0  0  0  0  0  0  0  0  0  0  0
   21.8685  -19.7274  -13.7765 C   0  0  1  0  0  0  0  0  0  0  0  0
   21.8326  -18.8912  -15.0051 C   0  0  0  0  0  0  0  0  0  0  0  0
   20.6454  -18.0544  -15.2691 C   0  0  0  0  0  0  0  0  0  0  0  0
   20.5613  -17.2396  -16.4669 C   0  0  0  0  0  0  0  0  0  0  0  0
   19.9696  -17.5503  -17.4871 O   0  0  0  0  0  0  0  0  0  0  0  0
   20.7732  -20.6374  -13.6081 C   0  0  0  0  0  0  0  0  0  0  0  0
   19.7812  -20.3620  -12.6499 O   0  0  0  0  0  0  0  0  0  0  0  0
   21.2113  -15.9770  -16.4752 O   0  0  0  0  0  0  0  0  0  0  0  0
   20.6062  -21.7121  -14.2702 O   0  0  0  0  0  0  0  0  0  0  0  0
  1  2  1  0
  3  2  1  0
  3  5  1  0
  3  4  1  1
  5  6  1  6
  7  5  1  0
  7 12  1  0
  8  7  2  0
 10  9  1  0
 11 10  1  1
 11 12  1  0
 11 13  1  0
 13 14  2  0
 13 15  1  0
 15 16  1  0
 16 17  1  6
 16 21  1  0
 17 18  1  0
 18 19  1  0
 19 23  1  0
 19 20  2  0
 21 22  1  0
 24 21  2  0
M  END
$$$$
