ISE.pdb
     RDKit          3D

 24 23  0  0  1  0  0  0  0  0999 V2000
   29.5606  -21.7851  -11.6824 C   0  0  0  0  0  0  0  0  0  0  0  0
   28.9630  -20.4631  -11.1745 C   0  0  0  0  0  0  0  0  0  0  0  0
   27.6078  -20.2421  -11.7529 C   0  0  2  0  0  0  0  0  0  0  0  0
   26.6246  -21.3334  -11.3912 C   0  0  0  0  0  0  0  0  0  0  0  0
   27.5525  -19.9954  -13.2176 C   0  0  2  0  0  0  0  0  0  0  0  0
   28.7037  -19.1965  -13.6006 N   0  0  0  0  0  0  0  0  0  0  0  0
   26.2845  -19.3494  -13.6315 C   0  0  0  0  0  0  0  0  0  0  0  0
   25.2899  -19.1918  -12.8830 O   0  0  0  0  0  0  0  0  0  0  0  0
   26.2283  -16.6097  -16.5839 O   0  0  0  0  0  0  0  0  0  0  0  0
   25.0782  -17.3859  -16.6542 C   0  0  0  0  0  0  0  0  0  0  0  0
   24.8879  -18.2376  -15.4202 C   0  0  2  0  0  0  0  0  0  0  0  0
   26.1145  -18.8448  -14.9721 N   0  0  0  0  0  0  0  0  0  0  0  0
   23.8098  -19.2202  -15.6433 C   0  0  0  0  0  0  0  0  0  0  0  0
   24.0806  -20.3923  -15.9937 O   0  0  0  0  0  0  0  0  0  0  0  0
   22.4615  -18.8286  -15.4583 N   0  0  0  0  0  0  0  0  0  0  0  0
   21.3383  -19.7718  -15.6145 C   0  0  1  0  0  0  0  0  0  0  0  0
   21.0737  -20.3186  -14.2577 C   0  0  0  0  0  0  0  0  0  0  0  0
   20.0124  -21.3302  -14.0862 C   0  0  0  0  0  0  0  0  0  0  0  0
   19.6353  -21.7959  -12.7645 C   0  0  0  0  0  0  0  0  0  0  0  0
   18.9458  -21.1762  -11.9722 O   0  0  0  0  0  0  0  0  0  0  0  0
   20.2140  -19.1806  -16.2799 C   0  0  0  0  0  0  0  0  0  0  0  0
   19.4503  -19.9524  -17.1739 O   0  0  0  0  0  0  0  0  0  0  0  0
   20.0937  -23.0706  -12.3383 O   0  0  0  0  0  0  0  0  0  0  0  0
   19.8255  -17.9772  -16.1314 O   0  0  0  0  0  0  0  0  0  0  0  0
  1  2  1  0
  3  2  1  0
  3  5  1  0
  3  4  1  6
  5  6  1  1
  7  5  1  0
  7 12  1  0
  8  7  2  0
 10  9  1  0
 11 10  1  6
 11 12  1  0
 11 13  1  0
 13 14  2  0
 13 15  1  0
 15 16  1  0
 16 17  1  1
 16 21  1  0
 17 18  1  0
 18 19  1  0
 19 23  1  0
 19 20  2  0
 21 22  1  0
 24 21  2  0
M  END
$$$$
