ISE.pdb
     RDKit          3D

 24 23  0  0  1  0  0  0  0  0999 V2000
   17.5725  -10.5654  -20.1346 C   0  0  0  0  0  0  0  0  0  0  0  0
   18.0284  -11.2061  -18.8138 C   0  0  0  0  0  0  0  0  0  0  0  0
   18.3791  -10.1581  -17.8145 C   0  0  2  0  0  0  0  0  0  0  0  0
   19.4270   -9.1891  -18.3158 C   0  0  0  0  0  0  0  0  0  0  0  0
   18.7636  -10.6433  -16.4633 C   0  0  2  0  0  0  0  0  0  0  0  0
   17.7500  -11.5721  -15.9944 N   0  0  0  0  0  0  0  0  0  0  0  0
   18.9644   -9.5324  -15.5030 C   0  0  0  0  0  0  0  0  0  0  0  0
   18.0858   -8.6908  -15.1962 O   0  0  0  0  0  0  0  0  0  0  0  0
   21.0344   -9.2077  -11.9170 O   0  0  0  0  0  0  0  0  0  0  0  0
   21.5554   -8.4646  -12.9689 C   0  0  0  0  0  0  0  0  0  0  0  0
   20.5238   -8.1875  -14.0382 C   0  0  2  0  0  0  0  0  0  0  0  0
   20.2321   -9.3478  -14.8399 N   0  0  0  0  0  0  0  0  0  0  0  0
   20.9301   -7.0206  -14.8449 C   0  0  0  0  0  0  0  0  0  0  0  0
   21.3018   -7.1673  -16.0324 O   0  0  0  0  0  0  0  0  0  0  0  0
   20.8973   -5.7285  -14.2661 N   0  0  0  0  0  0  0  0  0  0  0  0
   21.2125   -4.5113  -15.0372 C   0  0  1  0  0  0  0  0  0  0  0  0
   20.0725   -4.3139  -15.9708 C   0  0  0  0  0  0  0  0  0  0  0  0
   20.0613   -3.1272  -16.8486 C   0  0  0  0  0  0  0  0  0  0  0  0
   18.9505   -2.8783  -17.7488 C   0  0  0  0  0  0  0  0  0  0  0  0
   17.9885   -3.6132  -17.8964 O   0  0  0  0  0  0  0  0  0  0  0  0
   21.5304   -3.3952  -14.1949 C   0  0  0  0  0  0  0  0  0  0  0  0
   22.2085   -2.2875  -14.7346 O   0  0  0  0  0  0  0  0  0  0  0  0
   18.9631   -1.6922  -18.5296 O   0  0  0  0  0  0  0  0  0  0  0  0
   21.2449   -3.3078  -12.9571 O   0  0  0  0  0  0  0  0  0  0  0  0
  1  2  1  0
  3  2  1  0
  3  5  1  0
  3  4  1  6
  5  6  1  1
  7  5  1  0
  7 12  1  0
  8  7  2  0
 10  9  1  0
 11 10  1  1
 11 12  1  0
 11 13  1  0
 13 14  2  0
 13 15  1  0
 15 16  1  0
 16 17  1  1
 16 21  1  0
 17 18  1  0
 18 19  1  0
 19 23  1  0
 19 20  2  0
 21 22  1  0
 24 21  2  0
M  END
$$$$
