ISE.pdb
     RDKit          3D

 24 23  0  0  1  0  0  0  0  0999 V2000
   16.3535  -12.7913  -19.0914 C   0  0  0  0  0  0  0  0  0  0  0  0
   17.7642  -13.0619  -18.5441 C   0  0  0  0  0  0  0  0  0  0  0  0
   18.1333  -12.0476  -17.5170 C   0  0  2  0  0  0  0  0  0  0  0  0
   17.9692  -10.6249  -18.0041 C   0  0  0  0  0  0  0  0  0  0  0  0
   19.4739  -12.2032  -16.8943 C   0  0  2  0  0  0  0  0  0  0  0  0
   19.6173  -13.5720  -16.4297 N   0  0  0  0  0  0  0  0  0  0  0  0
   19.6999  -11.2334  -15.7965 C   0  0  0  0  0  0  0  0  0  0  0  0
   18.9201  -11.0612  -14.8287 O   0  0  0  0  0  0  0  0  0  0  0  0
   23.4838   -9.9541  -14.6428 O   0  0  0  0  0  0  0  0  0  0  0  0
   22.3282   -9.8173  -13.8838 C   0  0  0  0  0  0  0  0  0  0  0  0
   21.1311   -9.4455  -14.7282 C   0  0  2  0  0  0  0  0  0  0  0  0
   20.8761  -10.3987  -15.7774 N   0  0  0  0  0  0  0  0  0  0  0  0
   21.2731   -8.0651  -15.2299 C   0  0  0  0  0  0  0  0  0  0  0  0
   21.8002   -7.8451  -16.3451 O   0  0  0  0  0  0  0  0  0  0  0  0
   20.8081   -6.9858  -14.4396 N   0  0  0  0  0  0  0  0  0  0  0  0
   21.0181   -5.5779  -14.8263 C   0  0  1  0  0  0  0  0  0  0  0  0
   19.7169   -4.8951  -14.6010 C   0  0  0  0  0  0  0  0  0  0  0  0
   19.6080   -3.4493  -14.8784 C   0  0  0  0  0  0  0  0  0  0  0  0
   18.3603   -2.7417  -14.6580 C   0  0  0  0  0  0  0  0  0  0  0  0
   18.2267   -1.7584  -13.9490 O   0  0  0  0  0  0  0  0  0  0  0  0
   22.1522   -4.9927  -14.1723 C   0  0  0  0  0  0  0  0  0  0  0  0
   22.9251   -4.0313  -14.8480 O   0  0  0  0  0  0  0  0  0  0  0  0
   17.1893   -3.2131  -15.3085 O   0  0  0  0  0  0  0  0  0  0  0  0
   22.5400   -5.2703  -12.9918 O   0  0  0  0  0  0  0  0  0  0  0  0
  1  2  1  0
  3  2  1  0
  3  5  1  0
  3  4  1  6
  5  6  1  1
  7  5  1  0
  7 12  1  0
  8  7  2  0
 10  9  1  0
 11 10  1  6
 11 12  1  0
 11 13  1  0
 13 14  2  0
 13 15  1  0
 15 16  1  0
 16 17  1  1
 16 21  1  0
 17 18  1  0
 18 19  1  0
 19 23  1  0
 19 20  2  0
 21 22  1  0
 24 21  2  0
M  END
$$$$
