ISE.pdb
     RDKit          3D

 24 23  0  0  1  0  0  0  0  0999 V2000
   28.3796  -26.5126    6.9745 C   0  0  0  0  0  0  0  0  0  0  0  0
   27.1340  -27.1700    7.5901 C   0  0  0  0  0  0  0  0  0  0  0  0
   27.0780  -28.6180    7.2436 C   0  0  2  0  0  0  0  0  0  0  0  0
   27.1384  -28.8729    5.7537 C   0  0  0  0  0  0  0  0  0  0  0  0
   25.9505  -29.3891    7.8295 C   0  0  2  0  0  0  0  0  0  0  0  0
   25.9468  -29.1909    9.2685 N   0  0  0  0  0  0  0  0  0  0  0  0
   26.0134  -30.8286    7.4823 C   0  0  0  0  0  0  0  0  0  0  0  0
   26.8689  -31.6306    7.9288 O   0  0  0  0  0  0  0  0  0  0  0  0
   22.8183  -33.3574    6.8676 O   0  0  0  0  0  0  0  0  0  0  0  0
   23.7157  -33.3226    5.8076 C   0  0  0  0  0  0  0  0  0  0  0  0
   25.0746  -32.8106    6.2266 C   0  0  2  0  0  0  0  0  0  0  0  0
   25.0564  -31.4132    6.5750 N   0  0  0  0  0  0  0  0  0  0  0  0
   26.0782  -33.1308    5.1933 C   0  0  0  0  0  0  0  0  0  0  0  0
   26.2488  -32.3671    4.2147 O   0  0  0  0  0  0  0  0  0  0  0  0
   26.8504  -34.3117    5.3149 N   0  0  0  0  0  0  0  0  0  0  0  0
   27.9211  -34.6550    4.3602 C   0  0  1  0  0  0  0  0  0  0  0  0
   29.0148  -35.2510    5.1718 C   0  0  0  0  0  0  0  0  0  0  0  0
   29.5476  -36.5752    4.7956 C   0  0  0  0  0  0  0  0  0  0  0  0
   30.6278  -37.1840    5.5497 C   0  0  0  0  0  0  0  0  0  0  0  0
   30.7271  -38.3740    5.7976 O   0  0  0  0  0  0  0  0  0  0  0  0
   27.4470  -35.4543    3.2682 C   0  0  0  0  0  0  0  0  0  0  0  0
   28.0639  -35.3473    2.0088 O   0  0  0  0  0  0  0  0  0  0  0  0
   31.6618  -36.3481    6.0483 O   0  0  0  0  0  0  0  0  0  0  0  0
   26.4841  -36.2848    3.3332 O   0  0  0  0  0  0  0  0  0  0  0  0
  1  2  1  0
  3  2  1  0
  3  5  1  0
  3  4  1  6
  5  6  1  1
  7  5  1  0
  7 12  1  0
  8  7  2  0
 10  9  1  0
 11 10  1  6
 11 12  1  0
 11 13  1  0
 13 14  2  0
 13 15  1  0
 15 16  1  0
 16 17  1  1
 16 21  1  0
 17 18  1  0
 18 19  1  0
 19 23  1  0
 19 20  2  0
 21 22  1  0
 24 21  2  0
M  END
$$$$
