ISE.pdb
     RDKit          3D

 24 23  0  0  1  0  0  0  0  0999 V2000
   20.6993  -14.3438  -18.3593 C   0  0  0  0  0  0  0  0  0  0  0  0
   19.4694  -14.0169  -17.4971 C   0  0  0  0  0  0  0  0  0  0  0  0
   19.4611  -12.5761  -17.1177 C   0  0  2  0  0  0  0  0  0  0  0  0
   20.7367  -12.1367  -16.4336 C   0  0  0  0  0  0  0  0  0  0  0  0
   18.2926  -12.1140  -16.3239 C   0  0  2  0  0  0  0  0  0  0  0  0
   17.0753  -12.5172  -17.0063 N   0  0  0  0  0  0  0  0  0  0  0  0
   18.3186  -10.6517  -16.0839 C   0  0  0  0  0  0  0  0  0  0  0  0
   18.4388   -9.7859  -16.9841 O   0  0  0  0  0  0  0  0  0  0  0  0
   17.3149   -6.9449  -13.1113 O   0  0  0  0  0  0  0  0  0  0  0  0
   17.3405   -8.3185  -13.3178 C   0  0  0  0  0  0  0  0  0  0  0  0
   18.2335   -8.7055  -14.4742 C   0  0  2  0  0  0  0  0  0  0  0  0
   18.2028  -10.1190  -14.7484 N   0  0  0  0  0  0  0  0  0  0  0  0
   19.5999   -8.1939  -14.2534 C   0  0  0  0  0  0  0  0  0  0  0  0
   20.4237   -8.8526  -13.5770 O   0  0  0  0  0  0  0  0  0  0  0  0
   19.9759   -6.9484  -14.8129 N   0  0  0  0  0  0  0  0  0  0  0  0
   21.3464   -6.4149  -14.6992 C   0  0  1  0  0  0  0  0  0  0  0  0
   21.7641   -6.0669  -16.0828 C   0  0  0  0  0  0  0  0  0  0  0  0
   23.0976   -5.4727  -16.3015 C   0  0  0  0  0  0  0  0  0  0  0  0
   23.5473   -5.1257  -17.6370 C   0  0  0  0  0  0  0  0  0  0  0  0
   22.9178   -5.3223  -18.6628 O   0  0  0  0  0  0  0  0  0  0  0  0
   21.4462   -5.3604  -13.7327 C   0  0  0  0  0  0  0  0  0  0  0  0
   22.6675   -5.1353  -13.0726 O   0  0  0  0  0  0  0  0  0  0  0  0
   24.8172   -4.5077  -17.7857 O   0  0  0  0  0  0  0  0  0  0  0  0
   20.4977   -4.5772  -13.4035 O   0  0  0  0  0  0  0  0  0  0  0  0
  1  2  1  0
  3  2  1  0
  3  5  1  0
  3  4  1  1
  5  6  1  6
  7  5  1  0
  7 12  1  0
  8  7  2  0
 10  9  1  0
 11 10  1  1
 11 12  1  0
 11 13  1  0
 13 14  2  0
 13 15  1  0
 15 16  1  0
 16 17  1  6
 16 21  1  0
 17 18  1  0
 18 19  1  0
 19 23  1  0
 19 20  2  0
 21 22  1  0
 24 21  2  0
M  END
$$$$
