ISE.pdb
     RDKit          3D

 24 23  0  0  1  0  0  0  0  0999 V2000
   19.2426  -13.0200  -19.6000 C   0  0  0  0  0  0  0  0  0  0  0  0
   20.4868  -12.4323  -18.9149 C   0  0  0  0  0  0  0  0  0  0  0  0
   20.1189  -11.2584  -18.0742 C   0  0  2  0  0  0  0  0  0  0  0  0
   19.2743  -10.2433  -18.8121 C   0  0  0  0  0  0  0  0  0  0  0  0
   21.2417  -10.5626  -17.3930 C   0  0  2  0  0  0  0  0  0  0  0  0
   21.9617  -11.5249  -16.5771 N   0  0  0  0  0  0  0  0  0  0  0  0
   20.7809   -9.4077  -16.5863 C   0  0  0  0  0  0  0  0  0  0  0  0
   20.1885   -8.4054  -17.0541 O   0  0  0  0  0  0  0  0  0  0  0  0
   22.0461   -8.9043  -12.5215 O   0  0  0  0  0  0  0  0  0  0  0  0
   20.7642   -8.5015  -12.8743 C   0  0  0  0  0  0  0  0  0  0  0  0
   20.6387   -8.2288  -14.3556 C   0  0  2  0  0  0  0  0  0  0  0  0
   20.9958   -9.3685  -15.1605 N   0  0  0  0  0  0  0  0  0  0  0  0
   21.3961   -7.0141  -14.7138 C   0  0  0  0  0  0  0  0  0  0  0  0
   22.4591   -7.0986  -15.3716 O   0  0  0  0  0  0  0  0  0  0  0  0
   20.9120   -5.7467  -14.3075 N   0  0  0  0  0  0  0  0  0  0  0  0
   21.5922   -4.4895  -14.6715 C   0  0  1  0  0  0  0  0  0  0  0  0
   21.5185   -4.4008  -16.1537 C   0  0  0  0  0  0  0  0  0  0  0  0
   21.9766   -3.1670  -16.8222 C   0  0  0  0  0  0  0  0  0  0  0  0
   21.8229   -2.9965  -18.2552 C   0  0  0  0  0  0  0  0  0  0  0  0
   21.5831   -1.9397  -18.8146 O   0  0  0  0  0  0  0  0  0  0  0  0
   21.0795   -3.3601  -13.9519 C   0  0  0  0  0  0  0  0  0  0  0  0
   19.8528   -3.4669  -13.2724 O   0  0  0  0  0  0  0  0  0  0  0  0
   21.9579   -4.1359  -19.0920 O   0  0  0  0  0  0  0  0  0  0  0  0
   21.6523   -2.2262  -13.8652 O   0  0  0  0  0  0  0  0  0  0  0  0
  1  2  1  0
  3  2  1  0
  3  5  1  0
  3  4  1  6
  5  6  1  1
  7  5  1  0
  7 12  1  0
  8  7  2  0
 10  9  1  0
 11 10  1  1
 11 12  1  0
 11 13  1  0
 13 14  2  0
 13 15  1  0
 15 16  1  0
 16 17  1  6
 16 21  1  0
 17 18  1  0
 18 19  1  0
 19 23  1  0
 19 20  2  0
 21 22  1  0
 24 21  2  0
M  END
$$$$
