ISE.pdb
     RDKit          3D

 24 23  0  0  1  0  0  0  0  0999 V2000
   17.8047   -9.1841  -21.9852 C   0  0  0  0  0  0  0  0  0  0  0  0
   18.6901  -10.2194  -21.2731 C   0  0  0  0  0  0  0  0  0  0  0  0
   19.1086   -9.7204  -19.9330 C   0  0  2  0  0  0  0  0  0  0  0  0
   19.8361   -8.3955  -19.9953 C   0  0  0  0  0  0  0  0  0  0  0  0
   19.8855  -10.6695  -19.0935 C   0  0  2  0  0  0  0  0  0  0  0  0
   19.1538  -11.9212  -19.0043 N   0  0  0  0  0  0  0  0  0  0  0  0
   20.1809  -10.1192  -17.7494 C   0  0  0  0  0  0  0  0  0  0  0  0
   19.3217   -9.9279  -16.8552 O   0  0  0  0  0  0  0  0  0  0  0  0
   24.1342   -9.9515  -16.0854 O   0  0  0  0  0  0  0  0  0  0  0  0
   22.9387   -9.9559  -15.3777 C   0  0  0  0  0  0  0  0  0  0  0  0
   21.8488   -9.1913  -16.0931 C   0  0  2  0  0  0  0  0  0  0  0  0
   21.5269   -9.7576  -17.3776 N   0  0  0  0  0  0  0  0  0  0  0  0
   22.1994   -7.7599  -16.1692 C   0  0  0  0  0  0  0  0  0  0  0  0
   22.7771   -7.2999  -17.1814 O   0  0  0  0  0  0  0  0  0  0  0  0
   21.8776   -6.9057  -15.0863 N   0  0  0  0  0  0  0  0  0  0  0  0
   22.2025   -5.4670  -15.0940 C   0  0  1  0  0  0  0  0  0  0  0  0
   21.1684   -4.8204  -15.9441 C   0  0  0  0  0  0  0  0  0  0  0  0
   19.8039   -4.6480  -15.4079 C   0  0  0  0  0  0  0  0  0  0  0  0
   18.7501   -4.0765  -16.2257 C   0  0  0  0  0  0  0  0  0  0  0  0
   18.1376   -4.6705  -17.0971 O   0  0  0  0  0  0  0  0  0  0  0  0
   22.3492   -4.9306  -13.7722 C   0  0  0  0  0  0  0  0  0  0  0  0
   22.8026   -3.6099  -13.6040 O   0  0  0  0  0  0  0  0  0  0  0  0
   18.3863   -2.7204  -16.0125 O   0  0  0  0  0  0  0  0  0  0  0  0
   22.0969   -5.5604  -12.6948 O   0  0  0  0  0  0  0  0  0  0  0  0
  1  2  1  0
  3  2  1  0
  3  5  1  0
  3  4  1  6
  5  6  1  1
  7  5  1  0
  7 12  1  0
  8  7  2  0
 10  9  1  0
 11 10  1  6
 11 12  1  0
 11 13  1  0
 13 14  2  0
 13 15  1  0
 15 16  1  0
 16 17  1  1
 16 21  1  0
 17 18  1  0
 18 19  1  0
 19 23  1  0
 19 20  2  0
 21 22  1  0
 24 21  2  0
M  END
$$$$
