ISE.pdb
     RDKit          3D

 24 23  0  0  1  0  0  0  0  0999 V2000
   26.9745  -10.2243  -15.2983 C   0  0  0  0  0  0  0  0  0  0  0  0
   25.9478  -11.0751  -16.0632 C   0  0  0  0  0  0  0  0  0  0  0  0
   24.7455  -10.2651  -16.4069 C   0  0  2  0  0  0  0  0  0  0  0  0
   24.0904   -9.6353  -15.1975 C   0  0  0  0  0  0  0  0  0  0  0  0
   23.7106  -10.9447  -17.2292 C   0  0  2  0  0  0  0  0  0  0  0  0
   24.3669  -11.6535  -18.3141 N   0  0  0  0  0  0  0  0  0  0  0  0
   22.6892  -10.0003  -17.7405 C   0  0  0  0  0  0  0  0  0  0  0  0
   22.9486   -8.9321  -18.3456 O   0  0  0  0  0  0  0  0  0  0  0  0
   18.0581   -9.1562  -18.9451 O   0  0  0  0  0  0  0  0  0  0  0  0
   18.9883  -10.0399  -18.4125 C   0  0  0  0  0  0  0  0  0  0  0  0
   20.2619   -9.3433  -17.9917 C   0  0  2  0  0  0  0  0  0  0  0  0
   21.2823  -10.2657  -17.5646 N   0  0  0  0  0  0  0  0  0  0  0  0
   19.9648   -8.3093  -16.9818 C   0  0  0  0  0  0  0  0  0  0  0  0
   19.9638   -8.5941  -15.7616 O   0  0  0  0  0  0  0  0  0  0  0  0
   19.6793   -6.9873  -17.4020 N   0  0  0  0  0  0  0  0  0  0  0  0
   19.4251   -5.8938  -16.4453 C   0  0  1  0  0  0  0  0  0  0  0  0
   20.6145   -5.8470  -15.5547 C   0  0  0  0  0  0  0  0  0  0  0  0
   20.7392   -4.7439  -14.5817 C   0  0  0  0  0  0  0  0  0  0  0  0
   21.8654   -4.6814  -13.6685 C   0  0  0  0  0  0  0  0  0  0  0  0
   22.7685   -3.8636  -13.7227 O   0  0  0  0  0  0  0  0  0  0  0  0
   19.0840   -4.6629  -17.0971 C   0  0  0  0  0  0  0  0  0  0  0  0
   19.1201   -4.5860  -18.5010 O   0  0  0  0  0  0  0  0  0  0  0  0
   21.9432   -5.6376  -12.6215 O   0  0  0  0  0  0  0  0  0  0  0  0
   18.7368   -3.5918  -16.5026 O   0  0  0  0  0  0  0  0  0  0  0  0
  1  2  1  0
  3  2  1  0
  3  5  1  0
  3  4  1  1
  5  6  1  6
  7  5  1  0
  7 12  1  0
  8  7  2  0
 10  9  1  0
 11 10  1  1
 11 12  1  0
 11 13  1  0
 13 14  2  0
 13 15  1  0
 15 16  1  0
 16 17  1  6
 16 21  1  0
 17 18  1  0
 18 19  1  0
 19 23  1  0
 19 20  2  0
 21 22  1  0
 24 21  2  0
M  END
$$$$
