ISE.pdb
     RDKit          3D

 24 23  0  0  1  0  0  0  0  0999 V2000
   20.3605  -13.7970  -18.5730 C   0  0  0  0  0  0  0  0  0  0  0  0
   19.3993  -13.5771  -17.3938 C   0  0  0  0  0  0  0  0  0  0  0  0
   19.3929  -12.1457  -16.9805 C   0  0  2  0  0  0  0  0  0  0  0  0
   20.7760  -11.6085  -16.6857 C   0  0  0  0  0  0  0  0  0  0  0  0
   18.4785  -11.7899  -15.8641 C   0  0  2  0  0  0  0  0  0  0  0  0
   17.1682  -12.3553  -16.1351 N   0  0  0  0  0  0  0  0  0  0  0  0
   18.4008  -10.3260  -15.6458 C   0  0  0  0  0  0  0  0  0  0  0  0
   18.2098   -9.4812  -16.5537 O   0  0  0  0  0  0  0  0  0  0  0  0
   18.2868   -8.6101  -11.7019 O   0  0  0  0  0  0  0  0  0  0  0  0
   17.7904   -7.9695  -12.8303 C   0  0  0  0  0  0  0  0  0  0  0  0
   18.5496   -8.3468  -14.0816 C   0  0  2  0  0  0  0  0  0  0  0  0
   18.5461   -9.7664  -14.3243 N   0  0  0  0  0  0  0  0  0  0  0  0
   19.9095   -7.7753  -14.0416 C   0  0  0  0  0  0  0  0  0  0  0  0
   20.8793   -8.4687  -13.6562 O   0  0  0  0  0  0  0  0  0  0  0  0
   20.1125   -6.4324  -14.4431 N   0  0  0  0  0  0  0  0  0  0  0  0
   21.4349   -5.7822  -14.3795 C   0  0  1  0  0  0  0  0  0  0  0  0
   21.4561   -4.7927  -15.4888 C   0  0  0  0  0  0  0  0  0  0  0  0
   22.6365   -3.9212  -15.6503 C   0  0  0  0  0  0  0  0  0  0  0  0
   22.6437   -2.8532  -16.6329 C   0  0  0  0  0  0  0  0  0  0  0  0
   23.4572   -1.9457  -16.6772 O   0  0  0  0  0  0  0  0  0  0  0  0
   21.7295   -5.2645  -13.0751 C   0  0  0  0  0  0  0  0  0  0  0  0
   23.0647   -5.0126  -12.7120 O   0  0  0  0  0  0  0  0  0  0  0  0
   21.6337   -2.8434  -17.6311 O   0  0  0  0  0  0  0  0  0  0  0  0
   20.8634   -4.9997  -12.1801 O   0  0  0  0  0  0  0  0  0  0  0  0
  1  2  1  0
  3  2  1  0
  3  5  1  0
  3  4  1  1
  5  6  1  6
  7  5  1  0
  7 12  1  0
  8  7  2  0
 10  9  1  0
 11 10  1  1
 11 12  1  0
 11 13  1  0
 13 14  2  0
 13 15  1  0
 15 16  1  0
 16 17  1  6
 16 21  1  0
 17 18  1  0
 18 19  1  0
 19 23  1  0
 19 20  2  0
 21 22  1  0
 24 21  2  0
M  END
$$$$
