ISE.pdb
     RDKit          3D

 24 23  0  0  1  0  0  0  0  0999 V2000
   16.3011  -14.1054  -18.3974 C   0  0  0  0  0  0  0  0  0  0  0  0
   17.7606  -14.4633  -18.0742 C   0  0  0  0  0  0  0  0  0  0  0  0
   18.4705  -13.2938  -17.4841 C   0  0  2  0  0  0  0  0  0  0  0  0
   18.4333  -12.0692  -18.3714 C   0  0  0  0  0  0  0  0  0  0  0  0
   19.8666  -13.5333  -17.0340 C   0  0  2  0  0  0  0  0  0  0  0  0
   19.9031  -14.7602  -16.2571 N   0  0  0  0  0  0  0  0  0  0  0  0
   20.4134  -12.3903  -16.2652 C   0  0  0  0  0  0  0  0  0  0  0  0
   19.8399  -11.8521  -15.2875 O   0  0  0  0  0  0  0  0  0  0  0  0
   23.9592  -10.2848  -17.5486 O   0  0  0  0  0  0  0  0  0  0  0  0
   23.7031  -10.4681  -16.1955 C   0  0  0  0  0  0  0  0  0  0  0  0
   22.2318  -10.6706  -15.9150 C   0  0  2  0  0  0  0  0  0  0  0  0
   21.6871  -11.8079  -16.6108 N   0  0  0  0  0  0  0  0  0  0  0  0
   21.4881   -9.4246  -16.1827 C   0  0  0  0  0  0  0  0  0  0  0  0
   20.7118   -9.3458  -17.1631 O   0  0  0  0  0  0  0  0  0  0  0  0
   21.6579   -8.3135  -15.3211 N   0  0  0  0  0  0  0  0  0  0  0  0
   20.9643   -7.0308  -15.5430 C   0  0  1  0  0  0  0  0  0  0  0  0
   19.5136   -7.3535  -15.5817 C   0  0  0  0  0  0  0  0  0  0  0  0
   18.5345   -6.2502  -15.6383 C   0  0  0  0  0  0  0  0  0  0  0  0
   17.1097   -6.5219  -15.6843 C   0  0  0  0  0  0  0  0  0  0  0  0
   16.6028   -7.5375  -16.1303 O   0  0  0  0  0  0  0  0  0  0  0  0
   21.3555   -6.0251  -14.5988 C   0  0  0  0  0  0  0  0  0  0  0  0
   21.1710   -4.6667  -14.9130 O   0  0  0  0  0  0  0  0  0  0  0  0
   16.2159   -5.5426  -15.1757 O   0  0  0  0  0  0  0  0  0  0  0  0
   21.8728   -6.2539  -13.4580 O   0  0  0  0  0  0  0  0  0  0  0  0
  1  2  1  0
  3  2  1  0
  3  5  1  0
  3  4  1  6
  5  6  1  1
  7  5  1  0
  7 12  1  0
  8  7  2  0
 10  9  1  0
 11 10  1  6
 11 12  1  0
 11 13  1  0
 13 14  2  0
 13 15  1  0
 15 16  1  0
 16 17  1  1
 16 21  1  0
 17 18  1  0
 18 19  1  0
 19 23  1  0
 19 20  2  0
 21 22  1  0
 24 21  2  0
M  END
$$$$
