ISE.pdb
     RDKit          3D

 24 23  0  0  1  0  0  0  0  0999 V2000
   30.2036  -13.7190  -17.5694 C   0  0  0  0  0  0  0  0  0  0  0  0
   29.1500  -13.4428  -16.4847 C   0  0  0  0  0  0  0  0  0  0  0  0
   28.2454  -12.3343  -16.9005 C   0  0  2  0  0  0  0  0  0  0  0  0
   28.9919  -11.0943  -17.3404 C   0  0  0  0  0  0  0  0  0  0  0  0
   27.1868  -11.9529  -15.9294 C   0  0  2  0  0  0  0  0  0  0  0  0
   26.4736  -13.1508  -15.5213 N   0  0  0  0  0  0  0  0  0  0  0  0
   26.2614  -10.9335  -16.4779 C   0  0  0  0  0  0  0  0  0  0  0  0
   26.5956   -9.7652  -16.7905 O   0  0  0  0  0  0  0  0  0  0  0  0
   22.0642  -11.4957  -16.1945 O   0  0  0  0  0  0  0  0  0  0  0  0
   22.5295  -10.8141  -17.3121 C   0  0  0  0  0  0  0  0  0  0  0  0
   23.9113  -10.2406  -17.0969 C   0  0  2  0  0  0  0  0  0  0  0  0
   24.8679  -11.2383  -16.6923 N   0  0  0  0  0  0  0  0  0  0  0  0
   23.8467   -9.0974  -16.1661 C   0  0  0  0  0  0  0  0  0  0  0  0
   23.9923   -9.2719  -14.9339 O   0  0  0  0  0  0  0  0  0  0  0  0
   23.6180   -7.7962  -16.6762 N   0  0  0  0  0  0  0  0  0  0  0  0
   23.4871   -6.6176  -15.7991 C   0  0  1  0  0  0  0  0  0  0  0  0
   23.8217   -5.4414  -16.6446 C   0  0  0  0  0  0  0  0  0  0  0  0
   23.8158   -4.0961  -16.0370 C   0  0  0  0  0  0  0  0  0  0  0  0
   24.0373   -2.9129  -16.8476 C   0  0  0  0  0  0  0  0  0  0  0  0
   23.8540   -1.7650  -16.4788 O   0  0  0  0  0  0  0  0  0  0  0  0
   22.2181   -6.5674  -15.1333 C   0  0  0  0  0  0  0  0  0  0  0  0
   22.1296   -6.0066  -13.8465 O   0  0  0  0  0  0  0  0  0  0  0  0
   24.5041   -3.0803  -18.1783 O   0  0  0  0  0  0  0  0  0  0  0  0
   21.1211   -6.9978  -15.6156 O   0  0  0  0  0  0  0  0  0  0  0  0
  1  2  1  0
  3  2  1  0
  3  5  1  0
  3  4  1  1
  5  6  1  6
  7  5  1  0
  7 12  1  0
  8  7  2  0
 10  9  1  0
 11 10  1  1
 11 12  1  0
 11 13  1  0
 13 14  2  0
 13 15  1  0
 15 16  1  0
 16 17  1  6
 16 21  1  0
 17 18  1  0
 18 19  1  0
 19 23  1  0
 19 20  2  0
 21 22  1  0
 24 21  2  0
M  END
$$$$
