ALC.pdb
     RDKit          3D

 20 19  0  0  1  0  0  0  0  0999 V2000
    8.2883  -17.5243   21.1214 C   0  0  0  0  0  0  0  0  0  0  0  0
    8.3444  -16.0031   20.9595 C   0  0  2  0  0  0  0  0  0  0  0  0
    9.4136  -15.7258   20.0209 N   0  0  0  0  0  0  0  0  0  0  0  0
    8.6754  -15.4461   22.2941 C   0  0  0  0  0  0  0  0  0  0  0  0
    9.8847  -15.3543   22.6356 O   0  0  0  0  0  0  0  0  0  0  0  0
    8.2481  -12.0260   26.3692 C   0  0  0  0  0  0  0  0  0  0  0  0
    7.1862  -13.1091   26.4369 C   0  0  1  0  0  0  0  0  0  0  0  0
    5.8831  -12.4920   27.0108 C   0  0  0  0  0  0  0  0  0  0  0  0
    6.9159  -13.6293   25.0704 C   0  0  0  0  0  0  0  0  0  0  0  0
    8.0350  -14.4524   24.5243 C   0  0  2  0  0  0  0  0  0  0  0  0
    7.6887  -15.0067   23.2156 N   0  0  0  0  0  0  0  0  0  0  0  0
    8.4546  -15.4844   25.4632 C   0  0  0  0  0  0  0  0  0  0  0  0
    7.6864  -16.4107   25.8033 O   0  0  0  0  0  0  0  0  0  0  0  0
    9.7573  -15.5216   26.0622 N   0  0  0  0  0  0  0  0  0  0  0  0
   10.1202  -16.6008   26.9427 C   0  0  1  0  0  0  0  0  0  0  0  0
   11.3554  -17.3328   26.4516 C   0  0  0  0  0  0  0  0  0  0  0  0
   11.5346  -17.1678   24.6648 S   0  0  0  0  0  0  0  0  0  0  0  0
   10.3023  -16.1136   28.3335 C   0  0  0  0  0  0  0  0  0  0  0  0
   10.2384  -14.8992   28.6403 O   0  0  0  0  0  0  0  0  0  0  0  0
   10.5521  -17.0436   29.3238 O   0  0  0  0  0  0  0  0  0  0  0  0
  2  1  1  1
  2  4  1  0
  3  2  1  0
  4  5  2  0
  7  6  1  6
  7  9  1  0
  8  7  1  0
 10  9  1  1
 10 12  1  0
 11 10  1  0
 11  4  1  0
 12 13  2  0
 12 14  1  0
 14 15  1  0
 15 18  1  0
 15 16  1  6
 17 16  1  0
 18 19  2  0
 18 20  1  0
M  END
$$$$
