ALC.pdb
     RDKit          3D

 20 19  0  0  1  0  0  0  0  0999 V2000
    8.9435  -19.9575   17.8119 C   0  0  0  0  0  0  0  0  0  0  0  0
    8.9436  -18.6970   16.9432 C   0  0  2  0  0  0  0  0  0  0  0  0
    9.9365  -18.9074   15.9083 N   0  0  0  0  0  0  0  0  0  0  0  0
    9.3499  -17.5744   17.8240 C   0  0  0  0  0  0  0  0  0  0  0  0
   10.5659  -17.4442   18.1271 O   0  0  0  0  0  0  0  0  0  0  0  0
    9.1380  -12.5794   19.4597 C   0  0  0  0  0  0  0  0  0  0  0  0
    8.1649  -13.4068   20.2805 C   0  0  1  0  0  0  0  0  0  0  0  0
    6.9206  -12.5370   20.6014 C   0  0  0  0  0  0  0  0  0  0  0  0
    7.7367  -14.5961   19.4972 C   0  0  0  0  0  0  0  0  0  0  0  0
    8.8309  -15.5913   19.2969 C   0  0  2  0  0  0  0  0  0  0  0  0
    8.4288  -16.6297   18.3483 N   0  0  0  0  0  0  0  0  0  0  0  0
    9.2897  -16.1516   20.5611 C   0  0  0  0  0  0  0  0  0  0  0  0
    8.6169  -17.0040   21.1812 O   0  0  0  0  0  0  0  0  0  0  0  0
   10.5261  -15.7787   21.1853 N   0  0  0  0  0  0  0  0  0  0  0  0
   11.0036  -16.4990   22.3364 C   0  0  1  0  0  0  0  0  0  0  0  0
   11.1212  -17.9859   22.0572 C   0  0  0  0  0  0  0  0  0  0  0  0
   11.5485  -18.8916   23.5570 S   0  0  0  0  0  0  0  0  0  0  0  0
   12.2924  -15.9393   22.8166 C   0  0  0  0  0  0  0  0  0  0  0  0
   13.0163  -15.1997   22.1081 O   0  0  0  0  0  0  0  0  0  0  0  0
   12.7029  -16.2514   24.0979 O   0  0  0  0  0  0  0  0  0  0  0  0
  2  1  1  1
  2  4  1  0
  3  2  1  0
  4  5  2  0
  7  6  1  6
  7  9  1  0
  8  7  1  0
 10  9  1  1
 10 12  1  0
 11 10  1  0
 11  4  1  0
 12 13  2  0
 12 14  1  0
 14 15  1  0
 15 18  1  0
 15 16  1  6
 17 16  1  0
 18 19  2  0
 18 20  1  0
M  END
$$$$
