ALC.pdb
     RDKit          3D

 20 19  0  0  1  0  0  0  0  0999 V2000
    7.4248  -19.8853   21.6154 C   0  0  0  0  0  0  0  0  0  0  0  0
    7.0922  -18.8751   20.5144 C   0  0  2  0  0  0  0  0  0  0  0  0
    7.2310  -19.5764   19.2535 N   0  0  0  0  0  0  0  0  0  0  0  0
    8.1010  -17.7918   20.6133 C   0  0  0  0  0  0  0  0  0  0  0  0
    9.2784  -18.0153   20.2243 O   0  0  0  0  0  0  0  0  0  0  0  0
    6.8187  -12.4058   20.2613 C   0  0  0  0  0  0  0  0  0  0  0  0
    7.5098  -13.7462   20.0845 C   0  0  1  0  0  0  0  0  0  0  0  0
    8.5451  -13.6235   18.9351 C   0  0  0  0  0  0  0  0  0  0  0  0
    8.2191  -14.1114   21.3394 C   0  0  0  0  0  0  0  0  0  0  0  0
    8.8299  -15.4727   21.2928 C   0  0  2  0  0  0  0  0  0  0  0  0
    7.8043  -16.5028   21.1292 N   0  0  0  0  0  0  0  0  0  0  0  0
    9.6793  -15.7236   22.4496 C   0  0  0  0  0  0  0  0  0  0  0  0
    9.1951  -15.9314   23.5837 O   0  0  0  0  0  0  0  0  0  0  0  0
   11.1118  -15.7521   22.3834 N   0  0  0  0  0  0  0  0  0  0  0  0
   11.8815  -16.1940   23.5166 C   0  0  1  0  0  0  0  0  0  0  0  0
   11.4736  -17.5861   23.9619 C   0  0  0  0  0  0  0  0  0  0  0  0
   11.9173  -17.8669   25.6871 S   0  0  0  0  0  0  0  0  0  0  0  0
   13.3367  -16.1270   23.2293 C   0  0  0  0  0  0  0  0  0  0  0  0
   13.7929  -15.9786   22.0705 O   0  0  0  0  0  0  0  0  0  0  0  0
   14.2171  -16.2334   24.2884 O   0  0  0  0  0  0  0  0  0  0  0  0
  2  1  1  1
  2  4  1  0
  3  2  1  0
  4  5  2  0
  7  6  1  1
  7  9  1  0
  8  7  1  0
 10  9  1  1
 10 12  1  0
 11 10  1  0
 11  4  1  0
 12 13  2  0
 12 14  1  0
 14 15  1  0
 15 18  1  0
 15 16  1  6
 17 16  1  0
 18 19  2  0
 18 20  1  0
M  END
$$$$
