ALC.pdb
     RDKit          3D

 20 19  0  0  1  0  0  0  0  0999 V2000
    8.0876  -17.4208   22.3972 C   0  0  0  0  0  0  0  0  0  0  0  0
    7.5276  -16.0034   22.2537 C   0  0  2  0  0  0  0  0  0  0  0  0
    7.8882  -15.5482   20.9256 N   0  0  0  0  0  0  0  0  0  0  0  0
    8.2030  -15.1740   23.2818 C   0  0  0  0  0  0  0  0  0  0  0  0
    9.4004  -14.8276   23.0982 O   0  0  0  0  0  0  0  0  0  0  0  0
    5.4233  -11.8520   26.6533 C   0  0  0  0  0  0  0  0  0  0  0  0
    6.4611  -12.4275   25.7061 C   0  0  1  0  0  0  0  0  0  0  0  0
    7.2933  -11.2602   25.1122 C   0  0  0  0  0  0  0  0  0  0  0  0
    7.3680  -13.3388   26.4533 C   0  0  0  0  0  0  0  0  0  0  0  0
    8.2935  -14.1026   25.5655 C   0  0  2  0  0  0  0  0  0  0  0  0
    7.5622  -14.7463   24.4743 N   0  0  0  0  0  0  0  0  0  0  0  0
    9.1031  -15.0519   26.3178 C   0  0  0  0  0  0  0  0  0  0  0  0
    9.7446  -14.7038   27.3333 O   0  0  0  0  0  0  0  0  0  0  0  0
    9.2280  -16.4358   25.9623 N   0  0  0  0  0  0  0  0  0  0  0  0
   10.0966  -17.3024   26.7148 C   0  0  1  0  0  0  0  0  0  0  0  0
    9.3447  -18.4908   27.2849 C   0  0  0  0  0  0  0  0  0  0  0  0
   10.4584  -19.5864   28.1857 S   0  0  0  0  0  0  0  0  0  0  0  0
   11.2514  -17.7425   25.8915 C   0  0  0  0  0  0  0  0  0  0  0  0
   12.1989  -18.4182   26.3590 O   0  0  0  0  0  0  0  0  0  0  0  0
   11.2745  -17.3882   24.5567 O   0  0  0  0  0  0  0  0  0  0  0  0
  2  1  1  6
  2  4  1  0
  3  2  1  0
  4  5  2  0
  7  6  1  1
  7  9  1  0
  8  7  1  0
 10  9  1  1
 10 12  1  0
 11 10  1  0
 11  4  1  0
 12 13  2  0
 12 14  1  0
 14 15  1  0
 15 18  1  0
 15 16  1  6
 17 16  1  0
 18 19  2  0
 18 20  1  0
M  END
$$$$
