ALC.pdb
     RDKit          3D

 20 19  0  0  1  0  0  0  0  0999 V2000
    8.9595  -18.9542   23.5878 C   0  0  0  0  0  0  0  0  0  0  0  0
    8.2125  -17.9513   22.7048 C   0  0  2  0  0  0  0  0  0  0  0  0
    8.7562  -18.0910   21.3685 N   0  0  0  0  0  0  0  0  0  0  0  0
    8.5153  -16.6028   23.2442 C   0  0  0  0  0  0  0  0  0  0  0  0
    9.6108  -16.0567   22.9456 O   0  0  0  0  0  0  0  0  0  0  0  0
    7.3674  -11.6233   24.9070 C   0  0  0  0  0  0  0  0  0  0  0  0
    7.0765  -12.6668   25.9709 C   0  0  1  0  0  0  0  0  0  0  0  0
    5.8421  -12.2085   26.7920 C   0  0  0  0  0  0  0  0  0  0  0  0
    6.7712  -13.9695   25.3221 C   0  0  0  0  0  0  0  0  0  0  0  0
    7.9472  -14.5661   24.6226 C   0  0  2  0  0  0  0  0  0  0  0  0
    7.6245  -15.8890   24.0883 N   0  0  0  0  0  0  0  0  0  0  0  0
    9.1273  -14.5927   25.4766 C   0  0  0  0  0  0  0  0  0  0  0  0
    9.8494  -13.5827   25.6259 O   0  0  0  0  0  0  0  0  0  0  0  0
    9.5489  -15.7564   26.2014 N   0  0  0  0  0  0  0  0  0  0  0  0
   10.3728  -15.6215   27.3739 C   0  0  1  0  0  0  0  0  0  0  0  0
    9.6738  -14.8262   28.4608 C   0  0  0  0  0  0  0  0  0  0  0  0
   10.7743  -14.5425   29.8610 S   0  0  0  0  0  0  0  0  0  0  0  0
   10.8054  -16.9507   27.8752 C   0  0  0  0  0  0  0  0  0  0  0  0
   10.0262  -17.9298   27.9598 O   0  0  0  0  0  0  0  0  0  0  0  0
   12.1223  -17.1057   28.2620 O   0  0  0  0  0  0  0  0  0  0  0  0
  2  1  1  1
  2  4  1  0
  3  2  1  0
  4  5  2  0
  7  6  1  6
  7  9  1  0
  8  7  1  0
 10  9  1  1
 10 12  1  0
 11 10  1  0
 11  4  1  0
 12 13  2  0
 12 14  1  0
 14 15  1  0
 15 18  1  0
 15 16  1  1
 17 16  1  0
 18 19  2  0
 18 20  1  0
M  END
$$$$
