ALC.pdb
     RDKit          3D

 20 19  0  0  1  0  0  0  0  0999 V2000
    7.7126  -14.3521   20.6430 C   0  0  0  0  0  0  0  0  0  0  0  0
    7.7384  -15.4911   21.6655 C   0  0  2  0  0  0  0  0  0  0  0  0
    6.3661  -15.9256   21.8360 N   0  0  0  0  0  0  0  0  0  0  0  0
    8.2554  -14.9142   22.9308 C   0  0  0  0  0  0  0  0  0  0  0  0
    9.4695  -14.5847   23.0014 O   0  0  0  0  0  0  0  0  0  0  0  0
    5.4332  -11.7135   26.5111 C   0  0  0  0  0  0  0  0  0  0  0  0
    6.5015  -12.3187   25.6178 C   0  0  1  0  0  0  0  0  0  0  0  0
    7.7017  -11.3378   25.5443 C   0  0  0  0  0  0  0  0  0  0  0  0
    6.9636  -13.6084   26.1959 C   0  0  0  0  0  0  0  0  0  0  0  0
    7.9995  -14.2869   25.3623 C   0  0  2  0  0  0  0  0  0  0  0  0
    7.4436  -14.7124   24.0778 N   0  0  0  0  0  0  0  0  0  0  0  0
    8.6325  -15.3873   26.0771 C   0  0  0  0  0  0  0  0  0  0  0  0
    9.0925  -15.2393   27.2305 O   0  0  0  0  0  0  0  0  0  0  0  0
    8.7770  -16.7042   25.5273 N   0  0  0  0  0  0  0  0  0  0  0  0
    9.3950  -17.7492   26.3005 C   0  0  1  0  0  0  0  0  0  0  0  0
    8.3713  -18.7419   26.8191 C   0  0  0  0  0  0  0  0  0  0  0  0
    7.4785  -19.5177   25.4577 S   0  0  0  0  0  0  0  0  0  0  0  0
   10.4567  -18.4319   25.5184 C   0  0  0  0  0  0  0  0  0  0  0  0
   10.6495  -18.2101   24.2992 O   0  0  0  0  0  0  0  0  0  0  0  0
   11.2605  -19.3476   26.1691 O   0  0  0  0  0  0  0  0  0  0  0  0
  2  1  1  6
  2  4  1  0
  3  2  1  0
  4  5  2  0
  7  6  1  1
  7  9  1  0
  8  7  1  0
 10  9  1  1
 10 12  1  0
 11 10  1  0
 11  4  1  0
 12 13  2  0
 12 14  1  0
 14 15  1  0
 15 18  1  0
 15 16  1  6
 17 16  1  0
 18 19  2  0
 18 20  1  0
M  END
$$$$
