ALC.pdb
     RDKit          3D

 20 19  0  0  1  0  0  0  0  0999 V2000
    7.9087  -19.3828   25.2437 C   0  0  0  0  0  0  0  0  0  0  0  0
    6.7658  -18.6286   24.5595 C   0  0  2  0  0  0  0  0  0  0  0  0
    6.6304  -19.1969   23.2329 N   0  0  0  0  0  0  0  0  0  0  0  0
    7.1877  -17.2091   24.4695 C   0  0  0  0  0  0  0  0  0  0  0  0
    8.0931  -16.8909   23.6531 O   0  0  0  0  0  0  0  0  0  0  0  0
    5.5459  -11.5878   26.5634 C   0  0  0  0  0  0  0  0  0  0  0  0
    6.2954  -12.4496   25.5629 C   0  0  1  0  0  0  0  0  0  0  0  0
    7.8033  -12.0891   25.6279 C   0  0  0  0  0  0  0  0  0  0  0  0
    6.1241  -13.8846   25.9132 C   0  0  0  0  0  0  0  0  0  0  0  0
    7.0465  -14.7858   25.1614 C   0  0  2  0  0  0  0  0  0  0  0  0
    6.6175  -16.1805   25.2646 N   0  0  0  0  0  0  0  0  0  0  0  0
    8.4322  -14.6066   25.5741 C   0  0  0  0  0  0  0  0  0  0  0  0
    9.0546  -13.5489   25.3337 O   0  0  0  0  0  0  0  0  0  0  0  0
    9.1809  -15.6087   26.2759 N   0  0  0  0  0  0  0  0  0  0  0  0
   10.5513  -15.3659   26.6430 C   0  0  1  0  0  0  0  0  0  0  0  0
   10.6682  -14.2476   27.6620 C   0  0  0  0  0  0  0  0  0  0  0  0
    9.7604  -14.6499   29.1674 S   0  0  0  0  0  0  0  0  0  0  0  0
   11.1983  -16.6091   27.1336 C   0  0  0  0  0  0  0  0  0  0  0  0
   12.4129  -16.6654   27.4410 O   0  0  0  0  0  0  0  0  0  0  0  0
   10.4225  -17.7456   27.2531 O   0  0  0  0  0  0  0  0  0  0  0  0
  2  1  1  1
  2  4  1  0
  3  2  1  0
  4  5  2  0
  7  6  1  1
  7  9  1  0
  8  7  1  0
 10  9  1  1
 10 12  1  0
 11 10  1  0
 11  4  1  0
 12 13  2  0
 12 14  1  0
 14 15  1  0
 15 18  1  0
 15 16  1  1
 17 16  1  0
 18 19  2  0
 18 20  1  0
M  END
$$$$
