ALC.pdb
     RDKit          3D

 20 19  0  0  1  0  0  0  0  0999 V2000
    8.6098  -18.0708   21.9287 C   0  0  0  0  0  0  0  0  0  0  0  0
    8.4294  -16.6074   21.5171 C   0  0  2  0  0  0  0  0  0  0  0  0
    9.4021  -16.3478   20.4743 N   0  0  0  0  0  0  0  0  0  0  0  0
    8.7317  -15.7885   22.7167 C   0  0  0  0  0  0  0  0  0  0  0  0
    9.9343  -15.5497   23.0069 O   0  0  0  0  0  0  0  0  0  0  0  0
    8.0500  -11.6549   25.9464 C   0  0  0  0  0  0  0  0  0  0  0  0
    7.1178  -12.7837   26.3493 C   0  0  1  0  0  0  0  0  0  0  0  0
    5.7816  -12.1710   26.8466 C   0  0  0  0  0  0  0  0  0  0  0  0
    6.8457  -13.6506   25.1722 C   0  0  0  0  0  0  0  0  0  0  0  0
    8.0411  -14.4249   24.7254 C   0  0  2  0  0  0  0  0  0  0  0  0
    7.7245  -15.2549   23.5632 N   0  0  0  0  0  0  0  0  0  0  0  0
    8.6186  -15.2027   25.8136 C   0  0  0  0  0  0  0  0  0  0  0  0
    7.9852  -16.1314   26.3615 O   0  0  0  0  0  0  0  0  0  0  0  0
    9.9346  -14.9714   26.3350 N   0  0  0  0  0  0  0  0  0  0  0  0
   10.4762  -15.8388   27.3479 C   0  0  1  0  0  0  0  0  0  0  0  0
   11.9432  -16.1389   27.1020 C   0  0  0  0  0  0  0  0  0  0  0  0
   12.2151  -16.6764   25.4022 S   0  0  0  0  0  0  0  0  0  0  0  0
   10.2644  -15.2702   28.7032 C   0  0  0  0  0  0  0  0  0  0  0  0
    9.7878  -14.1255   28.8912 O   0  0  0  0  0  0  0  0  0  0  0  0
   10.6094  -16.0412   29.7961 O   0  0  0  0  0  0  0  0  0  0  0  0
  2  1  1  1
  2  4  1  0
  3  2  1  0
  4  5  2  0
  7  6  1  6
  7  9  1  0
  8  7  1  0
 10  9  1  1
 10 12  1  0
 11 10  1  0
 11  4  1  0
 12 13  2  0
 12 14  1  0
 14 15  1  0
 15 18  1  0
 15 16  1  6
 17 16  1  0
 18 19  2  0
 18 20  1  0
M  END
$$$$
