ALC.pdb
     RDKit          3D

 20 19  0  0  1  0  0  0  0  0999 V2000
    8.6286  -20.2529   18.6750 C   0  0  0  0  0  0  0  0  0  0  0  0
    8.7360  -19.0679   17.7119 C   0  0  2  0  0  0  0  0  0  0  0  0
    9.7561  -19.4138   16.7420 N   0  0  0  0  0  0  0  0  0  0  0  0
    9.1701  -17.9020   18.5201 C   0  0  0  0  0  0  0  0  0  0  0  0
   10.3691  -17.8346   18.9014 O   0  0  0  0  0  0  0  0  0  0  0  0
    9.2520  -12.7368   19.4389 C   0  0  0  0  0  0  0  0  0  0  0  0
    8.1803  -13.3605   20.3151 C   0  0  1  0  0  0  0  0  0  0  0  0
    6.9901  -12.3709   20.4249 C   0  0  0  0  0  0  0  0  0  0  0  0
    7.7036  -14.6258   19.6963 C   0  0  0  0  0  0  0  0  0  0  0  0
    8.7467  -15.6931   19.6660 C   0  0  2  0  0  0  0  0  0  0  0  0
    8.2943  -16.8475   18.8897 N   0  0  0  0  0  0  0  0  0  0  0  0
    9.1750  -16.0681   21.0071 C   0  0  0  0  0  0  0  0  0  0  0  0
    8.4005  -16.6405   21.8048 O   0  0  0  0  0  0  0  0  0  0  0  0
   10.4938  -15.8165   21.5119 N   0  0  0  0  0  0  0  0  0  0  0  0
   10.8952  -16.3468   22.7884 C   0  0  1  0  0  0  0  0  0  0  0  0
   10.7289  -17.8540   22.8458 C   0  0  0  0  0  0  0  0  0  0  0  0
   11.3143  -18.5076   24.4213 S   0  0  0  0  0  0  0  0  0  0  0  0
   12.2874  -15.9474   23.1158 C   0  0  0  0  0  0  0  0  0  0  0  0
   12.8029  -16.1467   24.2416 O   0  0  0  0  0  0  0  0  0  0  0  0
   13.0381  -15.3314   22.1336 O   0  0  0  0  0  0  0  0  0  0  0  0
  2  1  1  1
  2  4  1  0
  3  2  1  0
  4  5  2  0
  7  6  1  6
  7  9  1  0
  8  7  1  0
 10  9  1  1
 10 12  1  0
 11 10  1  0
 11  4  1  0
 12 13  2  0
 12 14  1  0
 14 15  1  0
 15 18  1  0
 15 16  1  6
 17 16  1  0
 18 19  2  0
 18 20  1  0
M  END
$$$$
