ALC.pdb
     RDKit          3D

 20 19  0  0  1  0  0  0  0  0999 V2000
    9.3103  -19.9375   19.3199 C   0  0  0  0  0  0  0  0  0  0  0  0
    8.8098  -18.6593   18.6423 C   0  0  2  0  0  0  0  0  0  0  0  0
    9.3837  -18.6443   17.3113 N   0  0  0  0  0  0  0  0  0  0  0  0
    9.3330  -17.5231   19.4400 C   0  0  0  0  0  0  0  0  0  0  0  0
   10.5753  -17.3147   19.4655 O   0  0  0  0  0  0  0  0  0  0  0  0
    6.4632  -12.8947   20.2666 C   0  0  0  0  0  0  0  0  0  0  0  0
    7.6228  -13.8349   19.9898 C   0  0  1  0  0  0  0  0  0  0  0  0
    8.8179  -13.0047   19.4510 C   0  0  0  0  0  0  0  0  0  0  0  0
    8.0301  -14.5099   21.2506 C   0  0  0  0  0  0  0  0  0  0  0  0
    9.0361  -15.5919   21.0380 C   0  0  2  0  0  0  0  0  0  0  0  0
    8.4965  -16.6497   20.1837 N   0  0  0  0  0  0  0  0  0  0  0  0
    9.5446  -16.1125   22.3001 C   0  0  0  0  0  0  0  0  0  0  0  0
    8.8425  -16.8370   23.0391 O   0  0  0  0  0  0  0  0  0  0  0  0
   10.8657  -15.8418   22.7886 N   0  0  0  0  0  0  0  0  0  0  0  0
   11.4265  -16.6425   23.8451 C   0  0  1  0  0  0  0  0  0  0  0  0
   11.3776  -18.1222   23.5125 C   0  0  0  0  0  0  0  0  0  0  0  0
   11.3025  -19.1183   25.0139 S   0  0  0  0  0  0  0  0  0  0  0  0
   12.8107  -16.2090   24.1628 C   0  0  0  0  0  0  0  0  0  0  0  0
   13.5225  -15.5668   23.3543 O   0  0  0  0  0  0  0  0  0  0  0  0
   13.3275  -16.5310   25.4027 O   0  0  0  0  0  0  0  0  0  0  0  0
  2  1  1  1
  2  4  1  0
  3  2  1  0
  4  5  2  0
  7  6  1  1
  7  9  1  0
  8  7  1  0
 10  9  1  1
 10 12  1  0
 11 10  1  0
 11  4  1  0
 12 13  2  0
 12 14  1  0
 14 15  1  0
 15 18  1  0
 15 16  1  6
 17 16  1  0
 18 19  2  0
 18 20  1  0
M  END
$$$$
