ALC.pdb
     RDKit          3D

 20 19  0  0  1  0  0  0  0  0999 V2000
    6.7188  -16.5612   20.4341 C   0  0  0  0  0  0  0  0  0  0  0  0
    7.2949  -15.1432   20.4600 C   0  0  2  0  0  0  0  0  0  0  0  0
    8.3681  -15.1146   19.4861 N   0  0  0  0  0  0  0  0  0  0  0  0
    7.8346  -14.9290   21.8252 C   0  0  0  0  0  0  0  0  0  0  0  0
    9.0165  -15.2845   22.0783 O   0  0  0  0  0  0  0  0  0  0  0  0
    8.5229  -12.1314   26.3039 C   0  0  0  0  0  0  0  0  0  0  0  0
    7.2607  -12.9715   26.3844 C   0  0  1  0  0  0  0  0  0  0  0  0
    6.1922  -12.1869   27.1910 C   0  0  0  0  0  0  0  0  0  0  0  0
    6.7431  -13.2272   25.0141 C   0  0  0  0  0  0  0  0  0  0  0  0
    7.6409  -14.1001   24.2015 C   0  0  2  0  0  0  0  0  0  0  0  0
    7.0792  -14.3378   22.8719 N   0  0  0  0  0  0  0  0  0  0  0  0
    7.9571  -15.3427   24.8933 C   0  0  0  0  0  0  0  0  0  0  0  0
    7.0785  -16.1999   25.1323 O   0  0  0  0  0  0  0  0  0  0  0  0
    9.2757  -15.6777   25.3476 N   0  0  0  0  0  0  0  0  0  0  0  0
    9.5354  -16.9668   25.9329 C   0  0  1  0  0  0  0  0  0  0  0  0
   10.5485  -17.7551   25.1237 C   0  0  0  0  0  0  0  0  0  0  0  0
   11.7364  -16.6545   24.3299 S   0  0  0  0  0  0  0  0  0  0  0  0
    9.9665  -16.8311   27.3473 C   0  0  0  0  0  0  0  0  0  0  0  0
   10.1422  -15.7185   27.8987 O   0  0  0  0  0  0  0  0  0  0  0  0
   10.1805  -17.9835   28.0782 O   0  0  0  0  0  0  0  0  0  0  0  0
  2  1  1  1
  2  4  1  0
  3  2  1  0
  4  5  2  0
  7  6  1  6
  7  9  1  0
  8  7  1  0
 10  9  1  1
 10 12  1  0
 11 10  1  0
 11  4  1  0
 12 13  2  0
 12 14  1  0
 14 15  1  0
 15 18  1  0
 15 16  1  6
 17 16  1  0
 18 19  2  0
 18 20  1  0
M  END
$$$$
