EEP.pdb
     RDKit          3D

 26 26  0  0  1  0  0  0  0  0999 V2000
    8.2632  -13.6518   18.3453 N   0  0  0  0  0  0  0  0  0  0  0  0
    9.1498  -14.1003   19.4211 C   0  0  1  0  0  0  0  0  0  0  0  0
   10.3562  -13.2248   19.3828 C   0  0  0  0  0  0  0  0  0  0  0  0
   11.4334  -13.5844   20.3363 C   0  0  0  0  0  0  0  0  0  0  0  0
   12.3213  -14.6614   19.8909 C   0  0  0  0  0  0  0  0  0  0  0  0
   13.5494  -14.3477   19.7252 O   0  0  0  0  0  0  0  0  0  0  0  0
    8.4161  -14.0481   20.6840 C   0  0  0  0  0  0  0  0  0  0  0  0
    7.7399  -13.0394   21.0075 O   0  0  0  0  0  0  0  0  0  0  0  0
   11.9753  -15.9588   19.6357 O   0  0  0  0  0  0  0  0  0  0  0  0
    8.4375  -15.1347   21.5967 N   0  0  0  0  0  0  0  0  0  0  0  0
    7.6919  -15.1086   22.8467 C   0  0  1  0  0  0  0  0  0  0  0  0
    6.8250  -16.3374   22.9396 C   0  0  0  0  0  0  0  0  0  0  0  0
    5.8953  -16.4521   21.7776 C   0  0  0  0  0  0  0  0  0  0  0  0
    5.8692  -17.8626   21.2496 C   0  0  0  0  0  0  0  0  0  0  0  0
    6.4189  -18.7516   21.9084 O   0  0  0  0  0  0  0  0  0  0  0  0
    8.4417  -14.7843   24.0383 C   0  0  0  0  0  0  0  0  0  0  0  0
    9.7174  -15.0731   24.0243 O   0  0  0  0  0  0  0  0  0  0  0  0
    5.2428  -18.1142   20.0668 O   0  0  0  0  0  0  0  0  0  0  0  0
    8.0339  -14.1925   25.2525 N   0  0  0  0  0  0  0  0  0  0  0  0
    6.6900  -13.7121   25.5042 C   0  0  0  0  0  0  0  0  0  0  0  0
    6.8375  -12.6613   26.5541 C   0  0  0  0  0  0  0  0  0  0  0  0
    8.2580  -12.6899   27.0136 C   0  0  0  0  0  0  0  0  0  0  0  0
    8.8016  -13.9839   26.4238 C   0  0  1  0  0  0  0  0  0  0  0  0
    8.7102  -15.0764   27.4192 C   0  0  0  0  0  0  0  0  0  0  0  0
    7.8773  -15.9907   27.4093 O   0  0  0  0  0  0  0  0  0  0  0  0
    9.6464  -15.0665   28.4527 O   0  0  0  0  0  0  0  0  0  0  0  0
  2  1  1  6
  2  7  1  0
  3  2  1  0
  3  4  1  0
  4  5  1  0
  5  9  1  0
  5  6  2  0
  7  8  2  0
 10  7  1  0
 10 11  1  0
 11 16  1  0
 11 12  1  1
 12 13  1  0
 13 14  1  0
 14 18  1  0
 14 15  2  0
 16 17  2  0
 19 23  1  0
 19 16  1  0
 20 19  1  0
 21 20  1  0
 21 22  1  0
 22 23  1  0
 23 24  1  1
 24 26  1  0
 25 24  2  0
M  END
$$$$
