EEP.pdb
     RDKit          3D

 26 26  0  0  1  0  0  0  0  0999 V2000
    9.8210  -15.9177   20.5604 N   0  0  0  0  0  0  0  0  0  0  0  0
    9.2385  -14.5791   20.6767 C   0  0  1  0  0  0  0  0  0  0  0  0
    8.5023  -14.3142   19.4074 C   0  0  0  0  0  0  0  0  0  0  0  0
    9.3092  -14.4279   18.1686 C   0  0  0  0  0  0  0  0  0  0  0  0
    8.5504  -14.3062   16.9212 C   0  0  0  0  0  0  0  0  0  0  0  0
    7.7712  -15.2791   16.6378 O   0  0  0  0  0  0  0  0  0  0  0  0
    8.3988  -14.5369   21.8722 C   0  0  0  0  0  0  0  0  0  0  0  0
    7.8288  -13.4773   22.2352 O   0  0  0  0  0  0  0  0  0  0  0  0
    8.5888  -13.2669   16.0344 O   0  0  0  0  0  0  0  0  0  0  0  0
    8.1928  -15.6911   22.6719 N   0  0  0  0  0  0  0  0  0  0  0  0
    7.5573  -15.6215   23.9798 C   0  0  1  0  0  0  0  0  0  0  0  0
    7.0043  -16.9755   24.3416 C   0  0  0  0  0  0  0  0  0  0  0  0
    6.2608  -17.5951   23.2054 C   0  0  0  0  0  0  0  0  0  0  0  0
    5.8545  -19.0071   23.5376 C   0  0  0  0  0  0  0  0  0  0  0  0
    6.0536  -19.4266   24.6825 O   0  0  0  0  0  0  0  0  0  0  0  0
    8.3004  -14.9534   25.0232 C   0  0  0  0  0  0  0  0  0  0  0  0
    9.6022  -15.0751   24.9849 O   0  0  0  0  0  0  0  0  0  0  0  0
    5.2822  -19.7753   22.5696 O   0  0  0  0  0  0  0  0  0  0  0  0
    7.8618  -14.1676   26.1100 N   0  0  0  0  0  0  0  0  0  0  0  0
    6.4803  -13.7853   26.3231 C   0  0  0  0  0  0  0  0  0  0  0  0
    6.5386  -12.5302   27.1291 C   0  0  0  0  0  0  0  0  0  0  0  0
    7.9652  -12.3176   27.5158 C   0  0  0  0  0  0  0  0  0  0  0  0
    8.6322  -13.6432   27.1760 C   0  0  1  0  0  0  0  0  0  0  0  0
    8.6874  -14.5091   28.3760 C   0  0  0  0  0  0  0  0  0  0  0  0
    7.9976  -15.5177   28.5676 O   0  0  0  0  0  0  0  0  0  0  0  0
    9.5972  -14.1501   29.3700 O   0  0  0  0  0  0  0  0  0  0  0  0
  2  1  1  6
  2  7  1  0
  3  2  1  0
  3  4  1  0
  4  5  1  0
  5  9  1  0
  5  6  2  0
  7  8  2  0
 10  7  1  0
 10 11  1  0
 11 16  1  0
 11 12  1  1
 12 13  1  0
 13 14  1  0
 14 18  1  0
 14 15  2  0
 16 17  2  0
 19 23  1  0
 19 16  1  0
 20 19  1  0
 21 20  1  0
 21 22  1  0
 22 23  1  0
 23 24  1  1
 24 26  1  0
 25 24  2  0
M  END
$$$$
