EEP.pdb
     RDKit          3D

 26 26  0  0  1  0  0  0  0  0999 V2000
    9.8254  -14.4977   19.6535 N   0  0  0  0  0  0  0  0  0  0  0  0
    9.1148  -13.3006   20.1079 C   0  0  1  0  0  0  0  0  0  0  0  0
    8.1999  -12.8932   19.0032 C   0  0  0  0  0  0  0  0  0  0  0  0
    7.3436  -13.9730   18.4559 C   0  0  0  0  0  0  0  0  0  0  0  0
    7.9175  -14.7061   17.3246 C   0  0  0  0  0  0  0  0  0  0  0  0
    7.0988  -15.3946   16.6249 O   0  0  0  0  0  0  0  0  0  0  0  0
    8.4323  -13.6100   21.3627 C   0  0  0  0  0  0  0  0  0  0  0  0
    7.6956  -12.7665   21.9329 O   0  0  0  0  0  0  0  0  0  0  0  0
    9.2294  -14.7303   16.9419 O   0  0  0  0  0  0  0  0  0  0  0  0
    8.5738  -14.8759   21.9884 N   0  0  0  0  0  0  0  0  0  0  0  0
    7.9498  -15.1793   23.2681 C   0  0  1  0  0  0  0  0  0  0  0  0
    7.7169  -16.6642   23.3734 C   0  0  0  0  0  0  0  0  0  0  0  0
    7.0764  -17.0369   24.6690 C   0  0  0  0  0  0  0  0  0  0  0  0
    6.9054  -18.5299   24.7720 C   0  0  0  0  0  0  0  0  0  0  0  0
    7.3748  -19.2427   23.8787 O   0  0  0  0  0  0  0  0  0  0  0  0
    8.5333  -14.5566   24.4340 C   0  0  0  0  0  0  0  0  0  0  0  0
    9.8396  -14.5408   24.4974 O   0  0  0  0  0  0  0  0  0  0  0  0
    6.2411  -19.0469   25.8426 O   0  0  0  0  0  0  0  0  0  0  0  0
    7.9295  -13.9420   25.5513 N   0  0  0  0  0  0  0  0  0  0  0  0
    6.4973  -13.7886   25.7114 C   0  0  0  0  0  0  0  0  0  0  0  0
    6.3256  -12.6136   26.6159 C   0  0  0  0  0  0  0  0  0  0  0  0
    7.6833  -12.2264   27.1024 C   0  0  0  0  0  0  0  0  0  0  0  0
    8.5600  -13.4040   26.6993 C   0  0  1  0  0  0  0  0  0  0  0  0
    8.6903  -14.3532   27.8284 C   0  0  0  0  0  0  0  0  0  0  0  0
    8.1212  -15.4477   27.9173 O   0  0  0  0  0  0  0  0  0  0  0  0
    9.5279  -13.9733   28.8766 O   0  0  0  0  0  0  0  0  0  0  0  0
  2  1  1  6
  2  7  1  0
  3  2  1  0
  3  4  1  0
  4  5  1  0
  5  9  1  0
  5  6  2  0
  7  8  2  0
 10  7  1  0
 10 11  1  0
 11 16  1  0
 11 12  1  1
 12 13  1  0
 13 14  1  0
 14 18  1  0
 14 15  2  0
 16 17  2  0
 19 23  1  0
 19 16  1  0
 20 19  1  0
 21 20  1  0
 21 22  1  0
 22 23  1  0
 23 24  1  1
 24 26  1  0
 25 24  2  0
M  END
$$$$
