EEP.pdb
     RDKit          3D

 26 26  0  0  1  0  0  0  0  0999 V2000
   10.6137  -14.4055   20.2328 N   0  0  0  0  0  0  0  0  0  0  0  0
    9.5795  -13.3884   20.0320 C   0  0  1  0  0  0  0  0  0  0  0  0
    9.1060  -13.5226   18.6244 C   0  0  0  0  0  0  0  0  0  0  0  0
    8.5640  -14.8539   18.2601 C   0  0  0  0  0  0  0  0  0  0  0  0
    8.0573  -14.9630   16.8898 C   0  0  0  0  0  0  0  0  0  0  0  0
    8.2062  -13.9315   16.1495 O   0  0  0  0  0  0  0  0  0  0  0  0
    8.5326  -13.5819   21.0334 C   0  0  0  0  0  0  0  0  0  0  0  0
    7.5366  -12.8182   21.0957 O   0  0  0  0  0  0  0  0  0  0  0  0
    7.4456  -16.0463   16.3238 O   0  0  0  0  0  0  0  0  0  0  0  0
    8.5985  -14.6405   21.9763 N   0  0  0  0  0  0  0  0  0  0  0  0
    7.6772  -14.7330   23.0997 C   0  0  1  0  0  0  0  0  0  0  0  0
    6.9824  -16.0695   23.0701 C   0  0  0  0  0  0  0  0  0  0  0  0
    7.7453  -17.1105   23.8199 C   0  0  0  0  0  0  0  0  0  0  0  0
    6.9479  -18.3836   23.9301 C   0  0  0  0  0  0  0  0  0  0  0  0
    5.8357  -18.3411   24.4666 O   0  0  0  0  0  0  0  0  0  0  0  0
    8.1883  -14.3255   24.3881 C   0  0  0  0  0  0  0  0  0  0  0  0
    9.4774  -14.4485   24.5724 O   0  0  0  0  0  0  0  0  0  0  0  0
    7.4749  -19.5385   23.4371 O   0  0  0  0  0  0  0  0  0  0  0  0
    7.5273  -13.8011   25.5191 N   0  0  0  0  0  0  0  0  0  0  0  0
    6.0907  -13.6319   25.6073 C   0  0  0  0  0  0  0  0  0  0  0  0
    5.8830  -12.5398   26.6034 C   0  0  0  0  0  0  0  0  0  0  0  0
    7.2145  -12.2275   27.2029 C   0  0  0  0  0  0  0  0  0  0  0  0
    8.0951  -13.3826   26.7468 C   0  0  1  0  0  0  0  0  0  0  0  0
    8.1410  -14.4323   27.7903 C   0  0  0  0  0  0  0  0  0  0  0  0
    7.5718  -15.5289   27.7329 O   0  0  0  0  0  0  0  0  0  0  0  0
    8.8919  -14.1530   28.9317 O   0  0  0  0  0  0  0  0  0  0  0  0
  2  1  1  1
  2  7  1  0
  3  2  1  0
  3  4  1  0
  4  5  1  0
  5  9  1  0
  5  6  2  0
  7  8  2  0
 10  7  1  0
 10 11  1  0
 11 16  1  0
 11 12  1  1
 12 13  1  0
 13 14  1  0
 14 18  1  0
 14 15  2  0
 16 17  2  0
 19 23  1  0
 19 16  1  0
 20 19  1  0
 21 20  1  0
 21 22  1  0
 22 23  1  0
 23 24  1  1
 24 26  1  0
 25 24  2  0
M  END
$$$$
