EEP.pdb
     RDKit          3D

 26 26  0  0  1  0  0  0  0  0999 V2000
    9.2550  -13.2152   18.3578 N   0  0  0  0  0  0  0  0  0  0  0  0
    9.3344  -14.4457   19.1477 C   0  0  1  0  0  0  0  0  0  0  0  0
   10.7780  -14.8053   19.2474 C   0  0  0  0  0  0  0  0  0  0  0  0
   11.6570  -13.7555   19.8168 C   0  0  0  0  0  0  0  0  0  0  0  0
   13.0618  -14.1410   19.9730 C   0  0  0  0  0  0  0  0  0  0  0  0
   13.4344  -14.4470   21.1569 O   0  0  0  0  0  0  0  0  0  0  0  0
    8.6877  -14.2154   20.4381 C   0  0  0  0  0  0  0  0  0  0  0  0
    8.6266  -13.0668   20.9444 O   0  0  0  0  0  0  0  0  0  0  0  0
   14.0098  -14.2070   18.9906 O   0  0  0  0  0  0  0  0  0  0  0  0
    8.1024  -15.2798   21.1719 N   0  0  0  0  0  0  0  0  0  0  0  0
    7.4776  -15.0715   22.4701 C   0  0  1  0  0  0  0  0  0  0  0  0
    6.4465  -16.1438   22.7087 C   0  0  0  0  0  0  0  0  0  0  0  0
    5.3678  -16.1184   21.6774 C   0  0  0  0  0  0  0  0  0  0  0  0
    4.8581  -17.5087   21.4009 C   0  0  0  0  0  0  0  0  0  0  0  0
    3.9964  -17.9829   22.1485 O   0  0  0  0  0  0  0  0  0  0  0  0
    8.3657  -14.8044   23.5779 C   0  0  0  0  0  0  0  0  0  0  0  0
    9.6083  -15.1879   23.4379 O   0  0  0  0  0  0  0  0  0  0  0  0
    5.3608  -18.1980   20.3394 O   0  0  0  0  0  0  0  0  0  0  0  0
    8.1276  -14.1838   24.8225 N   0  0  0  0  0  0  0  0  0  0  0  0
    6.8395  -13.6580   25.2282 C   0  0  0  0  0  0  0  0  0  0  0  0
    7.1455  -12.5984   26.2341 C   0  0  0  0  0  0  0  0  0  0  0  0
    8.6102  -12.6655   26.5170 C   0  0  0  0  0  0  0  0  0  0  0  0
    9.0389  -13.9837   25.8875 C   0  0  1  0  0  0  0  0  0  0  0  0
    9.0380  -15.0594   26.9052 C   0  0  0  0  0  0  0  0  0  0  0  0
    8.1914  -15.9556   27.0037 O   0  0  0  0  0  0  0  0  0  0  0  0
   10.0840  -15.0544   27.8274 O   0  0  0  0  0  0  0  0  0  0  0  0
  2  1  1  6
  2  7  1  0
  3  2  1  0
  3  4  1  0
  4  5  1  0
  5  9  1  0
  5  6  2  0
  7  8  2  0
 10  7  1  0
 10 11  1  0
 11 16  1  0
 11 12  1  1
 12 13  1  0
 13 14  1  0
 14 18  1  0
 14 15  2  0
 16 17  2  0
 19 23  1  0
 19 16  1  0
 20 19  1  0
 21 20  1  0
 21 22  1  0
 22 23  1  0
 23 24  1  1
 24 26  1  0
 25 24  2  0
M  END
$$$$
