EEP.pdb
     RDKit          3D

 26 26  0  0  1  0  0  0  0  0999 V2000
    9.6595  -16.0539   20.2401 N   0  0  0  0  0  0  0  0  0  0  0  0
    8.3505  -15.4000   20.1815 C   0  0  1  0  0  0  0  0  0  0  0  0
    7.5462  -16.1293   19.1593 C   0  0  0  0  0  0  0  0  0  0  0  0
    7.9450  -17.5378   18.9229 C   0  0  0  0  0  0  0  0  0  0  0  0
    7.1292  -18.2564   17.9408 C   0  0  0  0  0  0  0  0  0  0  0  0
    6.2281  -17.5715   17.3466 O   0  0  0  0  0  0  0  0  0  0  0  0
    7.7626  -15.4097   21.5196 C   0  0  0  0  0  0  0  0  0  0  0  0
    6.7147  -14.7665   21.7793 O   0  0  0  0  0  0  0  0  0  0  0  0
    7.2306  -19.5751   17.5959 O   0  0  0  0  0  0  0  0  0  0  0  0
    8.3514  -16.1462   22.5802 N   0  0  0  0  0  0  0  0  0  0  0  0
    7.8288  -16.0975   23.9380 C   0  0  1  0  0  0  0  0  0  0  0  0
    7.7400  -17.4958   24.4920 C   0  0  0  0  0  0  0  0  0  0  0  0
    7.2938  -17.5032   25.9163 C   0  0  0  0  0  0  0  0  0  0  0  0
    7.2862  -18.9048   26.4680 C   0  0  0  0  0  0  0  0  0  0  0  0
    7.6863  -19.8263   25.7489 O   0  0  0  0  0  0  0  0  0  0  0  0
    8.4150  -15.1146   24.8199 C   0  0  0  0  0  0  0  0  0  0  0  0
    9.7115  -14.9594   24.7445 O   0  0  0  0  0  0  0  0  0  0  0  0
    6.8402  -19.1130   27.7379 O   0  0  0  0  0  0  0  0  0  0  0  0
    7.8227  -14.2642   25.7774 N   0  0  0  0  0  0  0  0  0  0  0  0
    6.3971  -14.2047   26.0312 C   0  0  0  0  0  0  0  0  0  0  0  0
    6.1523  -12.8410   26.5865 C   0  0  0  0  0  0  0  0  0  0  0  0
    7.4858  -12.2065   26.8079 C   0  0  0  0  0  0  0  0  0  0  0  0
    8.4643  -13.3637   26.6618 C   0  0  1  0  0  0  0  0  0  0  0  0
    8.7835  -13.9330   27.9910 C   0  0  0  0  0  0  0  0  0  0  0  0
    8.3896  -15.0243   28.4195 O   0  0  0  0  0  0  0  0  0  0  0  0
    9.5981  -13.1674   28.8246 O   0  0  0  0  0  0  0  0  0  0  0  0
  2  1  1  1
  2  7  1  0
  3  2  1  0
  3  4  1  0
  4  5  1  0
  5  9  1  0
  5  6  2  0
  7  8  2  0
 10  7  1  0
 10 11  1  0
 11 16  1  0
 11 12  1  1
 12 13  1  0
 13 14  1  0
 14 18  1  0
 14 15  2  0
 16 17  2  0
 19 23  1  0
 19 16  1  0
 20 19  1  0
 21 20  1  0
 21 22  1  0
 22 23  1  0
 23 24  1  1
 24 26  1  0
 25 24  2  0
M  END
$$$$
