EEP.pdb
     RDKit          3D

 26 26  0  0  1  0  0  0  0  0999 V2000
    7.0838  -18.9381   18.0953 N   0  0  0  0  0  0  0  0  0  0  0  0
    7.7008  -19.6789   19.1976 C   0  0  1  0  0  0  0  0  0  0  0  0
    9.1352  -19.8746   18.8401 C   0  0  0  0  0  0  0  0  0  0  0  0
    9.8795  -18.6385   18.4979 C   0  0  0  0  0  0  0  0  0  0  0  0
   11.2763  -18.8444   18.1065 C   0  0  0  0  0  0  0  0  0  0  0  0
   12.1551  -18.2480   18.8179 O   0  0  0  0  0  0  0  0  0  0  0  0
    7.4925  -18.9326   20.4369 C   0  0  0  0  0  0  0  0  0  0  0  0
    7.1749  -17.7168   20.4238 O   0  0  0  0  0  0  0  0  0  0  0  0
   11.7347  -19.6031   17.0662 O   0  0  0  0  0  0  0  0  0  0  0  0
    7.6406  -19.5508   21.7057 N   0  0  0  0  0  0  0  0  0  0  0  0
    7.4539  -18.8172   22.9492 C   0  0  1  0  0  0  0  0  0  0  0  0
    7.1577  -19.7865   24.0640 C   0  0  0  0  0  0  0  0  0  0  0  0
    7.0075  -19.0947   25.3781 C   0  0  0  0  0  0  0  0  0  0  0  0
    6.8094  -20.0924   26.4891 C   0  0  0  0  0  0  0  0  0  0  0  0
    5.7126  -20.6513   26.5943 O   0  0  0  0  0  0  0  0  0  0  0  0
    8.4351  -17.8010   23.2521 C   0  0  0  0  0  0  0  0  0  0  0  0
    9.6708  -18.0596   22.9101 O   0  0  0  0  0  0  0  0  0  0  0  0
    7.8413  -20.3471   27.3405 O   0  0  0  0  0  0  0  0  0  0  0  0
    8.2968  -16.5394   23.8687 N   0  0  0  0  0  0  0  0  0  0  0  0
    7.0306  -15.9953   24.3169 C   0  0  0  0  0  0  0  0  0  0  0  0
    7.2120  -14.5137   24.3048 C   0  0  0  0  0  0  0  0  0  0  0  0
    8.6527  -14.2458   24.0179 C   0  0  0  0  0  0  0  0  0  0  0  0
    9.3133  -15.6069   24.1879 C   0  0  1  0  0  0  0  0  0  0  0  0
    9.8601  -15.7413   25.5575 C   0  0  0  0  0  0  0  0  0  0  0  0
    9.3621  -16.4142   26.4680 O   0  0  0  0  0  0  0  0  0  0  0  0
   11.0368  -15.0469   25.8365 O   0  0  0  0  0  0  0  0  0  0  0  0
  2  1  1  6
  2  7  1  0
  3  2  1  0
  3  4  1  0
  4  5  1  0
  5  9  1  0
  5  6  2  0
  7  8  2  0
 10  7  1  0
 10 11  1  0
 11 16  1  0
 11 12  1  1
 12 13  1  0
 13 14  1  0
 14 18  1  0
 14 15  2  0
 16 17  2  0
 19 23  1  0
 19 16  1  0
 20 19  1  0
 21 20  1  0
 21 22  1  0
 22 23  1  0
 23 24  1  1
 24 26  1  0
 25 24  2  0
M  END
$$$$
