EEP.pdb
     RDKit          3D

 26 26  0  0  1  0  0  0  0  0999 V2000
    7.4193  -15.9249   19.4986 N   0  0  0  0  0  0  0  0  0  0  0  0
    8.1022  -16.8027   20.4514 C   0  0  1  0  0  0  0  0  0  0  0  0
    9.5609  -16.7136   20.1552 C   0  0  0  0  0  0  0  0  0  0  0  0
   10.2831  -15.6151   20.8411 C   0  0  0  0  0  0  0  0  0  0  0  0
   11.7363  -15.6175   20.6548 C   0  0  0  0  0  0  0  0  0  0  0  0
   12.3741  -14.6428   21.1815 O   0  0  0  0  0  0  0  0  0  0  0  0
    7.7436  -16.3904   21.8069 C   0  0  0  0  0  0  0  0  0  0  0  0
    7.2784  -15.2469   22.0423 O   0  0  0  0  0  0  0  0  0  0  0  0
   12.4766  -16.5477   19.9806 O   0  0  0  0  0  0  0  0  0  0  0  0
    7.9062  -17.2648   22.9128 N   0  0  0  0  0  0  0  0  0  0  0  0
    7.4418  -16.9167   24.2479 C   0  0  1  0  0  0  0  0  0  0  0  0
    7.3543  -18.1632   25.0896 C   0  0  0  0  0  0  0  0  0  0  0  0
    6.9535  -17.8591   26.4949 C   0  0  0  0  0  0  0  0  0  0  0  0
    7.0242  -19.0961   27.3516 C   0  0  0  0  0  0  0  0  0  0  0  0
    6.7623  -18.9984   28.5551 O   0  0  0  0  0  0  0  0  0  0  0  0
    8.0800  -15.7838   24.8777 C   0  0  0  0  0  0  0  0  0  0  0  0
    9.3312  -15.5673   24.5639 O   0  0  0  0  0  0  0  0  0  0  0  0
    7.3733  -20.2799   26.7759 O   0  0  0  0  0  0  0  0  0  0  0  0
    7.5813  -14.8381   25.7985 N   0  0  0  0  0  0  0  0  0  0  0  0
    6.2613  -14.9092   26.3925 C   0  0  0  0  0  0  0  0  0  0  0  0
    5.9167  -13.5030   26.7562 C   0  0  0  0  0  0  0  0  0  0  0  0
    7.1359  -12.6731   26.5225 C   0  0  0  0  0  0  0  0  0  0  0  0
    8.2407  -13.7024   26.3278 C   0  0  1  0  0  0  0  0  0  0  0  0
    8.9446  -13.9438   27.6080 C   0  0  0  0  0  0  0  0  0  0  0  0
    9.6417  -13.1198   28.2121 O   0  0  0  0  0  0  0  0  0  0  0  0
    8.8047  -15.2105   28.1743 O   0  0  0  0  0  0  0  0  0  0  0  0
  2  1  1  6
  2  7  1  0
  3  2  1  0
  3  4  1  0
  4  5  1  0
  5  9  1  0
  5  6  2  0
  7  8  2  0
 10  7  1  0
 10 11  1  0
 11 16  1  0
 11 12  1  1
 12 13  1  0
 13 14  1  0
 14 18  1  0
 14 15  2  0
 16 17  2  0
 19 23  1  0
 19 16  1  0
 20 19  1  0
 21 20  1  0
 21 22  1  0
 22 23  1  0
 23 24  1  1
 24 26  1  0
 25 24  2  0
M  END
$$$$
