EEP.pdb
     RDKit          3D

 26 26  0  0  1  0  0  0  0  0999 V2000
   10.0814  -17.7084   20.9830 N   0  0  0  0  0  0  0  0  0  0  0  0
    9.9558  -16.2649   20.7710 C   0  0  1  0  0  0  0  0  0  0  0  0
    9.4742  -16.0716   19.3731 C   0  0  0  0  0  0  0  0  0  0  0  0
    8.5691  -17.1285   18.8605 C   0  0  0  0  0  0  0  0  0  0  0  0
    7.9812  -16.8573   17.5463 C   0  0  0  0  0  0  0  0  0  0  0  0
    8.3013  -15.7449   17.0039 O   0  0  0  0  0  0  0  0  0  0  0  0
    9.0615  -15.7188   21.7898 C   0  0  0  0  0  0  0  0  0  0  0  0
    8.7714  -14.4964   21.8196 O   0  0  0  0  0  0  0  0  0  0  0  0
    7.1312  -17.6650   16.8440 O   0  0  0  0  0  0  0  0  0  0  0  0
    8.4840  -16.5470   22.7871 N   0  0  0  0  0  0  0  0  0  0  0  0
    7.7016  -16.0013   23.8868 C   0  0  1  0  0  0  0  0  0  0  0  0
    6.8319  -17.0846   24.4699 C   0  0  0  0  0  0  0  0  0  0  0  0
    7.6378  -18.1355   25.1583 C   0  0  0  0  0  0  0  0  0  0  0  0
    6.7422  -19.1367   25.8399 C   0  0  0  0  0  0  0  0  0  0  0  0
    5.9595  -19.7975   25.1492 O   0  0  0  0  0  0  0  0  0  0  0  0
    8.4159  -15.1920   24.8472 C   0  0  0  0  0  0  0  0  0  0  0  0
    9.7162  -15.3305   24.8778 O   0  0  0  0  0  0  0  0  0  0  0  0
    6.8221  -19.2824   27.1916 O   0  0  0  0  0  0  0  0  0  0  0  0
    7.9496  -14.2486   25.7870 N   0  0  0  0  0  0  0  0  0  0  0  0
    6.5477  -13.9539   26.0066 C   0  0  0  0  0  0  0  0  0  0  0  0
    6.5177  -12.5643   26.5507 C   0  0  0  0  0  0  0  0  0  0  0  0
    7.9319  -12.1557   26.8015 C   0  0  0  0  0  0  0  0  0  0  0  0
    8.7101  -13.4589   26.6831 C   0  0  1  0  0  0  0  0  0  0  0  0
    8.9008  -14.0628   28.0217 C   0  0  0  0  0  0  0  0  0  0  0  0
    8.3003  -15.0528   28.4564 O   0  0  0  0  0  0  0  0  0  0  0  0
    9.8392  -13.4578   28.8573 O   0  0  0  0  0  0  0  0  0  0  0  0
  2  1  1  1
  2  7  1  0
  3  2  1  0
  3  4  1  0
  4  5  1  0
  5  9  1  0
  5  6  2  0
  7  8  2  0
 10  7  1  0
 10 11  1  0
 11 16  1  0
 11 12  1  1
 12 13  1  0
 13 14  1  0
 14 18  1  0
 14 15  2  0
 16 17  2  0
 19 23  1  0
 19 16  1  0
 20 19  1  0
 21 20  1  0
 21 22  1  0
 22 23  1  0
 23 24  1  1
 24 26  1  0
 25 24  2  0
M  END
$$$$
