EEP.pdb
     RDKit          3D

 26 26  0  0  1  0  0  0  0  0999 V2000
    8.9532  -13.0036   18.5267 N   0  0  0  0  0  0  0  0  0  0  0  0
    9.4565  -14.0731   19.3912 C   0  0  1  0  0  0  0  0  0  0  0  0
   10.9299  -13.8776   19.5107 C   0  0  0  0  0  0  0  0  0  0  0  0
   11.6305  -14.8452   20.3892 C   0  0  0  0  0  0  0  0  0  0  0  0
   13.0712  -14.6210   20.5334 C   0  0  0  0  0  0  0  0  0  0  0  0
   13.6555  -15.2838   21.4572 O   0  0  0  0  0  0  0  0  0  0  0  0
    8.7433  -14.0187   20.6658 C   0  0  0  0  0  0  0  0  0  0  0  0
    8.4204  -12.9229   21.1894 O   0  0  0  0  0  0  0  0  0  0  0  0
   13.8508  -13.7819   19.7875 O   0  0  0  0  0  0  0  0  0  0  0  0
    8.3865  -15.2015   21.3642 N   0  0  0  0  0  0  0  0  0  0  0  0
    7.6693  -15.1645   22.6304 C   0  0  1  0  0  0  0  0  0  0  0  0
    6.8054  -16.3927   22.7538 C   0  0  0  0  0  0  0  0  0  0  0  0
    5.7697  -16.4552   21.6808 C   0  0  0  0  0  0  0  0  0  0  0  0
    4.9786  -17.7337   21.7735 C   0  0  0  0  0  0  0  0  0  0  0  0
    5.2196  -18.6388   20.9678 O   0  0  0  0  0  0  0  0  0  0  0  0
    8.4456  -14.8293   23.8019 C   0  0  0  0  0  0  0  0  0  0  0  0
    9.7194  -15.1238   23.7643 O   0  0  0  0  0  0  0  0  0  0  0  0
    4.0255  -17.8526   22.7389 O   0  0  0  0  0  0  0  0  0  0  0  0
    8.0661  -14.2213   25.0173 N   0  0  0  0  0  0  0  0  0  0  0  0
    6.7182  -13.7768   25.3104 C   0  0  0  0  0  0  0  0  0  0  0  0
    6.8723  -12.6969   26.3293 C   0  0  0  0  0  0  0  0  0  0  0  0
    8.3096  -12.6703   26.7333 C   0  0  0  0  0  0  0  0  0  0  0  0
    8.8712  -13.9607   26.1525 C   0  0  1  0  0  0  0  0  0  0  0  0
    8.8531  -15.0311   27.1755 C   0  0  0  0  0  0  0  0  0  0  0  0
    8.0608  -15.9803   27.2094 O   0  0  0  0  0  0  0  0  0  0  0  0
    9.8143  -14.9555   28.1829 O   0  0  0  0  0  0  0  0  0  0  0  0
  2  1  1  6
  2  7  1  0
  3  2  1  0
  3  4  1  0
  4  5  1  0
  5  9  1  0
  5  6  2  0
  7  8  2  0
 10  7  1  0
 10 11  1  0
 11 16  1  0
 11 12  1  1
 12 13  1  0
 13 14  1  0
 14 18  1  0
 14 15  2  0
 16 17  2  0
 19 23  1  0
 19 16  1  0
 20 19  1  0
 21 20  1  0
 21 22  1  0
 22 23  1  0
 23 24  1  1
 24 26  1  0
 25 24  2  0
M  END
$$$$
