EEP.pdb
     RDKit          3D

 26 26  0  0  1  0  0  0  0  0999 V2000
    9.5743  -17.2126   20.7845 N   0  0  0  0  0  0  0  0  0  0  0  0
    9.3319  -15.7874   20.5513 C   0  0  1  0  0  0  0  0  0  0  0  0
    8.6974  -15.6691   19.2071 C   0  0  0  0  0  0  0  0  0  0  0  0
    8.3366  -14.2916   18.7933 C   0  0  0  0  0  0  0  0  0  0  0  0
    8.1155  -14.1141   17.3559 C   0  0  0  0  0  0  0  0  0  0  0  0
    7.8866  -15.1778   16.6848 O   0  0  0  0  0  0  0  0  0  0  0  0
    8.5127  -15.2674   21.6443 C   0  0  0  0  0  0  0  0  0  0  0  0
    8.1975  -14.0524   21.7059 O   0  0  0  0  0  0  0  0  0  0  0  0
    8.1285  -12.9368   16.6618 O   0  0  0  0  0  0  0  0  0  0  0  0
    8.0397  -16.1137   22.6807 N   0  0  0  0  0  0  0  0  0  0  0  0
    7.2673  -15.6024   23.8037 C   0  0  1  0  0  0  0  0  0  0  0  0
    6.3511  -16.6831   24.3160 C   0  0  0  0  0  0  0  0  0  0  0  0
    6.7740  -18.0376   23.8529 C   0  0  0  0  0  0  0  0  0  0  0  0
    6.7294  -19.0292   24.9859 C   0  0  0  0  0  0  0  0  0  0  0  0
    6.3691  -18.6382   26.1011 O   0  0  0  0  0  0  0  0  0  0  0  0
    8.0017  -14.8778   24.8150 C   0  0  0  0  0  0  0  0  0  0  0  0
    9.3015  -15.0243   24.8127 O   0  0  0  0  0  0  0  0  0  0  0  0
    7.0862  -20.3217   24.7475 O   0  0  0  0  0  0  0  0  0  0  0  0
    7.5563  -14.0123   25.8365 N   0  0  0  0  0  0  0  0  0  0  0  0
    6.1630  -13.6876   26.0679 C   0  0  0  0  0  0  0  0  0  0  0  0
    6.1756  -12.3567   26.7437 C   0  0  0  0  0  0  0  0  0  0  0  0
    7.5999  -12.0277   27.0485 C   0  0  0  0  0  0  0  0  0  0  0  0
    8.3317  -13.3419   26.8133 C   0  0  1  0  0  0  0  0  0  0  0  0
    8.4806  -14.0786   28.0892 C   0  0  0  0  0  0  0  0  0  0  0  0
    7.8782  -15.1142   28.3963 O   0  0  0  0  0  0  0  0  0  0  0  0
    9.3783  -13.5535   29.0182 O   0  0  0  0  0  0  0  0  0  0  0  0
  2  1  1  1
  2  7  1  0
  3  2  1  0
  3  4  1  0
  4  5  1  0
  5  9  1  0
  5  6  2  0
  7  8  2  0
 10  7  1  0
 10 11  1  0
 11 16  1  0
 11 12  1  1
 12 13  1  0
 13 14  1  0
 14 18  1  0
 14 15  2  0
 16 17  2  0
 19 23  1  0
 19 16  1  0
 20 19  1  0
 21 20  1  0
 21 22  1  0
 22 23  1  0
 23 24  1  1
 24 26  1  0
 25 24  2  0
M  END
$$$$
