EEP.pdb
     RDKit          3D

 26 26  0  0  1  0  0  0  0  0999 V2000
    8.4881  -13.3305   19.0995 N   0  0  0  0  0  0  0  0  0  0  0  0
    9.0467  -14.3696   19.9672 C   0  0  1  0  0  0  0  0  0  0  0  0
   10.5152  -14.1242   20.0484 C   0  0  0  0  0  0  0  0  0  0  0  0
   11.3379  -14.8549   19.0543 C   0  0  0  0  0  0  0  0  0  0  0  0
   12.7857  -14.6905   19.2071 C   0  0  0  0  0  0  0  0  0  0  0  0
   13.1734  -14.0283   20.2295 O   0  0  0  0  0  0  0  0  0  0  0  0
    8.3623  -14.3189   21.2576 C   0  0  0  0  0  0  0  0  0  0  0  0
    7.8962  -13.2431   21.7100 O   0  0  0  0  0  0  0  0  0  0  0  0
   13.7592  -15.1687   18.3754 O   0  0  0  0  0  0  0  0  0  0  0  0
    8.1962  -15.4829   22.0523 N   0  0  0  0  0  0  0  0  0  0  0  0
    7.5602  -15.4405   23.3611 C   0  0  1  0  0  0  0  0  0  0  0  0
    6.8979  -16.7647   23.6403 C   0  0  0  0  0  0  0  0  0  0  0  0
    5.9146  -17.1302   22.5785 C   0  0  0  0  0  0  0  0  0  0  0  0
    5.3794  -18.5207   22.7998 C   0  0  0  0  0  0  0  0  0  0  0  0
    5.2908  -18.9438   23.9572 O   0  0  0  0  0  0  0  0  0  0  0  0
    8.3482  -14.8982   24.4439 C   0  0  0  0  0  0  0  0  0  0  0  0
    9.6399  -15.0957   24.3842 O   0  0  0  0  0  0  0  0  0  0  0  0
    5.0108  -19.2665   21.7215 O   0  0  0  0  0  0  0  0  0  0  0  0
    7.9642  -14.1700   25.5898 N   0  0  0  0  0  0  0  0  0  0  0  0
    6.5904  -13.8421   25.9141 C   0  0  0  0  0  0  0  0  0  0  0  0
    6.6677  -12.6179   26.7648 C   0  0  0  0  0  0  0  0  0  0  0  0
    8.1110  -12.3735   27.0596 C   0  0  0  0  0  0  0  0  0  0  0  0
    8.7921  -13.6622   26.6201 C   0  0  1  0  0  0  0  0  0  0  0  0
    8.9583  -14.5717   27.7769 C   0  0  0  0  0  0  0  0  0  0  0  0
    9.7237  -14.3892   28.7311 O   0  0  0  0  0  0  0  0  0  0  0  0
    8.1823  -15.7303   27.7834 O   0  0  0  0  0  0  0  0  0  0  0  0
  2  1  1  6
  2  7  1  0
  3  2  1  0
  3  4  1  0
  4  5  1  0
  5  9  1  0
  5  6  2  0
  7  8  2  0
 10  7  1  0
 10 11  1  0
 11 16  1  0
 11 12  1  1
 12 13  1  0
 13 14  1  0
 14 18  1  0
 14 15  2  0
 16 17  2  0
 19 23  1  0
 19 16  1  0
 20 19  1  0
 21 20  1  0
 21 22  1  0
 22 23  1  0
 23 24  1  1
 24 26  1  0
 25 24  2  0
M  END
$$$$
