EEP.pdb
     RDKit          3D

 26 26  0  0  1  0  0  0  0  0999 V2000
   14.2094  -14.6132   15.3573 N   0  0  0  0  0  0  0  0  0  0  0  0
   13.8543  -15.6294   16.3503 C   0  0  1  0  0  0  0  0  0  0  0  0
   14.8939  -15.5752   17.4178 C   0  0  0  0  0  0  0  0  0  0  0  0
   14.9217  -14.3254   18.2154 C   0  0  0  0  0  0  0  0  0  0  0  0
   15.9469  -14.2801   19.2611 C   0  0  0  0  0  0  0  0  0  0  0  0
   15.5232  -14.1679   20.4619 O   0  0  0  0  0  0  0  0  0  0  0  0
   12.4980  -15.3644   16.8259 C   0  0  0  0  0  0  0  0  0  0  0  0
   12.0796  -14.1911   16.9920 O   0  0  0  0  0  0  0  0  0  0  0  0
   17.3010  -14.3448   19.0874 O   0  0  0  0  0  0  0  0  0  0  0  0
   11.5980  -16.4217   17.1195 N   0  0  0  0  0  0  0  0  0  0  0  0
   10.2276  -16.1744   17.5439 C   0  0  1  0  0  0  0  0  0  0  0  0
    9.3948  -17.4046   17.2929 C   0  0  0  0  0  0  0  0  0  0  0  0
    7.9975  -17.2425   17.7920 C   0  0  0  0  0  0  0  0  0  0  0  0
    7.1949  -18.4948   17.5538 C   0  0  0  0  0  0  0  0  0  0  0  0
    5.9981  -18.4983   17.8604 O   0  0  0  0  0  0  0  0  0  0  0  0
   10.0547  -15.5594   18.8398 C   0  0  0  0  0  0  0  0  0  0  0  0
   10.9214  -15.8860   19.7633 O   0  0  0  0  0  0  0  0  0  0  0  0
    7.8106  -19.5810   17.0098 O   0  0  0  0  0  0  0  0  0  0  0  0
    9.0898  -14.6402   19.3035 N   0  0  0  0  0  0  0  0  0  0  0  0
    7.9948  -14.1434   18.4945 C   0  0  0  0  0  0  0  0  0  0  0  0
    7.6357  -12.8211   19.0868 C   0  0  0  0  0  0  0  0  0  0  0  0
    8.4241  -12.6706   20.3460 C   0  0  0  0  0  0  0  0  0  0  0  0
    8.9785  -14.0667   20.5933 C   0  0  1  0  0  0  0  0  0  0  0  0
    8.0948  -14.8100   21.5203 C   0  0  0  0  0  0  0  0  0  0  0  0
    7.9788  -14.5933   22.7324 O   0  0  0  0  0  0  0  0  0  0  0  0
    7.3317  -15.8405   20.9722 O   0  0  0  0  0  0  0  0  0  0  0  0
  2  1  1  6
  2  7  1  0
  3  2  1  0
  3  4  1  0
  4  5  1  0
  5  9  1  0
  5  6  2  0
  7  8  2  0
 10  7  1  0
 10 11  1  0
 11 16  1  0
 11 12  1  1
 12 13  1  0
 13 14  1  0
 14 18  1  0
 14 15  2  0
 16 17  2  0
 19 23  1  0
 19 16  1  0
 20 19  1  0
 21 20  1  0
 21 22  1  0
 22 23  1  0
 23 24  1  1
 24 26  1  0
 25 24  2  0
M  END
$$$$
