RHY.pdb
     RDKit          3D

 34 35  0  0  1  0  0  0  0  0999 V2000
    7.9216  -13.5106   17.1128 N   0  0  0  0  0  0  0  0  0  0  0  0
    8.0072  -13.3679   18.5199 C   0  0  0  0  0  0  0  0  0  0  0  0
    7.0481  -12.7362   19.1241 N   0  0  0  0  0  0  0  0  0  0  0  0
    9.0905  -13.8773   19.2771 N   0  0  0  0  0  0  0  0  0  0  0  0
   10.1815  -14.6243   18.7105 C   0  0  0  0  0  0  0  0  0  0  0  0
    9.8351  -15.9631   18.1768 C   0  0  0  0  0  0  0  0  0  0  0  0
   10.4439  -17.1632   18.7675 C   0  0  0  0  0  0  0  0  0  0  0  0
    9.5671  -18.0772   19.5434 C   0  0  2  0  0  0  0  0  0  0  0  0
    8.4347  -18.6340   18.9212 N   0  0  0  0  0  0  0  0  0  0  0  0
    9.1244  -17.4438   20.8389 C   0  0  0  0  0  0  0  0  0  0  0  0
    8.2297  -16.5722   20.8391 O   0  0  0  0  0  0  0  0  0  0  0  0
    7.0830  -12.5643   20.1354 N   0  0  0  0  0  0  0  0  0  0  0  0
    9.7313  -17.8447   22.0440 C   0  0  1  0  0  0  0  0  0  0  0  0
    9.2313  -17.2869   23.3381 C   0  0  0  0  0  0  0  0  0  0  0  0
    8.1245  -18.1533   23.8261 C   0  0  0  0  0  0  0  0  0  0  0  0
    7.1015  -17.4870   24.6296 C   0  0  0  0  0  0  0  0  0  0  0  0
    6.6024  -17.9453   25.8303 N   0  0  0  0  0  0  0  0  0  0  0  0
    5.6916  -17.0696   26.2650 C   0  0  0  0  0  0  0  0  0  0  0  0
    5.6085  -16.0849   25.3765 N   0  0  0  0  0  0  0  0  0  0  0  0
    6.4739  -16.3347   24.3660 C   0  0  0  0  0  0  0  0  0  0  0  0
   10.3659  -17.2736   24.2601 O   0  0  0  0  0  0  0  0  0  0  0  0
   11.0821  -18.3263   24.4309 O   0  0  0  0  0  0  0  0  0  0  0  0
    6.9414  -10.6238   25.8322 C   0  0  0  0  0  0  0  0  0  0  0  0
    7.3986  -11.9045   25.9692 C   0  0  0  0  0  0  0  0  0  0  0  0
    7.9104  -12.5801   24.8674 C   0  0  0  0  0  0  0  0  0  0  0  0
    8.3777  -13.8744   24.9837 C   0  0  0  0  0  0  0  0  0  0  0  0
    8.3460  -14.5345   26.2144 C   0  0  0  0  0  0  0  0  0  0  0  0
    8.8354  -15.9291   26.3693 C   0  0  2  0  0  0  0  0  0  0  0  0
   10.3575  -16.0088   26.4206 N   0  0  0  0  0  0  0  0  0  0  0  0
   10.7958  -16.1566   25.0284 C   0  0  0  0  0  0  0  0  0  0  0  0
   10.7741  -17.1541   27.2132 O   0  0  0  0  0  0  0  0  0  0  0  0
   11.2227  -17.0034   28.5107 C   0  0  0  0  0  0  0  0  0  0  0  0
    7.8398  -13.8614   27.2983 C   0  0  0  0  0  0  0  0  0  0  0  0
    7.3830  -12.5782   27.1551 O   0  0  0  0  0  0  0  0  0  0  0  0
  1  2  1  0
  2  3  2  0
  4  2  1  0
  4  5  1  0
  6  7  1  0
  6  5  1  0
  8  9  1  6
  8  7  1  0
 10  8  1  0
 11 10  2  0
 12 10  1  0
 13 12  1  0
 13 14  1  1
 15 14  1  0
 16 15  2  0
 17 16  1  0
 18 17  1  0
 18 19  2  0
 19 15  1  0
 20 13  1  0
 20 29  1  0
 21 20  2  0
 22 23  1  0
 23 33  2  0
 24 25  2  0
 24 23  1  0
 25 26  1  0
 26 27  1  0
 26 32  2  0
 28 27  1  6
 28 30  1  0
 28 29  1  0
 30 31  1  0
 33 32  1  0
 34 30  2  0
M  END
$$$$
