RHY.pdb
     RDKit          3D

 34 35  0  0  1  0  0  0  0  0999 V2000
    8.0309  -14.0846   19.1254 N   0  0  0  0  0  0  0  0  0  0  0  0
    7.9704  -14.0033   17.7122 C   0  0  0  0  0  0  0  0  0  0  0  0
    7.4553  -12.9335   17.1885 N   0  0  0  0  0  0  0  0  0  0  0  0
    8.4394  -15.0367   16.8646 N   0  0  0  0  0  0  0  0  0  0  0  0
    9.2507  -16.1355   17.3159 C   0  0  0  0  0  0  0  0  0  0  0  0
   10.5025  -15.7645   18.0176 C   0  0  0  0  0  0  0  0  0  0  0  0
   11.4195  -16.8167   18.4780 C   0  0  0  0  0  0  0  0  0  0  0  0
   10.9903  -17.6608   19.6223 C   0  0  2  0  0  0  0  0  0  0  0  0
    9.8830  -18.5149   19.4674 N   0  0  0  0  0  0  0  0  0  0  0  0
   10.7712  -16.8318   20.8633 C   0  0  0  0  0  0  0  0  0  0  0  0
   11.6502  -16.0328   21.2490 O   0  0  0  0  0  0  0  0  0  0  0  0
    7.2974  -12.8633   16.1768 N   0  0  0  0  0  0  0  0  0  0  0  0
    9.5679  -16.9707   21.5804 C   0  0  1  0  0  0  0  0  0  0  0  0
    9.3280  -16.1153   22.7832 C   0  0  0  0  0  0  0  0  0  0  0  0
    7.8616  -16.0468   23.0253 C   0  0  0  0  0  0  0  0  0  0  0  0
    7.4414  -15.2266   24.1597 C   0  0  0  0  0  0  0  0  0  0  0  0
    7.2882  -13.8565   24.1436 N   0  0  0  0  0  0  0  0  0  0  0  0
    6.8890  -13.4671   25.3579 C   0  0  0  0  0  0  0  0  0  0  0  0
    6.7894  -14.5470   26.1258 N   0  0  0  0  0  0  0  0  0  0  0  0
    7.1280  -15.6350   25.3950 C   0  0  0  0  0  0  0  0  0  0  0  0
   10.0399  -16.7407   23.8965 O   0  0  0  0  0  0  0  0  0  0  0  0
   10.1953  -18.0153   23.9401 O   0  0  0  0  0  0  0  0  0  0  0  0
    8.0175  -12.4392   29.3409 C   0  0  0  0  0  0  0  0  0  0  0  0
    8.9635  -13.2367   28.7603 C   0  0  0  0  0  0  0  0  0  0  0  0
    9.5064  -14.3001   29.4721 C   0  0  0  0  0  0  0  0  0  0  0  0
   10.4631  -15.1183   28.9044 C   0  0  0  0  0  0  0  0  0  0  0  0
   10.9072  -14.8943   27.5991 C   0  0  0  0  0  0  0  0  0  0  0  0
   11.9401  -15.7533   26.9637 C   0  0  1  0  0  0  0  0  0  0  0  0
   11.3341  -16.8035   26.0387 N   0  0  0  0  0  0  0  0  0  0  0  0
   10.6215  -16.0542   24.9981 C   0  0  0  0  0  0  0  0  0  0  0  0
   10.4153  -17.6538   26.7778 O   0  0  0  0  0  0  0  0  0  0  0  0
    9.0652  -17.6736   26.4874 C   0  0  0  0  0  0  0  0  0  0  0  0
   10.3667  -13.8428   26.9018 C   0  0  0  0  0  0  0  0  0  0  0  0
    9.4191  -13.0470   27.4888 O   0  0  0  0  0  0  0  0  0  0  0  0
  1  2  1  0
  2  3  2  0
  4  2  1  0
  4  5  1  0
  6  7  1  0
  6  5  1  0
  8  9  1  6
  8  7  1  0
 10  8  1  0
 11 10  2  0
 12 10  1  0
 13 12  1  0
 13 14  1  1
 15 14  1  0
 16 15  2  0
 17 16  1  0
 18 17  1  0
 18 19  2  0
 19 15  1  0
 20 13  1  0
 20 29  1  0
 21 20  2  0
 22 23  1  0
 23 33  2  0
 24 25  2  0
 24 23  1  0
 25 26  1  0
 26 27  1  0
 26 32  2  0
 28 27  1  6
 28 30  1  0
 28 29  1  0
 30 31  1  0
 33 32  1  0
 34 30  2  0
M  END
$$$$
