RHY.pdb
     RDKit          3D

 34 35  0  0  1  0  0  0  0  0999 V2000
    8.8519  -15.5497   14.0727 N   0  0  0  0  0  0  0  0  0  0  0  0
    9.9735  -16.3360   14.4355 C   0  0  0  0  0  0  0  0  0  0  0  0
   10.5495  -17.0347   13.5060 N   0  0  0  0  0  0  0  0  0  0  0  0
   10.4755  -16.3899   15.7589 N   0  0  0  0  0  0  0  0  0  0  0  0
    9.7810  -17.0137   16.8533 C   0  0  0  0  0  0  0  0  0  0  0  0
   10.5460  -18.0425   17.5972 C   0  0  0  0  0  0  0  0  0  0  0  0
   11.4467  -17.6364   18.6852 C   0  0  0  0  0  0  0  0  0  0  0  0
   10.9167  -17.6622   20.0725 C   0  0  2  0  0  0  0  0  0  0  0  0
    9.7506  -18.3998   20.3477 N   0  0  0  0  0  0  0  0  0  0  0  0
   10.7253  -16.2668   20.6125 C   0  0  0  0  0  0  0  0  0  0  0  0
   11.6464  -15.4276   20.5265 O   0  0  0  0  0  0  0  0  0  0  0  0
   11.3749  -17.6092   13.7110 N   0  0  0  0  0  0  0  0  0  0  0  0
    9.5001  -15.9235   21.2144 C   0  0  1  0  0  0  0  0  0  0  0  0
    9.3026  -14.5363   21.7364 C   0  0  0  0  0  0  0  0  0  0  0  0
    8.0483  -13.9892   21.1524 C   0  0  0  0  0  0  0  0  0  0  0  0
    8.0207  -13.8768   19.6954 C   0  0  0  0  0  0  0  0  0  0  0  0
    8.4526  -12.7880   18.9683 N   0  0  0  0  0  0  0  0  0  0  0  0
    8.2752  -13.0556   17.6712 C   0  0  0  0  0  0  0  0  0  0  0  0
    7.7487  -14.2714   17.5687 N   0  0  0  0  0  0  0  0  0  0  0  0
    7.5888  -14.7839   18.8113 C   0  0  0  0  0  0  0  0  0  0  0  0
    9.2315  -14.6381   23.1932 O   0  0  0  0  0  0  0  0  0  0  0  0
    8.8307  -13.6427   23.8995 O   0  0  0  0  0  0  0  0  0  0  0  0
    5.8977  -10.5680   26.6434 C   0  0  0  0  0  0  0  0  0  0  0  0
    6.3850  -11.8232   26.4085 C   0  0  0  0  0  0  0  0  0  0  0  0
    5.7506  -12.6533   25.4916 C   0  0  0  0  0  0  0  0  0  0  0  0
    6.2263  -13.9249   25.2390 C   0  0  0  0  0  0  0  0  0  0  0  0
    7.3582  -14.4058   25.9015 C   0  0  0  0  0  0  0  0  0  0  0  0
    7.8897  -15.7716   25.6558 C   0  0  2  0  0  0  0  0  0  0  0  0
    9.3960  -15.7752   25.4175 N   0  0  0  0  0  0  0  0  0  0  0  0
    9.5688  -15.7870   23.9607 C   0  0  0  0  0  0  0  0  0  0  0  0
    9.9962  -16.9572   26.0141 O   0  0  0  0  0  0  0  0  0  0  0  0
   10.5885  -17.9318   25.2351 C   0  0  0  0  0  0  0  0  0  0  0  0
    7.9799  -13.5807   26.8052 C   0  0  0  0  0  0  0  0  0  0  0  0
    7.4872  -12.3240   27.0366 O   0  0  0  0  0  0  0  0  0  0  0  0
  1  2  1  0
  2  3  2  0
  4  2  1  0
  4  5  1  0
  6  7  1  0
  6  5  1  0
  8  9  1  6
  8  7  1  0
 10  8  1  0
 11 10  2  0
 12 10  1  0
 13 12  1  0
 13 14  1  6
 15 14  1  0
 16 15  2  0
 17 16  1  0
 18 17  1  0
 18 19  2  0
 19 15  1  0
 20 13  1  0
 20 29  1  0
 21 20  2  0
 22 23  1  0
 23 33  2  0
 24 25  2  0
 24 23  1  0
 25 26  1  0
 26 27  1  0
 26 32  2  0
 28 27  1  6
 28 30  1  0
 28 29  1  0
 30 31  1  0
 33 32  1  0
 34 30  2  0
M  END
$$$$
