RHY.pdb
     RDKit          3D

 34 35  0  0  1  0  0  0  0  0999 V2000
    8.7961  -12.8329   14.7330 N   0  0  0  0  0  0  0  0  0  0  0  0
    8.0459  -13.3545   15.8159 C   0  0  0  0  0  0  0  0  0  0  0  0
    6.9400  -13.9761   15.5429 N   0  0  0  0  0  0  0  0  0  0  0  0
    8.4520  -13.2169   17.1659 N   0  0  0  0  0  0  0  0  0  0  0  0
    7.7244  -13.7632   18.2801 C   0  0  0  0  0  0  0  0  0  0  0  0
    7.9324  -15.2080   18.5374 C   0  0  0  0  0  0  0  0  0  0  0  0
    9.2055  -15.8394   18.1625 C   0  0  0  0  0  0  0  0  0  0  0  0
    9.3495  -17.3004   18.3877 C   0  0  2  0  0  0  0  0  0  0  0  0
    8.5303  -18.1895   17.6680 N   0  0  0  0  0  0  0  0  0  0  0  0
    9.2375  -17.6432   19.8524 C   0  0  0  0  0  0  0  0  0  0  0  0
    8.1194  -17.6678   20.4086 O   0  0  0  0  0  0  0  0  0  0  0  0
    6.3949  -14.4349   16.2817 N   0  0  0  0  0  0  0  0  0  0  0  0
   10.4052  -17.9325   20.5830 C   0  0  2  0  0  0  0  0  0  0  0  0
   10.2948  -18.2913   22.0304 C   0  0  0  0  0  0  0  0  0  0  0  0
   11.5805  -18.9035   22.4616 C   0  0  0  0  0  0  0  0  0  0  0  0
   11.6228  -19.3922   23.8384 C   0  0  0  0  0  0  0  0  0  0  0  0
   10.5829  -19.3313   24.7416 N   0  0  0  0  0  0  0  0  0  0  0  0
   10.9943  -19.8789   25.8889 C   0  0  0  0  0  0  0  0  0  0  0  0
   12.2520  -20.2770   25.7288 N   0  0  0  0  0  0  0  0  0  0  0  0
   12.6465  -19.9806   24.4683 C   0  0  0  0  0  0  0  0  0  0  0  0
   10.0063  -17.0534   22.7528 O   0  0  0  0  0  0  0  0  0  0  0  0
   10.6922  -15.9904   22.5288 O   0  0  0  0  0  0  0  0  0  0  0  0
    5.9882  -10.5225   27.0768 C   0  0  0  0  0  0  0  0  0  0  0  0
    6.3170  -11.6556   26.3870 C   0  0  0  0  0  0  0  0  0  0  0  0
    5.9646  -12.9020   26.8916 C   0  0  0  0  0  0  0  0  0  0  0  0
    6.2868  -14.0594   26.2107 C   0  0  0  0  0  0  0  0  0  0  0  0
    6.9759  -14.0025   24.9970 C   0  0  0  0  0  0  0  0  0  0  0  0
    7.3423  -15.2307   24.2447 C   0  0  1  0  0  0  0  0  0  0  0  0
    8.8171  -15.5877   24.3975 N   0  0  0  0  0  0  0  0  0  0  0  0
    8.9851  -16.8821   23.7279 C   0  0  0  0  0  0  0  0  0  0  0  0
    9.1659  -15.6900   25.8051 O   0  0  0  0  0  0  0  0  0  0  0  0
    9.7529  -14.6357   26.4771 C   0  0  0  0  0  0  0  0  0  0  0  0
    7.3204  -12.7686   24.5042 C   0  0  0  0  0  0  0  0  0  0  0  0
    6.9884  -11.6365   25.1998 O   0  0  0  0  0  0  0  0  0  0  0  0
  1  2  1  0
  2  3  2  0
  4  2  1  0
  4  5  1  0
  6  7  1  0
  6  5  1  0
  8  9  1  6
  8  7  1  0
 10  8  1  0
 11 10  2  0
 12 10  1  0
 13 12  1  0
 13 14  1  1
 15 14  1  0
 16 15  2  0
 17 16  1  0
 18 17  1  0
 18 19  2  0
 19 15  1  0
 20 13  1  0
 20 29  1  0
 21 20  2  0
 22 23  1  0
 23 33  2  0
 24 25  2  0
 24 23  1  0
 25 26  1  0
 26 27  1  0
 26 32  2  0
 28 27  1  6
 28 30  1  0
 28 29  1  0
 30 31  1  0
 33 32  1  0
 34 30  2  0
M  END
$$$$
