RHY.pdb
     RDKit          3D

 34 35  0  0  1  0  0  0  0  0999 V2000
    8.4358  -12.4318   17.7758 N   0  0  0  0  0  0  0  0  0  0  0  0
    7.8392  -13.3865   16.9154 C   0  0  0  0  0  0  0  0  0  0  0  0
    8.2381  -13.4223   15.6811 N   0  0  0  0  0  0  0  0  0  0  0  0
    6.8330  -14.2845   17.3481 N   0  0  0  0  0  0  0  0  0  0  0  0
    6.4053  -14.4084   18.7159 C   0  0  0  0  0  0  0  0  0  0  0  0
    7.2459  -15.2746   19.5762 C   0  0  0  0  0  0  0  0  0  0  0  0
    8.2706  -14.6705   20.4393 C   0  0  0  0  0  0  0  0  0  0  0  0
    9.1637  -15.5816   21.1999 C   0  0  2  0  0  0  0  0  0  0  0  0
    9.6031  -16.7738   20.5957 N   0  0  0  0  0  0  0  0  0  0  0  0
    8.5763  -15.9284   22.5453 C   0  0  0  0  0  0  0  0  0  0  0  0
    7.7570  -15.1594   23.0907 O   0  0  0  0  0  0  0  0  0  0  0  0
    7.8143  -14.0698   15.0070 N   0  0  0  0  0  0  0  0  0  0  0  0
    8.9629  -17.1251   23.1775 C   0  0  1  0  0  0  0  0  0  0  0  0
    8.3531  -17.4897   24.4932 C   0  0  0  0  0  0  0  0  0  0  0  0
    8.2841  -18.9732   24.5835 C   0  0  0  0  0  0  0  0  0  0  0  0
    7.7862  -19.5116   25.8478 C   0  0  0  0  0  0  0  0  0  0  0  0
    7.0528  -18.8118   26.7822 N   0  0  0  0  0  0  0  0  0  0  0  0
    6.7766  -19.6353   27.7976 C   0  0  0  0  0  0  0  0  0  0  0  0
    7.3129  -20.8203   27.5257 N   0  0  0  0  0  0  0  0  0  0  0  0
    7.9366  -20.7523   26.3263 C   0  0  0  0  0  0  0  0  0  0  0  0
    9.2087  -16.9154   25.5303 O   0  0  0  0  0  0  0  0  0  0  0  0
   10.4843  -16.8813   25.3809 O   0  0  0  0  0  0  0  0  0  0  0  0
    6.0348  -11.2432   25.0146 C   0  0  0  0  0  0  0  0  0  0  0  0
    6.7406  -12.0738   25.8392 C   0  0  0  0  0  0  0  0  0  0  0  0
    6.1469  -12.5762   26.9913 C   0  0  0  0  0  0  0  0  0  0  0  0
    6.8419  -13.4170   27.8381 C   0  0  0  0  0  0  0  0  0  0  0  0
    8.1602  -13.7815   27.5545 C   0  0  0  0  0  0  0  0  0  0  0  0
    8.9357  -14.6789   28.4499 C   0  0  2  0  0  0  0  0  0  0  0  0
    9.7203  -15.7343   27.6776 N   0  0  0  0  0  0  0  0  0  0  0  0
    8.7594  -16.3492   26.7552 C   0  0  0  0  0  0  0  0  0  0  0  0
   10.2606  -16.7273   28.5916 O   0  0  0  0  0  0  0  0  0  0  0  0
   11.2632  -16.4083   29.4863 C   0  0  0  0  0  0  0  0  0  0  0  0
    8.7402  -13.2822   26.4151 C   0  0  0  0  0  0  0  0  0  0  0  0
    8.0282  -12.4503   25.5925 O   0  0  0  0  0  0  0  0  0  0  0  0
  1  2  1  0
  2  3  2  0
  4  2  1  0
  4  5  1  0
  6  7  1  0
  6  5  1  0
  8  9  1  6
  8  7  1  0
 10  8  1  0
 11 10  2  0
 12 10  1  0
 13 12  1  0
 13 14  1  1
 15 14  1  0
 16 15  2  0
 17 16  1  0
 18 17  1  0
 18 19  2  0
 19 15  1  0
 20 13  1  0
 20 29  1  0
 21 20  2  0
 22 23  1  0
 23 33  2  0
 24 25  2  0
 24 23  1  0
 25 26  1  0
 26 27  1  0
 26 32  2  0
 28 27  1  6
 28 30  1  0
 28 29  1  0
 30 31  1  0
 33 32  1  0
 34 30  2  0
M  END
$$$$
