RHY.pdb
     RDKit          3D

 34 35  0  0  1  0  0  0  0  0999 V2000
   14.2465  -21.4680   15.3113 N   0  0  0  0  0  0  0  0  0  0  0  0
   15.1109  -21.1636   16.3920 C   0  0  0  0  0  0  0  0  0  0  0  0
   16.3499  -21.5383   16.3005 N   0  0  0  0  0  0  0  0  0  0  0  0
   14.6740  -20.4811   17.5536 N   0  0  0  0  0  0  0  0  0  0  0  0
   13.3202  -20.0418   17.7621 C   0  0  0  0  0  0  0  0  0  0  0  0
   13.0565  -19.3616   19.0524 C   0  0  0  0  0  0  0  0  0  0  0  0
   11.6913  -18.9293   19.3830 C   0  0  0  0  0  0  0  0  0  0  0  0
   11.2297  -17.6202   18.8544 C   0  0  2  0  0  0  0  0  0  0  0  0
   12.0326  -16.9340   17.9248 N   0  0  0  0  0  0  0  0  0  0  0  0
   10.8901  -16.6663   19.9724 C   0  0  0  0  0  0  0  0  0  0  0  0
   11.7867  -16.2433   20.7322 O   0  0  0  0  0  0  0  0  0  0  0  0
   17.0057  -21.3906   17.0762 N   0  0  0  0  0  0  0  0  0  0  0  0
    9.5538  -16.2610   20.1497 C   0  0  1  0  0  0  0  0  0  0  0  0
    9.2176  -15.3012   21.2458 C   0  0  0  0  0  0  0  0  0  0  0  0
    7.9158  -14.6572   20.9228 C   0  0  0  0  0  0  0  0  0  0  0  0
    7.8356  -14.0031   19.6182 C   0  0  0  0  0  0  0  0  0  0  0  0
    8.1267  -12.6791   19.3674 N   0  0  0  0  0  0  0  0  0  0  0  0
    7.9432  -12.4514   18.0635 C   0  0  0  0  0  0  0  0  0  0  0  0
    7.5487  -13.5871   17.4976 N   0  0  0  0  0  0  0  0  0  0  0  0
    7.4799  -14.5478   18.4487 C   0  0  0  0  0  0  0  0  0  0  0  0
    9.1546  -16.0769   22.4835 O   0  0  0  0  0  0  0  0  0  0  0  0
   10.1361  -16.8274   22.8357 O   0  0  0  0  0  0  0  0  0  0  0  0
   10.6958  -14.6038   30.5826 C   0  0  0  0  0  0  0  0  0  0  0  0
   10.2968  -14.6555   29.2764 C   0  0  0  0  0  0  0  0  0  0  0  0
    8.9613  -14.4502   28.9503 C   0  0  0  0  0  0  0  0  0  0  0  0
    8.5368  -14.4979   27.6370 C   0  0  0  0  0  0  0  0  0  0  0  0
    9.4430  -14.7542   26.6052 C   0  0  0  0  0  0  0  0  0  0  0  0
    9.0152  -14.8183   25.1835 C   0  0  2  0  0  0  0  0  0  0  0  0
    8.3218  -16.1333   24.8437 N   0  0  0  0  0  0  0  0  0  0  0  0
    8.0668  -16.0878   23.3997 C   0  0  0  0  0  0  0  0  0  0  0  0
    7.0740  -16.2483   25.5809 O   0  0  0  0  0  0  0  0  0  0  0  0
    6.9661  -17.0720   26.6843 C   0  0  0  0  0  0  0  0  0  0  0  0
   10.7603  -14.9555   26.9343 C   0  0  0  0  0  0  0  0  0  0  0  0
   11.1543  -14.9026   28.2449 O   0  0  0  0  0  0  0  0  0  0  0  0
  1  2  1  0
  2  3  2  0
  4  2  1  0
  4  5  1  0
  6  7  1  0
  6  5  1  0
  8  9  1  1
  8  7  1  0
 10  8  1  0
 11 10  2  0
 12 10  1  0
 13 12  1  0
 13 14  1  1
 15 14  1  0
 16 15  2  0
 17 16  1  0
 18 17  1  0
 18 19  2  0
 19 15  1  0
 20 13  1  0
 20 29  1  0
 21 20  2  0
 22 23  1  0
 23 33  2  0
 24 25  2  0
 24 23  1  0
 25 26  1  0
 26 27  1  0
 26 32  2  0
 28 27  1  6
 28 30  1  0
 28 29  1  0
 30 31  1  0
 33 32  1  0
 34 30  2  0
M  END
$$$$
