RHY.pdb
     RDKit          3D

 34 35  0  0  1  0  0  0  0  0999 V2000
   10.0909  -12.8305   20.0410 N   0  0  0  0  0  0  0  0  0  0  0  0
    9.0078  -12.9721   19.1384 C   0  0  0  0  0  0  0  0  0  0  0  0
    9.0516  -12.2995   18.0295 N   0  0  0  0  0  0  0  0  0  0  0  0
    7.8930  -13.8044   19.4042 N   0  0  0  0  0  0  0  0  0  0  0  0
    7.9391  -15.2416   19.3612 C   0  0  0  0  0  0  0  0  0  0  0  0
    8.1425  -15.8383   18.0197 C   0  0  0  0  0  0  0  0  0  0  0  0
    9.3728  -16.5903   17.7353 C   0  0  0  0  0  0  0  0  0  0  0  0
    9.3461  -18.0634   17.9235 C   0  0  2  0  0  0  0  0  0  0  0  0
    8.4098  -18.8299   17.2056 N   0  0  0  0  0  0  0  0  0  0  0  0
    9.2280  -18.4277   19.3825 C   0  0  0  0  0  0  0  0  0  0  0  0
    8.2069  -19.0104   19.8043 O   0  0  0  0  0  0  0  0  0  0  0  0
    8.2629  -12.3107   17.3728 N   0  0  0  0  0  0  0  0  0  0  0  0
   10.2789  -18.1025   20.2606 C   0  0  1  0  0  0  0  0  0  0  0  0
   10.1590  -18.4522   21.7094 C   0  0  0  0  0  0  0  0  0  0  0  0
   11.4244  -19.1050   22.1410 C   0  0  0  0  0  0  0  0  0  0  0  0
   11.4612  -20.5614   22.0247 C   0  0  0  0  0  0  0  0  0  0  0  0
   11.7390  -21.2657   20.8725 N   0  0  0  0  0  0  0  0  0  0  0  0
   11.6852  -22.5700   21.1575 C   0  0  0  0  0  0  0  0  0  0  0  0
   11.3840  -22.6991   22.4453 N   0  0  0  0  0  0  0  0  0  0  0  0
   11.2444  -21.4663   22.9866 C   0  0  0  0  0  0  0  0  0  0  0  0
    9.9126  -17.2029   22.4277 O   0  0  0  0  0  0  0  0  0  0  0  0
   10.6608  -16.1772   22.2314 O   0  0  0  0  0  0  0  0  0  0  0  0
    6.3347  -10.9460   27.6029 C   0  0  0  0  0  0  0  0  0  0  0  0
    6.5749  -12.0723   26.8669 C   0  0  0  0  0  0  0  0  0  0  0  0
    6.2332  -12.1069   25.5199 C   0  0  0  0  0  0  0  0  0  0  0  0
    6.4673  -13.2345   24.7579 C   0  0  0  0  0  0  0  0  0  0  0  0
    7.0539  -14.3679   25.3259 C   0  0  0  0  0  0  0  0  0  0  0  0
    7.3120  -15.5982   24.5333 C   0  0  1  0  0  0  0  0  0  0  0  0
    8.7548  -15.6843   24.0466 N   0  0  0  0  0  0  0  0  0  0  0  0
    8.8701  -16.9804   23.3693 C   0  0  0  0  0  0  0  0  0  0  0  0
    9.6702  -15.6119   25.1736 O   0  0  0  0  0  0  0  0  0  0  0  0
    9.8112  -16.6682   26.0521 C   0  0  0  0  0  0  0  0  0  0  0  0
    7.3891  -14.3268   26.6563 C   0  0  0  0  0  0  0  0  0  0  0  0
    7.1460  -13.1955   27.3889 O   0  0  0  0  0  0  0  0  0  0  0  0
  1  2  1  0
  2  3  2  0
  4  2  1  0
  4  5  1  0
  6  7  1  0
  6  5  1  0
  8  9  1  6
  8  7  1  0
 10  8  1  0
 11 10  2  0
 12 10  1  0
 13 12  1  0
 13 14  1  1
 15 14  1  0
 16 15  2  0
 17 16  1  0
 18 17  1  0
 18 19  2  0
 19 15  1  0
 20 13  1  0
 20 29  1  0
 21 20  2  0
 22 23  1  0
 23 33  2  0
 24 25  2  0
 24 23  1  0
 25 26  1  0
 26 27  1  0
 26 32  2  0
 28 27  1  6
 28 30  1  0
 28 29  1  0
 30 31  1  0
 33 32  1  0
 34 30  2  0
M  END
$$$$
