RHY.pdb
     RDKit          3D

 34 35  0  0  1  0  0  0  0  0999 V2000
    8.2254  -13.1783   15.5705 N   0  0  0  0  0  0  0  0  0  0  0  0
    7.7659  -13.9594   14.4813 C   0  0  0  0  0  0  0  0  0  0  0  0
    7.1455  -13.3500   13.5181 N   0  0  0  0  0  0  0  0  0  0  0  0
    7.9516  -15.3619   14.4122 N   0  0  0  0  0  0  0  0  0  0  0  0
    8.5958  -16.1354   15.4398 C   0  0  0  0  0  0  0  0  0  0  0  0
    8.2069  -15.8055   16.8316 C   0  0  0  0  0  0  0  0  0  0  0  0
    9.2048  -15.2463   17.7543 C   0  0  0  0  0  0  0  0  0  0  0  0
    9.5574  -16.0386   18.9601 C   0  0  2  0  0  0  0  0  0  0  0  0
    8.9887  -17.3137   19.1336 N   0  0  0  0  0  0  0  0  0  0  0  0
    9.3252  -15.2475   20.2233 C   0  0  0  0  0  0  0  0  0  0  0  0
    9.7821  -14.0903   20.3334 O   0  0  0  0  0  0  0  0  0  0  0  0
    6.7804  -13.8699   12.7119 N   0  0  0  0  0  0  0  0  0  0  0  0
    8.5907  -15.8284   21.2742 C   0  0  1  0  0  0  0  0  0  0  0  0
    8.3736  -15.0525   22.5338 C   0  0  0  0  0  0  0  0  0  0  0  0
    6.9361  -15.1523   22.9046 C   0  0  0  0  0  0  0  0  0  0  0  0
    6.5270  -14.3850   24.0793 C   0  0  0  0  0  0  0  0  0  0  0  0
    6.5042  -13.0094   24.1687 N   0  0  0  0  0  0  0  0  0  0  0  0
    6.0708  -12.6777   25.3883 C   0  0  0  0  0  0  0  0  0  0  0  0
    5.8242  -13.7987   26.0579 N   0  0  0  0  0  0  0  0  0  0  0  0
    6.1028  -14.8549   25.2584 C   0  0  0  0  0  0  0  0  0  0  0  0
    9.2451  -15.6411   23.5494 O   0  0  0  0  0  0  0  0  0  0  0  0
    9.4512  -16.9088   23.5793 O   0  0  0  0  0  0  0  0  0  0  0  0
   12.2186  -16.7859   31.7869 C   0  0  0  0  0  0  0  0  0  0  0  0
   11.8269  -16.2514   30.5916 C   0  0  0  0  0  0  0  0  0  0  0  0
   12.4139  -16.6892   29.4101 C   0  0  0  0  0  0  0  0  0  0  0  0
   12.0329  -16.1628   28.1916 C   0  0  0  0  0  0  0  0  0  0  0  0
   11.0468  -15.1760   28.1200 C   0  0  0  0  0  0  0  0  0  0  0  0
   10.6206  -14.5857   26.8244 C   0  0  1  0  0  0  0  0  0  0  0  0
   10.4837  -15.6337   25.7250 N   0  0  0  0  0  0  0  0  0  0  0  0
    9.9379  -14.9235   24.5633 C   0  0  0  0  0  0  0  0  0  0  0  0
    9.5813  -16.6917   26.1491 O   0  0  0  0  0  0  0  0  0  0  0  0
   10.0567  -17.9351   26.5173 C   0  0  0  0  0  0  0  0  0  0  0  0
   10.4711  -14.7485   29.2903 C   0  0  0  0  0  0  0  0  0  0  0  0
   10.8675  -15.2877   30.4852 O   0  0  0  0  0  0  0  0  0  0  0  0
  1  2  1  0
  2  3  2  0
  4  2  1  0
  4  5  1  0
  6  7  1  0
  6  5  1  0
  8  9  1  1
  8  7  1  0
 10  8  1  0
 11 10  2  0
 12 10  1  0
 13 12  1  0
 13 14  1  1
 15 14  1  0
 16 15  2  0
 17 16  1  0
 18 17  1  0
 18 19  2  0
 19 15  1  0
 20 13  1  0
 20 29  1  0
 21 20  2  0
 22 23  1  0
 23 33  2  0
 24 25  2  0
 24 23  1  0
 25 26  1  0
 26 27  1  0
 26 32  2  0
 28 27  1  6
 28 30  1  0
 28 29  1  0
 30 31  1  0
 33 32  1  0
 34 30  2  0
M  END
$$$$
