RHY.pdb
     RDKit          3D

 34 35  0  0  1  0  0  0  0  0999 V2000
    7.3689  -12.6258   14.6948 N   0  0  0  0  0  0  0  0  0  0  0  0
    7.8268  -13.8531   14.1547 C   0  0  0  0  0  0  0  0  0  0  0  0
    8.8718  -13.8242   13.3859 N   0  0  0  0  0  0  0  0  0  0  0  0
    7.1888  -15.0905   14.4158 N   0  0  0  0  0  0  0  0  0  0  0  0
    7.5887  -15.9917   15.4633 C   0  0  0  0  0  0  0  0  0  0  0  0
    7.8353  -15.3705   16.7863 C   0  0  0  0  0  0  0  0  0  0  0  0
    9.1110  -15.6077   17.4766 C   0  0  0  0  0  0  0  0  0  0  0  0
    9.1208  -16.5711   18.6070 C   0  0  2  0  0  0  0  0  0  0  0  0
    8.0585  -17.4841   18.7395 N   0  0  0  0  0  0  0  0  0  0  0  0
    9.2974  -15.8648   19.9281 C   0  0  0  0  0  0  0  0  0  0  0  0
   10.1305  -14.9410   20.0406 O   0  0  0  0  0  0  0  0  0  0  0  0
    9.1919  -14.6678   12.8967 N   0  0  0  0  0  0  0  0  0  0  0  0
    8.5153  -16.2594   21.0298 C   0  0  1  0  0  0  0  0  0  0  0  0
    8.6266  -15.5053   22.3161 C   0  0  0  0  0  0  0  0  0  0  0  0
    7.2695  -15.3987   22.9167 C   0  0  0  0  0  0  0  0  0  0  0  0
    7.1974  -14.7232   24.2107 C   0  0  0  0  0  0  0  0  0  0  0  0
    6.6770  -15.2633   25.3676 N   0  0  0  0  0  0  0  0  0  0  0  0
    6.7891  -14.3535   26.3399 C   0  0  0  0  0  0  0  0  0  0  0  0
    7.3603  -13.2690   25.8267 N   0  0  0  0  0  0  0  0  0  0  0  0
    7.6149  -13.4888   24.5155 C   0  0  0  0  0  0  0  0  0  0  0  0
    9.5472  -16.2557   23.1687 O   0  0  0  0  0  0  0  0  0  0  0  0
    9.2801  -17.4635   23.5155 O   0  0  0  0  0  0  0  0  0  0  0  0
   10.8234  -15.3636   31.4703 C   0  0  0  0  0  0  0  0  0  0  0  0
   10.6833  -15.2561   30.1150 C   0  0  0  0  0  0  0  0  0  0  0  0
   10.7244  -16.3961   29.3207 C   0  0  0  0  0  0  0  0  0  0  0  0
   10.5848  -16.3101   27.9494 C   0  0  0  0  0  0  0  0  0  0  0  0
   10.3989  -15.0723   27.3294 C   0  0  0  0  0  0  0  0  0  0  0  0
   10.2523  -14.9473   25.8559 C   0  0  1  0  0  0  0  0  0  0  0  0
   11.1129  -15.9531   25.0986 N   0  0  0  0  0  0  0  0  0  0  0  0
   10.7828  -15.7720   23.6807 C   0  0  0  0  0  0  0  0  0  0  0  0
   10.8003  -17.3061   25.5287 O   0  0  0  0  0  0  0  0  0  0  0  0
    9.8592  -18.0698   24.8663 C   0  0  0  0  0  0  0  0  0  0  0  0
   10.3589  -13.9508   28.1197 C   0  0  0  0  0  0  0  0  0  0  0  0
   10.4999  -14.0645   29.4773 O   0  0  0  0  0  0  0  0  0  0  0  0
  1  2  1  0
  2  3  2  0
  4  2  1  0
  4  5  1  0
  6  7  1  0
  6  5  1  0
  8  9  1  1
  8  7  1  0
 10  8  1  0
 11 10  2  0
 12 10  1  0
 13 12  1  0
 13 14  1  1
 15 14  1  0
 16 15  2  0
 17 16  1  0
 18 17  1  0
 18 19  2  0
 19 15  1  0
 20 13  1  0
 20 29  1  0
 21 20  2  0
 22 23  1  0
 23 33  2  0
 24 25  2  0
 24 23  1  0
 25 26  1  0
 26 27  1  0
 26 32  2  0
 28 27  1  6
 28 30  1  0
 28 29  1  0
 30 31  1  0
 33 32  1  0
 34 30  2  0
M  END
$$$$
