RHY.pdb
     RDKit          3D

 34 35  0  0  1  0  0  0  0  0999 V2000
    9.3244  -13.2143   14.0434 N   0  0  0  0  0  0  0  0  0  0  0  0
    7.9079  -13.2508   14.0327 C   0  0  0  0  0  0  0  0  0  0  0  0
    7.2856  -12.3931   13.2836 N   0  0  0  0  0  0  0  0  0  0  0  0
    7.1595  -14.1725   14.8051 N   0  0  0  0  0  0  0  0  0  0  0  0
    7.6771  -14.8531   15.9619 C   0  0  0  0  0  0  0  0  0  0  0  0
    8.3172  -13.9898   16.9827 C   0  0  0  0  0  0  0  0  0  0  0  0
    8.8035  -14.5818   18.2369 C   0  0  0  0  0  0  0  0  0  0  0  0
    9.3553  -15.9599   18.1869 C   0  0  2  0  0  0  0  0  0  0  0  0
    8.8488  -16.8677   17.2388 N   0  0  0  0  0  0  0  0  0  0  0  0
    9.3026  -16.6212   19.5416 C   0  0  0  0  0  0  0  0  0  0  0  0
    8.2067  -16.9700   20.0288 O   0  0  0  0  0  0  0  0  0  0  0  0
    6.2608  -12.3377   13.2824 N   0  0  0  0  0  0  0  0  0  0  0  0
   10.5001  -16.8383   20.2488 C   0  0  1  0  0  0  0  0  0  0  0  0
   10.4502  -17.4924   21.5924 C   0  0  0  0  0  0  0  0  0  0  0  0
   11.7863  -18.0821   21.8773 C   0  0  0  0  0  0  0  0  0  0  0  0
   11.9540  -18.6662   23.2065 C   0  0  0  0  0  0  0  0  0  0  0  0
   11.2735  -18.2807   24.3419 N   0  0  0  0  0  0  0  0  0  0  0  0
   11.6894  -19.0439   25.3568 C   0  0  0  0  0  0  0  0  0  0  0  0
   12.6033  -19.8886   24.8907 N   0  0  0  0  0  0  0  0  0  0  0  0
   12.7720  -19.6622   23.5669 C   0  0  0  0  0  0  0  0  0  0  0  0
   10.0916  -16.4533   22.5564 O   0  0  0  0  0  0  0  0  0  0  0  0
   10.7378  -15.3435   22.5923 O   0  0  0  0  0  0  0  0  0  0  0  0
    5.8295  -10.6170   27.4311 C   0  0  0  0  0  0  0  0  0  0  0  0
    6.2202  -11.6341   26.6060 C   0  0  0  0  0  0  0  0  0  0  0  0
    5.7681  -12.9280   26.8377 C   0  0  0  0  0  0  0  0  0  0  0  0
    6.1503  -13.9703   26.0163 C   0  0  0  0  0  0  0  0  0  0  0  0
    7.0019  -13.7461   24.9320 C   0  0  0  0  0  0  0  0  0  0  0  0
    7.4360  -14.8483   24.0346 C   0  0  1  0  0  0  0  0  0  0  0  0
    8.7928  -15.4206   24.4310 N   0  0  0  0  0  0  0  0  0  0  0  0
    9.0395  -16.5354   23.5098 C   0  0  0  0  0  0  0  0  0  0  0  0
    8.7573  -15.8907   25.8062 O   0  0  0  0  0  0  0  0  0  0  0  0
    9.2062  -15.1004   26.8461 C   0  0  0  0  0  0  0  0  0  0  0  0
    7.4442  -12.4661   24.7087 C   0  0  0  0  0  0  0  0  0  0  0  0
    7.0495  -11.4508   25.5388 O   0  0  0  0  0  0  0  0  0  0  0  0
  1  2  1  0
  2  3  2  0
  4  2  1  0
  4  5  1  0
  6  7  1  0
  6  5  1  0
  8  9  1  6
  8  7  1  0
 10  8  1  0
 11 10  2  0
 12 10  1  0
 13 12  1  0
 13 14  1  1
 15 14  1  0
 16 15  2  0
 17 16  1  0
 18 17  1  0
 18 19  2  0
 19 15  1  0
 20 13  1  0
 20 29  1  0
 21 20  2  0
 22 23  1  0
 23 33  2  0
 24 25  2  0
 24 23  1  0
 25 26  1  0
 26 27  1  0
 26 32  2  0
 28 27  1  6
 28 30  1  0
 28 29  1  0
 30 31  1  0
 33 32  1  0
 34 30  2  0
M  END
$$$$
