RHY.pdb
     RDKit          3D

 34 35  0  0  1  0  0  0  0  0999 V2000
    7.8473  -18.3921   27.0526 N   0  0  0  0  0  0  0  0  0  0  0  0
    7.4643  -19.7109   26.7038 C   0  0  0  0  0  0  0  0  0  0  0  0
    8.2141  -20.6877   27.1134 N   0  0  0  0  0  0  0  0  0  0  0  0
    6.3127  -19.9948   25.9296 N   0  0  0  0  0  0  0  0  0  0  0  0
    5.7535  -19.0865   24.9644 C   0  0  0  0  0  0  0  0  0  0  0  0
    6.5314  -18.9184   23.7139 C   0  0  0  0  0  0  0  0  0  0  0  0
    6.0035  -18.0711   22.6354 C   0  0  0  0  0  0  0  0  0  0  0  0
    6.6951  -18.1074   21.3213 C   0  0  2  0  0  0  0  0  0  0  0  0
    7.1315  -19.3433   20.8098 N   0  0  0  0  0  0  0  0  0  0  0  0
    7.8604  -17.1502   21.2883 C   0  0  0  0  0  0  0  0  0  0  0  0
    9.0298  -17.5801   21.3760 O   0  0  0  0  0  0  0  0  0  0  0  0
    7.9655  -21.6637   26.9162 N   0  0  0  0  0  0  0  0  0  0  0  0
    7.6144  -15.7703   21.1594 C   0  0  1  0  0  0  0  0  0  0  0  0
    8.7617  -14.8128   21.2113 C   0  0  0  0  0  0  0  0  0  0  0  0
    8.3570  -13.5577   20.5223 C   0  0  0  0  0  0  0  0  0  0  0  0
    8.1890  -13.6525   19.0735 C   0  0  0  0  0  0  0  0  0  0  0  0
    8.4458  -14.7710   18.3095 N   0  0  0  0  0  0  0  0  0  0  0  0
    8.1707  -14.4779   17.0352 C   0  0  0  0  0  0  0  0  0  0  0  0
    7.7526  -13.2176   16.9824 N   0  0  0  0  0  0  0  0  0  0  0  0
    7.7611  -12.7022   18.2340 C   0  0  0  0  0  0  0  0  0  0  0  0
    9.0645  -14.5907   22.6242 O   0  0  0  0  0  0  0  0  0  0  0  0
    8.4517  -13.6778   23.2887 O   0  0  0  0  0  0  0  0  0  0  0  0
    5.4710  -11.4621   27.2641 C   0  0  0  0  0  0  0  0  0  0  0  0
    6.1829  -12.5024   26.7360 C   0  0  0  0  0  0  0  0  0  0  0  0
    5.5771  -13.7418   26.5653 C   0  0  0  0  0  0  0  0  0  0  0  0
    6.2779  -14.8062   26.0334 C   0  0  0  0  0  0  0  0  0  0  0  0
    7.6145  -14.6600   25.6546 C   0  0  0  0  0  0  0  0  0  0  0  0
    8.3965  -15.7884   25.0858 C   0  0  2  0  0  0  0  0  0  0  0  0
    9.8577  -15.4219   24.8485 N   0  0  0  0  0  0  0  0  0  0  0  0
   10.0120  -15.3213   23.3931 C   0  0  0  0  0  0  0  0  0  0  0  0
   10.7283  -16.4547   25.3859 O   0  0  0  0  0  0  0  0  0  0  0  0
   11.0303  -16.5091   26.7325 C   0  0  0  0  0  0  0  0  0  0  0  0
    8.2064  -13.4334   25.8255 C   0  0  0  0  0  0  0  0  0  0  0  0
    7.4882  -12.3945   26.3553 O   0  0  0  0  0  0  0  0  0  0  0  0
  1  2  1  0
  2  3  2  0
  4  2  1  0
  4  5  1  0
  6  7  1  0
  6  5  1  0
  8  9  1  1
  8  7  1  0
 10  8  1  0
 11 10  2  0
 12 10  1  0
 13 12  1  0
 13 14  1  1
 15 14  1  0
 16 15  2  0
 17 16  1  0
 18 17  1  0
 18 19  2  0
 19 15  1  0
 20 13  1  0
 20 29  1  0
 21 20  2  0
 22 23  1  0
 23 33  2  0
 24 25  2  0
 24 23  1  0
 25 26  1  0
 26 27  1  0
 26 32  2  0
 28 27  1  1
 28 30  1  0
 28 29  1  0
 30 31  1  0
 33 32  1  0
 34 30  2  0
M  END
$$$$
