RHY.pdb
     RDKit          3D

 34 35  0  0  1  0  0  0  0  0999 V2000
   10.3746  -13.4178   19.5937 N   0  0  0  0  0  0  0  0  0  0  0  0
    9.4370  -12.6059   18.9085 C   0  0  0  0  0  0  0  0  0  0  0  0
    9.1217  -11.4647   19.4396 N   0  0  0  0  0  0  0  0  0  0  0  0
    8.8362  -12.9945   17.6860 N   0  0  0  0  0  0  0  0  0  0  0  0
    8.9391  -14.3166   17.1285 C   0  0  0  0  0  0  0  0  0  0  0  0
    7.7230  -15.1569   17.2382 C   0  0  0  0  0  0  0  0  0  0  0  0
    7.5714  -16.0750   18.3758 C   0  0  0  0  0  0  0  0  0  0  0  0
    8.3468  -17.3417   18.3546 C   0  0  2  0  0  0  0  0  0  0  0  0
    7.9090  -18.4005   17.5380 N   0  0  0  0  0  0  0  0  0  0  0  0
    8.5541  -17.8811   19.7480 C   0  0  0  0  0  0  0  0  0  0  0  0
    7.6139  -18.4381   20.3528 O   0  0  0  0  0  0  0  0  0  0  0  0
    8.4205  -10.8545   19.0043 N   0  0  0  0  0  0  0  0  0  0  0  0
    9.8159  -17.7478   20.3572 C   0  0  2  0  0  0  0  0  0  0  0  0
    9.9919  -18.1719   21.7802 C   0  0  0  0  0  0  0  0  0  0  0  0
   11.3836  -18.6690   21.9531 C   0  0  0  0  0  0  0  0  0  0  0  0
   11.7705  -19.0159   23.3191 C   0  0  0  0  0  0  0  0  0  0  0  0
   11.3649  -20.1412   24.0046 N   0  0  0  0  0  0  0  0  0  0  0  0
   11.9255  -20.1157   25.2173 C   0  0  0  0  0  0  0  0  0  0  0  0
   12.6639  -19.0146   25.3077 N   0  0  0  0  0  0  0  0  0  0  0  0
   12.5736  -18.3317   24.1424 C   0  0  0  0  0  0  0  0  0  0  0  0
    9.7210  -16.9980   22.6086 O   0  0  0  0  0  0  0  0  0  0  0  0
   10.2119  -15.8518   22.2992 O   0  0  0  0  0  0  0  0  0  0  0  0
    6.4662  -11.0042   28.1258 C   0  0  0  0  0  0  0  0  0  0  0  0
    6.7007  -12.0331   27.2572 C   0  0  0  0  0  0  0  0  0  0  0  0
    6.2549  -13.3139   27.5623 C   0  0  0  0  0  0  0  0  0  0  0  0
    6.4810  -14.3676   26.6988 C   0  0  0  0  0  0  0  0  0  0  0  0
    7.1644  -14.1686   25.4968 C   0  0  0  0  0  0  0  0  0  0  0  0
    7.4285  -15.2837   24.5508 C   0  0  1  0  0  0  0  0  0  0  0  0
    8.8697  -15.7774   24.6218 N   0  0  0  0  0  0  0  0  0  0  0  0
    8.9204  -16.9806   23.7840 C   0  0  0  0  0  0  0  0  0  0  0  0
    9.2250  -16.0942   25.9954 O   0  0  0  0  0  0  0  0  0  0  0  0
    8.8759  -17.3025   26.5661 C   0  0  0  0  0  0  0  0  0  0  0  0
    7.6013  -12.9013   25.2017 C   0  0  0  0  0  0  0  0  0  0  0  0
    7.3636  -11.8742   26.0758 O   0  0  0  0  0  0  0  0  0  0  0  0
  1  2  1  0
  2  3  2  0
  4  2  1  0
  4  5  1  0
  6  7  1  0
  6  5  1  0
  8  9  1  6
  8  7  1  0
 10  8  1  0
 11 10  2  0
 12 10  1  0
 13 12  1  0
 13 14  1  6
 15 14  1  0
 16 15  2  0
 17 16  1  0
 18 17  1  0
 18 19  2  0
 19 15  1  0
 20 13  1  0
 20 29  1  0
 21 20  2  0
 22 23  1  0
 23 33  2  0
 24 25  2  0
 24 23  1  0
 25 26  1  0
 26 27  1  0
 26 32  2  0
 28 27  1  6
 28 30  1  0
 28 29  1  0
 30 31  1  0
 33 32  1  0
 34 30  2  0
M  END
$$$$
