RHY.pdb
     RDKit          3D

 34 35  0  0  1  0  0  0  0  0999 V2000
   12.0666  -20.8818   11.3712 N   0  0  0  0  0  0  0  0  0  0  0  0
   11.4236  -22.1254   11.1529 C   0  0  0  0  0  0  0  0  0  0  0  0
   11.5659  -22.6852    9.9909 N   0  0  0  0  0  0  0  0  0  0  0  0
   10.6372  -22.7653   12.1421 N   0  0  0  0  0  0  0  0  0  0  0  0
   10.4639  -22.2593   13.4775 C   0  0  0  0  0  0  0  0  0  0  0  0
   11.3779  -22.8199   14.5009 C   0  0  0  0  0  0  0  0  0  0  0  0
   11.2517  -22.3951   15.9022 C   0  0  0  0  0  0  0  0  0  0  0  0
   12.1505  -23.0250   16.9030 C   0  0  2  0  0  0  0  0  0  0  0  0
   11.8205  -24.2909   17.4208 N   0  0  0  0  0  0  0  0  0  0  0  0
   12.4125  -22.0989   18.0644 C   0  0  0  0  0  0  0  0  0  0  0  0
   12.7125  -20.9037   17.8603 O   0  0  0  0  0  0  0  0  0  0  0  0
   11.1117  -23.5801    9.7758 N   0  0  0  0  0  0  0  0  0  0  0  0
   12.3168  -22.5970   19.3774 C   0  0  1  0  0  0  0  0  0  0  0  0
   12.4129  -21.6496   20.5302 C   0  0  0  0  0  0  0  0  0  0  0  0
   11.3920  -22.0356   21.5414 C   0  0  0  0  0  0  0  0  0  0  0  0
   10.0077  -21.7093   21.2049 C   0  0  0  0  0  0  0  0  0  0  0  0
    9.6093  -20.8166   20.2327 N   0  0  0  0  0  0  0  0  0  0  0  0
    8.2735  -20.7885   20.2142 C   0  0  0  0  0  0  0  0  0  0  0  0
    7.8300  -21.6318   21.1404 N   0  0  0  0  0  0  0  0  0  0  0  0
    8.8921  -22.2031   21.7551 C   0  0  0  0  0  0  0  0  0  0  0  0
   13.7734  -21.7571   21.0545 O   0  0  0  0  0  0  0  0  0  0  0  0
   14.1447  -21.0489   22.0601 O   0  0  0  0  0  0  0  0  0  0  0  0
   13.8296  -25.1841   26.5189 C   0  0  0  0  0  0  0  0  0  0  0  0
   14.4542  -24.8968   25.3377 C   0  0  0  0  0  0  0  0  0  0  0  0
   14.0135  -25.4863   24.1585 C   0  0  0  0  0  0  0  0  0  0  0  0
   14.6301  -25.2097   22.9541 C   0  0  0  0  0  0  0  0  0  0  0  0
   15.7129  -24.3292   22.8948 C   0  0  0  0  0  0  0  0  0  0  0  0
   16.4009  -24.0171   21.6151 C   0  0  2  0  0  0  0  0  0  0  0  0
   16.1319  -22.5921   21.1429 N   0  0  0  0  0  0  0  0  0  0  0  0
   14.7898  -22.6152   20.5510 C   0  0  0  0  0  0  0  0  0  0  0  0
   17.1211  -22.1955   20.1542 O   0  0  0  0  0  0  0  0  0  0  0  0
   16.7469  -21.7888   18.8884 C   0  0  0  0  0  0  0  0  0  0  0  0
   16.1426  -23.7503   24.0629 C   0  0  0  0  0  0  0  0  0  0  0  0
   15.5129  -24.0420   25.2436 O   0  0  0  0  0  0  0  0  0  0  0  0
  1  2  1  0
  2  3  2  0
  4  2  1  0
  4  5  1  0
  6  7  1  0
  6  5  1  0
  8  9  1  1
  8  7  1  0
 10  8  1  0
 11 10  2  0
 12 10  1  0
 13 12  1  0
 13 14  1  6
 15 14  1  0
 16 15  2  0
 17 16  1  0
 18 17  1  0
 18 19  2  0
 19 15  1  0
 20 13  1  0
 20 29  1  0
 21 20  2  0
 22 23  1  0
 23 33  2  0
 24 25  2  0
 24 23  1  0
 25 26  1  0
 26 27  1  0
 26 32  2  0
 28 27  1  1
 28 30  1  0
 28 29  1  0
 30 31  1  0
 33 32  1  0
 34 30  2  0
M  END
$$$$
