RHY.pdb
     RDKit          3D

 34 35  0  0  1  0  0  0  0  0999 V2000
    8.9265  -12.7474   11.7976 N   0  0  0  0  0  0  0  0  0  0  0  0
    8.5401  -14.1017   11.9536 C   0  0  0  0  0  0  0  0  0  0  0  0
    8.6352  -14.8816   10.9208 N   0  0  0  0  0  0  0  0  0  0  0  0
    8.0545  -14.6236   13.1776 N   0  0  0  0  0  0  0  0  0  0  0  0
    8.2448  -13.9839   14.4519 C   0  0  0  0  0  0  0  0  0  0  0  0
    7.5819  -14.6382   15.6049 C   0  0  0  0  0  0  0  0  0  0  0  0
    7.7135  -14.0561   16.9480 C   0  0  0  0  0  0  0  0  0  0  0  0
    8.9673  -14.3193   17.6997 C   0  0  2  0  0  0  0  0  0  0  0  0
   10.1077  -14.7554   17.0006 N   0  0  0  0  0  0  0  0  0  0  0  0
    8.7299  -15.2704   18.8462 C   0  0  0  0  0  0  0  0  0  0  0  0
    7.6530  -15.2372   19.4780 O   0  0  0  0  0  0  0  0  0  0  0  0
    8.4013  -15.8786   10.9877 N   0  0  0  0  0  0  0  0  0  0  0  0
    9.7347  -16.1922   19.1953 C   0  0  1  0  0  0  0  0  0  0  0  0
    9.5330  -17.0840   20.3785 C   0  0  0  0  0  0  0  0  0  0  0  0
   10.6328  -18.0857   20.4042 C   0  0  0  0  0  0  0  0  0  0  0  0
   10.6030  -19.0355   21.5146 C   0  0  0  0  0  0  0  0  0  0  0  0
    9.5210  -19.8091   21.8773 N   0  0  0  0  0  0  0  0  0  0  0  0
    9.8738  -20.5524   22.9302 C   0  0  0  0  0  0  0  0  0  0  0  0
   11.1359  -20.2669   23.2328 N   0  0  0  0  0  0  0  0  0  0  0  0
   11.5922  -19.3333   22.3654 C   0  0  0  0  0  0  0  0  0  0  0  0
    9.5436  -16.2260   21.5623 O   0  0  0  0  0  0  0  0  0  0  0  0
   10.5130  -15.4086   21.7688 O   0  0  0  0  0  0  0  0  0  0  0  0
    7.0657  -11.0796   28.2566 C   0  0  0  0  0  0  0  0  0  0  0  0
    7.1304  -11.9107   27.1735 C   0  0  0  0  0  0  0  0  0  0  0  0
    6.2511  -12.9821   27.0676 C   0  0  0  0  0  0  0  0  0  0  0  0
    6.2991  -13.8340   25.9817 C   0  0  0  0  0  0  0  0  0  0  0  0
    7.2350  -13.6368   24.9636 C   0  0  0  0  0  0  0  0  0  0  0  0
    7.3153  -14.5402   23.7863 C   0  0  1  0  0  0  0  0  0  0  0  0
    8.6583  -15.2569   23.6941 N   0  0  0  0  0  0  0  0  0  0  0  0
    8.5368  -16.1870   22.5661 C   0  0  0  0  0  0  0  0  0  0  0  0
    8.9281  -15.9790   24.9267 O   0  0  0  0  0  0  0  0  0  0  0  0
    8.3503  -17.2078   25.1792 C   0  0  0  0  0  0  0  0  0  0  0  0
    8.0999  -12.5767   25.0743 C   0  0  0  0  0  0  0  0  0  0  0  0
    8.0305  -11.7472   26.1618 O   0  0  0  0  0  0  0  0  0  0  0  0
  1  2  1  0
  2  3  2  0
  4  2  1  0
  4  5  1  0
  6  7  1  0
  6  5  1  0
  8  9  1  6
  8  7  1  0
 10  8  1  0
 11 10  2  0
 12 10  1  0
 13 12  1  0
 13 14  1  1
 15 14  1  0
 16 15  2  0
 17 16  1  0
 18 17  1  0
 18 19  2  0
 19 15  1  0
 20 13  1  0
 20 29  1  0
 21 20  2  0
 22 23  1  0
 23 33  2  0
 24 25  2  0
 24 23  1  0
 25 26  1  0
 26 27  1  0
 26 32  2  0
 28 27  1  6
 28 30  1  0
 28 29  1  0
 30 31  1  0
 33 32  1  0
 34 30  2  0
M  END
$$$$
