ATE.pdb
     RDKit          3D

 22 21  0  0  1  0  0  0  0  0999 V2000
   24.0858  -13.3236  -15.7297 C   0  0  0  0  0  0  0  0  0  0  0  0
   22.7291  -13.5478  -16.4068 C   0  0  2  0  0  0  0  0  0  0  0  0
   22.9565  -14.5350  -17.4380 N   0  0  0  0  0  0  0  0  0  0  0  0
   22.2738  -12.2509  -16.9675 C   0  0  0  0  0  0  0  0  0  0  0  0
   22.9818  -11.6199  -17.8220 O   0  0  0  0  0  0  0  0  0  0  0  0
   19.3484  -11.6256  -18.9809 C   0  0  0  0  0  0  0  0  0  0  0  0
   19.1633  -10.7630  -17.7532 C   0  0  1  0  0  0  0  0  0  0  0  0
   18.4887  -11.6218  -16.8368 O   0  0  0  0  0  0  0  0  0  0  0  0
   20.4993  -10.4921  -17.0823 C   0  0  2  0  0  0  0  0  0  0  0  0
   21.0298  -11.7307  -16.5280 N   0  0  0  0  0  0  0  0  0  0  0  0
   20.4532   -9.5029  -16.0073 C   0  0  0  0  0  0  0  0  0  0  0  0
   20.3840   -9.9621  -14.8048 O   0  0  0  0  0  0  0  0  0  0  0  0
   20.4759   -8.1075  -16.1268 N   0  0  0  0  0  0  0  0  0  0  0  0
   20.4539   -7.1988  -14.9510 C   0  0  1  0  0  0  0  0  0  0  0  0
   21.1640   -5.9481  -15.2765 C   0  0  0  0  0  0  0  0  0  0  0  0
   21.2556   -4.9042  -14.2237 C   0  0  0  0  0  0  0  0  0  0  0  0
   21.8090   -3.6161  -14.6554 C   0  0  0  0  0  0  0  0  0  0  0  0
   23.0377   -3.5497  -15.0285 O   0  0  0  0  0  0  0  0  0  0  0  0
   19.0996   -7.0496  -14.4648 C   0  0  0  0  0  0  0  0  0  0  0  0
   18.0660   -7.1089  -15.2019 O   0  0  0  0  0  0  0  0  0  0  0  0
   21.1049   -2.4265  -14.6995 O   0  0  0  0  0  0  0  0  0  0  0  0
   18.8114   -6.8202  -13.0978 O   0  0  0  0  0  0  0  0  0  0  0  0
  2  4  1  0
  2  1  1  6
  2  3  1  0
  4  5  2  0
  7  6  1  6
  7  9  1  0
  8  7  1  0
  9 11  1  0
  9 10  1  1
 10  4  1  0
 11 12  2  0
 11 13  1  0
 13 14  1  0
 14 15  1  6
 15 16  1  0
 16 17  1  0
 17 21  1  0
 18 17  2  0
 19 14  1  0
 20 19  2  0
 22 19  1  0
M  END
$$$$
