ATE.pdb
     RDKit          3D

 22 21  0  0  1  0  0  0  0  0999 V2000
   27.7085  -24.3134  -18.9809 C   0  0  0  0  0  0  0  0  0  0  0  0
   28.5520  -23.5106  -17.9842 C   0  0  2  0  0  0  0  0  0  0  0  0
   28.7696  -24.3832  -16.8523 N   0  0  0  0  0  0  0  0  0  0  0  0
   27.7894  -22.2930  -17.6106 C   0  0  0  0  0  0  0  0  0  0  0  0
   27.1226  -22.2434  -16.5233 O   0  0  0  0  0  0  0  0  0  0  0  0
   29.3432  -19.0057  -17.2540 C   0  0  0  0  0  0  0  0  0  0  0  0
   28.2151  -18.7973  -18.2384 C   0  0  1  0  0  0  0  0  0  0  0  0
   28.8301  -19.0134  -19.5063 O   0  0  0  0  0  0  0  0  0  0  0  0
   27.1966  -19.9197  -18.1319 C   0  0  2  0  0  0  0  0  0  0  0  0
   27.8213  -21.1849  -18.4952 N   0  0  0  0  0  0  0  0  0  0  0  0
   26.0100  -19.7488  -18.9677 C   0  0  0  0  0  0  0  0  0  0  0  0
   26.1677  -19.9260  -20.2348 O   0  0  0  0  0  0  0  0  0  0  0  0
   24.7137  -19.4144  -18.5555 N   0  0  0  0  0  0  0  0  0  0  0  0
   23.5850  -19.2458  -19.5076 C   0  0  1  0  0  0  0  0  0  0  0  0
   22.4463  -20.0796  -19.0804 C   0  0  0  0  0  0  0  0  0  0  0  0
   21.8407  -19.8050  -17.7521 C   0  0  0  0  0  0  0  0  0  0  0  0
   20.6814  -20.6324  -17.4011 C   0  0  0  0  0  0  0  0  0  0  0  0
   20.2186  -21.4685  -18.2613 O   0  0  0  0  0  0  0  0  0  0  0  0
   23.3033  -17.8400  -19.6990 C   0  0  0  0  0  0  0  0  0  0  0  0
   23.8040  -16.9091  -18.9934 O   0  0  0  0  0  0  0  0  0  0  0  0
   20.0190  -20.5937  -16.1876 O   0  0  0  0  0  0  0  0  0  0  0  0
   22.4272  -17.3786  -20.7109 O   0  0  0  0  0  0  0  0  0  0  0  0
  2  4  1  0
  2  1  1  6
  2  3  1  0
  4  5  2  0
  7  6  1  1
  7  9  1  0
  8  7  1  0
  9 11  1  0
  9 10  1  6
 10  4  1  0
 11 12  2  0
 11 13  1  0
 13 14  1  0
 14 15  1  1
 15 16  1  0
 16 17  1  0
 17 21  1  0
 18 17  2  0
 19 14  1  0
 20 19  2  0
 22 19  1  0
M  END
$$$$
