ATE.pdb
     RDKit          3D

 22 21  0  0  1  0  0  0  0  0999 V2000
   18.3818  -12.8071  -15.6539 C   0  0  0  0  0  0  0  0  0  0  0  0
   17.5161  -11.6806  -15.0789 C   0  0  2  0  0  0  0  0  0  0  0  0
   16.1493  -12.0239  -15.4011 N   0  0  0  0  0  0  0  0  0  0  0  0
   17.9354  -10.4065  -15.7150 C   0  0  0  0  0  0  0  0  0  0  0  0
   18.0493  -10.3116  -16.9829 O   0  0  0  0  0  0  0  0  0  0  0  0
   16.0696   -7.4651  -15.8781 C   0  0  0  0  0  0  0  0  0  0  0  0
   17.3112   -7.0470  -15.1239 C   0  0  1  0  0  0  0  0  0  0  0  0
   16.9957   -7.3426  -13.7654 O   0  0  0  0  0  0  0  0  0  0  0  0
   18.4692   -7.9785  -15.4397 C   0  0  2  0  0  0  0  0  0  0  0  0
   18.2065   -9.2960  -14.8755 N   0  0  0  0  0  0  0  0  0  0  0  0
   19.7679   -7.5285  -14.9429 C   0  0  0  0  0  0  0  0  0  0  0  0
   20.1424   -7.9981  -13.8024 O   0  0  0  0  0  0  0  0  0  0  0  0
   20.6606   -6.6433  -15.5608 N   0  0  0  0  0  0  0  0  0  0  0  0
   22.0042   -6.3368  -15.0045 C   0  0  1  0  0  0  0  0  0  0  0  0
   22.9146   -5.9408  -16.0948 C   0  0  0  0  0  0  0  0  0  0  0  0
   23.2296   -6.9479  -17.1403 C   0  0  0  0  0  0  0  0  0  0  0  0
   24.1630   -6.5079  -18.1829 C   0  0  0  0  0  0  0  0  0  0  0  0
   25.3744   -6.9387  -18.1689 O   0  0  0  0  0  0  0  0  0  0  0  0
   21.8853   -5.4009  -13.9079 C   0  0  0  0  0  0  0  0  0  0  0  0
   20.9359   -4.5654  -13.7823 O   0  0  0  0  0  0  0  0  0  0  0  0
   23.8472   -5.6427  -19.2147 O   0  0  0  0  0  0  0  0  0  0  0  0
   22.8391   -5.3397  -12.8634 O   0  0  0  0  0  0  0  0  0  0  0  0
  2  4  1  0
  2  1  1  6
  2  3  1  0
  4  5  2  0
  7  6  1  6
  7  9  1  0
  8  7  1  0
  9 11  1  0
  9 10  1  1
 10  4  1  0
 11 12  2  0
 11 13  1  0
 13 14  1  0
 14 15  1  6
 15 16  1  0
 16 17  1  0
 17 21  1  0
 18 17  2  0
 19 14  1  0
 20 19  2  0
 22 19  1  0
M  END
$$$$
