ATE.pdb
     RDKit          3D

 22 21  0  0  1  0  0  0  0  0999 V2000
   21.7678  -11.7623  -20.4864 C   0  0  0  0  0  0  0  0  0  0  0  0
   22.7321  -10.8813  -19.6843 C   0  0  2  0  0  0  0  0  0  0  0  0
   23.8787  -11.7108  -19.3895 N   0  0  0  0  0  0  0  0  0  0  0  0
   22.0339  -10.4373  -18.4518 C   0  0  0  0  0  0  0  0  0  0  0  0
   20.7813  -10.6310  -18.3004 O   0  0  0  0  0  0  0  0  0  0  0  0
   22.8835  -11.5793  -15.1175 C   0  0  0  0  0  0  0  0  0  0  0  0
   22.9723  -10.0724  -15.0349 C   0  0  1  0  0  0  0  0  0  0  0  0
   24.3343   -9.7973  -15.3540 O   0  0  0  0  0  0  0  0  0  0  0  0
   22.1950   -9.4268  -16.1695 C   0  0  2  0  0  0  0  0  0  0  0  0
   22.7965   -9.7912  -17.4456 N   0  0  0  0  0  0  0  0  0  0  0  0
   22.1227   -7.9683  -16.1077 C   0  0  0  0  0  0  0  0  0  0  0  0
   23.0743   -7.3196  -16.6867 O   0  0  0  0  0  0  0  0  0  0  0  0
   21.1378   -7.1856  -15.4919 N   0  0  0  0  0  0  0  0  0  0  0  0
   21.1724   -5.6998  -15.4948 C   0  0  1  0  0  0  0  0  0  0  0  0
   19.7974   -5.1711  -15.5597 C   0  0  0  0  0  0  0  0  0  0  0  0
   19.6142   -3.6977  -15.5148 C   0  0  0  0  0  0  0  0  0  0  0  0
   18.2332   -3.2263  -15.6649 C   0  0  0  0  0  0  0  0  0  0  0  0
   17.3242   -4.0478  -16.0548 O   0  0  0  0  0  0  0  0  0  0  0  0
   21.9836   -5.2205  -14.3972 C   0  0  0  0  0  0  0  0  0  0  0  0
   22.0655   -5.7945  -13.2662 O   0  0  0  0  0  0  0  0  0  0  0  0
   17.8059   -1.9346  -15.4161 O   0  0  0  0  0  0  0  0  0  0  0  0
   22.7689   -4.0467  -14.4978 O   0  0  0  0  0  0  0  0  0  0  0  0
  2  4  1  0
  2  1  1  6
  2  3  1  0
  4  5  2  0
  7  6  1  6
  7  9  1  0
  8  7  1  0
  9 11  1  0
  9 10  1  6
 10  4  1  0
 11 12  2  0
 11 13  1  0
 13 14  1  0
 14 15  1  1
 15 16  1  0
 16 17  1  0
 17 21  1  0
 18 17  2  0
 19 14  1  0
 20 19  2  0
 22 19  1  0
M  END
$$$$
