ATE.pdb
     RDKit          3D

 22 21  0  0  1  0  0  0  0  0999 V2000
   25.8065  -12.4449  -15.8057 C   0  0  0  0  0  0  0  0  0  0  0  0
   24.4348  -13.0701  -16.0831 C   0  0  2  0  0  0  0  0  0  0  0  0
   24.6947  -14.3043  -16.7895 N   0  0  0  0  0  0  0  0  0  0  0  0
   23.6495  -12.1135  -16.9028 C   0  0  0  0  0  0  0  0  0  0  0  0
   24.0835  -11.7052  -18.0317 O   0  0  0  0  0  0  0  0  0  0  0  0
   20.3682  -12.5985  -18.2981 C   0  0  0  0  0  0  0  0  0  0  0  0
   20.2206  -11.3677  -17.4328 C   0  0  1  0  0  0  0  0  0  0  0  0
   19.8266  -11.8913  -16.1667 O   0  0  0  0  0  0  0  0  0  0  0  0
   21.5763  -10.7383  -17.1605 C   0  0  2  0  0  0  0  0  0  0  0  0
   22.4026  -11.6646  -16.3975 N   0  0  0  0  0  0  0  0  0  0  0  0
   21.5268   -9.4741  -16.4289 C   0  0  0  0  0  0  0  0  0  0  0  0
   21.8933   -9.5089  -15.1936 O   0  0  0  0  0  0  0  0  0  0  0  0
   21.1272   -8.2212  -16.9113 N   0  0  0  0  0  0  0  0  0  0  0  0
   20.9714   -7.0329  -16.0324 C   0  0  1  0  0  0  0  0  0  0  0  0
   22.2428   -6.2883  -15.9741 C   0  0  0  0  0  0  0  0  0  0  0  0
   22.2777   -5.0289  -15.1870 C   0  0  0  0  0  0  0  0  0  0  0  0
   22.3158   -5.1935  -13.7298 C   0  0  0  0  0  0  0  0  0  0  0  0
   22.0524   -4.1876  -12.9735 O   0  0  0  0  0  0  0  0  0  0  0  0
   19.8089   -6.2700  -16.4313 C   0  0  0  0  0  0  0  0  0  0  0  0
   19.3711   -6.2065  -17.6227 O   0  0  0  0  0  0  0  0  0  0  0  0
   22.6191   -6.3726  -13.0737 O   0  0  0  0  0  0  0  0  0  0  0  0
   19.0489   -5.5160  -15.5047 O   0  0  0  0  0  0  0  0  0  0  0  0
  2  4  1  0
  2  1  1  6
  2  3  1  0
  4  5  2  0
  7  6  1  6
  7  9  1  0
  8  7  1  0
  9 11  1  0
  9 10  1  1
 10  4  1  0
 11 12  2  0
 11 13  1  0
 13 14  1  0
 14 15  1  6
 15 16  1  0
 16 17  1  0
 17 21  1  0
 18 17  2  0
 19 14  1  0
 20 19  2  0
 22 19  1  0
M  END
$$$$
