ATE.pdb
     RDKit          3D

 22 21  0  0  1  0  0  0  0  0999 V2000
   13.6066  -11.9520  -11.8434 C   0  0  0  0  0  0  0  0  0  0  0  0
   15.0426  -11.5822  -12.2314 C   0  0  2  0  0  0  0  0  0  0  0  0
   15.7731  -12.8283  -12.2907 N   0  0  0  0  0  0  0  0  0  0  0  0
   15.5807  -10.6698  -11.1915 C   0  0  0  0  0  0  0  0  0  0  0  0
   15.7500  -11.0692   -9.9909 O   0  0  0  0  0  0  0  0  0  0  0  0
   18.8258   -9.4149  -11.2367 C   0  0  0  0  0  0  0  0  0  0  0  0
   17.9924   -8.1546  -11.1865 C   0  0  1  0  0  0  0  0  0  0  0  0
   17.7687   -7.8438  -12.5598 O   0  0  0  0  0  0  0  0  0  0  0  0
   16.6026   -8.4521  -10.6495 C   0  0  2  0  0  0  0  0  0  0  0  0
   15.9020   -9.3406  -11.5676 N   0  0  0  0  0  0  0  0  0  0  0  0
   15.7645   -7.2737  -10.4381 C   0  0  0  0  0  0  0  0  0  0  0  0
   14.9376   -6.9783  -11.3819 O   0  0  0  0  0  0  0  0  0  0  0  0
   15.7507   -6.4215   -9.3265 N   0  0  0  0  0  0  0  0  0  0  0  0
   14.9445   -5.1738   -9.2791 C   0  0  1  0  0  0  0  0  0  0  0  0
   14.6431   -4.8303   -7.8772 C   0  0  0  0  0  0  0  0  0  0  0  0
   13.9443   -3.5473   -7.6085 C   0  0  0  0  0  0  0  0  0  0  0  0
   13.7660   -3.2075   -6.1927 C   0  0  0  0  0  0  0  0  0  0  0  0
   14.3377   -2.1581   -5.7181 O   0  0  0  0  0  0  0  0  0  0  0  0
   15.5857   -4.1390  -10.0605 C   0  0  0  0  0  0  0  0  0  0  0  0
   14.9630   -3.3121  -10.7979 O   0  0  0  0  0  0  0  0  0  0  0  0
   13.0128   -3.9381   -5.2916 O   0  0  0  0  0  0  0  0  0  0  0  0
   16.9903   -3.9611  -10.0663 O   0  0  0  0  0  0  0  0  0  0  0  0
  2  4  1  0
  2  1  1  1
  2  3  1  0
  4  5  2  0
  7  6  1  6
  7  9  1  0
  8  7  1  0
  9 11  1  0
  9 10  1  6
 10  4  1  0
 11 12  2  0
 11 13  1  0
 13 14  1  0
 14 15  1  1
 15 16  1  0
 16 17  1  0
 17 21  1  0
 18 17  2  0
 19 14  1  0
 20 19  2  0
 22 19  1  0
M  END
$$$$
