ATE.pdb
     RDKit          3D

 22 21  0  0  1  0  0  0  0  0999 V2000
   19.3062  -12.8811  -18.1506 C   0  0  0  0  0  0  0  0  0  0  0  0
   20.4490  -12.0140  -17.6109 C   0  0  2  0  0  0  0  0  0  0  0  0
   20.9222  -12.6763  -16.4162 N   0  0  0  0  0  0  0  0  0  0  0  0
   19.9055  -10.6633  -17.3211 C   0  0  0  0  0  0  0  0  0  0  0  0
   19.4877   -9.9077  -18.2613 O   0  0  0  0  0  0  0  0  0  0  0  0
   17.1109   -9.9979  -14.9246 C   0  0  0  0  0  0  0  0  0  0  0  0
   18.2787   -9.1502  -14.4742 C   0  0  1  0  0  0  0  0  0  0  0  0
   18.9737   -9.9934  -13.5585 O   0  0  0  0  0  0  0  0  0  0  0  0
   19.2679   -8.9535  -15.6106 C   0  0  2  0  0  0  0  0  0  0  0  0
   19.8628  -10.2340  -15.9700 N   0  0  0  0  0  0  0  0  0  0  0  0
   20.3541   -8.0199  -15.3198 C   0  0  0  0  0  0  0  0  0  0  0  0
   21.4643   -8.5358  -14.9161 O   0  0  0  0  0  0  0  0  0  0  0  0
   20.3344   -6.6235  -15.4283 N   0  0  0  0  0  0  0  0  0  0  0  0
   21.5467   -5.7846  -15.2399 C   0  0  1  0  0  0  0  0  0  0  0  0
   21.4335   -4.5588  -16.0516 C   0  0  0  0  0  0  0  0  0  0  0  0
   22.5275   -3.5582  -15.9595 C   0  0  0  0  0  0  0  0  0  0  0  0
   22.3396   -2.3393  -16.7538 C   0  0  0  0  0  0  0  0  0  0  0  0
   23.2109   -1.3967  -16.6799 O   0  0  0  0  0  0  0  0  0  0  0  0
   21.7997   -5.5885  -13.8292 C   0  0  0  0  0  0  0  0  0  0  0  0
   20.9030   -5.6357  -12.9298 O   0  0  0  0  0  0  0  0  0  0  0  0
   21.2744   -2.1046  -17.6042 O   0  0  0  0  0  0  0  0  0  0  0  0
   23.0963   -5.3219  -13.3267 O   0  0  0  0  0  0  0  0  0  0  0  0
  2  4  1  0
  2  1  1  1
  2  3  1  0
  4  5  2  0
  7  6  1  6
  7  9  1  0
  8  7  1  0
  9 11  1  0
  9 10  1  1
 10  4  1  0
 11 12  2  0
 11 13  1  0
 13 14  1  0
 14 15  1  6
 15 16  1  0
 16 17  1  0
 17 21  1  0
 18 17  2  0
 19 14  1  0
 20 19  2  0
 22 19  1  0
M  END
$$$$
