ATE.pdb
     RDKit          3D

 22 21  0  0  1  0  0  0  0  0999 V2000
   26.5004  -10.8422  -18.8670 C   0  0  0  0  0  0  0  0  0  0  0  0
   27.5189  -11.9778  -19.0170 C   0  0  2  0  0  0  0  0  0  0  0  0
   26.8314  -13.1853  -18.6183 N   0  0  0  0  0  0  0  0  0  0  0  0
   28.6759  -11.6786  -18.1365 C   0  0  0  0  0  0  0  0  0  0  0  0
   28.6391  -11.9479  -16.8892 O   0  0  0  0  0  0  0  0  0  0  0  0
   32.4957  -11.5394  -19.8536 C   0  0  0  0  0  0  0  0  0  0  0  0
   32.1188  -11.8396  -18.4207 C   0  0  1  0  0  0  0  0  0  0  0  0
   33.2736  -11.4513  -17.6803 O   0  0  0  0  0  0  0  0  0  0  0  0
   31.0396  -10.8848  -17.9391 C   0  0  2  0  0  0  0  0  0  0  0  0
   29.8248  -11.0846  -18.7185 N   0  0  0  0  0  0  0  0  0  0  0  0
   31.3963   -9.4697  -18.0189 C   0  0  0  0  0  0  0  0  0  0  0  0
   31.2341   -8.8986  -19.1630 O   0  0  0  0  0  0  0  0  0  0  0  0
   31.8956   -8.6540  -16.9955 N   0  0  0  0  0  0  0  0  0  0  0  0
   32.2213   -7.2180  -17.1976 C   0  0  1  0  0  0  0  0  0  0  0  0
   32.3018   -6.5384  -15.8915 C   0  0  0  0  0  0  0  0  0  0  0  0
   32.6900   -5.1047  -15.8744 C   0  0  0  0  0  0  0  0  0  0  0  0
   32.7783   -4.4882  -14.5462 C   0  0  0  0  0  0  0  0  0  0  0  0
   32.2449   -5.0814  -13.5378 O   0  0  0  0  0  0  0  0  0  0  0  0
   33.3818   -7.0881  -18.0513 C   0  0  0  0  0  0  0  0  0  0  0  0
   33.5115   -6.1978  -18.9489 O   0  0  0  0  0  0  0  0  0  0  0  0
   33.4048   -3.2863  -14.2711 O   0  0  0  0  0  0  0  0  0  0  0  0
   34.4909   -7.9626  -17.9526 O   0  0  0  0  0  0  0  0  0  0  0  0
  2  4  1  0
  2  1  1  1
  2  3  1  0
  4  5  2  0
  7  6  1  6
  7  9  1  0
  8  7  1  0
  9 11  1  0
  9 10  1  6
 10  4  1  0
 11 12  2  0
 11 13  1  0
 13 14  1  0
 14 15  1  1
 15 16  1  0
 16 17  1  0
 17 21  1  0
 18 17  2  0
 19 14  1  0
 20 19  2  0
 22 19  1  0
M  END
$$$$
