ATE.pdb
     RDKit          3D

 22 21  0  0  1  0  0  0  0  0999 V2000
   18.5043  -13.1499  -15.7669 C   0  0  0  0  0  0  0  0  0  0  0  0
   17.3246  -12.2682  -15.3422 C   0  0  2  0  0  0  0  0  0  0  0  0
   16.1327  -12.9589  -15.7802 N   0  0  0  0  0  0  0  0  0  0  0  0
   17.4765  -10.9464  -16.0006 C   0  0  0  0  0  0  0  0  0  0  0  0
   17.9721  -10.8496  -17.1730 O   0  0  0  0  0  0  0  0  0  0  0  0
   14.6524   -8.9621  -16.8007 C   0  0  0  0  0  0  0  0  0  0  0  0
   15.5052   -8.0400  -15.9593 C   0  0  1  0  0  0  0  0  0  0  0  0
   15.0645   -8.2953  -14.6277 O   0  0  0  0  0  0  0  0  0  0  0  0
   16.9529   -8.5010  -15.9584 C   0  0  2  0  0  0  0  0  0  0  0  0
   17.0559   -9.7924  -15.2915 N   0  0  0  0  0  0  0  0  0  0  0  0
   17.8854   -7.5837  -15.3065 C   0  0  0  0  0  0  0  0  0  0  0  0
   18.0820   -7.7625  -14.0451 O   0  0  0  0  0  0  0  0  0  0  0  0
   18.5963   -6.5276  -15.8907 N   0  0  0  0  0  0  0  0  0  0  0  0
   19.4118   -5.5709  -15.0981 C   0  0  1  0  0  0  0  0  0  0  0  0
   20.8204   -5.6439  -15.5280 C   0  0  0  0  0  0  0  0  0  0  0  0
   21.7875   -4.7001  -14.9111 C   0  0  0  0  0  0  0  0  0  0  0  0
   22.2852   -5.0803  -13.5846 C   0  0  0  0  0  0  0  0  0  0  0  0
   22.6856   -6.2852  -13.3817 O   0  0  0  0  0  0  0  0  0  0  0  0
   18.8071   -4.2572  -15.1316 C   0  0  0  0  0  0  0  0  0  0  0  0
   19.0573   -3.3347  -14.2941 O   0  0  0  0  0  0  0  0  0  0  0  0
   22.3660   -4.2313  -12.4958 O   0  0  0  0  0  0  0  0  0  0  0  0
   17.8668   -3.8863  -16.1229 O   0  0  0  0  0  0  0  0  0  0  0  0
  2  4  1  0
  2  1  1  6
  2  3  1  0
  4  5  2  0
  7  6  1  6
  7  9  1  0
  8  7  1  0
  9 11  1  0
  9 10  1  1
 10  4  1  0
 11 12  2  0
 11 13  1  0
 13 14  1  0
 14 15  1  6
 15 16  1  0
 16 17  1  0
 17 21  1  0
 18 17  2  0
 19 14  1  0
 20 19  2  0
 22 19  1  0
M  END
$$$$
