ATE.pdb
     RDKit          3D

 22 21  0  0  1  0  0  0  0  0999 V2000
   20.3708  -12.7037  -18.0438 C   0  0  0  0  0  0  0  0  0  0  0  0
   20.3632  -12.1552  -16.6125 C   0  0  2  0  0  0  0  0  0  0  0  0
   19.4022  -12.9532  -15.8848 N   0  0  0  0  0  0  0  0  0  0  0  0
   19.9706  -10.7247  -16.6692 C   0  0  0  0  0  0  0  0  0  0  0  0
   19.7073  -10.1594  -17.7830 O   0  0  0  0  0  0  0  0  0  0  0  0
   17.0034   -9.4550  -15.0462 C   0  0  0  0  0  0  0  0  0  0  0  0
   18.1365   -8.6287  -14.4815 C   0  0  1  0  0  0  0  0  0  0  0  0
   18.5668   -9.3778  -13.3474 O   0  0  0  0  0  0  0  0  0  0  0  0
   19.3364   -8.6569  -15.4130 C   0  0  2  0  0  0  0  0  0  0  0  0
   19.8959  -10.0017  -15.4513 N   0  0  0  0  0  0  0  0  0  0  0  0
   20.4109   -7.7339  -15.0529 C   0  0  0  0  0  0  0  0  0  0  0  0
   21.4451   -8.2491  -14.4814 O   0  0  0  0  0  0  0  0  0  0  0  0
   20.4529   -6.3486  -15.2555 N   0  0  0  0  0  0  0  0  0  0  0  0
   21.5793   -5.5005  -14.7858 C   0  0  1  0  0  0  0  0  0  0  0  0
   21.5943   -4.2329  -15.5391 C   0  0  0  0  0  0  0  0  0  0  0  0
   22.5658   -3.1879  -15.1260 C   0  0  0  0  0  0  0  0  0  0  0  0
   22.5007   -1.9299  -15.8777 C   0  0  0  0  0  0  0  0  0  0  0  0
   21.6776   -1.8227  -16.8596 O   0  0  0  0  0  0  0  0  0  0  0  0
   21.5421   -5.3799  -13.3448 C   0  0  0  0  0  0  0  0  0  0  0  0
   20.4827   -5.4681  -12.6482 O   0  0  0  0  0  0  0  0  0  0  0  0
   23.2702   -0.8107  -15.6167 O   0  0  0  0  0  0  0  0  0  0  0  0
   22.7097   -5.1486  -12.5781 O   0  0  0  0  0  0  0  0  0  0  0  0
  2  4  1  0
  2  1  1  6
  2  3  1  0
  4  5  2  0
  7  6  1  6
  7  9  1  0
  8  7  1  0
  9 11  1  0
  9 10  1  1
 10  4  1  0
 11 12  2  0
 11 13  1  0
 13 14  1  0
 14 15  1  6
 15 16  1  0
 16 17  1  0
 17 21  1  0
 18 17  2  0
 19 14  1  0
 20 19  2  0
 22 19  1  0
M  END
$$$$
