ATE.pdb
     RDKit          3D

 22 21  0  0  1  0  0  0  0  0999 V2000
   20.3266  -14.3448  -15.8392 C   0  0  0  0  0  0  0  0  0  0  0  0
   18.9327  -13.7135  -15.7506 C   0  0  2  0  0  0  0  0  0  0  0  0
   18.0293  -14.6520  -16.3774 N   0  0  0  0  0  0  0  0  0  0  0  0
   18.9694  -12.4130  -16.4655 C   0  0  0  0  0  0  0  0  0  0  0  0
   19.2974  -12.3497  -17.6975 O   0  0  0  0  0  0  0  0  0  0  0  0
   16.2918  -10.3174  -17.3606 C   0  0  0  0  0  0  0  0  0  0  0  0
   17.1253   -9.4592  -16.4363 C   0  0  1  0  0  0  0  0  0  0  0  0
   16.6286   -9.7805  -15.1392 O   0  0  0  0  0  0  0  0  0  0  0  0
   18.5643   -9.9456  -16.4058 C   0  0  2  0  0  0  0  0  0  0  0  0
   18.6301  -11.2411  -15.7423 N   0  0  0  0  0  0  0  0  0  0  0  0
   19.4983   -9.0473  -15.7299 C   0  0  0  0  0  0  0  0  0  0  0  0
   19.8160   -9.3524  -14.5184 O   0  0  0  0  0  0  0  0  0  0  0  0
   20.0940   -7.8881  -16.2430 N   0  0  0  0  0  0  0  0  0  0  0  0
   21.0320   -7.0483  -15.4533 C   0  0  1  0  0  0  0  0  0  0  0  0
   22.0451   -6.4594  -16.3483 C   0  0  0  0  0  0  0  0  0  0  0  0
   23.0768   -5.5756  -15.7474 C   0  0  0  0  0  0  0  0  0  0  0  0
   23.9524   -4.8851  -16.7006 C   0  0  0  0  0  0  0  0  0  0  0  0
   23.9893   -5.2788  -17.9240 O   0  0  0  0  0  0  0  0  0  0  0  0
   20.2915   -6.1139  -14.6340 C   0  0  0  0  0  0  0  0  0  0  0  0
   19.1563   -5.6350  -14.9458 O   0  0  0  0  0  0  0  0  0  0  0  0
   24.7692   -3.8124  -16.3920 O   0  0  0  0  0  0  0  0  0  0  0  0
   20.7839   -5.6479  -13.3910 O   0  0  0  0  0  0  0  0  0  0  0  0
  2  4  1  0
  2  1  1  6
  2  3  1  0
  4  5  2  0
  7  6  1  6
  7  9  1  0
  8  7  1  0
  9 11  1  0
  9 10  1  1
 10  4  1  0
 11 12  2  0
 11 13  1  0
 13 14  1  0
 14 15  1  6
 15 16  1  0
 16 17  1  0
 17 21  1  0
 18 17  2  0
 19 14  1  0
 20 19  2  0
 22 19  1  0
M  END
$$$$
