ATE.pdb
     RDKit          3D

 22 21  0  0  1  0  0  0  0  0999 V2000
   27.2698  -27.3471  -18.2206 C   0  0  0  0  0  0  0  0  0  0  0  0
   28.3876  -26.4916  -17.6139 C   0  0  2  0  0  0  0  0  0  0  0  0
   29.2817  -27.4149  -16.9521 N   0  0  0  0  0  0  0  0  0  0  0  0
   27.7704  -25.5344  -16.6619 C   0  0  0  0  0  0  0  0  0  0  0  0
   27.7013  -25.8001  -15.4153 O   0  0  0  0  0  0  0  0  0  0  0  0
   29.1002  -22.3756  -16.0358 C   0  0  0  0  0  0  0  0  0  0  0  0
   27.6743  -22.0423  -16.4112 C   0  0  1  0  0  0  0  0  0  0  0  0
   27.7401  -21.8170  -17.8174 O   0  0  0  0  0  0  0  0  0  0  0  0
   26.7852  -23.2673  -16.2800 C   0  0  2  0  0  0  0  0  0  0  0  0
   27.2588  -24.3151  -17.1749 N   0  0  0  0  0  0  0  0  0  0  0  0
   25.3730  -23.0312  -16.5733 C   0  0  0  0  0  0  0  0  0  0  0  0
   25.0089  -23.1707  -17.8020 O   0  0  0  0  0  0  0  0  0  0  0  0
   24.3611  -22.6699  -15.6747 N   0  0  0  0  0  0  0  0  0  0  0  0
   22.9474  -22.4759  -16.0904 C   0  0  1  0  0  0  0  0  0  0  0  0
   22.0465  -22.9612  -15.0287 C   0  0  0  0  0  0  0  0  0  0  0  0
   21.8021  -22.0742  -13.8625 C   0  0  0  0  0  0  0  0  0  0  0  0
   20.3949  -21.8881  -13.4923 C   0  0  0  0  0  0  0  0  0  0  0  0
   19.4795  -22.4881  -14.1670 O   0  0  0  0  0  0  0  0  0  0  0  0
   22.7401  -21.1108  -16.5214 C   0  0  0  0  0  0  0  0  0  0  0  0
   23.5058  -20.1426  -16.2190 O   0  0  0  0  0  0  0  0  0  0  0  0
   19.9485  -21.0993  -12.4475 O   0  0  0  0  0  0  0  0  0  0  0  0
   21.6422  -20.7359  -17.3331 O   0  0  0  0  0  0  0  0  0  0  0  0
  2  4  1  0
  2  1  1  1
  2  3  1  0
  4  5  2  0
  7  6  1  6
  7  9  1  0
  8  7  1  0
  9 11  1  0
  9 10  1  6
 10  4  1  0
 11 12  2  0
 11 13  1  0
 13 14  1  0
 14 15  1  1
 15 16  1  0
 16 17  1  0
 17 21  1  0
 18 17  2  0
 19 14  1  0
 20 19  2  0
 22 19  1  0
M  END
$$$$
