ATE.pdb
     RDKit          3D

 22 21  0  0  1  0  0  0  0  0999 V2000
   20.9253  -12.9333  -18.4152 C   0  0  0  0  0  0  0  0  0  0  0  0
   21.7580  -12.0895  -17.4435 C   0  0  2  0  0  0  0  0  0  0  0  0
   21.6463  -12.7375  -16.1562 N   0  0  0  0  0  0  0  0  0  0  0  0
   21.1952  -10.7160  -17.4268 C   0  0  0  0  0  0  0  0  0  0  0  0
   21.1605  -10.0073  -18.4879 O   0  0  0  0  0  0  0  0  0  0  0  0
   17.7554  -10.0842  -16.1061 C   0  0  0  0  0  0  0  0  0  0  0  0
   18.6761   -9.1307  -15.3790 C   0  0  1  0  0  0  0  0  0  0  0  0
   19.0674   -9.8597  -14.2181 O   0  0  0  0  0  0  0  0  0  0  0  0
   19.9734   -8.9472  -16.1482 C   0  0  2  0  0  0  0  0  0  0  0  0
   20.6964  -10.2113  -16.1988 N   0  0  0  0  0  0  0  0  0  0  0  0
   20.8736   -7.9373  -15.5952 C   0  0  0  0  0  0  0  0  0  0  0  0
   21.8565   -8.3703  -14.8824 O   0  0  0  0  0  0  0  0  0  0  0  0
   20.7969   -6.5470  -15.7477 N   0  0  0  0  0  0  0  0  0  0  0  0
   21.8422   -5.6226  -15.2361 C   0  0  1  0  0  0  0  0  0  0  0  0
   21.7244   -4.3172  -15.9116 C   0  0  0  0  0  0  0  0  0  0  0  0
   22.6237   -3.2203  -15.4704 C   0  0  0  0  0  0  0  0  0  0  0  0
   22.4289   -1.9318  -16.1440 C   0  0  0  0  0  0  0  0  0  0  0  0
   22.8681   -1.7724  -17.3418 O   0  0  0  0  0  0  0  0  0  0  0  0
   21.8125   -5.5920  -13.7902 C   0  0  0  0  0  0  0  0  0  0  0  0
   20.7649   -5.7723  -13.0937 O   0  0  0  0  0  0  0  0  0  0  0  0
   21.7936   -0.8359  -15.5886 O   0  0  0  0  0  0  0  0  0  0  0  0
   22.9751   -5.3531  -13.0181 O   0  0  0  0  0  0  0  0  0  0  0  0
  2  4  1  0
  2  1  1  6
  2  3  1  0
  4  5  2  0
  7  6  1  6
  7  9  1  0
  8  7  1  0
  9 11  1  0
  9 10  1  1
 10  4  1  0
 11 12  2  0
 11 13  1  0
 13 14  1  0
 14 15  1  6
 15 16  1  0
 16 17  1  0
 17 21  1  0
 18 17  2  0
 19 14  1  0
 20 19  2  0
 22 19  1  0
M  END
$$$$
