ATE.pdb
     RDKit          3D

 22 21  0  0  1  0  0  0  0  0999 V2000
   21.4310  -12.7895  -19.5426 C   0  0  0  0  0  0  0  0  0  0  0  0
   22.8366  -13.1315  -19.0358 C   0  0  2  0  0  0  0  0  0  0  0  0
   22.8026  -14.5325  -18.6812 N   0  0  0  0  0  0  0  0  0  0  0  0
   23.1272  -12.2671  -17.8645 C   0  0  0  0  0  0  0  0  0  0  0  0
   22.2466  -12.0647  -16.9628 O   0  0  0  0  0  0  0  0  0  0  0  0
   26.6553   -9.7931  -15.3982 C   0  0  0  0  0  0  0  0  0  0  0  0
   26.2587  -10.8075  -16.4466 C   0  0  1  0  0  0  0  0  0  0  0  0
   26.5092  -12.0606  -15.8146 O   0  0  0  0  0  0  0  0  0  0  0  0
   24.7540  -10.8003  -16.6571 C   0  0  2  0  0  0  0  0  0  0  0  0
   24.4110  -11.6712  -17.7737 N   0  0  0  0  0  0  0  0  0  0  0  0
   24.1810   -9.4825  -16.9232 C   0  0  0  0  0  0  0  0  0  0  0  0
   24.4347   -8.9665  -18.0770 O   0  0  0  0  0  0  0  0  0  0  0  0
   23.3838   -8.7078  -16.0709 N   0  0  0  0  0  0  0  0  0  0  0  0
   22.8199   -7.3924  -16.4714 C   0  0  1  0  0  0  0  0  0  0  0  0
   21.3537   -7.4956  -16.5889 C   0  0  0  0  0  0  0  0  0  0  0  0
   20.5285   -7.0395  -15.4410 C   0  0  0  0  0  0  0  0  0  0  0  0
   19.0786   -7.1936  -15.6023 C   0  0  0  0  0  0  0  0  0  0  0  0
   18.5587   -8.3684  -15.5506 O   0  0  0  0  0  0  0  0  0  0  0  0
   23.3130   -6.3535  -15.5939 C   0  0  0  0  0  0  0  0  0  0  0  0
   23.6618   -6.5447  -14.3868 O   0  0  0  0  0  0  0  0  0  0  0  0
   18.1902   -6.1545  -15.8117 O   0  0  0  0  0  0  0  0  0  0  0  0
   23.4493   -5.0101  -16.0197 O   0  0  0  0  0  0  0  0  0  0  0  0
  2  4  1  0
  2  1  1  1
  2  3  1  0
  4  5  2  0
  7  6  1  1
  7  9  1  0
  8  7  1  0
  9 11  1  0
  9 10  1  6
 10  4  1  0
 11 12  2  0
 11 13  1  0
 13 14  1  0
 14 15  1  1
 15 16  1  0
 16 17  1  0
 17 21  1  0
 18 17  2  0
 19 14  1  0
 20 19  2  0
 22 19  1  0
M  END
$$$$
