ATE.pdb
     RDKit          3D

 22 21  0  0  1  0  0  0  0  0999 V2000
   22.1698  -18.6970  -15.1413 C   0  0  0  0  0  0  0  0  0  0  0  0
   20.6939  -18.6845  -14.7279 C   0  0  2  0  0  0  0  0  0  0  0  0
   20.2053  -20.0263  -14.9529 N   0  0  0  0  0  0  0  0  0  0  0  0
   19.9879  -17.6859  -15.5695 C   0  0  0  0  0  0  0  0  0  0  0  0
   19.9456  -17.8095  -16.8393 O   0  0  0  0  0  0  0  0  0  0  0  0
   16.4456  -16.8242  -15.4163 C   0  0  0  0  0  0  0  0  0  0  0  0
   17.1825  -15.5302  -15.1555 C   0  0  1  0  0  0  0  0  0  0  0  0
   17.3482  -15.5162  -13.7396 O   0  0  0  0  0  0  0  0  0  0  0  0
   18.6036  -15.6061  -15.6876 C   0  0  2  0  0  0  0  0  0  0  0  0
   19.3610  -16.5894  -14.9244 N   0  0  0  0  0  0  0  0  0  0  0  0
   19.3389  -14.3437  -15.6475 C   0  0  0  0  0  0  0  0  0  0  0  0
   20.2140  -14.2165  -14.7095 O   0  0  0  0  0  0  0  0  0  0  0  0
   19.2072  -13.2487  -16.5110 N   0  0  0  0  0  0  0  0  0  0  0  0
   20.0091  -12.0062  -16.3631 C   0  0  1  0  0  0  0  0  0  0  0  0
   20.5902  -11.6321  -17.6656 C   0  0  0  0  0  0  0  0  0  0  0  0
   21.3748  -10.3731  -17.7432 C   0  0  0  0  0  0  0  0  0  0  0  0
   21.8670  -10.0148  -19.0778 C   0  0  0  0  0  0  0  0  0  0  0  0
   21.8015   -8.7913  -19.4677 O   0  0  0  0  0  0  0  0  0  0  0  0
   19.2248  -10.9854  -15.7033 C   0  0  0  0  0  0  0  0  0  0  0  0
   17.9556  -10.9285  -15.7350 O   0  0  0  0  0  0  0  0  0  0  0  0
   22.4142  -10.9037  -19.9852 O   0  0  0  0  0  0  0  0  0  0  0  0
   19.8225   -9.9444  -14.9524 O   0  0  0  0  0  0  0  0  0  0  0  0
  2  4  1  0
  2  1  1  6
  2  3  1  0
  4  5  2  0
  7  6  1  1
  7  9  1  0
  8  7  1  0
  9 11  1  0
  9 10  1  1
 10  4  1  0
 11 12  2  0
 11 13  1  0
 13 14  1  0
 14 15  1  6
 15 16  1  0
 16 17  1  0
 17 21  1  0
 18 17  2  0
 19 14  1  0
 20 19  2  0
 22 19  1  0
M  END
$$$$
