LSQ.pdb
     RDKit          3D

 24 23  0  0  1  0  0  0  0  0999 V2000
    9.4917  -13.1991   19.2879 C   0  0  0  0  0  0  0  0  0  0  0  0
    8.0906  -13.4804   19.7123 C   0  0  2  0  0  0  0  0  0  0  0  0
    7.1640  -12.3690   19.2239 C   0  0  0  0  0  0  0  0  0  0  0  0
    7.8590  -13.7926   21.1424 C   0  0  0  0  0  0  0  0  0  0  0  0
    8.6552  -14.8506   21.7898 C   0  0  2  0  0  0  0  0  0  0  0  0
    8.2210  -16.1091   21.1361 N   0  0  0  0  0  0  0  0  0  0  0  0
    8.6188  -14.9917   23.2358 C   0  0  0  0  0  0  0  0  0  0  0  0
    9.1390  -14.1715   24.0304 O   0  0  0  0  0  0  0  0  0  0  0  0
    6.3217  -18.0414   25.0863 O   0  0  0  0  0  0  0  0  0  0  0  0
    6.6044  -16.8162   25.7055 C   0  0  0  0  0  0  0  0  0  0  0  0
    8.0035  -16.3282   25.3027 C   0  0  2  0  0  0  0  0  0  0  0  0
    7.9700  -16.1069   23.8919 N   0  0  0  0  0  0  0  0  0  0  0  0
    9.0255  -17.3009   25.7246 C   0  0  0  0  0  0  0  0  0  0  0  0
    9.0634  -17.6433   26.9328 O   0  0  0  0  0  0  0  0  0  0  0  0
    9.0619  -20.0321   21.4879 N   0  0  0  0  0  0  0  0  0  0  0  0
    9.8576  -20.7670   22.3869 C   0  0  0  0  0  0  0  0  0  0  0  0
   10.6204  -21.6529   21.9343 O   0  0  0  0  0  0  0  0  0  0  0  0
    9.7903  -20.4917   23.8554 C   0  0  0  0  0  0  0  0  0  0  0  0
   11.0959  -19.9890   24.3805 C   0  0  0  0  0  0  0  0  0  0  0  0
   10.9799  -18.8445   25.3285 C   0  0  2  0  0  0  0  0  0  0  0  0
    9.9749  -17.8764   24.8405 N   0  0  0  0  0  0  0  0  0  0  0  0
   12.2687  -18.1264   25.4038 C   0  0  0  0  0  0  0  0  0  0  0  0
   13.3893  -18.8152   25.9057 O   0  0  0  0  0  0  0  0  0  0  0  0
   12.4433  -16.9255   25.0472 O   0  0  0  0  0  0  0  0  0  0  0  0
  2  1  1  1
  2  3  1  0
  4  5  1  0
  4  2  1  0
  5  7  1  0
  5  6  1  6
  7  8  2  0
 10  9  1  0
 11 10  1  6
 12 11  1  0
 12  7  1  0
 13 11  1  0
 13 14  2  0
 16 15  1  0
 16 17  2  0
 18 16  1  0
 19 18  1  0
 20 21  1  0
 20 19  1  6
 21 13  1  0
 22 20  1  0
 23 22  1  0
 24 22  2  0
M  END
$$$$
