LSQ.pdb
     RDKit          3D

 24 23  0  0  1  0  0  0  0  0999 V2000
    6.5500  -12.3575   23.7613 C   0  0  0  0  0  0  0  0  0  0  0  0
    6.3352  -12.8521   25.1511 C   0  0  2  0  0  0  0  0  0  0  0  0
    6.5143  -11.7075   26.1462 C   0  0  0  0  0  0  0  0  0  0  0  0
    7.0848  -14.0599   25.5705 C   0  0  0  0  0  0  0  0  0  0  0  0
    6.9291  -15.3097   24.8050 C   0  0  2  0  0  0  0  0  0  0  0  0
    5.8835  -16.0730   25.5288 N   0  0  0  0  0  0  0  0  0  0  0  0
    8.0900  -16.1487   24.5585 C   0  0  0  0  0  0  0  0  0  0  0  0
    8.3260  -17.2134   25.1791 O   0  0  0  0  0  0  0  0  0  0  0  0
   10.6435  -15.2999   21.2365 O   0  0  0  0  0  0  0  0  0  0  0  0
   10.1080  -16.5583   21.5432 C   0  0  0  0  0  0  0  0  0  0  0  0
   10.0497  -16.7538   23.0651 C   0  0  2  0  0  0  0  0  0  0  0  0
    9.0873  -15.8223   23.5615 N   0  0  0  0  0  0  0  0  0  0  0  0
   11.3897  -16.5899   23.6536 C   0  0  0  0  0  0  0  0  0  0  0  0
   12.3321  -17.2855   23.1994 O   0  0  0  0  0  0  0  0  0  0  0  0
   11.8244  -15.7514   30.0373 N   0  0  0  0  0  0  0  0  0  0  0  0
   10.7391  -15.9199   29.1569 C   0  0  0  0  0  0  0  0  0  0  0  0
    9.7655  -15.1346   29.2400 O   0  0  0  0  0  0  0  0  0  0  0  0
   10.7524  -17.0183   28.1419 C   0  0  0  0  0  0  0  0  0  0  0  0
   10.6199  -16.4841   26.7526 C   0  0  0  0  0  0  0  0  0  0  0  0
   11.9161  -16.1748   26.0846 C   0  0  2  0  0  0  0  0  0  0  0  0
   11.6789  -15.6868   24.7094 N   0  0  0  0  0  0  0  0  0  0  0  0
   12.7251  -17.4057   25.9714 C   0  0  0  0  0  0  0  0  0  0  0  0
   13.7388  -17.6292   26.9225 O   0  0  0  0  0  0  0  0  0  0  0  0
   12.5740  -18.2840   25.0738 O   0  0  0  0  0  0  0  0  0  0  0  0
  2  1  1  6
  2  3  1  0
  4  5  1  0
  4  2  1  0
  5  7  1  0
  5  6  1  1
  7  8  2  0
 10  9  1  0
 11 10  1  6
 12 11  1  0
 12  7  1  0
 13 11  1  0
 13 14  2  0
 16 15  1  0
 16 17  2  0
 18 16  1  0
 19 18  1  0
 20 21  1  0
 20 19  1  6
 21 13  1  0
 22 20  1  0
 23 22  1  0
 24 22  2  0
M  END
$$$$
