LSQ.pdb
     RDKit          3D

 24 23  0  0  1  0  0  0  0  0999 V2000
    8.2752  -13.4274   17.7425 C   0  0  0  0  0  0  0  0  0  0  0  0
    7.6813  -13.2984   19.1036 C   0  0  2  0  0  0  0  0  0  0  0  0
    7.0826  -11.9048   19.2821 C   0  0  0  0  0  0  0  0  0  0  0  0
    8.5291  -13.6783   20.2584 C   0  0  0  0  0  0  0  0  0  0  0  0
    8.6201  -15.0952   20.6535 C   0  0  2  0  0  0  0  0  0  0  0  0
    7.3191  -15.6865   20.2566 N   0  0  0  0  0  0  0  0  0  0  0  0
    8.9331  -15.4366   22.0311 C   0  0  0  0  0  0  0  0  0  0  0  0
    9.9415  -15.0100   22.6440 O   0  0  0  0  0  0  0  0  0  0  0  0
    6.6171  -18.3344   24.0445 O   0  0  0  0  0  0  0  0  0  0  0  0
    7.1228  -17.2534   24.7796 C   0  0  0  0  0  0  0  0  0  0  0  0
    8.4249  -16.7431   24.1457 C   0  0  2  0  0  0  0  0  0  0  0  0
    8.0956  -16.3107   22.8247 N   0  0  0  0  0  0  0  0  0  0  0  0
    9.4579  -17.7920   24.1844 C   0  0  0  0  0  0  0  0  0  0  0  0
    9.7048  -18.4283   23.1296 O   0  0  0  0  0  0  0  0  0  0  0  0
   13.6273  -17.5712   22.1143 N   0  0  0  0  0  0  0  0  0  0  0  0
   14.4466  -17.9823   23.1825 C   0  0  0  0  0  0  0  0  0  0  0  0
   15.6312  -18.3148   22.9427 O   0  0  0  0  0  0  0  0  0  0  0  0
   13.9080  -18.0200   24.5773 C   0  0  0  0  0  0  0  0  0  0  0  0
   12.4647  -17.6348   24.6195 C   0  0  0  0  0  0  0  0  0  0  0  0
   11.5746  -18.6474   25.2554 C   0  0  2  0  0  0  0  0  0  0  0  0
   10.1942  -18.1268   25.3505 N   0  0  0  0  0  0  0  0  0  0  0  0
   12.0298  -18.9156   26.6350 C   0  0  0  0  0  0  0  0  0  0  0  0
   12.8838  -20.0129   26.8556 O   0  0  0  0  0  0  0  0  0  0  0  0
   11.7063  -18.2257   27.6446 O   0  0  0  0  0  0  0  0  0  0  0  0
  2  1  1  6
  2  3  1  0
  4  5  1  0
  4  2  1  0
  5  7  1  0
  5  6  1  1
  7  8  2  0
 10  9  1  0
 11 10  1  6
 12 11  1  0
 12  7  1  0
 13 11  1  0
 13 14  2  0
 16 15  1  0
 16 17  2  0
 18 16  1  0
 19 18  1  0
 20 21  1  0
 20 19  1  1
 21 13  1  0
 22 20  1  0
 23 22  1  0
 24 22  2  0
M  END
$$$$
