LSQ.pdb
     RDKit          3D

 24 23  0  0  1  0  0  0  0  0999 V2000
    9.2869  -12.4477   19.3224 C   0  0  0  0  0  0  0  0  0  0  0  0
    8.0922  -13.3146   19.5312 C   0  0  2  0  0  0  0  0  0  0  0  0
    6.8247  -12.4627   19.5435 C   0  0  0  0  0  0  0  0  0  0  0  0
    8.1240  -14.2592   20.6728 C   0  0  0  0  0  0  0  0  0  0  0  0
    9.3160  -15.1000   20.8826 C   0  0  2  0  0  0  0  0  0  0  0  0
    9.4499  -15.8908   19.6350 N   0  0  0  0  0  0  0  0  0  0  0  0
    9.3836  -15.9707   22.0444 C   0  0  0  0  0  0  0  0  0  0  0  0
    9.0168  -15.6292   23.1948 O   0  0  0  0  0  0  0  0  0  0  0  0
   11.9299  -19.3284   22.2698 O   0  0  0  0  0  0  0  0  0  0  0  0
   10.5771  -19.5183   22.5834 C   0  0  0  0  0  0  0  0  0  0  0  0
    9.9614  -18.2073   23.0934 C   0  0  2  0  0  0  0  0  0  0  0  0
    9.8871  -17.3258   21.9719 N   0  0  0  0  0  0  0  0  0  0  0  0
   10.7526  -17.6728   24.2145 C   0  0  0  0  0  0  0  0  0  0  0  0
   11.6390  -16.8174   23.9674 O   0  0  0  0  0  0  0  0  0  0  0  0
    8.7477  -13.8006   27.3515 N   0  0  0  0  0  0  0  0  0  0  0  0
    9.7805  -14.0567   28.2730 C   0  0  0  0  0  0  0  0  0  0  0  0
    9.9532  -13.2593   29.2247 O   0  0  0  0  0  0  0  0  0  0  0  0
   10.6537  -15.2606   28.1146 C   0  0  0  0  0  0  0  0  0  0  0  0
   10.2416  -16.0874   26.9400 C   0  0  0  0  0  0  0  0  0  0  0  0
   11.1182  -17.2638   26.6759 C   0  0  2  0  0  0  0  0  0  0  0  0
   10.5705  -18.0703   25.5647 N   0  0  0  0  0  0  0  0  0  0  0  0
   11.1525  -18.1377   27.8664 C   0  0  0  0  0  0  0  0  0  0  0  0
   10.3293  -19.2797   27.8813 O   0  0  0  0  0  0  0  0  0  0  0  0
   11.8740  -17.9347   28.8853 O   0  0  0  0  0  0  0  0  0  0  0  0
  2  1  1  1
  2  3  1  0
  4  5  1  0
  4  2  1  0
  5  7  1  0
  5  6  1  6
  7  8  2  0
 10  9  1  0
 11 10  1  6
 12 11  1  0
 12  7  1  0
 13 11  1  0
 13 14  2  0
 16 15  1  0
 16 17  2  0
 18 16  1  0
 19 18  1  0
 20 21  1  0
 20 19  1  1
 21 13  1  0
 22 20  1  0
 23 22  1  0
 24 22  2  0
M  END
$$$$
