LSQ.pdb
     RDKit          3D

 24 23  0  0  1  0  0  0  0  0999 V2000
    8.8949  -13.0097   18.8859 C   0  0  0  0  0  0  0  0  0  0  0  0
    7.8534  -13.3722   19.8890 C   0  0  2  0  0  0  0  0  0  0  0  0
    7.1229  -12.1166   20.3603 C   0  0  0  0  0  0  0  0  0  0  0  0
    8.2697  -14.2204   21.0308 C   0  0  0  0  0  0  0  0  0  0  0  0
    9.0030  -15.4724   20.7721 C   0  0  2  0  0  0  0  0  0  0  0  0
    8.1081  -16.2643   19.8935 N   0  0  0  0  0  0  0  0  0  0  0  0
    9.4596  -16.2800   21.8908 C   0  0  0  0  0  0  0  0  0  0  0  0
    8.9815  -16.2026   23.0484 O   0  0  0  0  0  0  0  0  0  0  0  0
   13.2639  -18.0688   21.9433 O   0  0  0  0  0  0  0  0  0  0  0  0
   12.1757  -18.8797   22.2936 C   0  0  0  0  0  0  0  0  0  0  0  0
   11.0329  -18.0212   22.8549 C   0  0  2  0  0  0  0  0  0  0  0  0
   10.5202  -17.2565   21.7627 N   0  0  0  0  0  0  0  0  0  0  0  0
   11.5147  -17.1992   23.9778 C   0  0  0  0  0  0  0  0  0  0  0  0
   11.8889  -16.0234   23.7416 O   0  0  0  0  0  0  0  0  0  0  0  0
    8.5627  -13.9597   26.7209 N   0  0  0  0  0  0  0  0  0  0  0  0
    9.4757  -13.9867   27.7919 C   0  0  0  0  0  0  0  0  0  0  0  0
    9.2979  -13.2077   28.7578 O   0  0  0  0  0  0  0  0  0  0  0  0
   10.6359  -14.9304   27.7728 C   0  0  0  0  0  0  0  0  0  0  0  0
   10.6188  -15.7974   26.5558 C   0  0  0  0  0  0  0  0  0  0  0  0
   11.7846  -16.7189   26.4386 C   0  0  2  0  0  0  0  0  0  0  0  0
   11.5808  -17.6613   25.3180 N   0  0  0  0  0  0  0  0  0  0  0  0
   11.9046  -17.5302   27.6673 C   0  0  0  0  0  0  0  0  0  0  0  0
   11.4040  -18.8459   27.6513 O   0  0  0  0  0  0  0  0  0  0  0  0
   12.4294  -17.1269   28.7453 O   0  0  0  0  0  0  0  0  0  0  0  0
  2  1  1  1
  2  3  1  0
  4  5  1  0
  4  2  1  0
  5  7  1  0
  5  6  1  6
  7  8  2  0
 10  9  1  0
 11 10  1  6
 12 11  1  0
 12  7  1  0
 13 11  1  0
 13 14  2  0
 16 15  1  0
 16 17  2  0
 18 16  1  0
 19 18  1  0
 20 21  1  0
 20 19  1  1
 21 13  1  0
 22 20  1  0
 23 22  1  0
 24 22  2  0
M  END
$$$$
