LSQ.pdb
     RDKit          3D

 24 23  0  0  1  0  0  0  0  0999 V2000
    9.3884  -13.1878   18.8933 C   0  0  0  0  0  0  0  0  0  0  0  0
    8.0205  -13.3013   19.4750 C   0  0  2  0  0  0  0  0  0  0  0  0
    7.5165  -11.9228   19.8969 C   0  0  0  0  0  0  0  0  0  0  0  0
    7.8134  -14.3069   20.5438 C   0  0  0  0  0  0  0  0  0  0  0  0
    8.3339  -15.6737   20.3615 C   0  0  2  0  0  0  0  0  0  0  0  0
    7.2227  -16.4238   19.7273 N   0  0  0  0  0  0  0  0  0  0  0  0
    8.8489  -16.4035   21.5080 C   0  0  0  0  0  0  0  0  0  0  0  0
    8.2278  -16.5304   22.5909 O   0  0  0  0  0  0  0  0  0  0  0  0
   12.9562  -17.7016   21.8756 O   0  0  0  0  0  0  0  0  0  0  0  0
   11.8787  -18.5785   22.0618 C   0  0  0  0  0  0  0  0  0  0  0  0
   10.6576  -17.8138   22.5926 C   0  0  2  0  0  0  0  0  0  0  0  0
   10.1411  -17.0556   21.4978 N   0  0  0  0  0  0  0  0  0  0  0  0
   11.0343  -16.9924   23.7554 C   0  0  0  0  0  0  0  0  0  0  0  0
   11.2555  -15.7686   23.5774 O   0  0  0  0  0  0  0  0  0  0  0  0
    8.4482  -13.6852   26.7399 N   0  0  0  0  0  0  0  0  0  0  0  0
    9.4613  -13.7401   27.7155 C   0  0  0  0  0  0  0  0  0  0  0  0
    9.4136  -12.9436   28.6823 O   0  0  0  0  0  0  0  0  0  0  0  0
   10.5732  -14.7333   27.5958 C   0  0  0  0  0  0  0  0  0  0  0  0
   10.3862  -15.6273   26.4130 C   0  0  0  0  0  0  0  0  0  0  0  0
   11.4822  -16.6167   26.2084 C   0  0  2  0  0  0  0  0  0  0  0  0
   11.1623  -17.5064   25.0721 N   0  0  0  0  0  0  0  0  0  0  0  0
   11.6097  -17.4744   27.4045 C   0  0  0  0  0  0  0  0  0  0  0  0
   12.3298  -16.9793   28.5083 O   0  0  0  0  0  0  0  0  0  0  0  0
   11.1150  -18.6334   27.5127 O   0  0  0  0  0  0  0  0  0  0  0  0
  2  1  1  1
  2  3  1  0
  4  5  1  0
  4  2  1  0
  5  7  1  0
  5  6  1  1
  7  8  2  0
 10  9  1  0
 11 10  1  6
 12 11  1  0
 12  7  1  0
 13 11  1  0
 13 14  2  0
 16 15  1  0
 16 17  2  0
 18 16  1  0
 19 18  1  0
 20 21  1  0
 20 19  1  1
 21 13  1  0
 22 20  1  0
 23 22  1  0
 24 22  2  0
M  END
$$$$
