LSQ.pdb
     RDKit          3D

 24 23  0  0  1  0  0  0  0  0999 V2000
    9.2615  -12.8258   19.3293 C   0  0  0  0  0  0  0  0  0  0  0  0
    7.9857  -13.3890   19.8558 C   0  0  2  0  0  0  0  0  0  0  0  0
    7.0729  -12.2601   20.3300 C   0  0  0  0  0  0  0  0  0  0  0  0
    8.0805  -14.4716   20.8635 C   0  0  0  0  0  0  0  0  0  0  0  0
    8.9467  -15.6338   20.5970 C   0  0  2  0  0  0  0  0  0  0  0  0
    8.2907  -16.3496   19.4758 N   0  0  0  0  0  0  0  0  0  0  0  0
    9.2586  -16.5576   21.6748 C   0  0  0  0  0  0  0  0  0  0  0  0
    8.3949  -17.2245   22.2943 O   0  0  0  0  0  0  0  0  0  0  0  0
   13.1819  -17.7500   22.3408 O   0  0  0  0  0  0  0  0  0  0  0  0
   12.1001  -18.5348   22.7634 C   0  0  0  0  0  0  0  0  0  0  0  0
   10.9451  -17.6381   23.2321 C   0  0  2  0  0  0  0  0  0  0  0  0
   10.6122  -16.7901   22.1319 N   0  0  0  0  0  0  0  0  0  0  0  0
   11.3289  -16.9041   24.4497 C   0  0  0  0  0  0  0  0  0  0  0  0
   12.1664  -15.9732   24.3485 O   0  0  0  0  0  0  0  0  0  0  0  0
    7.8803  -14.2159   26.8577 N   0  0  0  0  0  0  0  0  0  0  0  0
    9.0196  -13.5053   27.2801 C   0  0  0  0  0  0  0  0  0  0  0  0
    8.9632  -12.2546   27.3430 O   0  0  0  0  0  0  0  0  0  0  0  0
   10.2729  -14.2348   27.6462 C   0  0  0  0  0  0  0  0  0  0  0  0
   10.0972  -15.7152   27.5422 C   0  0  0  0  0  0  0  0  0  0  0  0
   11.2500  -16.4312   26.9254 C   0  0  2  0  0  0  0  0  0  0  0  0
   10.8043  -17.1894   25.7372 N   0  0  0  0  0  0  0  0  0  0  0  0
   11.7971  -17.4138   27.8832 C   0  0  0  0  0  0  0  0  0  0  0  0
   12.5414  -16.9365   28.9788 O   0  0  0  0  0  0  0  0  0  0  0  0
   11.6456  -18.6663   27.7919 O   0  0  0  0  0  0  0  0  0  0  0  0
  2  1  1  1
  2  3  1  0
  4  5  1  0
  4  2  1  0
  5  7  1  0
  5  6  1  6
  7  8  2  0
 10  9  1  0
 11 10  1  6
 12 11  1  0
 12  7  1  0
 13 11  1  0
 13 14  2  0
 16 15  1  0
 16 17  2  0
 18 16  1  0
 19 18  1  0
 20 21  1  0
 20 19  1  1
 21 13  1  0
 22 20  1  0
 23 22  1  0
 24 22  2  0
M  END
$$$$
