LSQ.pdb
     RDKit          3D

 24 23  0  0  1  0  0  0  0  0999 V2000
    9.1552  -12.3214   19.7068 C   0  0  0  0  0  0  0  0  0  0  0  0
    8.1743  -13.4092   19.4297 C   0  0  2  0  0  0  0  0  0  0  0  0
    6.8316  -12.8091   19.0178 C   0  0  0  0  0  0  0  0  0  0  0  0
    8.0072  -14.4586   20.4628 C   0  0  0  0  0  0  0  0  0  0  0  0
    9.2000  -15.0274   21.1154 C   0  0  2  0  0  0  0  0  0  0  0  0
    9.6497  -16.1125   20.2098 N   0  0  0  0  0  0  0  0  0  0  0  0
    9.1062  -15.5136   22.4818 C   0  0  0  0  0  0  0  0  0  0  0  0
    8.4546  -14.9357   23.3851 O   0  0  0  0  0  0  0  0  0  0  0  0
   11.6608  -18.5965   23.8497 O   0  0  0  0  0  0  0  0  0  0  0  0
   10.3180  -18.6185   24.2509 C   0  0  0  0  0  0  0  0  0  0  0  0
    9.7470  -17.1932   24.2721 C   0  0  2  0  0  0  0  0  0  0  0  0
    9.7665  -16.7238   22.9232 N   0  0  0  0  0  0  0  0  0  0  0  0
   10.5139  -16.3488   25.2034 C   0  0  0  0  0  0  0  0  0  0  0  0
   11.3784  -15.5691   24.7311 O   0  0  0  0  0  0  0  0  0  0  0  0
    8.2342  -12.8450   26.1890 N   0  0  0  0  0  0  0  0  0  0  0  0
    7.9412  -13.4055   27.4465 C   0  0  0  0  0  0  0  0  0  0  0  0
    6.7843  -13.2760   27.9114 O   0  0  0  0  0  0  0  0  0  0  0  0
    8.9955  -14.1416   28.2104 C   0  0  0  0  0  0  0  0  0  0  0  0
   10.3132  -14.1006   27.5068 C   0  0  0  0  0  0  0  0  0  0  0  0
   11.0393  -15.4022   27.4810 C   0  0  2  0  0  0  0  0  0  0  0  0
   10.3317  -16.3652   26.6108 N   0  0  0  0  0  0  0  0  0  0  0  0
   11.0652  -15.9860   28.8378 C   0  0  0  0  0  0  0  0  0  0  0  0
   11.8001  -15.3209   29.8377 O   0  0  0  0  0  0  0  0  0  0  0  0
   10.4700  -17.0506   29.1726 O   0  0  0  0  0  0  0  0  0  0  0  0
  2  1  1  1
  2  3  1  0
  4  5  1  0
  4  2  1  0
  5  7  1  0
  5  6  1  6
  7  8  2  0
 10  9  1  0
 11 10  1  6
 12 11  1  0
 12  7  1  0
 13 11  1  0
 13 14  2  0
 16 15  1  0
 16 17  2  0
 18 16  1  0
 19 18  1  0
 20 21  1  0
 20 19  1  1
 21 13  1  0
 22 20  1  0
 23 22  1  0
 24 22  2  0
M  END
$$$$
