LSQ.pdb
     RDKit          3D

 24 23  0  0  1  0  0  0  0  0999 V2000
    8.0038  -12.0807   18.4683 C   0  0  0  0  0  0  0  0  0  0  0  0
    7.7799  -13.3322   19.2466 C   0  0  2  0  0  0  0  0  0  0  0  0
    6.9345  -13.0340   20.4830 C   0  0  0  0  0  0  0  0  0  0  0  0
    8.9693  -14.1491   19.5849 C   0  0  0  0  0  0  0  0  0  0  0  0
    9.9664  -14.4420   18.5398 C   0  0  2  0  0  0  0  0  0  0  0  0
    9.2445  -15.2730   17.5457 N   0  0  0  0  0  0  0  0  0  0  0  0
   11.2255  -15.0689   18.9059 C   0  0  0  0  0  0  0  0  0  0  0  0
   11.4011  -15.7143   19.9676 O   0  0  0  0  0  0  0  0  0  0  0  0
   14.1351  -16.2773   16.1467 O   0  0  0  0  0  0  0  0  0  0  0  0
   14.5658  -15.4307   17.1774 C   0  0  0  0  0  0  0  0  0  0  0  0
   13.6585  -15.5865   18.4063 C   0  0  2  0  0  0  0  0  0  0  0  0
   12.4012  -15.0010   18.0644 N   0  0  0  0  0  0  0  0  0  0  0  0
   14.2913  -14.9797   19.5895 C   0  0  0  0  0  0  0  0  0  0  0  0
   14.4119  -13.7298   19.6291 O   0  0  0  0  0  0  0  0  0  0  0  0
   12.3095  -15.7271   24.9105 N   0  0  0  0  0  0  0  0  0  0  0  0
   12.9730  -16.8497   24.3805 C   0  0  0  0  0  0  0  0  0  0  0  0
   12.7661  -17.9735   24.8958 O   0  0  0  0  0  0  0  0  0  0  0  0
   13.9075  -16.6986   23.2225 C   0  0  0  0  0  0  0  0  0  0  0  0
   14.3390  -15.2787   23.0465 C   0  0  0  0  0  0  0  0  0  0  0  0
   15.2768  -15.0556   21.9095 C   0  0  2  0  0  0  0  0  0  0  0  0
   14.7750  -15.7295   20.6931 N   0  0  0  0  0  0  0  0  0  0  0  0
   16.5910  -15.6535   22.2221 C   0  0  0  0  0  0  0  0  0  0  0  0
   17.3831  -15.0451   23.2144 O   0  0  0  0  0  0  0  0  0  0  0  0
   17.0637  -16.6827   21.6588 O   0  0  0  0  0  0  0  0  0  0  0  0
  2  1  1  1
  2  3  1  0
  4  5  1  0
  4  2  1  0
  5  7  1  0
  5  6  1  6
  7  8  2  0
 10  9  1  0
 11 10  1  6
 12 11  1  0
 12  7  1  0
 13 11  1  0
 13 14  2  0
 16 15  1  0
 16 17  2  0
 18 16  1  0
 19 18  1  0
 20 21  1  0
 20 19  1  1
 21 13  1  0
 22 20  1  0
 23 22  1  0
 24 22  2  0
M  END
$$$$
