LSQ.pdb
     RDKit          3D

 24 23  0  0  1  0  0  0  0  0999 V2000
    9.3233  -12.3379   19.2117 C   0  0  0  0  0  0  0  0  0  0  0  0
    8.2086  -13.3226   19.3117 C   0  0  2  0  0  0  0  0  0  0  0  0
    6.8655  -12.6030   19.2094 C   0  0  0  0  0  0  0  0  0  0  0  0
    8.2331  -14.2696   20.4515 C   0  0  0  0  0  0  0  0  0  0  0  0
    9.4614  -15.0351   20.7295 C   0  0  2  0  0  0  0  0  0  0  0  0
    9.7376  -15.7813   19.4778 N   0  0  0  0  0  0  0  0  0  0  0  0
    9.5046  -15.9305   21.8735 C   0  0  0  0  0  0  0  0  0  0  0  0
    9.1179  -15.6120   23.0239 O   0  0  0  0  0  0  0  0  0  0  0  0
   12.0722  -19.2371   22.0081 O   0  0  0  0  0  0  0  0  0  0  0  0
   10.7387  -19.4697   22.3716 C   0  0  0  0  0  0  0  0  0  0  0  0
   10.0976  -18.1761   22.8945 C   0  0  2  0  0  0  0  0  0  0  0  0
   10.0049  -17.2856   21.7815 N   0  0  0  0  0  0  0  0  0  0  0  0
   10.8792  -17.6366   24.0200 C   0  0  0  0  0  0  0  0  0  0  0  0
   11.8064  -16.8263   23.7710 O   0  0  0  0  0  0  0  0  0  0  0  0
    8.7688  -13.8683   27.4411 N   0  0  0  0  0  0  0  0  0  0  0  0
    9.9115  -14.0683   28.2382 C   0  0  0  0  0  0  0  0  0  0  0  0
   10.1215  -13.2919   29.1998 O   0  0  0  0  0  0  0  0  0  0  0  0
   10.8554  -15.1891   27.9388 C   0  0  0  0  0  0  0  0  0  0  0  0
   10.3878  -16.0060   26.7781 C   0  0  0  0  0  0  0  0  0  0  0  0
   11.2385  -17.1922   26.4761 C   0  0  2  0  0  0  0  0  0  0  0  0
   10.6439  -17.9812   25.3765 N   0  0  0  0  0  0  0  0  0  0  0  0
   11.2985  -18.0769   27.6577 C   0  0  0  0  0  0  0  0  0  0  0  0
   10.6022  -19.2997   27.6132 O   0  0  0  0  0  0  0  0  0  0  0  0
   11.9357  -17.8154   28.7186 O   0  0  0  0  0  0  0  0  0  0  0  0
  2  1  1  1
  2  3  1  0
  4  5  1  0
  4  2  1  0
  5  7  1  0
  5  6  1  6
  7  8  2  0
 10  9  1  0
 11 10  1  6
 12 11  1  0
 12  7  1  0
 13 11  1  0
 13 14  2  0
 16 15  1  0
 16 17  2  0
 18 16  1  0
 19 18  1  0
 20 21  1  0
 20 19  1  1
 21 13  1  0
 22 20  1  0
 23 22  1  0
 24 22  2  0
M  END
$$$$
