LSQ.pdb
     RDKit          3D

 24 23  0  0  1  0  0  0  0  0999 V2000
   13.1057  -18.8257   13.1501 C   0  0  0  0  0  0  0  0  0  0  0  0
   14.4660  -18.3880   13.5745 C   0  0  2  0  0  0  0  0  0  0  0  0
   15.3515  -19.6065   13.8271 C   0  0  0  0  0  0  0  0  0  0  0  0
   14.5544  -17.4116   14.6860 C   0  0  0  0  0  0  0  0  0  0  0  0
   13.7139  -16.2013   14.6538 C   0  0  2  0  0  0  0  0  0  0  0  0
   14.2535  -15.3914   13.5346 N   0  0  0  0  0  0  0  0  0  0  0  0
   13.5826  -15.3878   15.8510 C   0  0  0  0  0  0  0  0  0  0  0  0
   14.4685  -14.5984   16.2590 O   0  0  0  0  0  0  0  0  0  0  0  0
   10.3688  -16.0374   18.5600 O   0  0  0  0  0  0  0  0  0  0  0  0
   10.7957  -14.7280   18.2994 C   0  0  0  0  0  0  0  0  0  0  0  0
   12.2852  -14.7197   17.9264 C   0  0  2  0  0  0  0  0  0  0  0  0
   12.4012  -15.4197   16.6867 N   0  0  0  0  0  0  0  0  0  0  0  0
   13.0881  -15.3048   19.0134 C   0  0  0  0  0  0  0  0  0  0  0  0
   13.4437  -16.5057   18.9153 O   0  0  0  0  0  0  0  0  0  0  0  0
   18.6282  -15.7702   20.7255 N   0  0  0  0  0  0  0  0  0  0  0  0
   17.9060  -14.6018   21.0331 C   0  0  0  0  0  0  0  0  0  0  0  0
   18.4292  -13.7488   21.7881 O   0  0  0  0  0  0  0  0  0  0  0  0
   16.5387  -14.3869   20.4664 C   0  0  0  0  0  0  0  0  0  0  0  0
   15.4938  -14.3939   21.5347 C   0  0  0  0  0  0  0  0  0  0  0  0
   14.2995  -15.2299   21.2238 C   0  0  2  0  0  0  0  0  0  0  0  0
   13.4851  -14.5865   20.1712 N   0  0  0  0  0  0  0  0  0  0  0  0
   13.4435  -15.3422   22.4225 C   0  0  0  0  0  0  0  0  0  0  0  0
   13.9242  -16.0808   23.5205 O   0  0  0  0  0  0  0  0  0  0  0  0
   12.2978  -14.8188   22.5380 O   0  0  0  0  0  0  0  0  0  0  0  0
  2  1  1  1
  2  3  1  0
  4  5  1  0
  4  2  1  0
  5  7  1  0
  5  6  1  6
  7  8  2  0
 10  9  1  0
 11 10  1  1
 12 11  1  0
 12  7  1  0
 13 11  1  0
 13 14  2  0
 16 15  1  0
 16 17  2  0
 18 16  1  0
 19 18  1  0
 20 21  1  0
 20 19  1  1
 21 13  1  0
 22 20  1  0
 23 22  1  0
 24 22  2  0
M  END
$$$$
