LSQ.pdb
     RDKit          3D

 24 23  0  0  1  0  0  0  0  0999 V2000
    9.3431  -13.3967   18.7559 C   0  0  0  0  0  0  0  0  0  0  0  0
    7.8810  -13.4292   19.0448 C   0  0  2  0  0  0  0  0  0  0  0  0
    7.3717  -12.0162   19.3211 C   0  0  0  0  0  0  0  0  0  0  0  0
    7.4080  -14.3883   20.0709 C   0  0  0  0  0  0  0  0  0  0  0  0
    7.8753  -15.7854   20.0250 C   0  0  2  0  0  0  0  0  0  0  0  0
    6.7729  -16.5355   19.3756 N   0  0  0  0  0  0  0  0  0  0  0  0
    8.2828  -16.4457   21.2540 C   0  0  0  0  0  0  0  0  0  0  0  0
    7.5725  -16.4970   22.2872 O   0  0  0  0  0  0  0  0  0  0  0  0
   12.0550  -18.3855   21.5056 O   0  0  0  0  0  0  0  0  0  0  0  0
   10.9222  -18.9106   22.1423 C   0  0  0  0  0  0  0  0  0  0  0  0
    9.9867  -17.7754   22.5826 C   0  0  2  0  0  0  0  0  0  0  0  0
    9.5613  -17.1100   21.3924 N   0  0  0  0  0  0  0  0  0  0  0  0
   10.6707  -16.8919   23.5419 C   0  0  0  0  0  0  0  0  0  0  0  0
   11.3420  -15.9286   23.0951 O   0  0  0  0  0  0  0  0  0  0  0  0
    9.1917  -15.7665   29.5926 N   0  0  0  0  0  0  0  0  0  0  0  0
   10.1699  -14.8043   29.2784 C   0  0  0  0  0  0  0  0  0  0  0  0
   10.2731  -13.7875   30.0043 O   0  0  0  0  0  0  0  0  0  0  0  0
   11.0679  -14.9968   28.0979 C   0  0  0  0  0  0  0  0  0  0  0  0
   10.4408  -15.8805   27.0689 C   0  0  0  0  0  0  0  0  0  0  0  0
   11.2830  -16.1151   25.8615 C   0  0  2  0  0  0  0  0  0  0  0  0
   10.6147  -17.0671   24.9492 N   0  0  0  0  0  0  0  0  0  0  0  0
   12.5663  -16.7288   26.2601 C   0  0  0  0  0  0  0  0  0  0  0  0
   12.6315  -18.1310   26.3685 O   0  0  0  0  0  0  0  0  0  0  0  0
   13.6231  -16.0819   26.5142 O   0  0  0  0  0  0  0  0  0  0  0  0
  2  1  1  1
  2  3  1  0
  4  5  1  0
  4  2  1  0
  5  7  1  0
  5  6  1  1
  7  8  2  0
 10  9  1  0
 11 10  1  6
 12 11  1  0
 12  7  1  0
 13 11  1  0
 13 14  2  0
 16 15  1  0
 16 17  2  0
 18 16  1  0
 19 18  1  0
 20 21  1  0
 20 19  1  1
 21 13  1  0
 22 20  1  0
 23 22  1  0
 24 22  2  0
M  END
$$$$
