LSQ.pdb
     RDKit          3D

 24 23  0  0  1  0  0  0  0  0999 V2000
    7.1232  -12.9087   18.6418 C   0  0  0  0  0  0  0  0  0  0  0  0
    7.9889  -13.3460   19.7739 C   0  0  2  0  0  0  0  0  0  0  0  0
    8.6190  -12.1298   20.4494 C   0  0  0  0  0  0  0  0  0  0  0  0
    8.9960  -14.3976   19.4979 C   0  0  0  0  0  0  0  0  0  0  0  0
    9.1087  -15.5486   20.4116 C   0  0  2  0  0  0  0  0  0  0  0  0
    7.7637  -16.1736   20.4060 N   0  0  0  0  0  0  0  0  0  0  0  0
    9.5647  -15.3391   21.7756 C   0  0  0  0  0  0  0  0  0  0  0  0
   10.7424  -15.0288   22.0778 O   0  0  0  0  0  0  0  0  0  0  0  0
    6.8731  -15.9059   24.9950 O   0  0  0  0  0  0  0  0  0  0  0  0
    7.9896  -15.0742   25.1570 C   0  0  0  0  0  0  0  0  0  0  0  0
    9.1448  -15.5571   24.2681 C   0  0  2  0  0  0  0  0  0  0  0  0
    8.6861  -15.4725   22.9180 N   0  0  0  0  0  0  0  0  0  0  0  0
    9.5649  -16.9112   24.6662 C   0  0  0  0  0  0  0  0  0  0  0  0
    8.9396  -17.8944   24.1965 O   0  0  0  0  0  0  0  0  0  0  0  0
   14.4825  -19.7021   23.6551 N   0  0  0  0  0  0  0  0  0  0  0  0
   14.6051  -19.6816   25.0572 C   0  0  0  0  0  0  0  0  0  0  0  0
   15.7095  -19.9761   25.5720 O   0  0  0  0  0  0  0  0  0  0  0  0
   13.4349  -19.3143   25.9132 C   0  0  0  0  0  0  0  0  0  0  0  0
   12.2460  -18.9420   25.0880 C   0  0  0  0  0  0  0  0  0  0  0  0
   11.0429  -18.5558   25.8788 C   0  0  2  0  0  0  0  0  0  0  0  0
   10.6410  -17.1706   25.5545 N   0  0  0  0  0  0  0  0  0  0  0  0
   11.3632  -18.5851   27.3206 C   0  0  0  0  0  0  0  0  0  0  0  0
   11.5571  -19.8359   27.9370 O   0  0  0  0  0  0  0  0  0  0  0  0
   11.4775  -17.5591   28.0515 O   0  0  0  0  0  0  0  0  0  0  0  0
  2  1  1  6
  2  3  1  0
  4  5  1  0
  4  2  1  0
  5  7  1  0
  5  6  1  1
  7  8  2  0
 10  9  1  0
 11 10  1  1
 12 11  1  0
 12  7  1  0
 13 11  1  0
 13 14  2  0
 16 15  1  0
 16 17  2  0
 18 16  1  0
 19 18  1  0
 20 21  1  0
 20 19  1  6
 21 13  1  0
 22 20  1  0
 23 22  1  0
 24 22  2  0
M  END
$$$$
