DYK.pdb
     RDKit          3D

 30 30  0  0  1  0  0  0  0  0999 V2000
    8.8528  -17.7401   19.3718 N   0  0  0  0  0  0  0  0  0  0  0  0
   10.1938  -17.3542   19.7549 C   0  0  1  0  0  0  0  0  0  0  0  0
   10.8514  -16.7353   18.5557 C   0  0  0  0  0  0  0  0  0  0  0  0
   10.8346  -17.7063   17.4519 C   0  0  0  0  0  0  0  0  0  0  0  0
   10.3923  -18.8551   17.6262 O   0  0  0  0  0  0  0  0  0  0  0  0
   10.1255  -16.4621   20.9121 C   0  0  0  0  0  0  0  0  0  0  0  0
   11.1999  -16.0258   21.4543 O   0  0  0  0  0  0  0  0  0  0  0  0
   11.3135  -17.3385   16.2145 O   0  0  0  0  0  0  0  0  0  0  0  0
    6.7917  -11.9540   27.8633 O   0  0  0  0  0  0  0  0  0  0  0  0
    6.9732  -12.6062   26.6637 C   0  0  0  0  0  0  0  0  0  0  0  0
    7.7594  -12.0384   25.7044 C   0  0  0  0  0  0  0  0  0  0  0  0
    7.9584  -12.6804   24.4807 C   0  0  0  0  0  0  0  0  0  0  0  0
    7.3772  -13.8920   24.2002 C   0  0  0  0  0  0  0  0  0  0  0  0
    7.5796  -14.5669   22.9072 C   0  0  0  0  0  0  0  0  0  0  0  0
    8.8605  -15.3112   22.7592 C   0  0  2  0  0  0  0  0  0  0  0  0
    8.9272  -16.0326   21.4947 N   0  0  0  0  0  0  0  0  0  0  0  0
    8.9877  -16.3151   23.8737 C   0  0  0  0  0  0  0  0  0  0  0  0
    8.1593  -17.2587   23.9647 O   0  0  0  0  0  0  0  0  0  0  0  0
    6.5798  -14.4455   25.2013 C   0  0  0  0  0  0  0  0  0  0  0  0
    6.3741  -13.8262   26.4116 C   0  0  0  0  0  0  0  0  0  0  0  0
   10.0214  -16.2252   24.8288 N   0  0  0  0  0  0  0  0  0  0  0  0
   10.3512  -17.1445   25.8801 C   0  0  1  0  0  0  0  0  0  0  0  0
   11.8131  -17.5588   25.8541 C   0  0  0  0  0  0  0  0  0  0  0  0
   12.0319  -18.5848   26.9179 C   0  0  0  0  0  0  0  0  0  0  0  0
   13.4787  -19.0013   26.9463 C   0  0  0  0  0  0  0  0  0  0  0  0
   13.7009  -20.0217   28.0126 C   0  0  0  0  0  0  0  0  0  0  0  0
   15.1131  -20.3921   28.0709 N   0  0  0  0  0  0  0  0  0  0  0  0
    9.8881  -16.7225   27.2048 C   0  0  0  0  0  0  0  0  0  0  0  0
    9.3623  -17.5866   27.9508 O   0  0  0  0  0  0  0  0  0  0  0  0
    9.9910  -15.4291   27.6933 O   0  0  0  0  0  0  0  0  0  0  0  0
  2  1  1  6
  3  2  1  0
  4  3  1  0
  5  4  2  0
  6  2  1  0
  6  7  2  0
  8  4  1  0
  9 10  1  0
 10 11  2  0
 11 12  1  0
 13 12  2  0
 13 14  1  0
 15 14  1  1
 15 16  1  0
 16  6  1  0
 17 15  1  0
 17 18  2  0
 19 13  1  0
 20 10  1  0
 20 19  2  0
 21 17  1  0
 22 21  1  0
 22 28  1  0
 22 23  1  1
 24 23  1  0
 25 24  1  0
 26 25  1  0
 27 26  1  0
 28 29  2  0
 28 30  1  0
M  END
$$$$
