DYK.pdb
     RDKit          3D

 30 30  0  0  1  0  0  0  0  0999 V2000
    8.8034  -15.3057   19.4930 N   0  0  0  0  0  0  0  0  0  0  0  0
    8.1954  -15.9962   20.6099 C   0  0  1  0  0  0  0  0  0  0  0  0
    8.1376  -17.4567   20.2675 C   0  0  0  0  0  0  0  0  0  0  0  0
    7.1978  -17.6454   19.1528 C   0  0  0  0  0  0  0  0  0  0  0  0
    6.2363  -16.8727   18.9978 O   0  0  0  0  0  0  0  0  0  0  0  0
    8.9567  -15.7084   21.8253 C   0  0  0  0  0  0  0  0  0  0  0  0
   10.2362  -15.6872   21.7950 O   0  0  0  0  0  0  0  0  0  0  0  0
    7.3856  -18.6881   18.2733 O   0  0  0  0  0  0  0  0  0  0  0  0
   10.6674  -14.6835   30.5382 O   0  0  0  0  0  0  0  0  0  0  0  0
   10.0908  -14.7047   29.2875 C   0  0  0  0  0  0  0  0  0  0  0  0
   10.2239  -13.6211   28.4696 C   0  0  0  0  0  0  0  0  0  0  0  0
    9.6485  -13.6191   27.1976 C   0  0  0  0  0  0  0  0  0  0  0  0
    8.9355  -14.6942   26.7280 C   0  0  0  0  0  0  0  0  0  0  0  0
    8.3213  -14.6909   25.3897 C   0  0  0  0  0  0  0  0  0  0  0  0
    9.1272  -15.3181   24.3063 C   0  0  2  0  0  0  0  0  0  0  0  0
    8.3689  -15.4442   23.0682 N   0  0  0  0  0  0  0  0  0  0  0  0
    9.5517  -16.6979   24.7331 C   0  0  0  0  0  0  0  0  0  0  0  0
    8.6941  -17.6136   24.8364 O   0  0  0  0  0  0  0  0  0  0  0  0
    8.8179  -15.7855   27.5880 C   0  0  0  0  0  0  0  0  0  0  0  0
    9.3787  -15.8032   28.8433 C   0  0  0  0  0  0  0  0  0  0  0  0
   10.8995  -16.9946   25.0237 N   0  0  0  0  0  0  0  0  0  0  0  0
   11.4715  -18.2431   25.4397 C   0  0  1  0  0  0  0  0  0  0  0  0
   12.6130  -18.6890   24.5408 C   0  0  0  0  0  0  0  0  0  0  0  0
   12.0733  -18.9050   23.1646 C   0  0  0  0  0  0  0  0  0  0  0  0
   13.1706  -19.3719   22.2451 C   0  0  0  0  0  0  0  0  0  0  0  0
   12.6177  -19.6681   20.8909 C   0  0  0  0  0  0  0  0  0  0  0  0
   13.6874  -20.0915   19.9900 N   0  0  0  0  0  0  0  0  0  0  0  0
   11.7969  -18.3007   26.8673 C   0  0  0  0  0  0  0  0  0  0  0  0
   12.2833  -17.2742   27.4053 O   0  0  0  0  0  0  0  0  0  0  0  0
   11.6039  -19.4156   27.6686 O   0  0  0  0  0  0  0  0  0  0  0  0
  2  1  1  6
  3  2  1  0
  4  3  1  0
  5  4  2  0
  6  2  1  0
  6  7  2  0
  8  4  1  0
  9 10  1  0
 10 11  2  0
 11 12  1  0
 13 12  2  0
 13 14  1  0
 15 14  1  1
 15 16  1  0
 16  6  1  0
 17 15  1  0
 17 18  2  0
 19 13  1  0
 20 10  1  0
 20 19  2  0
 21 17  1  0
 22 21  1  0
 22 28  1  0
 22 23  1  6
 24 23  1  0
 25 24  1  0
 26 25  1  0
 27 26  1  0
 28 29  2  0
 28 30  1  0
M  END
$$$$
