DYK.pdb
     RDKit          3D

 30 30  0  0  1  0  0  0  0  0999 V2000
    9.3330  -17.3191   19.7417 N   0  0  0  0  0  0  0  0  0  0  0  0
   10.5803  -17.2113   20.4675 C   0  0  1  0  0  0  0  0  0  0  0  0
   11.6202  -16.6966   19.5151 C   0  0  0  0  0  0  0  0  0  0  0  0
   11.8268  -17.6937   18.4547 C   0  0  0  0  0  0  0  0  0  0  0  0
   11.3423  -18.8341   18.5551 O   0  0  0  0  0  0  0  0  0  0  0  0
   10.3831  -16.3570   21.6384 C   0  0  0  0  0  0  0  0  0  0  0  0
   11.3745  -16.0521   22.3885 O   0  0  0  0  0  0  0  0  0  0  0  0
   12.5641  -17.3597   17.3407 O   0  0  0  0  0  0  0  0  0  0  0  0
    6.1455  -11.8256   28.0693 O   0  0  0  0  0  0  0  0  0  0  0  0
    6.4930  -12.4585   26.8963 C   0  0  0  0  0  0  0  0  0  0  0  0
    7.3799  -11.8609   26.0496 C   0  0  0  0  0  0  0  0  0  0  0  0
    7.7475  -12.4829   24.8549 C   0  0  0  0  0  0  0  0  0  0  0  0
    7.2362  -13.7041   24.4918 C   0  0  0  0  0  0  0  0  0  0  0  0
    7.6167  -14.3581   23.2285 C   0  0  0  0  0  0  0  0  0  0  0  0
    8.9391  -15.0420   23.2266 C   0  0  2  0  0  0  0  0  0  0  0  0
    9.1435  -15.8269   22.0158 N   0  0  0  0  0  0  0  0  0  0  0  0
    9.0213  -15.9758   24.4045 C   0  0  0  0  0  0  0  0  0  0  0  0
    8.1890  -16.9130   24.5205 O   0  0  0  0  0  0  0  0  0  0  0  0
    6.3325  -14.2881   25.3787 C   0  0  0  0  0  0  0  0  0  0  0  0
    5.9605  -13.6888   26.5589 C   0  0  0  0  0  0  0  0  0  0  0  0
   10.0169  -15.8263   25.3921 N   0  0  0  0  0  0  0  0  0  0  0  0
   10.2636  -16.6438   26.5454 C   0  0  1  0  0  0  0  0  0  0  0  0
   11.4207  -17.6073   26.3396 C   0  0  0  0  0  0  0  0  0  0  0  0
   11.5029  -18.5072   27.5293 C   0  0  0  0  0  0  0  0  0  0  0  0
   12.6109  -19.5101   27.3448 C   0  0  0  0  0  0  0  0  0  0  0  0
   12.6614  -20.4430   28.5087 C   0  0  0  0  0  0  0  0  0  0  0  0
   13.6586  -21.4857   28.2775 N   0  0  0  0  0  0  0  0  0  0  0  0
   10.3476  -15.8910   27.7998 C   0  0  0  0  0  0  0  0  0  0  0  0
   10.3638  -16.5372   28.8777 O   0  0  0  0  0  0  0  0  0  0  0  0
   10.4108  -14.5083   27.8788 O   0  0  0  0  0  0  0  0  0  0  0  0
  2  1  1  6
  3  2  1  0
  4  3  1  0
  5  4  2  0
  6  2  1  0
  6  7  2  0
  8  4  1  0
  9 10  1  0
 10 11  2  0
 11 12  1  0
 13 12  2  0
 13 14  1  0
 15 14  1  6
 15 16  1  0
 16  6  1  0
 17 15  1  0
 17 18  2  0
 19 13  1  0
 20 10  1  0
 20 19  2  0
 21 17  1  0
 22 21  1  0
 22 28  1  0
 22 23  1  6
 24 23  1  0
 25 24  1  0
 26 25  1  0
 27 26  1  0
 28 29  2  0
 28 30  1  0
M  END
$$$$
