DYK.pdb
     RDKit          3D

 30 30  0  0  1  0  0  0  0  0999 V2000
   10.0637  -18.7289   18.9225 N   0  0  0  0  0  0  0  0  0  0  0  0
   11.1850  -17.8145   18.9009 C   0  0  1  0  0  0  0  0  0  0  0  0
   11.1063  -17.0250   17.6266 C   0  0  0  0  0  0  0  0  0  0  0  0
   11.2769  -17.9414   16.4898 C   0  0  0  0  0  0  0  0  0  0  0  0
   11.4104  -19.1633   16.6763 O   0  0  0  0  0  0  0  0  0  0  0  0
   11.1540  -16.9869   20.1067 C   0  0  0  0  0  0  0  0  0  0  0  0
   12.2128  -16.3878   20.5049 O   0  0  0  0  0  0  0  0  0  0  0  0
   11.2889  -17.4402   15.2073 O   0  0  0  0  0  0  0  0  0  0  0  0
    7.3835  -11.9684   17.8790 O   0  0  0  0  0  0  0  0  0  0  0  0
    7.7005  -12.7735   18.9508 C   0  0  0  0  0  0  0  0  0  0  0  0
    8.8293  -12.5158   19.6719 C   0  0  0  0  0  0  0  0  0  0  0  0
    9.1714  -13.3177   20.7624 C   0  0  0  0  0  0  0  0  0  0  0  0
    8.3944  -14.3827   21.1450 C   0  0  0  0  0  0  0  0  0  0  0  0
    8.7576  -15.2343   22.2901 C   0  0  0  0  0  0  0  0  0  0  0  0
   10.0039  -16.0334   22.1326 C   0  0  2  0  0  0  0  0  0  0  0  0
   10.0093  -16.7929   20.8888 N   0  0  0  0  0  0  0  0  0  0  0  0
   10.1202  -17.0092   23.2730 C   0  0  0  0  0  0  0  0  0  0  0  0
    9.1066  -17.6507   23.6547 O   0  0  0  0  0  0  0  0  0  0  0  0
    7.2477  -14.6193   20.3877 C   0  0  0  0  0  0  0  0  0  0  0  0
    6.8968  -13.8390   19.3113 C   0  0  0  0  0  0  0  0  0  0  0  0
   11.3481  -17.2257   23.9320 N   0  0  0  0  0  0  0  0  0  0  0  0
   11.6315  -18.1038   25.0310 C   0  0  1  0  0  0  0  0  0  0  0  0
   12.5041  -19.2804   24.6264 C   0  0  0  0  0  0  0  0  0  0  0  0
   11.9242  -19.8968   23.3952 C   0  0  0  0  0  0  0  0  0  0  0  0
   12.8464  -20.9632   22.8659 C   0  0  0  0  0  0  0  0  0  0  0  0
   12.2231  -21.6504   21.6969 C   0  0  0  0  0  0  0  0  0  0  0  0
   13.1402  -22.6475   21.1493 N   0  0  0  0  0  0  0  0  0  0  0  0
   12.1033  -17.4148   26.2351 C   0  0  0  0  0  0  0  0  0  0  0  0
   12.2087  -18.0814   27.2954 O   0  0  0  0  0  0  0  0  0  0  0  0
   12.4430  -16.0716   26.2845 O   0  0  0  0  0  0  0  0  0  0  0  0
  2  1  1  1
  3  2  1  0
  4  3  1  0
  5  4  2  0
  6  2  1  0
  6  7  2  0
  8  4  1  0
  9 10  1  0
 10 11  2  0
 11 12  1  0
 13 12  2  0
 13 14  1  0
 15 14  1  1
 15 16  1  0
 16  6  1  0
 17 15  1  0
 17 18  2  0
 19 13  1  0
 20 10  1  0
 20 19  2  0
 21 17  1  0
 22 21  1  0
 22 28  1  0
 22 23  1  6
 24 23  1  0
 25 24  1  0
 26 25  1  0
 27 26  1  0
 28 29  2  0
 28 30  1  0
M  END
$$$$
