DYK.pdb
     RDKit          3D

 30 30  0  0  1  0  0  0  0  0999 V2000
    9.5445  -17.4375   20.1194 N   0  0  0  0  0  0  0  0  0  0  0  0
   10.7474  -17.2887   20.9099 C   0  0  1  0  0  0  0  0  0  0  0  0
   11.8356  -16.8005   19.9983 C   0  0  0  0  0  0  0  0  0  0  0  0
   11.9460  -17.7202   18.8568 C   0  0  0  0  0  0  0  0  0  0  0  0
   11.2276  -17.5723   17.8530 O   0  0  0  0  0  0  0  0  0  0  0  0
   10.4767  -16.3917   22.0332 C   0  0  0  0  0  0  0  0  0  0  0  0
   11.4399  -15.9453   22.7485 O   0  0  0  0  0  0  0  0  0  0  0  0
   12.8539  -18.7546   18.9013 O   0  0  0  0  0  0  0  0  0  0  0  0
    6.1490  -11.1700   27.8305 O   0  0  0  0  0  0  0  0  0  0  0  0
    6.5008  -11.9686   26.7648 C   0  0  0  0  0  0  0  0  0  0  0  0
    7.4003  -11.5067   25.8493 C   0  0  0  0  0  0  0  0  0  0  0  0
    7.7725  -12.2978   24.7608 C   0  0  0  0  0  0  0  0  0  0  0  0
    7.2534  -13.5547   24.5731 C   0  0  0  0  0  0  0  0  0  0  0  0
    7.6388  -14.3875   23.4215 C   0  0  0  0  0  0  0  0  0  0  0  0
    8.9253  -15.1245   23.5576 C   0  0  2  0  0  0  0  0  0  0  0  0
    9.1938  -15.9678   22.3997 N   0  0  0  0  0  0  0  0  0  0  0  0
    8.8686  -16.0099   24.7737 C   0  0  0  0  0  0  0  0  0  0  0  0
    7.9537  -16.8677   24.8822 O   0  0  0  0  0  0  0  0  0  0  0  0
    6.3370  -13.9973   25.5262 C   0  0  0  0  0  0  0  0  0  0  0  0
    5.9602  -13.2307   26.6037 C   0  0  0  0  0  0  0  0  0  0  0  0
    9.8237  -15.9022   25.8057 N   0  0  0  0  0  0  0  0  0  0  0  0
   10.0379  -16.7780   26.9220 C   0  0  1  0  0  0  0  0  0  0  0  0
   10.7202  -18.0757   26.5217 C   0  0  0  0  0  0  0  0  0  0  0  0
   10.7640  -18.9736   27.7149 C   0  0  0  0  0  0  0  0  0  0  0  0
   11.3949  -20.2911   27.3491 C   0  0  0  0  0  0  0  0  0  0  0  0
   11.4088  -21.2022   28.5311 C   0  0  0  0  0  0  0  0  0  0  0  0
   12.0734  -22.4587   28.1925 N   0  0  0  0  0  0  0  0  0  0  0  0
   10.6584  -16.1256   28.0781 C   0  0  0  0  0  0  0  0  0  0  0  0
   10.8269  -16.8057   29.1216 O   0  0  0  0  0  0  0  0  0  0  0  0
   11.0741  -14.8031   28.0994 O   0  0  0  0  0  0  0  0  0  0  0  0
  2  1  1  6
  3  2  1  0
  4  3  1  0
  5  4  2  0
  6  2  1  0
  6  7  2  0
  8  4  1  0
  9 10  1  0
 10 11  2  0
 11 12  1  0
 13 12  2  0
 13 14  1  0
 15 14  1  6
 15 16  1  0
 16  6  1  0
 17 15  1  0
 17 18  2  0
 19 13  1  0
 20 10  1  0
 20 19  2  0
 21 17  1  0
 22 21  1  0
 22 28  1  0
 22 23  1  6
 24 23  1  0
 25 24  1  0
 26 25  1  0
 27 26  1  0
 28 29  2  0
 28 30  1  0
M  END
$$$$
