DYK.pdb
     RDKit          3D

 30 30  0  0  1  0  0  0  0  0999 V2000
    9.6069  -17.8478   20.8796 N   0  0  0  0  0  0  0  0  0  0  0  0
   10.8266  -17.2420   21.3686 C   0  0  1  0  0  0  0  0  0  0  0  0
   11.5227  -16.6083   20.1992 C   0  0  0  0  0  0  0  0  0  0  0  0
   11.7703  -17.6383   19.1798 C   0  0  0  0  0  0  0  0  0  0  0  0
   12.3858  -18.6792   19.4682 O   0  0  0  0  0  0  0  0  0  0  0  0
   10.5001  -16.2991   22.4381 C   0  0  0  0  0  0  0  0  0  0  0  0
   11.4235  -15.6067   22.9916 O   0  0  0  0  0  0  0  0  0  0  0  0
   11.3155  -17.4468   17.8943 O   0  0  0  0  0  0  0  0  0  0  0  0
    5.9580  -11.1761   28.1291 O   0  0  0  0  0  0  0  0  0  0  0  0
    6.3475  -12.0000   27.0963 C   0  0  0  0  0  0  0  0  0  0  0  0
    7.2749  -11.5575   26.1991 C   0  0  0  0  0  0  0  0  0  0  0  0
    7.6855  -12.3744   25.1440 C   0  0  0  0  0  0  0  0  0  0  0  0
    7.1774  -13.6380   24.9717 C   0  0  0  0  0  0  0  0  0  0  0  0
    7.6034  -14.4982   23.8550 C   0  0  0  0  0  0  0  0  0  0  0  0
    8.8957  -15.2126   24.0451 C   0  0  2  0  0  0  0  0  0  0  0  0
    9.2032  -16.0883   22.9214 N   0  0  0  0  0  0  0  0  0  0  0  0
    8.8211  -16.0600   25.2871 C   0  0  0  0  0  0  0  0  0  0  0  0
    8.6224  -15.5169   26.4052 O   0  0  0  0  0  0  0  0  0  0  0  0
    6.2318  -14.0604   25.9054 C   0  0  0  0  0  0  0  0  0  0  0  0
    5.8171  -13.2682   26.9500 C   0  0  0  0  0  0  0  0  0  0  0  0
    8.9699  -17.4612   25.2302 N   0  0  0  0  0  0  0  0  0  0  0  0
    9.0415  -18.3985   26.3144 C   0  0  1  0  0  0  0  0  0  0  0  0
    8.5943  -19.7933   25.9091 C   0  0  0  0  0  0  0  0  0  0  0  0
    7.2293  -19.6958   25.3097 C   0  0  0  0  0  0  0  0  0  0  0  0
    6.7746  -21.0501   24.8336 C   0  0  0  0  0  0  0  0  0  0  0  0
    5.4403  -20.9436   24.1736 C   0  0  0  0  0  0  0  0  0  0  0  0
    4.9893  -22.2609   23.7305 N   0  0  0  0  0  0  0  0  0  0  0  0
   10.3196  -18.3811   27.0310 C   0  0  0  0  0  0  0  0  0  0  0  0
   10.3773  -18.9469   28.1518 O   0  0  0  0  0  0  0  0  0  0  0  0
   11.4746  -17.7804   26.5545 O   0  0  0  0  0  0  0  0  0  0  0  0
  2  1  1  6
  3  2  1  0
  4  3  1  0
  5  4  2  0
  6  2  1  0
  6  7  2  0
  8  4  1  0
  9 10  1  0
 10 11  2  0
 11 12  1  0
 13 12  2  0
 13 14  1  0
 15 14  1  6
 15 16  1  0
 16  6  1  0
 17 15  1  0
 17 18  2  0
 19 13  1  0
 20 10  1  0
 20 19  2  0
 21 17  1  0
 22 21  1  0
 22 28  1  0
 22 23  1  6
 24 23  1  0
 25 24  1  0
 26 25  1  0
 27 26  1  0
 28 29  2  0
 28 30  1  0
M  END
$$$$
