DYK.pdb
     RDKit          3D

 30 30  0  0  1  0  0  0  0  0999 V2000
   10.4120  -16.9016   18.8215 N   0  0  0  0  0  0  0  0  0  0  0  0
    9.2846  -17.2089   19.6751 C   0  0  1  0  0  0  0  0  0  0  0  0
    9.2780  -18.6920   19.9071 C   0  0  0  0  0  0  0  0  0  0  0  0
    8.8263  -19.3620   18.6789 C   0  0  0  0  0  0  0  0  0  0  0  0
    8.3150  -18.7087   17.7530 O   0  0  0  0  0  0  0  0  0  0  0  0
    9.3843  -16.4232   20.9049 C   0  0  0  0  0  0  0  0  0  0  0  0
   10.5259  -16.2107   21.4436 O   0  0  0  0  0  0  0  0  0  0  0  0
    8.9716  -20.7256   18.5546 O   0  0  0  0  0  0  0  0  0  0  0  0
    7.0552  -11.5156   27.9845 O   0  0  0  0  0  0  0  0  0  0  0  0
    7.0955  -12.1719   26.7741 C   0  0  0  0  0  0  0  0  0  0  0  0
    6.3540  -13.3036   26.6003 C   0  0  0  0  0  0  0  0  0  0  0  0
    6.3785  -13.9861   25.3826 C   0  0  0  0  0  0  0  0  0  0  0  0
    7.1405  -13.5495   24.3275 C   0  0  0  0  0  0  0  0  0  0  0  0
    7.1736  -14.2723   23.0450 C   0  0  0  0  0  0  0  0  0  0  0  0
    8.3870  -15.0992   22.7994 C   0  0  2  0  0  0  0  0  0  0  0  0
    8.2825  -15.8642   21.5633 N   0  0  0  0  0  0  0  0  0  0  0  0
    8.5675  -16.0723   23.9337 C   0  0  0  0  0  0  0  0  0  0  0  0
    7.6390  -16.8693   24.2294 O   0  0  0  0  0  0  0  0  0  0  0  0
    7.8864  -12.3902   24.5373 C   0  0  0  0  0  0  0  0  0  0  0  0
    7.8730  -11.7065   25.7302 C   0  0  0  0  0  0  0  0  0  0  0  0
    9.7622  -16.1147   24.6819 N   0  0  0  0  0  0  0  0  0  0  0  0
   10.1025  -16.9776   25.7768 C   0  0  1  0  0  0  0  0  0  0  0  0
   11.5272  -17.4987   25.6866 C   0  0  0  0  0  0  0  0  0  0  0  0
   11.5596  -18.6150   24.6942 C   0  0  0  0  0  0  0  0  0  0  0  0
   12.9525  -19.1782   24.5931 C   0  0  0  0  0  0  0  0  0  0  0  0
   12.9620  -20.3732   23.6992 C   0  0  0  0  0  0  0  0  0  0  0  0
   14.3092  -20.9335   23.6192 N   0  0  0  0  0  0  0  0  0  0  0  0
    9.7646  -16.4284   27.0927 C   0  0  0  0  0  0  0  0  0  0  0  0
    9.3338  -17.2180   27.9706 O   0  0  0  0  0  0  0  0  0  0  0  0
    9.8885  -15.0911   27.4368 O   0  0  0  0  0  0  0  0  0  0  0  0
  2  1  1  6
  3  2  1  0
  4  3  1  0
  5  4  2  0
  6  2  1  0
  6  7  2  0
  8  4  1  0
  9 10  1  0
 10 11  2  0
 11 12  1  0
 13 12  2  0
 13 14  1  0
 15 14  1  1
 15 16  1  0
 16  6  1  0
 17 15  1  0
 17 18  2  0
 19 13  1  0
 20 10  1  0
 20 19  2  0
 21 17  1  0
 22 21  1  0
 22 28  1  0
 22 23  1  1
 24 23  1  0
 25 24  1  0
 26 25  1  0
 27 26  1  0
 28 29  2  0
 28 30  1  0
M  END
$$$$
