DYK.pdb
     RDKit          3D

 30 30  0  0  1  0  0  0  0  0999 V2000
    9.7507  -17.1940   18.1490 N   0  0  0  0  0  0  0  0  0  0  0  0
   10.7191  -17.7660   19.0595 C   0  0  1  0  0  0  0  0  0  0  0  0
   12.0499  -17.7749   18.3648 C   0  0  0  0  0  0  0  0  0  0  0  0
   11.8832  -18.3651   17.0286 C   0  0  0  0  0  0  0  0  0  0  0  0
   10.9994  -19.2134   16.8172 O   0  0  0  0  0  0  0  0  0  0  0  0
   10.7142  -17.0038   20.3079 C   0  0  0  0  0  0  0  0  0  0  0  0
   11.6881  -16.2225   20.5903 O   0  0  0  0  0  0  0  0  0  0  0  0
   12.7145  -17.9736   16.0031 O   0  0  0  0  0  0  0  0  0  0  0  0
    7.7676  -11.7852   18.2705 O   0  0  0  0  0  0  0  0  0  0  0  0
    7.9596  -12.6572   19.3193 C   0  0  0  0  0  0  0  0  0  0  0  0
    7.0094  -13.5970   19.5922 C   0  0  0  0  0  0  0  0  0  0  0  0
    7.1816  -14.4918   20.6500 C   0  0  0  0  0  0  0  0  0  0  0  0
    8.2999  -14.4596   21.4456 C   0  0  0  0  0  0  0  0  0  0  0  0
    8.4798  -15.3974   22.5666 C   0  0  0  0  0  0  0  0  0  0  0  0
    9.6733  -16.2836   22.4838 C   0  0  2  0  0  0  0  0  0  0  0  0
    9.6848  -17.0665   21.2546 N   0  0  0  0  0  0  0  0  0  0  0  0
    9.6666  -17.2419   23.6446 C   0  0  0  0  0  0  0  0  0  0  0  0
    8.6740  -17.9935   23.8311 O   0  0  0  0  0  0  0  0  0  0  0  0
    9.2520  -13.4876   21.1406 C   0  0  0  0  0  0  0  0  0  0  0  0
    9.0974  -12.5994   20.1024 C   0  0  0  0  0  0  0  0  0  0  0  0
   10.7546  -17.3206   24.5384 N   0  0  0  0  0  0  0  0  0  0  0  0
   10.8748  -18.1022   25.7358 C   0  0  1  0  0  0  0  0  0  0  0  0
   12.3188  -18.2721   26.1780 C   0  0  0  0  0  0  0  0  0  0  0  0
   12.3423  -19.1512   27.3858 C   0  0  0  0  0  0  0  0  0  0  0  0
   13.7281  -19.1866   27.9740 C   0  0  0  0  0  0  0  0  0  0  0  0
   13.7577  -20.0775   29.1710 C   0  0  0  0  0  0  0  0  0  0  0  0
   15.1098  -20.1393   29.7213 N   0  0  0  0  0  0  0  0  0  0  0  0
    9.9807  -17.6755   26.8155 C   0  0  0  0  0  0  0  0  0  0  0  0
    9.4268  -18.5639   27.5111 O   0  0  0  0  0  0  0  0  0  0  0  0
    9.7028  -16.3526   27.1235 O   0  0  0  0  0  0  0  0  0  0  0  0
  2  1  1  6
  3  2  1  0
  4  3  1  0
  5  4  2  0
  6  2  1  0
  6  7  2  0
  8  4  1  0
  9 10  1  0
 10 11  2  0
 11 12  1  0
 13 12  2  0
 13 14  1  0
 15 14  1  6
 15 16  1  0
 16  6  1  0
 17 15  1  0
 17 18  2  0
 19 13  1  0
 20 10  1  0
 20 19  2  0
 21 17  1  0
 22 21  1  0
 22 28  1  0
 22 23  1  1
 24 23  1  0
 25 24  1  0
 26 25  1  0
 27 26  1  0
 28 29  2  0
 28 30  1  0
M  END
$$$$
