DYK.pdb
     RDKit          3D

 30 30  0  0  1  0  0  0  0  0999 V2000
   10.0784  -16.7601   18.6854 N   0  0  0  0  0  0  0  0  0  0  0  0
    9.1306  -17.2468   19.6647 C   0  0  1  0  0  0  0  0  0  0  0  0
    9.3749  -18.7169   19.8456 C   0  0  0  0  0  0  0  0  0  0  0  0
    8.7602  -19.4412   18.7236 C   0  0  0  0  0  0  0  0  0  0  0  0
    7.7515  -18.9889   18.1548 O   0  0  0  0  0  0  0  0  0  0  0  0
    9.2725  -16.4725   20.8975 C   0  0  0  0  0  0  0  0  0  0  0  0
   10.4293  -16.2878   21.4136 O   0  0  0  0  0  0  0  0  0  0  0  0
    9.3080  -20.6314   18.3000 O   0  0  0  0  0  0  0  0  0  0  0  0
    7.1772  -11.5146   28.0264 O   0  0  0  0  0  0  0  0  0  0  0  0
    7.1565  -12.2108   26.8380 C   0  0  0  0  0  0  0  0  0  0  0  0
    7.8656  -11.7392   25.7724 C   0  0  0  0  0  0  0  0  0  0  0  0
    7.8600  -12.4274   24.5577 C   0  0  0  0  0  0  0  0  0  0  0  0
    7.1491  -13.5900   24.3919 C   0  0  0  0  0  0  0  0  0  0  0  0
    7.1357  -14.3131   23.1092 C   0  0  0  0  0  0  0  0  0  0  0  0
    8.3445  -15.1308   22.8146 C   0  0  2  0  0  0  0  0  0  0  0  0
    8.1967  -15.8955   21.5829 N   0  0  0  0  0  0  0  0  0  0  0  0
    8.5773  -16.1034   23.9398 C   0  0  0  0  0  0  0  0  0  0  0  0
    7.7495  -17.0282   24.1501 O   0  0  0  0  0  0  0  0  0  0  0  0
    6.4352  -14.0454   25.4998 C   0  0  0  0  0  0  0  0  0  0  0  0
    6.4306  -13.3795   26.7028 C   0  0  0  0  0  0  0  0  0  0  0  0
    9.7104  -16.0044   24.7736 N   0  0  0  0  0  0  0  0  0  0  0  0
   10.0629  -16.8142   25.9046 C   0  0  1  0  0  0  0  0  0  0  0  0
   11.4007  -17.5130   25.7262 C   0  0  0  0  0  0  0  0  0  0  0  0
   11.3342  -18.3517   24.4916 C   0  0  0  0  0  0  0  0  0  0  0  0
   12.6765  -18.9762   24.2166 C   0  0  0  0  0  0  0  0  0  0  0  0
   12.6002  -19.8532   23.0114 C   0  0  0  0  0  0  0  0  0  0  0  0
   13.9181  -20.4037   22.7030 N   0  0  0  0  0  0  0  0  0  0  0  0
    9.9316  -16.1259   27.1916 C   0  0  0  0  0  0  0  0  0  0  0  0
    9.9792  -14.8700   27.1986 O   0  0  0  0  0  0  0  0  0  0  0  0
    9.7578  -16.7689   28.4076 O   0  0  0  0  0  0  0  0  0  0  0  0
  2  1  1  6
  3  2  1  0
  4  3  1  0
  5  4  2  0
  6  2  1  0
  6  7  2  0
  8  4  1  0
  9 10  1  0
 10 11  2  0
 11 12  1  0
 13 12  2  0
 13 14  1  0
 15 14  1  1
 15 16  1  0
 16  6  1  0
 17 15  1  0
 17 18  2  0
 19 13  1  0
 20 10  1  0
 20 19  2  0
 21 17  1  0
 22 21  1  0
 22 28  1  0
 22 23  1  6
 24 23  1  0
 25 24  1  0
 26 25  1  0
 27 26  1  0
 28 29  2  0
 28 30  1  0
M  END
$$$$
