DYK.pdb
     RDKit          3D

 30 30  0  0  1  0  0  0  0  0999 V2000
    7.4265  -16.7784   21.1453 N   0  0  0  0  0  0  0  0  0  0  0  0
    8.7466  -16.1986   21.2678 C   0  0  1  0  0  0  0  0  0  0  0  0
    8.7559  -14.9148   20.4898 C   0  0  0  0  0  0  0  0  0  0  0  0
    8.6729  -15.2288   19.0559 C   0  0  0  0  0  0  0  0  0  0  0  0
    8.5635  -16.4058   18.6710 O   0  0  0  0  0  0  0  0  0  0  0  0
    9.0675  -16.0282   22.6847 C   0  0  0  0  0  0  0  0  0  0  0  0
   10.1953  -15.5347   23.0357 O   0  0  0  0  0  0  0  0  0  0  0  0
    8.7169  -14.2087   18.1321 O   0  0  0  0  0  0  0  0  0  0  0  0
    6.7825  -10.1101   26.1560 O   0  0  0  0  0  0  0  0  0  0  0  0
    6.9084  -11.4803   26.0933 C   0  0  0  0  0  0  0  0  0  0  0  0
    8.0051  -12.0784   26.6412 C   0  0  0  0  0  0  0  0  0  0  0  0
    8.1549  -13.4655   26.5901 C   0  0  0  0  0  0  0  0  0  0  0  0
    7.2157  -14.2698   25.9937 C   0  0  0  0  0  0  0  0  0  0  0  0
    7.3756  -15.7323   25.9320 C   0  0  0  0  0  0  0  0  0  0  0  0
    8.5347  -16.2236   25.1371 C   0  0  2  0  0  0  0  0  0  0  0  0
    8.2007  -16.3777   23.7270 N   0  0  0  0  0  0  0  0  0  0  0  0
    8.9676  -17.5667   25.6612 C   0  0  0  0  0  0  0  0  0  0  0  0
    8.1751  -18.5436   25.6124 O   0  0  0  0  0  0  0  0  0  0  0  0
    6.1069  -13.6278   25.4435 C   0  0  0  0  0  0  0  0  0  0  0  0
    5.9446  -12.2631   25.4856 C   0  0  0  0  0  0  0  0  0  0  0  0
   10.2515  -17.7614   26.2114 N   0  0  0  0  0  0  0  0  0  0  0  0
   10.8301  -18.9684   26.7285 C   0  0  1  0  0  0  0  0  0  0  0  0
   12.2300  -19.2192   26.1928 C   0  0  0  0  0  0  0  0  0  0  0  0
   13.1239  -19.5481   27.3438 C   0  0  0  0  0  0  0  0  0  0  0  0
   14.5410  -19.7239   26.8656 C   0  0  0  0  0  0  0  0  0  0  0  0
   15.4077  -20.1984   27.9840 C   0  0  0  0  0  0  0  0  0  0  0  0
   16.7715  -20.4186   27.5078 N   0  0  0  0  0  0  0  0  0  0  0  0
   10.7311  -19.0979   28.1847 C   0  0  0  0  0  0  0  0  0  0  0  0
   10.8465  -18.0576   28.8805 O   0  0  0  0  0  0  0  0  0  0  0  0
   10.5179  -20.2953   28.8502 O   0  0  0  0  0  0  0  0  0  0  0  0
  2  1  1  1
  3  2  1  0
  4  3  1  0
  5  4  2  0
  6  2  1  0
  6  7  2  0
  8  4  1  0
  9 10  1  0
 10 11  2  0
 11 12  1  0
 13 12  2  0
 13 14  1  0
 15 14  1  1
 15 16  1  0
 16  6  1  0
 17 15  1  0
 17 18  2  0
 19 13  1  0
 20 10  1  0
 20 19  2  0
 21 17  1  0
 22 21  1  0
 22 28  1  0
 22 23  1  1
 24 23  1  0
 25 24  1  0
 26 25  1  0
 27 26  1  0
 28 29  2  0
 28 30  1  0
M  END
$$$$
