DYK.pdb
     RDKit          3D

 30 30  0  0  1  0  0  0  0  0999 V2000
    9.3099  -18.5242   20.0078 N   0  0  0  0  0  0  0  0  0  0  0  0
   10.5905  -17.8828   20.2141 C   0  0  1  0  0  0  0  0  0  0  0  0
   10.9672  -17.1926   18.9353 C   0  0  0  0  0  0  0  0  0  0  0  0
   11.5266  -18.1862   18.0072 C   0  0  0  0  0  0  0  0  0  0  0  0
   11.4179  -19.4024   18.2411 O   0  0  0  0  0  0  0  0  0  0  0  0
   10.4975  -16.9810   21.3620 C   0  0  0  0  0  0  0  0  0  0  0  0
   11.5110  -16.2858   21.7197 O   0  0  0  0  0  0  0  0  0  0  0  0
   12.1765  -17.7643   16.8690 O   0  0  0  0  0  0  0  0  0  0  0  0
    7.2500  -12.2694   18.3686 O   0  0  0  0  0  0  0  0  0  0  0  0
    7.4284  -12.9609   19.5464 C   0  0  0  0  0  0  0  0  0  0  0  0
    8.3254  -12.5001   20.4649 C   0  0  0  0  0  0  0  0  0  0  0  0
    8.5236  -13.1838   21.6659 C   0  0  0  0  0  0  0  0  0  0  0  0
    7.8319  -14.3316   21.9638 C   0  0  0  0  0  0  0  0  0  0  0  0
    8.0452  -15.0584   23.2266 C   0  0  0  0  0  0  0  0  0  0  0  0
    9.2563  -15.9227   23.2792 C   0  0  2  0  0  0  0  0  0  0  0  0
    9.3385  -16.8141   22.1293 N   0  0  0  0  0  0  0  0  0  0  0  0
    9.2121  -16.7710   24.5220 C   0  0  0  0  0  0  0  0  0  0  0  0
    8.1473  -17.3627   24.8394 O   0  0  0  0  0  0  0  0  0  0  0  0
    6.9228  -14.7761   21.0045 C   0  0  0  0  0  0  0  0  0  0  0  0
    6.7160  -14.1143   19.8171 C   0  0  0  0  0  0  0  0  0  0  0  0
   10.3445  -16.9217   25.3491 N   0  0  0  0  0  0  0  0  0  0  0  0
   10.4765  -17.6880   26.5550 C   0  0  1  0  0  0  0  0  0  0  0  0
   11.4621  -18.8358   26.4108 C   0  0  0  0  0  0  0  0  0  0  0  0
   11.0343  -19.6832   25.2571 C   0  0  0  0  0  0  0  0  0  0  0  0
   12.0279  -20.7922   25.0322 C   0  0  0  0  0  0  0  0  0  0  0  0
   11.3751  -22.1187   25.2357 C   0  0  0  0  0  0  0  0  0  0  0  0
   12.2832  -23.1941   24.8433 N   0  0  0  0  0  0  0  0  0  0  0  0
   10.6995  -16.8751   27.7537 C   0  0  0  0  0  0  0  0  0  0  0  0
   11.1719  -15.7199   27.6057 O   0  0  0  0  0  0  0  0  0  0  0  0
   10.4235  -17.2956   29.0457 O   0  0  0  0  0  0  0  0  0  0  0  0
  2  1  1  6
  3  2  1  0
  4  3  1  0
  5  4  2  0
  6  2  1  0
  6  7  2  0
  8  4  1  0
  9 10  1  0
 10 11  2  0
 11 12  1  0
 13 12  2  0
 13 14  1  0
 15 14  1  6
 15 16  1  0
 16  6  1  0
 17 15  1  0
 17 18  2  0
 19 13  1  0
 20 10  1  0
 20 19  2  0
 21 17  1  0
 22 21  1  0
 22 28  1  0
 22 23  1  6
 24 23  1  0
 25 24  1  0
 26 25  1  0
 27 26  1  0
 28 29  2  0
 28 30  1  0
M  END
$$$$
