RKV.pdb
     RDKit          3D

 28 27  0  0  1  0  0  0  0  0999 V2000
   27.9519  -16.3906  -18.0773 N   0  0  0  0  0  0  0  0  0  0  0  0
   29.1293  -17.0171  -18.5367 C   0  0  0  0  0  0  0  0  0  0  0  0
   30.1125  -16.3520  -19.0678 N   0  0  0  0  0  0  0  0  0  0  0  0
   29.3180  -18.4419  -18.4483 N   0  0  0  0  0  0  0  0  0  0  0  0
   28.5056  -19.3280  -17.7075 C   0  0  0  0  0  0  0  0  0  0  0  0
   27.0684  -19.0308  -17.5382 C   0  0  0  0  0  0  0  0  0  0  0  0
   26.2984  -20.0401  -16.7616 C   0  0  0  0  0  0  0  0  0  0  0  0
   27.1241  -20.6592  -15.6786 C   0  0  2  0  0  0  0  0  0  0  0  0
   27.6258  -21.9313  -16.2035 N   0  0  0  0  0  0  0  0  0  0  0  0
   26.1471  -20.9718  -14.5561 C   0  0  0  0  0  0  0  0  0  0  0  0
   25.2624  -21.8499  -14.6863 O   0  0  0  0  0  0  0  0  0  0  0  0
   30.9470  -16.9038  -19.3798 N   0  0  0  0  0  0  0  0  0  0  0  0
   26.2247  -20.2675  -13.3325 C   0  0  2  0  0  0  0  0  0  0  0  0
   25.2135  -20.5456  -12.2871 C   0  0  0  0  0  0  0  0  0  0  0  0
   25.6248  -19.8183  -11.0264 C   0  0  0  0  0  0  0  0  0  0  0  0
   24.5731  -19.8744   -9.9862 C   0  0  0  0  0  0  0  0  0  0  0  0
   24.6750  -21.1141   -9.1135 C   0  0  0  0  0  0  0  0  0  0  0  0
   23.5872  -21.1605   -8.0767 N   0  0  0  0  0  0  0  0  0  0  0  0
   23.7887  -22.3546   -7.2759 C   0  0  0  0  0  0  0  0  0  0  0  0
   23.9339  -20.0966  -12.8573 O   0  0  0  0  0  0  0  0  0  0  0  0
   23.7819  -18.9309  -13.2758 C   0  0  0  0  0  0  0  0  0  0  0  0
   21.9497  -20.6124  -15.8044 C   0  0  2  0  0  0  0  0  0  0  0  0
   20.9994  -20.9299  -14.6725 C   0  0  0  0  0  0  0  0  0  0  0  0
   20.9081  -22.4410  -14.5977 C   0  0  2  0  0  0  0  0  0  0  0  0
   21.5292  -20.4374  -13.3793 N   0  0  0  0  0  0  0  0  0  0  0  0
   22.7969  -20.9416  -12.9721 C   0  0  0  0  0  0  0  0  0  0  0  0
   20.5491  -20.7733  -12.3037 O   0  0  0  0  0  0  0  0  0  0  0  0
   19.2649  -20.2524  -12.2524 O   0  0  0  0  0  0  0  0  0  0  0  0
  2  1  1  0
  3  2  2  0
  4  2  1  0
  5  4  1  0
  6  7  1  0
  6  5  1  0
  7  8  1  0
  8  9  1  6
 10  8  1  0
 10 11  2  0
 12 10  1  0
 13 12  1  0
 13 14  1  6
 15 14  1  0
 16 15  1  0
 17 16  1  0
 18 17  1  0
 19 13  1  0
 20 19  2  0
 22 23  1  6
 22 21  1  0
 24 22  1  0
 24 25  1  1
 25 19  1  0
 26 27  1  0
 26 24  1  0
 28 26  2  0
M  END
$$$$
