RKV.pdb
     RDKit          3D

 28 27  0  0  1  0  0  0  0  0999 V2000
   17.2246  -24.4795  -10.4313 N   0  0  0  0  0  0  0  0  0  0  0  0
   17.2668  -24.5786  -11.8377 C   0  0  0  0  0  0  0  0  0  0  0  0
   16.2167  -24.8648  -12.5494 N   0  0  0  0  0  0  0  0  0  0  0  0
   18.4831  -24.3697  -12.5797 N   0  0  0  0  0  0  0  0  0  0  0  0
   19.7222  -23.9841  -12.0230 C   0  0  0  0  0  0  0  0  0  0  0  0
   19.9172  -22.5907  -11.5725 C   0  0  0  0  0  0  0  0  0  0  0  0
   21.0609  -21.8745  -12.2000 C   0  0  0  0  0  0  0  0  0  0  0  0
   22.1761  -21.6459  -11.2294 C   0  0  2  0  0  0  0  0  0  0  0  0
   21.6404  -20.7992  -10.1610 N   0  0  0  0  0  0  0  0  0  0  0  0
   23.2126  -20.8346  -11.9907 C   0  0  0  0  0  0  0  0  0  0  0  0
   23.0694  -19.6036  -12.1778 O   0  0  0  0  0  0  0  0  0  0  0  0
   16.3634  -25.0124  -13.5765 N   0  0  0  0  0  0  0  0  0  0  0  0
   24.3689  -21.4657  -12.5043 C   0  0  2  0  0  0  0  0  0  0  0  0
   25.3638  -20.6439  -13.2308 C   0  0  0  0  0  0  0  0  0  0  0  0
   26.7061  -21.3343  -13.1369 C   0  0  0  0  0  0  0  0  0  0  0  0
   27.4926  -20.8610  -11.9756 C   0  0  0  0  0  0  0  0  0  0  0  0
   28.8968  -21.4407  -11.9413 C   0  0  0  0  0  0  0  0  0  0  0  0
   29.6704  -20.9648  -10.7431 N   0  0  0  0  0  0  0  0  0  0  0  0
   30.9569  -21.6374  -10.7502 C   0  0  0  0  0  0  0  0  0  0  0  0
   24.8385  -20.5207  -14.5993 O   0  0  0  0  0  0  0  0  0  0  0  0
   24.2974  -21.4851  -15.1773 C   0  0  0  0  0  0  0  0  0  0  0  0
   23.7999  -16.7996  -16.4854 C   0  0  2  0  0  0  0  0  0  0  0  0
   23.2670  -18.1762  -16.8115 C   0  0  0  0  0  0  0  0  0  0  0  0
   22.8675  -18.1482  -18.2734 C   0  0  1  0  0  0  0  0  0  0  0  0
   24.3179  -19.2070  -16.6424 N   0  0  0  0  0  0  0  0  0  0  0  0
   24.9068  -19.3163  -15.3508 C   0  0  0  0  0  0  0  0  0  0  0  0
   25.4187  -18.9289  -17.6126 O   0  0  0  0  0  0  0  0  0  0  0  0
   25.2794  -19.0697  -18.9852 O   0  0  0  0  0  0  0  0  0  0  0  0
  2  1  1  0
  3  2  2  0
  4  2  1  0
  5  4  1  0
  6  7  1  0
  6  5  1  0
  7  8  1  0
  8  9  1  1
 10  8  1  0
 10 11  2  0
 12 10  1  0
 13 12  1  0
 13 14  1  1
 15 14  1  0
 16 15  1  0
 17 16  1  0
 18 17  1  0
 19 13  1  0
 20 19  2  0
 22 23  1  6
 22 21  1  0
 24 22  1  0
 24 25  1  1
 25 19  1  0
 26 27  1  0
 26 24  1  0
 28 26  2  0
M  END
$$$$
