RKV.pdb
     RDKit          3D

 28 27  0  0  1  0  0  0  0  0999 V2000
   20.4307  -23.6496   -8.1736 N   0  0  0  0  0  0  0  0  0  0  0  0
   19.3498  -23.0120   -8.8176 C   0  0  0  0  0  0  0  0  0  0  0  0
   18.1102  -23.3107   -8.5620 N   0  0  0  0  0  0  0  0  0  0  0  0
   19.5511  -21.9848   -9.8065 N   0  0  0  0  0  0  0  0  0  0  0  0
   20.7992  -21.4287  -10.1626 C   0  0  0  0  0  0  0  0  0  0  0  0
   21.6007  -20.7224   -9.1422 C   0  0  0  0  0  0  0  0  0  0  0  0
   22.7822  -19.9825   -9.6629 C   0  0  0  0  0  0  0  0  0  0  0  0
   23.8874  -20.9077  -10.0639 C   0  0  2  0  0  0  0  0  0  0  0  0
   24.9997  -20.6625   -9.1429 N   0  0  0  0  0  0  0  0  0  0  0  0
   24.3179  -20.4451  -11.4470 C   0  0  0  0  0  0  0  0  0  0  0  0
   24.7837  -19.2970  -11.6359 O   0  0  0  0  0  0  0  0  0  0  0  0
   17.3767  -22.8310   -9.1366 N   0  0  0  0  0  0  0  0  0  0  0  0
   24.1983  -21.3160  -12.5544 C   0  0  2  0  0  0  0  0  0  0  0  0
   24.6782  -20.8539  -13.8770 C   0  0  0  0  0  0  0  0  0  0  0  0
   25.8258  -21.7432  -14.3004 C   0  0  0  0  0  0  0  0  0  0  0  0
   26.3411  -21.3825  -15.6404 C   0  0  0  0  0  0  0  0  0  0  0  0
   27.3739  -22.3694  -16.1582 C   0  0  0  0  0  0  0  0  0  0  0  0
   27.9432  -21.9417  -17.4824 N   0  0  0  0  0  0  0  0  0  0  0  0
   28.8817  -22.9626  -17.9121 C   0  0  0  0  0  0  0  0  0  0  0  0
   23.5026  -20.9180  -14.7590 O   0  0  0  0  0  0  0  0  0  0  0  0
   22.6291  -21.7974  -14.6153 C   0  0  0  0  0  0  0  0  0  0  0  0
   20.6486  -18.5550  -15.3764 C   0  0  2  0  0  0  0  0  0  0  0  0
   21.2715  -18.8651  -16.7185 C   0  0  0  0  0  0  0  0  0  0  0  0
   22.1635  -17.6887  -17.0616 C   0  0  2  0  0  0  0  0  0  0  0  0
   22.1195  -20.0779  -16.6438 N   0  0  0  0  0  0  0  0  0  0  0  0
   23.2785  -20.0000  -15.8206 C   0  0  0  0  0  0  0  0  0  0  0  0
   22.5743  -20.4271  -18.0227 O   0  0  0  0  0  0  0  0  0  0  0  0
   21.7114  -20.8264  -19.0323 O   0  0  0  0  0  0  0  0  0  0  0  0
  2  1  1  0
  3  2  2  0
  4  2  1  0
  5  4  1  0
  6  7  1  0
  6  5  1  0
  7  8  1  0
  8  9  1  1
 10  8  1  0
 10 11  2  0
 12 10  1  0
 13 12  1  0
 13 14  1  1
 15 14  1  0
 16 15  1  0
 17 16  1  0
 18 17  1  0
 19 13  1  0
 20 19  2  0
 22 23  1  1
 22 21  1  0
 24 22  1  0
 24 25  1  6
 25 19  1  0
 26 27  1  0
 26 24  1  0
 28 26  2  0
M  END
$$$$
