RKV.pdb
     RDKit          3D

 28 27  0  0  1  0  0  0  0  0999 V2000
   27.8858  -20.4591  -17.0130 N   0  0  0  0  0  0  0  0  0  0  0  0
   28.8680  -20.1610  -17.9805 C   0  0  0  0  0  0  0  0  0  0  0  0
   29.6983  -21.0548  -18.4310 N   0  0  0  0  0  0  0  0  0  0  0  0
   29.0162  -18.8396  -18.5331 N   0  0  0  0  0  0  0  0  0  0  0  0
   28.0997  -17.7783  -18.3668 C   0  0  0  0  0  0  0  0  0  0  0  0
   27.0065  -17.5989  -19.3441 C   0  0  0  0  0  0  0  0  0  0  0  0
   25.7272  -18.2755  -18.9972 C   0  0  0  0  0  0  0  0  0  0  0  0
   25.0430  -17.6161  -17.8417 C   0  0  2  0  0  0  0  0  0  0  0  0
   26.0956  -17.0661  -16.9844 N   0  0  0  0  0  0  0  0  0  0  0  0
   24.3634  -18.7429  -17.0797 C   0  0  0  0  0  0  0  0  0  0  0  0
   23.5428  -19.5074  -17.6392 O   0  0  0  0  0  0  0  0  0  0  0  0
   30.4687  -20.7169  -19.0559 N   0  0  0  0  0  0  0  0  0  0  0  0
   24.6524  -18.9476  -15.7109 C   0  0  2  0  0  0  0  0  0  0  0  0
   23.9869  -20.0654  -15.0035 C   0  0  0  0  0  0  0  0  0  0  0  0
   24.8399  -20.4468  -13.8143 C   0  0  0  0  0  0  0  0  0  0  0  0
   24.3493  -21.6763  -13.1519 C   0  0  0  0  0  0  0  0  0  0  0  0
   24.4880  -22.9108  -14.0270 C   0  0  0  0  0  0  0  0  0  0  0  0
   23.9332  -24.1374  -13.3577 N   0  0  0  0  0  0  0  0  0  0  0  0
   23.9381  -25.2143  -14.3313 C   0  0  0  0  0  0  0  0  0  0  0  0
   22.6496  -19.5612  -14.6550 O   0  0  0  0  0  0  0  0  0  0  0  0
   22.5021  -18.5565  -13.9298 C   0  0  0  0  0  0  0  0  0  0  0  0
   19.9421  -18.1084  -16.6093 C   0  0  2  0  0  0  0  0  0  0  0  0
   19.2791  -19.2036  -15.8055 C   0  0  0  0  0  0  0  0  0  0  0  0
   19.0433  -20.3566  -16.7607 C   0  0  2  0  0  0  0  0  0  0  0  0
   20.1691  -19.6805  -14.7211 N   0  0  0  0  0  0  0  0  0  0  0  0
   21.4484  -20.1695  -15.1101 C   0  0  0  0  0  0  0  0  0  0  0  0
   19.4764  -20.7797  -13.9847 O   0  0  0  0  0  0  0  0  0  0  0  0
   18.3156  -20.5919  -13.2495 O   0  0  0  0  0  0  0  0  0  0  0  0
  2  1  1  0
  3  2  2  0
  4  2  1  0
  5  4  1  0
  6  7  1  0
  6  5  1  0
  7  8  1  0
  8  9  1  1
 10  8  1  0
 10 11  2  0
 12 10  1  0
 13 12  1  0
 13 14  1  6
 15 14  1  0
 16 15  1  0
 17 16  1  0
 18 17  1  0
 19 13  1  0
 20 19  2  0
 22 23  1  6
 22 21  1  0
 24 22  1  0
 24 25  1  1
 25 19  1  0
 26 27  1  0
 26 24  1  0
 28 26  2  0
M  END
$$$$
