RKV.pdb
     RDKit          3D

 28 27  0  0  1  0  0  0  0  0999 V2000
   17.7526  -13.8573  -16.9237 N   0  0  0  0  0  0  0  0  0  0  0  0
   18.8129  -13.1761  -16.2900 C   0  0  0  0  0  0  0  0  0  0  0  0
   18.6142  -12.2287  -15.4216 N   0  0  0  0  0  0  0  0  0  0  0  0
   20.1913  -13.4869  -16.5672 N   0  0  0  0  0  0  0  0  0  0  0  0
   20.6532  -14.6732  -17.1784 C   0  0  0  0  0  0  0  0  0  0  0  0
   19.6780  -15.6427  -17.7183 C   0  0  0  0  0  0  0  0  0  0  0  0
   19.8353  -17.0400  -17.2311 C   0  0  0  0  0  0  0  0  0  0  0  0
   21.1959  -17.5853  -17.5305 C   0  0  2  0  0  0  0  0  0  0  0  0
   21.2837  -17.7283  -18.9856 N   0  0  0  0  0  0  0  0  0  0  0  0
   21.2134  -18.9795  -16.9238 C   0  0  0  0  0  0  0  0  0  0  0  0
   20.5641  -19.9220  -17.4348 O   0  0  0  0  0  0  0  0  0  0  0  0
   19.4625  -11.8140  -14.9670 N   0  0  0  0  0  0  0  0  0  0  0  0
   21.9736  -19.2362  -15.7597 C   0  0  2  0  0  0  0  0  0  0  0  0
   22.0148  -20.6177  -15.2281 C   0  0  0  0  0  0  0  0  0  0  0  0
   23.4168  -20.8913  -14.7312 C   0  0  0  0  0  0  0  0  0  0  0  0
   24.3749  -21.0689  -15.8455 C   0  0  0  0  0  0  0  0  0  0  0  0
   25.7359  -21.5570  -15.3783 C   0  0  0  0  0  0  0  0  0  0  0  0
   26.6938  -21.7279  -16.5245 N   0  0  0  0  0  0  0  0  0  0  0  0
   27.9160  -22.3082  -15.9982 C   0  0  0  0  0  0  0  0  0  0  0  0
   20.9807  -20.6611  -14.1828 O   0  0  0  0  0  0  0  0  0  0  0  0
   20.9022  -19.7741  -13.3086 C   0  0  0  0  0  0  0  0  0  0  0  0
   17.3333  -22.8494  -14.5582 C   0  0  2  0  0  0  0  0  0  0  0  0
   17.5744  -21.6508  -13.6690 C   0  0  0  0  0  0  0  0  0  0  0  0
   16.6208  -21.7842  -12.4984 C   0  0  1  0  0  0  0  0  0  0  0  0
   18.9574  -21.6530  -13.1371 N   0  0  0  0  0  0  0  0  0  0  0  0
   20.0118  -21.6970  -14.0927 C   0  0  0  0  0  0  0  0  0  0  0  0
   19.1205  -22.8345  -12.2383 O   0  0  0  0  0  0  0  0  0  0  0  0
   18.4761  -22.9580  -11.0164 O   0  0  0  0  0  0  0  0  0  0  0  0
  2  1  1  0
  3  2  2  0
  4  2  1  0
  5  4  1  0
  6  7  1  0
  6  5  1  0
  7  8  1  0
  8  9  1  6
 10  8  1  0
 10 11  2  0
 12 10  1  0
 13 12  1  0
 13 14  1  6
 15 14  1  0
 16 15  1  0
 17 16  1  0
 18 17  1  0
 19 13  1  0
 20 19  2  0
 22 23  1  1
 22 21  1  0
 24 22  1  0
 24 25  1  6
 25 19  1  0
 26 27  1  0
 26 24  1  0
 28 26  2  0
M  END
$$$$
