RKV.pdb
     RDKit          3D

 28 27  0  0  1  0  0  0  0  0999 V2000
   20.7445  -25.8512  -15.7342 N   0  0  0  0  0  0  0  0  0  0  0  0
   21.6283  -26.6411  -14.9697 C   0  0  0  0  0  0  0  0  0  0  0  0
   22.5144  -27.4225  -15.5132 N   0  0  0  0  0  0  0  0  0  0  0  0
   21.6046  -26.6341  -13.5299 N   0  0  0  0  0  0  0  0  0  0  0  0
   20.9009  -25.7071  -12.7302 C   0  0  0  0  0  0  0  0  0  0  0  0
   19.4582  -25.9055  -12.4820 C   0  0  0  0  0  0  0  0  0  0  0  0
   18.9928  -25.5417  -11.1161 C   0  0  0  0  0  0  0  0  0  0  0  0
   19.7200  -26.3077  -10.0567 C   0  0  2  0  0  0  0  0  0  0  0  0
   20.2104  -27.5369  -10.6844 N   0  0  0  0  0  0  0  0  0  0  0  0
   18.6580  -26.6960   -9.0399 C   0  0  0  0  0  0  0  0  0  0  0  0
   17.8037  -27.5776   -9.2925 O   0  0  0  0  0  0  0  0  0  0  0  0
   23.1244  -27.9746  -14.8641 N   0  0  0  0  0  0  0  0  0  0  0  0
   18.6196  -26.0603   -7.7776 C   0  0  1  0  0  0  0  0  0  0  0  0
   17.6280  -26.5219   -6.7793 C   0  0  0  0  0  0  0  0  0  0  0  0
   18.0905  -26.0727   -5.4112 C   0  0  0  0  0  0  0  0  0  0  0  0
   17.1133  -26.4190   -4.3546 C   0  0  0  0  0  0  0  0  0  0  0  0
   17.5283  -25.9155   -2.9824 C   0  0  0  0  0  0  0  0  0  0  0  0
   16.4817  -26.1998   -1.9411 N   0  0  0  0  0  0  0  0  0  0  0  0
   17.0023  -25.7624   -0.6584 C   0  0  0  0  0  0  0  0  0  0  0  0
   16.3470  -25.9400   -7.2088 O   0  0  0  0  0  0  0  0  0  0  0  0
   16.2700  -24.7602   -7.6079 C   0  0  0  0  0  0  0  0  0  0  0  0
   12.7337  -28.2346   -8.0392 C   0  0  2  0  0  0  0  0  0  0  0  0
   13.1365  -26.9133   -8.6534 C   0  0  0  0  0  0  0  0  0  0  0  0
   11.8508  -26.1733   -8.9647 C   0  0  1  0  0  0  0  0  0  0  0  0
   13.9156  -26.0963   -7.6938 N   0  0  0  0  0  0  0  0  0  0  0  0
   15.1245  -26.6648   -7.2014 C   0  0  0  0  0  0  0  0  0  0  0  0
   13.0517  -25.7943   -6.5136 O   0  0  0  0  0  0  0  0  0  0  0  0
   13.2764  -26.3189   -5.2497 O   0  0  0  0  0  0  0  0  0  0  0  0
  2  1  1  0
  3  2  2  0
  4  2  1  0
  5  4  1  0
  6  7  1  0
  6  5  1  0
  7  8  1  0
  8  9  1  6
 10  8  1  0
 10 11  2  0
 12 10  1  0
 13 12  1  0
 13 14  1  6
 15 14  1  0
 16 15  1  0
 17 16  1  0
 18 17  1  0
 19 13  1  0
 20 19  2  0
 22 23  1  1
 22 21  1  0
 24 22  1  0
 24 25  1  6
 25 19  1  0
 26 27  1  0
 26 24  1  0
 28 26  2  0
M  END
$$$$
