RKV.pdb
     RDKit          3D

 28 27  0  0  1  0  0  0  0  0999 V2000
   17.5268  -19.8429  -14.4274 N   0  0  0  0  0  0  0  0  0  0  0  0
   17.4813  -18.9830  -15.5446 C   0  0  0  0  0  0  0  0  0  0  0  0
   16.4705  -18.2001  -15.7824 N   0  0  0  0  0  0  0  0  0  0  0  0
   18.5567  -18.9182  -16.5000 N   0  0  0  0  0  0  0  0  0  0  0  0
   19.9192  -19.1518  -16.2116 C   0  0  0  0  0  0  0  0  0  0  0  0
   20.3757  -19.1632  -14.8067 C   0  0  0  0  0  0  0  0  0  0  0  0
   21.7036  -19.7941  -14.5755 C   0  0  0  0  0  0  0  0  0  0  0  0
   22.5324  -19.8216  -15.8206 C   0  0  2  0  0  0  0  0  0  0  0  0
   22.2164  -21.0737  -16.5118 N   0  0  0  0  0  0  0  0  0  0  0  0
   23.9737  -19.9044  -15.3433 C   0  0  0  0  0  0  0  0  0  0  0  0
   24.4990  -21.0012  -15.0399 O   0  0  0  0  0  0  0  0  0  0  0  0
   16.5221  -17.6040  -16.6428 N   0  0  0  0  0  0  0  0  0  0  0  0
   24.7527  -18.7295  -15.2345 C   0  0  2  0  0  0  0  0  0  0  0  0
   26.1563  -18.8472  -14.7773 C   0  0  0  0  0  0  0  0  0  0  0  0
   26.9187  -17.6403  -15.2765 C   0  0  0  0  0  0  0  0  0  0  0  0
   27.2245  -17.7368  -16.7216 C   0  0  0  0  0  0  0  0  0  0  0  0
   28.0385  -16.5589  -17.2302 C   0  0  0  0  0  0  0  0  0  0  0  0
   28.4572  -16.7436  -18.6624 N   0  0  0  0  0  0  0  0  0  0  0  0
   29.1457  -15.5364  -19.0822 C   0  0  0  0  0  0  0  0  0  0  0  0
   26.0783  -18.9530  -13.3121 O   0  0  0  0  0  0  0  0  0  0  0  0
   25.5553  -18.0543  -12.6222 C   0  0  0  0  0  0  0  0  0  0  0  0
   24.2034  -20.8426  -11.0482 C   0  0  2  0  0  0  0  0  0  0  0  0
   25.6106  -21.0624  -10.5414 C   0  0  0  0  0  0  0  0  0  0  0  0
   26.0087  -22.4611  -10.9686 C   0  0  2  0  0  0  0  0  0  0  0  0
   26.5555  -20.1058  -11.1640 N   0  0  0  0  0  0  0  0  0  0  0  0
   26.5833  -20.0661  -12.5869 C   0  0  0  0  0  0  0  0  0  0  0  0
   27.9373  -20.4304  -10.6997 O   0  0  0  0  0  0  0  0  0  0  0  0
   28.3406  -20.3304   -9.3766 O   0  0  0  0  0  0  0  0  0  0  0  0
  2  1  1  0
  3  2  2  0
  4  2  1  0
  5  4  1  0
  6  7  1  0
  6  5  1  0
  7  8  1  0
  8  9  1  6
 10  8  1  0
 10 11  2  0
 12 10  1  0
 13 12  1  0
 13 14  1  6
 15 14  1  0
 16 15  1  0
 17 16  1  0
 18 17  1  0
 19 13  1  0
 20 19  2  0
 22 23  1  6
 22 21  1  0
 24 22  1  0
 24 25  1  1
 25 19  1  0
 26 27  1  0
 26 24  1  0
 28 26  2  0
M  END
$$$$
