RKV.pdb
     RDKit          3D

 28 27  0  0  1  0  0  0  0  0999 V2000
   28.8336  -23.7142  -16.0122 N   0  0  0  0  0  0  0  0  0  0  0  0
   28.2688  -23.3351  -17.2479 C   0  0  0  0  0  0  0  0  0  0  0  0
   28.4367  -24.0294  -18.3347 N   0  0  0  0  0  0  0  0  0  0  0  0
   27.4671  -22.1470  -17.3863 N   0  0  0  0  0  0  0  0  0  0  0  0
   26.3639  -21.8080  -16.5728 C   0  0  0  0  0  0  0  0  0  0  0  0
   25.6856  -22.8602  -15.7884 C   0  0  0  0  0  0  0  0  0  0  0  0
   24.5189  -22.4018  -14.9863 C   0  0  0  0  0  0  0  0  0  0  0  0
   24.4184  -20.9097  -14.9504 C   0  0  2  0  0  0  0  0  0  0  0  0
   25.3588  -20.4466  -13.9273 N   0  0  0  0  0  0  0  0  0  0  0  0
   23.0109  -20.6126  -14.4574 C   0  0  0  0  0  0  0  0  0  0  0  0
   22.3824  -21.4303  -13.7452 O   0  0  0  0  0  0  0  0  0  0  0  0
   28.0099  -23.6494  -19.2131 N   0  0  0  0  0  0  0  0  0  0  0  0
   22.3832  -19.3926  -14.7991 C   0  0  2  0  0  0  0  0  0  0  0  0
   21.0567  -19.0881  -14.2156 C   0  0  0  0  0  0  0  0  0  0  0  0
   20.7041  -17.6591  -14.5636 C   0  0  0  0  0  0  0  0  0  0  0  0
   19.4177  -17.2432  -13.9609 C   0  0  0  0  0  0  0  0  0  0  0  0
   19.0005  -15.8419  -14.3745 C   0  0  0  0  0  0  0  0  0  0  0  0
   17.7443  -15.4019  -13.6755 N   0  0  0  0  0  0  0  0  0  0  0  0
   17.4332  -14.0577  -14.1271 C   0  0  0  0  0  0  0  0  0  0  0  0
   20.1448  -20.0938  -14.7821 O   0  0  0  0  0  0  0  0  0  0  0  0
   20.2701  -20.4972  -15.9562 C   0  0  0  0  0  0  0  0  0  0  0  0
   16.9459  -23.7205  -14.7331 C   0  0  2  0  0  0  0  0  0  0  0  0
   17.9445  -22.8712  -13.9802 C   0  0  0  0  0  0  0  0  0  0  0  0
   19.2588  -23.6256  -14.0077 C   0  0  1  0  0  0  0  0  0  0  0  0
   18.1491  -21.5676  -14.6542 N   0  0  0  0  0  0  0  0  0  0  0  0
   19.0733  -20.6704  -14.0476 C   0  0  0  0  0  0  0  0  0  0  0  0
   16.8347  -20.8639  -14.7397 O   0  0  0  0  0  0  0  0  0  0  0  0
   15.9135  -21.0887  -15.7517 O   0  0  0  0  0  0  0  0  0  0  0  0
  2  1  1  0
  3  2  2  0
  4  2  1  0
  5  4  1  0
  6  7  1  0
  6  5  1  0
  7  8  1  0
  8  9  1  1
 10  8  1  0
 10 11  2  0
 12 10  1  0
 13 12  1  0
 13 14  1  1
 15 14  1  0
 16 15  1  0
 17 16  1  0
 18 17  1  0
 19 13  1  0
 20 19  2  0
 22 23  1  6
 22 21  1  0
 24 22  1  0
 24 25  1  1
 25 19  1  0
 26 27  1  0
 26 24  1  0
 28 26  2  0
M  END
$$$$
