RKV.pdb
     RDKit          3D

 28 27  0  0  1  0  0  0  0  0999 V2000
   31.5698  -22.0087  -19.1327 N   0  0  0  0  0  0  0  0  0  0  0  0
   30.7571  -22.1131  -20.2809 C   0  0  0  0  0  0  0  0  0  0  0  0
   31.2489  -22.3044  -21.4695 N   0  0  0  0  0  0  0  0  0  0  0  0
   29.3224  -22.0121  -20.2101 N   0  0  0  0  0  0  0  0  0  0  0  0
   28.5566  -22.0893  -19.0262 C   0  0  0  0  0  0  0  0  0  0  0  0
   28.1659  -23.4114  -18.4953 C   0  0  0  0  0  0  0  0  0  0  0  0
   27.2807  -23.3793  -17.2995 C   0  0  0  0  0  0  0  0  0  0  0  0
   26.9264  -21.9804  -16.9053 C   0  0  2  0  0  0  0  0  0  0  0  0
   28.1715  -21.3288  -16.4921 N   0  0  0  0  0  0  0  0  0  0  0  0
   26.0437  -22.1199  -15.6749 C   0  0  0  0  0  0  0  0  0  0  0  0
   24.9978  -22.8102  -15.6967 O   0  0  0  0  0  0  0  0  0  0  0  0
   30.5683  -22.3466  -22.2652 N   0  0  0  0  0  0  0  0  0  0  0  0
   26.3958  -21.4651  -14.4723 C   0  0  1  0  0  0  0  0  0  0  0  0
   25.4719  -21.5531  -13.3184 C   0  0  0  0  0  0  0  0  0  0  0  0
   26.2064  -21.0718  -12.0871 C   0  0  0  0  0  0  0  0  0  0  0  0
   25.3654  -21.1558  -10.8719 C   0  0  0  0  0  0  0  0  0  0  0  0
   26.0687  -20.6280   -9.6327 C   0  0  0  0  0  0  0  0  0  0  0  0
   25.2155  -20.7663   -8.4024 N   0  0  0  0  0  0  0  0  0  0  0  0
   25.9744  -20.2522   -7.2766 C   0  0  0  0  0  0  0  0  0  0  0  0
   24.3085  -20.7334  -13.6909 O   0  0  0  0  0  0  0  0  0  0  0  0
   24.4320  -19.5296  -13.9953 C   0  0  0  0  0  0  0  0  0  0  0  0
   22.0838  -20.2774  -16.4052 C   0  0  2  0  0  0  0  0  0  0  0  0
   21.1534  -20.5410  -15.2432 C   0  0  0  0  0  0  0  0  0  0  0  0
   20.7049  -21.9833  -15.3692 C   0  0  2  0  0  0  0  0  0  0  0  0
   21.8617  -20.3917  -13.9503 N   0  0  0  0  0  0  0  0  0  0  0  0
   22.9822  -21.2423  -13.7312 C   0  0  0  0  0  0  0  0  0  0  0  0
   20.8903  -20.6393  -12.8433 O   0  0  0  0  0  0  0  0  0  0  0  0
   19.7724  -19.8500  -12.6188 O   0  0  0  0  0  0  0  0  0  0  0  0
  2  1  1  0
  3  2  2  0
  4  2  1  0
  5  4  1  0
  6  7  1  0
  6  5  1  0
  7  8  1  0
  8  9  1  1
 10  8  1  0
 10 11  2  0
 12 10  1  0
 13 12  1  0
 13 14  1  1
 15 14  1  0
 16 15  1  0
 17 16  1  0
 18 17  1  0
 19 13  1  0
 20 19  2  0
 22 23  1  6
 22 21  1  0
 24 22  1  0
 24 25  1  1
 25 19  1  0
 26 27  1  0
 26 24  1  0
 28 26  2  0
M  END
$$$$
