RKV.pdb
     RDKit          3D

 28 27  0  0  1  0  0  0  0  0999 V2000
   25.9595  -20.6989   -8.0066 N   0  0  0  0  0  0  0  0  0  0  0  0
   24.6864  -21.2109   -8.3337 C   0  0  0  0  0  0  0  0  0  0  0  0
   23.8783  -21.6973   -7.4384 N   0  0  0  0  0  0  0  0  0  0  0  0
   24.1982  -21.2294   -9.6883 N   0  0  0  0  0  0  0  0  0  0  0  0
   24.8963  -20.7397  -10.8138 C   0  0  0  0  0  0  0  0  0  0  0  0
   26.2776  -21.1963  -11.0707 C   0  0  0  0  0  0  0  0  0  0  0  0
   26.9254  -20.6128  -12.2768 C   0  0  0  0  0  0  0  0  0  0  0  0
   26.0900  -20.7990  -13.5037 C   0  0  2  0  0  0  0  0  0  0  0  0
   26.4127  -22.1239  -14.0385 N   0  0  0  0  0  0  0  0  0  0  0  0
   26.5936  -19.7617  -14.4951 C   0  0  0  0  0  0  0  0  0  0  0  0
   26.6217  -18.5424  -14.2064 O   0  0  0  0  0  0  0  0  0  0  0  0
   22.9387  -22.0210   -7.7709 N   0  0  0  0  0  0  0  0  0  0  0  0
   27.0445  -20.1636  -15.7734 C   0  0  1  0  0  0  0  0  0  0  0  0
   27.5975  -19.1376  -16.6870 C   0  0  0  0  0  0  0  0  0  0  0  0
   28.4532  -19.8364  -17.7198 C   0  0  0  0  0  0  0  0  0  0  0  0
   29.0181  -18.8873  -18.7053 C   0  0  0  0  0  0  0  0  0  0  0  0
   29.9498  -19.5585  -19.7005 C   0  0  0  0  0  0  0  0  0  0  0  0
   30.4828  -18.5843  -20.7141 N   0  0  0  0  0  0  0  0  0  0  0  0
   31.2564  -19.3351  -21.6865 C   0  0  0  0  0  0  0  0  0  0  0  0
   26.4262  -18.4402  -17.2399 O   0  0  0  0  0  0  0  0  0  0  0  0
   25.4585  -19.0697  -17.7138 C   0  0  0  0  0  0  0  0  0  0  0  0
   25.3139  -15.0342  -15.7374 C   0  0  2  0  0  0  0  0  0  0  0  0
   24.4327  -15.4607  -16.8893 C   0  0  0  0  0  0  0  0  0  0  0  0
   24.0968  -14.2018  -17.6637 C   0  0  2  0  0  0  0  0  0  0  0  0
   25.1551  -16.3805  -17.7992 N   0  0  0  0  0  0  0  0  0  0  0  0
   26.3116  -17.0241  -17.2745 C   0  0  0  0  0  0  0  0  0  0  0  0
   25.5803  -15.6165  -19.0099 O   0  0  0  0  0  0  0  0  0  0  0  0
   24.7105  -15.2539  -20.0274 O   0  0  0  0  0  0  0  0  0  0  0  0
  2  1  1  0
  3  2  2  0
  4  2  1  0
  5  4  1  0
  6  7  1  0
  6  5  1  0
  7  8  1  0
  8  9  1  6
 10  8  1  0
 10 11  2  0
 12 10  1  0
 13 12  1  0
 13 14  1  1
 15 14  1  0
 16 15  1  0
 17 16  1  0
 18 17  1  0
 19 13  1  0
 20 19  2  0
 22 23  1  6
 22 21  1  0
 24 22  1  0
 24 25  1  1
 25 19  1  0
 26 27  1  0
 26 24  1  0
 28 26  2  0
M  END
$$$$
