RKV.pdb
     RDKit          3D

 28 27  0  0  1  0  0  0  0  0999 V2000
   20.3565  -21.9740  -12.7971 N   0  0  0  0  0  0  0  0  0  0  0  0
   18.9650  -22.1447  -12.6414 C   0  0  0  0  0  0  0  0  0  0  0  0
   18.1261  -21.9682  -13.6193 N   0  0  0  0  0  0  0  0  0  0  0  0
   18.3807  -22.5258  -11.3816 N   0  0  0  0  0  0  0  0  0  0  0  0
   19.0324  -23.2657  -10.3708 C   0  0  0  0  0  0  0  0  0  0  0  0
   18.9778  -24.7418  -10.3973 C   0  0  0  0  0  0  0  0  0  0  0  0
   18.0408  -25.3603   -9.4205 C   0  0  0  0  0  0  0  0  0  0  0  0
   18.6883  -26.4679   -8.6510 C   0  0  2  0  0  0  0  0  0  0  0  0
   18.6060  -27.6682   -9.4865 N   0  0  0  0  0  0  0  0  0  0  0  0
   17.8014  -26.6856   -7.4351 C   0  0  0  0  0  0  0  0  0  0  0  0
   16.6838  -27.2441   -7.5338 O   0  0  0  0  0  0  0  0  0  0  0  0
   17.1067  -22.0617  -13.3948 N   0  0  0  0  0  0  0  0  0  0  0  0
   18.2314  -26.2561   -6.1585 C   0  0  2  0  0  0  0  0  0  0  0  0
   17.3133  -26.4174   -5.0079 C   0  0  0  0  0  0  0  0  0  0  0  0
   18.1421  -26.7295   -3.7820 C   0  0  0  0  0  0  0  0  0  0  0  0
   17.3138  -26.8051   -2.5575 C   0  0  0  0  0  0  0  0  0  0  0  0
   18.1401  -27.0256   -1.3016 C   0  0  0  0  0  0  0  0  0  0  0  0
   17.2784  -27.1186   -0.0730 N   0  0  0  0  0  0  0  0  0  0  0  0
   18.1484  -27.3766    1.0602 C   0  0  0  0  0  0  0  0  0  0  0  0
   16.5654  -25.1530   -4.9296 O   0  0  0  0  0  0  0  0  0  0  0  0
   17.1514  -24.0519   -4.8961 C   0  0  0  0  0  0  0  0  0  0  0  0
   14.1093  -23.4890   -7.1841 C   0  0  2  0  0  0  0  0  0  0  0  0
   13.4585  -23.5424   -5.8206 C   0  0  0  0  0  0  0  0  0  0  0  0
   12.4533  -24.6759   -5.8672 C   0  0  2  0  0  0  0  0  0  0  0  0
   14.4538  -23.8544   -4.7682 N   0  0  0  0  0  0  0  0  0  0  0  0
   15.1460  -25.0928   -4.8873 C   0  0  0  0  0  0  0  0  0  0  0  0
   13.7631  -23.8550   -3.4441 O   0  0  0  0  0  0  0  0  0  0  0  0
   13.1694  -22.7293   -2.8931 O   0  0  0  0  0  0  0  0  0  0  0  0
  2  1  1  0
  3  2  2  0
  4  2  1  0
  5  4  1  0
  6  7  1  0
  6  5  1  0
  7  8  1  0
  8  9  1  6
 10  8  1  0
 10 11  2  0
 12 10  1  0
 13 12  1  0
 13 14  1  1
 15 14  1  0
 16 15  1  0
 17 16  1  0
 18 17  1  0
 19 13  1  0
 20 19  2  0
 22 23  1  6
 22 21  1  0
 24 22  1  0
 24 25  1  1
 25 19  1  0
 26 27  1  0
 26 24  1  0
 28 26  2  0
M  END
$$$$
