RKV.pdb
     RDKit          3D

 28 27  0  0  1  0  0  0  0  0999 V2000
   22.1865  -25.0207  -15.2498 N   0  0  0  0  0  0  0  0  0  0  0  0
   23.2848  -24.8504  -16.1185 C   0  0  0  0  0  0  0  0  0  0  0  0
   23.1501  -24.7886  -17.4104 N   0  0  0  0  0  0  0  0  0  0  0  0
   24.6335  -24.7355  -15.6273 N   0  0  0  0  0  0  0  0  0  0  0  0
   25.0043  -24.6848  -14.2657 C   0  0  0  0  0  0  0  0  0  0  0  0
   24.7545  -23.4544  -13.4872 C   0  0  0  0  0  0  0  0  0  0  0  0
   25.5517  -22.2679  -13.9014 C   0  0  0  0  0  0  0  0  0  0  0  0
   25.2307  -21.0637  -13.0739 C   0  0  2  0  0  0  0  0  0  0  0  0
   25.3329  -21.4743  -11.6716 N   0  0  0  0  0  0  0  0  0  0  0  0
   23.7702  -20.7541  -13.3629 C   0  0  0  0  0  0  0  0  0  0  0  0
   22.8816  -20.9312  -12.4971 O   0  0  0  0  0  0  0  0  0  0  0  0
   24.0242  -24.6631  -17.9747 N   0  0  0  0  0  0  0  0  0  0  0  0
   23.3891  -20.2541  -14.6293 C   0  0  2  0  0  0  0  0  0  0  0  0
   21.9959  -19.7901  -14.8203 C   0  0  0  0  0  0  0  0  0  0  0  0
   21.9977  -18.7131  -15.8820 C   0  0  0  0  0  0  0  0  0  0  0  0
   21.0595  -17.6147  -15.5588 C   0  0  0  0  0  0  0  0  0  0  0  0
   21.1179  -16.4768  -16.5641 C   0  0  0  0  0  0  0  0  0  0  0  0
   20.2478  -15.3213  -16.1538 N   0  0  0  0  0  0  0  0  0  0  0  0
   20.4511  -14.2508  -17.1131 C   0  0  0  0  0  0  0  0  0  0  0  0
   21.2325  -20.9953  -15.1791 O   0  0  0  0  0  0  0  0  0  0  0  0
   21.7422  -21.9096  -15.8585 C   0  0  0  0  0  0  0  0  0  0  0  0
   17.0044  -21.8953  -14.0770 C   0  0  2  0  0  0  0  0  0  0  0  0
   18.1535  -22.8710  -14.1910 C   0  0  0  0  0  0  0  0  0  0  0  0
   17.5719  -24.1592  -14.7386 C   0  0  1  0  0  0  0  0  0  0  0  0
   19.1723  -22.3831  -15.1498 N   0  0  0  0  0  0  0  0  0  0  0  0
   19.8829  -21.2043  -14.7857 C   0  0  0  0  0  0  0  0  0  0  0  0
   18.5052  -22.1154  -16.4589 O   0  0  0  0  0  0  0  0  0  0  0  0
   18.0639  -23.1182  -17.3092 O   0  0  0  0  0  0  0  0  0  0  0  0
  2  1  1  0
  3  2  2  0
  4  2  1  0
  5  4  1  0
  6  7  1  0
  6  5  1  0
  7  8  1  0
  8  9  1  1
 10  8  1  0
 10 11  2  0
 12 10  1  0
 13 12  1  0
 13 14  1  6
 15 14  1  0
 16 15  1  0
 17 16  1  0
 18 17  1  0
 19 13  1  0
 20 19  2  0
 22 23  1  6
 22 21  1  0
 24 22  1  0
 24 25  1  1
 25 19  1  0
 26 27  1  0
 26 24  1  0
 28 26  2  0
M  END
$$$$
