GLW.pdb
     RDKit          3D

 27 28  0  0  1  0  0  0  0  0999 V2000
   30.7583  -23.2697  -17.0044 N   0  0  0  0  0  0  0  0  0  0  0  0
   29.3234  -23.0991  -17.0277 C   0  0  0  0  0  0  0  0  0  0  0  0
   28.8269  -22.2975  -15.9002 C   0  0  0  0  0  0  0  0  0  0  0  0
   28.9514  -22.6754  -14.7099 O   0  0  0  0  0  0  0  0  0  0  0  0
   27.6392  -16.3282  -15.2549 C   0  0  0  0  0  0  0  0  0  0  0  0
   27.3739  -17.6817  -14.5628 C   0  0  1  0  0  0  0  0  0  0  0  0
   25.9607  -17.6719  -14.1164 C   0  0  0  0  0  0  0  0  0  0  0  0
   27.8050  -18.7188  -15.5068 C   0  0  0  0  0  0  0  0  0  0  0  0
   27.8185  -20.1360  -15.0831 C   0  0  2  0  0  0  0  0  0  0  0  0
   28.1839  -21.0575  -16.1255 N   0  0  0  0  0  0  0  0  0  0  0  0
   26.5936  -20.5540  -14.3565 C   0  0  0  0  0  0  0  0  0  0  0  0
   25.5349  -20.6759  -15.0211 O   0  0  0  0  0  0  0  0  0  0  0  0
   26.5419  -20.8237  -12.9647 N   0  0  0  0  0  0  0  0  0  0  0  0
   25.4672  -21.5858  -12.3466 C   0  0  1  0  0  0  0  0  0  0  0  0
   25.9235  -22.2206  -11.0547 C   0  0  0  0  0  0  0  0  0  0  0  0
   26.3217  -21.2112  -10.0466 C   0  0  0  0  0  0  0  0  0  0  0  0
   25.5254  -20.3529   -9.3241 C   0  0  0  0  0  0  0  0  0  0  0  0
   26.2834  -19.6008   -8.5170 N   0  0  0  0  0  0  0  0  0  0  0  0
   27.5859  -19.9309   -8.6762 C   0  0  0  0  0  0  0  0  0  0  0  0
   28.7609  -19.4836   -8.1119 C   0  0  0  0  0  0  0  0  0  0  0  0
   29.9944  -20.0146   -8.4728 C   0  0  0  0  0  0  0  0  0  0  0  0
   29.9714  -21.0113   -9.4250 C   0  0  0  0  0  0  0  0  0  0  0  0
   28.8031  -21.4693   -9.9986 C   0  0  0  0  0  0  0  0  0  0  0  0
   27.6129  -20.9326   -9.6273 C   0  0  0  0  0  0  0  0  0  0  0  0
   24.4202  -20.5730  -11.9567 C   0  0  0  0  0  0  0  0  0  0  0  0
   24.6744  -19.2087  -12.0838 O   0  0  0  0  0  0  0  0  0  0  0  0
   23.2948  -20.9013  -11.5090 O   0  0  0  0  0  0  0  0  0  0  0  0
  2  1  1  0
  3  2  1  0
  3  4  2  0
  6  5  1  6
  6  7  1  0
  8  6  1  0
  9  8  1  6
  9 10  1  0
 10  3  1  0
 11  9  1  0
 12 11  2  0
 13 11  1  0
 14 13  1  0
 14 25  1  0
 14 15  1  1
 16 15  1  0
 17 16  2  0
 18 17  1  0
 19 18  1  0
 19 24  2  0
 20 19  1  0
 21 20  2  0
 21 22  1  0
 22 23  2  0
 23 24  1  0
 24 16  1  0
 25 26  1  0
 27 25  2  0
M  END
$$$$
