GLW.pdb
     RDKit          3D

 27 28  0  0  1  0  0  0  0  0999 V2000
   24.5672  -17.4982  -15.2061 N   0  0  0  0  0  0  0  0  0  0  0  0
   24.8337  -17.8212  -13.8228 C   0  0  0  0  0  0  0  0  0  0  0  0
   25.3613  -19.1817  -13.6471 C   0  0  0  0  0  0  0  0  0  0  0  0
   24.7462  -20.1926  -14.0652 O   0  0  0  0  0  0  0  0  0  0  0  0
   30.8727  -19.7781  -12.7145 C   0  0  0  0  0  0  0  0  0  0  0  0
   29.3915  -19.4773  -13.0260 C   0  0  1  0  0  0  0  0  0  0  0  0
   29.3380  -18.9415  -14.4068 C   0  0  0  0  0  0  0  0  0  0  0  0
   28.6485  -20.7048  -12.7196 C   0  0  0  0  0  0  0  0  0  0  0  0
   27.1696  -20.6942  -12.7532 C   0  0  2  0  0  0  0  0  0  0  0  0
   26.5967  -19.3964  -12.9915 N   0  0  0  0  0  0  0  0  0  0  0  0
   26.5409  -21.3925  -11.6042 C   0  0  0  0  0  0  0  0  0  0  0  0
   26.9087  -22.5694  -11.3656 O   0  0  0  0  0  0  0  0  0  0  0  0
   25.5550  -20.8182  -10.7613 N   0  0  0  0  0  0  0  0  0  0  0  0
   24.8205  -21.5860   -9.7670 C   0  0  1  0  0  0  0  0  0  0  0  0
   25.6466  -21.7930   -8.5201 C   0  0  0  0  0  0  0  0  0  0  0  0
   26.1702  -20.5175   -7.9790 C   0  0  0  0  0  0  0  0  0  0  0  0
   26.0563  -19.2487   -8.4985 C   0  0  0  0  0  0  0  0  0  0  0  0
   26.6731  -18.3723   -7.6965 N   0  0  0  0  0  0  0  0  0  0  0  0
   27.2073  -19.0217   -6.6365 C   0  0  0  0  0  0  0  0  0  0  0  0
   27.9315  -18.6193   -5.5352 C   0  0  0  0  0  0  0  0  0  0  0  0
   28.3675  -19.5260   -4.5752 C   0  0  0  0  0  0  0  0  0  0  0  0
   28.0332  -20.8460   -4.7903 C   0  0  0  0  0  0  0  0  0  0  0  0
   27.3089  -21.2636   -5.8879 C   0  0  0  0  0  0  0  0  0  0  0  0
   26.8960  -20.3566   -6.8095 C   0  0  0  0  0  0  0  0  0  0  0  0
   23.6633  -20.7135   -9.3504 C   0  0  0  0  0  0  0  0  0  0  0  0
   23.4697  -19.4663   -9.9412 O   0  0  0  0  0  0  0  0  0  0  0  0
   22.8371  -21.0595   -8.4715 O   0  0  0  0  0  0  0  0  0  0  0  0
  2  1  1  0
  3  2  1  0
  3  4  2  0
  6  5  1  6
  6  7  1  0
  8  6  1  0
  9  8  1  1
  9 10  1  0
 10  3  1  0
 11  9  1  0
 12 11  2  0
 13 11  1  0
 14 13  1  0
 14 25  1  0
 14 15  1  1
 16 15  1  0
 17 16  2  0
 18 17  1  0
 19 18  1  0
 19 24  2  0
 20 19  1  0
 21 20  2  0
 21 22  1  0
 22 23  2  0
 23 24  1  0
 24 16  1  0
 25 26  1  0
 27 25  2  0
M  END
$$$$
