GLW.pdb
     RDKit          3D

 27 28  0  0  1  0  0  0  0  0999 V2000
   23.5975  -20.5431  -15.7600 N   0  0  0  0  0  0  0  0  0  0  0  0
   24.4813  -19.8539  -14.8476 C   0  0  0  0  0  0  0  0  0  0  0  0
   25.2858  -20.7731  -14.0304 C   0  0  0  0  0  0  0  0  0  0  0  0
   25.0995  -22.0141  -14.0470 O   0  0  0  0  0  0  0  0  0  0  0  0
   30.4216  -19.1400  -12.5273 C   0  0  0  0  0  0  0  0  0  0  0  0
   29.1783  -19.7779  -13.1819 C   0  0  1  0  0  0  0  0  0  0  0  0
   29.6451  -20.5007  -14.3886 C   0  0  0  0  0  0  0  0  0  0  0  0
   28.5009  -20.5384  -12.1257 C   0  0  0  0  0  0  0  0  0  0  0  0
   27.1610  -21.1114  -12.3793 C   0  0  2  0  0  0  0  0  0  0  0  0
   26.3098  -20.2800  -13.1876 N   0  0  0  0  0  0  0  0  0  0  0  0
   26.4806  -21.6042  -11.1556 C   0  0  0  0  0  0  0  0  0  0  0  0
   27.1940  -22.1208  -10.2603 O   0  0  0  0  0  0  0  0  0  0  0  0
   25.0816  -21.5295  -10.9331 N   0  0  0  0  0  0  0  0  0  0  0  0
   24.5037  -21.0222   -9.6977 C   0  0  1  0  0  0  0  0  0  0  0  0
   25.4297  -20.0345   -9.0290 C   0  0  0  0  0  0  0  0  0  0  0  0
   25.8803  -20.5041   -7.6984 C   0  0  0  0  0  0  0  0  0  0  0  0
   25.3922  -21.5427   -6.9394 C   0  0  0  0  0  0  0  0  0  0  0  0
   26.0827  -21.6336   -5.7964 N   0  0  0  0  0  0  0  0  0  0  0  0
   27.0354  -20.6735   -5.7614 C   0  0  0  0  0  0  0  0  0  0  0  0
   28.0011  -20.3184   -4.8445 C   0  0  0  0  0  0  0  0  0  0  0  0
   28.8708  -19.2573   -5.0717 C   0  0  0  0  0  0  0  0  0  0  0  0
   28.7096  -18.5846   -6.2642 C   0  0  0  0  0  0  0  0  0  0  0  0
   27.7476  -18.9286   -7.1915 C   0  0  0  0  0  0  0  0  0  0  0  0
   26.9119  -19.9691   -6.9435 C   0  0  0  0  0  0  0  0  0  0  0  0
   23.2893  -20.2290  -10.1103 C   0  0  0  0  0  0  0  0  0  0  0  0
   22.4122  -19.7283   -9.1500 O   0  0  0  0  0  0  0  0  0  0  0  0
   23.0152  -19.9867  -11.3106 O   0  0  0  0  0  0  0  0  0  0  0  0
  2  1  1  0
  3  2  1  0
  3  4  2  0
  6  5  1  1
  6  7  1  0
  8  6  1  0
  9  8  1  1
  9 10  1  0
 10  3  1  0
 11  9  1  0
 12 11  2  0
 13 11  1  0
 14 13  1  0
 14 25  1  0
 14 15  1  6
 16 15  1  0
 17 16  2  0
 18 17  1  0
 19 18  1  0
 19 24  2  0
 20 19  1  0
 21 20  2  0
 21 22  1  0
 22 23  2  0
 23 24  1  0
 24 16  1  0
 25 26  1  0
 27 25  2  0
M  END
$$$$
