GLW.pdb
     RDKit          3D

 27 28  0  0  1  0  0  0  0  0999 V2000
   23.9897  -17.3584  -14.8335 N   0  0  0  0  0  0  0  0  0  0  0  0
   24.6417  -17.6443  -13.5758 C   0  0  0  0  0  0  0  0  0  0  0  0
   25.1939  -19.0052  -13.5169 C   0  0  0  0  0  0  0  0  0  0  0  0
   24.6716  -19.9621  -14.1386 O   0  0  0  0  0  0  0  0  0  0  0  0
   30.5903  -19.7740  -13.4104 C   0  0  0  0  0  0  0  0  0  0  0  0
   29.0741  -19.6478  -13.6687 C   0  0  1  0  0  0  0  0  0  0  0  0
   28.8657  -19.8201  -15.1259 C   0  0  0  0  0  0  0  0  0  0  0  0
   28.4201  -20.5863  -12.7499 C   0  0  0  0  0  0  0  0  0  0  0  0
   26.9459  -20.5847  -12.6270 C   0  0  2  0  0  0  0  0  0  0  0  0
   26.3478  -19.2820  -12.7463 N   0  0  0  0  0  0  0  0  0  0  0  0
   26.4437  -21.3368  -11.4501 C   0  0  0  0  0  0  0  0  0  0  0  0
   26.6464  -22.5760  -11.4206 O   0  0  0  0  0  0  0  0  0  0  0  0
   25.7520  -20.7483  -10.3604 N   0  0  0  0  0  0  0  0  0  0  0  0
   25.1157  -21.5319   -9.3122 C   0  0  1  0  0  0  0  0  0  0  0  0
   26.0470  -21.7315   -8.1404 C   0  0  0  0  0  0  0  0  0  0  0  0
   26.5880  -20.4497   -7.6324 C   0  0  0  0  0  0  0  0  0  0  0  0
   26.3999  -19.1786   -8.1243 C   0  0  0  0  0  0  0  0  0  0  0  0
   27.0659  -18.2962   -7.3696 N   0  0  0  0  0  0  0  0  0  0  0  0
   27.7069  -18.9437   -6.3693 C   0  0  0  0  0  0  0  0  0  0  0  0
   28.5171  -18.5357   -5.3318 C   0  0  0  0  0  0  0  0  0  0  0  0
   29.0571  -19.4417   -4.4255 C   0  0  0  0  0  0  0  0  0  0  0  0
   28.7346  -20.7669   -4.6261 C   0  0  0  0  0  0  0  0  0  0  0  0
   27.9249  -21.1902   -5.6600 C   0  0  0  0  0  0  0  0  0  0  0  0
   27.4114  -20.2837   -6.5302 C   0  0  0  0  0  0  0  0  0  0  0  0
   23.9846  -20.6793   -8.7945 C   0  0  0  0  0  0  0  0  0  0  0  0
   23.1329  -21.1613   -7.8022 O   0  0  0  0  0  0  0  0  0  0  0  0
   23.7598  -19.5211   -9.2219 O   0  0  0  0  0  0  0  0  0  0  0  0
  2  1  1  0
  3  2  1  0
  3  4  2  0
  6  5  1  6
  6  7  1  0
  8  6  1  0
  9  8  1  1
  9 10  1  0
 10  3  1  0
 11  9  1  0
 12 11  2  0
 13 11  1  0
 14 13  1  0
 14 25  1  0
 14 15  1  1
 16 15  1  0
 17 16  2  0
 18 17  1  0
 19 18  1  0
 19 24  2  0
 20 19  1  0
 21 20  2  0
 21 22  1  0
 22 23  2  0
 23 24  1  0
 24 16  1  0
 25 26  1  0
 27 25  2  0
M  END
$$$$
