GLW.pdb
     RDKit          3D

 27 28  0  0  1  0  0  0  0  0999 V2000
   21.8379  -21.8989   -6.3464 N   0  0  0  0  0  0  0  0  0  0  0  0
   22.8583  -22.4442   -7.2125 C   0  0  0  0  0  0  0  0  0  0  0  0
   23.6941  -21.4058   -7.8319 C   0  0  0  0  0  0  0  0  0  0  0  0
   23.1980  -20.4485   -8.4740 O   0  0  0  0  0  0  0  0  0  0  0  0
   29.0515  -20.3166   -6.1498 C   0  0  0  0  0  0  0  0  0  0  0  0
   27.5688  -20.0517   -6.4859 C   0  0  1  0  0  0  0  0  0  0  0  0
   27.3027  -18.6255   -6.1830 C   0  0  0  0  0  0  0  0  0  0  0  0
   27.3661  -20.5278   -7.8588 C   0  0  0  0  0  0  0  0  0  0  0  0
   25.9998  -20.5754   -8.4239 C   0  0  2  0  0  0  0  0  0  0  0  0
   25.1038  -21.4546   -7.7215 N   0  0  0  0  0  0  0  0  0  0  0  0
   25.9679  -20.7842   -9.8931 C   0  0  0  0  0  0  0  0  0  0  0  0
   25.7426  -21.9467  -10.3117 O   0  0  0  0  0  0  0  0  0  0  0  0
   26.1748  -19.7589  -10.8514 N   0  0  0  0  0  0  0  0  0  0  0  0
   26.0792  -19.9864  -12.2855 C   0  0  1  0  0  0  0  0  0  0  0  0
   26.1187  -18.6831  -13.0471 C   0  0  0  0  0  0  0  0  0  0  0  0
   25.9866  -18.8860  -14.5084 C   0  0  0  0  0  0  0  0  0  0  0  0
   24.8509  -19.1270  -15.2466 C   0  0  0  0  0  0  0  0  0  0  0  0
   25.1681  -19.2496  -16.5412 N   0  0  0  0  0  0  0  0  0  0  0  0
   26.5030  -19.0964  -16.7003 C   0  0  0  0  0  0  0  0  0  0  0  0
   27.3452  -19.1266  -17.7907 C   0  0  0  0  0  0  0  0  0  0  0  0
   28.7164  -18.9338  -17.6617 C   0  0  0  0  0  0  0  0  0  0  0  0
   29.1808  -18.7115  -16.3828 C   0  0  0  0  0  0  0  0  0  0  0  0
   28.3498  -18.6785  -15.2818 C   0  0  0  0  0  0  0  0  0  0  0  0
   27.0150  -18.8701  -15.4371 C   0  0  0  0  0  0  0  0  0  0  0  0
   27.3395  -20.7211  -12.6674 C   0  0  0  0  0  0  0  0  0  0  0  0
   27.3366  -21.6262  -13.7272 O   0  0  0  0  0  0  0  0  0  0  0  0
   28.4274  -20.5576  -12.0638 O   0  0  0  0  0  0  0  0  0  0  0  0
  2  1  1  0
  3  2  1  0
  3  4  2  0
  6  5  1  6
  6  7  1  0
  8  6  1  0
  9  8  1  1
  9 10  1  0
 10  3  1  0
 11  9  1  0
 12 11  2  0
 13 11  1  0
 14 13  1  0
 14 25  1  0
 14 15  1  6
 16 15  1  0
 17 16  2  0
 18 17  1  0
 19 18  1  0
 19 24  2  0
 20 19  1  0
 21 20  2  0
 21 22  1  0
 22 23  2  0
 23 24  1  0
 24 16  1  0
 25 26  1  0
 27 25  2  0
M  END
$$$$
