GLW.pdb
     RDKit          3D

 27 28  0  0  1  0  0  0  0  0999 V2000
   28.9577  -21.6385  -17.0689 N   0  0  0  0  0  0  0  0  0  0  0  0
   28.2598  -20.5940  -16.3543 C   0  0  0  0  0  0  0  0  0  0  0  0
   27.6908  -21.0574  -15.0809 C   0  0  0  0  0  0  0  0  0  0  0  0
   27.0047  -22.1052  -15.0013 O   0  0  0  0  0  0  0  0  0  0  0  0
   30.3629  -20.5361  -10.3278 C   0  0  0  0  0  0  0  0  0  0  0  0
   29.6019  -21.0665  -11.5611 C   0  0  1  0  0  0  0  0  0  0  0  0
   29.7776  -22.5380  -11.5805 C   0  0  0  0  0  0  0  0  0  0  0  0
   28.2422  -20.5226  -11.4716 C   0  0  0  0  0  0  0  0  0  0  0  0
   27.3186  -20.6653  -12.6183 C   0  0  2  0  0  0  0  0  0  0  0  0
   27.9020  -20.3256  -13.8884 N   0  0  0  0  0  0  0  0  0  0  0  0
   25.9989  -20.0199  -12.4064 C   0  0  0  0  0  0  0  0  0  0  0  0
   25.9682  -18.7663  -12.3346 O   0  0  0  0  0  0  0  0  0  0  0  0
   24.7746  -20.7251  -12.2802 N   0  0  0  0  0  0  0  0  0  0  0  0
   23.4858  -20.0581  -12.1707 C   0  0  1  0  0  0  0  0  0  0  0  0
   23.1296  -19.3482  -13.4550 C   0  0  0  0  0  0  0  0  0  0  0  0
   23.1702  -20.2560  -14.6247 C   0  0  0  0  0  0  0  0  0  0  0  0
   22.5319  -21.4615  -14.8036 C   0  0  0  0  0  0  0  0  0  0  0  0
   22.8349  -21.9618  -16.0076 N   0  0  0  0  0  0  0  0  0  0  0  0
   23.6707  -21.1175  -16.6551 C   0  0  0  0  0  0  0  0  0  0  0  0
   24.2814  -21.1379  -17.8904 C   0  0  0  0  0  0  0  0  0  0  0  0
   25.1166  -20.1086  -18.3108 C   0  0  0  0  0  0  0  0  0  0  0  0
   25.2964  -19.0707  -17.4214 C   0  0  0  0  0  0  0  0  0  0  0  0
   24.6918  -19.0365  -16.1816 C   0  0  0  0  0  0  0  0  0  0  0  0
   23.8812  -20.0552  -15.7971 C   0  0  0  0  0  0  0  0  0  0  0  0
   22.4676  -21.1597  -12.0168 C   0  0  0  0  0  0  0  0  0  0  0  0
   21.1313  -20.8566  -11.7621 O   0  0  0  0  0  0  0  0  0  0  0  0
   22.7664  -22.3750  -12.1081 O   0  0  0  0  0  0  0  0  0  0  0  0
  2  1  1  0
  3  2  1  0
  3  4  2  0
  6  5  1  1
  6  7  1  0
  8  6  1  0
  9  8  1  1
  9 10  1  0
 10  3  1  0
 11  9  1  0
 12 11  2  0
 13 11  1  0
 14 13  1  0
 14 25  1  0
 14 15  1  6
 16 15  1  0
 17 16  2  0
 18 17  1  0
 19 18  1  0
 19 24  2  0
 20 19  1  0
 21 20  2  0
 21 22  1  0
 22 23  2  0
 23 24  1  0
 24 16  1  0
 25 26  1  0
 27 25  2  0
M  END
$$$$
