GLW.pdb
     RDKit          3D

 27 28  0  0  1  0  0  0  0  0999 V2000
   27.0590  -22.8366  -17.3121 N   0  0  0  0  0  0  0  0  0  0  0  0
   27.6322  -21.8550  -16.4196 C   0  0  0  0  0  0  0  0  0  0  0  0
   27.0708  -21.9222  -15.0629 C   0  0  0  0  0  0  0  0  0  0  0  0
   26.2800  -22.8324  -14.7149 O   0  0  0  0  0  0  0  0  0  0  0  0
   30.0326  -20.1807  -10.6471 C   0  0  0  0  0  0  0  0  0  0  0  0
   29.2332  -21.0517  -11.6389 C   0  0  1  0  0  0  0  0  0  0  0  0
   29.3272  -22.4516  -11.1615 C   0  0  0  0  0  0  0  0  0  0  0  0
   27.9063  -20.4358  -11.7516 C   0  0  0  0  0  0  0  0  0  0  0  0
   26.9352  -20.9615  -12.7358 C   0  0  2  0  0  0  0  0  0  0  0  0
   27.4096  -20.9486  -14.0938 N   0  0  0  0  0  0  0  0  0  0  0  0
   25.5754  -20.3818  -12.6017 C   0  0  0  0  0  0  0  0  0  0  0  0
   25.0064  -20.4826  -11.4866 O   0  0  0  0  0  0  0  0  0  0  0  0
   24.8796  -19.7238  -13.6481 N   0  0  0  0  0  0  0  0  0  0  0  0
   23.5637  -19.1284  -13.4703 C   0  0  1  0  0  0  0  0  0  0  0  0
   23.3821  -17.9302  -14.3713 C   0  0  0  0  0  0  0  0  0  0  0  0
   23.9424  -18.1582  -15.7233 C   0  0  0  0  0  0  0  0  0  0  0  0
   23.3083  -18.6215  -16.8529 C   0  0  0  0  0  0  0  0  0  0  0  0
   24.1772  -18.6812  -17.8694 N   0  0  0  0  0  0  0  0  0  0  0  0
   25.3958  -18.2661  -17.4529 C   0  0  0  0  0  0  0  0  0  0  0  0
   26.6212  -18.1305  -18.0687 C   0  0  0  0  0  0  0  0  0  0  0  0
   27.7383  -17.6688  -17.3812 C   0  0  0  0  0  0  0  0  0  0  0  0
   27.5473  -17.3561  -16.0522 C   0  0  0  0  0  0  0  0  0  0  0  0
   26.3267  -17.4868  -15.4223 C   0  0  0  0  0  0  0  0  0  0  0  0
   25.2528  -17.9401  -16.1179 C   0  0  0  0  0  0  0  0  0  0  0  0
   22.5789  -20.1604  -13.9595 C   0  0  0  0  0  0  0  0  0  0  0  0
   23.0269  -21.3584  -14.5131 O   0  0  0  0  0  0  0  0  0  0  0  0
   21.3368  -19.9950  -13.8938 O   0  0  0  0  0  0  0  0  0  0  0  0
  2  1  1  0
  3  2  1  0
  3  4  2  0
  6  5  1  1
  6  7  1  0
  8  6  1  0
  9  8  1  1
  9 10  1  0
 10  3  1  0
 11  9  1  0
 12 11  2  0
 13 11  1  0
 14 13  1  0
 14 25  1  0
 14 15  1  6
 16 15  1  0
 17 16  2  0
 18 17  1  0
 19 18  1  0
 19 24  2  0
 20 19  1  0
 21 20  2  0
 21 22  1  0
 22 23  2  0
 23 24  1  0
 24 16  1  0
 25 26  1  0
 27 25  2  0
M  END
$$$$
