GLW.pdb
     RDKit          3D

 27 28  0  0  1  0  0  0  0  0999 V2000
   24.3222  -16.9758  -14.7379 N   0  0  0  0  0  0  0  0  0  0  0  0
   24.7479  -17.3934  -13.4214 C   0  0  0  0  0  0  0  0  0  0  0  0
   25.2600  -18.7708  -13.3987 C   0  0  0  0  0  0  0  0  0  0  0  0
   24.5777  -19.7408  -13.8094 O   0  0  0  0  0  0  0  0  0  0  0  0
   30.7960  -19.5642  -13.6423 C   0  0  0  0  0  0  0  0  0  0  0  0
   29.2788  -19.3504  -13.8256 C   0  0  1  0  0  0  0  0  0  0  0  0
   29.0152  -19.3343  -15.2839 C   0  0  0  0  0  0  0  0  0  0  0  0
   28.6168  -20.3695  -13.0034 C   0  0  0  0  0  0  0  0  0  0  0  0
   27.1433  -20.3625  -12.8730 C   0  0  2  0  0  0  0  0  0  0  0  0
   26.5568  -19.0495  -12.9060 N   0  0  0  0  0  0  0  0  0  0  0  0
   26.6396  -21.1835  -11.7436 C   0  0  0  0  0  0  0  0  0  0  0  0
   26.9339  -22.4044  -11.7341 O   0  0  0  0  0  0  0  0  0  0  0  0
   25.8501  -20.6796  -10.6782 N   0  0  0  0  0  0  0  0  0  0  0  0
   25.1794  -21.5406   -9.7156 C   0  0  1  0  0  0  0  0  0  0  0  0
   26.0354  -21.7577   -8.4907 C   0  0  0  0  0  0  0  0  0  0  0  0
   26.5232  -20.4822   -7.9172 C   0  0  0  0  0  0  0  0  0  0  0  0
   26.3357  -19.2004   -8.3806 C   0  0  0  0  0  0  0  0  0  0  0  0
   26.9435  -18.3294   -7.5660 N   0  0  0  0  0  0  0  0  0  0  0  0
   27.5440  -18.9952   -6.5526 C   0  0  0  0  0  0  0  0  0  0  0  0
   28.2905  -18.6042   -5.4621 C   0  0  0  0  0  0  0  0  0  0  0  0
   28.8003  -19.5273   -4.5555 C   0  0  0  0  0  0  0  0  0  0  0  0
   28.5153  -20.8515   -4.8120 C   0  0  0  0  0  0  0  0  0  0  0  0
   27.7695  -21.2578   -5.8994 C   0  0  0  0  0  0  0  0  0  0  0  0
   27.2843  -20.3349   -6.7685 C   0  0  0  0  0  0  0  0  0  0  0  0
   23.9769  -20.7640   -9.2414 C   0  0  0  0  0  0  0  0  0  0  0  0
   23.1054  -21.3139   -8.3031 O   0  0  0  0  0  0  0  0  0  0  0  0
   23.7081  -19.6115   -9.6587 O   0  0  0  0  0  0  0  0  0  0  0  0
  2  1  1  0
  3  2  1  0
  3  4  2  0
  6  5  1  6
  6  7  1  0
  8  6  1  0
  9  8  1  1
  9 10  1  0
 10  3  1  0
 11  9  1  0
 12 11  2  0
 13 11  1  0
 14 13  1  0
 14 25  1  0
 14 15  1  1
 16 15  1  0
 17 16  2  0
 18 17  1  0
 19 18  1  0
 19 24  2  0
 20 19  1  0
 21 20  2  0
 21 22  1  0
 22 23  2  0
 23 24  1  0
 24 16  1  0
 25 26  1  0
 27 25  2  0
M  END
$$$$
