GLW.pdb
     RDKit          3D

 27 28  0  0  1  0  0  0  0  0999 V2000
   26.6603  -20.5184  -18.2521 N   0  0  0  0  0  0  0  0  0  0  0  0
   26.5556  -19.7290  -17.0460 C   0  0  0  0  0  0  0  0  0  0  0  0
   25.8039  -20.4107  -15.9827 C   0  0  0  0  0  0  0  0  0  0  0  0
   25.1082  -21.4303  -16.2091 O   0  0  0  0  0  0  0  0  0  0  0  0
   25.6250  -22.6083  -11.1401 C   0  0  0  0  0  0  0  0  0  0  0  0
   25.2408  -21.1148  -11.0837 C   0  0  1  0  0  0  0  0  0  0  0  0
   25.6315  -20.6159   -9.7440 C   0  0  0  0  0  0  0  0  0  0  0  0
   25.8402  -20.4901  -12.2682 C   0  0  0  0  0  0  0  0  0  0  0  0
   25.1186  -20.5234  -13.5590 C   0  0  2  0  0  0  0  0  0  0  0  0
   25.8422  -19.9311  -14.6521 N   0  0  0  0  0  0  0  0  0  0  0  0
   23.7183  -20.0386  -13.4734 C   0  0  0  0  0  0  0  0  0  0  0  0
   23.4801  -19.0798  -12.6978 O   0  0  0  0  0  0  0  0  0  0  0  0
   22.6358  -20.5865  -14.2084 N   0  0  0  0  0  0  0  0  0  0  0  0
   21.2786  -20.0687  -14.1210 C   0  0  1  0  0  0  0  0  0  0  0  0
   20.8963  -19.3287  -15.3806 C   0  0  0  0  0  0  0  0  0  0  0  0
   21.4629  -19.9616  -16.5939 C   0  0  0  0  0  0  0  0  0  0  0  0
   21.2997  -21.2488  -17.0517 C   0  0  0  0  0  0  0  0  0  0  0  0
   21.9836  -21.4162  -18.1901 N   0  0  0  0  0  0  0  0  0  0  0  0
   22.6123  -20.2638  -18.5182 C   0  0  0  0  0  0  0  0  0  0  0  0
   23.4311  -19.8851  -19.5600 C   0  0  0  0  0  0  0  0  0  0  0  0
   23.9537  -18.5995  -19.6498 C   0  0  0  0  0  0  0  0  0  0  0  0
   23.6048  -17.7301  -18.6383 C   0  0  0  0  0  0  0  0  0  0  0  0
   22.7862  -18.0950  -17.5892 C   0  0  0  0  0  0  0  0  0  0  0  0
   22.2902  -19.3570  -17.5269 C   0  0  0  0  0  0  0  0  0  0  0  0
   20.3818  -21.2800  -14.0706 C   0  0  0  0  0  0  0  0  0  0  0  0
   20.9133  -22.5598  -14.2186 O   0  0  0  0  0  0  0  0  0  0  0  0
   19.1418  -21.1970  -13.8971 O   0  0  0  0  0  0  0  0  0  0  0  0
  2  1  1  0
  3  2  1  0
  3  4  2  0
  6  5  1  1
  6  7  1  0
  8  6  1  0
  9  8  1  1
  9 10  1  0
 10  3  1  0
 11  9  1  0
 12 11  2  0
 13 11  1  0
 14 13  1  0
 14 25  1  0
 14 15  1  6
 16 15  1  0
 17 16  2  0
 18 17  1  0
 19 18  1  0
 19 24  2  0
 20 19  1  0
 21 20  2  0
 21 22  1  0
 22 23  2  0
 23 24  1  0
 24 16  1  0
 25 26  1  0
 27 25  2  0
M  END
$$$$
