GLW.pdb
     RDKit          3D

 27 28  0  0  1  0  0  0  0  0999 V2000
   28.4220  -20.9354  -15.0277 N   0  0  0  0  0  0  0  0  0  0  0  0
   27.4536  -21.8389  -15.6061 C   0  0  0  0  0  0  0  0  0  0  0  0
   26.2526  -21.1485  -16.0970 C   0  0  0  0  0  0  0  0  0  0  0  0
   25.9375  -19.9999  -15.7013 O   0  0  0  0  0  0  0  0  0  0  0  0
   24.7236  -19.8925  -21.0537 C   0  0  0  0  0  0  0  0  0  0  0  0
   24.8911  -19.8142  -19.5216 C   0  0  1  0  0  0  0  0  0  0  0  0
   24.5220  -18.4379  -19.1139 C   0  0  0  0  0  0  0  0  0  0  0  0
   24.1305  -20.9391  -18.9660 C   0  0  0  0  0  0  0  0  0  0  0  0
   24.1653  -21.1997  -17.5103 C   0  0  2  0  0  0  0  0  0  0  0  0
   25.4026  -21.7665  -17.0444 N   0  0  0  0  0  0  0  0  0  0  0  0
   22.9771  -21.9325  -17.0059 C   0  0  0  0  0  0  0  0  0  0  0  0
   22.9089  -23.1642  -17.2414 O   0  0  0  0  0  0  0  0  0  0  0  0
   21.9175  -21.3332  -16.2777 N   0  0  0  0  0  0  0  0  0  0  0  0
   20.7702  -22.0838  -15.7897 C   0  0  1  0  0  0  0  0  0  0  0  0
   20.8400  -22.2726  -14.2931 C   0  0  0  0  0  0  0  0  0  0  0  0
   21.9226  -21.4698  -13.6789 C   0  0  0  0  0  0  0  0  0  0  0  0
   21.9570  -20.1177  -13.4267 C   0  0  0  0  0  0  0  0  0  0  0  0
   23.1239  -19.7911  -12.8581 N   0  0  0  0  0  0  0  0  0  0  0  0
   23.8885  -20.8986  -12.7175 C   0  0  0  0  0  0  0  0  0  0  0  0
   25.1477  -21.1322  -12.2084 C   0  0  0  0  0  0  0  0  0  0  0  0
   25.7044  -22.4063  -12.1896 C   0  0  0  0  0  0  0  0  0  0  0  0
   24.9244  -23.4177  -12.7087 C   0  0  0  0  0  0  0  0  0  0  0  0
   23.6624  -23.1990  -13.2216 C   0  0  0  0  0  0  0  0  0  0  0  0
   23.1436  -21.9446  -13.2273 C   0  0  0  0  0  0  0  0  0  0  0  0
   19.5713  -21.2026  -16.0349 C   0  0  0  0  0  0  0  0  0  0  0  0
   18.2858  -21.6655  -15.7603 O   0  0  0  0  0  0  0  0  0  0  0  0
   19.6700  -20.0365  -16.4877 O   0  0  0  0  0  0  0  0  0  0  0  0
  2  1  1  0
  3  2  1  0
  3  4  2  0
  6  5  1  6
  6  7  1  0
  8  6  1  0
  9  8  1  6
  9 10  1  0
 10  3  1  0
 11  9  1  0
 12 11  2  0
 13 11  1  0
 14 13  1  0
 14 25  1  0
 14 15  1  1
 16 15  1  0
 17 16  2  0
 18 17  1  0
 19 18  1  0
 19 24  2  0
 20 19  1  0
 21 20  2  0
 21 22  1  0
 22 23  2  0
 23 24  1  0
 24 16  1  0
 25 26  1  0
 27 25  2  0
M  END
$$$$
