GLW.pdb
     RDKit          3D

 27 28  0  0  1  0  0  0  0  0999 V2000
   24.5920  -16.8577  -14.4133 N   0  0  0  0  0  0  0  0  0  0  0  0
   25.4137  -17.2684  -13.2976 C   0  0  0  0  0  0  0  0  0  0  0  0
   25.7191  -18.7060  -13.3139 C   0  0  0  0  0  0  0  0  0  0  0  0
   25.0138  -19.5284  -13.9473 O   0  0  0  0  0  0  0  0  0  0  0  0
   30.9968  -20.2957  -13.0734 C   0  0  0  0  0  0  0  0  0  0  0  0
   29.5418  -19.8650  -13.3542 C   0  0  1  0  0  0  0  0  0  0  0  0
   29.3989  -19.7496  -14.8248 C   0  0  0  0  0  0  0  0  0  0  0  0
   28.6849  -20.8165  -12.6379 C   0  0  0  0  0  0  0  0  0  0  0  0
   27.2223  -20.5989  -12.5970 C   0  0  2  0  0  0  0  0  0  0  0  0
   26.8338  -19.2139  -12.6058 N   0  0  0  0  0  0  0  0  0  0  0  0
   26.5317  -21.3779  -11.5390 C   0  0  0  0  0  0  0  0  0  0  0  0
   26.5388  -22.6298  -11.6386 O   0  0  0  0  0  0  0  0  0  0  0  0
   25.8666  -20.8013  -10.4265 N   0  0  0  0  0  0  0  0  0  0  0  0
   25.0061  -21.5663   -9.5366 C   0  0  1  0  0  0  0  0  0  0  0  0
   25.5904  -21.6414   -8.1462 C   0  0  0  0  0  0  0  0  0  0  0  0
   26.2479  -20.3754   -7.7477 C   0  0  0  0  0  0  0  0  0  0  0  0
   26.1895  -19.1437   -8.3580 C   0  0  0  0  0  0  0  0  0  0  0  0
   26.9299  -18.2625   -7.6746 N   0  0  0  0  0  0  0  0  0  0  0  0
   27.4940  -18.8721   -6.6064 C   0  0  0  0  0  0  0  0  0  0  0  0
   28.3288  -18.4484   -5.5951 C   0  0  0  0  0  0  0  0  0  0  0  0
   28.7684  -19.3132   -4.5987 C   0  0  0  0  0  0  0  0  0  0  0  0
   28.3209  -20.6144   -4.6830 C   0  0  0  0  0  0  0  0  0  0  0  0
   27.4851  -21.0529   -5.6894 C   0  0  0  0  0  0  0  0  0  0  0  0
   27.0715  -20.1868   -6.6493 C   0  0  0  0  0  0  0  0  0  0  0  0
   23.7375  -20.7618   -9.4038 C   0  0  0  0  0  0  0  0  0  0  0  0
   23.5768  -19.5730  -10.1131 O   0  0  0  0  0  0  0  0  0  0  0  0
   22.7866  -21.1149   -8.6651 O   0  0  0  0  0  0  0  0  0  0  0  0
  2  1  1  0
  3  2  1  0
  3  4  2  0
  6  5  1  6
  6  7  1  0
  8  6  1  0
  9  8  1  1
  9 10  1  0
 10  3  1  0
 11  9  1  0
 12 11  2  0
 13 11  1  0
 14 13  1  0
 14 25  1  0
 14 15  1  1
 16 15  1  0
 17 16  2  0
 18 17  1  0
 19 18  1  0
 19 24  2  0
 20 19  1  0
 21 20  2  0
 21 22  1  0
 22 23  2  0
 23 24  1  0
 24 16  1  0
 25 26  1  0
 27 25  2  0
M  END
$$$$
