GLW.pdb
     RDKit          3D

 27 28  0  0  1  0  0  0  0  0999 V2000
   22.5513  -18.8204  -15.4182 N   0  0  0  0  0  0  0  0  0  0  0  0
   23.5967  -18.4664  -14.4853 C   0  0  0  0  0  0  0  0  0  0  0  0
   24.5912  -19.5346  -14.3120 C   0  0  0  0  0  0  0  0  0  0  0  0
   24.2802  -20.7489  -14.3732 O   0  0  0  0  0  0  0  0  0  0  0  0
   30.0802  -18.3169  -14.9641 C   0  0  0  0  0  0  0  0  0  0  0  0
   28.6115  -18.7623  -15.1254 C   0  0  1  0  0  0  0  0  0  0  0  0
   28.4475  -19.2198  -16.5255 C   0  0  0  0  0  0  0  0  0  0  0  0
   28.3479  -19.7138  -14.0402 C   0  0  0  0  0  0  0  0  0  0  0  0
   26.9704  -20.2027  -13.8124 C   0  0  2  0  0  0  0  0  0  0  0  0
   25.9493  -19.2221  -14.0673 N   0  0  0  0  0  0  0  0  0  0  0  0
   26.7882  -20.8898  -12.5094 C   0  0  0  0  0  0  0  0  0  0  0  0
   27.6265  -21.7696  -12.1924 O   0  0  0  0  0  0  0  0  0  0  0  0
   25.7320  -20.6176  -11.6024 N   0  0  0  0  0  0  0  0  0  0  0  0
   25.7571  -21.0400  -10.2101 C   0  0  1  0  0  0  0  0  0  0  0  0
   26.6924  -20.1777   -9.3965 C   0  0  0  0  0  0  0  0  0  0  0  0
   26.5662  -20.4342   -7.9432 C   0  0  0  0  0  0  0  0  0  0  0  0
   25.5301  -21.0264   -7.2585 C   0  0  0  0  0  0  0  0  0  0  0  0
   25.8137  -21.0665   -5.9510 N   0  0  0  0  0  0  0  0  0  0  0  0
   27.0275  -20.5108   -5.7303 C   0  0  0  0  0  0  0  0  0  0  0  0
   27.7887  -20.2946   -4.6020 C   0  0  0  0  0  0  0  0  0  0  0  0
   29.0358  -19.6827   -4.6669 C   0  0  0  0  0  0  0  0  0  0  0  0
   29.4632  -19.3068   -5.9226 C   0  0  0  0  0  0  0  0  0  0  0  0
   28.7123  -19.5167   -7.0609 C   0  0  0  0  0  0  0  0  0  0  0  0
   27.4981  -20.1164   -6.9680 C   0  0  0  0  0  0  0  0  0  0  0  0
   24.3752  -20.7624   -9.6740 C   0  0  0  0  0  0  0  0  0  0  0  0
   23.9229  -21.4009   -8.5208 O   0  0  0  0  0  0  0  0  0  0  0  0
   23.5831  -19.9616  -10.2272 O   0  0  0  0  0  0  0  0  0  0  0  0
  2  1  1  0
  3  2  1  0
  3  4  2  0
  6  5  1  6
  6  7  1  0
  8  6  1  0
  9  8  1  1
  9 10  1  0
 10  3  1  0
 11  9  1  0
 12 11  2  0
 13 11  1  0
 14 13  1  0
 14 25  1  0
 14 15  1  1
 16 15  1  0
 17 16  2  0
 18 17  1  0
 19 18  1  0
 19 24  2  0
 20 19  1  0
 21 20  2  0
 21 22  1  0
 22 23  2  0
 23 24  1  0
 24 16  1  0
 25 26  1  0
 27 25  2  0
M  END
$$$$
