GLW.pdb
     RDKit          3D

 27 28  0  0  1  0  0  0  0  0999 V2000
   25.2340  -15.1463  -16.3010 N   0  0  0  0  0  0  0  0  0  0  0  0
   25.2399  -15.7555  -14.9905 C   0  0  0  0  0  0  0  0  0  0  0  0
   24.9862  -17.2025  -15.0339 C   0  0  0  0  0  0  0  0  0  0  0  0
   24.1105  -17.7018  -15.7815 O   0  0  0  0  0  0  0  0  0  0  0  0
   28.9661  -20.9777  -13.6121 C   0  0  0  0  0  0  0  0  0  0  0  0
   27.9426  -20.1217  -14.3874 C   0  0  1  0  0  0  0  0  0  0  0  0
   28.0450  -20.5083  -15.8144 C   0  0  0  0  0  0  0  0  0  0  0  0
   26.6567  -20.2967  -13.7029 C   0  0  0  0  0  0  0  0  0  0  0  0
   25.4840  -19.5037  -14.1319 C   0  0  2  0  0  0  0  0  0  0  0  0
   25.7321  -18.0897  -14.2225 N   0  0  0  0  0  0  0  0  0  0  0  0
   24.2431  -19.8176  -13.3804 C   0  0  0  0  0  0  0  0  0  0  0  0
   24.1354  -19.3592  -12.2161 O   0  0  0  0  0  0  0  0  0  0  0  0
   23.1749  -20.5991  -13.8907 N   0  0  0  0  0  0  0  0  0  0  0  0
   21.9474  -20.8414  -13.1476 C   0  0  1  0  0  0  0  0  0  0  0  0
   21.1590  -19.5660  -12.9682 C   0  0  0  0  0  0  0  0  0  0  0  0
   19.9348  -19.7751  -12.1612 C   0  0  0  0  0  0  0  0  0  0  0  0
   19.8091  -19.8764  -10.7949 C   0  0  0  0  0  0  0  0  0  0  0  0
   18.5241  -20.0626  -10.4694 N   0  0  0  0  0  0  0  0  0  0  0  0
   17.7688  -20.0904  -11.5917 C   0  0  0  0  0  0  0  0  0  0  0  0
   16.4215  -20.2509  -11.8330 C   0  0  0  0  0  0  0  0  0  0  0  0
   15.9028  -20.2391  -13.1233 C   0  0  0  0  0  0  0  0  0  0  0  0
   16.8135  -20.0580  -14.1423 C   0  0  0  0  0  0  0  0  0  0  0  0
   18.1650  -19.8960  -13.9160 C   0  0  0  0  0  0  0  0  0  0  0  0
   18.6437  -19.9118  -12.6459 C   0  0  0  0  0  0  0  0  0  0  0  0
   21.1020  -21.7233  -14.0317 C   0  0  0  0  0  0  0  0  0  0  0  0
   20.2473  -22.6721  -13.4736 O   0  0  0  0  0  0  0  0  0  0  0  0
   21.1262  -21.6482  -15.2840 O   0  0  0  0  0  0  0  0  0  0  0  0
  2  1  1  0
  3  2  1  0
  3  4  2  0
  6  5  1  1
  6  7  1  0
  8  6  1  0
  9  8  1  1
  9 10  1  0
 10  3  1  0
 11  9  1  0
 12 11  2  0
 13 11  1  0
 14 13  1  0
 14 25  1  0
 14 15  1  6
 16 15  1  0
 17 16  2  0
 18 17  1  0
 19 18  1  0
 19 24  2  0
 20 19  1  0
 21 20  2  0
 21 22  1  0
 22 23  2  0
 23 24  1  0
 24 16  1  0
 25 26  1  0
 27 25  2  0
M  END
$$$$
