MRL.pdb
     RDKit          3D

 28 27  0  0  1  0  0  0  0  0999 V2000
   20.6772  -11.9576  -17.5342 C   0  0  0  0  0  0  0  0  0  0  0  0
   21.9480  -10.9188  -16.7622 S   0  0  0  0  0  0  0  0  0  0  0  0
   23.5989  -11.6443  -17.0116 C   0  0  0  0  0  0  0  0  0  0  0  0
   23.4592  -13.1545  -17.0853 C   0  0  0  0  0  0  0  0  0  0  0  0
   24.8283  -13.7775  -17.2907 C   0  0  2  0  0  0  0  0  0  0  0  0
   25.3447  -13.4860  -18.6004 N   0  0  0  0  0  0  0  0  0  0  0  0
   24.7686  -15.2009  -17.0007 C   0  0  0  0  0  0  0  0  0  0  0  0
   24.2201  -16.0444  -17.7858 O   0  0  0  0  0  0  0  0  0  0  0  0
   25.8914  -20.4450  -10.4130 N   0  0  0  0  0  0  0  0  0  0  0  0
   26.2696  -21.2080  -11.5312 C   0  0  0  0  0  0  0  0  0  0  0  0
   25.8515  -22.4155  -11.7146 N   0  0  0  0  0  0  0  0  0  0  0  0
   27.1298  -20.6478  -12.4938 N   0  0  0  0  0  0  0  0  0  0  0  0
   27.2161  -19.2586  -12.8427 C   0  0  0  0  0  0  0  0  0  0  0  0
   26.1555  -18.9364  -13.8716 C   0  0  0  0  0  0  0  0  0  0  0  0
   26.2379  -17.5513  -14.3800 C   0  0  0  0  0  0  0  0  0  0  0  0
   25.3078  -17.1257  -15.4463 C   0  0  2  0  0  0  0  0  0  0  0  0
   25.3223  -15.7327  -15.8108 N   0  0  0  0  0  0  0  0  0  0  0  0
   23.9223  -17.4582  -14.9774 C   0  0  0  0  0  0  0  0  0  0  0  0
   23.1813  -16.5759  -14.4464 O   0  0  0  0  0  0  0  0  0  0  0  0
   26.1625  -22.9177  -12.5758 C   0  0  0  0  0  0  0  0  0  0  0  0
   19.1929  -17.9955  -17.2220 C   0  0  2  0  0  0  0  0  0  0  0  0
   19.7677  -18.1964  -15.8281 C   0  0  0  0  0  0  0  0  0  0  0  0
   19.3982  -19.5664  -15.2746 C   0  0  0  0  0  0  0  0  0  0  0  0
   21.2603  -18.1615  -15.9296 C   0  0  1  0  0  0  0  0  0  0  0  0
   21.9679  -19.0189  -14.9012 N   0  0  0  0  0  0  0  0  0  0  0  0
   23.4003  -18.7483  -15.1086 C   0  0  0  0  0  0  0  0  0  0  0  0
   21.7163  -20.4627  -15.0821 O   0  0  0  0  0  0  0  0  0  0  0  0
   22.1823  -21.1365  -16.0351 O   0  0  0  0  0  0  0  0  0  0  0  0
  2  1  1  0
  3  2  1  0
  4  3  1  0
  4  5  1  0
  5  6  1  6
  7  5  1  0
  7  8  2  0
 10  9  1  0
 10 12  1  0
 11 10  2  0
 13 14  1  0
 13 12  1  0
 15 14  1  0
 16 15  1  1
 16 17  1  0
 17  7  1  0
 18 16  1  0
 19 18  2  0
 21 20  1  1
 21 23  1  0
 22 21  1  0
 24 23  1  1
 24 25  1  0
 24 26  1  0
 25 18  1  0
 26 28  1  0
 27 26  2  0
M  END
$$$$
