MRL.pdb
     RDKit          3D

 28 27  0  0  1  0  0  0  0  0999 V2000
   27.8968  -17.9484   -7.1987 C   0  0  0  0  0  0  0  0  0  0  0  0
   27.8962  -19.6428   -6.5512 S   0  0  0  0  0  0  0  0  0  0  0  0
   26.7943  -20.7007   -7.5415 C   0  0  0  0  0  0  0  0  0  0  0  0
   26.5267  -20.0141   -8.8691 C   0  0  0  0  0  0  0  0  0  0  0  0
   25.6196  -20.8896   -9.7150 C   0  0  2  0  0  0  0  0  0  0  0  0
   26.1865  -22.1964   -9.9096 N   0  0  0  0  0  0  0  0  0  0  0  0
   25.3031  -20.2097  -10.9606 C   0  0  0  0  0  0  0  0  0  0  0  0
   24.7628  -19.0541  -11.0000 O   0  0  0  0  0  0  0  0  0  0  0  0
   26.2166  -23.3081  -18.2129 N   0  0  0  0  0  0  0  0  0  0  0  0
   26.6552  -24.1779  -17.1996 C   0  0  0  0  0  0  0  0  0  0  0  0
   26.4638  -25.4533  -17.2558 N   0  0  0  0  0  0  0  0  0  0  0  0
   27.3312  -23.6547  -16.0817 N   0  0  0  0  0  0  0  0  0  0  0  0
   27.5678  -22.2654  -15.8119 C   0  0  0  0  0  0  0  0  0  0  0  0
   26.8726  -21.8822  -14.5245 C   0  0  0  0  0  0  0  0  0  0  0  0
   25.9816  -20.7122  -14.6688 C   0  0  0  0  0  0  0  0  0  0  0  0
   25.2217  -20.2440  -13.4912 C   0  0  2  0  0  0  0  0  0  0  0  0
   25.5796  -20.8063  -12.2147 N   0  0  0  0  0  0  0  0  0  0  0  0
   23.7793  -20.5698  -13.7428 C   0  0  0  0  0  0  0  0  0  0  0  0
   23.1904  -21.4831  -13.0882 O   0  0  0  0  0  0  0  0  0  0  0  0
   26.8705  -26.0451  -16.4976 C   0  0  0  0  0  0  0  0  0  0  0  0
   19.3710  -19.7513  -12.1812 C   0  0  2  0  0  0  0  0  0  0  0  0
   19.8883  -18.6472  -13.0906 C   0  0  0  0  0  0  0  0  0  0  0  0
   19.8225  -17.2914  -12.3995 C   0  0  0  0  0  0  0  0  0  0  0  0
   21.3328  -18.9155  -13.3751 C   0  0  1  0  0  0  0  0  0  0  0  0
   21.5706  -19.7684  -14.6037 N   0  0  0  0  0  0  0  0  0  0  0  0
   23.0354  -19.8804  -14.7048 C   0  0  0  0  0  0  0  0  0  0  0  0
   21.0448  -19.1574  -15.8409 O   0  0  0  0  0  0  0  0  0  0  0  0
   21.6869  -18.3309  -16.5365 O   0  0  0  0  0  0  0  0  0  0  0  0
  2  1  1  0
  3  2  1  0
  4  3  1  0
  4  5  1  0
  5  6  1  6
  7  5  1  0
  7  8  2  0
 10  9  1  0
 10 12  1  0
 11 10  2  0
 13 14  1  0
 13 12  1  0
 15 14  1  0
 16 15  1  6
 16 17  1  0
 17  7  1  0
 18 16  1  0
 19 18  2  0
 21 20  1  6
 21 23  1  0
 22 21  1  0
 24 23  1  1
 24 25  1  0
 24 26  1  0
 25 18  1  0
 26 28  1  0
 27 26  2  0
M  END
$$$$
