MRL.pdb
     RDKit          3D

 28 27  0  0  1  0  0  0  0  0999 V2000
   22.9875  -21.0096   -6.5490 C   0  0  0  0  0  0  0  0  0  0  0  0
   22.8122  -19.8419   -7.9259 S   0  0  0  0  0  0  0  0  0  0  0  0
   21.8527  -20.5939   -9.2780 C   0  0  0  0  0  0  0  0  0  0  0  0
   20.6972  -21.3745   -8.6772 C   0  0  0  0  0  0  0  0  0  0  0  0
   19.9447  -22.0917   -9.7837 C   0  0  2  0  0  0  0  0  0  0  0  0
   19.4983  -21.1718  -10.7944 N   0  0  0  0  0  0  0  0  0  0  0  0
   18.8677  -22.8834   -9.2117 C   0  0  0  0  0  0  0  0  0  0  0  0
   17.6444  -22.5223   -9.2570 O   0  0  0  0  0  0  0  0  0  0  0  0
   16.9434  -28.7460  -11.4668 N   0  0  0  0  0  0  0  0  0  0  0  0
   16.1290  -29.3912  -10.5203 C   0  0  0  0  0  0  0  0  0  0  0  0
   14.9700  -29.8728  -10.8226 N   0  0  0  0  0  0  0  0  0  0  0  0
   16.5814  -29.5276   -9.1947 N   0  0  0  0  0  0  0  0  0  0  0  0
   17.7411  -28.8996   -8.6294 C   0  0  0  0  0  0  0  0  0  0  0  0
   17.3762  -27.5086   -8.1610 C   0  0  0  0  0  0  0  0  0  0  0  0
   18.3904  -26.4915   -8.5085 C   0  0  0  0  0  0  0  0  0  0  0  0
   18.1199  -25.0749   -8.1871 C   0  0  2  0  0  0  0  0  0  0  0  0
   19.1255  -24.1146   -8.5614 N   0  0  0  0  0  0  0  0  0  0  0  0
   17.9414  -24.9895   -6.7001 C   0  0  0  0  0  0  0  0  0  0  0  0
   18.9399  -24.8709   -5.9265 O   0  0  0  0  0  0  0  0  0  0  0  0
   14.4386  -30.3779  -10.0791 C   0  0  0  0  0  0  0  0  0  0  0  0
   15.3346  -22.9685   -2.5881 C   0  0  2  0  0  0  0  0  0  0  0  0
   14.6341  -24.2258   -3.0802 C   0  0  0  0  0  0  0  0  0  0  0  0
   13.1217  -24.0453   -3.0839 C   0  0  0  0  0  0  0  0  0  0  0  0
   15.0428  -24.4622   -4.5002 C   0  0  1  0  0  0  0  0  0  0  0  0
   16.4913  -24.8725   -4.6643 N   0  0  0  0  0  0  0  0  0  0  0  0
   16.6723  -25.0376   -6.1162 C   0  0  0  0  0  0  0  0  0  0  0  0
   16.8104  -26.1459   -3.9882 O   0  0  0  0  0  0  0  0  0  0  0  0
   16.4281  -27.2690   -4.4026 O   0  0  0  0  0  0  0  0  0  0  0  0
  2  1  1  0
  3  2  1  0
  4  3  1  0
  4  5  1  0
  5  6  1  6
  7  5  1  0
  7  8  2  0
 10  9  1  0
 10 12  1  0
 11 10  2  0
 13 14  1  0
 13 12  1  0
 15 14  1  0
 16 15  1  1
 16 17  1  0
 17  7  1  0
 18 16  1  0
 19 18  2  0
 21 20  1  1
 21 23  1  0
 22 21  1  0
 24 23  1  6
 24 25  1  0
 24 26  1  0
 25 18  1  0
 26 28  1  0
 27 26  2  0
M  END
$$$$
