MRL.pdb
     RDKit          3D

 28 27  0  0  1  0  0  0  0  0999 V2000
   16.7384  -16.9183  -16.8854 C   0  0  0  0  0  0  0  0  0  0  0  0
   17.7945  -15.9153  -17.9663 S   0  0  0  0  0  0  0  0  0  0  0  0
   19.5281  -16.0002  -17.4170 C   0  0  0  0  0  0  0  0  0  0  0  0
   19.6723  -17.1559  -16.4427 C   0  0  0  0  0  0  0  0  0  0  0  0
   21.1045  -17.2175  -15.9429 C   0  0  2  0  0  0  0  0  0  0  0  0
   22.0423  -17.0724  -17.0229 N   0  0  0  0  0  0  0  0  0  0  0  0
   21.3028  -18.4326  -15.1695 C   0  0  0  0  0  0  0  0  0  0  0  0
   20.5849  -18.7337  -14.1581 O   0  0  0  0  0  0  0  0  0  0  0  0
   25.8692  -25.7217  -15.7027 N   0  0  0  0  0  0  0  0  0  0  0  0
   25.3682  -25.1866  -16.9019 C   0  0  0  0  0  0  0  0  0  0  0  0
   25.9760  -25.3376  -18.0308 N   0  0  0  0  0  0  0  0  0  0  0  0
   24.1616  -24.4625  -16.8871 N   0  0  0  0  0  0  0  0  0  0  0  0
   23.5771  -23.8187  -15.7456 C   0  0  0  0  0  0  0  0  0  0  0  0
   22.2918  -23.1384  -16.1610 C   0  0  0  0  0  0  0  0  0  0  0  0
   22.4448  -21.6845  -16.3765 C   0  0  0  0  0  0  0  0  0  0  0  0
   22.2731  -20.7706  -15.2281 C   0  0  2  0  0  0  0  0  0  0  0  0
   22.3218  -19.3578  -15.5022 N   0  0  0  0  0  0  0  0  0  0  0  0
   23.3693  -21.0823  -14.2528 C   0  0  0  0  0  0  0  0  0  0  0  0
   23.4286  -22.2088  -13.6723 O   0  0  0  0  0  0  0  0  0  0  0  0
   25.5197  -24.9567  -18.8893 C   0  0  0  0  0  0  0  0  0  0  0  0
   24.7734  -20.9220   -9.3375 C   0  0  2  0  0  0  0  0  0  0  0  0
   25.3574  -20.2365  -10.5634 C   0  0  0  0  0  0  0  0  0  0  0  0
   26.8760  -20.3518  -10.5849 C   0  0  0  0  0  0  0  0  0  0  0  0
   24.8546  -20.9483  -11.7798 C   0  0  2  0  0  0  0  0  0  0  0  0
   25.4936  -20.4857  -13.0725 N   0  0  0  0  0  0  0  0  0  0  0  0
   24.3612  -20.1450  -13.9499 C   0  0  0  0  0  0  0  0  0  0  0  0
   26.3101  -21.5323  -13.7195 O   0  0  0  0  0  0  0  0  0  0  0  0
   25.9085  -22.2324  -14.6828 O   0  0  0  0  0  0  0  0  0  0  0  0
  2  1  1  0
  3  2  1  0
  4  3  1  0
  4  5  1  0
  5  6  1  6
  7  5  1  0
  7  8  2  0
 10  9  1  0
 10 12  1  0
 11 10  2  0
 13 14  1  0
 13 12  1  0
 15 14  1  0
 16 15  1  6
 16 17  1  0
 17  7  1  0
 18 16  1  0
 19 18  2  0
 21 20  1  1
 21 23  1  0
 22 21  1  0
 24 23  1  1
 24 25  1  0
 24 26  1  0
 25 18  1  0
 26 28  1  0
 27 26  2  0
M  END
$$$$
