MRL.pdb
     RDKit          3D

 28 27  0  0  1  0  0  0  0  0999 V2000
   26.7698  -24.1681  -19.8652 C   0  0  0  0  0  0  0  0  0  0  0  0
   27.3155  -22.5889  -20.5713 S   0  0  0  0  0  0  0  0  0  0  0  0
   27.1983  -21.2635  -19.3288 C   0  0  0  0  0  0  0  0  0  0  0  0
   26.2916  -21.7315  -18.2042 C   0  0  0  0  0  0  0  0  0  0  0  0
   26.1856  -20.6391  -17.1553 C   0  0  2  0  0  0  0  0  0  0  0  0
   27.4836  -20.1559  -16.7699 N   0  0  0  0  0  0  0  0  0  0  0  0
   25.3922  -21.1119  -16.0324 C   0  0  0  0  0  0  0  0  0  0  0  0
   24.3613  -21.8505  -16.1761 O   0  0  0  0  0  0  0  0  0  0  0  0
   28.5285  -21.5287   -9.4065 N   0  0  0  0  0  0  0  0  0  0  0  0
   27.5835  -20.7361   -8.7324 C   0  0  0  0  0  0  0  0  0  0  0  0
   27.9082  -19.9597   -7.7535 N   0  0  0  0  0  0  0  0  0  0  0  0
   26.2343  -20.7773   -9.1302 N   0  0  0  0  0  0  0  0  0  0  0  0
   25.6198  -21.7998   -9.9277 C   0  0  0  0  0  0  0  0  0  0  0  0
   24.7727  -21.1532  -11.0008 C   0  0  0  0  0  0  0  0  0  0  0  0
   25.5359  -20.8107  -12.2189 C   0  0  0  0  0  0  0  0  0  0  0  0
   24.9490  -21.1193  -13.5394 C   0  0  2  0  0  0  0  0  0  0  0  0
   25.7263  -20.7687  -14.6999 N   0  0  0  0  0  0  0  0  0  0  0  0
   23.6472  -20.3789  -13.6239 C   0  0  0  0  0  0  0  0  0  0  0  0
   23.6085  -19.1126  -13.5562 O   0  0  0  0  0  0  0  0  0  0  0  0
   27.1703  -19.3382   -7.3537 C   0  0  0  0  0  0  0  0  0  0  0  0
   19.5778  -18.4140  -15.6748 C   0  0  2  0  0  0  0  0  0  0  0  0
   19.4598  -19.9284  -15.7551 C   0  0  0  0  0  0  0  0  0  0  0  0
   19.1569  -20.3803  -17.1777 C   0  0  0  0  0  0  0  0  0  0  0  0
   20.7848  -20.5196  -15.3887 C   0  0  1  0  0  0  0  0  0  0  0  0
   21.1650  -20.3264  -13.9356 N   0  0  0  0  0  0  0  0  0  0  0  0
   22.4344  -21.0561  -13.7796 C   0  0  0  0  0  0  0  0  0  0  0  0
   20.1679  -20.8828  -12.9993 O   0  0  0  0  0  0  0  0  0  0  0  0
   19.1333  -20.2679  -12.6377 O   0  0  0  0  0  0  0  0  0  0  0  0
  2  1  1  0
  3  2  1  0
  4  3  1  0
  4  5  1  0
  5  6  1  1
  7  5  1  0
  7  8  2  0
 10  9  1  0
 10 12  1  0
 11 10  2  0
 13 14  1  0
 13 12  1  0
 15 14  1  0
 16 15  1  1
 16 17  1  0
 17  7  1  0
 18 16  1  0
 19 18  2  0
 21 20  1  1
 21 23  1  0
 22 21  1  0
 24 23  1  6
 24 25  1  0
 24 26  1  0
 25 18  1  0
 26 28  1  0
 27 26  2  0
M  END
$$$$
