MRL.pdb
     RDKit          3D

 28 27  0  0  1  0  0  0  0  0999 V2000
   19.4567  -27.0196  -18.2140 C   0  0  0  0  0  0  0  0  0  0  0  0
   18.9125  -27.1733  -16.4906 S   0  0  0  0  0  0  0  0  0  0  0  0
   19.4317  -25.7177  -15.5285 C   0  0  0  0  0  0  0  0  0  0  0  0
   20.8250  -25.9704  -14.9802 C   0  0  0  0  0  0  0  0  0  0  0  0
   21.8466  -25.2726  -15.8601 C   0  0  2  0  0  0  0  0  0  0  0  0
   23.0384  -26.0632  -16.0063 N   0  0  0  0  0  0  0  0  0  0  0  0
   22.1032  -23.9358  -15.3492 C   0  0  0  0  0  0  0  0  0  0  0  0
   22.8610  -23.7121  -14.3469 O   0  0  0  0  0  0  0  0  0  0  0  0
   24.6899  -18.0292  -18.4153 N   0  0  0  0  0  0  0  0  0  0  0  0
   23.6891  -18.7914  -19.0422 C   0  0  0  0  0  0  0  0  0  0  0  0
   23.9322  -19.5384  -20.0666 N   0  0  0  0  0  0  0  0  0  0  0  0
   22.3735  -18.7515  -18.5444 N   0  0  0  0  0  0  0  0  0  0  0  0
   21.9332  -18.0420  -17.3775 C   0  0  0  0  0  0  0  0  0  0  0  0
   21.9168  -18.9865  -16.1965 C   0  0  0  0  0  0  0  0  0  0  0  0
   21.7821  -20.4055  -16.5864 C   0  0  0  0  0  0  0  0  0  0  0  0
   21.7424  -21.4360  -15.5282 C   0  0  2  0  0  0  0  0  0  0  0  0
   21.5131  -22.7950  -15.9454 N   0  0  0  0  0  0  0  0  0  0  0  0
   20.6364  -21.0564  -14.5886 C   0  0  0  0  0  0  0  0  0  0  0  0
   19.4256  -21.3180  -14.8627 O   0  0  0  0  0  0  0  0  0  0  0  0
   23.1396  -20.0779  -20.4805 C   0  0  0  0  0  0  0  0  0  0  0  0
   21.5633  -19.9410   -9.1162 C   0  0  2  0  0  0  0  0  0  0  0  0
   20.7498  -20.5280  -10.2596 C   0  0  0  0  0  0  0  0  0  0  0  0
   19.3867  -21.0043   -9.7749 C   0  0  0  0  0  0  0  0  0  0  0  0
   20.4963  -19.4419  -11.2574 C   0  0  2  0  0  0  0  0  0  0  0  0
   19.8091  -19.9147  -12.5213 N   0  0  0  0  0  0  0  0  0  0  0  0
   20.9001  -20.4030  -13.3814 C   0  0  0  0  0  0  0  0  0  0  0  0
   19.0851  -18.8357  -13.2227 O   0  0  0  0  0  0  0  0  0  0  0  0
   19.6282  -18.0487  -14.0383 O   0  0  0  0  0  0  0  0  0  0  0  0
  2  1  1  0
  3  2  1  0
  4  3  1  0
  4  5  1  0
  5  6  1  1
  7  5  1  0
  7  8  2  0
 10  9  1  0
 10 12  1  0
 11 10  2  0
 13 14  1  0
 13 12  1  0
 15 14  1  0
 16 15  1  6
 16 17  1  0
 17  7  1  0
 18 16  1  0
 19 18  2  0
 21 20  1  1
 21 23  1  0
 22 21  1  0
 24 23  1  1
 24 25  1  0
 24 26  1  0
 25 18  1  0
 26 28  1  0
 27 26  2  0
M  END
$$$$
