MRL.pdb
     RDKit          3D

 28 27  0  0  1  0  0  0  0  0999 V2000
   25.9370  -19.8972   -6.7217 C   0  0  0  0  0  0  0  0  0  0  0  0
   27.7481  -19.9411   -6.8107 S   0  0  0  0  0  0  0  0  0  0  0  0
   28.2911  -21.0228   -8.1705 C   0  0  0  0  0  0  0  0  0  0  0  0
   27.6427  -20.5461   -9.4582 C   0  0  0  0  0  0  0  0  0  0  0  0
   27.9915  -21.5048  -10.5825 C   0  0  2  0  0  0  0  0  0  0  0  0
   29.4115  -21.7108  -10.6729 N   0  0  0  0  0  0  0  0  0  0  0  0
   27.3984  -21.0399  -11.8259 C   0  0  0  0  0  0  0  0  0  0  0  0
   27.9663  -20.1871  -12.5868 O   0  0  0  0  0  0  0  0  0  0  0  0
   22.8418  -26.6965  -13.4963 N   0  0  0  0  0  0  0  0  0  0  0  0
   22.2840  -25.4203  -13.6848 C   0  0  0  0  0  0  0  0  0  0  0  0
   21.1517  -25.0799  -13.1666 N   0  0  0  0  0  0  0  0  0  0  0  0
   22.9743  -24.4696  -14.4594 N   0  0  0  0  0  0  0  0  0  0  0  0
   24.2718  -24.6412  -15.0478 C   0  0  0  0  0  0  0  0  0  0  0  0
   25.2537  -23.7127  -14.3688 C   0  0  0  0  0  0  0  0  0  0  0  0
   24.6981  -22.3694  -14.1031 C   0  0  0  0  0  0  0  0  0  0  0  0
   25.5938  -21.3169  -13.5804 C   0  0  2  0  0  0  0  0  0  0  0  0
   26.1377  -21.5149  -12.2618 N   0  0  0  0  0  0  0  0  0  0  0  0
   24.8052  -20.0411  -13.5598 C   0  0  0  0  0  0  0  0  0  0  0  0
   24.0588  -19.7485  -12.5765 O   0  0  0  0  0  0  0  0  0  0  0  0
   20.8358  -24.0912  -13.2821 C   0  0  0  0  0  0  0  0  0  0  0  0
   26.6352  -15.8241  -16.4812 C   0  0  2  0  0  0  0  0  0  0  0  0
   26.1185  -16.7648  -15.4033 C   0  0  0  0  0  0  0  0  0  0  0  0
   26.2139  -16.1243  -14.0246 C   0  0  0  0  0  0  0  0  0  0  0  0
   24.6662  -17.0169  -15.6611 C   0  0  2  0  0  0  0  0  0  0  0  0
   24.0107  -17.9331  -14.6490 N   0  0  0  0  0  0  0  0  0  0  0  0
   24.8647  -19.1323  -14.6202 C   0  0  0  0  0  0  0  0  0  0  0  0
   22.6384  -18.3244  -15.0285 O   0  0  0  0  0  0  0  0  0  0  0  0
   22.3597  -19.3946  -15.6255 O   0  0  0  0  0  0  0  0  0  0  0  0
  2  1  1  0
  3  2  1  0
  4  3  1  0
  4  5  1  0
  5  6  1  6
  7  5  1  0
  7  8  2  0
 10  9  1  0
 10 12  1  0
 11 10  2  0
 13 14  1  0
 13 12  1  0
 15 14  1  0
 16 15  1  1
 16 17  1  0
 17  7  1  0
 18 16  1  0
 19 18  2  0
 21 20  1  1
 21 23  1  0
 22 21  1  0
 24 23  1  1
 24 25  1  0
 24 26  1  0
 25 18  1  0
 26 28  1  0
 27 26  2  0
M  END
$$$$
