MRL.pdb
     RDKit          3D

 28 27  0  0  1  0  0  0  0  0999 V2000
   24.3095  -16.7368  -21.2980 C   0  0  0  0  0  0  0  0  0  0  0  0
   26.1102  -16.9510  -21.2600 S   0  0  0  0  0  0  0  0  0  0  0  0
   26.6627  -17.3855  -19.5807 C   0  0  0  0  0  0  0  0  0  0  0  0
   25.8669  -18.5876  -19.1039 C   0  0  0  0  0  0  0  0  0  0  0  0
   25.7866  -18.5692  -17.5879 C   0  0  2  0  0  0  0  0  0  0  0  0
   27.0482  -18.9170  -16.9927 N   0  0  0  0  0  0  0  0  0  0  0  0
   24.6898  -19.4142  -17.1441 C   0  0  0  0  0  0  0  0  0  0  0  0
   23.9511  -20.0701  -17.9521 O   0  0  0  0  0  0  0  0  0  0  0  0
   26.8092  -20.6446   -9.8990 N   0  0  0  0  0  0  0  0  0  0  0  0
   25.4471  -20.9448  -10.0727 C   0  0  0  0  0  0  0  0  0  0  0  0
   24.5915  -20.8450   -9.1111 N   0  0  0  0  0  0  0  0  0  0  0  0
   24.9854  -21.3660  -11.3335 N   0  0  0  0  0  0  0  0  0  0  0  0
   25.7549  -21.4075  -12.5439 C   0  0  0  0  0  0  0  0  0  0  0  0
   24.8723  -21.8742  -13.6799 C   0  0  0  0  0  0  0  0  0  0  0  0
   23.6837  -21.0201  -13.8838 C   0  0  0  0  0  0  0  0  0  0  0  0
   23.4159  -20.4797  -15.2327 C   0  0  2  0  0  0  0  0  0  0  0  0
   24.3778  -19.5524  -15.7698 N   0  0  0  0  0  0  0  0  0  0  0  0
   22.0931  -19.7753  -15.1675 C   0  0  0  0  0  0  0  0  0  0  0  0
   21.9775  -18.6512  -14.5907 O   0  0  0  0  0  0  0  0  0  0  0  0
   23.5962  -21.0890   -9.3117 C   0  0  0  0  0  0  0  0  0  0  0  0
   17.2025  -19.3636  -18.5778 C   0  0  2  0  0  0  0  0  0  0  0  0
   17.6197  -19.2941  -17.1167 C   0  0  0  0  0  0  0  0  0  0  0  0
   16.7019  -20.1397  -16.2434 C   0  0  0  0  0  0  0  0  0  0  0  0
   18.9908  -19.8811  -16.9947 C   0  0  1  0  0  0  0  0  0  0  0  0
   19.6398  -19.6550  -15.6452 N   0  0  0  0  0  0  0  0  0  0  0  0
   20.9446  -20.3311  -15.7384 C   0  0  0  0  0  0  0  0  0  0  0  0
   18.8697  -20.2397  -14.5292 O   0  0  0  0  0  0  0  0  0  0  0  0
   18.9901  -21.4316  -14.1495 O   0  0  0  0  0  0  0  0  0  0  0  0
  2  1  1  0
  3  2  1  0
  4  3  1  0
  4  5  1  0
  5  6  1  1
  7  5  1  0
  7  8  2  0
 10  9  1  0
 10 12  1  0
 11 10  2  0
 13 14  1  0
 13 12  1  0
 15 14  1  0
 16 15  1  1
 16 17  1  0
 17  7  1  0
 18 16  1  0
 19 18  2  0
 21 20  1  1
 21 23  1  0
 22 21  1  0
 24 23  1  6
 24 25  1  0
 24 26  1  0
 25 18  1  0
 26 28  1  0
 27 26  2  0
M  END
$$$$
