MRL.pdb
     RDKit          3D

 28 27  0  0  1  0  0  0  0  0999 V2000
   19.9559  -13.7049  -16.9055 C   0  0  0  0  0  0  0  0  0  0  0  0
   21.2496  -12.8926  -17.8835 S   0  0  0  0  0  0  0  0  0  0  0  0
   22.6100  -14.0530  -18.2256 C   0  0  0  0  0  0  0  0  0  0  0  0
   22.1860  -15.4420  -17.7822 C   0  0  0  0  0  0  0  0  0  0  0  0
   23.3822  -16.3752  -17.8374 C   0  0  2  0  0  0  0  0  0  0  0  0
   23.8933  -16.4923  -19.1761 N   0  0  0  0  0  0  0  0  0  0  0  0
   23.0344  -17.6550  -17.2414 C   0  0  0  0  0  0  0  0  0  0  0  0
   22.5085  -18.6081  -17.9076 O   0  0  0  0  0  0  0  0  0  0  0  0
   26.7481  -21.2320  -10.3139 N   0  0  0  0  0  0  0  0  0  0  0  0
   26.8716  -21.3050  -11.7121 C   0  0  0  0  0  0  0  0  0  0  0  0
   27.9956  -21.5638  -12.2919 N   0  0  0  0  0  0  0  0  0  0  0  0
   25.7387  -21.0947  -12.5200 N   0  0  0  0  0  0  0  0  0  0  0  0
   24.3923  -20.9172  -12.0567 C   0  0  0  0  0  0  0  0  0  0  0  0
   23.4802  -20.7064  -13.2445 C   0  0  0  0  0  0  0  0  0  0  0  0
   23.7766  -19.4683  -13.9949 C   0  0  0  0  0  0  0  0  0  0  0  0
   22.9901  -19.1632  -15.2080 C   0  0  2  0  0  0  0  0  0  0  0  0
   23.2622  -17.9125  -15.8678 N   0  0  0  0  0  0  0  0  0  0  0  0
   21.5456  -19.1589  -14.8039 C   0  0  0  0  0  0  0  0  0  0  0  0
   20.9742  -18.0907  -14.4270 O   0  0  0  0  0  0  0  0  0  0  0  0
   28.0314  -21.5234  -13.3347 C   0  0  0  0  0  0  0  0  0  0  0  0
   16.8796  -18.4396  -16.8912 C   0  0  2  0  0  0  0  0  0  0  0  0
   17.2798  -19.4083  -15.7889 C   0  0  0  0  0  0  0  0  0  0  0  0
   16.7585  -20.8106  -16.0750 C   0  0  0  0  0  0  0  0  0  0  0  0
   18.7732  -19.5003  -15.7682 C   0  0  1  0  0  0  0  0  0  0  0  0
   19.3254  -20.2957  -14.6038 N   0  0  0  0  0  0  0  0  0  0  0  0
   20.7803  -20.3284  -14.8282 C   0  0  0  0  0  0  0  0  0  0  0  0
   18.8114  -21.6791  -14.5546 O   0  0  0  0  0  0  0  0  0  0  0  0
   19.2724  -22.6182  -15.2509 O   0  0  0  0  0  0  0  0  0  0  0  0
  2  1  1  0
  3  2  1  0
  4  3  1  0
  4  5  1  0
  5  6  1  6
  7  5  1  0
  7  8  2  0
 10  9  1  0
 10 12  1  0
 11 10  2  0
 13 14  1  0
 13 12  1  0
 15 14  1  0
 16 15  1  1
 16 17  1  0
 17  7  1  0
 18 16  1  0
 19 18  2  0
 21 20  1  1
 21 23  1  0
 22 21  1  0
 24 23  1  1
 24 25  1  0
 24 26  1  0
 25 18  1  0
 26 28  1  0
 27 26  2  0
M  END
$$$$
