MRL.pdb
     RDKit          3D

 28 27  0  0  1  0  0  0  0  0999 V2000
   23.6090  -15.4653  -18.9047 C   0  0  0  0  0  0  0  0  0  0  0  0
   24.0858  -16.4840  -20.3277 S   0  0  0  0  0  0  0  0  0  0  0  0
   25.1339  -17.8727  -19.7917 C   0  0  0  0  0  0  0  0  0  0  0  0
   24.2800  -18.8479  -19.0007 C   0  0  0  0  0  0  0  0  0  0  0  0
   25.1412  -19.5430  -17.9615 C   0  0  2  0  0  0  0  0  0  0  0  0
   26.1615  -20.3455  -18.5793 N   0  0  0  0  0  0  0  0  0  0  0  0
   24.2966  -20.2929  -17.0458 C   0  0  0  0  0  0  0  0  0  0  0  0
   23.9287  -21.4941  -17.2706 O   0  0  0  0  0  0  0  0  0  0  0  0
   24.5426  -20.8317   -8.4307 N   0  0  0  0  0  0  0  0  0  0  0  0
   25.1747  -21.0100   -9.6733 C   0  0  0  0  0  0  0  0  0  0  0  0
   26.4541  -21.1431   -9.7828 N   0  0  0  0  0  0  0  0  0  0  0  0
   24.3984  -21.0506  -10.8464 N   0  0  0  0  0  0  0  0  0  0  0  0
   23.0581  -20.5584  -10.9895 C   0  0  0  0  0  0  0  0  0  0  0  0
   22.5693  -20.8445  -12.3918 C   0  0  0  0  0  0  0  0  0  0  0  0
   23.3523  -20.1505  -13.4354 C   0  0  0  0  0  0  0  0  0  0  0  0
   23.0314  -20.4035  -14.8553 C   0  0  2  0  0  0  0  0  0  0  0  0
   23.8286  -19.7181  -15.8393 N   0  0  0  0  0  0  0  0  0  0  0  0
   21.6034  -19.9931  -15.0615 C   0  0  0  0  0  0  0  0  0  0  0  0
   21.2623  -18.7715  -15.0310 O   0  0  0  0  0  0  0  0  0  0  0  0
   26.8574  -21.2450  -10.7406 C   0  0  0  0  0  0  0  0  0  0  0  0
   18.5530  -22.9858  -18.4156 C   0  0  1  0  0  0  0  0  0  0  0  0
   19.1093  -21.7251  -17.7717 C   0  0  0  0  0  0  0  0  0  0  0  0
   18.5865  -20.4762  -18.4694 C   0  0  0  0  0  0  0  0  0  0  0  0
   18.6179  -21.6666  -16.3594 C   0  0  2  0  0  0  0  0  0  0  0  0
   19.2090  -20.5329  -15.5479 N   0  0  0  0  0  0  0  0  0  0  0  0
   20.6012  -20.9394  -15.2937 C   0  0  0  0  0  0  0  0  0  0  0  0
   18.5210  -20.3270  -14.2576 O   0  0  0  0  0  0  0  0  0  0  0  0
   18.8836  -20.8659  -13.1817 O   0  0  0  0  0  0  0  0  0  0  0  0
  2  1  1  0
  3  2  1  0
  4  3  1  0
  4  5  1  0
  5  6  1  6
  7  5  1  0
  7  8  2  0
 10  9  1  0
 10 12  1  0
 11 10  2  0
 13 14  1  0
 13 12  1  0
 15 14  1  0
 16 15  1  1
 16 17  1  0
 17  7  1  0
 18 16  1  0
 19 18  2  0
 21 20  1  6
 21 23  1  0
 22 21  1  0
 24 23  1  6
 24 25  1  0
 24 26  1  0
 25 18  1  0
 26 28  1  0
 27 26  2  0
M  END
$$$$
