MRL.pdb
     RDKit          3D

 28 27  0  0  1  0  0  0  0  0999 V2000
   26.9513  -19.4141   -6.2092 C   0  0  0  0  0  0  0  0  0  0  0  0
   28.7323  -19.4728   -6.5477 S   0  0  0  0  0  0  0  0  0  0  0  0
   29.0976  -20.7330   -7.8096 C   0  0  0  0  0  0  0  0  0  0  0  0
   28.3785  -20.3572   -9.0931 C   0  0  0  0  0  0  0  0  0  0  0  0
   28.6261  -21.4274  -10.1410 C   0  0  2  0  0  0  0  0  0  0  0  0
   30.0316  -21.6026  -10.3880 N   0  0  0  0  0  0  0  0  0  0  0  0
   27.8654  -21.1238  -11.3422 C   0  0  0  0  0  0  0  0  0  0  0  0
   28.2772  -20.3096  -12.2345 O   0  0  0  0  0  0  0  0  0  0  0  0
   21.1514  -23.8906  -13.6610 N   0  0  0  0  0  0  0  0  0  0  0  0
   21.8345  -23.8397  -14.8883 C   0  0  0  0  0  0  0  0  0  0  0  0
   21.2766  -23.4091  -15.9699 N   0  0  0  0  0  0  0  0  0  0  0  0
   23.1741  -24.2657  -14.9542 N   0  0  0  0  0  0  0  0  0  0  0  0
   23.9578  -24.7601  -13.8587 C   0  0  0  0  0  0  0  0  0  0  0  0
   25.1406  -23.8437  -13.6384 C   0  0  0  0  0  0  0  0  0  0  0  0
   24.7670  -22.5405  -13.0501 C   0  0  0  0  0  0  0  0  0  0  0  0
   25.8277  -21.5467  -12.7847 C   0  0  2  0  0  0  0  0  0  0  0  0
   26.6060  -21.7235  -11.5861 N   0  0  0  0  0  0  0  0  0  0  0  0
   25.1604  -20.2061  -12.6994 C   0  0  0  0  0  0  0  0  0  0  0  0
   25.2299  -19.5060  -11.6436 O   0  0  0  0  0  0  0  0  0  0  0  0
   21.8623  -23.3425  -16.8319 C   0  0  0  0  0  0  0  0  0  0  0  0
   27.5746  -17.3407  -16.3950 C   0  0  2  0  0  0  0  0  0  0  0  0
   26.7179  -17.0559  -15.1709 C   0  0  0  0  0  0  0  0  0  0  0  0
   25.5044  -16.2105  -15.5353 C   0  0  0  0  0  0  0  0  0  0  0  0
   26.1948  -18.3592  -14.6541 C   0  0  1  0  0  0  0  0  0  0  0  0
   24.7217  -18.3363  -14.3034 N   0  0  0  0  0  0  0  0  0  0  0  0
   24.4404  -19.6824  -13.7770 C   0  0  0  0  0  0  0  0  0  0  0  0
   23.8545  -18.0815  -15.4711 O   0  0  0  0  0  0  0  0  0  0  0  0
   23.7262  -18.8826  -16.4309 O   0  0  0  0  0  0  0  0  0  0  0  0
  2  1  1  0
  3  2  1  0
  4  3  1  0
  4  5  1  0
  5  6  1  6
  7  5  1  0
  7  8  2  0
 10  9  1  0
 10 12  1  0
 11 10  2  0
 13 14  1  0
 13 12  1  0
 15 14  1  0
 16 15  1  1
 16 17  1  0
 17  7  1  0
 18 16  1  0
 19 18  2  0
 21 20  1  1
 21 23  1  0
 22 21  1  0
 24 23  1  1
 24 25  1  0
 24 26  1  0
 25 18  1  0
 26 28  1  0
 27 26  2  0
M  END
$$$$
