MRL.pdb
     RDKit          3D

 28 27  0  0  1  0  0  0  0  0999 V2000
   26.9707  -19.7463   -5.0497 C   0  0  0  0  0  0  0  0  0  0  0  0
   28.7298  -19.9526   -5.4410 S   0  0  0  0  0  0  0  0  0  0  0  0
   28.9298  -20.7463   -7.0671 C   0  0  0  0  0  0  0  0  0  0  0  0
   27.9019  -20.1640   -8.0210 C   0  0  0  0  0  0  0  0  0  0  0  0
   27.9752  -20.8966   -9.3487 C   0  0  2  0  0  0  0  0  0  0  0  0
   29.3345  -21.0338   -9.7963 N   0  0  0  0  0  0  0  0  0  0  0  0
   27.1143  -20.2406  -10.3196 C   0  0  0  0  0  0  0  0  0  0  0  0
   27.3348  -19.0609  -10.7539 O   0  0  0  0  0  0  0  0  0  0  0  0
   29.1887  -21.7832  -15.1151 N   0  0  0  0  0  0  0  0  0  0  0  0
   28.3927  -21.3238  -16.1785 C   0  0  0  0  0  0  0  0  0  0  0  0
   28.4984  -21.7996  -17.3738 N   0  0  0  0  0  0  0  0  0  0  0  0
   27.4409  -20.3137  -15.9458 N   0  0  0  0  0  0  0  0  0  0  0  0
   27.4386  -19.3928  -14.8453 C   0  0  0  0  0  0  0  0  0  0  0  0
   27.4332  -20.1681  -13.5467 C   0  0  0  0  0  0  0  0  0  0  0  0
   26.1785  -20.9147  -13.3184 C   0  0  0  0  0  0  0  0  0  0  0  0
   25.3716  -20.6051  -12.1200 C   0  0  2  0  0  0  0  0  0  0  0  0
   25.9663  -20.8865  -10.8391 N   0  0  0  0  0  0  0  0  0  0  0  0
   24.1098  -21.4098  -12.2217 C   0  0  0  0  0  0  0  0  0  0  0  0
   23.8748  -22.3635  -11.4187 O   0  0  0  0  0  0  0  0  0  0  0  0
   27.8705  -21.4137  -18.1136 C   0  0  0  0  0  0  0  0  0  0  0  0
   19.9353  -20.6853  -10.2301 C   0  0  2  0  0  0  0  0  0  0  0  0
   20.1759  -19.7457  -11.4018 C   0  0  0  0  0  0  0  0  0  0  0  0
   20.0808  -18.2895  -10.9656 C   0  0  0  0  0  0  0  0  0  0  0  0
   21.5741  -19.9581  -11.8906 C   0  0  1  0  0  0  0  0  0  0  0  0
   21.7153  -21.0979  -12.8778 N   0  0  0  0  0  0  0  0  0  0  0  0
   23.1510  -21.1379  -13.2019 C   0  0  0  0  0  0  0  0  0  0  0  0
   20.9440  -20.8851  -14.1189 O   0  0  0  0  0  0  0  0  0  0  0  0
   21.3408  -20.1666  -15.0706 O   0  0  0  0  0  0  0  0  0  0  0  0
  2  1  1  0
  3  2  1  0
  4  3  1  0
  4  5  1  0
  5  6  1  6
  7  5  1  0
  7  8  2  0
 10  9  1  0
 10 12  1  0
 11 10  2  0
 13 14  1  0
 13 12  1  0
 15 14  1  0
 16 15  1  6
 16 17  1  0
 17  7  1  0
 18 16  1  0
 19 18  2  0
 21 20  1  6
 21 23  1  0
 22 21  1  0
 24 23  1  1
 24 25  1  0
 24 26  1  0
 25 18  1  0
 26 28  1  0
 27 26  2  0
M  END
$$$$
