MRL.pdb
     RDKit          3D

 28 27  0  0  1  0  0  0  0  0999 V2000
   17.9206  -32.5530   -5.7221 C   0  0  0  0  0  0  0  0  0  0  0  0
   16.3383  -32.4785   -6.6056 S   0  0  0  0  0  0  0  0  0  0  0  0
   16.5762  -32.8672   -8.3681 C   0  0  0  0  0  0  0  0  0  0  0  0
   17.8714  -32.2273   -8.8356 C   0  0  0  0  0  0  0  0  0  0  0  0
   18.1377  -32.6241  -10.2766 C   0  0  2  0  0  0  0  0  0  0  0  0
   18.4734  -34.0181  -10.3821 N   0  0  0  0  0  0  0  0  0  0  0  0
   19.1448  -31.7459  -10.8496 C   0  0  0  0  0  0  0  0  0  0  0  0
   19.0263  -30.4753  -10.8657 O   0  0  0  0  0  0  0  0  0  0  0  0
   26.6288  -32.7274   -7.9418 N   0  0  0  0  0  0  0  0  0  0  0  0
   25.5281  -33.5142   -8.3224 C   0  0  0  0  0  0  0  0  0  0  0  0
   25.4761  -34.7834   -8.0926 N   0  0  0  0  0  0  0  0  0  0  0  0
   24.4365  -32.9102   -8.9736 N   0  0  0  0  0  0  0  0  0  0  0  0
   24.2774  -31.5076   -9.2311 C   0  0  0  0  0  0  0  0  0  0  0  0
   22.8931  -31.2566   -9.7860 C   0  0  0  0  0  0  0  0  0  0  0  0
   22.7379  -31.6978  -11.1878 C   0  0  0  0  0  0  0  0  0  0  0  0
   21.4464  -31.4709  -11.8688 C   0  0  2  0  0  0  0  0  0  0  0  0
   20.3270  -32.2643  -11.4318 N   0  0  0  0  0  0  0  0  0  0  0  0
   21.6635  -31.7551  -13.3256 C   0  0  0  0  0  0  0  0  0  0  0  0
   21.3283  -32.8687  -13.8326 O   0  0  0  0  0  0  0  0  0  0  0  0
   24.6542  -35.3153   -8.4561 C   0  0  0  0  0  0  0  0  0  0  0  0
   20.2200  -32.8690  -17.9177 C   0  0  2  0  0  0  0  0  0  0  0  0
   21.1886  -31.7277  -17.6477 C   0  0  0  0  0  0  0  0  0  0  0  0
   20.7540  -30.4575  -18.3671 C   0  0  0  0  0  0  0  0  0  0  0  0
   21.1561  -31.4251  -16.1825 C   0  0  1  0  0  0  0  0  0  0  0  0
   22.5126  -31.1079  -15.5887 N   0  0  0  0  0  0  0  0  0  0  0  0
   22.2412  -30.8056  -14.1734 C   0  0  0  0  0  0  0  0  0  0  0  0
   23.1593  -29.9394  -16.2184 O   0  0  0  0  0  0  0  0  0  0  0  0
   23.6402  -29.9515  -17.3795 O   0  0  0  0  0  0  0  0  0  0  0  0
  2  1  1  0
  3  2  1  0
  4  3  1  0
  4  5  1  0
  5  6  1  1
  7  5  1  0
  7  8  2  0
 10  9  1  0
 10 12  1  0
 11 10  2  0
 13 14  1  0
 13 12  1  0
 15 14  1  0
 16 15  1  1
 16 17  1  0
 17  7  1  0
 18 16  1  0
 19 18  2  0
 21 20  1  6
 21 23  1  0
 22 21  1  0
 24 23  1  1
 24 25  1  0
 24 26  1  0
 25 18  1  0
 26 28  1  0
 27 26  2  0
M  END
$$$$
