MRL.pdb
     RDKit          3D

 28 27  0  0  1  0  0  0  0  0999 V2000
   27.7427  -19.6939   -6.2980 C   0  0  0  0  0  0  0  0  0  0  0  0
   29.4660  -20.2173   -6.5134 S   0  0  0  0  0  0  0  0  0  0  0  0
   29.6317  -21.2631   -7.9943 C   0  0  0  0  0  0  0  0  0  0  0  0
   28.7408  -20.7006   -9.0876 C   0  0  0  0  0  0  0  0  0  0  0  0
   28.9421  -21.5003  -10.3623 C   0  0  2  0  0  0  0  0  0  0  0  0
   30.3345  -21.5914  -10.7086 N   0  0  0  0  0  0  0  0  0  0  0  0
   28.1211  -20.9442  -11.4257 C   0  0  0  0  0  0  0  0  0  0  0  0
   28.3291  -19.7896  -11.9282 O   0  0  0  0  0  0  0  0  0  0  0  0
   28.8155  -24.4894  -16.4164 N   0  0  0  0  0  0  0  0  0  0  0  0
   27.4255  -24.2926  -16.4845 C   0  0  0  0  0  0  0  0  0  0  0  0
   26.5895  -25.2762  -16.4844 N   0  0  0  0  0  0  0  0  0  0  0  0
   26.9133  -22.9836  -16.5516 N   0  0  0  0  0  0  0  0  0  0  0  0
   27.6727  -21.7723  -16.4288 C   0  0  0  0  0  0  0  0  0  0  0  0
   27.6019  -21.2824  -14.9997 C   0  0  0  0  0  0  0  0  0  0  0  0
   26.3098  -21.5767  -14.3456 C   0  0  0  0  0  0  0  0  0  0  0  0
   26.1061  -21.1534  -12.9447 C   0  0  2  0  0  0  0  0  0  0  0  0
   27.0285  -21.6657  -11.9648 N   0  0  0  0  0  0  0  0  0  0  0  0
   24.7293  -21.5979  -12.5487 C   0  0  0  0  0  0  0  0  0  0  0  0
   24.5446  -22.3228  -11.5240 O   0  0  0  0  0  0  0  0  0  0  0  0
   25.5732  -25.0574  -16.3853 C   0  0  0  0  0  0  0  0  0  0  0  0
   21.2482  -19.2097   -9.6334 C   0  0  2  0  0  0  0  0  0  0  0  0
   21.0280  -20.1773  -10.7863 C   0  0  0  0  0  0  0  0  0  0  0  0
   19.9623  -19.6577  -11.7424 C   0  0  0  0  0  0  0  0  0  0  0  0
   22.3005  -20.2682  -11.5685 C   0  0  1  0  0  0  0  0  0  0  0  0
   22.2541  -21.2662  -12.7066 N   0  0  0  0  0  0  0  0  0  0  0  0
   23.6044  -21.2300  -13.2926 C   0  0  0  0  0  0  0  0  0  0  0  0
   21.2656  -20.9119  -13.7448 O   0  0  0  0  0  0  0  0  0  0  0  0
   21.4339  -19.9881  -14.5799 O   0  0  0  0  0  0  0  0  0  0  0  0
  2  1  1  0
  3  2  1  0
  4  3  1  0
  4  5  1  0
  5  6  1  6
  7  5  1  0
  7  8  2  0
 10  9  1  0
 10 12  1  0
 11 10  2  0
 13 14  1  0
 13 12  1  0
 15 14  1  0
 16 15  1  6
 16 17  1  0
 17  7  1  0
 18 16  1  0
 19 18  2  0
 21 20  1  1
 21 23  1  0
 22 21  1  0
 24 23  1  1
 24 25  1  0
 24 26  1  0
 25 18  1  0
 26 28  1  0
 27 26  2  0
M  END
$$$$
