VMI.pdb
     RDKit          3D

 24 23  0  0  1  0  0  0  0  0999 V2000
   19.9189  -22.8185  -17.7355 C   0  0  0  0  0  0  0  0  0  0  0  0
   20.7328  -23.0260  -16.4834 C   0  0  2  0  0  0  0  0  0  0  0  0
   19.8675  -23.7443  -15.4738 C   0  0  0  0  0  0  0  0  0  0  0  0
   21.3506  -21.7750  -15.9290 C   0  0  2  0  0  0  0  0  0  0  0  0
   21.4770  -20.8493  -17.0802 N   0  0  0  0  0  0  0  0  0  0  0  0
   22.6383  -21.9368  -15.2659 C   0  0  0  0  0  0  0  0  0  0  0  0
   22.8225  -22.5773  -14.1965 O   0  0  0  0  0  0  0  0  0  0  0  0
   28.0899  -20.5993  -18.2171 C   0  0  0  0  0  0  0  0  0  0  0  0
   28.6272  -19.9643  -16.5833 S   0  0  0  0  0  0  0  0  0  0  0  0
   27.4191  -20.6000  -15.3652 C   0  0  0  0  0  0  0  0  0  0  0  0
   26.1099  -20.8087  -16.0819 C   0  0  0  0  0  0  0  0  0  0  0  0
   25.0745  -21.3578  -15.0715 C   0  0  2  0  0  0  0  0  0  0  0  0
   23.8162  -21.3533  -15.8202 N   0  0  0  0  0  0  0  0  0  0  0  0
   25.1081  -20.4629  -13.9276 C   0  0  0  0  0  0  0  0  0  0  0  0
   24.5864  -19.3086  -14.1011 O   0  0  0  0  0  0  0  0  0  0  0  0
   24.9482  -21.7085   -8.5670 C   0  0  0  0  0  0  0  0  0  0  0  0
   24.7000  -21.0161   -9.8901 C   0  0  0  0  0  0  0  0  0  0  0  0
   25.9488  -20.2427  -10.2652 C   0  0  2  0  0  0  0  0  0  0  0  0
   26.1826  -19.1449   -9.2805 C   0  0  0  0  0  0  0  0  0  0  0  0
   25.7104  -19.6514  -11.6420 C   0  0  2  0  0  0  0  0  0  0  0  0
   25.6439  -20.7087  -12.6473 N   0  0  0  0  0  0  0  0  0  0  0  0
   26.7492  -18.7003  -12.0427 C   0  0  0  0  0  0  0  0  0  0  0  0
   26.4452  -17.3386  -12.0450 O   0  0  0  0  0  0  0  0  0  0  0  0
   27.8748  -19.0923  -12.3729 O   0  0  0  0  0  0  0  0  0  0  0  0
  2  1  1  6
  3  2  1  0
  4  2  1  0
  4  5  1  6
  6  4  1  0
  6  7  2  0
  9  8  1  0
  9 10  1  0
 10 11  1  0
 12 11  1  6
 12 14  1  0
 13 12  1  0
 13  6  1  0
 14 15  2  0
 17 18  1  0
 17 16  1  0
 18 20  1  0
 18 19  1  1
 20 22  1  0
 21 14  1  0
 20 21  1  6
 22 24  2  0
 22 23  1  0
M  END
$$$$
