VMI.pdb
     RDKit          3D

 24 23  0  0  1  0  0  0  0  0999 V2000
   29.2851  -17.9662  -15.8496 C   0  0  0  0  0  0  0  0  0  0  0  0
   28.4247  -19.1135  -15.3842 C   0  0  2  0  0  0  0  0  0  0  0  0
   28.4693  -20.1934  -16.4406 C   0  0  0  0  0  0  0  0  0  0  0  0
   27.0225  -18.7277  -15.0111 C   0  0  2  0  0  0  0  0  0  0  0  0
   27.1553  -17.5274  -14.1510 N   0  0  0  0  0  0  0  0  0  0  0  0
   26.2359  -19.7510  -14.3341 C   0  0  0  0  0  0  0  0  0  0  0  0
   25.8962  -20.8525  -14.8429 O   0  0  0  0  0  0  0  0  0  0  0  0
   26.0501  -19.2887   -8.2697 C   0  0  0  0  0  0  0  0  0  0  0  0
   26.6765  -20.9742   -8.6277 S   0  0  0  0  0  0  0  0  0  0  0  0
   26.3283  -21.2840  -10.3969 C   0  0  0  0  0  0  0  0  0  0  0  0
   25.2380  -20.3352  -10.8240 C   0  0  0  0  0  0  0  0  0  0  0  0
   24.9535  -20.5535  -12.3293 C   0  0  2  0  0  0  0  0  0  0  0  0
   25.7896  -19.5518  -12.9939 N   0  0  0  0  0  0  0  0  0  0  0  0
   23.5232  -20.3690  -12.5041 C   0  0  0  0  0  0  0  0  0  0  0  0
   23.0968  -19.1666  -12.4194 O   0  0  0  0  0  0  0  0  0  0  0  0
   21.0789  -21.0193  -16.7578 C   0  0  0  0  0  0  0  0  0  0  0  0
   21.4701  -20.5772  -15.3639 C   0  0  0  0  0  0  0  0  0  0  0  0
   20.7012  -21.4179  -14.3637 C   0  0  2  0  0  0  0  0  0  0  0  0
   19.2355  -21.1765  -14.5162 C   0  0  0  0  0  0  0  0  0  0  0  0
   21.1486  -20.9851  -12.9800 C   0  0  2  0  0  0  0  0  0  0  0  0
   22.5446  -21.3514  -12.7571 N   0  0  0  0  0  0  0  0  0  0  0  0
   20.3418  -21.5735  -11.9090 C   0  0  0  0  0  0  0  0  0  0  0  0
   19.2880  -20.8288  -11.3785 O   0  0  0  0  0  0  0  0  0  0  0  0
   20.5864  -22.7077  -11.4807 O   0  0  0  0  0  0  0  0  0  0  0  0
  2  1  1  6
  3  2  1  0
  4  2  1  0
  4  5  1  1
  6  4  1  0
  6  7  2  0
  9  8  1  0
  9 10  1  0
 10 11  1  0
 12 11  1  1
 12 14  1  0
 13 12  1  0
 13  6  1  0
 14 15  2  0
 17 18  1  0
 17 16  1  0
 18 20  1  0
 18 19  1  1
 20 22  1  0
 21 14  1  0
 20 21  1  1
 22 24  2  0
 22 23  1  0
M  END
$$$$
