VMI.pdb
     RDKit          3D

 24 23  0  0  1  0  0  0  0  0999 V2000
   26.4108  -19.0054  -16.4765 C   0  0  0  0  0  0  0  0  0  0  0  0
   27.5874  -18.7682  -15.5640 C   0  0  2  0  0  0  0  0  0  0  0  0
   28.6525  -18.0389  -16.3500 C   0  0  0  0  0  0  0  0  0  0  0  0
   28.1106  -20.0036  -14.8901 C   0  0  2  0  0  0  0  0  0  0  0  0
   28.6040  -20.8749  -15.9835 N   0  0  0  0  0  0  0  0  0  0  0  0
   27.1609  -20.7280  -14.0550 C   0  0  0  0  0  0  0  0  0  0  0  0
   26.4829  -21.7214  -14.4306 O   0  0  0  0  0  0  0  0  0  0  0  0
   27.3059  -20.3080   -7.6716 C   0  0  0  0  0  0  0  0  0  0  0  0
   25.4858  -20.4350   -7.8518 S   0  0  0  0  0  0  0  0  0  0  0  0
   25.1835  -21.1062   -9.5268 C   0  0  0  0  0  0  0  0  0  0  0  0
   26.1108  -20.3978  -10.4804 C   0  0  0  0  0  0  0  0  0  0  0  0
   25.8927  -20.9715  -11.9009 C   0  0  2  0  0  0  0  0  0  0  0  0
   26.9396  -20.3340  -12.7019 N   0  0  0  0  0  0  0  0  0  0  0  0
   24.5348  -20.6191  -12.2781 C   0  0  0  0  0  0  0  0  0  0  0  0
   24.2985  -19.3715  -12.4275 O   0  0  0  0  0  0  0  0  0  0  0  0
   22.5494  -21.6086  -16.6851 C   0  0  0  0  0  0  0  0  0  0  0  0
   22.8692  -21.0510  -15.3146 C   0  0  0  0  0  0  0  0  0  0  0  0
   21.8283  -21.5610  -14.3375 C   0  0  2  0  0  0  0  0  0  0  0  0
   20.4690  -21.1108  -14.7609 C   0  0  0  0  0  0  0  0  0  0  0  0
   22.1624  -20.9694  -12.9808 C   0  0  2  0  0  0  0  0  0  0  0  0
   23.4431  -21.4822  -12.5017 N   0  0  0  0  0  0  0  0  0  0  0  0
   21.1446  -21.2543  -11.9673 C   0  0  0  0  0  0  0  0  0  0  0  0
   20.1515  -20.3033  -11.7303 O   0  0  0  0  0  0  0  0  0  0  0  0
   21.1614  -22.3153  -11.3322 O   0  0  0  0  0  0  0  0  0  0  0  0
  2  1  1  6
  3  2  1  0
  4  2  1  0
  4  5  1  6
  6  4  1  0
  6  7  2  0
  9  8  1  0
  9 10  1  0
 10 11  1  0
 12 11  1  1
 12 14  1  0
 13 12  1  0
 13  6  1  0
 14 15  2  0
 17 18  1  0
 17 16  1  0
 18 20  1  0
 18 19  1  6
 20 22  1  0
 21 14  1  0
 20 21  1  1
 22 24  2  0
 22 23  1  0
M  END
$$$$
