VMI.pdb
     RDKit          3D

 24 23  0  0  1  0  0  0  0  0999 V2000
   28.4523  -18.1411  -16.6629 C   0  0  0  0  0  0  0  0  0  0  0  0
   27.4406  -18.9477  -15.8888 C   0  0  2  0  0  0  0  0  0  0  0  0
   26.5166  -17.9857  -15.1783 C   0  0  0  0  0  0  0  0  0  0  0  0
   28.0363  -19.9678  -14.9621 C   0  0  2  0  0  0  0  0  0  0  0  0
   28.6630  -20.9851  -15.8399 N   0  0  0  0  0  0  0  0  0  0  0  0
   27.1126  -20.6029  -14.0307 C   0  0  0  0  0  0  0  0  0  0  0  0
   26.2847  -21.5019  -14.3374 O   0  0  0  0  0  0  0  0  0  0  0  0
   27.7642  -20.5916   -7.4106 C   0  0  0  0  0  0  0  0  0  0  0  0
   26.0447  -20.0284   -7.7058 S   0  0  0  0  0  0  0  0  0  0  0  0
   25.5474  -20.7288   -9.3213 C   0  0  0  0  0  0  0  0  0  0  0  0
   26.4499  -20.1402  -10.3751 C   0  0  0  0  0  0  0  0  0  0  0  0
   26.0933  -20.7726  -11.7416 C   0  0  2  0  0  0  0  0  0  0  0  0
   27.0977  -20.2246  -12.6552 N   0  0  0  0  0  0  0  0  0  0  0  0
   24.7253  -20.3768  -12.0286 C   0  0  0  0  0  0  0  0  0  0  0  0
   24.5403  -19.1379  -12.2848 O   0  0  0  0  0  0  0  0  0  0  0  0
   20.4965  -21.2441  -15.8747 C   0  0  0  0  0  0  0  0  0  0  0  0
   20.7496  -20.7132  -14.4799 C   0  0  0  0  0  0  0  0  0  0  0  0
   22.0821  -21.2529  -13.9988 C   0  0  2  0  0  0  0  0  0  0  0  0
   22.0347  -22.7441  -13.9368 C   0  0  0  0  0  0  0  0  0  0  0  0
   22.3150  -20.6914  -12.6086 C   0  0  2  0  0  0  0  0  0  0  0  0
   23.5741  -21.1894  -12.0613 N   0  0  0  0  0  0  0  0  0  0  0  0
   21.2414  -21.0255  -11.6705 C   0  0  0  0  0  0  0  0  0  0  0  0
   20.0126  -20.3779  -11.8015 O   0  0  0  0  0  0  0  0  0  0  0  0
   21.4165  -21.8644  -10.7788 O   0  0  0  0  0  0  0  0  0  0  0  0
  2  1  1  1
  3  2  1  0
  4  2  1  0
  4  5  1  6
  6  4  1  0
  6  7  2  0
  9  8  1  0
  9 10  1  0
 10 11  1  0
 12 11  1  1
 12 14  1  0
 13 12  1  0
 13  6  1  0
 14 15  2  0
 17 18  1  0
 17 16  1  0
 18 20  1  0
 18 19  1  1
 20 22  1  0
 21 14  1  0
 20 21  1  1
 22 24  2  0
 22 23  1  0
M  END
$$$$
