VMI.pdb
     RDKit          3D

 24 23  0  0  1  0  0  0  0  0999 V2000
   24.7255  -20.9308  -14.0506 C   0  0  0  0  0  0  0  0  0  0  0  0
   23.4625  -21.4315  -13.3969 C   0  0  2  0  0  0  0  0  0  0  0  0
   22.2896  -20.7262  -14.0381 C   0  0  0  0  0  0  0  0  0  0  0  0
   23.4528  -21.3245  -11.8994 C   0  0  2  0  0  0  0  0  0  0  0  0
   23.1196  -19.9104  -11.6034 N   0  0  0  0  0  0  0  0  0  0  0  0
   24.6858  -21.7064  -11.2226 C   0  0  0  0  0  0  0  0  0  0  0  0
   25.1301  -22.8829  -11.1447 O   0  0  0  0  0  0  0  0  0  0  0  0
   29.7318  -19.3708  -12.4971 C   0  0  0  0  0  0  0  0  0  0  0  0
   30.5019  -20.5828  -11.3573 S   0  0  0  0  0  0  0  0  0  0  0  0
   29.1626  -21.1766  -10.2614 C   0  0  0  0  0  0  0  0  0  0  0  0
   27.8558  -20.6718  -10.8171 C   0  0  0  0  0  0  0  0  0  0  0  0
   26.7135  -21.1059   -9.8678 C   0  0  2  0  0  0  0  0  0  0  0  0
   25.4959  -20.7209  -10.5841 N   0  0  0  0  0  0  0  0  0  0  0  0
   26.9348  -20.4022   -8.6163 C   0  0  0  0  0  0  0  0  0  0  0  0
   26.2724  -19.3206   -8.4546 O   0  0  0  0  0  0  0  0  0  0  0  0
   29.7917  -22.3900   -4.1800 C   0  0  0  0  0  0  0  0  0  0  0  0
   28.6255  -21.8397   -4.9729 C   0  0  0  0  0  0  0  0  0  0  0  0
   28.9860  -20.4451   -5.4456 C   0  0  2  0  0  0  0  0  0  0  0  0
   29.1264  -19.5308   -4.2734 C   0  0  0  0  0  0  0  0  0  0  0  0
   27.8512  -19.9676   -6.3324 C   0  0  2  0  0  0  0  0  0  0  0  0
   27.7892  -20.7637   -7.5552 N   0  0  0  0  0  0  0  0  0  0  0  0
   27.9740  -18.5574   -6.7072 C   0  0  0  0  0  0  0  0  0  0  0  0
   27.2908  -17.6025   -5.9535 O   0  0  0  0  0  0  0  0  0  0  0  0
   28.6687  -18.2156   -7.6717 O   0  0  0  0  0  0  0  0  0  0  0  0
  2  1  1  6
  3  2  1  0
  4  2  1  0
  4  5  1  6
  6  4  1  0
  6  7  2  0
  9  8  1  0
  9 10  1  0
 10 11  1  0
 12 11  1  6
 12 14  1  0
 13 12  1  0
 13  6  1  0
 14 15  2  0
 17 18  1  0
 17 16  1  0
 18 20  1  0
 18 19  1  1
 20 22  1  0
 21 14  1  0
 20 21  1  6
 22 24  2  0
 22 23  1  0
M  END
$$$$
