VMI.pdb
     RDKit          3D

 24 23  0  0  1  0  0  0  0  0999 V2000
   28.8665  -20.5968  -14.0752 C   0  0  0  0  0  0  0  0  0  0  0  0
   27.8826  -21.4693  -14.8127 C   0  0  2  0  0  0  0  0  0  0  0  0
   28.5586  -21.9897  -16.0603 C   0  0  0  0  0  0  0  0  0  0  0  0
   26.5636  -20.8126  -15.1013 C   0  0  2  0  0  0  0  0  0  0  0  0
   26.8289  -19.8520  -16.1992 N   0  0  0  0  0  0  0  0  0  0  0  0
   25.9269  -20.1352  -13.9789 C   0  0  0  0  0  0  0  0  0  0  0  0
   26.0009  -18.8988  -13.7477 O   0  0  0  0  0  0  0  0  0  0  0  0
   20.4557  -21.7155  -12.1865 C   0  0  0  0  0  0  0  0  0  0  0  0
   20.5047  -20.2375  -11.1028 S   0  0  0  0  0  0  0  0  0  0  0  0
   22.2613  -19.7363  -11.0008 C   0  0  0  0  0  0  0  0  0  0  0  0
   23.0236  -20.5175  -12.0400 C   0  0  0  0  0  0  0  0  0  0  0  0
   24.5305  -20.1986  -11.8923 C   0  0  2  0  0  0  0  0  0  0  0  0
   25.1459  -20.8706  -13.0384 N   0  0  0  0  0  0  0  0  0  0  0  0
   24.9303  -20.7145  -10.5944 C   0  0  0  0  0  0  0  0  0  0  0  0
   25.0961  -21.9801  -10.5191 O   0  0  0  0  0  0  0  0  0  0  0  0
   28.6110  -18.8573   -7.0191 C   0  0  0  0  0  0  0  0  0  0  0  0
   27.7611  -19.8118   -7.8302 C   0  0  0  0  0  0  0  0  0  0  0  0
   26.3493  -19.7797   -7.2786 C   0  0  2  0  0  0  0  0  0  0  0  0
   26.3381  -20.2985   -5.8784 C   0  0  0  0  0  0  0  0  0  0  0  0
   25.5045  -20.6780   -8.1626 C   0  0  2  0  0  0  0  0  0  0  0  0
   25.1601  -19.9931   -9.4056 N   0  0  0  0  0  0  0  0  0  0  0  0
   24.2637  -21.1111   -7.5168 C   0  0  0  0  0  0  0  0  0  0  0  0
   24.2921  -22.2459   -6.7056 O   0  0  0  0  0  0  0  0  0  0  0  0
   23.2098  -20.4861   -7.6845 O   0  0  0  0  0  0  0  0  0  0  0  0
  2  1  1  6
  3  2  1  0
  4  2  1  0
  4  5  1  6
  6  4  1  0
  6  7  2  0
  9  8  1  0
  9 10  1  0
 10 11  1  0
 12 11  1  6
 12 14  1  0
 13 12  1  0
 13  6  1  0
 14 15  2  0
 17 18  1  0
 17 16  1  0
 18 20  1  0
 18 19  1  1
 20 22  1  0
 21 14  1  0
 20 21  1  6
 22 24  2  0
 22 23  1  0
M  END
$$$$
