VMI.pdb
     RDKit          3D

 24 23  0  0  1  0  0  0  0  0999 V2000
   26.1965  -18.8522  -15.4815 C   0  0  0  0  0  0  0  0  0  0  0  0
   27.5354  -18.8314  -14.7883 C   0  0  2  0  0  0  0  0  0  0  0  0
   28.5455  -18.2250  -15.7349 C   0  0  0  0  0  0  0  0  0  0  0  0
   27.9760  -20.1606  -14.2469 C   0  0  2  0  0  0  0  0  0  0  0  0
   28.1327  -21.0403  -15.4301 N   0  0  0  0  0  0  0  0  0  0  0  0
   27.0891  -20.7795  -13.2699 C   0  0  0  0  0  0  0  0  0  0  0  0
   26.1669  -21.5921  -13.5472 O   0  0  0  0  0  0  0  0  0  0  0  0
   27.0971  -18.6588   -7.1129 C   0  0  0  0  0  0  0  0  0  0  0  0
   26.5381  -20.3871   -6.8650 S   0  0  0  0  0  0  0  0  0  0  0  0
   25.8406  -20.9335   -8.4658 C   0  0  0  0  0  0  0  0  0  0  0  0
   26.7434  -20.4227   -9.5591 C   0  0  0  0  0  0  0  0  0  0  0  0
   26.2359  -20.9681  -10.9153 C   0  0  2  0  0  0  0  0  0  0  0  0
   27.2261  -20.4865  -11.8805 N   0  0  0  0  0  0  0  0  0  0  0  0
   24.8974  -20.4326  -11.0941 C   0  0  0  0  0  0  0  0  0  0  0  0
   24.8245  -19.1991  -11.4226 O   0  0  0  0  0  0  0  0  0  0  0  0
   21.2793  -20.3246  -15.1581 C   0  0  0  0  0  0  0  0  0  0  0  0
   21.2012  -20.2614  -13.6477 C   0  0  0  0  0  0  0  0  0  0  0  0
   22.4987  -20.8025  -13.0800 C   0  0  2  0  0  0  0  0  0  0  0  0
   22.6160  -22.2608  -13.3789 C   0  0  0  0  0  0  0  0  0  0  0  0
   22.4509  -20.5914  -11.5783 C   0  0  2  0  0  0  0  0  0  0  0  0
   23.6664  -21.1042  -10.9518 N   0  0  0  0  0  0  0  0  0  0  0  0
   21.2994  -21.2391  -10.9470 C   0  0  0  0  0  0  0  0  0  0  0  0
   21.5047  -22.4183  -10.2300 O   0  0  0  0  0  0  0  0  0  0  0  0
   20.1661  -20.7537  -11.0448 O   0  0  0  0  0  0  0  0  0  0  0  0
  2  1  1  6
  3  2  1  0
  4  2  1  0
  4  5  1  6
  6  4  1  0
  6  7  2  0
  9  8  1  0
  9 10  1  0
 10 11  1  0
 12 11  1  1
 12 14  1  0
 13 12  1  0
 13  6  1  0
 14 15  2  0
 17 18  1  0
 17 16  1  0
 18 20  1  0
 18 19  1  1
 20 22  1  0
 21 14  1  0
 20 21  1  1
 22 24  2  0
 22 23  1  0
M  END
$$$$
