VMI.pdb
     RDKit          3D

 24 23  0  0  1  0  0  0  0  0999 V2000
   19.2685  -16.5129  -18.3235 C   0  0  0  0  0  0  0  0  0  0  0  0
   19.7755  -15.4490  -17.3830 C   0  0  2  0  0  0  0  0  0  0  0  0
   19.6323  -14.1092  -18.0676 C   0  0  0  0  0  0  0  0  0  0  0  0
   21.1643  -15.6877  -16.8649 C   0  0  2  0  0  0  0  0  0  0  0  0
   21.0979  -16.9703  -16.1240 N   0  0  0  0  0  0  0  0  0  0  0  0
   21.7192  -14.6410  -16.0160 C   0  0  0  0  0  0  0  0  0  0  0  0
   21.2673  -14.3147  -14.8860 O   0  0  0  0  0  0  0  0  0  0  0  0
   27.7667  -13.1935  -16.3282 C   0  0  0  0  0  0  0  0  0  0  0  0
   27.2860  -11.5447  -15.6865 S   0  0  0  0  0  0  0  0  0  0  0  0
   25.5489  -11.6981  -15.1330 C   0  0  0  0  0  0  0  0  0  0  0  0
   24.8679  -12.7011  -16.0283 C   0  0  0  0  0  0  0  0  0  0  0  0
   23.3782  -12.7973  -15.6205 C   0  0  2  0  0  0  0  0  0  0  0  0
   22.8604  -13.8961  -16.4381 N   0  0  0  0  0  0  0  0  0  0  0  0
   22.7942  -11.4975  -15.9031 C   0  0  0  0  0  0  0  0  0  0  0  0
   22.4827  -11.2741  -17.1229 O   0  0  0  0  0  0  0  0  0  0  0  0
   19.4194   -8.9106  -12.5216 C   0  0  0  0  0  0  0  0  0  0  0  0
   20.0268   -9.4951  -13.7789 C   0  0  0  0  0  0  0  0  0  0  0  0
   21.1448   -8.5799  -14.2383 C   0  0  2  0  0  0  0  0  0  0  0  0
   20.5835   -7.2609  -14.6562 C   0  0  0  0  0  0  0  0  0  0  0  0
   21.8106   -9.2504  -15.4254 C   0  0  2  0  0  0  0  0  0  0  0  0
   22.5262  -10.4500  -14.9990 N   0  0  0  0  0  0  0  0  0  0  0  0
   22.7554   -8.3738  -16.1205 C   0  0  0  0  0  0  0  0  0  0  0  0
   22.2840   -7.5732  -17.1614 O   0  0  0  0  0  0  0  0  0  0  0  0
   23.9478   -8.3408  -15.7943 O   0  0  0  0  0  0  0  0  0  0  0  0
  2  1  1  6
  3  2  1  0
  4  2  1  0
  4  5  1  1
  6  4  1  0
  6  7  2  0
  9  8  1  0
  9 10  1  0
 10 11  1  0
 12 11  1  6
 12 14  1  0
 13 12  1  0
 13  6  1  0
 14 15  2  0
 17 18  1  0
 17 16  1  0
 18 20  1  0
 18 19  1  6
 20 22  1  0
 21 14  1  0
 20 21  1  1
 22 24  2  0
 22 23  1  0
M  END
$$$$
