VMI.pdb
     RDKit          3D

 24 23  0  0  1  0  0  0  0  0999 V2000
   20.9211  -18.5506  -15.4881 C   0  0  0  0  0  0  0  0  0  0  0  0
   21.7503  -17.3702  -15.9267 C   0  0  2  0  0  0  0  0  0  0  0  0
   20.8125  -16.2999  -16.4358 C   0  0  0  0  0  0  0  0  0  0  0  0
   22.8352  -17.7032  -16.9096 C   0  0  2  0  0  0  0  0  0  0  0  0
   22.1414  -18.2673  -18.0924 N   0  0  0  0  0  0  0  0  0  0  0  0
   23.8639  -18.6227  -16.4401 C   0  0  0  0  0  0  0  0  0  0  0  0
   23.6731  -19.8372  -16.1644 O   0  0  0  0  0  0  0  0  0  0  0  0
   28.3169  -20.4030  -18.2746 C   0  0  0  0  0  0  0  0  0  0  0  0
   28.5754  -20.8379  -16.5124 S   0  0  0  0  0  0  0  0  0  0  0  0
   28.6991  -19.2526  -15.6074 C   0  0  0  0  0  0  0  0  0  0  0  0
   27.5621  -18.3738  -16.0616 C   0  0  0  0  0  0  0  0  0  0  0  0
   26.2264  -19.0755  -15.7181 C   0  0  2  0  0  0  0  0  0  0  0  0
   25.2070  -18.1760  -16.2619 N   0  0  0  0  0  0  0  0  0  0  0  0
   26.2038  -19.2224  -14.2730 C   0  0  0  0  0  0  0  0  0  0  0  0
   26.3538  -18.1481  -13.5962 O   0  0  0  0  0  0  0  0  0  0  0  0
   22.4535  -20.5131  -11.2689 C   0  0  0  0  0  0  0  0  0  0  0  0
   23.7523  -19.9762  -11.8313 C   0  0  0  0  0  0  0  0  0  0  0  0
   24.8702  -20.9201  -11.4342 C   0  0  2  0  0  0  0  0  0  0  0  0
   25.0164  -20.9393   -9.9483 C   0  0  0  0  0  0  0  0  0  0  0  0
   26.1450  -20.3925  -12.0657 C   0  0  2  0  0  0  0  0  0  0  0  0
   26.0355  -20.4032  -13.5220 N   0  0  0  0  0  0  0  0  0  0  0  0
   27.3310  -21.1636  -11.6878 C   0  0  0  0  0  0  0  0  0  0  0  0
   28.1005  -20.7231  -10.6105 O   0  0  0  0  0  0  0  0  0  0  0  0
   27.6476  -22.1854  -12.3085 O   0  0  0  0  0  0  0  0  0  0  0  0
  2  1  1  6
  3  2  1  0
  4  2  1  0
  4  5  1  6
  6  4  1  0
  6  7  2  0
  9  8  1  0
  9 10  1  0
 10 11  1  0
 12 11  1  1
 12 14  1  0
 13 12  1  0
 13  6  1  0
 14 15  2  0
 17 18  1  0
 17 16  1  0
 18 20  1  0
 18 19  1  1
 20 22  1  0
 21 14  1  0
 20 21  1  6
 22 24  2  0
 22 23  1  0
M  END
$$$$
