VMI.pdb
     RDKit          3D

 24 23  0  0  1  0  0  0  0  0999 V2000
   27.5485  -20.2010  -16.9592 C   0  0  0  0  0  0  0  0  0  0  0  0
   26.8610  -19.6631  -15.7299 C   0  0  2  0  0  0  0  0  0  0  0  0
   26.8318  -18.1553  -15.8292 C   0  0  0  0  0  0  0  0  0  0  0  0
   27.4409  -20.1456  -14.4318 C   0  0  2  0  0  0  0  0  0  0  0  0
   27.4050  -21.6260  -14.5055 N   0  0  0  0  0  0  0  0  0  0  0  0
   26.7737  -19.6827  -13.2215 C   0  0  0  0  0  0  0  0  0  0  0  0
   26.7188  -18.4820  -12.8436 O   0  0  0  0  0  0  0  0  0  0  0  0
   21.6329  -22.2726  -12.2895 C   0  0  0  0  0  0  0  0  0  0  0  0
   21.4723  -20.4463  -12.2782 S   0  0  0  0  0  0  0  0  0  0  0  0
   23.1749  -19.7839  -12.1791 C   0  0  0  0  0  0  0  0  0  0  0  0
   23.9841  -20.7220  -11.3207 C   0  0  0  0  0  0  0  0  0  0  0  0
   25.4103  -20.1427  -11.1631 C   0  0  2  0  0  0  0  0  0  0  0  0
   26.1130  -20.6084  -12.3603 N   0  0  0  0  0  0  0  0  0  0  0  0
   25.9257  -20.6659   -9.9097 C   0  0  0  0  0  0  0  0  0  0  0  0
   26.3288  -21.8791   -9.9300 O   0  0  0  0  0  0  0  0  0  0  0  0
   28.9362  -19.5476   -4.7463 C   0  0  0  0  0  0  0  0  0  0  0  0
   28.1052  -20.4952   -5.5848 C   0  0  0  0  0  0  0  0  0  0  0  0
   27.4602  -19.7013   -6.7037 C   0  0  2  0  0  0  0  0  0  0  0  0
   26.5922  -18.6292   -6.1322 C   0  0  0  0  0  0  0  0  0  0  0  0
   26.6128  -20.6702   -7.5070 C   0  0  2  0  0  0  0  0  0  0  0  0
   26.0385  -20.0018   -8.6716 N   0  0  0  0  0  0  0  0  0  0  0  0
   25.5204  -21.2555   -6.7272 C   0  0  0  0  0  0  0  0  0  0  0  0
   25.8321  -22.1663   -5.7173 O   0  0  0  0  0  0  0  0  0  0  0  0
   24.3438  -20.9510   -6.9559 O   0  0  0  0  0  0  0  0  0  0  0  0
  2  1  1  6
  3  2  1  0
  4  2  1  0
  4  5  1  6
  6  4  1  0
  6  7  2  0
  9  8  1  0
  9 10  1  0
 10 11  1  0
 12 11  1  6
 12 14  1  0
 13 12  1  0
 13  6  1  0
 14 15  2  0
 17 18  1  0
 17 16  1  0
 18 20  1  0
 18 19  1  1
 20 22  1  0
 21 14  1  0
 20 21  1  6
 22 24  2  0
 22 23  1  0
M  END
$$$$
