ILN.pdb
     RDKit          3D

 25 24  0  0  1  0  0  0  0  0999 V2000
    7.1637  -12.4853   18.4898 C   0  0  0  0  0  0  0  0  0  0  0  0
    7.3523  -13.8160   19.1792 C   0  0  0  0  0  0  0  0  0  0  0  0
    8.3166  -13.7256   20.3276 C   0  0  2  0  0  0  0  0  0  0  0  0
    9.6316  -13.2056   19.8118 C   0  0  0  0  0  0  0  0  0  0  0  0
    8.4425  -14.9661   21.1393 C   0  0  2  0  0  0  0  0  0  0  0  0
    7.2360  -15.7337   21.0655 N   0  0  0  0  0  0  0  0  0  0  0  0
    8.8796  -14.7493   22.5436 C   0  0  0  0  0  0  0  0  0  0  0  0
   10.0678  -14.4017   22.7344 O   0  0  0  0  0  0  0  0  0  0  0  0
    5.7327  -12.5277   27.1834 C   0  0  0  0  0  0  0  0  0  0  0  0
    7.1388  -13.0810   26.8451 C   0  0  2  0  0  0  0  0  0  0  0  0
    8.0879  -11.9788   27.0974 C   0  0  0  0  0  0  0  0  0  0  0  0
    7.1289  -13.6608   25.4954 C   0  0  0  0  0  0  0  0  0  0  0  0
    8.2996  -14.4141   25.0062 C   0  0  2  0  0  0  0  0  0  0  0  0
    8.0148  -14.9195   23.6488 N   0  0  0  0  0  0  0  0  0  0  0  0
    8.7067  -15.5863   25.8098 C   0  0  0  0  0  0  0  0  0  0  0  0
    9.3733  -15.4272   26.8984 O   0  0  0  0  0  0  0  0  0  0  0  0
   11.7621  -19.6274   24.9113 N   0  0  0  0  0  0  0  0  0  0  0  0
   11.5873  -18.4672   24.0903 C   0  0  0  0  0  0  0  0  0  0  0  0
   12.4469  -18.2965   23.2025 O   0  0  0  0  0  0  0  0  0  0  0  0
   10.4578  -17.5570   24.3062 C   0  0  0  0  0  0  0  0  0  0  0  0
    9.4768  -17.9534   25.3537 C   0  0  2  0  0  0  0  0  0  0  0  0
    8.4314  -16.9346   25.5072 N   0  0  0  0  0  0  0  0  0  0  0  0
   10.1757  -18.0772   26.6725 C   0  0  0  0  0  0  0  0  0  0  0  0
   11.1197  -18.9329   26.8189 O   0  0  0  0  0  0  0  0  0  0  0  0
    9.8981  -17.3342   27.7939 O   0  0  0  0  0  0  0  0  0  0  0  0
  2  1  1  0
  2  3  1  0
  3  5  1  0
  3  4  1  6
  5  7  1  0
  5  6  1  1
  7  8  2  0
 10  9  1  6
 10 12  1  0
 11 10  1  0
 13 12  1  1
 14  7  1  0
 14 13  1  0
 15 16  2  0
 15 13  1  0
 17 18  1  0
 18 19  2  0
 18 20  1  0
 21 20  1  6
 21 22  1  0
 22 15  1  0
 23 25  1  0
 23 21  1  0
 24 23  2  0
M  END
$$$$
