ILN.pdb
     RDKit          3D

 25 24  0  0  1  0  0  0  0  0999 V2000
    8.8234  -19.7735   20.0275 C   0  0  0  0  0  0  0  0  0  0  0  0
    8.3333  -18.3503   19.9006 C   0  0  0  0  0  0  0  0  0  0  0  0
    8.6458  -17.5342   21.1226 C   0  0  2  0  0  0  0  0  0  0  0  0
    8.2089  -18.3041   22.3400 C   0  0  0  0  0  0  0  0  0  0  0  0
    8.1402  -16.1354   21.0880 C   0  0  2  0  0  0  0  0  0  0  0  0
    8.4637  -15.5200   19.8362 N   0  0  0  0  0  0  0  0  0  0  0  0
    8.5519  -15.2960   22.2439 C   0  0  0  0  0  0  0  0  0  0  0  0
    9.7434  -14.9120   22.2870 O   0  0  0  0  0  0  0  0  0  0  0  0
    5.4819  -12.6530   26.9274 C   0  0  0  0  0  0  0  0  0  0  0  0
    6.8996  -12.8139   26.3258 C   0  0  2  0  0  0  0  0  0  0  0  0
    7.4873  -11.4603   26.2858 C   0  0  0  0  0  0  0  0  0  0  0  0
    6.8157  -13.5458   25.0549 C   0  0  0  0  0  0  0  0  0  0  0  0
    8.0380  -14.0929   24.4352 C   0  0  2  0  0  0  0  0  0  0  0  0
    7.6598  -14.9246   23.2758 N   0  0  0  0  0  0  0  0  0  0  0  0
    8.8858  -14.9427   25.2981 C   0  0  0  0  0  0  0  0  0  0  0  0
    9.5761  -14.4183   26.2485 O   0  0  0  0  0  0  0  0  0  0  0  0
   11.3384  -18.9133   27.7996 N   0  0  0  0  0  0  0  0  0  0  0  0
   10.0466  -19.3040   27.3210 C   0  0  0  0  0  0  0  0  0  0  0  0
    9.6423  -20.4212   27.7013 O   0  0  0  0  0  0  0  0  0  0  0  0
    9.2734  -18.4225   26.4402 C   0  0  0  0  0  0  0  0  0  0  0  0
    9.9046  -17.1226   26.0817 C   0  0  2  0  0  0  0  0  0  0  0  0
    9.0320  -16.3405   25.1978 N   0  0  0  0  0  0  0  0  0  0  0  0
   11.1809  -17.3741   25.3394 C   0  0  0  0  0  0  0  0  0  0  0  0
   11.1572  -17.9937   24.2168 O   0  0  0  0  0  0  0  0  0  0  0  0
   12.4328  -16.9914   25.7553 O   0  0  0  0  0  0  0  0  0  0  0  0
  2  1  1  0
  2  3  1  0
  3  5  1  0
  3  4  1  1
  5  7  1  0
  5  6  1  6
  7  8  2  0
 10  9  1  6
 10 12  1  0
 11 10  1  0
 13 12  1  1
 14  7  1  0
 14 13  1  0
 15 16  2  0
 15 13  1  0
 17 18  1  0
 18 19  2  0
 18 20  1  0
 21 20  1  6
 21 22  1  0
 22 15  1  0
 23 25  1  0
 23 21  1  0
 24 23  2  0
M  END
$$$$
