ILN.pdb
     RDKit          3D

 25 24  0  0  1  0  0  0  0  0999 V2000
    6.9173  -17.7336   19.1642 C   0  0  0  0  0  0  0  0  0  0  0  0
    7.1093  -16.2758   19.5102 C   0  0  0  0  0  0  0  0  0  0  0  0
    7.4485  -16.0794   20.9605 C   0  0  2  0  0  0  0  0  0  0  0  0
    6.4327  -16.8118   21.7957 C   0  0  0  0  0  0  0  0  0  0  0  0
    7.6493  -14.6635   21.3708 C   0  0  2  0  0  0  0  0  0  0  0  0
    8.4218  -13.9652   20.3880 N   0  0  0  0  0  0  0  0  0  0  0  0
    8.1982  -14.4844   22.7408 C   0  0  0  0  0  0  0  0  0  0  0  0
    9.4389  -14.5784   22.8857 O   0  0  0  0  0  0  0  0  0  0  0  0
    7.9576  -11.0907   25.8937 C   0  0  0  0  0  0  0  0  0  0  0  0
    6.6596  -11.9173   25.7213 C   0  0  2  0  0  0  0  0  0  0  0  0
    5.6219  -11.2262   26.5116 C   0  0  0  0  0  0  0  0  0  0  0  0
    6.9243  -13.3248   26.0482 C   0  0  0  0  0  0  0  0  0  0  0  0
    7.8881  -14.1014   25.2449 C   0  0  2  0  0  0  0  0  0  0  0  0
    7.3815  -14.2169   23.8632 N   0  0  0  0  0  0  0  0  0  0  0  0
    8.1630  -15.4795   25.7039 C   0  0  0  0  0  0  0  0  0  0  0  0
    8.6480  -15.6885   26.8768 O   0  0  0  0  0  0  0  0  0  0  0  0
    6.6237  -21.0691   26.1730 N   0  0  0  0  0  0  0  0  0  0  0  0
    7.5281  -20.4066   25.2822 C   0  0  0  0  0  0  0  0  0  0  0  0
    8.4901  -21.0906   24.8783 O   0  0  0  0  0  0  0  0  0  0  0  0
    7.3085  -19.0109   24.8893 C   0  0  0  0  0  0  0  0  0  0  0  0
    8.2219  -18.0005   25.4904 C   0  0  2  0  0  0  0  0  0  0  0  0
    7.9399  -16.6588   24.9659 N   0  0  0  0  0  0  0  0  0  0  0  0
    9.6382  -18.3305   25.1322 C   0  0  0  0  0  0  0  0  0  0  0  0
   10.1780  -19.4045   25.5792 O   0  0  0  0  0  0  0  0  0  0  0  0
   10.4572  -17.5669   24.3367 O   0  0  0  0  0  0  0  0  0  0  0  0
  2  1  1  0
  2  3  1  0
  3  5  1  0
  3  4  1  1
  5  7  1  0
  5  6  1  6
  7  8  2  0
 10  9  1  1
 10 12  1  0
 11 10  1  0
 13 12  1  1
 14  7  1  0
 14 13  1  0
 15 16  2  0
 15 13  1  0
 17 18  1  0
 18 19  2  0
 18 20  1  0
 21 20  1  6
 21 22  1  0
 22 15  1  0
 23 25  1  0
 23 21  1  0
 24 23  2  0
M  END
$$$$
