ILN.pdb
     RDKit          3D

 25 24  0  0  1  0  0  0  0  0999 V2000
    6.8106  -18.4148   19.1390 C   0  0  0  0  0  0  0  0  0  0  0  0
    6.6508  -16.9625   19.5224 C   0  0  0  0  0  0  0  0  0  0  0  0
    7.3112  -16.6486   20.8347 C   0  0  2  0  0  0  0  0  0  0  0  0
    6.8273  -17.6339   21.8646 C   0  0  0  0  0  0  0  0  0  0  0  0
    7.2009  -15.2297   21.2681 C   0  0  2  0  0  0  0  0  0  0  0  0
    7.5014  -14.3514   20.1779 N   0  0  0  0  0  0  0  0  0  0  0  0
    7.9793  -14.8893   22.4882 C   0  0  0  0  0  0  0  0  0  0  0  0
    9.2211  -14.7751   22.3711 O   0  0  0  0  0  0  0  0  0  0  0  0
    7.5726  -11.3984   25.4804 C   0  0  0  0  0  0  0  0  0  0  0  0
    6.5221  -12.5206   25.6664 C   0  0  2  0  0  0  0  0  0  0  0  0
    5.5545  -12.0197   26.6625 C   0  0  0  0  0  0  0  0  0  0  0  0
    7.2019  -13.7868   25.9707 C   0  0  0  0  0  0  0  0  0  0  0  0
    8.1231  -14.3862   24.9861 C   0  0  2  0  0  0  0  0  0  0  0  0
    7.3752  -14.6942   23.7513 N   0  0  0  0  0  0  0  0  0  0  0  0
    8.7903  -15.6412   25.3926 C   0  0  0  0  0  0  0  0  0  0  0  0
    8.1053  -16.6074   25.8945 O   0  0  0  0  0  0  0  0  0  0  0  0
   10.2017  -20.5972   24.9766 N   0  0  0  0  0  0  0  0  0  0  0  0
   10.7907  -19.5064   24.2598 C   0  0  0  0  0  0  0  0  0  0  0  0
   11.8063  -19.7828   23.5903 O   0  0  0  0  0  0  0  0  0  0  0  0
   10.2112  -18.1610   24.3299 C   0  0  0  0  0  0  0  0  0  0  0  0
   10.7250  -17.2723   25.4082 C   0  0  2  0  0  0  0  0  0  0  0  0
   10.1672  -15.9202   25.2855 N   0  0  0  0  0  0  0  0  0  0  0  0
   12.2134  -17.1528   25.2913 C   0  0  0  0  0  0  0  0  0  0  0  0
   12.7296  -16.1398   24.6979 O   0  0  0  0  0  0  0  0  0  0  0  0
   13.1256  -18.0575   25.7770 O   0  0  0  0  0  0  0  0  0  0  0  0
  2  1  1  0
  2  3  1  0
  3  5  1  0
  3  4  1  1
  5  7  1  0
  5  6  1  6
  7  8  2  0
 10  9  1  1
 10 12  1  0
 11 10  1  0
 13 12  1  1
 14  7  1  0
 14 13  1  0
 15 16  2  0
 15 13  1  0
 17 18  1  0
 18 19  2  0
 18 20  1  0
 21 20  1  6
 21 22  1  0
 22 15  1  0
 23 25  1  0
 23 21  1  0
 24 23  2  0
M  END
$$$$
