ILN.pdb
     RDKit          3D

 25 24  0  0  1  0  0  0  0  0999 V2000
    6.7784  -22.6817   24.6494 C   0  0  0  0  0  0  0  0  0  0  0  0
    5.7479  -21.5773   24.6473 C   0  0  0  0  0  0  0  0  0  0  0  0
    6.3525  -20.2412   24.3218 C   0  0  2  0  0  0  0  0  0  0  0  0
    7.5376  -20.0171   25.2223 C   0  0  0  0  0  0  0  0  0  0  0  0
    5.3914  -19.1055   24.3065 C   0  0  2  0  0  0  0  0  0  0  0  0
    4.2988  -19.3900   23.4258 N   0  0  0  0  0  0  0  0  0  0  0  0
    6.0006  -17.7784   24.0275 C   0  0  0  0  0  0  0  0  0  0  0  0
    6.3575  -17.5396   22.8508 O   0  0  0  0  0  0  0  0  0  0  0  0
    7.4842  -12.8765   27.5619 C   0  0  0  0  0  0  0  0  0  0  0  0
    7.4905  -13.4066   26.1071 C   0  0  2  0  0  0  0  0  0  0  0  0
    6.8449  -12.3643   25.2849 C   0  0  0  0  0  0  0  0  0  0  0  0
    6.8996  -14.7510   26.0696 C   0  0  0  0  0  0  0  0  0  0  0  0
    6.9167  -15.5311   24.8172 C   0  0  2  0  0  0  0  0  0  0  0  0
    6.1864  -16.7966   25.0275 N   0  0  0  0  0  0  0  0  0  0  0  0
    8.2491  -15.9014   24.2944 C   0  0  0  0  0  0  0  0  0  0  0  0
    8.4625  -15.9348   23.0264 O   0  0  0  0  0  0  0  0  0  0  0  0
   13.2838  -16.9638   23.3626 N   0  0  0  0  0  0  0  0  0  0  0  0
   12.5236  -15.8025   23.0105 C   0  0  0  0  0  0  0  0  0  0  0  0
   13.0607  -15.0305   22.1909 O   0  0  0  0  0  0  0  0  0  0  0  0
   11.1996  -15.5655   23.5952 C   0  0  0  0  0  0  0  0  0  0  0  0
   10.6637  -16.6357   24.4805 C   0  0  2  0  0  0  0  0  0  0  0  0
    9.3782  -16.2381   25.0670 N   0  0  0  0  0  0  0  0  0  0  0  0
   11.6158  -16.8725   25.6121 C   0  0  0  0  0  0  0  0  0  0  0  0
   11.3087  -16.4913   26.7975 O   0  0  0  0  0  0  0  0  0  0  0  0
   12.8408  -17.4848   25.5074 O   0  0  0  0  0  0  0  0  0  0  0  0
  2  1  1  0
  2  3  1  0
  3  5  1  0
  3  4  1  1
  5  7  1  0
  5  6  1  6
  7  8  2  0
 10  9  1  1
 10 12  1  0
 11 10  1  0
 13 12  1  1
 14  7  1  0
 14 13  1  0
 15 16  2  0
 15 13  1  0
 17 18  1  0
 18 19  2  0
 18 20  1  0
 21 20  1  6
 21 22  1  0
 22 15  1  0
 23 25  1  0
 23 21  1  0
 24 23  2  0
M  END
$$$$
