ILN.pdb
     RDKit          3D

 25 24  0  0  1  0  0  0  0  0999 V2000
    6.3278  -19.0778   20.4789 C   0  0  0  0  0  0  0  0  0  0  0  0
    6.2435  -17.5726   20.5746 C   0  0  0  0  0  0  0  0  0  0  0  0
    7.0004  -17.0385   21.7572 C   0  0  2  0  0  0  0  0  0  0  0  0
    6.5395  -17.7657   22.9918 C   0  0  0  0  0  0  0  0  0  0  0  0
    6.9826  -15.5572   21.8955 C   0  0  2  0  0  0  0  0  0  0  0  0
    7.2767  -14.9365   20.6391 N   0  0  0  0  0  0  0  0  0  0  0  0
    7.8330  -15.0243   22.9924 C   0  0  0  0  0  0  0  0  0  0  0  0
    9.0420  -14.8155   22.7402 O   0  0  0  0  0  0  0  0  0  0  0  0
    7.3110  -11.2253   25.4227 C   0  0  0  0  0  0  0  0  0  0  0  0
    6.4080  -12.3864   25.9063 C   0  0  2  0  0  0  0  0  0  0  0  0
    5.4863  -11.8054   26.9024 C   0  0  0  0  0  0  0  0  0  0  0  0
    7.2442  -13.5121   26.3437 C   0  0  0  0  0  0  0  0  0  0  0  0
    8.1397  -14.1846   25.3828 C   0  0  2  0  0  0  0  0  0  0  0  0
    7.3311  -14.7511   24.2854 N   0  0  0  0  0  0  0  0  0  0  0  0
    8.9556  -15.2964   25.9154 C   0  0  0  0  0  0  0  0  0  0  0  0
    9.7127  -15.1136   26.9392 O   0  0  0  0  0  0  0  0  0  0  0  0
    6.7092  -19.1657   26.6869 N   0  0  0  0  0  0  0  0  0  0  0  0
    8.0861  -19.0531   27.0637 C   0  0  0  0  0  0  0  0  0  0  0  0
    8.3139  -19.0445   28.2902 O   0  0  0  0  0  0  0  0  0  0  0  0
    9.1380  -18.9559   26.0464 C   0  0  0  0  0  0  0  0  0  0  0  0
    9.8631  -17.6582   25.9633 C   0  0  2  0  0  0  0  0  0  0  0  0
    9.0010  -16.6092   25.4057 N   0  0  0  0  0  0  0  0  0  0  0  0
   11.0404  -17.8006   25.0486 C   0  0  0  0  0  0  0  0  0  0  0  0
   11.9264  -18.6985   25.2804 O   0  0  0  0  0  0  0  0  0  0  0  0
   11.2807  -17.0341   23.9344 O   0  0  0  0  0  0  0  0  0  0  0  0
  2  1  1  0
  2  3  1  0
  3  5  1  0
  3  4  1  1
  5  7  1  0
  5  6  1  6
  7  8  2  0
 10  9  1  1
 10 12  1  0
 11 10  1  0
 13 12  1  1
 14  7  1  0
 14 13  1  0
 15 16  2  0
 15 13  1  0
 17 18  1  0
 18 19  2  0
 18 20  1  0
 21 20  1  6
 21 22  1  0
 22 15  1  0
 23 25  1  0
 23 21  1  0
 24 23  2  0
M  END
$$$$
