ILN.pdb
     RDKit          3D

 25 24  0  0  1  0  0  0  0  0999 V2000
    7.6135  -22.1210   26.7564 C   0  0  0  0  0  0  0  0  0  0  0  0
    6.5515  -21.2287   26.1583 C   0  0  0  0  0  0  0  0  0  0  0  0
    7.1103  -19.9089   25.7082 C   0  0  2  0  0  0  0  0  0  0  0  0
    7.8612  -19.2880   26.8554 C   0  0  0  0  0  0  0  0  0  0  0  0
    6.1228  -18.9932   25.0759 C   0  0  2  0  0  0  0  0  0  0  0  0
    5.4713  -19.6441   23.9795 N   0  0  0  0  0  0  0  0  0  0  0  0
    6.6646  -17.6631   24.6916 C   0  0  0  0  0  0  0  0  0  0  0  0
    7.2904  -17.5821   23.6095 O   0  0  0  0  0  0  0  0  0  0  0  0
    6.1157  -11.9305   26.9870 C   0  0  0  0  0  0  0  0  0  0  0  0
    6.9027  -12.7731   25.9534 C   0  0  2  0  0  0  0  0  0  0  0  0
    6.8319  -12.0334   24.6778 C   0  0  0  0  0  0  0  0  0  0  0  0
    6.3993  -14.1531   25.9565 C   0  0  0  0  0  0  0  0  0  0  0  0
    7.0987  -15.1965   25.1823 C   0  0  2  0  0  0  0  0  0  0  0  0
    6.4997  -16.5097   25.4920 N   0  0  0  0  0  0  0  0  0  0  0  0
    8.5501  -15.3326   25.4285 C   0  0  0  0  0  0  0  0  0  0  0  0
    9.0021  -15.3870   26.6315 O   0  0  0  0  0  0  0  0  0  0  0  0
   13.4353  -17.1448   25.2463 N   0  0  0  0  0  0  0  0  0  0  0  0
   12.2285  -17.8626   25.5270 C   0  0  0  0  0  0  0  0  0  0  0  0
   12.3760  -19.0202   25.9679 O   0  0  0  0  0  0  0  0  0  0  0  0
   10.9173  -17.2463   25.2993 C   0  0  0  0  0  0  0  0  0  0  0  0
   10.9202  -15.8727   24.7250 C   0  0  2  0  0  0  0  0  0  0  0  0
    9.5534  -15.4180   24.4429 N   0  0  0  0  0  0  0  0  0  0  0  0
   11.6661  -15.8751   23.4263 C   0  0  0  0  0  0  0  0  0  0  0  0
   12.9142  -16.1697   23.4054 O   0  0  0  0  0  0  0  0  0  0  0  0
   11.1270  -15.5815   22.1976 O   0  0  0  0  0  0  0  0  0  0  0  0
  2  1  1  0
  2  3  1  0
  3  5  1  0
  3  4  1  1
  5  7  1  0
  5  6  1  6
  7  8  2  0
 10  9  1  1
 10 12  1  0
 11 10  1  0
 13 12  1  1
 14  7  1  0
 14 13  1  0
 15 16  2  0
 15 13  1  0
 17 18  1  0
 18 19  2  0
 18 20  1  0
 21 20  1  6
 21 22  1  0
 22 15  1  0
 23 25  1  0
 23 21  1  0
 24 23  2  0
M  END
$$$$
