ILN.pdb
     RDKit          3D

 25 24  0  0  1  0  0  0  0  0999 V2000
    7.4432  -11.9731   20.0381 C   0  0  0  0  0  0  0  0  0  0  0  0
    7.4055  -13.0816   21.0635 C   0  0  0  0  0  0  0  0  0  0  0  0
    8.2404  -14.2607   20.6517 C   0  0  2  0  0  0  0  0  0  0  0  0
    7.6156  -14.8916   19.4363 C   0  0  0  0  0  0  0  0  0  0  0  0
    8.5370  -15.2295   21.7411 C   0  0  2  0  0  0  0  0  0  0  0  0
    7.4522  -16.1512   21.8965 N   0  0  0  0  0  0  0  0  0  0  0  0
    8.9314  -14.6107   23.0341 C   0  0  0  0  0  0  0  0  0  0  0  0
    9.2992  -13.4134   23.0161 O   0  0  0  0  0  0  0  0  0  0  0  0
    8.0702  -12.0669   25.9886 C   0  0  0  0  0  0  0  0  0  0  0  0
    6.8156  -12.7567   25.3987 C   0  0  2  0  0  0  0  0  0  0  0  0
    5.6738  -12.3102   26.2209 C   0  0  0  0  0  0  0  0  0  0  0  0
    7.0474  -14.2042   25.3040 C   0  0  0  0  0  0  0  0  0  0  0  0
    8.3994  -14.7522   25.5261 C   0  0  2  0  0  0  0  0  0  0  0  0
    8.9053  -15.3157   24.2591 N   0  0  0  0  0  0  0  0  0  0  0  0
    8.5128  -15.8272   26.5345 C   0  0  0  0  0  0  0  0  0  0  0  0
    7.7186  -15.8550   27.5460 O   0  0  0  0  0  0  0  0  0  0  0  0
    6.5046  -19.5990   26.4335 N   0  0  0  0  0  0  0  0  0  0  0  0
    6.9844  -19.1280   25.1693 C   0  0  0  0  0  0  0  0  0  0  0  0
    6.2270  -19.3185   24.1965 O   0  0  0  0  0  0  0  0  0  0  0  0
    8.2891  -18.4672   25.0595 C   0  0  0  0  0  0  0  0  0  0  0  0
    9.0524  -18.2908   26.3255 C   0  0  2  0  0  0  0  0  0  0  0  0
    9.4402  -16.8878   26.5144 N   0  0  0  0  0  0  0  0  0  0  0  0
   10.3129  -19.0976   26.2663 C   0  0  0  0  0  0  0  0  0  0  0  0
   10.4247  -20.1631   26.9712 O   0  0  0  0  0  0  0  0  0  0  0  0
   11.4128  -18.8013   25.4988 O   0  0  0  0  0  0  0  0  0  0  0  0
  2  1  1  0
  2  3  1  0
  3  5  1  0
  3  4  1  6
  5  7  1  0
  5  6  1  1
  7  8  2  0
 10  9  1  1
 10 12  1  0
 11 10  1  0
 13 12  1  6
 14  7  1  0
 14 13  1  0
 15 16  2  0
 15 13  1  0
 17 18  1  0
 18 19  2  0
 18 20  1  0
 21 20  1  6
 21 22  1  0
 22 15  1  0
 23 25  1  0
 23 21  1  0
 24 23  2  0
M  END
$$$$
