ILN.pdb
     RDKit          3D

 25 24  0  0  1  0  0  0  0  0999 V2000
    5.9121  -22.3870   24.8207 C   0  0  0  0  0  0  0  0  0  0  0  0
    5.2677  -21.0521   24.5301 C   0  0  0  0  0  0  0  0  0  0  0  0
    6.2849  -19.9840   24.2449 C   0  0  2  0  0  0  0  0  0  0  0  0
    7.3702  -20.0632   25.2849 C   0  0  0  0  0  0  0  0  0  0  0  0
    5.7253  -18.6166   24.0694 C   0  0  2  0  0  0  0  0  0  0  0  0
    4.7340  -18.6134   23.0362 N   0  0  0  0  0  0  0  0  0  0  0  0
    6.7409  -17.5494   23.8701 C   0  0  0  0  0  0  0  0  0  0  0  0
    7.2862  -17.4700   22.7452 O   0  0  0  0  0  0  0  0  0  0  0  0
    6.9761  -12.6528   24.5106 C   0  0  0  0  0  0  0  0  0  0  0  0
    6.7666  -13.6641   25.6643 C   0  0  2  0  0  0  0  0  0  0  0  0
    6.4349  -12.8640   26.8597 C   0  0  0  0  0  0  0  0  0  0  0  0
    7.9309  -14.5552   25.7564 C   0  0  0  0  0  0  0  0  0  0  0  0
    8.1431  -15.6015   24.7378 C   0  0  2  0  0  0  0  0  0  0  0  0
    7.1041  -16.6391   24.8889 N   0  0  0  0  0  0  0  0  0  0  0  0
    9.4429  -16.3044   24.7818 C   0  0  0  0  0  0  0  0  0  0  0  0
    9.7631  -17.0133   25.8063 O   0  0  0  0  0  0  0  0  0  0  0  0
   10.7361  -19.3176   21.9265 N   0  0  0  0  0  0  0  0  0  0  0  0
   11.2901  -18.0366   21.6063 C   0  0  0  0  0  0  0  0  0  0  0  0
   10.9305  -17.5471   20.5166 O   0  0  0  0  0  0  0  0  0  0  0  0
   12.2192  -17.3690   22.5239 C   0  0  0  0  0  0  0  0  0  0  0  0
   11.6906  -17.0309   23.8740 C   0  0  2  0  0  0  0  0  0  0  0  0
   10.4270  -16.2906   23.7736 N   0  0  0  0  0  0  0  0  0  0  0  0
   12.6684  -16.1490   24.5876 C   0  0  0  0  0  0  0  0  0  0  0  0
   13.8647  -16.5596   24.7995 O   0  0  0  0  0  0  0  0  0  0  0  0
   12.4047  -14.8866   25.0604 O   0  0  0  0  0  0  0  0  0  0  0  0
  2  1  1  0
  2  3  1  0
  3  5  1  0
  3  4  1  1
  5  7  1  0
  5  6  1  6
  7  8  2  0
 10  9  1  6
 10 12  1  0
 11 10  1  0
 13 12  1  1
 14  7  1  0
 14 13  1  0
 15 16  2  0
 15 13  1  0
 17 18  1  0
 18 19  2  0
 18 20  1  0
 21 20  1  6
 21 22  1  0
 22 15  1  0
 23 25  1  0
 23 21  1  0
 24 23  2  0
M  END
$$$$
