ILN.pdb
     RDKit          3D

 25 24  0  0  1  0  0  0  0  0999 V2000
    6.7775  -18.7996   19.5782 C   0  0  0  0  0  0  0  0  0  0  0  0
    7.0301  -17.3278   19.8054 C   0  0  0  0  0  0  0  0  0  0  0  0
    7.5330  -17.0486   21.1932 C   0  0  2  0  0  0  0  0  0  0  0  0
    6.6788  -17.8041   22.1756 C   0  0  0  0  0  0  0  0  0  0  0  0
    7.6900  -15.6066   21.5244 C   0  0  2  0  0  0  0  0  0  0  0  0
    8.4447  -14.9412   20.5056 N   0  0  0  0  0  0  0  0  0  0  0  0
    8.2286  -15.3353   22.8833 C   0  0  0  0  0  0  0  0  0  0  0  0
    9.4572  -15.4996   23.0640 O   0  0  0  0  0  0  0  0  0  0  0  0
    7.9549  -11.6297   25.7565 C   0  0  0  0  0  0  0  0  0  0  0  0
    6.6770  -12.4913   25.6070 C   0  0  2  0  0  0  0  0  0  0  0  0
    5.5976  -11.7508   26.2895 C   0  0  0  0  0  0  0  0  0  0  0  0
    6.9476  -13.8590   26.0696 C   0  0  0  0  0  0  0  0  0  0  0  0
    7.9030  -14.7117   25.3365 C   0  0  2  0  0  0  0  0  0  0  0  0
    7.4152  -14.9064   23.9570 N   0  0  0  0  0  0  0  0  0  0  0  0
    8.1342  -16.0625   25.8908 C   0  0  0  0  0  0  0  0  0  0  0  0
    7.3111  -17.0179   25.6371 O   0  0  0  0  0  0  0  0  0  0  0  0
   10.8256  -20.4608   26.7430 N   0  0  0  0  0  0  0  0  0  0  0  0
   10.7711  -19.6918   25.5363 C   0  0  0  0  0  0  0  0  0  0  0  0
   11.2325  -20.2462   24.5185 O   0  0  0  0  0  0  0  0  0  0  0  0
   10.2021  -18.3401   25.5317 C   0  0  0  0  0  0  0  0  0  0  0  0
    9.6739  -17.8378   26.8299 C   0  0  2  0  0  0  0  0  0  0  0  0
    9.2145  -16.4490   26.7086 N   0  0  0  0  0  0  0  0  0  0  0  0
   10.7650  -17.8585   27.8556 C   0  0  0  0  0  0  0  0  0  0  0  0
   11.3155  -18.9698   28.1824 O   0  0  0  0  0  0  0  0  0  0  0  0
   11.2611  -16.7592   28.5130 O   0  0  0  0  0  0  0  0  0  0  0  0
  2  1  1  0
  2  3  1  0
  3  5  1  0
  3  4  1  1
  5  7  1  0
  5  6  1  6
  7  8  2  0
 10  9  1  1
 10 12  1  0
 11 10  1  0
 13 12  1  1
 14  7  1  0
 14 13  1  0
 15 16  2  0
 15 13  1  0
 17 18  1  0
 18 19  2  0
 18 20  1  0
 21 20  1  6
 21 22  1  0
 22 15  1  0
 23 25  1  0
 23 21  1  0
 24 23  2  0
M  END
$$$$
