ILN.pdb
     RDKit          3D

 25 24  0  0  1  0  0  0  0  0999 V2000
    8.0665  -11.7573   19.9338 C   0  0  0  0  0  0  0  0  0  0  0  0
    7.7412  -12.9178   20.8445 C   0  0  0  0  0  0  0  0  0  0  0  0
    8.4285  -14.1827   20.4151 C   0  0  2  0  0  0  0  0  0  0  0  0
    8.0424  -14.4806   18.9911 C   0  0  0  0  0  0  0  0  0  0  0  0
    8.2486  -15.3372   21.3361 C   0  0  2  0  0  0  0  0  0  0  0  0
    6.8785  -15.7530   21.3514 N   0  0  0  0  0  0  0  0  0  0  0  0
    8.7825  -15.1281   22.7078 C   0  0  0  0  0  0  0  0  0  0  0  0
   10.0226  -15.0067   22.8356 O   0  0  0  0  0  0  0  0  0  0  0  0
    8.2546  -11.9919   26.0899 C   0  0  0  0  0  0  0  0  0  0  0  0
    7.0265  -12.9048   25.8539 C   0  0  2  0  0  0  0  0  0  0  0  0
    5.9428  -12.3659   26.6991 C   0  0  0  0  0  0  0  0  0  0  0  0
    7.4069  -14.3078   26.0662 C   0  0  0  0  0  0  0  0  0  0  0  0
    8.4557  -14.9236   25.2306 C   0  0  2  0  0  0  0  0  0  0  0  0
    7.9521  -15.0632   23.8501 N   0  0  0  0  0  0  0  0  0  0  0  0
    8.9175  -16.2660   25.6430 C   0  0  0  0  0  0  0  0  0  0  0  0
    8.0774  -17.2324   25.7651 O   0  0  0  0  0  0  0  0  0  0  0  0
    9.5138  -20.4382   24.9265 N   0  0  0  0  0  0  0  0  0  0  0  0
   10.0448  -19.5809   23.9099 C   0  0  0  0  0  0  0  0  0  0  0  0
    9.8753  -19.9636   22.7347 O   0  0  0  0  0  0  0  0  0  0  0  0
   10.7390  -18.3380   24.2621 C   0  0  0  0  0  0  0  0  0  0  0  0
   10.7743  -17.9842   25.7078 C   0  0  2  0  0  0  0  0  0  0  0  0
   10.2470  -16.6327   25.9314 N   0  0  0  0  0  0  0  0  0  0  0  0
   12.1918  -17.9952   26.1911 C   0  0  0  0  0  0  0  0  0  0  0  0
   13.0141  -17.0993   25.7837 O   0  0  0  0  0  0  0  0  0  0  0  0
   12.7276  -18.9075   27.0670 O   0  0  0  0  0  0  0  0  0  0  0  0
  2  1  1  0
  2  3  1  0
  3  5  1  0
  3  4  1  6
  5  7  1  0
  5  6  1  1
  7  8  2  0
 10  9  1  1
 10 12  1  0
 11 10  1  0
 13 12  1  1
 14  7  1  0
 14 13  1  0
 15 16  2  0
 15 13  1  0
 17 18  1  0
 18 19  2  0
 18 20  1  0
 21 20  1  6
 21 22  1  0
 22 15  1  0
 23 25  1  0
 23 21  1  0
 24 23  2  0
M  END
$$$$
