ILN.pdb
     RDKit          3D

 25 24  0  0  1  0  0  0  0  0999 V2000
   11.3532  -14.6356   30.0356 C   0  0  0  0  0  0  0  0  0  0  0  0
   10.4273  -15.7785   29.6914 C   0  0  0  0  0  0  0  0  0  0  0  0
    9.9565  -15.7145   28.2663 C   0  0  2  0  0  0  0  0  0  0  0  0
    9.7450  -14.2716   27.8937 C   0  0  0  0  0  0  0  0  0  0  0  0
    8.7950  -16.5889   27.9502 C   0  0  2  0  0  0  0  0  0  0  0  0
    9.0741  -17.9423   28.3253 N   0  0  0  0  0  0  0  0  0  0  0  0
    8.3034  -16.4890   26.5507 C   0  0  0  0  0  0  0  0  0  0  0  0
    8.0767  -17.5575   25.9377 O   0  0  0  0  0  0  0  0  0  0  0  0
    5.4454  -13.0758   26.1640 C   0  0  0  0  0  0  0  0  0  0  0  0
    6.8480  -12.8514   25.5477 C   0  0  2  0  0  0  0  0  0  0  0  0
    6.9724  -11.3977   25.3226 C   0  0  0  0  0  0  0  0  0  0  0  0
    7.0198  -13.7271   24.3808 C   0  0  0  0  0  0  0  0  0  0  0  0
    7.4862  -15.1154   24.5611 C   0  0  2  0  0  0  0  0  0  0  0  0
    8.0878  -15.2515   25.9022 N   0  0  0  0  0  0  0  0  0  0  0  0
    8.5008  -15.5955   23.5991 C   0  0  0  0  0  0  0  0  0  0  0  0
    8.1652  -15.8834   22.3911 O   0  0  0  0  0  0  0  0  0  0  0  0
   10.6218  -13.7981   20.6113 N   0  0  0  0  0  0  0  0  0  0  0  0
   10.8879  -15.1829   20.8598 C   0  0  0  0  0  0  0  0  0  0  0  0
   10.5290  -15.9735   19.9640 O   0  0  0  0  0  0  0  0  0  0  0  0
   11.5430  -15.6115   22.0999 C   0  0  0  0  0  0  0  0  0  0  0  0
   10.7677  -16.5323   22.9762 C   0  0  2  0  0  0  0  0  0  0  0  0
    9.8719  -15.7824   23.8648 N   0  0  0  0  0  0  0  0  0  0  0  0
   11.7097  -17.3082   23.8443 C   0  0  0  0  0  0  0  0  0  0  0  0
   12.6636  -17.9806   23.3127 O   0  0  0  0  0  0  0  0  0  0  0  0
   11.6559  -17.3772   25.2151 O   0  0  0  0  0  0  0  0  0  0  0  0
  2  1  1  0
  2  3  1  0
  3  5  1  0
  3  4  1  1
  5  7  1  0
  5  6  1  6
  7  8  2  0
 10  9  1  6
 10 12  1  0
 11 10  1  0
 13 12  1  6
 14  7  1  0
 14 13  1  0
 15 16  2  0
 15 13  1  0
 17 18  1  0
 18 19  2  0
 18 20  1  0
 21 20  1  6
 21 22  1  0
 22 15  1  0
 23 25  1  0
 23 21  1  0
 24 23  2  0
M  END
$$$$
