NRD.pdb
     RDKit          3D

 28 27  0  0  1  0  0  0  0  0999 V2000
   19.4740  -17.2753   14.8581 N   0  0  0  0  0  0  0  0  0  0  0  0
   18.8176  -18.1414   15.7657 C   0  0  0  0  0  0  0  0  0  0  0  0
   18.5729  -19.3185   15.4064 O   0  0  0  0  0  0  0  0  0  0  0  0
   18.4238  -17.6884   17.1047 C   0  0  0  0  0  0  0  0  0  0  0  0
   16.9166  -17.7637   17.2336 C   0  0  2  0  0  0  0  0  0  0  0  0
   16.2889  -16.8979   16.2482 N   0  0  0  0  0  0  0  0  0  0  0  0
   16.4546  -17.3548   18.5691 C   0  0  0  0  0  0  0  0  0  0  0  0
   16.6456  -16.1949   19.0037 O   0  0  0  0  0  0  0  0  0  0  0  0
    9.9121  -18.4570   18.8276 N   0  0  0  0  0  0  0  0  0  0  0  0
   10.4203  -19.7778   18.7217 C   0  0  0  0  0  0  0  0  0  0  0  0
   10.0997  -20.4718   17.6936 N   0  0  0  0  0  0  0  0  0  0  0  0
   11.2559  -20.3408   19.7030 N   0  0  0  0  0  0  0  0  0  0  0  0
   11.7927  -19.5330   20.7922 C   0  0  0  0  0  0  0  0  0  0  0  0
   12.8477  -18.5797   20.2867 C   0  0  0  0  0  0  0  0  0  0  0  0
   14.0907  -18.8142   21.1450 C   0  0  0  0  0  0  0  0  0  0  0  0
   15.2463  -17.9862   20.7002 C   0  0  2  0  0  0  0  0  0  0  0  0
   15.7730  -18.2532   19.4237 N   0  0  0  0  0  0  0  0  0  0  0  0
   16.3273  -18.1418   21.7061 C   0  0  0  0  0  0  0  0  0  0  0  0
   17.0288  -19.1855   21.6837 O   0  0  0  0  0  0  0  0  0  0  0  0
   10.3970  -21.4518   17.5107 N   0  0  0  0  0  0  0  0  0  0  0  0
   16.5955  -17.1489   22.6947 C   0  0  1  0  0  0  0  0  0  0  0  0
   17.6008  -17.2883   23.7135 C   0  0  0  0  0  0  0  0  0  0  0  0
   18.4246  -16.0448   23.8318 C   0  0  0  0  0  0  0  0  0  0  0  0
   19.3549  -15.8199   22.7258 O   0  0  0  0  0  0  0  0  0  0  0  0
   19.4085  -16.6840   21.8136 C   0  0  0  0  0  0  0  0  0  0  0  0
   17.0492  -17.7433   25.0070 O   0  0  0  0  0  0  0  0  0  0  0  0
   15.6659  -17.7567   25.1339 O   0  0  0  0  0  0  0  0  0  0  0  0
   20.1965  -14.7258   22.5868 O   0  0  0  0  0  0  0  0  0  0  0  0
  2  3  2  0
  2  1  1  0
  4  2  1  0
  5  6  1  6
  5  4  1  0
  7  5  1  0
  8  7  2  0
 10  9  1  0
 10 12  1  0
 11 10  2  0
 12 13  1  0
 13 14  1  0
 16 15  1  1
 15 14  1  0
 16 17  1  0
 17  7  1  0
 18 20  1  0
 18 16  1  0
 19 18  2  0
 21 25  1  0
 21 20  1  0
 21 22  1  1
 23 22  1  0
 24 23  2  0
 25 26  1  0
 27 23  1  0
 28 25  2  0
M  END
$$$$
