NRD.pdb
     RDKit          3D

 28 27  0  0  1  0  0  0  0  0999 V2000
   15.5413  -14.5578   14.7647 N   0  0  0  0  0  0  0  0  0  0  0  0
   14.3219  -14.6708   15.4753 C   0  0  0  0  0  0  0  0  0  0  0  0
   13.3394  -15.2051   14.9063 O   0  0  0  0  0  0  0  0  0  0  0  0
   14.1915  -14.1784   16.8515 C   0  0  0  0  0  0  0  0  0  0  0  0
   13.9657  -15.3520   17.7819 C   0  0  2  0  0  0  0  0  0  0  0  0
   12.9981  -16.2689   17.2007 N   0  0  0  0  0  0  0  0  0  0  0  0
   13.4658  -14.9260   19.0983 C   0  0  0  0  0  0  0  0  0  0  0  0
   14.1307  -14.1635   19.8382 O   0  0  0  0  0  0  0  0  0  0  0  0
    8.2037  -14.2529   16.7068 N   0  0  0  0  0  0  0  0  0  0  0  0
    7.9225  -13.3382   17.7549 C   0  0  0  0  0  0  0  0  0  0  0  0
    8.2414  -12.1084   17.5902 N   0  0  0  0  0  0  0  0  0  0  0  0
    7.3113  -13.7393   18.9564 N   0  0  0  0  0  0  0  0  0  0  0  0
    8.0354  -14.5299   19.9452 C   0  0  0  0  0  0  0  0  0  0  0  0
    9.5257  -14.3467   19.7950 C   0  0  0  0  0  0  0  0  0  0  0  0
   10.1737  -15.0913   20.9623 C   0  0  0  0  0  0  0  0  0  0  0  0
   11.6597  -15.1147   20.8596 C   0  0  2  0  0  0  0  0  0  0  0  0
   12.2109  -15.3580   19.5887 N   0  0  0  0  0  0  0  0  0  0  0  0
   12.1615  -16.1446   21.8041 C   0  0  0  0  0  0  0  0  0  0  0  0
   11.7243  -17.3197   21.7061 O   0  0  0  0  0  0  0  0  0  0  0  0
    8.0906  -11.3480   18.2840 N   0  0  0  0  0  0  0  0  0  0  0  0
   13.1208  -15.8454   22.8167 C   0  0  2  0  0  0  0  0  0  0  0  0
   14.2505  -16.6826   23.1181 C   0  0  0  0  0  0  0  0  0  0  0  0
   14.9210  -17.1548   21.8665 C   0  0  0  0  0  0  0  0  0  0  0  0
   16.0706  -18.0327   22.0825 O   0  0  0  0  0  0  0  0  0  0  0  0
   16.0000  -18.8826   23.0068 C   0  0  0  0  0  0  0  0  0  0  0  0
   15.1868  -16.0610   24.0781 O   0  0  0  0  0  0  0  0  0  0  0  0
   15.9172  -16.9172   24.8924 O   0  0  0  0  0  0  0  0  0  0  0  0
   17.2499  -18.0153   21.3518 O   0  0  0  0  0  0  0  0  0  0  0  0
  2  3  2  0
  2  1  1  0
  4  2  1  0
  5  6  1  6
  5  4  1  0
  7  5  1  0
  8  7  2  0
 10  9  1  0
 10 12  1  0
 11 10  2  0
 12 13  1  0
 13 14  1  0
 16 15  1  6
 15 14  1  0
 16 17  1  0
 17  7  1  0
 18 20  1  0
 18 16  1  0
 19 18  2  0
 21 25  1  0
 21 20  1  0
 21 22  1  1
 23 22  1  0
 24 23  2  0
 25 26  1  0
 27 23  1  0
 28 25  2  0
M  END
$$$$
