NRD.pdb
     RDKit          3D

 28 27  0  0  1  0  0  0  0  0999 V2000
   16.7119  -15.2930   17.8974 N   0  0  0  0  0  0  0  0  0  0  0  0
   16.0369  -14.0597   17.7302 C   0  0  0  0  0  0  0  0  0  0  0  0
   16.6781  -13.0763   17.2872 O   0  0  0  0  0  0  0  0  0  0  0  0
   14.6150  -13.9159   18.0632 C   0  0  0  0  0  0  0  0  0  0  0  0
   14.1103  -15.2109   18.6651 C   0  0  2  0  0  0  0  0  0  0  0  0
   13.2237  -15.8828   17.7284 N   0  0  0  0  0  0  0  0  0  0  0  0
   13.3744  -14.9881   19.9193 C   0  0  0  0  0  0  0  0  0  0  0  0
   13.9507  -14.5835   20.9561 O   0  0  0  0  0  0  0  0  0  0  0  0
    8.0702  -13.7887   16.6574 N   0  0  0  0  0  0  0  0  0  0  0  0
    7.8458  -12.9138   17.7521 C   0  0  0  0  0  0  0  0  0  0  0  0
    8.2709  -11.7084   17.6638 N   0  0  0  0  0  0  0  0  0  0  0  0
    7.1783  -13.3280   18.9187 N   0  0  0  0  0  0  0  0  0  0  0  0
    7.7478  -14.3463   19.7937 C   0  0  0  0  0  0  0  0  0  0  0  0
    9.2003  -14.0571   20.0831 C   0  0  0  0  0  0  0  0  0  0  0  0
    9.7022  -15.1997   20.9660 C   0  0  0  0  0  0  0  0  0  0  0  0
   11.1779  -15.1518   21.1636 C   0  0  2  0  0  0  0  0  0  0  0  0
   11.9818  -15.2204   20.0116 N   0  0  0  0  0  0  0  0  0  0  0  0
   11.5482  -16.2659   22.0727 C   0  0  0  0  0  0  0  0  0  0  0  0
   11.3813  -17.4487   21.6792 O   0  0  0  0  0  0  0  0  0  0  0  0
    8.2117  -10.9913   18.4151 N   0  0  0  0  0  0  0  0  0  0  0  0
   12.0856  -16.0390   23.3746 C   0  0  1  0  0  0  0  0  0  0  0  0
   12.3927  -17.0911   24.3056 C   0  0  0  0  0  0  0  0  0  0  0  0
   13.7787  -16.9424   24.8494 C   0  0  0  0  0  0  0  0  0  0  0  0
   14.8325  -16.9048   23.8358 O   0  0  0  0  0  0  0  0  0  0  0  0
   14.7500  -17.7029   22.8674 C   0  0  0  0  0  0  0  0  0  0  0  0
   11.3691  -17.2416   25.3611 O   0  0  0  0  0  0  0  0  0  0  0  0
   10.3096  -16.3433   25.3460 O   0  0  0  0  0  0  0  0  0  0  0  0
   15.9315  -16.0580   23.8430 O   0  0  0  0  0  0  0  0  0  0  0  0
  2  3  2  0
  2  1  1  0
  4  2  1  0
  5  6  1  6
  5  4  1  0
  7  5  1  0
  8  7  2  0
 10  9  1  0
 10 12  1  0
 11 10  2  0
 12 13  1  0
 13 14  1  0
 16 15  1  6
 15 14  1  0
 16 17  1  0
 17  7  1  0
 18 20  1  0
 18 16  1  0
 19 18  2  0
 21 25  1  0
 21 20  1  0
 21 22  1  6
 23 22  1  0
 24 23  2  0
 25 26  1  0
 27 23  1  0
 28 25  2  0
M  END
$$$$
