NRD.pdb
     RDKit          3D

 28 27  0  0  1  0  0  0  0  0999 V2000
   17.2035  -14.7059   11.1054 N   0  0  0  0  0  0  0  0  0  0  0  0
   17.7848  -13.6927   11.9055 C   0  0  0  0  0  0  0  0  0  0  0  0
   18.5928  -12.8935   11.3737 O   0  0  0  0  0  0  0  0  0  0  0  0
   17.4599  -13.5645   13.3308 C   0  0  0  0  0  0  0  0  0  0  0  0
   16.0481  -13.0356   13.4750 C   0  0  2  0  0  0  0  0  0  0  0  0
   15.9562  -11.7005   12.9060 N   0  0  0  0  0  0  0  0  0  0  0  0
   15.6236  -12.9685   14.8820 C   0  0  0  0  0  0  0  0  0  0  0  0
   15.9395  -12.0046   15.6182 O   0  0  0  0  0  0  0  0  0  0  0  0
    8.9633  -17.5852   17.1661 N   0  0  0  0  0  0  0  0  0  0  0  0
    9.9439  -17.5880   16.1402 C   0  0  0  0  0  0  0  0  0  0  0  0
    9.9843  -18.5883   15.3407 N   0  0  0  0  0  0  0  0  0  0  0  0
   10.8633  -16.5359   15.9786 N   0  0  0  0  0  0  0  0  0  0  0  0
   10.8488  -15.3773   16.8643 C   0  0  0  0  0  0  0  0  0  0  0  0
   11.9385  -14.4016   16.4930 C   0  0  0  0  0  0  0  0  0  0  0  0
   13.2358  -14.9564   17.0814 C   0  0  0  0  0  0  0  0  0  0  0  0
   14.4030  -14.0739   16.8024 C   0  0  2  0  0  0  0  0  0  0  0  0
   14.8389  -13.9897   15.4679 N   0  0  0  0  0  0  0  0  0  0  0  0
   15.5326  -14.5386   17.6466 C   0  0  0  0  0  0  0  0  0  0  0  0
   16.2079  -15.5276   17.2624 O   0  0  0  0  0  0  0  0  0  0  0  0
   10.6451  -18.6980   14.5447 N   0  0  0  0  0  0  0  0  0  0  0  0
   15.8760  -13.9018   18.8761 C   0  0  2  0  0  0  0  0  0  0  0  0
   16.9829  -14.3042   19.7012 C   0  0  0  0  0  0  0  0  0  0  0  0
   17.7950  -13.1222   20.1281 C   0  0  0  0  0  0  0  0  0  0  0  0
   18.9633  -13.4462   20.9462 O   0  0  0  0  0  0  0  0  0  0  0  0
   19.4200  -12.5529   21.7046 C   0  0  0  0  0  0  0  0  0  0  0  0
   16.5744  -15.1652   20.8311 O   0  0  0  0  0  0  0  0  0  0  0  0
   15.2114  -15.3568   21.0184 O   0  0  0  0  0  0  0  0  0  0  0  0
   19.6249  -14.6655   20.9641 O   0  0  0  0  0  0  0  0  0  0  0  0
  2  3  2  0
  2  1  1  0
  4  2  1  0
  5  6  1  1
  5  4  1  0
  7  5  1  0
  8  7  2  0
 10  9  1  0
 10 12  1  0
 11 10  2  0
 12 13  1  0
 13 14  1  0
 16 15  1  6
 15 14  1  0
 16 17  1  0
 17  7  1  0
 18 20  1  0
 18 16  1  0
 19 18  2  0
 21 25  1  0
 21 20  1  0
 21 22  1  1
 23 22  1  0
 24 23  2  0
 25 26  1  0
 27 23  1  0
 28 25  2  0
M  END
$$$$
