NRD.pdb
     RDKit          3D

 28 27  0  0  1  0  0  0  0  0999 V2000
   16.5659  -15.6989   17.1660 N   0  0  0  0  0  0  0  0  0  0  0  0
   16.1610  -14.3966   17.5461 C   0  0  0  0  0  0  0  0  0  0  0  0
   16.5937  -13.4159   16.8939 O   0  0  0  0  0  0  0  0  0  0  0  0
   15.2531  -14.1790   18.6783 C   0  0  0  0  0  0  0  0  0  0  0  0
   14.8266  -15.5192   19.2404 C   0  0  2  0  0  0  0  0  0  0  0  0
   13.8914  -16.1646   18.3329 N   0  0  0  0  0  0  0  0  0  0  0  0
   14.1787  -15.3870   20.5545 C   0  0  0  0  0  0  0  0  0  0  0  0
   14.7617  -14.8453   21.5228 O   0  0  0  0  0  0  0  0  0  0  0  0
    6.0830  -13.6702   19.9650 N   0  0  0  0  0  0  0  0  0  0  0  0
    7.1443  -13.1396   19.1864 C   0  0  0  0  0  0  0  0  0  0  0  0
    6.8525  -12.3627   18.2103 N   0  0  0  0  0  0  0  0  0  0  0  0
    8.4923  -13.4398   19.4522 N   0  0  0  0  0  0  0  0  0  0  0  0
    8.8655  -14.3484   20.5303 C   0  0  0  0  0  0  0  0  0  0  0  0
   10.3642  -14.5086   20.6054 C   0  0  0  0  0  0  0  0  0  0  0  0
   10.6410  -15.4529   21.7753 C   0  0  0  0  0  0  0  0  0  0  0  0
   12.0960  -15.7190   21.9516 C   0  0  2  0  0  0  0  0  0  0  0  0
   12.8673  -15.8656   20.7847 N   0  0  0  0  0  0  0  0  0  0  0  0
   12.2341  -16.9475   22.7741 C   0  0  0  0  0  0  0  0  0  0  0  0
   11.9457  -18.0571   22.2571 O   0  0  0  0  0  0  0  0  0  0  0  0
    7.5322  -11.9715   17.5267 N   0  0  0  0  0  0  0  0  0  0  0  0
   12.6817  -16.9104   24.1281 C   0  0  1  0  0  0  0  0  0  0  0  0
   12.7232  -18.0632   24.9867 C   0  0  0  0  0  0  0  0  0  0  0  0
   14.0439  -18.1707   25.6818 C   0  0  0  0  0  0  0  0  0  0  0  0
   15.2078  -17.9898   24.8148 O   0  0  0  0  0  0  0  0  0  0  0  0
   15.3322  -18.7556   23.8249 C   0  0  0  0  0  0  0  0  0  0  0  0
   11.5735  -18.1317   25.9130 O   0  0  0  0  0  0  0  0  0  0  0  0
   11.5182  -19.2226   26.7714 O   0  0  0  0  0  0  0  0  0  0  0  0
   16.2026  -17.0379   24.9849 O   0  0  0  0  0  0  0  0  0  0  0  0
  2  3  2  0
  2  1  1  0
  4  2  1  0
  5  6  1  6
  5  4  1  0
  7  5  1  0
  8  7  2  0
 10  9  1  0
 10 12  1  0
 11 10  2  0
 12 13  1  0
 13 14  1  0
 16 15  1  6
 15 14  1  0
 16 17  1  0
 17  7  1  0
 18 20  1  0
 18 16  1  0
 19 18  2  0
 21 25  1  0
 21 20  1  0
 21 22  1  6
 23 22  1  0
 24 23  2  0
 25 26  1  0
 27 23  1  0
 28 25  2  0
M  END
$$$$
