NRD.pdb
     RDKit          3D

 28 27  0  0  1  0  0  0  0  0999 V2000
    5.2848  -12.8004   27.0778 N   0  0  0  0  0  0  0  0  0  0  0  0
    6.5505  -12.3097   26.6757 C   0  0  0  0  0  0  0  0  0  0  0  0
    6.9311  -11.1954   27.1094 O   0  0  0  0  0  0  0  0  0  0  0  0
    7.4141  -13.0759   25.7698 C   0  0  0  0  0  0  0  0  0  0  0  0
    6.6992  -14.3444   25.3532 C   0  0  2  0  0  0  0  0  0  0  0  0
    6.3960  -15.1523   26.5238 N   0  0  0  0  0  0  0  0  0  0  0  0
    7.5058  -15.1556   24.4282 C   0  0  0  0  0  0  0  0  0  0  0  0
    7.3166  -16.3878   24.2990 O   0  0  0  0  0  0  0  0  0  0  0  0
    7.8288  -12.4887   17.5724 N   0  0  0  0  0  0  0  0  0  0  0  0
    7.7648  -13.9037   17.4834 C   0  0  0  0  0  0  0  0  0  0  0  0
    8.0232  -14.4540   16.3556 N   0  0  0  0  0  0  0  0  0  0  0  0
    7.4285  -14.7101   18.5855 N   0  0  0  0  0  0  0  0  0  0  0  0
    8.4276  -15.0863   19.5791 C   0  0  0  0  0  0  0  0  0  0  0  0
    8.5751  -14.0118   20.6284 C   0  0  0  0  0  0  0  0  0  0  0  0
    9.7603  -14.4203   21.5033 C   0  0  0  0  0  0  0  0  0  0  0  0
    9.3374  -15.2234   22.6846 C   0  0  2  0  0  0  0  0  0  0  0  0
    8.5321  -14.5808   23.6419 N   0  0  0  0  0  0  0  0  0  0  0  0
   10.5649  -15.7264   23.3516 C   0  0  0  0  0  0  0  0  0  0  0  0
   11.2399  -14.9319   24.0551 O   0  0  0  0  0  0  0  0  0  0  0  0
    8.0039  -15.4765   16.1649 N   0  0  0  0  0  0  0  0  0  0  0  0
   11.0027  -17.0778   23.2207 C   0  0  2  0  0  0  0  0  0  0  0  0
   12.2675  -17.5577   23.7086 C   0  0  0  0  0  0  0  0  0  0  0  0
   12.2331  -19.0367   23.9327 C   0  0  0  0  0  0  0  0  0  0  0  0
   11.3105  -19.4753   24.9794 O   0  0  0  0  0  0  0  0  0  0  0  0
   10.7568  -18.5948   25.6864 C   0  0  0  0  0  0  0  0  0  0  0  0
   13.4075  -17.1244   22.8736 O   0  0  0  0  0  0  0  0  0  0  0  0
   14.6803  -17.4507   23.3243 O   0  0  0  0  0  0  0  0  0  0  0  0
   10.9841  -20.7921   25.2698 O   0  0  0  0  0  0  0  0  0  0  0  0
  2  3  2  0
  2  1  1  0
  4  2  1  0
  5  6  1  1
  5  4  1  0
  7  5  1  0
  8  7  2  0
 10  9  1  0
 10 12  1  0
 11 10  2  0
 12 13  1  0
 13 14  1  0
 16 15  1  6
 15 14  1  0
 16 17  1  0
 17  7  1  0
 18 20  1  0
 18 16  1  0
 19 18  2  0
 21 25  1  0
 21 20  1  0
 21 22  1  1
 23 22  1  0
 24 23  2  0
 25 26  1  0
 27 23  1  0
 28 25  2  0
M  END
$$$$
