NRD.pdb
     RDKit          3D

 28 27  0  0  1  0  0  0  0  0999 V2000
    7.6360  -23.9540   21.2620 N   0  0  0  0  0  0  0  0  0  0  0  0
    7.9303  -22.7153   21.8812 C   0  0  0  0  0  0  0  0  0  0  0  0
    7.6306  -22.5586   23.0896 O   0  0  0  0  0  0  0  0  0  0  0  0
    8.5732  -21.6244   21.1396 C   0  0  0  0  0  0  0  0  0  0  0  0
    8.0438  -20.2981   21.6444 C   0  0  2  0  0  0  0  0  0  0  0  0
    6.6227  -20.1874   21.3563 N   0  0  0  0  0  0  0  0  0  0  0  0
    8.7316  -19.1555   21.0234 C   0  0  0  0  0  0  0  0  0  0  0  0
    9.7543  -19.3101   20.3155 O   0  0  0  0  0  0  0  0  0  0  0  0
    9.6446  -13.8641   17.5636 N   0  0  0  0  0  0  0  0  0  0  0  0
    8.3285  -13.3416   17.4676 C   0  0  0  0  0  0  0  0  0  0  0  0
    7.6767  -13.5322   16.3813 N   0  0  0  0  0  0  0  0  0  0  0  0
    7.7266  -12.6274   18.5191 N   0  0  0  0  0  0  0  0  0  0  0  0
    7.7490  -13.1341   19.8865 C   0  0  0  0  0  0  0  0  0  0  0  0
    8.7596  -14.2453   20.0329 C   0  0  0  0  0  0  0  0  0  0  0  0
    8.0052  -15.4443   20.6074 C   0  0  0  0  0  0  0  0  0  0  0  0
    8.8757  -16.6458   20.7406 C   0  0  2  0  0  0  0  0  0  0  0  0
    8.2693  -17.8297   21.1973 N   0  0  0  0  0  0  0  0  0  0  0  0
    9.9915  -16.2958   21.6556 C   0  0  0  0  0  0  0  0  0  0  0  0
    9.7244  -15.9889   22.8456 O   0  0  0  0  0  0  0  0  0  0  0  0
    6.7368  -13.1420   16.1654 N   0  0  0  0  0  0  0  0  0  0  0  0
   11.3531  -16.2961   21.2300 C   0  0  1  0  0  0  0  0  0  0  0  0
   12.4572  -15.9585   22.0873 C   0  0  0  0  0  0  0  0  0  0  0  0
   12.8549  -17.1233   22.9383 C   0  0  0  0  0  0  0  0  0  0  0  0
   13.9747  -16.8654   23.8432 O   0  0  0  0  0  0  0  0  0  0  0  0
   14.4797  -15.7136   23.8455 C   0  0  0  0  0  0  0  0  0  0  0  0
   13.5933  -15.3622   21.3537 O   0  0  0  0  0  0  0  0  0  0  0  0
   14.6107  -14.7996   22.1140 O   0  0  0  0  0  0  0  0  0  0  0  0
   14.5406  -17.7868   24.7124 O   0  0  0  0  0  0  0  0  0  0  0  0
  2  3  2  0
  2  1  1  0
  4  2  1  0
  5  6  1  6
  5  4  1  0
  7  5  1  0
  8  7  2  0
 10  9  1  0
 10 12  1  0
 11 10  2  0
 12 13  1  0
 13 14  1  0
 16 15  1  1
 15 14  1  0
 16 17  1  0
 17  7  1  0
 18 20  1  0
 18 16  1  0
 19 18  2  0
 21 25  1  0
 21 20  1  0
 21 22  1  6
 23 22  1  0
 24 23  2  0
 25 26  1  0
 27 23  1  0
 28 25  2  0
M  END
$$$$
