NRD.pdb
     RDKit          3D

 28 27  0  0  1  0  0  0  0  0999 V2000
   15.3753  -15.3142   16.4837 N   0  0  0  0  0  0  0  0  0  0  0  0
   15.4782  -14.1425   17.2717 C   0  0  0  0  0  0  0  0  0  0  0  0
   16.3673  -13.3028   16.9909 O   0  0  0  0  0  0  0  0  0  0  0  0
   14.5709  -13.8981   18.3990 C   0  0  0  0  0  0  0  0  0  0  0  0
   13.8391  -15.1803   18.7373 C   0  0  2  0  0  0  0  0  0  0  0  0
   12.8528  -15.4762   17.7104 N   0  0  0  0  0  0  0  0  0  0  0  0
   13.1468  -15.0967   20.0326 C   0  0  0  0  0  0  0  0  0  0  0  0
   13.7724  -14.8967   21.1001 O   0  0  0  0  0  0  0  0  0  0  0  0
    8.4010  -12.0993   18.1032 N   0  0  0  0  0  0  0  0  0  0  0  0
    7.9731  -13.4410   17.9276 C   0  0  0  0  0  0  0  0  0  0  0  0
    8.0154  -13.9432   16.7497 N   0  0  0  0  0  0  0  0  0  0  0  0
    7.5081  -14.2260   18.9978 N   0  0  0  0  0  0  0  0  0  0  0  0
    7.5910  -13.7517   20.3745 C   0  0  0  0  0  0  0  0  0  0  0  0
    9.0276  -13.6596   20.8271 C   0  0  0  0  0  0  0  0  0  0  0  0
    9.4822  -15.0895   21.1200 C   0  0  0  0  0  0  0  0  0  0  0  0
   10.9580  -15.1856   21.2979 C   0  0  2  0  0  0  0  0  0  0  0  0
   11.7425  -15.2383   20.1319 N   0  0  0  0  0  0  0  0  0  0  0  0
   11.2366  -16.3923   22.1171 C   0  0  0  0  0  0  0  0  0  0  0  0
   11.0417  -17.5263   21.6094 O   0  0  0  0  0  0  0  0  0  0  0  0
    7.7526  -14.9183   16.4999 N   0  0  0  0  0  0  0  0  0  0  0  0
   11.7165  -16.3076   23.4579 C   0  0  1  0  0  0  0  0  0  0  0  0
   11.9128  -17.4501   24.3088 C   0  0  0  0  0  0  0  0  0  0  0  0
   13.3406  -17.5603   24.7428 C   0  0  0  0  0  0  0  0  0  0  0  0
   13.6370  -18.7213   25.5815 O   0  0  0  0  0  0  0  0  0  0  0  0
   12.7003  -19.5209   25.8364 C   0  0  0  0  0  0  0  0  0  0  0  0
   10.9589  -17.4975   25.4368 O   0  0  0  0  0  0  0  0  0  0  0  0
   10.9846  -18.6317   26.2384 O   0  0  0  0  0  0  0  0  0  0  0  0
   14.8737  -19.0277   26.1305 O   0  0  0  0  0  0  0  0  0  0  0  0
  2  3  2  0
  2  1  1  0
  4  2  1  0
  5  6  1  6
  5  4  1  0
  7  5  1  0
  8  7  2  0
 10  9  1  0
 10 12  1  0
 11 10  2  0
 12 13  1  0
 13 14  1  0
 16 15  1  6
 15 14  1  0
 16 17  1  0
 17  7  1  0
 18 20  1  0
 18 16  1  0
 19 18  2  0
 21 25  1  0
 21 20  1  0
 21 22  1  1
 23 22  1  0
 24 23  2  0
 25 26  1  0
 27 23  1  0
 28 25  2  0
M  END
$$$$
