NRD.pdb
     RDKit          3D

 28 27  0  0  1  0  0  0  0  0999 V2000
   14.4964  -14.2002   17.1571 N   0  0  0  0  0  0  0  0  0  0  0  0
   14.7401  -14.3493   18.5438 C   0  0  0  0  0  0  0  0  0  0  0  0
   15.9249  -14.4719   18.9383 O   0  0  0  0  0  0  0  0  0  0  0  0
   13.6405  -14.3622   19.5154 C   0  0  0  0  0  0  0  0  0  0  0  0
   13.6387  -15.6873   20.2491 C   0  0  2  0  0  0  0  0  0  0  0  0
   12.9349  -16.6895   19.4648 N   0  0  0  0  0  0  0  0  0  0  0  0
   12.9884  -15.5900   21.5651 C   0  0  0  0  0  0  0  0  0  0  0  0
   13.6079  -15.1822   22.5754 O   0  0  0  0  0  0  0  0  0  0  0  0
    7.6662  -11.8717   19.5346 N   0  0  0  0  0  0  0  0  0  0  0  0
    8.1035  -13.0344   18.8483 C   0  0  0  0  0  0  0  0  0  0  0  0
    8.2911  -12.9590   17.5832 N   0  0  0  0  0  0  0  0  0  0  0  0
    8.3331  -14.2540   19.5100 N   0  0  0  0  0  0  0  0  0  0  0  0
    8.7691  -14.2882   20.9013 C   0  0  0  0  0  0  0  0  0  0  0  0
    8.9440  -15.7099   21.3764 C   0  0  0  0  0  0  0  0  0  0  0  0
    9.4311  -15.6265   22.8230 C   0  0  0  0  0  0  0  0  0  0  0  0
   10.8899  -15.9036   22.9426 C   0  0  2  0  0  0  0  0  0  0  0  0
   11.6333  -15.9525   21.7497 N   0  0  0  0  0  0  0  0  0  0  0  0
   11.0471  -17.1953   23.6577 C   0  0  0  0  0  0  0  0  0  0  0  0
   10.4154  -18.1992   23.2395 O   0  0  0  0  0  0  0  0  0  0  0  0
    8.6518  -13.7261   16.9801 N   0  0  0  0  0  0  0  0  0  0  0  0
   11.8890  -17.3345   24.8010 C   0  0  1  0  0  0  0  0  0  0  0  0
   12.0204  -18.5541   25.5515 C   0  0  0  0  0  0  0  0  0  0  0  0
   13.4476  -18.8083   25.9219 C   0  0  0  0  0  0  0  0  0  0  0  0
   14.3904  -18.7409   24.8058 O   0  0  0  0  0  0  0  0  0  0  0  0
   13.9644  -19.0153   23.6547 C   0  0  0  0  0  0  0  0  0  0  0  0
   11.1012  -18.6197   26.7072 O   0  0  0  0  0  0  0  0  0  0  0  0
   11.0711  -19.8096   27.4233 O   0  0  0  0  0  0  0  0  0  0  0  0
   15.7313  -18.3974   24.8995 O   0  0  0  0  0  0  0  0  0  0  0  0
  2  3  2  0
  2  1  1  0
  4  2  1  0
  5  6  1  6
  5  4  1  0
  7  5  1  0
  8  7  2  0
 10  9  1  0
 10 12  1  0
 11 10  2  0
 12 13  1  0
 13 14  1  0
 16 15  1  6
 15 14  1  0
 16 17  1  0
 17  7  1  0
 18 20  1  0
 18 16  1  0
 19 18  2  0
 21 25  1  0
 21 20  1  0
 21 22  1  6
 23 22  1  0
 24 23  2  0
 25 26  1  0
 27 23  1  0
 28 25  2  0
M  END
$$$$
