NRD.pdb
     RDKit          3D

 28 27  0  0  1  0  0  0  0  0999 V2000
   16.9202  -15.1122   16.3408 N   0  0  0  0  0  0  0  0  0  0  0  0
   17.2355  -14.1607   17.3407 C   0  0  0  0  0  0  0  0  0  0  0  0
   18.2889  -13.4891   17.2235 O   0  0  0  0  0  0  0  0  0  0  0  0
   16.3588  -13.9504   18.4985 C   0  0  0  0  0  0  0  0  0  0  0  0
   15.2641  -14.9972   18.4920 C   0  0  2  0  0  0  0  0  0  0  0  0
   14.5217  -14.9331   17.2432 N   0  0  0  0  0  0  0  0  0  0  0  0
   14.3170  -14.8139   19.6026 C   0  0  0  0  0  0  0  0  0  0  0  0
   14.7047  -14.7486   20.7927 O   0  0  0  0  0  0  0  0  0  0  0  0
    6.3260  -12.0156   18.7226 N   0  0  0  0  0  0  0  0  0  0  0  0
    7.0937  -13.1235   18.2784 C   0  0  0  0  0  0  0  0  0  0  0  0
    6.7846  -13.6682   17.1607 N   0  0  0  0  0  0  0  0  0  0  0  0
    8.1718  -13.6355   19.0225 N   0  0  0  0  0  0  0  0  0  0  0  0
    8.3498  -13.2922   20.4287 C   0  0  0  0  0  0  0  0  0  0  0  0
    9.5649  -13.9796   21.0016 C   0  0  0  0  0  0  0  0  0  0  0  0
   10.5868  -14.0691   19.8682 C   0  0  0  0  0  0  0  0  0  0  0  0
   11.9109  -14.5607   20.3417 C   0  0  2  0  0  0  0  0  0  0  0  0
   12.9246  -14.7028   19.3773 N   0  0  0  0  0  0  0  0  0  0  0  0
   11.6950  -15.8711   21.0058 C   0  0  0  0  0  0  0  0  0  0  0  0
   11.5056  -16.8879   20.2904 O   0  0  0  0  0  0  0  0  0  0  0  0
    7.2739  -14.4782   16.7286 N   0  0  0  0  0  0  0  0  0  0  0  0
   11.6953  -16.0139   22.4253 C   0  0  1  0  0  0  0  0  0  0  0  0
   11.9210  -17.2628   23.1015 C   0  0  0  0  0  0  0  0  0  0  0  0
   13.2692  -17.8202   22.7690 C   0  0  0  0  0  0  0  0  0  0  0  0
   13.5832  -19.0913   23.4207 O   0  0  0  0  0  0  0  0  0  0  0  0
   12.7213  -19.5907   24.1885 C   0  0  0  0  0  0  0  0  0  0  0  0
   11.6697  -17.1826   24.5558 O   0  0  0  0  0  0  0  0  0  0  0  0
   11.2044  -15.9708   25.0504 O   0  0  0  0  0  0  0  0  0  0  0  0
   14.7610  -19.8086   23.2689 O   0  0  0  0  0  0  0  0  0  0  0  0
  2  3  2  0
  2  1  1  0
  4  2  1  0
  5  6  1  6
  5  4  1  0
  7  5  1  0
  8  7  2  0
 10  9  1  0
 10 12  1  0
 11 10  2  0
 12 13  1  0
 13 14  1  0
 16 15  1  6
 15 14  1  0
 16 17  1  0
 17  7  1  0
 18 20  1  0
 18 16  1  0
 19 18  2  0
 21 25  1  0
 21 20  1  0
 21 22  1  1
 23 22  1  0
 24 23  2  0
 25 26  1  0
 27 23  1  0
 28 25  2  0
M  END
$$$$
