NRD.pdb
     RDKit          3D

 28 27  0  0  1  0  0  0  0  0999 V2000
   18.1220  -12.9129   15.9885 N   0  0  0  0  0  0  0  0  0  0  0  0
   16.7934  -13.4014   15.9594 C   0  0  0  0  0  0  0  0  0  0  0  0
   16.4197  -14.0742   14.9684 O   0  0  0  0  0  0  0  0  0  0  0  0
   15.8577  -13.1357   17.0582 C   0  0  0  0  0  0  0  0  0  0  0  0
   15.4407  -14.4490   17.6868 C   0  0  2  0  0  0  0  0  0  0  0  0
   14.7685  -15.2811   16.7017 N   0  0  0  0  0  0  0  0  0  0  0  0
   14.5295  -14.2527   18.8250 C   0  0  0  0  0  0  0  0  0  0  0  0
   14.8749  -13.6008   19.8382 O   0  0  0  0  0  0  0  0  0  0  0  0
    7.0163  -14.6217   17.5201 N   0  0  0  0  0  0  0  0  0  0  0  0
    7.5060  -13.4845   18.2137 C   0  0  0  0  0  0  0  0  0  0  0  0
    7.5100  -12.3568   17.6057 N   0  0  0  0  0  0  0  0  0  0  0  0
    7.9827  -13.5596   19.5348 N   0  0  0  0  0  0  0  0  0  0  0  0
    8.4860  -14.8125   20.0862 C   0  0  0  0  0  0  0  0  0  0  0  0
    9.8824  -14.6388   20.6314 C   0  0  0  0  0  0  0  0  0  0  0  0
   10.8382  -14.9143   19.4706 C   0  0  0  0  0  0  0  0  0  0  0  0
   12.2627  -14.7055   19.8528 C   0  0  2  0  0  0  0  0  0  0  0  0
   13.2212  -14.7913   18.8271 N   0  0  0  0  0  0  0  0  0  0  0  0
   12.5980  -15.6976   20.9054 C   0  0  0  0  0  0  0  0  0  0  0  0
   12.6376  -16.9163   20.5975 O   0  0  0  0  0  0  0  0  0  0  0  0
    7.8297  -11.4538   18.0115 N   0  0  0  0  0  0  0  0  0  0  0  0
   12.8758  -15.3145   22.2513 C   0  0  1  0  0  0  0  0  0  0  0  0
   13.1901  -16.2490   23.2982 C   0  0  0  0  0  0  0  0  0  0  0  0
   14.4164  -15.8291   24.0456 C   0  0  0  0  0  0  0  0  0  0  0  0
   15.5133  -16.7960   24.0134 O   0  0  0  0  0  0  0  0  0  0  0  0
   15.3119  -17.8997   23.4451 C   0  0  0  0  0  0  0  0  0  0  0  0
   12.0397  -16.5293   24.1830 O   0  0  0  0  0  0  0  0  0  0  0  0
   12.1706  -17.5879   25.0727 O   0  0  0  0  0  0  0  0  0  0  0  0
   16.7745  -16.6067   24.5596 O   0  0  0  0  0  0  0  0  0  0  0  0
  2  3  2  0
  2  1  1  0
  4  2  1  0
  5  6  1  6
  5  4  1  0
  7  5  1  0
  8  7  2  0
 10  9  1  0
 10 12  1  0
 11 10  2  0
 12 13  1  0
 13 14  1  0
 16 15  1  6
 15 14  1  0
 16 17  1  0
 17  7  1  0
 18 20  1  0
 18 16  1  0
 19 18  2  0
 21 25  1  0
 21 20  1  0
 21 22  1  1
 23 22  1  0
 24 23  2  0
 25 26  1  0
 27 23  1  0
 28 25  2  0
M  END
$$$$
