NRD.pdb
     RDKit          3D

 28 27  0  0  1  0  0  0  0  0999 V2000
    6.8843  -11.4175   18.7636 N   0  0  0  0  0  0  0  0  0  0  0  0
    6.0857  -12.5850   18.7020 C   0  0  0  0  0  0  0  0  0  0  0  0
    4.8662  -12.4679   18.4303 O   0  0  0  0  0  0  0  0  0  0  0  0
    6.6561  -13.9145   18.9480 C   0  0  0  0  0  0  0  0  0  0  0  0
    8.0963  -13.7649   19.3922 C   0  0  2  0  0  0  0  0  0  0  0  0
    8.8764  -13.1256   18.3446 N   0  0  0  0  0  0  0  0  0  0  0  0
    8.7165  -15.0620   19.7039 C   0  0  0  0  0  0  0  0  0  0  0  0
    8.2143  -15.8454   20.5436 O   0  0  0  0  0  0  0  0  0  0  0  0
   10.0011  -15.0575   14.9390 N   0  0  0  0  0  0  0  0  0  0  0  0
    9.8407  -16.2473   14.1822 C   0  0  0  0  0  0  0  0  0  0  0  0
    8.9099  -16.2874   13.3027 N   0  0  0  0  0  0  0  0  0  0  0  0
   10.6647  -17.3718   14.3689 N   0  0  0  0  0  0  0  0  0  0  0  0
   11.2699  -17.6580   15.6646 C   0  0  0  0  0  0  0  0  0  0  0  0
   10.5048  -16.9843   16.7773 C   0  0  0  0  0  0  0  0  0  0  0  0
   11.2532  -17.3020   18.0719 C   0  0  0  0  0  0  0  0  0  0  0  0
   10.5988  -16.6939   19.2640 C   0  0  2  0  0  0  0  0  0  0  0  0
    9.9085  -15.4841   19.0693 N   0  0  0  0  0  0  0  0  0  0  0  0
   11.6449  -16.4872   20.2972 C   0  0  0  0  0  0  0  0  0  0  0  0
   12.3925  -15.4799   20.2081 O   0  0  0  0  0  0  0  0  0  0  0  0
    8.6949  -17.0991   12.6885 N   0  0  0  0  0  0  0  0  0  0  0  0
   11.8294  -17.3918   21.3848 C   0  0  2  0  0  0  0  0  0  0  0  0
   12.8822  -17.2673   22.3565 C   0  0  0  0  0  0  0  0  0  0  0  0
   12.3394  -17.3227   23.7498 C   0  0  0  0  0  0  0  0  0  0  0  0
   13.3554  -17.3341   24.8019 O   0  0  0  0  0  0  0  0  0  0  0  0
   13.6008  -18.4264   25.3748 C   0  0  0  0  0  0  0  0  0  0  0  0
   13.9906  -18.2180   22.1280 O   0  0  0  0  0  0  0  0  0  0  0  0
   15.1932  -17.9520   22.7705 O   0  0  0  0  0  0  0  0  0  0  0  0
   14.0848  -16.2358   25.2334 O   0  0  0  0  0  0  0  0  0  0  0  0
  2  3  2  0
  2  1  1  0
  4  2  1  0
  5  6  1  6
  5  4  1  0
  7  5  1  0
  8  7  2  0
 10  9  1  0
 10 12  1  0
 11 10  2  0
 12 13  1  0
 13 14  1  0
 16 15  1  6
 15 14  1  0
 16 17  1  0
 17  7  1  0
 18 20  1  0
 18 16  1  0
 19 18  2  0
 21 25  1  0
 21 20  1  0
 21 22  1  1
 23 22  1  0
 24 23  2  0
 25 26  1  0
 27 23  1  0
 28 25  2  0
M  END
$$$$
