NRD.pdb
     RDKit          3D

 28 27  0  0  1  0  0  0  0  0999 V2000
    9.8634  -17.1434   14.2292 N   0  0  0  0  0  0  0  0  0  0  0  0
   10.2269  -17.7207   15.4698 C   0  0  0  0  0  0  0  0  0  0  0  0
   10.0569  -18.9529   15.6346 O   0  0  0  0  0  0  0  0  0  0  0  0
   10.7931  -16.9089   16.5533 C   0  0  0  0  0  0  0  0  0  0  0  0
   11.0016  -17.7814   17.7736 C   0  0  2  0  0  0  0  0  0  0  0  0
    9.9330  -18.7628   17.8722 N   0  0  0  0  0  0  0  0  0  0  0  0
   11.0241  -16.9963   19.0175 C   0  0  0  0  0  0  0  0  0  0  0  0
   11.8251  -16.0461   19.1802 O   0  0  0  0  0  0  0  0  0  0  0  0
    7.5961  -11.5018   20.5733 N   0  0  0  0  0  0  0  0  0  0  0  0
    8.0757  -12.3613   19.5509 C   0  0  0  0  0  0  0  0  0  0  0  0
    8.4341  -11.8398   18.4369 N   0  0  0  0  0  0  0  0  0  0  0  0
    8.1667  -13.7542   19.7235 N   0  0  0  0  0  0  0  0  0  0  0  0
    7.6348  -14.4039   20.9160 C   0  0  0  0  0  0  0  0  0  0  0  0
    7.7372  -15.9052   20.8026 C   0  0  0  0  0  0  0  0  0  0  0  0
    8.7189  -16.3556   21.8845 C   0  0  0  0  0  0  0  0  0  0  0  0
   10.0753  -16.6317   21.3341 C   0  0  2  0  0  0  0  0  0  0  0  0
   10.1419  -17.2786   20.0871 N   0  0  0  0  0  0  0  0  0  0  0  0
   10.8120  -17.4443   22.3348 C   0  0  0  0  0  0  0  0  0  0  0  0
   10.2123  -17.8074   23.3790 O   0  0  0  0  0  0  0  0  0  0  0  0
    8.8121  -12.3620   17.6203 N   0  0  0  0  0  0  0  0  0  0  0  0
   12.1743  -17.8257   22.1512 C   0  0  2  0  0  0  0  0  0  0  0  0
   13.1886  -17.6729   23.1592 C   0  0  0  0  0  0  0  0  0  0  0  0
   14.2993  -16.7935   22.6776 C   0  0  0  0  0  0  0  0  0  0  0  0
   15.4008  -16.6254   23.6250 O   0  0  0  0  0  0  0  0  0  0  0  0
   15.7791  -15.4557   23.8903 C   0  0  0  0  0  0  0  0  0  0  0  0
   12.6413  -17.2520   24.4661 O   0  0  0  0  0  0  0  0  0  0  0  0
   12.9820  -18.0221   25.5709 O   0  0  0  0  0  0  0  0  0  0  0  0
   16.0779  -17.6514   24.2682 O   0  0  0  0  0  0  0  0  0  0  0  0
  2  3  2  0
  2  1  1  0
  4  2  1  0
  5  6  1  1
  5  4  1  0
  7  5  1  0
  8  7  2  0
 10  9  1  0
 10 12  1  0
 11 10  2  0
 12 13  1  0
 13 14  1  0
 16 15  1  1
 15 14  1  0
 16 17  1  0
 17  7  1  0
 18 20  1  0
 18 16  1  0
 19 18  2  0
 21 25  1  0
 21 20  1  0
 21 22  1  6
 23 22  1  0
 24 23  2  0
 25 26  1  0
 27 23  1  0
 28 25  2  0
M  END
$$$$
