NRD.pdb
     RDKit          3D

 28 27  0  0  1  0  0  0  0  0999 V2000
    6.9162  -12.5804   16.6792 N   0  0  0  0  0  0  0  0  0  0  0  0
    8.1000  -12.7529   17.4364 C   0  0  0  0  0  0  0  0  0  0  0  0
    9.2032  -12.4901   16.8995 O   0  0  0  0  0  0  0  0  0  0  0  0
    8.0566  -13.2289   18.8239 C   0  0  0  0  0  0  0  0  0  0  0  0
    9.0296  -14.3780   18.9877 C   0  0  2  0  0  0  0  0  0  0  0  0
    8.7488  -15.4120   18.0045 N   0  0  0  0  0  0  0  0  0  0  0  0
    8.9529  -14.9810   20.3274 C   0  0  0  0  0  0  0  0  0  0  0  0
    9.2209  -14.3234   21.3601 O   0  0  0  0  0  0  0  0  0  0  0  0
    6.8624  -20.2094   17.7709 N   0  0  0  0  0  0  0  0  0  0  0  0
    7.5313  -21.0474   18.7006 C   0  0  0  0  0  0  0  0  0  0  0  0
    8.2790  -21.9835   18.2466 N   0  0  0  0  0  0  0  0  0  0  0  0
    7.3974  -20.8820   20.0908 N   0  0  0  0  0  0  0  0  0  0  0  0
    6.4237  -19.9517   20.6506 C   0  0  0  0  0  0  0  0  0  0  0  0
    6.9416  -18.5352   20.6011 C   0  0  0  0  0  0  0  0  0  0  0  0
    8.0014  -18.4227   21.6971 C   0  0  0  0  0  0  0  0  0  0  0  0
    8.6892  -17.1015   21.6816 C   0  0  2  0  0  0  0  0  0  0  0  0
    8.5726  -16.3315   20.5105 N   0  0  0  0  0  0  0  0  0  0  0  0
   10.1288  -17.3384   21.9572 C   0  0  0  0  0  0  0  0  0  0  0  0
   10.8068  -17.9856   21.1186 O   0  0  0  0  0  0  0  0  0  0  0  0
    8.8372  -22.6439   18.8252 N   0  0  0  0  0  0  0  0  0  0  0  0
   10.7664  -16.8575   23.1393 C   0  0  1  0  0  0  0  0  0  0  0  0
   12.1768  -16.9810   23.3918 C   0  0  0  0  0  0  0  0  0  0  0  0
   12.9281  -15.8111   22.8389 C   0  0  0  0  0  0  0  0  0  0  0  0
   14.3825  -15.9656   22.8332 O   0  0  0  0  0  0  0  0  0  0  0  0
   15.0217  -15.5820   23.8462 C   0  0  0  0  0  0  0  0  0  0  0  0
   12.4851  -17.2489   24.8123 O   0  0  0  0  0  0  0  0  0  0  0  0
   13.7947  -17.5954   25.1198 O   0  0  0  0  0  0  0  0  0  0  0  0
   15.1344  -16.5040   21.7991 O   0  0  0  0  0  0  0  0  0  0  0  0
  2  3  2  0
  2  1  1  0
  4  2  1  0
  5  6  1  6
  5  4  1  0
  7  5  1  0
  8  7  2  0
 10  9  1  0
 10 12  1  0
 11 10  2  0
 12 13  1  0
 13 14  1  0
 16 15  1  6
 15 14  1  0
 16 17  1  0
 17  7  1  0
 18 20  1  0
 18 16  1  0
 19 18  2  0
 21 25  1  0
 21 20  1  0
 21 22  1  1
 23 22  1  0
 24 23  2  0
 25 26  1  0
 27 23  1  0
 28 25  2  0
M  END
$$$$
