PQD.pdb
     RDKit          3D

 25 25  0  0  1  0  0  0  0  0999 V2000
    7.1556  -14.8205   20.0273 N   0  0  0  0  0  0  0  0  0  0  0  0
    6.5330  -14.1195   18.9179 C   0  0  0  0  0  0  0  0  0  0  0  0
    7.4613  -12.9933   18.5342 C   0  0  0  0  0  0  0  0  0  0  0  0
    8.4302  -12.9122   19.6929 C   0  0  0  0  0  0  0  0  0  0  0  0
    8.5106  -14.3625   20.1188 C   0  0  1  0  0  0  0  0  0  0  0  0
    8.9531  -14.3947   21.5588 C   0  0  0  0  0  0  0  0  0  0  0  0
   10.1456  -14.1637   21.8783 O   0  0  0  0  0  0  0  0  0  0  0  0
    5.5070  -12.8749   26.4869 N   0  0  0  0  0  0  0  0  0  0  0  0
    6.8283  -12.7532   26.9376 C   0  0  0  0  0  0  0  0  0  0  0  0
    7.1527  -12.0707   27.9201 O   0  0  0  0  0  0  0  0  0  0  0  0
    7.9016  -13.5051   26.1673 C   0  0  0  0  0  0  0  0  0  0  0  0
    7.3926  -13.8347   24.7902 C   0  0  0  0  0  0  0  0  0  0  0  0
    8.4393  -14.5218   23.9932 C   0  0  2  0  0  0  0  0  0  0  0  0
    8.0408  -14.6862   22.5998 N   0  0  0  0  0  0  0  0  0  0  0  0
    8.8962  -15.8317   24.5387 C   0  0  0  0  0  0  0  0  0  0  0  0
    8.2849  -16.9041   24.4449 O   0  0  0  0  0  0  0  0  0  0  0  0
   10.1382  -15.9014   25.2356 N   0  0  0  0  0  0  0  0  0  0  0  0
   10.7491  -17.0764   25.7287 C   0  0  1  0  0  0  0  0  0  0  0  0
   12.2267  -17.1567   25.6742 C   0  0  0  0  0  0  0  0  0  0  0  0
   12.7694  -16.9389   24.2995 C   0  0  0  0  0  0  0  0  0  0  0  0
   12.2528  -17.4480   23.2709 O   0  0  0  0  0  0  0  0  0  0  0  0
   10.3449  -17.2583   27.1658 C   0  0  0  0  0  0  0  0  0  0  0  0
    9.6821  -16.3546   27.7736 O   0  0  0  0  0  0  0  0  0  0  0  0
   13.8908  -16.1513   24.0740 O   0  0  0  0  0  0  0  0  0  0  0  0
   10.6631  -18.3903   27.8891 O   0  0  0  0  0  0  0  0  0  0  0  0
  1  5  1  0
  2  1  1  0
  3  4  1  0
  3  2  1  0
  4  5  1  0
  5  6  1  1
  6 14  1  0
  6  7  2  0
  9 10  2  0
  9  8  1  0
 11  9  1  0
 12 11  1  0
 13 12  1  1
 14 13  1  0
 15 13  1  0
 15 17  1  0
 16 15  2  0
 18 19  1  1
 18 17  1  0
 18 22  1  0
 19 20  1  0
 20 21  2  0
 20 24  1  0
 22 25  1  0
 23 22  2  0
M  END
$$$$
