PQD.pdb
     RDKit          3D

 25 25  0  0  1  0  0  0  0  0999 V2000
    6.9667  -14.5970   20.4110 N   0  0  0  0  0  0  0  0  0  0  0  0
    6.2040  -13.8723   19.4095 C   0  0  0  0  0  0  0  0  0  0  0  0
    7.1093  -12.7958   18.8627 C   0  0  0  0  0  0  0  0  0  0  0  0
    8.2588  -12.7562   19.8450 C   0  0  0  0  0  0  0  0  0  0  0  0
    8.3386  -14.2062   20.2719 C   0  0  1  0  0  0  0  0  0  0  0  0
    9.0106  -14.2520   21.6199 C   0  0  0  0  0  0  0  0  0  0  0  0
   10.2420  -14.0363   21.7406 O   0  0  0  0  0  0  0  0  0  0  0  0
    6.8205  -12.0856   26.7829 N   0  0  0  0  0  0  0  0  0  0  0  0
    6.2475  -13.3421   26.5447 C   0  0  0  0  0  0  0  0  0  0  0  0
    5.2228  -13.7426   27.1154 O   0  0  0  0  0  0  0  0  0  0  0  0
    6.9346  -14.2427   25.5311 C   0  0  0  0  0  0  0  0  0  0  0  0
    8.1852  -13.5722   25.0309 C   0  0  0  0  0  0  0  0  0  0  0  0
    8.9233  -14.4626   24.1007 C   0  0  2  0  0  0  0  0  0  0  0  0
    8.2777  -14.5396   22.7951 N   0  0  0  0  0  0  0  0  0  0  0  0
    9.1829  -15.8393   24.6102 C   0  0  0  0  0  0  0  0  0  0  0  0
    8.4194  -16.8068   24.4933 O   0  0  0  0  0  0  0  0  0  0  0  0
   10.4027  -16.1098   25.2972 N   0  0  0  0  0  0  0  0  0  0  0  0
   10.8378  -17.3756   25.7503 C   0  0  1  0  0  0  0  0  0  0  0  0
   12.2843  -17.6781   25.6570 C   0  0  0  0  0  0  0  0  0  0  0  0
   12.7685  -17.7692   24.2467 C   0  0  0  0  0  0  0  0  0  0  0  0
   12.1462  -18.3935   23.3482 O   0  0  0  0  0  0  0  0  0  0  0  0
   10.4417  -17.5290   27.1929 C   0  0  0  0  0  0  0  0  0  0  0  0
    9.9604  -16.5433   27.8427 O   0  0  0  0  0  0  0  0  0  0  0  0
   13.9493  -17.1620   23.8398 O   0  0  0  0  0  0  0  0  0  0  0  0
   10.5752  -18.7206   27.8770 O   0  0  0  0  0  0  0  0  0  0  0  0
  1  5  1  0
  2  1  1  0
  3  4  1  0
  3  2  1  0
  4  5  1  0
  5  6  1  1
  6 14  1  0
  6  7  2  0
  9 10  2  0
  9  8  1  0
 11  9  1  0
 12 11  1  0
 13 12  1  1
 14 13  1  0
 15 13  1  0
 15 17  1  0
 16 15  2  0
 18 19  1  1
 18 17  1  0
 18 22  1  0
 19 20  1  0
 20 21  2  0
 20 24  1  0
 22 25  1  0
 23 22  2  0
M  END
$$$$
