PQD.pdb
     RDKit          3D

 25 25  0  0  1  0  0  0  0  0999 V2000
    7.6670  -15.1144   19.6503 N   0  0  0  0  0  0  0  0  0  0  0  0
    6.8257  -14.3217   18.7708 C   0  0  0  0  0  0  0  0  0  0  0  0
    7.3313  -12.9017   18.8424 C   0  0  0  0  0  0  0  0  0  0  0  0
    8.2488  -12.9045   20.0450 C   0  0  0  0  0  0  0  0  0  0  0  0
    8.8031  -14.3121   19.9961 C   0  0  1  0  0  0  0  0  0  0  0  0
    9.2657  -14.6723   21.3843 C   0  0  0  0  0  0  0  0  0  0  0  0
   10.2730  -14.1245   21.8970 O   0  0  0  0  0  0  0  0  0  0  0  0
    6.2399  -17.8992   25.8535 N   0  0  0  0  0  0  0  0  0  0  0  0
    7.4560  -17.6339   26.4974 C   0  0  0  0  0  0  0  0  0  0  0  0
    7.6665  -17.8965   27.6903 O   0  0  0  0  0  0  0  0  0  0  0  0
    8.5584  -16.9910   25.6716 C   0  0  0  0  0  0  0  0  0  0  0  0
    8.0161  -16.6108   24.3206 C   0  0  0  0  0  0  0  0  0  0  0  0
    9.0800  -16.0123   23.4763 C   0  0  2  0  0  0  0  0  0  0  0  0
    8.5814  -15.6393   22.1573 N   0  0  0  0  0  0  0  0  0  0  0  0
   10.3131  -16.8368   23.3280 C   0  0  0  0  0  0  0  0  0  0  0  0
   10.3820  -17.9346   22.7599 O   0  0  0  0  0  0  0  0  0  0  0  0
   11.5410  -16.3583   23.8723 N   0  0  0  0  0  0  0  0  0  0  0  0
   12.7527  -17.0812   23.9501 C   0  0  1  0  0  0  0  0  0  0  0  0
   14.0048  -16.3072   24.1109 C   0  0  0  0  0  0  0  0  0  0  0  0
   14.6400  -15.9532   22.8059 C   0  0  0  0  0  0  0  0  0  0  0  0
   14.1774  -16.3254   21.6961 O   0  0  0  0  0  0  0  0  0  0  0  0
   12.6661  -18.0360   25.1088 C   0  0  0  0  0  0  0  0  0  0  0  0
   11.8143  -17.8525   26.0394 O   0  0  0  0  0  0  0  0  0  0  0  0
   15.7933  -15.1824   22.7410 O   0  0  0  0  0  0  0  0  0  0  0  0
   13.4873  -19.1396   25.2246 O   0  0  0  0  0  0  0  0  0  0  0  0
  1  5  1  0
  2  1  1  0
  3  4  1  0
  3  2  1  0
  4  5  1  0
  5  6  1  1
  6 14  1  0
  6  7  2  0
  9 10  2  0
  9  8  1  0
 11  9  1  0
 12 11  1  0
 13 12  1  6
 14 13  1  0
 15 13  1  0
 15 17  1  0
 16 15  2  0
 18 19  1  1
 18 17  1  0
 18 22  1  0
 19 20  1  0
 20 21  2  0
 20 24  1  0
 22 25  1  0
 23 22  2  0
M  END
$$$$
