PQD.pdb
     RDKit          3D

 25 25  0  0  1  0  0  0  0  0999 V2000
    7.2326  -14.9978   20.3476 N   0  0  0  0  0  0  0  0  0  0  0  0
    6.5746  -14.3162   19.2466 C   0  0  0  0  0  0  0  0  0  0  0  0
    7.4103  -13.1031   18.9193 C   0  0  0  0  0  0  0  0  0  0  0  0
    8.3452  -12.9780   20.1017 C   0  0  0  0  0  0  0  0  0  0  0  0
    8.5411  -14.4294   20.4842 C   0  0  1  0  0  0  0  0  0  0  0  0
    8.9557  -14.4711   21.9323 C   0  0  0  0  0  0  0  0  0  0  0  0
   10.1167  -14.1478   22.2862 O   0  0  0  0  0  0  0  0  0  0  0  0
    5.5468  -13.2025   26.7933 N   0  0  0  0  0  0  0  0  0  0  0  0
    6.5893  -12.3294   26.4548 C   0  0  0  0  0  0  0  0  0  0  0  0
    6.6393  -11.1497   26.8320 O   0  0  0  0  0  0  0  0  0  0  0  0
    7.7046  -12.8783   25.5799 C   0  0  0  0  0  0  0  0  0  0  0  0
    7.4041  -14.3088   25.2232 C   0  0  0  0  0  0  0  0  0  0  0  0
    8.4615  -14.8644   24.3422 C   0  0  2  0  0  0  0  0  0  0  0  0
    8.0519  -14.8757   22.9424 N   0  0  0  0  0  0  0  0  0  0  0  0
    8.9637  -16.2146   24.7254 C   0  0  0  0  0  0  0  0  0  0  0  0
    8.3625  -17.2829   24.5523 O   0  0  0  0  0  0  0  0  0  0  0  0
   10.2413  -16.3323   25.3474 N   0  0  0  0  0  0  0  0  0  0  0  0
   10.8592  -17.5363   25.7542 C   0  0  1  0  0  0  0  0  0  0  0  0
   12.3332  -17.6235   25.6417 C   0  0  0  0  0  0  0  0  0  0  0  0
   12.8317  -17.2888   24.2738 C   0  0  0  0  0  0  0  0  0  0  0  0
   12.4296  -17.8763   23.2359 O   0  0  0  0  0  0  0  0  0  0  0  0
   10.5053  -17.7928   27.1932 C   0  0  0  0  0  0  0  0  0  0  0  0
    9.8557  -16.9268   27.8666 O   0  0  0  0  0  0  0  0  0  0  0  0
   13.7806  -16.2964   24.0655 O   0  0  0  0  0  0  0  0  0  0  0  0
   10.8576  -18.9555   27.8486 O   0  0  0  0  0  0  0  0  0  0  0  0
  1  5  1  0
  2  1  1  0
  3  4  1  0
  3  2  1  0
  4  5  1  0
  5  6  1  1
  6 14  1  0
  6  7  2  0
  9 10  2  0
  9  8  1  0
 11  9  1  0
 12 11  1  0
 13 12  1  1
 14 13  1  0
 15 13  1  0
 15 17  1  0
 16 15  2  0
 18 19  1  1
 18 17  1  0
 18 22  1  0
 19 20  1  0
 20 21  2  0
 20 24  1  0
 22 25  1  0
 23 22  2  0
M  END
$$$$
