PQD.pdb
     RDKit          3D

 25 25  0  0  1  0  0  0  0  0999 V2000
    7.8501  -15.0617   19.5165 N   0  0  0  0  0  0  0  0  0  0  0  0
    7.0772  -14.3652   18.5030 C   0  0  0  0  0  0  0  0  0  0  0  0
    7.2696  -12.8878   18.7428 C   0  0  0  0  0  0  0  0  0  0  0  0
    7.8931  -12.8228   20.1194 C   0  0  0  0  0  0  0  0  0  0  0  0
    8.7083  -14.0980   20.1399 C   0  0  1  0  0  0  0  0  0  0  0  0
    8.9263  -14.4808   21.5810 C   0  0  0  0  0  0  0  0  0  0  0  0
    9.6419  -13.7804   22.3391 O   0  0  0  0  0  0  0  0  0  0  0  0
    6.2693  -18.8718   24.8691 N   0  0  0  0  0  0  0  0  0  0  0  0
    6.9081  -18.2100   25.9263 C   0  0  0  0  0  0  0  0  0  0  0  0
    6.9074  -18.6299   27.0924 O   0  0  0  0  0  0  0  0  0  0  0  0
    7.6323  -16.9131   25.6033 C   0  0  0  0  0  0  0  0  0  0  0  0
    7.3484  -16.5216   24.1785 C   0  0  0  0  0  0  0  0  0  0  0  0
    8.5740  -16.0031   23.5214 C   0  0  2  0  0  0  0  0  0  0  0  0
    8.3326  -15.6419   22.1290 N   0  0  0  0  0  0  0  0  0  0  0  0
    9.7660  -16.8944   23.6055 C   0  0  0  0  0  0  0  0  0  0  0  0
    9.8784  -18.0007   23.0614 O   0  0  0  0  0  0  0  0  0  0  0  0
   10.8964  -16.4764   24.3674 N   0  0  0  0  0  0  0  0  0  0  0  0
   12.0373  -17.2579   24.6577 C   0  0  1  0  0  0  0  0  0  0  0  0
   13.3469  -16.5684   24.7083 C   0  0  0  0  0  0  0  0  0  0  0  0
   13.8880  -16.2502   23.3527 C   0  0  0  0  0  0  0  0  0  0  0  0
   13.6628  -16.9639   22.3408 O   0  0  0  0  0  0  0  0  0  0  0  0
   11.8329  -17.9261   25.9894 C   0  0  0  0  0  0  0  0  0  0  0  0
   10.8569  -17.5942   26.7396 O   0  0  0  0  0  0  0  0  0  0  0  0
   14.6816  -15.1330   23.1276 O   0  0  0  0  0  0  0  0  0  0  0  0
   12.6735  -18.9142   26.4613 O   0  0  0  0  0  0  0  0  0  0  0  0
  1  5  1  0
  2  1  1  0
  3  4  1  0
  3  2  1  0
  4  5  1  0
  5  6  1  1
  6 14  1  0
  6  7  2  0
  9 10  2  0
  9  8  1  0
 11  9  1  0
 12 11  1  0
 13 12  1  6
 14 13  1  0
 15 13  1  0
 15 17  1  0
 16 15  2  0
 18 19  1  1
 18 17  1  0
 18 22  1  0
 19 20  1  0
 20 21  2  0
 20 24  1  0
 22 25  1  0
 23 22  2  0
M  END
$$$$
