PQD.pdb
     RDKit          3D

 25 25  0  0  1  0  0  0  0  0999 V2000
    8.0238  -14.5455   18.9012 N   0  0  0  0  0  0  0  0  0  0  0  0
    7.4102  -13.7700   17.8373 C   0  0  0  0  0  0  0  0  0  0  0  0
    7.2276  -12.3682   18.3654 C   0  0  0  0  0  0  0  0  0  0  0  0
    7.4510  -12.5105   19.8546 C   0  0  0  0  0  0  0  0  0  0  0  0
    8.4774  -13.6222   19.8991 C   0  0  1  0  0  0  0  0  0  0  0  0
    8.3930  -14.2715   21.2563 C   0  0  0  0  0  0  0  0  0  0  0  0
    8.6760  -13.6343   22.3010 O   0  0  0  0  0  0  0  0  0  0  0  0
    3.9914  -18.4657   21.4999 N   0  0  0  0  0  0  0  0  0  0  0  0
    5.0753  -18.6499   22.3687 C   0  0  0  0  0  0  0  0  0  0  0  0
    5.0115  -19.3307   23.4025 O   0  0  0  0  0  0  0  0  0  0  0  0
    6.3859  -17.9711   22.0050 C   0  0  0  0  0  0  0  0  0  0  0  0
    6.6950  -16.9022   23.0178 C   0  0  0  0  0  0  0  0  0  0  0  0
    7.9940  -16.2510   22.7153 C   0  0  2  0  0  0  0  0  0  0  0  0
    7.9924  -15.6204   21.4001 N   0  0  0  0  0  0  0  0  0  0  0  0
    9.1912  -17.1297   22.8452 C   0  0  0  0  0  0  0  0  0  0  0  0
    9.6147  -17.9036   21.9767 O   0  0  0  0  0  0  0  0  0  0  0  0
    9.9427  -17.1090   24.0567 N   0  0  0  0  0  0  0  0  0  0  0  0
   11.3055  -17.4564   24.1948 C   0  0  1  0  0  0  0  0  0  0  0  0
   12.3108  -16.5344   23.6184 C   0  0  0  0  0  0  0  0  0  0  0  0
   13.7126  -17.0185   23.7979 C   0  0  0  0  0  0  0  0  0  0  0  0
   13.9994  -18.2286   23.9914 O   0  0  0  0  0  0  0  0  0  0  0  0
   11.6168  -17.5974   25.6593 C   0  0  0  0  0  0  0  0  0  0  0  0
   10.8384  -17.1026   26.5394 O   0  0  0  0  0  0  0  0  0  0  0  0
   14.7951  -16.1494   23.7610 O   0  0  0  0  0  0  0  0  0  0  0  0
   12.7390  -18.2565   26.1198 O   0  0  0  0  0  0  0  0  0  0  0  0
  1  5  1  0
  2  1  1  0
  3  4  1  0
  3  2  1  0
  4  5  1  0
  5  6  1  1
  6 14  1  0
  6  7  2  0
  9 10  2  0
  9  8  1  0
 11  9  1  0
 12 11  1  0
 13 12  1  6
 14 13  1  0
 15 13  1  0
 15 17  1  0
 16 15  2  0
 18 19  1  1
 18 17  1  0
 18 22  1  0
 19 20  1  0
 20 21  2  0
 20 24  1  0
 22 25  1  0
 23 22  2  0
M  END
$$$$
