PQD.pdb
     RDKit          3D

 25 25  0  0  1  0  0  0  0  0999 V2000
    7.0414  -15.0421   20.0051 N   0  0  0  0  0  0  0  0  0  0  0  0
    6.3766  -14.4125   18.8775 C   0  0  0  0  0  0  0  0  0  0  0  0
    7.2589  -13.2738   18.4279 C   0  0  0  0  0  0  0  0  0  0  0  0
    8.2436  -13.1086   19.5641 C   0  0  0  0  0  0  0  0  0  0  0  0
    8.3811  -14.5350   20.0517 C   0  0  1  0  0  0  0  0  0  0  0  0
    8.8483  -14.4882   21.4836 C   0  0  0  0  0  0  0  0  0  0  0  0
   10.0375  -14.2037   21.7708 O   0  0  0  0  0  0  0  0  0  0  0  0
    5.6004  -12.8425   26.4971 N   0  0  0  0  0  0  0  0  0  0  0  0
    6.9361  -12.7779   26.9162 C   0  0  0  0  0  0  0  0  0  0  0  0
    7.3131  -12.1083   27.8887 O   0  0  0  0  0  0  0  0  0  0  0  0
    7.9570  -13.5775   26.1231 C   0  0  0  0  0  0  0  0  0  0  0  0
    7.4096  -13.8701   24.7524 C   0  0  0  0  0  0  0  0  0  0  0  0
    8.4075  -14.6018   23.9329 C   0  0  2  0  0  0  0  0  0  0  0  0
    7.9640  -14.7630   22.5528 N   0  0  0  0  0  0  0  0  0  0  0  0
    8.8316  -15.9231   24.4775 C   0  0  0  0  0  0  0  0  0  0  0  0
    8.1339  -16.9450   24.5139 O   0  0  0  0  0  0  0  0  0  0  0  0
   10.1454  -16.0671   25.0126 N   0  0  0  0  0  0  0  0  0  0  0  0
   10.7428  -17.2766   25.4333 C   0  0  1  0  0  0  0  0  0  0  0  0
   12.2220  -17.3464   25.4382 C   0  0  0  0  0  0  0  0  0  0  0  0
   12.8253  -16.9660   24.1255 C   0  0  0  0  0  0  0  0  0  0  0  0
   12.5081  -17.5190   23.0403 O   0  0  0  0  0  0  0  0  0  0  0  0
   10.2770  -17.5791   26.8309 C   0  0  0  0  0  0  0  0  0  0  0  0
    9.5501  -16.7474   27.4675 O   0  0  0  0  0  0  0  0  0  0  0  0
   13.7841  -15.9664   24.0254 O   0  0  0  0  0  0  0  0  0  0  0  0
   10.6046  -18.7492   27.4860 O   0  0  0  0  0  0  0  0  0  0  0  0
  1  5  1  0
  2  1  1  0
  3  4  1  0
  3  2  1  0
  4  5  1  0
  5  6  1  1
  6 14  1  0
  6  7  2  0
  9 10  2  0
  9  8  1  0
 11  9  1  0
 12 11  1  0
 13 12  1  1
 14 13  1  0
 15 13  1  0
 15 17  1  0
 16 15  2  0
 18 19  1  1
 18 17  1  0
 18 22  1  0
 19 20  1  0
 20 21  2  0
 20 24  1  0
 22 25  1  0
 23 22  2  0
M  END
$$$$
