PQD.pdb
     RDKit          3D

 25 25  0  0  1  0  0  0  0  0999 V2000
    7.1468  -14.6861   20.4128 N   0  0  0  0  0  0  0  0  0  0  0  0
    6.3666  -14.0386   19.3727 C   0  0  0  0  0  0  0  0  0  0  0  0
    7.1820  -12.8701   18.8757 C   0  0  0  0  0  0  0  0  0  0  0  0
    8.2676  -12.7170   19.9178 C   0  0  0  0  0  0  0  0  0  0  0  0
    8.4758  -14.1535   20.3473 C   0  0  1  0  0  0  0  0  0  0  0  0
    9.0766  -14.1375   21.7291 C   0  0  0  0  0  0  0  0  0  0  0  0
   10.2560  -13.7505   21.9212 O   0  0  0  0  0  0  0  0  0  0  0  0
    6.9701  -11.9738   26.7425 N   0  0  0  0  0  0  0  0  0  0  0  0
    6.2330  -13.1106   26.3846 C   0  0  0  0  0  0  0  0  0  0  0  0
    5.0790  -13.3270   26.7817 O   0  0  0  0  0  0  0  0  0  0  0  0
    6.9027  -14.1159   25.4617 C   0  0  0  0  0  0  0  0  0  0  0  0
    8.2840  -13.6326   25.1118 C   0  0  0  0  0  0  0  0  0  0  0  0
    8.9500  -14.5750   24.1784 C   0  0  2  0  0  0  0  0  0  0  0  0
    8.3332  -14.5576   22.8567 N   0  0  0  0  0  0  0  0  0  0  0  0
    9.0538  -15.9814   24.6614 C   0  0  0  0  0  0  0  0  0  0  0  0
    8.2776  -16.9016   24.3726 O   0  0  0  0  0  0  0  0  0  0  0  0
   10.1234  -16.3420   25.5325 N   0  0  0  0  0  0  0  0  0  0  0  0
   10.5116  -17.6580   25.8705 C   0  0  1  0  0  0  0  0  0  0  0  0
   11.8421  -18.1202   25.4132 C   0  0  0  0  0  0  0  0  0  0  0  0
   11.8010  -18.7651   24.0663 C   0  0  0  0  0  0  0  0  0  0  0  0
   10.7311  -18.9584   23.4321 O   0  0  0  0  0  0  0  0  0  0  0  0
   10.4817  -17.7956   27.3678 C   0  0  0  0  0  0  0  0  0  0  0  0
   10.3302  -16.7711   28.1113 O   0  0  0  0  0  0  0  0  0  0  0  0
   12.9568  -19.1946   23.4273 O   0  0  0  0  0  0  0  0  0  0  0  0
   10.6139  -19.0133   28.0045 O   0  0  0  0  0  0  0  0  0  0  0  0
  1  5  1  0
  2  1  1  0
  3  4  1  0
  3  2  1  0
  4  5  1  0
  5  6  1  1
  6 14  1  0
  6  7  2  0
  9 10  2  0
  9  8  1  0
 11  9  1  0
 12 11  1  0
 13 12  1  1
 14 13  1  0
 15 13  1  0
 15 17  1  0
 16 15  2  0
 18 19  1  1
 18 17  1  0
 18 22  1  0
 19 20  1  0
 20 21  2  0
 20 24  1  0
 22 25  1  0
 23 22  2  0
M  END
$$$$
