PQD.pdb
     RDKit          3D

 25 25  0  0  1  0  0  0  0  0999 V2000
    7.2079  -14.7834   20.3462 N   0  0  0  0  0  0  0  0  0  0  0  0
    6.5547  -14.0763   19.2585 C   0  0  0  0  0  0  0  0  0  0  0  0
    7.2836  -12.7661   19.0867 C   0  0  0  0  0  0  0  0  0  0  0  0
    8.1259  -12.6538   20.3380 C   0  0  0  0  0  0  0  0  0  0  0  0
    8.4419  -14.1073   20.6183 C   0  0  1  0  0  0  0  0  0  0  0  0
    8.7678  -14.2323   22.0843 C   0  0  0  0  0  0  0  0  0  0  0  0
    9.8557  -13.8084   22.5473 O   0  0  0  0  0  0  0  0  0  0  0  0
    6.8399  -13.2229   27.5454 N   0  0  0  0  0  0  0  0  0  0  0  0
    6.5217  -12.4633   26.4116 C   0  0  0  0  0  0  0  0  0  0  0  0
    6.2120  -11.2641   26.4601 O   0  0  0  0  0  0  0  0  0  0  0  0
    6.5649  -13.1664   25.0646 C   0  0  0  0  0  0  0  0  0  0  0  0
    7.0003  -14.5936   25.2576 C   0  0  0  0  0  0  0  0  0  0  0  0
    8.1789  -14.9031   24.4101 C   0  0  2  0  0  0  0  0  0  0  0  0
    7.8599  -14.8312   22.9887 N   0  0  0  0  0  0  0  0  0  0  0  0
    8.8509  -16.2006   24.7051 C   0  0  0  0  0  0  0  0  0  0  0  0
    8.4916  -17.3094   24.2879 O   0  0  0  0  0  0  0  0  0  0  0  0
   10.0105  -16.2122   25.5346 N   0  0  0  0  0  0  0  0  0  0  0  0
   10.7128  -17.3606   25.9645 C   0  0  1  0  0  0  0  0  0  0  0  0
   12.1835  -17.3703   25.7927 C   0  0  0  0  0  0  0  0  0  0  0  0
   12.6000  -17.4326   24.3594 C   0  0  0  0  0  0  0  0  0  0  0  0
   13.4840  -16.6822   23.8700 O   0  0  0  0  0  0  0  0  0  0  0  0
   10.4327  -17.5726   27.4268 C   0  0  0  0  0  0  0  0  0  0  0  0
    9.7983  -16.6956   28.1005 O   0  0  0  0  0  0  0  0  0  0  0  0
   12.0279  -18.3346   23.4718 O   0  0  0  0  0  0  0  0  0  0  0  0
   10.8391  -18.7047   28.1043 O   0  0  0  0  0  0  0  0  0  0  0  0
  1  5  1  0
  2  1  1  0
  3  4  1  0
  3  2  1  0
  4  5  1  0
  5  6  1  1
  6 14  1  0
  6  7  2  0
  9 10  2  0
  9  8  1  0
 11  9  1  0
 12 11  1  0
 13 12  1  1
 14 13  1  0
 15 13  1  0
 15 17  1  0
 16 15  2  0
 18 19  1  1
 18 17  1  0
 18 22  1  0
 19 20  1  0
 20 21  2  0
 20 24  1  0
 22 25  1  0
 23 22  2  0
M  END
$$$$
