PQD.pdb
     RDKit          3D

 25 25  0  0  1  0  0  0  0  0999 V2000
    7.4102  -15.0058   19.5323 N   0  0  0  0  0  0  0  0  0  0  0  0
    6.6502  -14.2398   18.5600 C   0  0  0  0  0  0  0  0  0  0  0  0
    6.9555  -12.7838   18.8131 C   0  0  0  0  0  0  0  0  0  0  0  0
    7.6341  -12.7860   20.1649 C   0  0  0  0  0  0  0  0  0  0  0  0
    8.3575  -14.1152   20.1353 C   0  0  1  0  0  0  0  0  0  0  0  0
    8.6027  -14.5368   21.5610 C   0  0  0  0  0  0  0  0  0  0  0  0
    9.4511  -13.9487   22.2766 O   0  0  0  0  0  0  0  0  0  0  0  0
    6.5266  -19.2358   24.6671 N   0  0  0  0  0  0  0  0  0  0  0  0
    6.9037  -18.4836   25.7877 C   0  0  0  0  0  0  0  0  0  0  0  0
    6.9987  -18.9606   26.9277 O   0  0  0  0  0  0  0  0  0  0  0  0
    7.2069  -17.0099   25.5705 C   0  0  0  0  0  0  0  0  0  0  0  0
    6.9414  -16.6497   24.1340 C   0  0  0  0  0  0  0  0  0  0  0  0
    8.1229  -15.9832   23.5319 C   0  0  2  0  0  0  0  0  0  0  0  0
    7.8862  -15.6090   22.1421 N   0  0  0  0  0  0  0  0  0  0  0  0
    9.4015  -16.7431   23.6325 C   0  0  0  0  0  0  0  0  0  0  0  0
    9.6973  -17.7466   22.9706 O   0  0  0  0  0  0  0  0  0  0  0  0
   10.3973  -16.3123   24.5576 N   0  0  0  0  0  0  0  0  0  0  0  0
   11.6793  -16.8830   24.7234 C   0  0  1  0  0  0  0  0  0  0  0  0
   12.8483  -15.9766   24.6553 C   0  0  0  0  0  0  0  0  0  0  0  0
   14.0386  -16.6116   24.0138 C   0  0  0  0  0  0  0  0  0  0  0  0
   13.9499  -17.5753   23.2090 O   0  0  0  0  0  0  0  0  0  0  0  0
   11.7264  -17.5728   26.0589 C   0  0  0  0  0  0  0  0  0  0  0  0
   11.0348  -17.1397   27.0385 O   0  0  0  0  0  0  0  0  0  0  0  0
   15.3295  -16.1693   24.2717 O   0  0  0  0  0  0  0  0  0  0  0  0
   12.5049  -18.6889   26.2912 O   0  0  0  0  0  0  0  0  0  0  0  0
  1  5  1  0
  2  1  1  0
  3  4  1  0
  3  2  1  0
  4  5  1  0
  5  6  1  1
  6 14  1  0
  6  7  2  0
  9 10  2  0
  9  8  1  0
 11  9  1  0
 12 11  1  0
 13 12  1  6
 14 13  1  0
 15 13  1  0
 15 17  1  0
 16 15  2  0
 18 19  1  1
 18 17  1  0
 18 22  1  0
 19 20  1  0
 20 21  2  0
 20 24  1  0
 22 25  1  0
 23 22  2  0
M  END
$$$$
