PQD.pdb
     RDKit          3D

 25 25  0  0  1  0  0  0  0  0999 V2000
    8.8088  -14.7202   20.3023 N   0  0  0  0  0  0  0  0  0  0  0  0
    8.6759  -14.1655   18.9664 C   0  0  0  0  0  0  0  0  0  0  0  0
    7.6617  -13.0515   19.0530 C   0  0  0  0  0  0  0  0  0  0  0  0
    7.0122  -13.2573   20.4034 C   0  0  0  0  0  0  0  0  0  0  0  0
    8.1657  -13.8157   21.2090 C   0  0  1  0  0  0  0  0  0  0  0  0
    7.5866  -14.5922   22.3633 C   0  0  0  0  0  0  0  0  0  0  0  0
    6.8011  -14.0527   23.1814 O   0  0  0  0  0  0  0  0  0  0  0  0
    6.4220  -20.6438   22.4125 N   0  0  0  0  0  0  0  0  0  0  0  0
    5.9106  -20.2986   23.6706 C   0  0  0  0  0  0  0  0  0  0  0  0
    5.2653  -21.0822   24.3819 O   0  0  0  0  0  0  0  0  0  0  0  0
    6.1724  -18.8863   24.1681 C   0  0  0  0  0  0  0  0  0  0  0  0
    6.9422  -18.1220   23.1254 C   0  0  0  0  0  0  0  0  0  0  0  0
    7.2050  -16.7333   23.5785 C   0  0  2  0  0  0  0  0  0  0  0  0
    7.9079  -15.9549   22.5648 N   0  0  0  0  0  0  0  0  0  0  0  0
    7.9185  -16.6141   24.8819 C   0  0  0  0  0  0  0  0  0  0  0  0
    7.6415  -17.2380   25.9147 O   0  0  0  0  0  0  0  0  0  0  0  0
    9.0205  -15.7162   24.9936 N   0  0  0  0  0  0  0  0  0  0  0  0
    9.7508  -15.4403   26.1714 C   0  0  1  0  0  0  0  0  0  0  0  0
    9.1420  -14.5173   27.1564 C   0  0  0  0  0  0  0  0  0  0  0  0
    9.9592  -14.3728   28.3986 C   0  0  0  0  0  0  0  0  0  0  0  0
   11.0700  -14.9428   28.5575 O   0  0  0  0  0  0  0  0  0  0  0  0
   10.0194  -16.7380   26.8824 C   0  0  0  0  0  0  0  0  0  0  0  0
    9.0777  -17.5720   27.0898 O   0  0  0  0  0  0  0  0  0  0  0  0
    9.5346  -13.5902   29.4644 O   0  0  0  0  0  0  0  0  0  0  0  0
   11.2740  -17.0887   27.3392 O   0  0  0  0  0  0  0  0  0  0  0  0
  1  5  1  0
  2  1  1  0
  3  4  1  0
  3  2  1  0
  4  5  1  0
  5  6  1  1
  6 14  1  0
  6  7  2  0
  9 10  2  0
  9  8  1  0
 11  9  1  0
 12 11  1  0
 13 12  1  6
 14 13  1  0
 15 13  1  0
 15 17  1  0
 16 15  2  0
 18 19  1  1
 18 17  1  0
 18 22  1  0
 19 20  1  0
 20 21  2  0
 20 24  1  0
 22 25  1  0
 23 22  2  0
M  END
$$$$
