PQD.pdb
     RDKit          3D

 25 25  0  0  1  0  0  0  0  0999 V2000
    6.4832  -19.8137   19.0062 N   0  0  0  0  0  0  0  0  0  0  0  0
    5.2942  -20.2313   18.2840 C   0  0  0  0  0  0  0  0  0  0  0  0
    5.5404  -19.9349   16.8250 C   0  0  0  0  0  0  0  0  0  0  0  0
    6.7572  -19.0366   16.8385 C   0  0  0  0  0  0  0  0  0  0  0  0
    7.5111  -19.5707   18.0375 C   0  0  1  0  0  0  0  0  0  0  0  0
    8.4183  -18.4752   18.5352 C   0  0  0  0  0  0  0  0  0  0  0  0
    9.5700  -18.3180   18.0594 O   0  0  0  0  0  0  0  0  0  0  0  0
    7.3659  -12.7158   19.6371 N   0  0  0  0  0  0  0  0  0  0  0  0
    8.6769  -12.7675   20.1294 C   0  0  0  0  0  0  0  0  0  0  0  0
    9.3580  -11.7580   20.3605 O   0  0  0  0  0  0  0  0  0  0  0  0
    9.2737  -14.1418   20.3856 C   0  0  0  0  0  0  0  0  0  0  0  0
    8.2905  -15.2013   19.9675 C   0  0  0  0  0  0  0  0  0  0  0  0
    8.9083  -16.5490   20.0372 C   0  0  2  0  0  0  0  0  0  0  0  0
    8.0040  -17.5869   19.5549 N   0  0  0  0  0  0  0  0  0  0  0  0
    9.4424  -16.9353   21.3742 C   0  0  0  0  0  0  0  0  0  0  0  0
    8.7612  -17.1917   22.3756 O   0  0  0  0  0  0  0  0  0  0  0  0
   10.8528  -17.0296   21.5606 N   0  0  0  0  0  0  0  0  0  0  0  0
   11.5080  -17.4762   22.7303 C   0  0  1  0  0  0  0  0  0  0  0  0
   12.4609  -18.6017   22.5961 C   0  0  0  0  0  0  0  0  0  0  0  0
   13.1118  -18.9685   23.8898 C   0  0  0  0  0  0  0  0  0  0  0  0
   12.4610  -19.3177   24.9088 O   0  0  0  0  0  0  0  0  0  0  0  0
   12.2634  -16.3203   23.3260 C   0  0  0  0  0  0  0  0  0  0  0  0
   12.6715  -15.3626   22.5901 O   0  0  0  0  0  0  0  0  0  0  0  0
   14.4917  -18.9449   24.0449 O   0  0  0  0  0  0  0  0  0  0  0  0
   12.5497  -16.2359   24.6738 O   0  0  0  0  0  0  0  0  0  0  0  0
  1  5  1  0
  2  1  1  0
  3  4  1  0
  3  2  1  0
  4  5  1  0
  5  6  1  1
  6 14  1  0
  6  7  2  0
  9 10  2  0
  9  8  1  0
 11  9  1  0
 12 11  1  0
 13 12  1  1
 14 13  1  0
 15 13  1  0
 15 17  1  0
 16 15  2  0
 18 19  1  6
 18 17  1  0
 18 22  1  0
 19 20  1  0
 20 21  2  0
 20 24  1  0
 22 25  1  0
 23 22  2  0
M  END
$$$$
