PQD.pdb
     RDKit          3D

 25 25  0  0  1  0  0  0  0  0999 V2000
    7.2065  -14.9619   19.8200 N   0  0  0  0  0  0  0  0  0  0  0  0
    6.5074  -14.3289   18.7154 C   0  0  0  0  0  0  0  0  0  0  0  0
    7.2773  -13.0784   18.3679 C   0  0  0  0  0  0  0  0  0  0  0  0
    8.2118  -12.8906   19.5424 C   0  0  0  0  0  0  0  0  0  0  0  0
    8.4848  -14.3251   19.9408 C   0  0  1  0  0  0  0  0  0  0  0  0
    8.9099  -14.3275   21.3865 C   0  0  0  0  0  0  0  0  0  0  0  0
   10.1183  -14.2139   21.7095 O   0  0  0  0  0  0  0  0  0  0  0  0
    5.6063  -12.6167   26.3644 N   0  0  0  0  0  0  0  0  0  0  0  0
    6.8621  -12.8634   26.9354 C   0  0  0  0  0  0  0  0  0  0  0  0
    7.1823  -12.4781   28.0691 O   0  0  0  0  0  0  0  0  0  0  0  0
    7.8666  -13.6447   26.1041 C   0  0  0  0  0  0  0  0  0  0  0  0
    7.3817  -13.7311   24.6823 C   0  0  0  0  0  0  0  0  0  0  0  0
    8.3908  -14.3978   23.8221 C   0  0  2  0  0  0  0  0  0  0  0  0
    7.9628  -14.4578   22.4290 N   0  0  0  0  0  0  0  0  0  0  0  0
    8.8133  -15.7546   24.2724 C   0  0  0  0  0  0  0  0  0  0  0  0
    8.1033  -16.7688   24.2685 O   0  0  0  0  0  0  0  0  0  0  0  0
   10.1405  -15.9463   24.7569 N   0  0  0  0  0  0  0  0  0  0  0  0
   10.7392  -17.1874   25.0701 C   0  0  1  0  0  0  0  0  0  0  0  0
   12.1930  -17.3291   24.8267 C   0  0  0  0  0  0  0  0  0  0  0  0
   12.7170  -18.6748   25.2089 C   0  0  0  0  0  0  0  0  0  0  0  0
   12.0000  -19.7091   25.2261 O   0  0  0  0  0  0  0  0  0  0  0  0
   10.4997  -17.4798   26.5256 C   0  0  0  0  0  0  0  0  0  0  0  0
   10.8486  -18.5978   27.0295 O   0  0  0  0  0  0  0  0  0  0  0  0
   14.0437  -18.8651   25.5724 O   0  0  0  0  0  0  0  0  0  0  0  0
    9.9016  -16.5724   27.3768 O   0  0  0  0  0  0  0  0  0  0  0  0
  1  5  1  0
  2  1  1  0
  3  4  1  0
  3  2  1  0
  4  5  1  0
  5  6  1  1
  6 14  1  0
  6  7  2  0
  9 10  2  0
  9  8  1  0
 11  9  1  0
 12 11  1  0
 13 12  1  1
 14 13  1  0
 15 13  1  0
 15 17  1  0
 16 15  2  0
 18 19  1  1
 18 17  1  0
 18 22  1  0
 19 20  1  0
 20 21  2  0
 20 24  1  0
 22 25  1  0
 23 22  2  0
M  END
$$$$
