PQD.pdb
     RDKit          3D

 25 25  0  0  1  0  0  0  0  0999 V2000
    7.3344  -14.8441   19.4106 N   0  0  0  0  0  0  0  0  0  0  0  0
    6.6665  -14.2182   18.2828 C   0  0  0  0  0  0  0  0  0  0  0  0
    7.3887  -12.9216   18.0097 C   0  0  0  0  0  0  0  0  0  0  0  0
    8.2446  -12.7179   19.2401 C   0  0  0  0  0  0  0  0  0  0  0  0
    8.5690  -14.1469   19.6197 C   0  0  1  0  0  0  0  0  0  0  0  0
    8.9116  -14.1660   21.0870 C   0  0  0  0  0  0  0  0  0  0  0  0
   10.0169  -13.7379   21.5026 O   0  0  0  0  0  0  0  0  0  0  0  0
    6.8160  -13.3508   27.9582 N   0  0  0  0  0  0  0  0  0  0  0  0
    6.6589  -13.3166   26.5662 C   0  0  0  0  0  0  0  0  0  0  0  0
    5.6663  -12.8312   26.0045 O   0  0  0  0  0  0  0  0  0  0  0  0
    7.7747  -13.9108   25.7221 C   0  0  0  0  0  0  0  0  0  0  0  0
    7.2978  -14.0756   24.3046 C   0  0  0  0  0  0  0  0  0  0  0  0
    8.3573  -14.6820   23.4604 C   0  0  2  0  0  0  0  0  0  0  0  0
    8.0005  -14.6666   22.0462 N   0  0  0  0  0  0  0  0  0  0  0  0
    8.7743  -16.0580   23.8542 C   0  0  0  0  0  0  0  0  0  0  0  0
    8.6252  -17.0794   23.1708 O   0  0  0  0  0  0  0  0  0  0  0  0
    9.4023  -16.2610   25.1181 N   0  0  0  0  0  0  0  0  0  0  0  0
   10.4739  -17.1439   25.3807 C   0  0  1  0  0  0  0  0  0  0  0  0
   11.7341  -16.9362   24.6312 C   0  0  0  0  0  0  0  0  0  0  0  0
   12.3059  -18.2073   24.0937 C   0  0  0  0  0  0  0  0  0  0  0  0
   11.9156  -19.3447   24.4655 O   0  0  0  0  0  0  0  0  0  0  0  0
   10.8078  -17.0682   26.8451 C   0  0  0  0  0  0  0  0  0  0  0  0
   11.6827  -17.8442   27.3529 O   0  0  0  0  0  0  0  0  0  0  0  0
   13.3150  -18.2075   23.1397 O   0  0  0  0  0  0  0  0  0  0  0  0
   10.1975  -16.1729   27.7006 O   0  0  0  0  0  0  0  0  0  0  0  0
  1  5  1  0
  2  1  1  0
  3  4  1  0
  3  2  1  0
  4  5  1  0
  5  6  1  1
  6 14  1  0
  6  7  2  0
  9 10  2  0
  9  8  1  0
 11  9  1  0
 12 11  1  0
 13 12  1  1
 14 13  1  0
 15 13  1  0
 15 17  1  0
 16 15  2  0
 18 19  1  6
 18 17  1  0
 18 22  1  0
 19 20  1  0
 20 21  2  0
 20 24  1  0
 22 25  1  0
 23 22  2  0
M  END
$$$$
