PQD.pdb
     RDKit          3D

 25 25  0  0  1  0  0  0  0  0999 V2000
    9.4604  -13.1018   18.4829 N   0  0  0  0  0  0  0  0  0  0  0  0
    8.4190  -12.5758   17.6177 C   0  0  0  0  0  0  0  0  0  0  0  0
    7.0979  -12.9565   18.2398 C   0  0  0  0  0  0  0  0  0  0  0  0
    7.4716  -13.9907   19.2784 C   0  0  0  0  0  0  0  0  0  0  0  0
    8.8377  -13.5023   19.7101 C   0  0  1  0  0  0  0  0  0  0  0  0
    9.5837  -14.6764   20.2893 C   0  0  0  0  0  0  0  0  0  0  0  0
    9.1140  -15.3362   21.2494 O   0  0  0  0  0  0  0  0  0  0  0  0
   13.2129  -18.6281   17.4204 N   0  0  0  0  0  0  0  0  0  0  0  0
   13.7678  -17.3437   17.4986 C   0  0  0  0  0  0  0  0  0  0  0  0
   14.6886  -16.9538   16.7663 O   0  0  0  0  0  0  0  0  0  0  0  0
   13.1957  -16.3975   18.5417 C   0  0  0  0  0  0  0  0  0  0  0  0
   12.1169  -17.1013   19.3193 C   0  0  0  0  0  0  0  0  0  0  0  0
   11.5485  -16.2066   20.3582 C   0  0  2  0  0  0  0  0  0  0  0  0
   10.8381  -15.0757   19.7718 N   0  0  0  0  0  0  0  0  0  0  0  0
   12.5220  -15.7118   21.3729 C   0  0  0  0  0  0  0  0  0  0  0  0
   13.0888  -14.6114   21.3511 O   0  0  0  0  0  0  0  0  0  0  0  0
   12.8582  -16.5445   22.4803 N   0  0  0  0  0  0  0  0  0  0  0  0
   13.7738  -16.2286   23.5093 C   0  0  1  0  0  0  0  0  0  0  0  0
   13.7085  -17.0264   24.7551 C   0  0  0  0  0  0  0  0  0  0  0  0
   12.4089  -16.8721   25.4756 C   0  0  0  0  0  0  0  0  0  0  0  0
   11.5859  -15.9563   25.2145 O   0  0  0  0  0  0  0  0  0  0  0  0
   15.1694  -16.3637   22.9653 C   0  0  0  0  0  0  0  0  0  0  0  0
   16.1740  -15.9848   23.6528 O   0  0  0  0  0  0  0  0  0  0  0  0
   12.0286  -17.7423   26.4889 O   0  0  0  0  0  0  0  0  0  0  0  0
   15.4322  -16.8941   21.7182 O   0  0  0  0  0  0  0  0  0  0  0  0
  1  5  1  0
  2  1  1  0
  3  4  1  0
  3  2  1  0
  4  5  1  0
  5  6  1  6
  6 14  1  0
  6  7  2  0
  9 10  2  0
  9  8  1  0
 11  9  1  0
 12 11  1  0
 13 12  1  6
 14 13  1  0
 15 13  1  0
 15 17  1  0
 16 15  2  0
 18 19  1  1
 18 17  1  0
 18 22  1  0
 19 20  1  0
 20 21  2  0
 20 24  1  0
 22 25  1  0
 23 22  2  0
M  END
$$$$
