PFW.pdb
     RDKit          3D

 33 36  0  0  1  0  0  0  0  0999 V2000
    8.6601  -18.0870   20.8430 N   0  0  0  0  0  0  0  0  0  0  0  0
    8.3954  -18.4967   19.5019 C   0  0  0  0  0  0  0  0  0  0  0  0
    9.2577  -17.6572   18.5871 C   0  0  0  0  0  0  0  0  0  0  0  0
    9.5601  -16.4525   19.4842 C   0  0  0  0  0  0  0  0  0  0  0  0
    9.6910  -17.1015   20.8191 C   0  0  1  0  0  0  0  0  0  0  0  0
    9.5856  -16.1354   21.9435 C   0  0  0  0  0  0  0  0  0  0  0  0
   10.5783  -15.4099   22.1729 O   0  0  0  0  0  0  0  0  0  0  0  0
    8.4358  -16.0051   22.7470 N   0  0  0  0  0  0  0  0  0  0  0  0
    8.3958  -15.0063   23.7992 C   0  0  1  0  0  0  0  0  0  0  0  0
    7.1357  -14.2008   23.7337 C   0  0  0  0  0  0  0  0  0  0  0  0
    7.0422  -13.1613   24.7851 C   0  0  0  0  0  0  0  0  0  0  0  0
    6.2281  -13.3444   25.8830 C   0  0  0  0  0  0  0  0  0  0  0  0
    6.1009  -12.4152   26.8875 C   0  0  0  0  0  0  0  0  0  0  0  0
    6.8222  -11.2421   26.7935 C   0  0  0  0  0  0  0  0  0  0  0  0
    7.6451  -11.0365   25.7013 C   0  0  0  0  0  0  0  0  0  0  0  0
    7.7602  -11.9913   24.6934 C   0  0  0  0  0  0  0  0  0  0  0  0
    8.6607  -15.6356   25.1041 C   0  0  0  0  0  0  0  0  0  0  0  0
    7.9070  -15.3195   26.0778 O   0  0  0  0  0  0  0  0  0  0  0  0
    9.7044  -16.5684   25.3212 N   0  0  0  0  0  0  0  0  0  0  0  0
    9.8053  -17.2379   26.6096 C   0  0  1  0  0  0  0  0  0  0  0  0
    8.4741  -17.8511   26.9730 C   0  0  0  0  0  0  0  0  0  0  0  0
    8.1959  -19.0461   26.1731 C   0  0  0  0  0  0  0  0  0  0  0  0
    8.8072  -20.2903   26.2584 C   0  0  0  0  0  0  0  0  0  0  0  0
    8.3003  -21.1052   25.3261 N   0  0  0  0  0  0  0  0  0  0  0  0
    7.3676  -20.4511   24.6171 C   0  0  0  0  0  0  0  0  0  0  0  0
    6.5305  -20.8143   23.5652 C   0  0  0  0  0  0  0  0  0  0  0  0
    5.6308  -19.9254   23.0319 C   0  0  0  0  0  0  0  0  0  0  0  0
    5.5401  -18.6402   23.5362 C   0  0  0  0  0  0  0  0  0  0  0  0
    6.3647  -18.2729   24.5754 C   0  0  0  0  0  0  0  0  0  0  0  0
    7.2862  -19.1680   25.1275 C   0  0  0  0  0  0  0  0  0  0  0  0
   10.9412  -18.1268   26.7221 C   0  0  0  0  0  0  0  0  0  0  0  0
   11.2138  -18.7368   27.9632 O   0  0  0  0  0  0  0  0  0  0  0  0
   11.7443  -18.4299   25.8084 O   0  0  0  0  0  0  0  0  0  0  0  0
  1  2  1  0
  2  3  1  0
  4  3  1  0
  5  4  1  0
  5  1  1  0
  5  6  1  1
  7  6  2  0
  8  6  1  0
  9  8  1  0
 10 11  1  0
  9 10  1  1
 11 16  2  0
 12 13  2  0
 12 11  1  0
 13 14  1  0
 14 15  2  0
 16 15  1  0
 17  9  1  0
 17 19  1  0
 18 17  2  0
 20 21  1  6
 20 19  1  0
 20 31  1  0
 22 30  1  0
 22 21  1  0
 23 22  2  0
 24 23  1  0
 24 25  1  0
 25 26  1  0
 25 30  2  0
 26 27  2  0
 27 28  1  0
 29 28  2  0
 30 29  1  0
 31 32  1  0
 33 31  2  0
M  END
$$$$
