PFW.pdb
     RDKit          3D

 33 36  0  0  1  0  0  0  0  0999 V2000
    8.4606  -18.5299   19.1319 N   0  0  0  0  0  0  0  0  0  0  0  0
    7.7533  -19.0904   18.0264 C   0  0  0  0  0  0  0  0  0  0  0  0
    7.6531  -18.0255   16.9583 C   0  0  0  0  0  0  0  0  0  0  0  0
    7.8648  -16.7527   17.7847 C   0  0  0  0  0  0  0  0  0  0  0  0
    8.8733  -17.2102   18.7817 C   0  0  1  0  0  0  0  0  0  0  0  0
    8.9704  -16.3092   19.9597 C   0  0  0  0  0  0  0  0  0  0  0  0
    9.8759  -15.4464   19.9502 O   0  0  0  0  0  0  0  0  0  0  0  0
    8.1014  -16.3849   21.0659 N   0  0  0  0  0  0  0  0  0  0  0  0
    8.2069  -15.4132   22.1387 C   0  0  1  0  0  0  0  0  0  0  0  0
    6.9418  -15.3476   22.9363 C   0  0  0  0  0  0  0  0  0  0  0  0
    7.0173  -14.4230   24.0913 C   0  0  0  0  0  0  0  0  0  0  0  0
    7.3736  -13.1030   23.9118 C   0  0  0  0  0  0  0  0  0  0  0  0
    7.4614  -12.2011   24.9450 C   0  0  0  0  0  0  0  0  0  0  0  0
    7.1798  -12.6368   26.2241 C   0  0  0  0  0  0  0  0  0  0  0  0
    6.8204  -13.9565   26.4282 C   0  0  0  0  0  0  0  0  0  0  0  0
    6.7371  -14.8552   25.3670 C   0  0  0  0  0  0  0  0  0  0  0  0
    9.4242  -15.6628   22.9291 C   0  0  0  0  0  0  0  0  0  0  0  0
   10.3119  -14.7531   22.9523 O   0  0  0  0  0  0  0  0  0  0  0  0
    9.6481  -16.8565   23.6583 N   0  0  0  0  0  0  0  0  0  0  0  0
   10.9037  -17.0296   24.3737 C   0  0  1  0  0  0  0  0  0  0  0  0
   11.1342  -15.8549   25.2941 C   0  0  0  0  0  0  0  0  0  0  0  0
   10.6712  -16.1383   26.6545 C   0  0  0  0  0  0  0  0  0  0  0  0
   10.2470  -17.3543   27.1745 C   0  0  0  0  0  0  0  0  0  0  0  0
    9.8644  -17.1905   28.4462 N   0  0  0  0  0  0  0  0  0  0  0  0
   10.0181  -15.9052   28.7993 C   0  0  0  0  0  0  0  0  0  0  0  0
    9.7985  -15.2006   29.9802 C   0  0  0  0  0  0  0  0  0  0  0  0
   10.0715  -13.8584   30.0695 C   0  0  0  0  0  0  0  0  0  0  0  0
   10.5747  -13.1764   28.9759 C   0  0  0  0  0  0  0  0  0  0  0  0
   10.7937  -13.8654   27.8045 C   0  0  0  0  0  0  0  0  0  0  0  0
   10.5193  -15.2325   27.6995 C   0  0  0  0  0  0  0  0  0  0  0  0
   11.0542  -18.3301   24.9896 C   0  0  0  0  0  0  0  0  0  0  0  0
   12.3254  -18.7267   25.4515 O   0  0  0  0  0  0  0  0  0  0  0  0
   10.1500  -19.1801   25.1671 O   0  0  0  0  0  0  0  0  0  0  0  0
  1  2  1  0
  2  3  1  0
  4  3  1  0
  5  4  1  0
  5  1  1  0
  5  6  1  1
  7  6  2  0
  8  6  1  0
  9  8  1  0
 10 11  1  0
  9 10  1  1
 11 16  2  0
 12 13  2  0
 12 11  1  0
 13 14  1  0
 14 15  2  0
 16 15  1  0
 17  9  1  0
 17 19  1  0
 18 17  2  0
 20 21  1  1
 20 19  1  0
 20 31  1  0
 22 30  1  0
 22 21  1  0
 23 22  2  0
 24 23  1  0
 24 25  1  0
 25 26  1  0
 25 30  2  0
 26 27  2  0
 27 28  1  0
 29 28  2  0
 30 29  1  0
 31 32  1  0
 33 31  2  0
M  END
$$$$
