PFW.pdb
     RDKit          3D

 33 36  0  0  1  0  0  0  0  0999 V2000
    8.3660  -18.1844   18.9070 N   0  0  0  0  0  0  0  0  0  0  0  0
    7.6221  -18.5385   17.7418 C   0  0  0  0  0  0  0  0  0  0  0  0
    7.6977  -17.3760   16.7784 C   0  0  0  0  0  0  0  0  0  0  0  0
    8.0550  -16.2259   17.7257 C   0  0  0  0  0  0  0  0  0  0  0  0
    8.9631  -16.9072   18.6909 C   0  0  1  0  0  0  0  0  0  0  0  0
    9.1464  -16.1403   19.9508 C   0  0  0  0  0  0  0  0  0  0  0  0
   10.1346  -15.3767   20.0202 O   0  0  0  0  0  0  0  0  0  0  0  0
    8.2701  -16.2359   21.0496 N   0  0  0  0  0  0  0  0  0  0  0  0
    8.5123  -15.4437   22.2413 C   0  0  1  0  0  0  0  0  0  0  0  0
    7.2861  -15.3626   23.0962 C   0  0  0  0  0  0  0  0  0  0  0  0
    7.4340  -14.4568   24.2591 C   0  0  0  0  0  0  0  0  0  0  0  0
    7.0191  -14.8514   25.5137 C   0  0  0  0  0  0  0  0  0  0  0  0
    7.1300  -14.0538   26.6272 C   0  0  0  0  0  0  0  0  0  0  0  0
    7.6831  -12.7973   26.4838 C   0  0  0  0  0  0  0  0  0  0  0  0
    8.1061  -12.3800   25.2351 C   0  0  0  0  0  0  0  0  0  0  0  0
    7.9849  -13.2040   24.1184 C   0  0  0  0  0  0  0  0  0  0  0  0
    9.7184  -15.9279   22.9339 C   0  0  0  0  0  0  0  0  0  0  0  0
   10.7891  -15.2563   22.7978 O   0  0  0  0  0  0  0  0  0  0  0  0
    9.7395  -17.0943   23.7376 N   0  0  0  0  0  0  0  0  0  0  0  0
   10.9516  -17.4347   24.4678 C   0  0  1  0  0  0  0  0  0  0  0  0
   11.3689  -16.2723   25.3366 C   0  0  0  0  0  0  0  0  0  0  0  0
   10.7482  -16.3407   26.6614 C   0  0  0  0  0  0  0  0  0  0  0  0
   10.4498  -17.4748   27.4054 C   0  0  0  0  0  0  0  0  0  0  0  0
    9.8490  -17.1187   28.5466 N   0  0  0  0  0  0  0  0  0  0  0  0
    9.7342  -15.7827   28.5958 C   0  0  0  0  0  0  0  0  0  0  0  0
    9.2188  -14.8969   29.5386 C   0  0  0  0  0  0  0  0  0  0  0  0
    9.2529  -13.5401   29.3337 C   0  0  0  0  0  0  0  0  0  0  0  0
    9.8059  -13.0251   28.1747 C   0  0  0  0  0  0  0  0  0  0  0  0
   10.3167  -13.8941   27.2372 C   0  0  0  0  0  0  0  0  0  0  0  0
   10.2877  -15.2783   27.4328 C   0  0  0  0  0  0  0  0  0  0  0  0
   10.8915  -18.7135   25.1418 C   0  0  0  0  0  0  0  0  0  0  0  0
   12.0789  -19.2757   25.6522 O   0  0  0  0  0  0  0  0  0  0  0  0
    9.8657  -19.4086   25.3321 O   0  0  0  0  0  0  0  0  0  0  0  0
  1  2  1  0
  2  3  1  0
  4  3  1  0
  5  4  1  0
  5  1  1  0
  5  6  1  1
  7  6  2  0
  8  6  1  0
  9  8  1  0
 10 11  1  0
  9 10  1  1
 11 16  2  0
 12 13  2  0
 12 11  1  0
 13 14  1  0
 14 15  2  0
 16 15  1  0
 17  9  1  0
 17 19  1  0
 18 17  2  0
 20 21  1  1
 20 19  1  0
 20 31  1  0
 22 30  1  0
 22 21  1  0
 23 22  2  0
 24 23  1  0
 24 25  1  0
 25 26  1  0
 25 30  2  0
 26 27  2  0
 27 28  1  0
 29 28  2  0
 30 29  1  0
 31 32  1  0
 33 31  2  0
M  END
$$$$
