PFW.pdb
     RDKit          3D

 33 36  0  0  1  0  0  0  0  0999 V2000
    9.0051  -18.0643   19.8792 N   0  0  0  0  0  0  0  0  0  0  0  0
    8.5259  -19.2367   19.2216 C   0  0  0  0  0  0  0  0  0  0  0  0
    7.3069  -18.8459   18.4177 C   0  0  0  0  0  0  0  0  0  0  0  0
    6.8838  -17.5544   19.1253 C   0  0  0  0  0  0  0  0  0  0  0  0
    8.2051  -16.9571   19.4684 C   0  0  1  0  0  0  0  0  0  0  0  0
    8.1086  -15.9024   20.5111 C   0  0  0  0  0  0  0  0  0  0  0  0
    7.3045  -14.9660   20.3086 O   0  0  0  0  0  0  0  0  0  0  0  0
    8.8708  -15.9130   21.6958 N   0  0  0  0  0  0  0  0  0  0  0  0
    8.6253  -14.9195   22.7249 C   0  0  1  0  0  0  0  0  0  0  0  0
    7.2025  -14.9602   23.1884 C   0  0  0  0  0  0  0  0  0  0  0  0
    6.9507  -14.1443   24.3991 C   0  0  0  0  0  0  0  0  0  0  0  0
    7.1554  -12.7806   24.3817 C   0  0  0  0  0  0  0  0  0  0  0  0
    6.9400  -11.9745   25.4736 C   0  0  0  0  0  0  0  0  0  0  0  0
    6.4977  -12.5570   26.6443 C   0  0  0  0  0  0  0  0  0  0  0  0
    6.2857  -13.9230   26.6852 C   0  0  0  0  0  0  0  0  0  0  0  0
    6.5100  -14.7229   25.5669 C   0  0  0  0  0  0  0  0  0  0  0  0
    9.6286  -15.0423   23.7959 C   0  0  0  0  0  0  0  0  0  0  0  0
    9.4948  -14.3016   24.8203 O   0  0  0  0  0  0  0  0  0  0  0  0
   10.7233  -15.9396   23.7382 N   0  0  0  0  0  0  0  0  0  0  0  0
   11.0557  -16.7345   24.9112 C   0  0  1  0  0  0  0  0  0  0  0  0
    9.8139  -17.4136   25.4375 C   0  0  0  0  0  0  0  0  0  0  0  0
    9.5130  -16.9968   26.8090 C   0  0  0  0  0  0  0  0  0  0  0  0
    8.6488  -17.6006   27.7132 C   0  0  0  0  0  0  0  0  0  0  0  0
    8.6185  -16.8923   28.8479 N   0  0  0  0  0  0  0  0  0  0  0  0
    9.4344  -15.8327   28.7377 C   0  0  0  0  0  0  0  0  0  0  0  0
    9.7906  -14.8007   29.6021 C   0  0  0  0  0  0  0  0  0  0  0  0
   10.6911  -13.8356   29.2254 C   0  0  0  0  0  0  0  0  0  0  0  0
   11.2656  -13.8730   27.9673 C   0  0  0  0  0  0  0  0  0  0  0  0
   10.9180  -14.8894   27.1065 C   0  0  0  0  0  0  0  0  0  0  0  0
   10.0016  -15.8784   27.4770 C   0  0  0  0  0  0  0  0  0  0  0  0
   12.1984  -17.6027   24.7277 C   0  0  0  0  0  0  0  0  0  0  0  0
   13.0297  -17.8837   25.8307 O   0  0  0  0  0  0  0  0  0  0  0  0
   12.5505  -18.1561   23.6593 O   0  0  0  0  0  0  0  0  0  0  0  0
  1  2  1  0
  2  3  1  0
  4  3  1  0
  5  4  1  0
  5  1  1  0
  5  6  1  1
  7  6  2  0
  8  6  1  0
  9  8  1  0
 10 11  1  0
  9 10  1  1
 11 16  2  0
 12 13  2  0
 12 11  1  0
 13 14  1  0
 14 15  2  0
 16 15  1  0
 17  9  1  0
 17 19  1  0
 18 17  2  0
 20 21  1  6
 20 19  1  0
 20 31  1  0
 22 30  1  0
 22 21  1  0
 23 22  2  0
 24 23  1  0
 24 25  1  0
 25 26  1  0
 25 30  2  0
 26 27  2  0
 27 28  1  0
 29 28  2  0
 30 29  1  0
 31 32  1  0
 33 31  2  0
M  END
$$$$
