PFW.pdb
     RDKit          3D

 33 36  0  0  1  0  0  0  0  0999 V2000
    8.3958  -15.5493   18.3401 N   0  0  0  0  0  0  0  0  0  0  0  0
    7.9866  -15.0668   17.0610 C   0  0  0  0  0  0  0  0  0  0  0  0
    8.4763  -13.6427   16.9296 C   0  0  0  0  0  0  0  0  0  0  0  0
    8.6762  -13.2589   18.3995 C   0  0  0  0  0  0  0  0  0  0  0  0
    9.1768  -14.5388   18.9753 C   0  0  1  0  0  0  0  0  0  0  0  0
    9.0753  -14.5838   20.4574 C   0  0  0  0  0  0  0  0  0  0  0  0
   10.1338  -14.4508   21.1103 O   0  0  0  0  0  0  0  0  0  0  0  0
    7.8592  -14.7667   21.1448 N   0  0  0  0  0  0  0  0  0  0  0  0
    7.8191  -14.6502   22.5908 C   0  0  1  0  0  0  0  0  0  0  0  0
    6.5395  -14.0221   23.0482 C   0  0  0  0  0  0  0  0  0  0  0  0
    6.5013  -13.7489   24.5037 C   0  0  0  0  0  0  0  0  0  0  0  0
    7.5693  -14.0838   25.3093 C   0  0  0  0  0  0  0  0  0  0  0  0
    7.5891  -13.8557   26.6643 C   0  0  0  0  0  0  0  0  0  0  0  0
    6.4874  -13.2631   27.2477 C   0  0  0  0  0  0  0  0  0  0  0  0
    5.4045  -12.9187   26.4596 C   0  0  0  0  0  0  0  0  0  0  0  0
    5.4041  -13.1584   25.0873 C   0  0  0  0  0  0  0  0  0  0  0  0
    8.1268  -15.9497   23.2116 C   0  0  0  0  0  0  0  0  0  0  0  0
    7.5644  -16.9835   22.7309 O   0  0  0  0  0  0  0  0  0  0  0  0
    9.0127  -16.0992   24.3068 N   0  0  0  0  0  0  0  0  0  0  0  0
    9.3012  -17.4329   24.8132 C   0  0  1  0  0  0  0  0  0  0  0  0
   10.6787  -17.4586   25.4312 C   0  0  0  0  0  0  0  0  0  0  0  0
   10.6364  -17.1151   26.8543 C   0  0  0  0  0  0  0  0  0  0  0  0
   10.2326  -17.9179   27.9133 C   0  0  0  0  0  0  0  0  0  0  0  0
   10.3005  -17.2238   29.0551 N   0  0  0  0  0  0  0  0  0  0  0  0
   10.7376  -15.9811   28.7998 C   0  0  0  0  0  0  0  0  0  0  0  0
   11.0057  -14.8737   29.6004 C   0  0  0  0  0  0  0  0  0  0  0  0
   11.4789  -13.7034   29.0614 C   0  0  0  0  0  0  0  0  0  0  0  0
   11.6996  -13.6041   27.6991 C   0  0  0  0  0  0  0  0  0  0  0  0
   11.4362  -14.6940   26.9006 C   0  0  0  0  0  0  0  0  0  0  0  0
   10.9532  -15.8917   27.4365 C   0  0  0  0  0  0  0  0  0  0  0  0
    8.2492  -17.9887   25.6364 C   0  0  0  0  0  0  0  0  0  0  0  0
    8.3087  -19.3496   25.9981 O   0  0  0  0  0  0  0  0  0  0  0  0
    7.2503  -17.3771   26.0832 O   0  0  0  0  0  0  0  0  0  0  0  0
  1  2  1  0
  2  3  1  0
  4  3  1  0
  5  4  1  0
  5  1  1  0
  5  6  1  1
  7  6  2  0
  8  6  1  0
  9  8  1  0
 10 11  1  0
  9 10  1  6
 11 16  2  0
 12 13  2  0
 12 11  1  0
 13 14  1  0
 14 15  2  0
 16 15  1  0
 17  9  1  0
 17 19  1  0
 18 17  2  0
 20 21  1  1
 20 19  1  0
 20 31  1  0
 22 30  1  0
 22 21  1  0
 23 22  2  0
 24 23  1  0
 24 25  1  0
 25 26  1  0
 25 30  2  0
 26 27  2  0
 27 28  1  0
 29 28  2  0
 30 29  1  0
 31 32  1  0
 33 31  2  0
M  END
$$$$
