PFW.pdb
     RDKit          3D

 33 36  0  0  1  0  0  0  0  0999 V2000
    7.8261  -17.0741   19.9061 N   0  0  0  0  0  0  0  0  0  0  0  0
    7.1557  -17.0542   18.6465 C   0  0  0  0  0  0  0  0  0  0  0  0
    7.4480  -15.7232   17.9922 C   0  0  0  0  0  0  0  0  0  0  0  0
    7.8448  -14.8750   19.2050 C   0  0  0  0  0  0  0  0  0  0  0  0
    8.5796  -15.8700   20.0359 C   0  0  1  0  0  0  0  0  0  0  0  0
    8.7330  -15.4401   21.4503 C   0  0  0  0  0  0  0  0  0  0  0  0
    9.8431  -15.6342   21.9928 O   0  0  0  0  0  0  0  0  0  0  0  0
    7.6994  -14.8346   22.1917 N   0  0  0  0  0  0  0  0  0  0  0  0
    7.9311  -14.4377   23.5683 C   0  0  1  0  0  0  0  0  0  0  0  0
    7.0379  -13.3028   23.9623 C   0  0  0  0  0  0  0  0  0  0  0  0
    7.0891  -12.9836   25.4081 C   0  0  0  0  0  0  0  0  0  0  0  0
    8.1510  -12.2784   25.9342 C   0  0  0  0  0  0  0  0  0  0  0  0
    8.2525  -11.9552   27.2660 C   0  0  0  0  0  0  0  0  0  0  0  0
    7.2434  -12.3555   28.1187 C   0  0  0  0  0  0  0  0  0  0  0  0
    6.1686  -13.0640   27.6135 C   0  0  0  0  0  0  0  0  0  0  0  0
    6.0846  -13.3817   26.2597 C   0  0  0  0  0  0  0  0  0  0  0  0
    7.8633  -15.6139   24.4520 C   0  0  0  0  0  0  0  0  0  0  0  0
    6.7878  -16.2917   24.4541 O   0  0  0  0  0  0  0  0  0  0  0  0
    8.9308  -16.0213   25.2894 N   0  0  0  0  0  0  0  0  0  0  0  0
    8.7482  -17.1645   26.1715 C   0  0  1  0  0  0  0  0  0  0  0  0
    8.9414  -18.4454   25.3956 C   0  0  0  0  0  0  0  0  0  0  0  0
   10.3365  -18.6207   24.9854 C   0  0  0  0  0  0  0  0  0  0  0  0
   11.4648  -18.6569   25.7945 C   0  0  0  0  0  0  0  0  0  0  0  0
   12.5583  -18.7918   25.0354 N   0  0  0  0  0  0  0  0  0  0  0  0
   12.2033  -18.8487   23.7427 C   0  0  0  0  0  0  0  0  0  0  0  0
   12.9167  -19.0004   22.5564 C   0  0  0  0  0  0  0  0  0  0  0  0
   12.2775  -19.0495   21.3427 C   0  0  0  0  0  0  0  0  0  0  0  0
   10.8992  -18.9479   21.2776 C   0  0  0  0  0  0  0  0  0  0  0  0
   10.1866  -18.7967   22.4456 C   0  0  0  0  0  0  0  0  0  0  0  0
   10.8251  -18.7443   23.6885 C   0  0  0  0  0  0  0  0  0  0  0  0
    9.4950  -17.0776   27.4076 C   0  0  0  0  0  0  0  0  0  0  0  0
    9.3131  -18.0722   28.3896 O   0  0  0  0  0  0  0  0  0  0  0  0
   10.3177  -16.1849   27.7205 O   0  0  0  0  0  0  0  0  0  0  0  0
  1  2  1  0
  2  3  1  0
  4  3  1  0
  5  4  1  0
  5  1  1  0
  5  6  1  1
  7  6  2  0
  8  6  1  0
  9  8  1  0
 10 11  1  0
  9 10  1  1
 11 16  2  0
 12 13  2  0
 12 11  1  0
 13 14  1  0
 14 15  2  0
 16 15  1  0
 17  9  1  0
 17 19  1  0
 18 17  2  0
 20 21  1  6
 20 19  1  0
 20 31  1  0
 22 30  1  0
 22 21  1  0
 23 22  2  0
 24 23  1  0
 24 25  1  0
 25 26  1  0
 25 30  2  0
 26 27  2  0
 27 28  1  0
 29 28  2  0
 30 29  1  0
 31 32  1  0
 33 31  2  0
M  END
$$$$
