PFW.pdb
     RDKit          3D

 33 36  0  0  1  0  0  0  0  0999 V2000
    9.0325  -15.0413   17.9766 N   0  0  0  0  0  0  0  0  0  0  0  0
    8.6668  -14.3562   16.7793 C   0  0  0  0  0  0  0  0  0  0  0  0
    8.0033  -13.0579   17.1780 C   0  0  0  0  0  0  0  0  0  0  0  0
    7.5714  -13.3720   18.6142 C   0  0  0  0  0  0  0  0  0  0  0  0
    8.7078  -14.2104   19.0895 C   0  0  1  0  0  0  0  0  0  0  0  0
    8.3778  -14.9914   20.3102 C   0  0  0  0  0  0  0  0  0  0  0  0
    8.0568  -14.3490   21.3342 O   0  0  0  0  0  0  0  0  0  0  0  0
    8.4110  -16.3989   20.3611 N   0  0  0  0  0  0  0  0  0  0  0  0
    8.0903  -17.0875   21.5977 C   0  0  1  0  0  0  0  0  0  0  0  0
    7.9180  -18.5570   21.3703 C   0  0  0  0  0  0  0  0  0  0  0  0
    7.6329  -19.3183   22.6088 C   0  0  0  0  0  0  0  0  0  0  0  0
    6.3405  -19.4466   23.0723 C   0  0  0  0  0  0  0  0  0  0  0  0
    6.0171  -20.1391   24.2144 C   0  0  0  0  0  0  0  0  0  0  0  0
    7.0342  -20.7349   24.9326 C   0  0  0  0  0  0  0  0  0  0  0  0
    8.3382  -20.6194   24.4869 C   0  0  0  0  0  0  0  0  0  0  0  0
    8.6452  -19.9129   23.3261 C   0  0  0  0  0  0  0  0  0  0  0  0
    9.0669  -16.7334   22.6416 C   0  0  0  0  0  0  0  0  0  0  0  0
   10.2706  -16.5358   22.2838 O   0  0  0  0  0  0  0  0  0  0  0  0
    8.7297  -16.6025   24.0113 N   0  0  0  0  0  0  0  0  0  0  0  0
    9.7619  -16.2280   24.9666 C   0  0  1  0  0  0  0  0  0  0  0  0
    9.5598  -14.7967   25.4033 C   0  0  0  0  0  0  0  0  0  0  0  0
    8.1941  -14.5675   25.8803 C   0  0  0  0  0  0  0  0  0  0  0  0
    7.1342  -15.4649   25.8944 C   0  0  0  0  0  0  0  0  0  0  0  0
    6.0393  -14.8602   26.3696 N   0  0  0  0  0  0  0  0  0  0  0  0
    6.3275  -13.5862   26.6767 C   0  0  0  0  0  0  0  0  0  0  0  0
    5.5862  -12.5358   27.2116 C   0  0  0  0  0  0  0  0  0  0  0  0
    6.1570  -11.3104   27.4494 C   0  0  0  0  0  0  0  0  0  0  0  0
    7.4927  -11.0968   27.1583 C   0  0  0  0  0  0  0  0  0  0  0  0
    8.2323  -12.1297   26.6283 C   0  0  0  0  0  0  0  0  0  0  0  0
    7.6632  -13.3826   26.3804 C   0  0  0  0  0  0  0  0  0  0  0  0
    9.9384  -17.1785   26.0430 C   0  0  0  0  0  0  0  0  0  0  0  0
   11.0535  -17.0493   26.8954 O   0  0  0  0  0  0  0  0  0  0  0  0
    9.1858  -18.1429   26.3171 O   0  0  0  0  0  0  0  0  0  0  0  0
  1  2  1  0
  2  3  1  0
  4  3  1  0
  5  4  1  0
  5  1  1  0
  5  6  1  1
  7  6  2  0
  8  6  1  0
  9  8  1  0
 10 11  1  0
  9 10  1  6
 11 16  2  0
 12 13  2  0
 12 11  1  0
 13 14  1  0
 14 15  2  0
 16 15  1  0
 17  9  1  0
 17 19  1  0
 18 17  2  0
 20 21  1  1
 20 19  1  0
 20 31  1  0
 22 30  1  0
 22 21  1  0
 23 22  2  0
 24 23  1  0
 24 25  1  0
 25 26  1  0
 25 30  2  0
 26 27  2  0
 27 28  1  0
 29 28  2  0
 30 29  1  0
 31 32  1  0
 33 31  2  0
M  END
$$$$
