PFW.pdb
     RDKit          3D

 33 36  0  0  1  0  0  0  0  0999 V2000
    8.0641  -15.6201   17.9324 N   0  0  0  0  0  0  0  0  0  0  0  0
    7.3123  -15.2084   16.7916 C   0  0  0  0  0  0  0  0  0  0  0  0
    7.5303  -13.7236   16.6100 C   0  0  0  0  0  0  0  0  0  0  0  0
    7.9860  -13.3147   18.0145 C   0  0  0  0  0  0  0  0  0  0  0  0
    8.7966  -14.4975   18.4199 C   0  0  1  0  0  0  0  0  0  0  0  0
    9.0324  -14.5605   19.8860 C   0  0  0  0  0  0  0  0  0  0  0  0
   10.1344  -14.1471   20.3091 O   0  0  0  0  0  0  0  0  0  0  0  0
    8.0843  -15.0572   20.8019 N   0  0  0  0  0  0  0  0  0  0  0  0
    8.2734  -14.8493   22.2258 C   0  0  1  0  0  0  0  0  0  0  0  0
    7.0312  -14.3104   22.8640 C   0  0  0  0  0  0  0  0  0  0  0  0
    7.2343  -13.8466   24.2563 C   0  0  0  0  0  0  0  0  0  0  0  0
    6.9912  -14.6900   25.3198 C   0  0  0  0  0  0  0  0  0  0  0  0
    7.1607  -14.3144   26.6308 C   0  0  0  0  0  0  0  0  0  0  0  0
    7.5951  -13.0314   26.8965 C   0  0  0  0  0  0  0  0  0  0  0  0
    7.8452  -12.1679   25.8458 C   0  0  0  0  0  0  0  0  0  0  0  0
    7.6672  -12.5682   24.5233 C   0  0  0  0  0  0  0  0  0  0  0  0
    8.8086  -16.0717   22.8486 C   0  0  0  0  0  0  0  0  0  0  0  0
    8.4844  -17.1886   22.3352 O   0  0  0  0  0  0  0  0  0  0  0  0
    9.6605  -16.0602   23.9804 N   0  0  0  0  0  0  0  0  0  0  0  0
   10.3116  -17.2942   24.3948 C   0  0  1  0  0  0  0  0  0  0  0  0
   11.3258  -16.9999   25.4742 C   0  0  0  0  0  0  0  0  0  0  0  0
   10.7165  -17.0233   26.8059 C   0  0  0  0  0  0  0  0  0  0  0  0
   10.4608  -18.1286   27.6070 C   0  0  0  0  0  0  0  0  0  0  0  0
    9.8561  -17.7367   28.7343 N   0  0  0  0  0  0  0  0  0  0  0  0
    9.6973  -16.4044   28.7188 C   0  0  0  0  0  0  0  0  0  0  0  0
    9.1589  -15.4907   29.6213 C   0  0  0  0  0  0  0  0  0  0  0  0
    9.1465  -14.1452   29.3499 C   0  0  0  0  0  0  0  0  0  0  0  0
    9.6743  -13.6700   28.1625 C   0  0  0  0  0  0  0  0  0  0  0  0
   10.2075  -14.5668   27.2646 C   0  0  0  0  0  0  0  0  0  0  0  0
   10.2259  -15.9399   27.5280 C   0  0  0  0  0  0  0  0  0  0  0  0
    9.3929  -18.3712   24.6937 C   0  0  0  0  0  0  0  0  0  0  0  0
    9.9035  -19.6664   24.9136 O   0  0  0  0  0  0  0  0  0  0  0  0
    8.1455  -18.2840   24.7831 O   0  0  0  0  0  0  0  0  0  0  0  0
  1  2  1  0
  2  3  1  0
  4  3  1  0
  5  4  1  0
  5  1  1  0
  5  6  1  1
  7  6  2  0
  8  6  1  0
  9  8  1  0
 10 11  1  0
  9 10  1  1
 11 16  2  0
 12 13  2  0
 12 11  1  0
 13 14  1  0
 14 15  2  0
 16 15  1  0
 17  9  1  0
 17 19  1  0
 18 17  2  0
 20 21  1  1
 20 19  1  0
 20 31  1  0
 22 30  1  0
 22 21  1  0
 23 22  2  0
 24 23  1  0
 24 25  1  0
 25 26  1  0
 25 30  2  0
 26 27  2  0
 27 28  1  0
 29 28  2  0
 30 29  1  0
 31 32  1  0
 33 31  2  0
M  END
$$$$
