PFW.pdb
     RDKit          3D

 33 36  0  0  1  0  0  0  0  0999 V2000
    8.1244  -17.5368   18.4112 N   0  0  0  0  0  0  0  0  0  0  0  0
    7.5053  -17.5141   17.1257 C   0  0  0  0  0  0  0  0  0  0  0  0
    7.8875  -16.2142   16.4553 C   0  0  0  0  0  0  0  0  0  0  0  0
    8.2776  -15.3580   17.6647 C   0  0  0  0  0  0  0  0  0  0  0  0
    8.9301  -16.3675   18.5453 C   0  0  1  0  0  0  0  0  0  0  0  0
    9.0491  -15.9126   19.9552 C   0  0  0  0  0  0  0  0  0  0  0  0
    9.8759  -15.0063   20.1989 O   0  0  0  0  0  0  0  0  0  0  0  0
    8.2838  -16.4497   21.0090 N   0  0  0  0  0  0  0  0  0  0  0  0
    8.3594  -15.8609   22.3334 C   0  0  1  0  0  0  0  0  0  0  0  0
    7.0575  -15.2324   22.7217 C   0  0  0  0  0  0  0  0  0  0  0  0
    7.0922  -14.5684   24.0456 C   0  0  0  0  0  0  0  0  0  0  0  0
    7.5751  -13.2831   24.1740 C   0  0  0  0  0  0  0  0  0  0  0  0
    7.6325  -12.6184   25.3754 C   0  0  0  0  0  0  0  0  0  0  0  0
    7.1857  -13.2679   26.5084 C   0  0  0  0  0  0  0  0  0  0  0  0
    6.6973  -14.5575   26.4039 C   0  0  0  0  0  0  0  0  0  0  0  0
    6.6475  -15.2140   25.1762 C   0  0  0  0  0  0  0  0  0  0  0  0
    8.8823  -16.8457   23.2955 C   0  0  0  0  0  0  0  0  0  0  0  0
    8.1018  -17.2472   24.2151 O   0  0  0  0  0  0  0  0  0  0  0  0
   10.2005  -17.3619   23.2427 N   0  0  0  0  0  0  0  0  0  0  0  0
   10.9123  -17.6269   24.4842 C   0  0  1  0  0  0  0  0  0  0  0  0
   11.3133  -16.3232   25.1322 C   0  0  0  0  0  0  0  0  0  0  0  0
   11.0436  -16.3326   26.5717 C   0  0  0  0  0  0  0  0  0  0  0  0
   10.8853  -17.4345   27.4021 C   0  0  0  0  0  0  0  0  0  0  0  0
   10.6101  -17.0245   28.6457 N   0  0  0  0  0  0  0  0  0  0  0  0
   10.5791  -15.6835   28.6799 C   0  0  0  0  0  0  0  0  0  0  0  0
   10.3632  -14.7532   29.6933 C   0  0  0  0  0  0  0  0  0  0  0  0
   10.4131  -13.4044   29.4438 C   0  0  0  0  0  0  0  0  0  0  0  0
   10.6816  -12.9423   28.1675 C   0  0  0  0  0  0  0  0  0  0  0  0
   10.8952  -13.8555   27.1599 C   0  0  0  0  0  0  0  0  0  0  0  0
   10.8465  -15.2321   27.4000 C   0  0  0  0  0  0  0  0  0  0  0  0
   10.2407  -18.5647   25.3575 C   0  0  0  0  0  0  0  0  0  0  0  0
   10.9955  -19.5727   25.9907 O   0  0  0  0  0  0  0  0  0  0  0  0
    9.0167  -18.5872   25.6273 O   0  0  0  0  0  0  0  0  0  0  0  0
  1  2  1  0
  2  3  1  0
  4  3  1  0
  5  4  1  0
  5  1  1  0
  5  6  1  1
  7  6  2  0
  8  6  1  0
  9  8  1  0
 10 11  1  0
  9 10  1  1
 11 16  2  0
 12 13  2  0
 12 11  1  0
 13 14  1  0
 14 15  2  0
 16 15  1  0
 17  9  1  0
 17 19  1  0
 18 17  2  0
 20 21  1  1
 20 19  1  0
 20 31  1  0
 22 30  1  0
 22 21  1  0
 23 22  2  0
 24 23  1  0
 24 25  1  0
 25 26  1  0
 25 30  2  0
 26 27  2  0
 27 28  1  0
 29 28  2  0
 30 29  1  0
 31 32  1  0
 33 31  2  0
M  END
$$$$
