MCV.pdb
     RDKit          3D

 22 21  0  0  1  0  0  0  0  0999 V2000
   27.1815  -18.9159   -7.0804 C   0  0  0  0  0  0  0  0  0  0  0  0
   27.7787  -20.6249   -7.1217 S   0  0  0  0  0  0  0  0  0  0  0  0
   27.9091  -21.2214   -8.8137 C   0  0  0  0  0  0  0  0  0  0  0  0
   26.7522  -20.7966   -9.6806 C   0  0  0  0  0  0  0  0  0  0  0  0
   26.8347  -21.3487  -11.0766 C   0  0  2  0  0  0  0  0  0  0  0  0
   28.1083  -20.9954  -11.7133 N   0  0  0  0  0  0  0  0  0  0  0  0
   25.6917  -20.8788  -11.8742 C   0  0  0  0  0  0  0  0  0  0  0  0
   25.6214  -19.6222  -12.0660 O   0  0  0  0  0  0  0  0  0  0  0  0
   24.6898  -21.7239  -12.4269 N   0  0  0  0  0  0  0  0  0  0  0  0
   23.6033  -21.1410  -13.1441 C   0  0  1  0  0  0  0  0  0  0  0  0
   23.9684  -21.1164  -14.6258 C   0  0  0  0  0  0  0  0  0  0  0  0
   25.7639  -21.1038  -14.8527 S   0  0  0  0  0  0  0  0  0  0  0  0
   22.3104  -21.8365  -12.9118 C   0  0  0  0  0  0  0  0  0  0  0  0
   22.2222  -23.0495  -12.6380 O   0  0  0  0  0  0  0  0  0  0  0  0
   17.7037  -21.2249  -11.5542 C   0  0  0  0  0  0  0  0  0  0  0  0
   19.0595  -20.6367  -11.8874 C   0  0  2  0  0  0  0  0  0  0  0  0
   18.8175  -19.3727  -12.6920 C   0  0  0  0  0  0  0  0  0  0  0  0
   19.7956  -21.6089  -12.7705 C   0  0  2  0  0  0  0  0  0  0  0  0
   21.1249  -21.0807  -13.0069 N   0  0  0  0  0  0  0  0  0  0  0  0
   19.0864  -21.9432  -14.0044 C   0  0  0  0  0  0  0  0  0  0  0  0
   19.3041  -21.2797  -15.0477 O   0  0  0  0  0  0  0  0  0  0  0  0
   18.1666  -22.9742  -14.0901 O   0  0  0  0  0  0  0  0  0  0  0  0
  2  1  1  0
  3  2  1  0
  3  4  1  0
  4  5  1  0
  5  7  1  0
  5  6  1  6
  7  8  2  0
  7  9  1  0
  9 10  1  0
 10 13  1  0
 10 11  1  6
 11 12  1  0
 13 14  2  0
 16 15  1  6
 16 18  1  0
 17 16  1  0
 18 20  1  0
 19 13  1  0
 18 19  1  6
 20 22  1  0
 21 20  2  0
M  END
$$$$
