MCV.pdb
     RDKit          3D

 22 21  0  0  1  0  0  0  0  0999 V2000
   26.2474  -19.8889  -19.0680 C   0  0  0  0  0  0  0  0  0  0  0  0
   28.0576  -19.9318  -19.0918 S   0  0  0  0  0  0  0  0  0  0  0  0
   28.7022  -20.7550  -17.6281 C   0  0  0  0  0  0  0  0  0  0  0  0
   27.6298  -21.1172  -16.6336 C   0  0  0  0  0  0  0  0  0  0  0  0
   28.1866  -21.6333  -15.3359 C   0  0  2  0  0  0  0  0  0  0  0  0
   28.8698  -22.9179  -15.5245 N   0  0  0  0  0  0  0  0  0  0  0  0
   27.1155  -21.7414  -14.3338 C   0  0  0  0  0  0  0  0  0  0  0  0
   26.1259  -22.4776  -14.6489 O   0  0  0  0  0  0  0  0  0  0  0  0
   27.1224  -21.0889  -13.0697 N   0  0  0  0  0  0  0  0  0  0  0  0
   25.9785  -21.1943  -12.2241 C   0  0  1  0  0  0  0  0  0  0  0  0
   26.3770  -20.7374  -10.8235 C   0  0  0  0  0  0  0  0  0  0  0  0
   24.9484  -20.7269   -9.7123 S   0  0  0  0  0  0  0  0  0  0  0  0
   24.8051  -20.4368  -12.7324 C   0  0  0  0  0  0  0  0  0  0  0  0
   24.8504  -19.2325  -13.0518 O   0  0  0  0  0  0  0  0  0  0  0  0
   20.9774  -20.2979  -15.3882 C   0  0  0  0  0  0  0  0  0  0  0  0
   22.2490  -20.9066  -14.8336 C   0  0  2  0  0  0  0  0  0  0  0  0
   22.0977  -22.4149  -14.9097 C   0  0  0  0  0  0  0  0  0  0  0  0
   22.3622  -20.5296  -13.3803 C   0  0  2  0  0  0  0  0  0  0  0  0
   23.5791  -21.1200  -12.8582 N   0  0  0  0  0  0  0  0  0  0  0  0
   21.1801  -20.8634  -12.5875 C   0  0  0  0  0  0  0  0  0  0  0  0
   20.1050  -20.2447  -12.7807 O   0  0  0  0  0  0  0  0  0  0  0  0
   21.1786  -21.8463  -11.6127 O   0  0  0  0  0  0  0  0  0  0  0  0
  2  1  1  0
  3  2  1  0
  3  4  1  0
  4  5  1  0
  5  7  1  0
  5  6  1  6
  7  8  2  0
  7  9  1  0
  9 10  1  0
 10 13  1  0
 10 11  1  1
 11 12  1  0
 13 14  2  0
 16 15  1  1
 16 18  1  0
 17 16  1  0
 18 20  1  0
 19 13  1  0
 18 19  1  1
 20 22  1  0
 21 20  2  0
M  END
$$$$
