MCV.pdb
     RDKit          3D

 22 21  0  0  1  0  0  0  0  0999 V2000
   19.3629  -10.4663  -22.2042 C   0  0  0  0  0  0  0  0  0  0  0  0
   20.6972  -11.6846  -22.0842 S   0  0  0  0  0  0  0  0  0  0  0  0
   21.4950  -11.6104  -20.4737 C   0  0  0  0  0  0  0  0  0  0  0  0
   20.6470  -10.9387  -19.4248 C   0  0  0  0  0  0  0  0  0  0  0  0
   21.3705  -10.7522  -18.1201 C   0  0  2  0  0  0  0  0  0  0  0  0
   21.5917  -12.0368  -17.4469 N   0  0  0  0  0  0  0  0  0  0  0  0
   20.6270   -9.8201  -17.2588 C   0  0  0  0  0  0  0  0  0  0  0  0
   19.6555  -10.3171  -16.6032 O   0  0  0  0  0  0  0  0  0  0  0  0
   20.9232   -8.4356  -17.1211 N   0  0  0  0  0  0  0  0  0  0  0  0
   20.1805   -7.6528  -16.1883 C   0  0  1  0  0  0  0  0  0  0  0  0
   20.4694   -8.1807  -14.7858 C   0  0  0  0  0  0  0  0  0  0  0  0
   19.0673   -7.8879  -13.6795 S   0  0  0  0  0  0  0  0  0  0  0  0
   20.4625   -6.1972  -16.2927 C   0  0  0  0  0  0  0  0  0  0  0  0
   21.5992   -5.7055  -16.1499 O   0  0  0  0  0  0  0  0  0  0  0  0
   17.6390   -4.1282  -18.3636 C   0  0  0  0  0  0  0  0  0  0  0  0
   19.0617   -3.6290  -18.2151 C   0  0  2  0  0  0  0  0  0  0  0  0
   19.9278   -4.4486  -19.1540 C   0  0  0  0  0  0  0  0  0  0  0  0
   19.5191   -3.9080  -16.8080 C   0  0  2  0  0  0  0  0  0  0  0  0
   19.3852   -5.3315  -16.5678 N   0  0  0  0  0  0  0  0  0  0  0  0
   18.8508   -3.0929  -15.7948 C   0  0  0  0  0  0  0  0  0  0  0  0
   17.8177   -3.5262  -15.2282 O   0  0  0  0  0  0  0  0  0  0  0  0
   19.3031   -1.8407  -15.4156 O   0  0  0  0  0  0  0  0  0  0  0  0
  2  1  1  0
  3  2  1  0
  3  4  1  0
  4  5  1  0
  5  7  1  0
  5  6  1  1
  7  8  2  0
  7  9  1  0
  9 10  1  0
 10 13  1  0
 10 11  1  1
 11 12  1  0
 13 14  2  0
 16 15  1  1
 16 18  1  0
 17 16  1  0
 18 20  1  0
 19 13  1  0
 18 19  1  1
 20 22  1  0
 21 20  2  0
M  END
$$$$
