MCV.pdb
     RDKit          3D

 22 21  0  0  1  0  0  0  0  0999 V2000
   24.9939  -21.1450  -17.2211 C   0  0  0  0  0  0  0  0  0  0  0  0
   26.2921  -21.6636  -16.0700 S   0  0  0  0  0  0  0  0  0  0  0  0
   25.9342  -23.2873  -15.3838 C   0  0  0  0  0  0  0  0  0  0  0  0
   24.4594  -23.5890  -15.3183 C   0  0  0  0  0  0  0  0  0  0  0  0
   24.1688  -24.9790  -14.8241 C   0  0  2  0  0  0  0  0  0  0  0  0
   24.6908  -25.9914  -15.7487 N   0  0  0  0  0  0  0  0  0  0  0  0
   22.7234  -25.1472  -14.6102 C   0  0  0  0  0  0  0  0  0  0  0  0
   22.0159  -25.2974  -15.6578 O   0  0  0  0  0  0  0  0  0  0  0  0
   22.0899  -25.1514  -13.3365 N   0  0  0  0  0  0  0  0  0  0  0  0
   20.6726  -25.2945  -13.2628 C   0  0  1  0  0  0  0  0  0  0  0  0
   20.3315  -25.9938  -11.9498 C   0  0  0  0  0  0  0  0  0  0  0  0
   18.5399  -26.1031  -11.7182 S   0  0  0  0  0  0  0  0  0  0  0  0
   19.9478  -24.0040  -13.3985 C   0  0  0  0  0  0  0  0  0  0  0  0
   20.2534  -22.9743  -12.7655 O   0  0  0  0  0  0  0  0  0  0  0  0
   17.1257  -23.8677  -16.4778 C   0  0  0  0  0  0  0  0  0  0  0  0
   17.7473  -22.6013  -15.9255 C   0  0  2  0  0  0  0  0  0  0  0  0
   19.0959  -22.4292  -16.6003 C   0  0  0  0  0  0  0  0  0  0  0  0
   17.9925  -22.7950  -14.4527 C   0  0  2  0  0  0  0  0  0  0  0  0
   18.8587  -23.9463  -14.2909 N   0  0  0  0  0  0  0  0  0  0  0  0
   16.7706  -22.8834  -13.6549 C   0  0  0  0  0  0  0  0  0  0  0  0
   16.3440  -24.0065  -13.2906 O   0  0  0  0  0  0  0  0  0  0  0  0
   16.0400  -21.7728  -13.2688 O   0  0  0  0  0  0  0  0  0  0  0  0
  2  1  1  0
  3  2  1  0
  3  4  1  0
  4  5  1  0
  5  7  1  0
  5  6  1  6
  7  8  2  0
  7  9  1  0
  9 10  1  0
 10 13  1  0
 10 11  1  1
 11 12  1  0
 13 14  2  0
 16 15  1  6
 16 18  1  0
 17 16  1  0
 18 20  1  0
 19 13  1  0
 18 19  1  6
 20 22  1  0
 21 20  2  0
M  END
$$$$
