MCV.pdb
     RDKit          3D

 22 21  0  0  1  0  0  0  0  0999 V2000
   27.6184  -17.5740  -16.8157 C   0  0  0  0  0  0  0  0  0  0  0  0
   27.4170  -17.1584  -15.0647 S   0  0  0  0  0  0  0  0  0  0  0  0
   26.0598  -16.0018  -14.8286 C   0  0  0  0  0  0  0  0  0  0  0  0
   25.5628  -15.4028  -16.1188 C   0  0  0  0  0  0  0  0  0  0  0  0
   24.3327  -14.5581  -15.9352 C   0  0  2  0  0  0  0  0  0  0  0  0
   23.2244  -15.3462  -15.3847 N   0  0  0  0  0  0  0  0  0  0  0  0
   23.9572  -13.9284  -17.2102 C   0  0  0  0  0  0  0  0  0  0  0  0
   23.6405  -14.7212  -18.1545 O   0  0  0  0  0  0  0  0  0  0  0  0
   23.9289  -12.5250  -17.4412 N   0  0  0  0  0  0  0  0  0  0  0  0
   23.4293  -12.0325  -18.6831 C   0  0  1  0  0  0  0  0  0  0  0  0
   22.0113  -12.5646  -18.8716 C   0  0  0  0  0  0  0  0  0  0  0  0
   21.2537  -11.8802  -20.3660 S   0  0  0  0  0  0  0  0  0  0  0  0
   23.4742  -10.5502  -18.7836 C   0  0  0  0  0  0  0  0  0  0  0  0
   23.1400   -9.7881  -17.8554 O   0  0  0  0  0  0  0  0  0  0  0  0
   24.6058   -9.0106  -22.5587 C   0  0  0  0  0  0  0  0  0  0  0  0
   25.1990   -8.4331  -21.2900 C   0  0  2  0  0  0  0  0  0  0  0  0
   26.3988   -9.2874  -20.9234 C   0  0  0  0  0  0  0  0  0  0  0  0
   24.1845   -8.5690  -20.1859 C   0  0  2  0  0  0  0  0  0  0  0  0
   23.9185   -9.9812  -19.9938 N   0  0  0  0  0  0  0  0  0  0  0  0
   22.9699   -7.7830  -20.3969 C   0  0  0  0  0  0  0  0  0  0  0  0
   21.9434   -8.3351  -20.8631 O   0  0  0  0  0  0  0  0  0  0  0  0
   22.8853   -6.4325  -20.1046 O   0  0  0  0  0  0  0  0  0  0  0  0
  2  1  1  0
  3  2  1  0
  3  4  1  0
  4  5  1  0
  5  7  1  0
  5  6  1  6
  7  8  2  0
  7  9  1  0
  9 10  1  0
 10 13  1  0
 10 11  1  1
 11 12  1  0
 13 14  2  0
 16 15  1  6
 16 18  1  0
 17 16  1  0
 18 20  1  0
 19 13  1  0
 18 19  1  6
 20 22  1  0
 21 20  2  0
M  END
$$$$
