MCV.pdb
     RDKit          3D

 22 21  0  0  1  0  0  0  0  0999 V2000
   26.3619  -16.7344  -17.2438 C   0  0  0  0  0  0  0  0  0  0  0  0
   27.9579  -17.5787  -17.1054 S   0  0  0  0  0  0  0  0  0  0  0  0
   28.4422  -17.7636  -15.3830 C   0  0  0  0  0  0  0  0  0  0  0  0
   27.5007  -18.6373  -14.5952 C   0  0  0  0  0  0  0  0  0  0  0  0
   28.1234  -19.9412  -14.1795 C   0  0  2  0  0  0  0  0  0  0  0  0
   28.6867  -20.6523  -15.3326 N   0  0  0  0  0  0  0  0  0  0  0  0
   27.1353  -20.7703  -13.4727 C   0  0  0  0  0  0  0  0  0  0  0  0
   27.0266  -21.9744  -13.8715 O   0  0  0  0  0  0  0  0  0  0  0  0
   26.3182  -20.3163  -12.4004 N   0  0  0  0  0  0  0  0  0  0  0  0
   25.2538  -21.1442  -11.9356 C   0  0  1  0  0  0  0  0  0  0  0  0
   25.4031  -21.3103  -10.4258 C   0  0  0  0  0  0  0  0  0  0  0  0
   25.6294  -19.7082   -9.6150 S   0  0  0  0  0  0  0  0  0  0  0  0
   23.9092  -20.6243  -12.2974 C   0  0  0  0  0  0  0  0  0  0  0  0
   23.6045  -19.4163  -12.2521 O   0  0  0  0  0  0  0  0  0  0  0  0
   22.5011  -21.6987  -15.4837 C   0  0  0  0  0  0  0  0  0  0  0  0
   21.3984  -22.0045  -14.4909 C   0  0  2  0  0  0  0  0  0  0  0  0
   20.0925  -21.5408  -15.1100 C   0  0  0  0  0  0  0  0  0  0  0  0
   21.6346  -21.1846  -13.2503 C   0  0  2  0  0  0  0  0  0  0  0  0
   22.9308  -21.5493  -12.7129 N   0  0  0  0  0  0  0  0  0  0  0  0
   20.5601  -21.2798  -12.2634 C   0  0  0  0  0  0  0  0  0  0  0  0
   20.4793  -22.2925  -11.5258 O   0  0  0  0  0  0  0  0  0  0  0  0
   19.6042  -20.2934  -12.0917 O   0  0  0  0  0  0  0  0  0  0  0  0
  2  1  1  0
  3  2  1  0
  3  4  1  0
  4  5  1  0
  5  7  1  0
  5  6  1  6
  7  8  2  0
  7  9  1  0
  9 10  1  0
 10 13  1  0
 10 11  1  1
 11 12  1  0
 13 14  2  0
 16 15  1  6
 16 18  1  0
 17 16  1  0
 18 20  1  0
 19 13  1  0
 18 19  1  1
 20 22  1  0
 21 20  2  0
M  END
$$$$
