MCV.pdb
     RDKit          3D

 22 21  0  0  1  0  0  0  0  0999 V2000
   27.1666  -12.7335  -14.5641 C   0  0  0  0  0  0  0  0  0  0  0  0
   27.2680  -13.7466  -16.0616 S   0  0  0  0  0  0  0  0  0  0  0  0
   25.6476  -14.3742  -16.5263 C   0  0  0  0  0  0  0  0  0  0  0  0
   24.6328  -13.2827  -16.7485 C   0  0  0  0  0  0  0  0  0  0  0  0
   23.2626  -13.8145  -17.0650 C   0  0  2  0  0  0  0  0  0  0  0  0
   23.2744  -14.6149  -18.2944 N   0  0  0  0  0  0  0  0  0  0  0  0
   22.3001  -12.7064  -17.1596 C   0  0  0  0  0  0  0  0  0  0  0  0
   22.3509  -12.0096  -18.2238 O   0  0  0  0  0  0  0  0  0  0  0  0
   21.3437  -12.3788  -16.1587 N   0  0  0  0  0  0  0  0  0  0  0  0
   20.4670  -11.2731  -16.3669 C   0  0  1  0  0  0  0  0  0  0  0  0
   19.0608  -11.6940  -15.9491 C   0  0  0  0  0  0  0  0  0  0  0  0
   18.4870  -13.1044  -16.9274 S   0  0  0  0  0  0  0  0  0  0  0  0
   20.9019  -10.0416  -15.6572 C   0  0  0  0  0  0  0  0  0  0  0  0
   21.4248  -10.0491  -14.5255 O   0  0  0  0  0  0  0  0  0  0  0  0
   22.6467   -5.6317  -16.1401 C   0  0  0  0  0  0  0  0  0  0  0  0
   22.0969   -6.9063  -16.7470 C   0  0  2  0  0  0  0  0  0  0  0  0
   21.3048   -6.5134  -17.9806 C   0  0  0  0  0  0  0  0  0  0  0  0
   21.1389   -7.5260  -15.7647 C   0  0  2  0  0  0  0  0  0  0  0  0
   20.7112   -8.8031  -16.3015 N   0  0  0  0  0  0  0  0  0  0  0  0
   20.0213   -6.6577  -15.3982 C   0  0  0  0  0  0  0  0  0  0  0  0
   18.9367   -6.7397  -16.0252 O   0  0  0  0  0  0  0  0  0  0  0  0
   20.0924   -5.7281  -14.3749 O   0  0  0  0  0  0  0  0  0  0  0  0
  2  1  1  0
  3  2  1  0
  3  4  1  0
  4  5  1  0
  5  7  1  0
  5  6  1  6
  7  8  2  0
  7  9  1  0
  9 10  1  0
 10 13  1  0
 10 11  1  1
 11 12  1  0
 13 14  2  0
 16 15  1  1
 16 18  1  0
 17 16  1  0
 18 20  1  0
 19 13  1  0
 18 19  1  6
 20 22  1  0
 21 20  2  0
M  END
$$$$
