MCV.pdb
     RDKit          3D

 22 21  0  0  1  0  0  0  0  0999 V2000
   21.8286  -22.8887  -10.1397 C   0  0  0  0  0  0  0  0  0  0  0  0
   21.7206  -22.4473  -11.8926 S   0  0  0  0  0  0  0  0  0  0  0  0
   23.1453  -21.4742  -12.4013 C   0  0  0  0  0  0  0  0  0  0  0  0
   24.2291  -21.4224  -11.3559 C   0  0  0  0  0  0  0  0  0  0  0  0
   25.3984  -20.5718  -11.7680 C   0  0  2  0  0  0  0  0  0  0  0  0
   26.1562  -21.2014  -12.8551 N   0  0  0  0  0  0  0  0  0  0  0  0
   26.2589  -20.2989  -10.6069 C   0  0  0  0  0  0  0  0  0  0  0  0
   27.3388  -20.9697  -10.5401 O   0  0  0  0  0  0  0  0  0  0  0  0
   25.9614  -19.3558   -9.5842 N   0  0  0  0  0  0  0  0  0  0  0  0
   26.9553  -19.0482   -8.6085 C   0  0  1  0  0  0  0  0  0  0  0  0
   26.6668  -17.6549   -8.0565 C   0  0  0  0  0  0  0  0  0  0  0  0
   27.7772  -17.2568   -6.6839 S   0  0  0  0  0  0  0  0  0  0  0  0
   27.0395  -20.0593   -7.5222 C   0  0  0  0  0  0  0  0  0  0  0  0
   26.0518  -20.6815   -7.0845 O   0  0  0  0  0  0  0  0  0  0  0  0
   30.2667  -21.8067   -4.1855 C   0  0  0  0  0  0  0  0  0  0  0  0
   29.9606  -20.8474   -5.3175 C   0  0  2  0  0  0  0  0  0  0  0  0
   30.1413  -19.4404   -4.7778 C   0  0  0  0  0  0  0  0  0  0  0  0
   28.5134  -21.0097   -5.7001 C   0  0  2  0  0  0  0  0  0  0  0  0
   28.3043  -20.3250   -6.9608 N   0  0  0  0  0  0  0  0  0  0  0  0
   27.5748  -20.5908   -4.6605 C   0  0  0  0  0  0  0  0  0  0  0  0
   27.2879  -19.3753   -4.5329 O   0  0  0  0  0  0  0  0  0  0  0  0
   26.9698  -21.4792   -3.7880 O   0  0  0  0  0  0  0  0  0  0  0  0
  2  1  1  0
  3  2  1  0
  3  4  1  0
  4  5  1  0
  5  7  1  0
  5  6  1  6
  7  8  2  0
  7  9  1  0
  9 10  1  0
 10 13  1  0
 10 11  1  1
 11 12  1  0
 13 14  2  0
 16 15  1  1
 16 18  1  0
 17 16  1  0
 18 20  1  0
 19 13  1  0
 18 19  1  6
 20 22  1  0
 21 20  2  0
M  END
$$$$
