MCV.pdb
     RDKit          3D

 22 21  0  0  1  0  0  0  0  0999 V2000
   18.5800  -10.4379  -21.8415 C   0  0  0  0  0  0  0  0  0  0  0  0
   19.8850  -11.6854  -21.7006 S   0  0  0  0  0  0  0  0  0  0  0  0
   20.3236  -11.9680  -19.9791 C   0  0  0  0  0  0  0  0  0  0  0  0
   19.9982  -10.7982  -19.0869 C   0  0  0  0  0  0  0  0  0  0  0  0
   20.3189  -11.0589  -17.6414 C   0  0  2  0  0  0  0  0  0  0  0  0
   19.4801  -12.1322  -17.0964 N   0  0  0  0  0  0  0  0  0  0  0  0
   20.1744   -9.8209  -16.8605 C   0  0  0  0  0  0  0  0  0  0  0  0
   19.0061   -9.5682  -16.4224 O   0  0  0  0  0  0  0  0  0  0  0  0
   21.2349   -8.9165  -16.5757 N   0  0  0  0  0  0  0  0  0  0  0  0
   20.9336   -7.6491  -15.9947 C   0  0  1  0  0  0  0  0  0  0  0  0
   21.7872   -7.4843  -14.7403 C   0  0  0  0  0  0  0  0  0  0  0  0
   21.7261   -5.7809  -14.1319 S   0  0  0  0  0  0  0  0  0  0  0  0
   21.1231   -6.5153  -16.9370 C   0  0  0  0  0  0  0  0  0  0  0  0
   22.2004   -6.2769  -17.5174 O   0  0  0  0  0  0  0  0  0  0  0  0
   19.4610   -3.6191  -20.2382 C   0  0  0  0  0  0  0  0  0  0  0  0
   19.3843   -4.8287  -19.3294 C   0  0  2  0  0  0  0  0  0  0  0  0
   17.9173   -5.0735  -19.0268 C   0  0  0  0  0  0  0  0  0  0  0  0
   20.0707   -4.4931  -18.0320 C   0  0  2  0  0  0  0  0  0  0  0  0
   20.0245   -5.6683  -17.1841 N   0  0  0  0  0  0  0  0  0  0  0  0
   19.5470   -3.2956  -17.3768 C   0  0  0  0  0  0  0  0  0  0  0  0
   18.5609   -3.3880  -16.6053 O   0  0  0  0  0  0  0  0  0  0  0  0
   20.0894   -2.0357  -17.5630 O   0  0  0  0  0  0  0  0  0  0  0  0
  2  1  1  0
  3  2  1  0
  3  4  1  0
  4  5  1  0
  5  7  1  0
  5  6  1  1
  7  8  2  0
  7  9  1  0
  9 10  1  0
 10 13  1  0
 10 11  1  1
 11 12  1  0
 13 14  2  0
 16 15  1  6
 16 18  1  0
 17 16  1  0
 18 20  1  0
 19 13  1  0
 18 19  1  1
 20 22  1  0
 21 20  2  0
M  END
$$$$
