MCV.pdb
     RDKit          3D

 22 21  0  0  1  0  0  0  0  0999 V2000
   26.4741  -14.1915  -14.8785 C   0  0  0  0  0  0  0  0  0  0  0  0
   26.4649  -15.6091  -16.0052 S   0  0  0  0  0  0  0  0  0  0  0  0
   24.8138  -15.9060  -16.6543 C   0  0  0  0  0  0  0  0  0  0  0  0
   23.9508  -14.6708  -16.6612 C   0  0  0  0  0  0  0  0  0  0  0  0
   22.5636  -14.9301  -17.1797 C   0  0  2  0  0  0  0  0  0  0  0  0
   22.6007  -15.5629  -18.5028 N   0  0  0  0  0  0  0  0  0  0  0  0
   21.7930  -13.6777  -17.2093 C   0  0  0  0  0  0  0  0  0  0  0  0
   21.9297  -12.9604  -18.2521 O   0  0  0  0  0  0  0  0  0  0  0  0
   20.9290  -13.2355  -16.1692 N   0  0  0  0  0  0  0  0  0  0  0  0
   20.2631  -11.9811  -16.3016 C   0  0  1  0  0  0  0  0  0  0  0  0
   18.8027  -12.1717  -15.9014 C   0  0  0  0  0  0  0  0  0  0  0  0
   17.9725  -10.5771  -15.6930 S   0  0  0  0  0  0  0  0  0  0  0  0
   20.9063  -10.8933  -15.5191 C   0  0  0  0  0  0  0  0  0  0  0  0
   21.3188  -11.0382  -14.3516 O   0  0  0  0  0  0  0  0  0  0  0  0
   21.5778   -7.3067  -17.6481 C   0  0  0  0  0  0  0  0  0  0  0  0
   22.4916   -7.7640  -16.5296 C   0  0  2  0  0  0  0  0  0  0  0  0
   23.4606   -8.7710  -17.1219 C   0  0  0  0  0  0  0  0  0  0  0  0
   21.6598   -8.4793  -15.4984 C   0  0  2  0  0  0  0  0  0  0  0  0
   21.0554   -9.6340  -16.1334 N   0  0  0  0  0  0  0  0  0  0  0  0
   20.6850   -7.6227  -14.8250 C   0  0  0  0  0  0  0  0  0  0  0  0
   19.4740   -7.6811  -15.1506 O   0  0  0  0  0  0  0  0  0  0  0  0
   21.0294   -6.7296  -13.8250 O   0  0  0  0  0  0  0  0  0  0  0  0
  2  1  1  0
  3  2  1  0
  3  4  1  0
  4  5  1  0
  5  7  1  0
  5  6  1  6
  7  8  2  0
  7  9  1  0
  9 10  1  0
 10 13  1  0
 10 11  1  1
 11 12  1  0
 13 14  2  0
 16 15  1  6
 16 18  1  0
 17 16  1  0
 18 20  1  0
 19 13  1  0
 18 19  1  6
 20 22  1  0
 21 20  2  0
M  END
$$$$
