MCV.pdb
     RDKit          3D

 22 21  0  0  1  0  0  0  0  0999 V2000
   17.2317  -20.1402  -16.1761 C   0  0  0  0  0  0  0  0  0  0  0  0
   18.5270  -20.5042  -17.3880 S   0  0  0  0  0  0  0  0  0  0  0  0
   19.9429  -19.4176  -17.1643 C   0  0  0  0  0  0  0  0  0  0  0  0
   20.1427  -18.9949  -15.7319 C   0  0  0  0  0  0  0  0  0  0  0  0
   21.1761  -19.8208  -15.0176 C   0  0  2  0  0  0  0  0  0  0  0  0
   20.6932  -20.2541  -13.7018 N   0  0  0  0  0  0  0  0  0  0  0  0
   22.4338  -19.0670  -14.9021 C   0  0  0  0  0  0  0  0  0  0  0  0
   22.4847  -18.2020  -13.9695 O   0  0  0  0  0  0  0  0  0  0  0  0
   23.5632  -19.2445  -15.7487 N   0  0  0  0  0  0  0  0  0  0  0  0
   24.7270  -18.4479  -15.5352 C   0  0  1  0  0  0  0  0  0  0  0  0
   25.9453  -19.3667  -15.5614 C   0  0  0  0  0  0  0  0  0  0  0  0
   27.4522  -18.4602  -15.1336 S   0  0  0  0  0  0  0  0  0  0  0  0
   24.8604  -17.3359  -16.5125 C   0  0  0  0  0  0  0  0  0  0  0  0
   24.6268  -17.4600  -17.7308 O   0  0  0  0  0  0  0  0  0  0  0  0
   26.5060  -13.7651  -14.9787 C   0  0  0  0  0  0  0  0  0  0  0  0
   25.3373  -13.6889  -15.9396 C   0  0  2  0  0  0  0  0  0  0  0  0
   24.0675  -13.7925  -15.1147 C   0  0  0  0  0  0  0  0  0  0  0  0
   25.3917  -14.8866  -16.8505 C   0  0  2  0  0  0  0  0  0  0  0  0
   25.2730  -16.0772  -16.0318 N   0  0  0  0  0  0  0  0  0  0  0  0
   26.5609  -14.9114  -17.7278 C   0  0  0  0  0  0  0  0  0  0  0  0
   27.5935  -15.5309  -17.3729 O   0  0  0  0  0  0  0  0  0  0  0  0
   26.5950  -14.2757  -18.9571 O   0  0  0  0  0  0  0  0  0  0  0  0
  2  1  1  0
  3  2  1  0
  3  4  1  0
  4  5  1  0
  5  7  1  0
  5  6  1  1
  7  8  2  0
  7  9  1  0
  9 10  1  0
 10 13  1  0
 10 11  1  6
 11 12  1  0
 13 14  2  0
 16 15  1  1
 16 18  1  0
 17 16  1  0
 18 20  1  0
 19 13  1  0
 18 19  1  1
 20 22  1  0
 21 20  2  0
M  END
$$$$
