MCV.pdb
     RDKit          3D

 22 21  0  0  1  0  0  0  0  0999 V2000
   26.9154  -22.1243  -15.1291 C   0  0  0  0  0  0  0  0  0  0  0  0
   28.4437  -21.1552  -15.0657 S   0  0  0  0  0  0  0  0  0  0  0  0
   28.1871  -19.6028  -14.1941 C   0  0  0  0  0  0  0  0  0  0  0  0
   27.4760  -18.5681  -15.0272 C   0  0  0  0  0  0  0  0  0  0  0  0
   26.0847  -18.9856  -15.4150 C   0  0  2  0  0  0  0  0  0  0  0  0
   25.5055  -18.0592  -16.3942 N   0  0  0  0  0  0  0  0  0  0  0  0
   25.2374  -19.0938  -14.2177 C   0  0  0  0  0  0  0  0  0  0  0  0
   25.0622  -18.0201  -13.5566 O   0  0  0  0  0  0  0  0  0  0  0  0
   24.6208  -20.2950  -13.7696 N   0  0  0  0  0  0  0  0  0  0  0  0
   23.9059  -20.2937  -12.5353 C   0  0  1  0  0  0  0  0  0  0  0  0
   22.4960  -20.8145  -12.8002 C   0  0  0  0  0  0  0  0  0  0  0  0
   21.3028  -19.4553  -12.8665 S   0  0  0  0  0  0  0  0  0  0  0  0
   24.5843  -21.0733  -11.4670 C   0  0  0  0  0  0  0  0  0  0  0  0
   24.9924  -22.2410  -11.6223 O   0  0  0  0  0  0  0  0  0  0  0  0
   25.6993  -19.0615   -7.9286 C   0  0  0  0  0  0  0  0  0  0  0  0
   26.1481  -20.4704   -8.2582 C   0  0  2  0  0  0  0  0  0  0  0  0
   27.3170  -20.3582   -9.2199 C   0  0  0  0  0  0  0  0  0  0  0  0
   25.0267  -21.1704   -8.9789 C   0  0  2  0  0  0  0  0  0  0  0  0
   24.7738  -20.4557  -10.2148 N   0  0  0  0  0  0  0  0  0  0  0  0
   23.8235  -21.3524   -8.1684 C   0  0  0  0  0  0  0  0  0  0  0  0
   23.8547  -22.1104   -7.1682 O   0  0  0  0  0  0  0  0  0  0  0  0
   22.6235  -20.7214   -8.4476 O   0  0  0  0  0  0  0  0  0  0  0  0
  2  1  1  0
  3  2  1  0
  3  4  1  0
  4  5  1  0
  5  7  1  0
  5  6  1  6
  7  8  2  0
  7  9  1  0
  9 10  1  0
 10 13  1  0
 10 11  1  6
 11 12  1  0
 13 14  2  0
 16 15  1  6
 16 18  1  0
 17 16  1  0
 18 20  1  0
 19 13  1  0
 18 19  1  6
 20 22  1  0
 21 20  2  0
M  END
$$$$
