AWS.pdb
     RDKit          3D

 26 27  0  0  1  0  0  0  0  0999 V2000
   27.6376  -19.6268  -15.6189 C   0  0  0  0  0  0  0  0  0  0  0  0
   28.2806  -20.4023  -14.5166 C   0  0  2  0  0  0  0  0  0  0  0  0
   29.0131  -21.5367  -15.0325 N   0  0  0  0  0  0  0  0  0  0  0  0
   27.1880  -20.9525  -13.6291 C   0  0  0  0  0  0  0  0  0  0  0  0
   26.6401  -22.0299  -13.9509 O   0  0  0  0  0  0  0  0  0  0  0  0
   26.7842  -20.2827  -12.4654 N   0  0  0  0  0  0  0  0  0  0  0  0
   25.7811  -20.8594  -11.5942 C   0  0  1  0  0  0  0  0  0  0  0  0
   26.0028  -20.2873  -10.2371 C   0  0  0  0  0  0  0  0  0  0  0  0
   27.2504  -20.7265   -9.5768 C   0  0  0  0  0  0  0  0  0  0  0  0
   28.2566  -21.5562  -10.0802 C   0  0  0  0  0  0  0  0  0  0  0  0
   29.2082  -21.7325   -9.1755 N   0  0  0  0  0  0  0  0  0  0  0  0
   28.8798  -21.0432   -8.0617 C   0  0  0  0  0  0  0  0  0  0  0  0
   29.5074  -20.8842   -6.8405 C   0  0  0  0  0  0  0  0  0  0  0  0
   28.9419  -20.1047   -5.8471 C   0  0  0  0  0  0  0  0  0  0  0  0
   27.7340  -19.4700   -6.0623 C   0  0  0  0  0  0  0  0  0  0  0  0
   27.1242  -19.6384   -7.2802 C   0  0  0  0  0  0  0  0  0  0  0  0
   27.6770  -20.4141   -8.2829 C   0  0  0  0  0  0  0  0  0  0  0  0
   24.4543  -20.6624  -12.1797 C   0  0  0  0  0  0  0  0  0  0  0  0
   24.0690  -19.4703  -12.4659 O   0  0  0  0  0  0  0  0  0  0  0  0
   21.7774  -23.6654  -13.3484 O   0  0  0  0  0  0  0  0  0  0  0  0
   21.8041  -22.4410  -14.0489 C   0  0  0  0  0  0  0  0  0  0  0  0
   22.2574  -21.3290  -13.1018 C   0  0  2  0  0  0  0  0  0  0  0  0
   23.5079  -21.6652  -12.4832 N   0  0  0  0  0  0  0  0  0  0  0  0
   21.1705  -21.0611  -12.1229 C   0  0  0  0  0  0  0  0  0  0  0  0
   21.4763  -21.1614  -10.9010 O   0  0  0  0  0  0  0  0  0  0  0  0
   19.8865  -20.7203  -12.4302 O   0  0  0  0  0  0  0  0  0  0  0  0
  2  1  1  6
  2  3  1  0
  4  2  1  0
  4  5  2  0
  6  4  1  0
  7  6  1  0
  7  8  1  1
  9  8  1  0
  9 17  1  0
 10 11  1  0
 10  9  2  0
 11 12  1  0
 12 13  1  0
 12 17  2  0
 13 14  2  0
 14 15  1  0
 16 15  2  0
 17 16  1  0
 18  7  1  0
 18 23  1  0
 19 18  2  0
 21 20  1  0
 22 21  1  6
 22 23  1  0
 22 24  1  0
 24 25  2  0
 24 26  1  0
M  END
$$$$
