AWS.pdb
     RDKit          3D

 26 27  0  0  1  0  0  0  0  0999 V2000
   28.1275  -21.0843  -15.6551 C   0  0  0  0  0  0  0  0  0  0  0  0
   27.9090  -19.9863  -14.6668 C   0  0  2  0  0  0  0  0  0  0  0  0
   29.1622  -19.3948  -14.2556 N   0  0  0  0  0  0  0  0  0  0  0  0
   27.2799  -20.5851  -13.4299 C   0  0  0  0  0  0  0  0  0  0  0  0
   26.6840  -21.6801  -13.5308 O   0  0  0  0  0  0  0  0  0  0  0  0
   27.3532  -19.9406  -12.1868 N   0  0  0  0  0  0  0  0  0  0  0  0
   26.7331  -20.5258  -11.0161 C   0  0  1  0  0  0  0  0  0  0  0  0
   27.3775  -19.9042   -9.8259 C   0  0  0  0  0  0  0  0  0  0  0  0
   26.8206  -20.3340   -8.5257 C   0  0  0  0  0  0  0  0  0  0  0  0
   25.6116  -20.9873   -8.2694 C   0  0  0  0  0  0  0  0  0  0  0  0
   25.4582  -21.1856   -6.9685 N   0  0  0  0  0  0  0  0  0  0  0  0
   26.5338  -20.6840   -6.3243 C   0  0  0  0  0  0  0  0  0  0  0  0
   26.8806  -20.6250   -4.9876 C   0  0  0  0  0  0  0  0  0  0  0  0
   28.0698  -20.0421   -4.5871 C   0  0  0  0  0  0  0  0  0  0  0  0
   28.9333  -19.5068   -5.5230 C   0  0  0  0  0  0  0  0  0  0  0  0
   28.5738  -19.5735   -6.8457 C   0  0  0  0  0  0  0  0  0  0  0  0
   27.3889  -20.1530   -7.2615 C   0  0  0  0  0  0  0  0  0  0  0  0
   25.2790  -20.3954  -11.1171 C   0  0  0  0  0  0  0  0  0  0  0  0
   24.7727  -19.2463  -11.3903 O   0  0  0  0  0  0  0  0  0  0  0  0
   21.1699  -22.3327  -12.5664 O   0  0  0  0  0  0  0  0  0  0  0  0
   22.5145  -22.5029  -12.1747 C   0  0  0  0  0  0  0  0  0  0  0  0
   22.9797  -21.2582  -11.4176 C   0  0  2  0  0  0  0  0  0  0  0  0
   24.3251  -21.4222  -10.9460 N   0  0  0  0  0  0  0  0  0  0  0  0
   22.0071  -20.9674  -10.3309 C   0  0  0  0  0  0  0  0  0  0  0  0
   22.3912  -21.2107   -9.1519 O   0  0  0  0  0  0  0  0  0  0  0  0
   20.7503  -20.4661  -10.4985 O   0  0  0  0  0  0  0  0  0  0  0  0
  2  1  1  6
  2  3  1  0
  4  2  1  0
  4  5  2  0
  6  4  1  0
  7  6  1  0
  7  8  1  1
  9  8  1  0
  9 17  1  0
 10 11  1  0
 10  9  2  0
 11 12  1  0
 12 13  1  0
 12 17  2  0
 13 14  2  0
 14 15  1  0
 16 15  2  0
 17 16  1  0
 18  7  1  0
 18 23  1  0
 19 18  2  0
 21 20  1  0
 22 21  1  1
 22 23  1  0
 22 24  1  0
 24 25  2  0
 24 26  1  0
M  END
$$$$
