AWS.pdb
     RDKit          3D

 26 27  0  0  1  0  0  0  0  0999 V2000
   21.4164  -19.9806  -11.8336 C   0  0  0  0  0  0  0  0  0  0  0  0
   22.2418  -20.9179  -12.6523 C   0  0  2  0  0  0  0  0  0  0  0  0
   22.1963  -22.2598  -12.1168 N   0  0  0  0  0  0  0  0  0  0  0  0
   23.6816  -20.4645  -12.5777 C   0  0  0  0  0  0  0  0  0  0  0  0
   23.9579  -19.2899  -12.9068 O   0  0  0  0  0  0  0  0  0  0  0  0
   24.6995  -21.3290  -12.1506 N   0  0  0  0  0  0  0  0  0  0  0  0
   26.0874  -20.9199  -12.2126 C   0  0  1  0  0  0  0  0  0  0  0  0
   26.7806  -21.5568  -11.0584 C   0  0  0  0  0  0  0  0  0  0  0  0
   26.5415  -20.9017   -9.7549 C   0  0  0  0  0  0  0  0  0  0  0  0
   25.3955  -20.2344   -9.3129 C   0  0  0  0  0  0  0  0  0  0  0  0
   25.5760  -19.7643   -8.0875 N   0  0  0  0  0  0  0  0  0  0  0  0
   26.8196  -20.0931   -7.6765 C   0  0  0  0  0  0  0  0  0  0  0  0
   27.5106  -19.8560   -6.5032 C   0  0  0  0  0  0  0  0  0  0  0  0
   28.8054  -20.3142   -6.3361 C   0  0  0  0  0  0  0  0  0  0  0  0
   29.4307  -21.0194   -7.3460 C   0  0  0  0  0  0  0  0  0  0  0  0
   28.7306  -21.2460   -8.5044 C   0  0  0  0  0  0  0  0  0  0  0  0
   27.4360  -20.7946   -8.6861 C   0  0  0  0  0  0  0  0  0  0  0  0
   26.6240  -21.2130  -13.5423 C   0  0  0  0  0  0  0  0  0  0  0  0
   26.4991  -22.4003  -14.0180 O   0  0  0  0  0  0  0  0  0  0  0  0
   28.6314  -18.5248  -15.9020 O   0  0  0  0  0  0  0  0  0  0  0  0
   27.8135  -19.4262  -16.6153 C   0  0  0  0  0  0  0  0  0  0  0  0
   27.5743  -20.6724  -15.7617 C   0  0  2  0  0  0  0  0  0  0  0  0
   27.2877  -20.3115  -14.4026 N   0  0  0  0  0  0  0  0  0  0  0  0
   28.7474  -21.5766  -15.8950 C   0  0  0  0  0  0  0  0  0  0  0  0
   29.3616  -21.8625  -14.8283 O   0  0  0  0  0  0  0  0  0  0  0  0
   29.2101  -22.1164  -17.0584 O   0  0  0  0  0  0  0  0  0  0  0  0
  2  1  1  1
  2  3  1  0
  4  2  1  0
  4  5  2  0
  6  4  1  0
  7  6  1  0
  7  8  1  1
  9  8  1  0
  9 17  1  0
 10 11  1  0
 10  9  2  0
 11 12  1  0
 12 13  1  0
 12 17  2  0
 13 14  2  0
 14 15  1  0
 16 15  2  0
 17 16  1  0
 18  7  1  0
 18 23  1  0
 19 18  2  0
 21 20  1  0
 22 21  1  6
 22 23  1  0
 22 24  1  0
 24 25  2  0
 24 26  1  0
M  END
$$$$
