AWS.pdb
     RDKit          3D

 26 27  0  0  1  0  0  0  0  0999 V2000
   16.5064  -11.1371  -18.8145 C   0  0  0  0  0  0  0  0  0  0  0  0
   17.8059  -10.9864  -18.0943 C   0  0  2  0  0  0  0  0  0  0  0  0
   18.3328  -12.2705  -17.6907 N   0  0  0  0  0  0  0  0  0  0  0  0
   17.5540  -10.1985  -16.8295 C   0  0  0  0  0  0  0  0  0  0  0  0
   16.3725   -9.9459  -16.5059 O   0  0  0  0  0  0  0  0  0  0  0  0
   18.6106   -9.7520  -16.0232 N   0  0  0  0  0  0  0  0  0  0  0  0
   18.3532   -8.9215  -14.8649 C   0  0  1  0  0  0  0  0  0  0  0  0
   19.3208   -9.3337  -13.8104 C   0  0  0  0  0  0  0  0  0  0  0  0
   19.3764   -8.4364  -12.6368 C   0  0  0  0  0  0  0  0  0  0  0  0
   18.6535   -8.5181  -11.4432 C   0  0  0  0  0  0  0  0  0  0  0  0
   18.9696   -7.5133  -10.6397 N   0  0  0  0  0  0  0  0  0  0  0  0
   19.8934   -6.7426  -11.2531 C   0  0  0  0  0  0  0  0  0  0  0  0
   20.5543   -5.5905  -10.8706 C   0  0  0  0  0  0  0  0  0  0  0  0
   21.4753   -4.9879  -11.7089 C   0  0  0  0  0  0  0  0  0  0  0  0
   21.7495   -5.5320  -12.9486 C   0  0  0  0  0  0  0  0  0  0  0  0
   21.0846   -6.6759  -13.3130 C   0  0  0  0  0  0  0  0  0  0  0  0
   20.1615   -7.2898  -12.4861 C   0  0  0  0  0  0  0  0  0  0  0  0
   18.3750   -7.5124  -15.2598 C   0  0  0  0  0  0  0  0  0  0  0  0
   19.1924   -7.1335  -16.1762 O   0  0  0  0  0  0  0  0  0  0  0  0
   15.3955   -4.9847  -15.5199 O   0  0  0  0  0  0  0  0  0  0  0  0
   16.6431   -4.6816  -16.1046 C   0  0  0  0  0  0  0  0  0  0  0  0
   17.7621   -5.1176  -15.1576 C   0  0  2  0  0  0  0  0  0  0  0  0
   17.5719   -6.4761  -14.7359 N   0  0  0  0  0  0  0  0  0  0  0  0
   17.8339   -4.1553  -14.0261 C   0  0  0  0  0  0  0  0  0  0  0  0
   18.1205   -2.9604  -14.3209 O   0  0  0  0  0  0  0  0  0  0  0  0
   17.6189   -4.4513  -12.7126 O   0  0  0  0  0  0  0  0  0  0  0  0
  2  1  1  1
  2  3  1  0
  4  2  1  0
  4  5  2  0
  6  4  1  0
  7  6  1  0
  7  8  1  1
  9  8  1  0
  9 17  1  0
 10 11  1  0
 10  9  2  0
 11 12  1  0
 12 13  1  0
 12 17  2  0
 13 14  2  0
 14 15  1  0
 16 15  2  0
 17 16  1  0
 18  7  1  0
 18 23  1  0
 19 18  2  0
 21 20  1  0
 22 21  1  6
 22 23  1  0
 22 24  1  0
 24 25  2  0
 24 26  1  0
M  END
$$$$
