AWS.pdb
     RDKit          3D

 26 27  0  0  1  0  0  0  0  0999 V2000
   29.1926  -21.0209  -14.5647 C   0  0  0  0  0  0  0  0  0  0  0  0
   27.8870  -20.3111  -14.7118 C   0  0  2  0  0  0  0  0  0  0  0  0
   27.9941  -18.9281  -14.3053 N   0  0  0  0  0  0  0  0  0  0  0  0
   26.8890  -20.9649  -13.7841 C   0  0  0  0  0  0  0  0  0  0  0  0
   26.6301  -22.1785  -13.9413 O   0  0  0  0  0  0  0  0  0  0  0  0
   26.2570  -20.2416  -12.7626 N   0  0  0  0  0  0  0  0  0  0  0  0
   25.3166  -20.8915  -11.8733 C   0  0  1  0  0  0  0  0  0  0  0  0
   25.5621  -20.3483  -10.5085 C   0  0  0  0  0  0  0  0  0  0  0  0
   26.8516  -20.7481   -9.9062 C   0  0  0  0  0  0  0  0  0  0  0  0
   27.8745  -21.5167  -10.4692 C   0  0  0  0  0  0  0  0  0  0  0  0
   28.8659  -21.6742   -9.6046 N   0  0  0  0  0  0  0  0  0  0  0  0
   28.5486  -21.0315   -8.4602 C   0  0  0  0  0  0  0  0  0  0  0  0
   29.2132  -20.8776   -7.2581 C   0  0  0  0  0  0  0  0  0  0  0  0
   28.6506  -20.1524   -6.2228 C   0  0  0  0  0  0  0  0  0  0  0  0
   27.4084  -19.5679   -6.3762 C   0  0  0  0  0  0  0  0  0  0  0  0
   26.7621  -19.7304   -7.5758 C   0  0  0  0  0  0  0  0  0  0  0  0
   27.3115  -20.4522   -8.6198 C   0  0  0  0  0  0  0  0  0  0  0  0
   23.9606  -20.7431  -12.4036 C   0  0  0  0  0  0  0  0  0  0  0  0
   23.5121  -19.5643  -12.6498 O   0  0  0  0  0  0  0  0  0  0  0  0
   21.2190  -23.8236  -13.3594 O   0  0  0  0  0  0  0  0  0  0  0  0
   21.2827  -22.6480  -14.1367 C   0  0  0  0  0  0  0  0  0  0  0  0
   21.7632  -21.4905  -13.2603 C   0  0  2  0  0  0  0  0  0  0  0  0
   23.0483  -21.7814  -12.6917 N   0  0  0  0  0  0  0  0  0  0  0  0
   20.7215  -21.1980  -12.2401 C   0  0  0  0  0  0  0  0  0  0  0  0
   21.0760  -21.2921  -11.0309 O   0  0  0  0  0  0  0  0  0  0  0  0
   19.4310  -20.8409  -12.4976 O   0  0  0  0  0  0  0  0  0  0  0  0
  2  1  1  1
  2  3  1  0
  4  2  1  0
  4  5  2  0
  6  4  1  0
  7  6  1  0
  7  8  1  1
  9  8  1  0
  9 17  1  0
 10 11  1  0
 10  9  2  0
 11 12  1  0
 12 13  1  0
 12 17  2  0
 13 14  2  0
 14 15  1  0
 16 15  2  0
 17 16  1  0
 18  7  1  0
 18 23  1  0
 19 18  2  0
 21 20  1  0
 22 21  1  1
 22 23  1  0
 22 24  1  0
 24 25  2  0
 24 26  1  0
M  END
$$$$
