AWS.pdb
     RDKit          3D

 26 27  0  0  1  0  0  0  0  0999 V2000
   21.7811  -21.8429  -14.0633 C   0  0  0  0  0  0  0  0  0  0  0  0
   22.0345  -21.1510  -12.7644 C   0  0  2  0  0  0  0  0  0  0  0  0
   21.2286  -19.9573  -12.6410 N   0  0  0  0  0  0  0  0  0  0  0  0
   23.4796  -20.7089  -12.7411 C   0  0  0  0  0  0  0  0  0  0  0  0
   23.7475  -19.5206  -13.0252 O   0  0  0  0  0  0  0  0  0  0  0  0
   24.5115  -21.5986  -12.4101 N   0  0  0  0  0  0  0  0  0  0  0  0
   25.8934  -21.1658  -12.4352 C   0  0  1  0  0  0  0  0  0  0  0  0
   26.5920  -21.8768  -11.3286 C   0  0  0  0  0  0  0  0  0  0  0  0
   26.4664  -21.2337  -10.0034 C   0  0  0  0  0  0  0  0  0  0  0  0
   25.3294  -20.6785   -9.4091 C   0  0  0  0  0  0  0  0  0  0  0  0
   25.6255  -20.1787   -8.2185 N   0  0  0  0  0  0  0  0  0  0  0  0
   26.9397  -20.3775   -7.9800 C   0  0  0  0  0  0  0  0  0  0  0  0
   27.7554  -20.0595   -6.9105 C   0  0  0  0  0  0  0  0  0  0  0  0
   29.1001  -20.3848   -6.9209 C   0  0  0  0  0  0  0  0  0  0  0  0
   29.6510  -21.0360   -8.0075 C   0  0  0  0  0  0  0  0  0  0  0  0
   28.8273  -21.3443   -9.0610 C   0  0  0  0  0  0  0  0  0  0  0  0
   27.4815  -21.0260   -9.0651 C   0  0  0  0  0  0  0  0  0  0  0  0
   26.4388  -21.3511  -13.7806 C   0  0  0  0  0  0  0  0  0  0  0  0
   26.2460  -22.4694  -14.3837 O   0  0  0  0  0  0  0  0  0  0  0  0
   28.7674  -18.6189  -15.9664 O   0  0  0  0  0  0  0  0  0  0  0  0
   27.8008  -19.3832  -16.6533 C   0  0  0  0  0  0  0  0  0  0  0  0
   27.5499  -20.6832  -15.8878 C   0  0  2  0  0  0  0  0  0  0  0  0
   27.1798  -20.4104  -14.5284 N   0  0  0  0  0  0  0  0  0  0  0  0
   28.7531  -21.5490  -16.0072 C   0  0  0  0  0  0  0  0  0  0  0  0
   29.2959  -21.9104  -14.9248 O   0  0  0  0  0  0  0  0  0  0  0  0
   29.3129  -21.9802  -17.1732 O   0  0  0  0  0  0  0  0  0  0  0  0
  2  1  1  6
  2  3  1  0
  4  2  1  0
  4  5  2  0
  6  4  1  0
  7  6  1  0
  7  8  1  1
  9  8  1  0
  9 17  1  0
 10 11  1  0
 10  9  2  0
 11 12  1  0
 12 13  1  0
 12 17  2  0
 13 14  2  0
 14 15  1  0
 16 15  2  0
 17 16  1  0
 18  7  1  0
 18 23  1  0
 19 18  2  0
 21 20  1  0
 22 21  1  6
 22 23  1  0
 22 24  1  0
 24 25  2  0
 24 26  1  0
M  END
$$$$
