AWS.pdb
     RDKit          3D

 26 27  0  0  1  0  0  0  0  0999 V2000
   27.3988  -21.3689  -17.0248 C   0  0  0  0  0  0  0  0  0  0  0  0
   28.2481  -21.5508  -15.8100 C   0  0  2  0  0  0  0  0  0  0  0  0
   29.0793  -22.7280  -15.9238 N   0  0  0  0  0  0  0  0  0  0  0  0
   27.3347  -21.7717  -14.6264 C   0  0  0  0  0  0  0  0  0  0  0  0
   26.8750  -22.9182  -14.4297 O   0  0  0  0  0  0  0  0  0  0  0  0
   26.9989  -20.7248  -13.7561 N   0  0  0  0  0  0  0  0  0  0  0  0
   26.1402  -20.9629  -12.6145 C   0  0  1  0  0  0  0  0  0  0  0  0
   26.5901  -20.0436  -11.5325 C   0  0  0  0  0  0  0  0  0  0  0  0
   27.6661  -20.5803  -10.6724 C   0  0  0  0  0  0  0  0  0  0  0  0
   28.8373  -21.2415  -11.0534 C   0  0  0  0  0  0  0  0  0  0  0  0
   29.5429  -21.5871   -9.9867 N   0  0  0  0  0  0  0  0  0  0  0  0
   28.8841  -21.1786   -8.8809 C   0  0  0  0  0  0  0  0  0  0  0  0
   29.1675  -21.2797   -7.5319 C   0  0  0  0  0  0  0  0  0  0  0  0
   28.3023  -20.7638   -6.5834 C   0  0  0  0  0  0  0  0  0  0  0  0
   27.1351  -20.1363   -6.9731 C   0  0  0  0  0  0  0  0  0  0  0  0
   26.8688  -20.0445   -8.3162 C   0  0  0  0  0  0  0  0  0  0  0  0
   27.7237  -20.5550   -9.2760 C   0  0  0  0  0  0  0  0  0  0  0  0
   24.7398  -20.8549  -13.0259 C   0  0  0  0  0  0  0  0  0  0  0  0
   24.3683  -19.8355  -13.7145 O   0  0  0  0  0  0  0  0  0  0  0  0
   20.3139  -22.5609  -13.8860 O   0  0  0  0  0  0  0  0  0  0  0  0
   21.6050  -22.8396  -13.3902 C   0  0  0  0  0  0  0  0  0  0  0  0
   22.3648  -21.5264  -13.1980 C   0  0  2  0  0  0  0  0  0  0  0  0
   23.7049  -21.7744  -12.7485 N   0  0  0  0  0  0  0  0  0  0  0  0
   21.5879  -20.6540  -12.2776 C   0  0  0  0  0  0  0  0  0  0  0  0
   21.9600  -20.6373  -11.0701 O   0  0  0  0  0  0  0  0  0  0  0  0
   20.5202  -19.8800  -12.6238 O   0  0  0  0  0  0  0  0  0  0  0  0
  2  1  1  6
  2  3  1  0
  4  2  1  0
  4  5  2  0
  6  4  1  0
  7  6  1  0
  7  8  1  1
  9  8  1  0
  9 17  1  0
 10 11  1  0
 10  9  2  0
 11 12  1  0
 12 13  1  0
 12 17  2  0
 13 14  2  0
 14 15  1  0
 16 15  2  0
 17 16  1  0
 18  7  1  0
 18 23  1  0
 19 18  2  0
 21 20  1  0
 22 21  1  1
 22 23  1  0
 22 24  1  0
 24 25  2  0
 24 26  1  0
M  END
$$$$
