AWS.pdb
     RDKit          3D

 26 27  0  0  1  0  0  0  0  0999 V2000
   27.8589  -25.9995  -16.6224 C   0  0  0  0  0  0  0  0  0  0  0  0
   28.7569  -26.2910  -17.7794 C   0  0  2  0  0  0  0  0  0  0  0  0
   28.2825  -25.6500  -18.9850 N   0  0  0  0  0  0  0  0  0  0  0  0
   28.7275  -27.7805  -18.0339 C   0  0  0  0  0  0  0  0  0  0  0  0
   27.8441  -28.2422  -18.7894 O   0  0  0  0  0  0  0  0  0  0  0  0
   29.6634  -28.6420  -17.4440 N   0  0  0  0  0  0  0  0  0  0  0  0
   29.5827  -30.0726  -17.6547 C   0  0  1  0  0  0  0  0  0  0  0  0
   30.9806  -30.5777  -17.7501 C   0  0  0  0  0  0  0  0  0  0  0  0
   31.4848  -30.7462  -19.1295 C   0  0  0  0  0  0  0  0  0  0  0  0
   30.9035  -30.3200  -20.3273 C   0  0  0  0  0  0  0  0  0  0  0  0
   31.6526  -30.6782  -21.3596 N   0  0  0  0  0  0  0  0  0  0  0  0
   32.7356  -31.3407  -20.8995 C   0  0  0  0  0  0  0  0  0  0  0  0
   33.8172  -31.9213  -21.5348 C   0  0  0  0  0  0  0  0  0  0  0  0
   34.8123  -32.5524  -20.8099 C   0  0  0  0  0  0  0  0  0  0  0  0
   34.7391  -32.6124  -19.4318 C   0  0  0  0  0  0  0  0  0  0  0  0
   33.6587  -32.0311  -18.8168 C   0  0  0  0  0  0  0  0  0  0  0  0
   32.6563  -31.3966  -19.5277 C   0  0  0  0  0  0  0  0  0  0  0  0
   28.7386  -30.6717  -16.6202 C   0  0  0  0  0  0  0  0  0  0  0  0
   29.0081  -30.4430  -15.3847 O   0  0  0  0  0  0  0  0  0  0  0  0
   24.7407  -31.0713  -16.5640 O   0  0  0  0  0  0  0  0  0  0  0  0
   25.3893  -32.2609  -16.1712 C   0  0  0  0  0  0  0  0  0  0  0  0
   26.8114  -31.9318  -15.7148 C   0  0  2  0  0  0  0  0  0  0  0  0
   27.6158  -31.5033  -16.8234 N   0  0  0  0  0  0  0  0  0  0  0  0
   27.3712  -33.1118  -15.0036 C   0  0  0  0  0  0  0  0  0  0  0  0
   28.0643  -33.9097  -15.6963 O   0  0  0  0  0  0  0  0  0  0  0  0
   27.2010  -33.4012  -13.6822 O   0  0  0  0  0  0  0  0  0  0  0  0
  2  1  1  1
  2  3  1  0
  4  2  1  0
  4  5  2  0
  6  4  1  0
  7  6  1  0
  7  8  1  1
  9  8  1  0
  9 17  1  0
 10 11  1  0
 10  9  2  0
 11 12  1  0
 12 13  1  0
 12 17  2  0
 13 14  2  0
 14 15  1  0
 16 15  2  0
 17 16  1  0
 18  7  1  0
 18 23  1  0
 19 18  2  0
 21 20  1  0
 22 21  1  6
 22 23  1  0
 22 24  1  0
 24 25  2  0
 24 26  1  0
M  END
$$$$
