AWS.pdb
     RDKit          3D

 26 27  0  0  1  0  0  0  0  0999 V2000
   27.7668  -20.6139  -16.9645 C   0  0  0  0  0  0  0  0  0  0  0  0
   28.3778  -21.5666  -15.9903 C   0  0  2  0  0  0  0  0  0  0  0  0
   28.4895  -22.8928  -16.5544 N   0  0  0  0  0  0  0  0  0  0  0  0
   27.4568  -21.6738  -14.7967 C   0  0  0  0  0  0  0  0  0  0  0  0
   26.4518  -22.4137  -14.8797 O   0  0  0  0  0  0  0  0  0  0  0  0
   27.7084  -20.9660  -13.6128 N   0  0  0  0  0  0  0  0  0  0  0  0
   26.8677  -21.1553  -12.4488 C   0  0  1  0  0  0  0  0  0  0  0  0
   27.5807  -20.5434  -11.2931 C   0  0  0  0  0  0  0  0  0  0  0  0
   26.7976  -20.4911  -10.0403 C   0  0  0  0  0  0  0  0  0  0  0  0
   25.4097  -20.5302   -9.8787 C   0  0  0  0  0  0  0  0  0  0  0  0
   25.0892  -20.4391   -8.5965 N   0  0  0  0  0  0  0  0  0  0  0  0
   26.2247  -20.3385   -7.8725 C   0  0  0  0  0  0  0  0  0  0  0  0
   26.4623  -20.2206   -6.5160 C   0  0  0  0  0  0  0  0  0  0  0  0
   27.7531  -20.1329   -6.0257 C   0  0  0  0  0  0  0  0  0  0  0  0
   28.8302  -20.1618   -6.8900 C   0  0  0  0  0  0  0  0  0  0  0  0
   28.5768  -20.2791   -8.2337 C   0  0  0  0  0  0  0  0  0  0  0  0
   27.2924  -20.3679   -8.7388 C   0  0  0  0  0  0  0  0  0  0  0  0
   25.5229  -20.6513  -12.7305 C   0  0  0  0  0  0  0  0  0  0  0  0
   25.3833  -19.4428  -13.1446 O   0  0  0  0  0  0  0  0  0  0  0  0
   23.2624  -21.5561  -15.1516 O   0  0  0  0  0  0  0  0  0  0  0  0
   22.3638  -21.4498  -14.0692 C   0  0  0  0  0  0  0  0  0  0  0  0
   23.0566  -20.7351  -12.9081 C   0  0  2  0  0  0  0  0  0  0  0  0
   24.3101  -21.3620  -12.5993 N   0  0  0  0  0  0  0  0  0  0  0  0
   22.1234  -20.6853  -11.7513 C   0  0  0  0  0  0  0  0  0  0  0  0
   21.0094  -20.1232  -11.9508 O   0  0  0  0  0  0  0  0  0  0  0  0
   22.3667  -21.1894  -10.5081 O   0  0  0  0  0  0  0  0  0  0  0  0
  2  1  1  6
  2  3  1  0
  4  2  1  0
  4  5  2  0
  6  4  1  0
  7  6  1  0
  7  8  1  1
  9  8  1  0
  9 17  1  0
 10 11  1  0
 10  9  2  0
 11 12  1  0
 12 13  1  0
 12 17  2  0
 13 14  2  0
 14 15  1  0
 16 15  2  0
 17 16  1  0
 18  7  1  0
 18 23  1  0
 19 18  2  0
 21 20  1  0
 22 21  1  6
 22 23  1  0
 22 24  1  0
 24 25  2  0
 24 26  1  0
M  END
$$$$
