AWS.pdb
     RDKit          3D

 26 27  0  0  1  0  0  0  0  0999 V2000
   23.2449  -24.4368  -16.6772 C   0  0  0  0  0  0  0  0  0  0  0  0
   24.7204  -24.2243  -16.5882 C   0  0  2  0  0  0  0  0  0  0  0  0
   25.1269  -23.0550  -17.3345 N   0  0  0  0  0  0  0  0  0  0  0  0
   25.4059  -25.4112  -17.2249 C   0  0  0  0  0  0  0  0  0  0  0  0
   25.4120  -25.5017  -18.4724 O   0  0  0  0  0  0  0  0  0  0  0  0
   26.0274  -26.3999  -16.4489 N   0  0  0  0  0  0  0  0  0  0  0  0
   26.6494  -27.5468  -17.0776 C   0  0  1  0  0  0  0  0  0  0  0  0
   27.9986  -27.6999  -16.4657 C   0  0  0  0  0  0  0  0  0  0  0  0
   28.8695  -28.6935  -17.1288 C   0  0  0  0  0  0  0  0  0  0  0  0
   29.4486  -28.6334  -18.3997 C   0  0  0  0  0  0  0  0  0  0  0  0
   30.1496  -29.7310  -18.6425 N   0  0  0  0  0  0  0  0  0  0  0  0
   30.0663  -30.5445  -17.5678 C   0  0  0  0  0  0  0  0  0  0  0  0
   30.5980  -31.7905  -17.2938 C   0  0  0  0  0  0  0  0  0  0  0  0
   30.3517  -32.4182  -16.0857 C   0  0  0  0  0  0  0  0  0  0  0  0
   29.5654  -31.8053  -15.1296 C   0  0  0  0  0  0  0  0  0  0  0  0
   29.0452  -30.5684  -15.4177 C   0  0  0  0  0  0  0  0  0  0  0  0
   29.2826  -29.9283  -16.6204 C   0  0  0  0  0  0  0  0  0  0  0  0
   25.7531  -28.7001  -16.9852 C   0  0  0  0  0  0  0  0  0  0  0  0
   25.0819  -28.8840  -15.9049 O   0  0  0  0  0  0  0  0  0  0  0  0
   22.6303  -29.9228  -18.7069 O   0  0  0  0  0  0  0  0  0  0  0  0
   23.6177  -30.9190  -18.8579 C   0  0  0  0  0  0  0  0  0  0  0  0
   24.6467  -30.7822  -17.7349 C   0  0  2  0  0  0  0  0  0  0  0  0
   25.5252  -29.6745  -17.9812 N   0  0  0  0  0  0  0  0  0  0  0  0
   25.3620  -32.0768  -17.5805 C   0  0  0  0  0  0  0  0  0  0  0  0
   24.6556  -33.0758  -17.2646 O   0  0  0  0  0  0  0  0  0  0  0  0
   26.7006  -32.2735  -17.7494 O   0  0  0  0  0  0  0  0  0  0  0  0
  2  1  1  6
  2  3  1  0
  4  2  1  0
  4  5  2  0
  6  4  1  0
  7  6  1  0
  7  8  1  1
  9  8  1  0
  9 17  1  0
 10 11  1  0
 10  9  2  0
 11 12  1  0
 12 13  1  0
 12 17  2  0
 13 14  2  0
 14 15  1  0
 16 15  2  0
 17 16  1  0
 18  7  1  0
 18 23  1  0
 19 18  2  0
 21 20  1  0
 22 21  1  6
 22 23  1  0
 22 24  1  0
 24 25  2  0
 24 26  1  0
M  END
$$$$
