AWS.pdb
     RDKit          3D

 26 27  0  0  1  0  0  0  0  0999 V2000
   28.9179  -23.0660  -16.0867 C   0  0  0  0  0  0  0  0  0  0  0  0
   27.7272  -22.2201  -16.3980 C   0  0  2  0  0  0  0  0  0  0  0  0
   28.1150  -20.8604  -16.6983 N   0  0  0  0  0  0  0  0  0  0  0  0
   26.8542  -22.1652  -15.1655 C   0  0  0  0  0  0  0  0  0  0  0  0
   26.3880  -23.2340  -14.7130 O   0  0  0  0  0  0  0  0  0  0  0  0
   26.5624  -20.9502  -14.5294 N   0  0  0  0  0  0  0  0  0  0  0  0
   25.7219  -20.9194  -13.3503 C   0  0  1  0  0  0  0  0  0  0  0  0
   26.2669  -19.8612  -12.4552 C   0  0  0  0  0  0  0  0  0  0  0  0
   27.3367  -20.3146  -11.5410 C   0  0  0  0  0  0  0  0  0  0  0  0
   28.6093  -20.7962  -11.8610 C   0  0  0  0  0  0  0  0  0  0  0  0
   29.2725  -21.1209  -10.7610 N   0  0  0  0  0  0  0  0  0  0  0  0
   28.4854  -20.8735   -9.6920 C   0  0  0  0  0  0  0  0  0  0  0  0
   28.6781  -21.0284   -8.3321 C   0  0  0  0  0  0  0  0  0  0  0  0
   27.6847  -20.6901   -7.4305 C   0  0  0  0  0  0  0  0  0  0  0  0
   26.4777  -20.1898   -7.8789 C   0  0  0  0  0  0  0  0  0  0  0  0
   26.3027  -20.0424   -9.2321 C   0  0  0  0  0  0  0  0  0  0  0  0
   27.2862  -20.3759  -10.1455 C   0  0  0  0  0  0  0  0  0  0  0  0
   24.3216  -20.7805  -13.7524 C   0  0  0  0  0  0  0  0  0  0  0  0
   24.0030  -19.8685  -14.5998 O   0  0  0  0  0  0  0  0  0  0  0  0
   20.9893  -23.1847  -12.6051 O   0  0  0  0  0  0  0  0  0  0  0  0
   21.1112  -22.6150  -13.8900 C   0  0  0  0  0  0  0  0  0  0  0  0
   21.9055  -21.3120  -13.7897 C   0  0  2  0  0  0  0  0  0  0  0  0
   23.2333  -21.5609  -13.3053 N   0  0  0  0  0  0  0  0  0  0  0  0
   21.1437  -20.3503  -12.9492 C   0  0  0  0  0  0  0  0  0  0  0  0
   21.6995  -19.9763  -11.8777 O   0  0  0  0  0  0  0  0  0  0  0  0
   19.9102  -19.8445  -13.2349 O   0  0  0  0  0  0  0  0  0  0  0  0
  2  1  1  1
  2  3  1  0
  4  2  1  0
  4  5  2  0
  6  4  1  0
  7  6  1  0
  7  8  1  1
  9  8  1  0
  9 17  1  0
 10 11  1  0
 10  9  2  0
 11 12  1  0
 12 13  1  0
 12 17  2  0
 13 14  2  0
 14 15  1  0
 16 15  2  0
 17 16  1  0
 18  7  1  0
 18 23  1  0
 19 18  2  0
 21 20  1  0
 22 21  1  1
 22 23  1  0
 22 24  1  0
 24 25  2  0
 24 26  1  0
M  END
$$$$
