AWS.pdb
     RDKit          3D

 26 27  0  0  1  0  0  0  0  0999 V2000
   21.7085  -10.6315  -18.5078 C   0  0  0  0  0  0  0  0  0  0  0  0
   21.5667   -9.2485  -19.0530 C   0  0  2  0  0  0  0  0  0  0  0  0
   22.7351   -8.8624  -19.8116 N   0  0  0  0  0  0  0  0  0  0  0  0
   21.4646   -8.2917  -17.8875 C   0  0  0  0  0  0  0  0  0  0  0  0
   20.5338   -8.4446  -17.0662 O   0  0  0  0  0  0  0  0  0  0  0  0
   22.3855   -7.2485  -17.7146 N   0  0  0  0  0  0  0  0  0  0  0  0
   22.2640   -6.3366  -16.5961 C   0  0  1  0  0  0  0  0  0  0  0  0
   23.5464   -6.4005  -15.8415 C   0  0  0  0  0  0  0  0  0  0  0  0
   23.8721   -7.7314  -15.2865 C   0  0  0  0  0  0  0  0  0  0  0  0
   23.1259   -8.5106  -14.3975 C   0  0  0  0  0  0  0  0  0  0  0  0
   23.7645   -9.6376  -14.1198 N   0  0  0  0  0  0  0  0  0  0  0  0
   24.9326   -9.6516  -14.7973 C   0  0  0  0  0  0  0  0  0  0  0  0
   25.9619  -10.5713  -14.8690 C   0  0  0  0  0  0  0  0  0  0  0  0
   27.0730  -10.3341  -15.6586 C   0  0  0  0  0  0  0  0  0  0  0  0
   27.1709   -9.1672  -16.3913 C   0  0  0  0  0  0  0  0  0  0  0  0
   26.1403   -8.2648  -16.3088 C   0  0  0  0  0  0  0  0  0  0  0  0
   25.0233   -8.4877  -15.5243 C   0  0  0  0  0  0  0  0  0  0  0  0
   21.8550   -5.0185  -17.0830 C   0  0  0  0  0  0  0  0  0  0  0  0
   22.6054   -4.4039  -17.9260 O   0  0  0  0  0  0  0  0  0  0  0  0
   18.0616   -3.7383  -17.4454 O   0  0  0  0  0  0  0  0  0  0  0  0
   19.1097   -3.2072  -18.2262 C   0  0  0  0  0  0  0  0  0  0  0  0
   20.3614   -3.0654  -17.3591 C   0  0  2  0  0  0  0  0  0  0  0  0
   20.6861   -4.3116  -16.7258 N   0  0  0  0  0  0  0  0  0  0  0  0
   20.1524   -1.9528  -16.3948 C   0  0  0  0  0  0  0  0  0  0  0  0
   20.1416   -2.2641  -15.1701 O   0  0  0  0  0  0  0  0  0  0  0  0
   19.9736   -0.6403  -16.7179 O   0  0  0  0  0  0  0  0  0  0  0  0
  2  1  1  1
  2  3  1  0
  4  2  1  0
  4  5  2  0
  6  4  1  0
  7  6  1  0
  7  8  1  6
  9  8  1  0
  9 17  1  0
 10 11  1  0
 10  9  2  0
 11 12  1  0
 12 13  1  0
 12 17  2  0
 13 14  2  0
 14 15  1  0
 16 15  2  0
 17 16  1  0
 18  7  1  0
 18 23  1  0
 19 18  2  0
 21 20  1  0
 22 21  1  1
 22 23  1  0
 22 24  1  0
 24 25  2  0
 24 26  1  0
M  END
$$$$
