AWS.pdb
     RDKit          3D

 26 27  0  0  1  0  0  0  0  0999 V2000
   45.2526   -9.9660  -13.3291 C   0  0  0  0  0  0  0  0  0  0  0  0
   45.0615  -10.8785  -12.1626 C   0  0  2  0  0  0  0  0  0  0  0  0
   45.1963  -12.2636  -12.5537 N   0  0  0  0  0  0  0  0  0  0  0  0
   43.6494  -10.7019  -11.6537 C   0  0  0  0  0  0  0  0  0  0  0  0
   42.7084  -11.1958  -12.3133 O   0  0  0  0  0  0  0  0  0  0  0  0
   43.3811  -10.0021  -10.4687 N   0  0  0  0  0  0  0  0  0  0  0  0
   42.0309   -9.9211   -9.9508 C   0  0  1  0  0  0  0  0  0  0  0  0
   42.0082  -10.6869   -8.6736 C   0  0  0  0  0  0  0  0  0  0  0  0
   40.7468  -10.5796   -7.9103 C   0  0  0  0  0  0  0  0  0  0  0  0
   40.5732  -10.4444   -6.5298 C   0  0  0  0  0  0  0  0  0  0  0  0
   39.2843  -10.4002   -6.2265 N   0  0  0  0  0  0  0  0  0  0  0  0
   38.5675  -10.5015   -7.3665 C   0  0  0  0  0  0  0  0  0  0  0  0
   37.2088  -10.5100   -7.6200 C   0  0  0  0  0  0  0  0  0  0  0  0
   36.7277  -10.6287   -8.9118 C   0  0  0  0  0  0  0  0  0  0  0  0
   37.6036  -10.7416   -9.9739 C   0  0  0  0  0  0  0  0  0  0  0  0
   38.9493  -10.7315   -9.7048 C   0  0  0  0  0  0  0  0  0  0  0  0
   39.4454  -10.6134   -8.4192 C   0  0  0  0  0  0  0  0  0  0  0  0
   41.6179   -8.5188   -9.8816 C   0  0  0  0  0  0  0  0  0  0  0  0
   42.4986   -7.6209   -9.6183 O   0  0  0  0  0  0  0  0  0  0  0  0
   37.7037   -7.1301  -10.1481 O   0  0  0  0  0  0  0  0  0  0  0  0
   38.7149   -6.2264  -10.5368 C   0  0  0  0  0  0  0  0  0  0  0  0
   40.0296   -6.6218   -9.8629 C   0  0  2  0  0  0  0  0  0  0  0  0
   40.3153   -8.0114  -10.0796 N   0  0  0  0  0  0  0  0  0  0  0  0
   39.9598   -6.2535   -8.4238 C   0  0  0  0  0  0  0  0  0  0  0  0
   39.8257   -5.0242   -8.1634 O   0  0  0  0  0  0  0  0  0  0  0  0
   40.0276   -7.1212   -7.3742 O   0  0  0  0  0  0  0  0  0  0  0  0
  2  1  1  6
  2  3  1  0
  4  2  1  0
  4  5  2  0
  6  4  1  0
  7  6  1  0
  7  8  1  1
  9  8  1  0
  9 17  1  0
 10 11  1  0
 10  9  2  0
 11 12  1  0
 12 13  1  0
 12 17  2  0
 13 14  2  0
 14 15  1  0
 16 15  2  0
 17 16  1  0
 18  7  1  0
 18 23  1  0
 19 18  2  0
 21 20  1  0
 22 21  1  1
 22 23  1  0
 22 24  1  0
 24 25  2  0
 24 26  1  0
M  END
$$$$
