AWS.pdb
     RDKit          3D

 26 27  0  0  1  0  0  0  0  0999 V2000
   27.5773  -21.5312  -18.2972 C   0  0  0  0  0  0  0  0  0  0  0  0
   28.4678  -21.8195  -17.1337 C   0  0  2  0  0  0  0  0  0  0  0  0
   29.1477  -23.0849  -17.2955 N   0  0  0  0  0  0  0  0  0  0  0  0
   27.6044  -21.9404  -15.8992 C   0  0  0  0  0  0  0  0  0  0  0  0
   27.1279  -23.0596  -15.6082 O   0  0  0  0  0  0  0  0  0  0  0  0
   27.3328  -20.8315  -15.0851 N   0  0  0  0  0  0  0  0  0  0  0  0
   26.6718  -21.0000  -13.8076 C   0  0  1  0  0  0  0  0  0  0  0  0
   27.3215  -20.0583  -12.8541 C   0  0  0  0  0  0  0  0  0  0  0  0
   26.8399  -20.1590  -11.4600 C   0  0  0  0  0  0  0  0  0  0  0  0
   25.5759  -19.8474  -10.9507 C   0  0  0  0  0  0  0  0  0  0  0  0
   25.5393  -20.0533   -9.6425 N   0  0  0  0  0  0  0  0  0  0  0  0
   26.7487  -20.4995   -9.2404 C   0  0  0  0  0  0  0  0  0  0  0  0
   27.2488  -20.8619   -8.0038 C   0  0  0  0  0  0  0  0  0  0  0  0
   28.5555  -21.2949   -7.8649 C   0  0  0  0  0  0  0  0  0  0  0  0
   29.3850  -21.3716   -8.9667 C   0  0  0  0  0  0  0  0  0  0  0  0
   28.8729  -21.0080  -10.1869 C   0  0  0  0  0  0  0  0  0  0  0  0
   27.5690  -20.5735  -10.3418 C   0  0  0  0  0  0  0  0  0  0  0  0
   25.2256  -20.8603  -13.9838 C   0  0  0  0  0  0  0  0  0  0  0  0
   24.7755  -19.9058  -14.7170 O   0  0  0  0  0  0  0  0  0  0  0  0
   22.1547  -22.4913  -11.6519 O   0  0  0  0  0  0  0  0  0  0  0  0
   21.9563  -22.5041  -13.0486 C   0  0  0  0  0  0  0  0  0  0  0  0
   22.8361  -21.4313  -13.6920 C   0  0  2  0  0  0  0  0  0  0  0  0
   24.2234  -21.6827  -13.4246 N   0  0  0  0  0  0  0  0  0  0  0  0
   22.3801  -20.0950  -13.2252 C   0  0  0  0  0  0  0  0  0  0  0  0
   23.2191  -19.4097  -12.5746 O   0  0  0  0  0  0  0  0  0  0  0  0
   21.1469  -19.5538  -13.4381 O   0  0  0  0  0  0  0  0  0  0  0  0
  2  1  1  6
  2  3  1  0
  4  2  1  0
  4  5  2  0
  6  4  1  0
  7  6  1  0
  7  8  1  1
  9  8  1  0
  9 17  1  0
 10 11  1  0
 10  9  2  0
 11 12  1  0
 12 13  1  0
 12 17  2  0
 13 14  2  0
 14 15  1  0
 16 15  2  0
 17 16  1  0
 18  7  1  0
 18 23  1  0
 19 18  2  0
 21 20  1  0
 22 21  1  1
 22 23  1  0
 22 24  1  0
 24 25  2  0
 24 26  1  0
M  END
$$$$
