AWS.pdb
     RDKit          3D

 26 27  0  0  1  0  0  0  0  0999 V2000
   19.4163  -30.5847   -9.8996 C   0  0  0  0  0  0  0  0  0  0  0  0
   20.1780  -29.6571  -10.7881 C   0  0  2  0  0  0  0  0  0  0  0  0
   21.5989  -29.9133  -10.7176 N   0  0  0  0  0  0  0  0  0  0  0  0
   19.9617  -28.2463  -10.2911 C   0  0  0  0  0  0  0  0  0  0  0  0
   20.7395  -27.7903   -9.4242 O   0  0  0  0  0  0  0  0  0  0  0  0
   18.9160  -27.4506  -10.7805 N   0  0  0  0  0  0  0  0  0  0  0  0
   18.7558  -26.0844  -10.3273 C   0  0  1  0  0  0  0  0  0  0  0  0
   18.1646  -25.3173  -11.4587 C   0  0  0  0  0  0  0  0  0  0  0  0
   19.1295  -24.9127  -12.5031 C   0  0  0  0  0  0  0  0  0  0  0  0
   20.2442  -25.6109  -12.9763 C   0  0  0  0  0  0  0  0  0  0  0  0
   20.8730  -24.9061  -13.9052 N   0  0  0  0  0  0  0  0  0  0  0  0
   20.2164  -23.7394  -14.0820 C   0  0  0  0  0  0  0  0  0  0  0  0
   20.4385  -22.6570  -14.9124 C   0  0  0  0  0  0  0  0  0  0  0  0
   19.5928  -21.5621  -14.8942 C   0  0  0  0  0  0  0  0  0  0  0  0
   18.5073  -21.5342  -14.0403 C   0  0  0  0  0  0  0  0  0  0  0  0
   18.3013  -22.6168  -13.2225 C   0  0  0  0  0  0  0  0  0  0  0  0
   19.1376  -23.7183  -13.2293 C   0  0  0  0  0  0  0  0  0  0  0  0
   18.0115  -26.0720   -9.0672 C   0  0  0  0  0  0  0  0  0  0  0  0
   16.7831  -26.4494   -9.0641 O   0  0  0  0  0  0  0  0  0  0  0  0
   19.4970  -24.7812   -5.4286 O   0  0  0  0  0  0  0  0  0  0  0  0
   18.4497  -25.7240   -5.3619 C   0  0  0  0  0  0  0  0  0  0  0  0
   17.6364  -25.6655   -6.6557 C   0  0  2  0  0  0  0  0  0  0  0  0
   18.5004  -25.6818   -7.8015 N   0  0  0  0  0  0  0  0  0  0  0  0
   16.7456  -24.4758   -6.6080 C   0  0  0  0  0  0  0  0  0  0  0  0
   15.9409  -24.4139   -5.6356 O   0  0  0  0  0  0  0  0  0  0  0  0
   16.7247  -23.4581   -7.5152 O   0  0  0  0  0  0  0  0  0  0  0  0
  2  1  1  1
  2  3  1  0
  4  2  1  0
  4  5  2  0
  6  4  1  0
  7  6  1  0
  7  8  1  6
  9  8  1  0
  9 17  1  0
 10 11  1  0
 10  9  2  0
 11 12  1  0
 12 13  1  0
 12 17  2  0
 13 14  2  0
 14 15  1  0
 16 15  2  0
 17 16  1  0
 18  7  1  0
 18 23  1  0
 19 18  2  0
 21 20  1  0
 22 21  1  1
 22 23  1  0
 22 24  1  0
 24 25  2  0
 24 26  1  0
M  END
$$$$
