PFL.pdb
     RDKit          3D

 27 28  0  0  1  0  0  0  0  0999 V2000
    9.3861  -17.9807   19.9803 N   0  0  0  0  0  0  0  0  0  0  0  0
    9.6467  -18.3297   18.5892 C   0  0  0  0  0  0  0  0  0  0  0  0
   10.3886  -17.1877   17.9761 C   0  0  0  0  0  0  0  0  0  0  0  0
   10.5738  -16.2045   19.1381 C   0  0  0  0  0  0  0  0  0  0  0  0
   10.5250  -17.1840   20.3179 C   0  0  1  0  0  0  0  0  0  0  0  0
   10.3400  -16.4465   21.6055 C   0  0  0  0  0  0  0  0  0  0  0  0
   11.2995  -15.8002   22.0943 O   0  0  0  0  0  0  0  0  0  0  0  0
    9.1110  -16.4634   22.2792 N   0  0  0  0  0  0  0  0  0  0  0  0
    8.8209  -15.7394   23.4797 C   0  0  1  0  0  0  0  0  0  0  0  0
    7.3878  -15.2527   23.4446 C   0  0  0  0  0  0  0  0  0  0  0  0
    7.0410  -14.4098   24.5971 C   0  0  0  0  0  0  0  0  0  0  0  0
    7.3262  -13.0644   24.6445 C   0  0  0  0  0  0  0  0  0  0  0  0
    6.9897  -12.2842   25.7442 C   0  0  0  0  0  0  0  0  0  0  0  0
    6.3538  -12.8363   26.8331 C   0  0  0  0  0  0  0  0  0  0  0  0
    6.0640  -14.1813   26.7958 C   0  0  0  0  0  0  0  0  0  0  0  0
    6.4054  -14.9509   25.6908 C   0  0  0  0  0  0  0  0  0  0  0  0
    9.1565  -16.4723   24.7034 C   0  0  0  0  0  0  0  0  0  0  0  0
    8.9729  -17.7163   24.7201 O   0  0  0  0  0  0  0  0  0  0  0  0
   10.8935  -13.6666   29.2522 C   0  0  0  0  0  0  0  0  0  0  0  0
   10.6350  -14.3860   27.9867 C   0  0  1  0  0  0  0  0  0  0  0  0
   11.1473  -13.5279   26.8185 C   0  0  0  0  0  0  0  0  0  0  0  0
   11.0356  -15.7903   27.8526 C   0  0  0  0  0  0  0  0  0  0  0  0
   10.3627  -16.7036   26.9171 C   0  0  2  0  0  0  0  0  0  0  0  0
    9.6777  -15.8810   25.8826 N   0  0  0  0  0  0  0  0  0  0  0  0
    9.3504  -17.6264   27.4140 C   0  0  0  0  0  0  0  0  0  0  0  0
    8.1231  -17.4112   27.1162 O   0  0  0  0  0  0  0  0  0  0  0  0
    9.5400  -18.7523   28.1915 O   0  0  0  0  0  0  0  0  0  0  0  0
  1  2  1  0
  2  3  1  0
  4  3  1  0
  5  1  1  0
  5  4  1  0
  5  6  1  1
  7  6  2  0
  8  6  1  0
  9  8  1  0
  9 10  1  1
 10 11  1  0
 11 12  2  0
 12 13  1  0
 14 13  2  0
 15 14  1  0
 16 15  2  0
 16 11  1  0
 17 24  1  0
 17  9  1  0
 18 17  2  0
 20 19  1  1
 20 21  1  0
 22 20  1  0
 23 22  1  1
 23 24  1  0
 25 23  1  0
 26 25  2  0
 27 25  1  0
M  END
$$$$
