PFL.pdb
     RDKit          3D

 27 28  0  0  1  0  0  0  0  0999 V2000
    9.1712  -17.9141   19.7863 N   0  0  0  0  0  0  0  0  0  0  0  0
    9.3175  -18.2312   18.3710 C   0  0  0  0  0  0  0  0  0  0  0  0
    9.9536  -17.0502   17.7145 C   0  0  0  0  0  0  0  0  0  0  0  0
   10.2043  -16.0774   18.8730 C   0  0  0  0  0  0  0  0  0  0  0  0
   10.3031  -17.0755   20.0339 C   0  0  1  0  0  0  0  0  0  0  0  0
   10.2068  -16.3656   21.3465 C   0  0  0  0  0  0  0  0  0  0  0  0
   11.1879  -15.7047   21.7684 O   0  0  0  0  0  0  0  0  0  0  0  0
    9.0376  -16.4244   22.1173 N   0  0  0  0  0  0  0  0  0  0  0  0
    8.8218  -15.7125   23.3405 C   0  0  1  0  0  0  0  0  0  0  0  0
    7.3939  -15.2122   23.3910 C   0  0  0  0  0  0  0  0  0  0  0  0
    7.1595  -14.2588   24.4841 C   0  0  0  0  0  0  0  0  0  0  0  0
    6.4636  -14.5931   25.6232 C   0  0  0  0  0  0  0  0  0  0  0  0
    6.2525  -13.6764   26.6463 C   0  0  0  0  0  0  0  0  0  0  0  0
    6.7370  -12.3913   26.5533 C   0  0  0  0  0  0  0  0  0  0  0  0
    7.4345  -12.0467   25.4179 C   0  0  0  0  0  0  0  0  0  0  0  0
    7.6391  -12.9719   24.4020 C   0  0  0  0  0  0  0  0  0  0  0  0
    9.2178  -16.4632   24.5349 C   0  0  0  0  0  0  0  0  0  0  0  0
    9.3577  -17.7090   24.4343 O   0  0  0  0  0  0  0  0  0  0  0  0
    9.6426  -13.7606   29.4085 C   0  0  0  0  0  0  0  0  0  0  0  0
    9.7619  -14.4248   28.0931 C   0  0  1  0  0  0  0  0  0  0  0  0
   10.3246  -13.4144   27.0802 C   0  0  0  0  0  0  0  0  0  0  0  0
   10.4254  -15.7287   27.9932 C   0  0  0  0  0  0  0  0  0  0  0  0
   10.1678  -16.6472   26.8742 C   0  0  2  0  0  0  0  0  0  0  0  0
    9.4579  -15.8877   25.8088 N   0  0  0  0  0  0  0  0  0  0  0  0
    9.3698  -17.8461   27.0954 C   0  0  0  0  0  0  0  0  0  0  0  0
    8.2232  -17.9342   26.5308 O   0  0  0  0  0  0  0  0  0  0  0  0
    9.6949  -18.9503   27.8590 O   0  0  0  0  0  0  0  0  0  0  0  0
  1  2  1  0
  2  3  1  0
  4  3  1  0
  5  1  1  0
  5  4  1  0
  5  6  1  1
  7  6  2  0
  8  6  1  0
  9  8  1  0
  9 10  1  1
 10 11  1  0
 11 12  2  0
 12 13  1  0
 14 13  2  0
 15 14  1  0
 16 15  2  0
 16 11  1  0
 17 24  1  0
 17  9  1  0
 18 17  2  0
 20 19  1  1
 20 21  1  0
 22 20  1  0
 23 22  1  1
 23 24  1  0
 25 23  1  0
 26 25  2  0
 27 25  1  0
M  END
$$$$
