PFL.pdb
     RDKit          3D

 27 28  0  0  1  0  0  0  0  0999 V2000
    8.6942  -18.5008   20.7225 N   0  0  0  0  0  0  0  0  0  0  0  0
    8.6797  -19.2021   19.4447 C   0  0  0  0  0  0  0  0  0  0  0  0
    9.1996  -18.2561   18.4127 C   0  0  0  0  0  0  0  0  0  0  0  0
    9.5593  -16.9997   19.2149 C   0  0  0  0  0  0  0  0  0  0  0  0
    9.8236  -17.6338   20.5866 C   0  0  1  0  0  0  0  0  0  0  0  0
    9.8646  -16.5844   21.6512 C   0  0  0  0  0  0  0  0  0  0  0  0
   10.8872  -15.8661   21.7759 O   0  0  0  0  0  0  0  0  0  0  0  0
    8.7789  -16.3872   22.5153 N   0  0  0  0  0  0  0  0  0  0  0  0
    8.6514  -15.3036   23.4423 C   0  0  1  0  0  0  0  0  0  0  0  0
    7.1893  -15.0836   23.7672 C   0  0  0  0  0  0  0  0  0  0  0  0
    6.9499  -13.8435   24.5182 C   0  0  0  0  0  0  0  0  0  0  0  0
    6.2965  -13.8243   25.7291 C   0  0  0  0  0  0  0  0  0  0  0  0
    6.0799  -12.6404   26.4241 C   0  0  0  0  0  0  0  0  0  0  0  0
    6.5158  -11.4361   25.9195 C   0  0  0  0  0  0  0  0  0  0  0  0
    7.1705  -11.4444   24.7088 C   0  0  0  0  0  0  0  0  0  0  0  0
    7.3811  -12.6343   24.0235 C   0  0  0  0  0  0  0  0  0  0  0  0
    9.4966  -15.4447   24.6309 C   0  0  0  0  0  0  0  0  0  0  0  0
   10.3890  -14.5816   24.8311 O   0  0  0  0  0  0  0  0  0  0  0  0
    9.6755  -13.6241   29.0998 C   0  0  0  0  0  0  0  0  0  0  0  0
   10.0957  -14.3724   27.8959 C   0  0  1  0  0  0  0  0  0  0  0  0
   11.5459  -13.9892   27.5588 C   0  0  0  0  0  0  0  0  0  0  0  0
    9.8815  -15.8215   27.8276 C   0  0  0  0  0  0  0  0  0  0  0  0
   10.3649  -16.6252   26.6952 C   0  0  2  0  0  0  0  0  0  0  0  0
    9.3849  -16.4902   25.5828 N   0  0  0  0  0  0  0  0  0  0  0  0
   10.5678  -18.0583   26.8636 C   0  0  0  0  0  0  0  0  0  0  0  0
   11.4831  -18.4596   27.6650 O   0  0  0  0  0  0  0  0  0  0  0  0
    9.8766  -19.0882   26.2555 O   0  0  0  0  0  0  0  0  0  0  0  0
  1  2  1  0
  2  3  1  0
  4  3  1  0
  5  1  1  0
  5  4  1  0
  5  6  1  1
  7  6  2  0
  8  6  1  0
  9  8  1  0
  9 10  1  1
 10 11  1  0
 11 12  2  0
 12 13  1  0
 14 13  2  0
 15 14  1  0
 16 15  2  0
 16 11  1  0
 17 24  1  0
 17  9  1  0
 18 17  2  0
 20 19  1  1
 20 21  1  0
 22 20  1  0
 23 22  1  1
 23 24  1  0
 25 23  1  0
 26 25  2  0
 27 25  1  0
M  END
$$$$
