PFL.pdb
     RDKit          3D

 27 28  0  0  1  0  0  0  0  0999 V2000
    8.8021  -17.9788   19.6792 N   0  0  0  0  0  0  0  0  0  0  0  0
    8.8363  -18.3349   18.2661 C   0  0  0  0  0  0  0  0  0  0  0  0
    9.4089  -17.1698   17.5280 C   0  0  0  0  0  0  0  0  0  0  0  0
    9.7451  -16.1635   18.6352 C   0  0  0  0  0  0  0  0  0  0  0  0
    9.9442  -17.1280   19.8115 C   0  0  1  0  0  0  0  0  0  0  0  0
    9.9488  -16.3819   21.1074 C   0  0  0  0  0  0  0  0  0  0  0  0
   10.9449  -15.6828   21.4178 O   0  0  0  0  0  0  0  0  0  0  0  0
    8.8580  -16.4487   21.9851 N   0  0  0  0  0  0  0  0  0  0  0  0
    8.7074  -15.6622   23.1718 C   0  0  1  0  0  0  0  0  0  0  0  0
    7.2700  -15.2041   23.2976 C   0  0  0  0  0  0  0  0  0  0  0  0
    7.0596  -14.2804   24.4207 C   0  0  0  0  0  0  0  0  0  0  0  0
    6.6415  -14.7045   25.6613 C   0  0  0  0  0  0  0  0  0  0  0  0
    6.4482  -13.8146   26.7112 C   0  0  0  0  0  0  0  0  0  0  0  0
    6.6707  -12.4665   26.5435 C   0  0  0  0  0  0  0  0  0  0  0  0
    7.0892  -12.0319   25.3064 C   0  0  0  0  0  0  0  0  0  0  0  0
    7.2789  -12.9312   24.2647 C   0  0  0  0  0  0  0  0  0  0  0  0
    9.2170  -16.3172   24.3794 C   0  0  0  0  0  0  0  0  0  0  0  0
    9.0717  -17.5618   24.4864 O   0  0  0  0  0  0  0  0  0  0  0  0
    9.7813  -14.3731   29.1554 C   0  0  0  0  0  0  0  0  0  0  0  0
   10.5261  -14.2717   27.8823 C   0  0  1  0  0  0  0  0  0  0  0  0
   11.3966  -13.0052   27.9203 C   0  0  0  0  0  0  0  0  0  0  0  0
   11.2678  -15.4320   27.3783 C   0  0  0  0  0  0  0  0  0  0  0  0
   10.6575  -16.4042   26.4593 C   0  0  2  0  0  0  0  0  0  0  0  0
    9.8681  -15.6494   25.4478 N   0  0  0  0  0  0  0  0  0  0  0  0
    9.7517  -17.4190   26.9819 C   0  0  0  0  0  0  0  0  0  0  0  0
    8.5370  -17.0925   27.2247 O   0  0  0  0  0  0  0  0  0  0  0  0
   10.0331  -18.7427   27.2592 O   0  0  0  0  0  0  0  0  0  0  0  0
  1  2  1  0
  2  3  1  0
  4  3  1  0
  5  1  1  0
  5  4  1  0
  5  6  1  1
  7  6  2  0
  8  6  1  0
  9  8  1  0
  9 10  1  1
 10 11  1  0
 11 12  2  0
 12 13  1  0
 14 13  2  0
 15 14  1  0
 16 15  2  0
 16 11  1  0
 17 24  1  0
 17  9  1  0
 18 17  2  0
 20 19  1  1
 20 21  1  0
 22 20  1  0
 23 22  1  1
 23 24  1  0
 25 23  1  0
 26 25  2  0
 27 25  1  0
M  END
$$$$
