PFL.pdb
     RDKit          3D

 27 28  0  0  1  0  0  0  0  0999 V2000
    8.9138  -18.0942   19.9071 N   0  0  0  0  0  0  0  0  0  0  0  0
    8.8334  -18.4665   18.5000 C   0  0  0  0  0  0  0  0  0  0  0  0
    9.1973  -17.2594   17.6996 C   0  0  0  0  0  0  0  0  0  0  0  0
    9.5424  -16.2067   18.7597 C   0  0  0  0  0  0  0  0  0  0  0  0
    9.9673  -17.1268   19.9113 C   0  0  1  0  0  0  0  0  0  0  0  0
   10.0324  -16.3644   21.1961 C   0  0  0  0  0  0  0  0  0  0  0  0
   11.0191  -15.6232   21.4289 O   0  0  0  0  0  0  0  0  0  0  0  0
    9.0088  -16.4623   22.1485 N   0  0  0  0  0  0  0  0  0  0  0  0
    8.8973  -15.6510   23.3228 C   0  0  1  0  0  0  0  0  0  0  0  0
    7.4358  -15.4156   23.6397 C   0  0  0  0  0  0  0  0  0  0  0  0
    7.2244  -14.2985   24.5705 C   0  0  0  0  0  0  0  0  0  0  0  0
    7.6895  -13.0275   24.3213 C   0  0  0  0  0  0  0  0  0  0  0  0
    7.4791  -11.9840   25.2148 C   0  0  0  0  0  0  0  0  0  0  0  0
    6.7919  -12.1888   26.3898 C   0  0  0  0  0  0  0  0  0  0  0  0
    6.3224  -13.4565   26.6486 C   0  0  0  0  0  0  0  0  0  0  0  0
    6.5391  -14.4916   25.7477 C   0  0  0  0  0  0  0  0  0  0  0  0
    9.6652  -16.1588   24.4628 C   0  0  0  0  0  0  0  0  0  0  0  0
   10.5949  -16.9749   24.2366 O   0  0  0  0  0  0  0  0  0  0  0  0
    9.8783  -13.1206   29.0509 C   0  0  0  0  0  0  0  0  0  0  0  0
   10.2175  -13.9916   27.9054 C   0  0  1  0  0  0  0  0  0  0  0  0
   11.5440  -13.5097   27.2958 C   0  0  0  0  0  0  0  0  0  0  0  0
   10.1843  -15.4491   28.0640 C   0  0  0  0  0  0  0  0  0  0  0  0
   10.2758  -16.3577   26.9115 C   0  0  2  0  0  0  0  0  0  0  0  0
    9.4387  -15.7973   25.8154 N   0  0  0  0  0  0  0  0  0  0  0  0
    9.8542  -17.7453   27.0530 C   0  0  0  0  0  0  0  0  0  0  0  0
   10.5699  -18.5359   27.7629 O   0  0  0  0  0  0  0  0  0  0  0  0
    8.7390  -18.3509   26.5073 O   0  0  0  0  0  0  0  0  0  0  0  0
  1  2  1  0
  2  3  1  0
  4  3  1  0
  5  1  1  0
  5  4  1  0
  5  6  1  1
  7  6  2  0
  8  6  1  0
  9  8  1  0
  9 10  1  1
 10 11  1  0
 11 12  2  0
 12 13  1  0
 14 13  2  0
 15 14  1  0
 16 15  2  0
 16 11  1  0
 17 24  1  0
 17  9  1  0
 18 17  2  0
 20 19  1  1
 20 21  1  0
 22 20  1  0
 23 22  1  1
 23 24  1  0
 25 23  1  0
 26 25  2  0
 27 25  1  0
M  END
$$$$
