PFL.pdb
     RDKit          3D

 27 28  0  0  1  0  0  0  0  0999 V2000
    8.4202  -17.3838   19.8133 N   0  0  0  0  0  0  0  0  0  0  0  0
    8.2820  -17.4969   18.3665 C   0  0  0  0  0  0  0  0  0  0  0  0
    8.5552  -16.1478   17.7873 C   0  0  0  0  0  0  0  0  0  0  0  0
    8.9123  -15.2903   19.0073 C   0  0  0  0  0  0  0  0  0  0  0  0
    9.4329  -16.3830   19.9499 C   0  0  1  0  0  0  0  0  0  0  0  0
    9.5338  -15.8653   21.3491 C   0  0  0  0  0  0  0  0  0  0  0  0
   10.5315  -15.1817   21.6878 O   0  0  0  0  0  0  0  0  0  0  0  0
    8.5319  -16.1298   22.2929 N   0  0  0  0  0  0  0  0  0  0  0  0
    8.4060  -15.4813   23.5630 C   0  0  1  0  0  0  0  0  0  0  0  0
    6.9636  -15.0798   23.7866 C   0  0  0  0  0  0  0  0  0  0  0  0
    6.7975  -14.1395   24.9034 C   0  0  0  0  0  0  0  0  0  0  0  0
    6.1427  -14.4769   26.0657 C   0  0  0  0  0  0  0  0  0  0  0  0
    5.9961  -13.5727   27.1110 C   0  0  0  0  0  0  0  0  0  0  0  0
    6.5058  -12.2974   27.0175 C   0  0  0  0  0  0  0  0  0  0  0  0
    7.1626  -11.9498   25.8590 C   0  0  0  0  0  0  0  0  0  0  0  0
    7.3028  -12.8625   24.8210 C   0  0  0  0  0  0  0  0  0  0  0  0
    8.9749  -16.2492   24.6737 C   0  0  0  0  0  0  0  0  0  0  0  0
    9.0481  -17.4991   24.5558 O   0  0  0  0  0  0  0  0  0  0  0  0
   11.1102  -13.6558   26.6196 C   0  0  0  0  0  0  0  0  0  0  0  0
   11.2735  -14.4514   27.8549 C   0  0  1  0  0  0  0  0  0  0  0  0
   11.1876  -13.5064   29.0645 C   0  0  0  0  0  0  0  0  0  0  0  0
   10.4746  -15.6656   28.0499 C   0  0  0  0  0  0  0  0  0  0  0  0
   10.0955  -16.5343   26.9258 C   0  0  2  0  0  0  0  0  0  0  0  0
    9.4544  -15.6860   25.8838 N   0  0  0  0  0  0  0  0  0  0  0  0
    9.1733  -17.6402   27.1491 C   0  0  0  0  0  0  0  0  0  0  0  0
    9.6139  -18.7043   27.7102 O   0  0  0  0  0  0  0  0  0  0  0  0
    7.8307  -17.7004   26.8297 O   0  0  0  0  0  0  0  0  0  0  0  0
  1  2  1  0
  2  3  1  0
  4  3  1  0
  5  1  1  0
  5  4  1  0
  5  6  1  1
  7  6  2  0
  8  6  1  0
  9  8  1  0
  9 10  1  1
 10 11  1  0
 11 12  2  0
 12 13  1  0
 14 13  2  0
 15 14  1  0
 16 15  2  0
 16 11  1  0
 17 24  1  0
 17  9  1  0
 18 17  2  0
 20 19  1  6
 20 21  1  0
 22 20  1  0
 23 22  1  1
 23 24  1  0
 25 23  1  0
 26 25  2  0
 27 25  1  0
M  END
$$$$
