PFL.pdb
     RDKit          3D

 27 28  0  0  1  0  0  0  0  0999 V2000
    8.1517  -15.6408   19.2505 N   0  0  0  0  0  0  0  0  0  0  0  0
    8.0600  -15.4291   17.8112 C   0  0  0  0  0  0  0  0  0  0  0  0
    8.5147  -14.0332   17.5375 C   0  0  0  0  0  0  0  0  0  0  0  0
    8.9210  -13.5026   18.9176 C   0  0  0  0  0  0  0  0  0  0  0  0
    9.2696  -14.8252   19.6124 C   0  0  1  0  0  0  0  0  0  0  0  0
    9.3742  -14.6300   21.0913 C   0  0  0  0  0  0  0  0  0  0  0  0
   10.3676  -14.0284   21.5694 O   0  0  0  0  0  0  0  0  0  0  0  0
    8.3806  -15.1077   21.9567 N   0  0  0  0  0  0  0  0  0  0  0  0
    8.1931  -14.6801   23.3100 C   0  0  1  0  0  0  0  0  0  0  0  0
    6.7887  -14.1417   23.4818 C   0  0  0  0  0  0  0  0  0  0  0  0
    6.5863  -13.4718   24.7739 C   0  0  0  0  0  0  0  0  0  0  0  0
    6.0170  -14.1037   25.8556 C   0  0  0  0  0  0  0  0  0  0  0  0
    5.8342  -13.4523   27.0697 C   0  0  0  0  0  0  0  0  0  0  0  0
    6.2202  -12.1410   27.2320 C   0  0  0  0  0  0  0  0  0  0  0  0
    6.7907  -11.4998   26.1560 C   0  0  0  0  0  0  0  0  0  0  0  0
    6.9682  -12.1615   24.9475 C   0  0  0  0  0  0  0  0  0  0  0  0
    8.5517  -15.6968   24.3024 C   0  0  0  0  0  0  0  0  0  0  0  0
    8.6991  -16.8829   23.9111 O   0  0  0  0  0  0  0  0  0  0  0  0
   10.1415  -13.7850   29.2725 C   0  0  0  0  0  0  0  0  0  0  0  0
   10.2638  -14.5522   28.0147 C   0  0  1  0  0  0  0  0  0  0  0  0
   11.7495  -14.6295   27.6271 C   0  0  0  0  0  0  0  0  0  0  0  0
    9.5954  -15.8511   27.8862 C   0  0  0  0  0  0  0  0  0  0  0  0
    9.3509  -16.4721   26.5759 C   0  0  2  0  0  0  0  0  0  0  0  0
    8.7474  -15.4442   25.6842 N   0  0  0  0  0  0  0  0  0  0  0  0
    8.4749  -17.6327   26.4809 C   0  0  0  0  0  0  0  0  0  0  0  0
    8.8228  -18.7154   27.0709 O   0  0  0  0  0  0  0  0  0  0  0  0
    7.2671  -17.7294   25.8177 O   0  0  0  0  0  0  0  0  0  0  0  0
  1  2  1  0
  2  3  1  0
  4  3  1  0
  5  1  1  0
  5  4  1  0
  5  6  1  1
  7  6  2  0
  8  6  1  0
  9  8  1  0
  9 10  1  6
 10 11  1  0
 11 12  2  0
 12 13  1  0
 14 13  2  0
 15 14  1  0
 16 15  2  0
 16 11  1  0
 17 24  1  0
 17  9  1  0
 18 17  2  0
 20 19  1  1
 20 21  1  0
 22 20  1  0
 23 22  1  1
 23 24  1  0
 25 23  1  0
 26 25  2  0
 27 25  1  0
M  END
$$$$
