PFL.pdb
     RDKit          3D

 27 28  0  0  1  0  0  0  0  0999 V2000
    8.4495  -16.6539   19.6002 N   0  0  0  0  0  0  0  0  0  0  0  0
    8.2769  -16.6289   18.1530 C   0  0  0  0  0  0  0  0  0  0  0  0
    8.4821  -15.2191   17.7054 C   0  0  0  0  0  0  0  0  0  0  0  0
    8.8384  -14.4725   18.9964 C   0  0  0  0  0  0  0  0  0  0  0  0
    9.4260  -15.6308   19.8129 C   0  0  1  0  0  0  0  0  0  0  0  0
    9.5444  -15.2503   21.2542 C   0  0  0  0  0  0  0  0  0  0  0  0
   10.4335  -14.4382   21.6110 O   0  0  0  0  0  0  0  0  0  0  0  0
    8.6783  -15.7853   22.2176 N   0  0  0  0  0  0  0  0  0  0  0  0
    8.5206  -15.2861   23.5501 C   0  0  1  0  0  0  0  0  0  0  0  0
    7.0513  -15.0609   23.8368 C   0  0  0  0  0  0  0  0  0  0  0  0
    6.8210  -14.1119   24.9347 C   0  0  0  0  0  0  0  0  0  0  0  0
    6.1955  -14.4713   26.1065 C   0  0  0  0  0  0  0  0  0  0  0  0
    5.9870  -13.5584   27.1335 C   0  0  0  0  0  0  0  0  0  0  0  0
    6.4031  -12.2519   27.0115 C   0  0  0  0  0  0  0  0  0  0  0  0
    7.0298  -11.8822   25.8432 C   0  0  0  0  0  0  0  0  0  0  0  0
    7.2326  -12.8038   24.8238 C   0  0  0  0  0  0  0  0  0  0  0  0
    9.1934  -16.1001   24.5659 C   0  0  0  0  0  0  0  0  0  0  0  0
    9.6191  -17.2352   24.2313 O   0  0  0  0  0  0  0  0  0  0  0  0
   10.2107  -13.5725   29.3508 C   0  0  0  0  0  0  0  0  0  0  0  0
   10.3470  -14.2879   28.0641 C   0  0  1  0  0  0  0  0  0  0  0  0
   11.4519  -13.6095   27.2379 C   0  0  0  0  0  0  0  0  0  0  0  0
   10.4728  -15.7489   28.0531 C   0  0  0  0  0  0  0  0  0  0  0  0
   10.2039  -16.5422   26.8446 C   0  0  2  0  0  0  0  0  0  0  0  0
    9.4038  -15.7028   25.9111 N   0  0  0  0  0  0  0  0  0  0  0  0
    9.4784  -17.8009   26.9557 C   0  0  0  0  0  0  0  0  0  0  0  0
   10.0617  -18.8002   27.5055 O   0  0  0  0  0  0  0  0  0  0  0  0
    8.1914  -18.0759   26.5360 O   0  0  0  0  0  0  0  0  0  0  0  0
  1  2  1  0
  2  3  1  0
  4  3  1  0
  5  1  1  0
  5  4  1  0
  5  6  1  1
  7  6  2  0
  8  6  1  0
  9  8  1  0
  9 10  1  1
 10 11  1  0
 11 12  2  0
 12 13  1  0
 14 13  2  0
 15 14  1  0
 16 15  2  0
 16 11  1  0
 17 24  1  0
 17  9  1  0
 18 17  2  0
 20 19  1  1
 20 21  1  0
 22 20  1  0
 23 22  1  1
 23 24  1  0
 25 23  1  0
 26 25  2  0
 27 25  1  0
M  END
$$$$
