PFL.pdb
     RDKit          3D

 27 28  0  0  1  0  0  0  0  0999 V2000
    8.8737  -17.8895   19.5995 N   0  0  0  0  0  0  0  0  0  0  0  0
    8.9278  -18.2035   18.1770 C   0  0  0  0  0  0  0  0  0  0  0  0
    9.3964  -16.9753   17.4684 C   0  0  0  0  0  0  0  0  0  0  0  0
    9.6551  -15.9746   18.6010 C   0  0  0  0  0  0  0  0  0  0  0  0
    9.9418  -16.9502   19.7497 C   0  0  1  0  0  0  0  0  0  0  0  0
    9.8931  -16.2413   21.0654 C   0  0  0  0  0  0  0  0  0  0  0  0
   10.8918  -15.5873   21.4557 O   0  0  0  0  0  0  0  0  0  0  0  0
    8.7494  -16.2935   21.8739 N   0  0  0  0  0  0  0  0  0  0  0  0
    8.5648  -15.5556   23.0868 C   0  0  1  0  0  0  0  0  0  0  0  0
    7.1463  -15.0305   23.1500 C   0  0  0  0  0  0  0  0  0  0  0  0
    6.9130  -14.1486   24.3019 C   0  0  0  0  0  0  0  0  0  0  0  0
    6.3385  -14.5921   25.4710 C   0  0  0  0  0  0  0  0  0  0  0  0
    6.1263  -13.7418   26.5496 C   0  0  0  0  0  0  0  0  0  0  0  0
    6.4869  -12.4149   26.4838 C   0  0  0  0  0  0  0  0  0  0  0  0
    7.0624  -11.9612   25.3187 C   0  0  0  0  0  0  0  0  0  0  0  0
    7.2694  -12.8209   24.2473 C   0  0  0  0  0  0  0  0  0  0  0  0
    8.9670  -16.2908   24.2887 C   0  0  0  0  0  0  0  0  0  0  0  0
    8.8304  -17.5409   24.2940 O   0  0  0  0  0  0  0  0  0  0  0  0
    9.5297  -14.4060   29.1106 C   0  0  0  0  0  0  0  0  0  0  0  0
   10.2928  -14.3514   27.8456 C   0  0  1  0  0  0  0  0  0  0  0  0
   11.2395  -13.1410   27.8930 C   0  0  0  0  0  0  0  0  0  0  0  0
   10.9667  -15.5555   27.3492 C   0  0  0  0  0  0  0  0  0  0  0  0
   10.3051  -16.4917   26.4284 C   0  0  2  0  0  0  0  0  0  0  0  0
    9.5040  -15.6954   25.4587 N   0  0  0  0  0  0  0  0  0  0  0  0
    9.3911  -17.4964   26.9562 C   0  0  0  0  0  0  0  0  0  0  0  0
    8.1378  -17.3708   26.7220 O   0  0  0  0  0  0  0  0  0  0  0  0
    9.7034  -18.6160   27.7025 O   0  0  0  0  0  0  0  0  0  0  0  0
  1  2  1  0
  2  3  1  0
  4  3  1  0
  5  1  1  0
  5  4  1  0
  5  6  1  1
  7  6  2  0
  8  6  1  0
  9  8  1  0
  9 10  1  1
 10 11  1  0
 11 12  2  0
 12 13  1  0
 14 13  2  0
 15 14  1  0
 16 15  2  0
 16 11  1  0
 17 24  1  0
 17  9  1  0
 18 17  2  0
 20 19  1  1
 20 21  1  0
 22 20  1  0
 23 22  1  1
 23 24  1  0
 25 23  1  0
 26 25  2  0
 27 25  1  0
M  END
$$$$
