PFL.pdb
     RDKit          3D

 27 28  0  0  1  0  0  0  0  0999 V2000
    8.9227  -18.0214   19.7862 N   0  0  0  0  0  0  0  0  0  0  0  0
    8.8584  -18.3445   18.3662 C   0  0  0  0  0  0  0  0  0  0  0  0
    9.1097  -17.0808   17.6112 C   0  0  0  0  0  0  0  0  0  0  0  0
    9.3761  -16.0442   18.7093 C   0  0  0  0  0  0  0  0  0  0  0  0
    9.8904  -16.9687   19.8203 C   0  0  1  0  0  0  0  0  0  0  0  0
    9.9049  -16.2538   21.1336 C   0  0  0  0  0  0  0  0  0  0  0  0
   10.9656  -15.7142   21.5351 O   0  0  0  0  0  0  0  0  0  0  0  0
    8.7526  -16.1745   21.9275 N   0  0  0  0  0  0  0  0  0  0  0  0
    8.6373  -15.4177   23.1372 C   0  0  1  0  0  0  0  0  0  0  0  0
    7.2268  -14.8840   23.2691 C   0  0  0  0  0  0  0  0  0  0  0  0
    7.0370  -14.0579   24.4693 C   0  0  0  0  0  0  0  0  0  0  0  0
    7.3825  -12.7267   24.5155 C   0  0  0  0  0  0  0  0  0  0  0  0
    7.1949  -11.9622   25.6609 C   0  0  0  0  0  0  0  0  0  0  0  0
    6.6521  -12.5163   26.7981 C   0  0  0  0  0  0  0  0  0  0  0  0
    6.3030  -13.8472   26.7623 C   0  0  0  0  0  0  0  0  0  0  0  0
    6.4954  -14.6011   25.6114 C   0  0  0  0  0  0  0  0  0  0  0  0
    9.1006  -16.1371   24.3267 C   0  0  0  0  0  0  0  0  0  0  0  0
    8.9610  -17.3866   24.3572 O   0  0  0  0  0  0  0  0  0  0  0  0
   10.8337  -14.5735   29.5229 C   0  0  0  0  0  0  0  0  0  0  0  0
   10.7703  -14.3722   28.0596 C   0  0  1  0  0  0  0  0  0  0  0  0
   11.2372  -12.9432   27.7380 C   0  0  0  0  0  0  0  0  0  0  0  0
   11.3747  -15.3616   27.1616 C   0  0  0  0  0  0  0  0  0  0  0  0
   10.5584  -16.3098   26.3892 C   0  0  2  0  0  0  0  0  0  0  0  0
    9.7004  -15.5271   25.4579 N   0  0  0  0  0  0  0  0  0  0  0  0
    9.6529  -17.2146   27.0854 C   0  0  0  0  0  0  0  0  0  0  0  0
   10.1516  -18.1464   27.8096 O   0  0  0  0  0  0  0  0  0  0  0  0
    8.2717  -17.2031   27.0755 O   0  0  0  0  0  0  0  0  0  0  0  0
  1  2  1  0
  2  3  1  0
  4  3  1  0
  5  1  1  0
  5  4  1  0
  5  6  1  1
  7  6  2  0
  8  6  1  0
  9  8  1  0
  9 10  1  1
 10 11  1  0
 11 12  2  0
 12 13  1  0
 14 13  2  0
 15 14  1  0
 16 15  2  0
 16 11  1  0
 17 24  1  0
 17  9  1  0
 18 17  2  0
 20 19  1  1
 20 21  1  0
 22 20  1  0
 23 22  1  1
 23 24  1  0
 25 23  1  0
 26 25  2  0
 27 25  1  0
M  END
$$$$
