PFL.pdb
     RDKit          3D

 27 28  0  0  1  0  0  0  0  0999 V2000
    9.0964  -18.0599   19.5469 N   0  0  0  0  0  0  0  0  0  0  0  0
    9.1222  -18.5153   18.1624 C   0  0  0  0  0  0  0  0  0  0  0  0
    9.5142  -17.3477   17.3178 C   0  0  0  0  0  0  0  0  0  0  0  0
    9.7614  -16.2264   18.3342 C   0  0  0  0  0  0  0  0  0  0  0  0
   10.1254  -17.0667   19.5650 C   0  0  1  0  0  0  0  0  0  0  0  0
   10.0842  -16.2295   20.8034 C   0  0  0  0  0  0  0  0  0  0  0  0
   10.9702  -15.3603   20.9950 O   0  0  0  0  0  0  0  0  0  0  0  0
    9.0712  -16.3977   21.7574 N   0  0  0  0  0  0  0  0  0  0  0  0
    8.8416  -15.5327   22.8748 C   0  0  1  0  0  0  0  0  0  0  0  0
    7.3588  -15.2575   23.0068 C   0  0  0  0  0  0  0  0  0  0  0  0
    7.0439  -14.3292   24.1014 C   0  0  0  0  0  0  0  0  0  0  0  0
    6.4085  -14.7304   25.2542 C   0  0  0  0  0  0  0  0  0  0  0  0
    6.1194  -13.8365   26.2784 C   0  0  0  0  0  0  0  0  0  0  0  0
    6.4623  -12.5075   26.1729 C   0  0  0  0  0  0  0  0  0  0  0  0
    7.0984  -12.0960   25.0237 C   0  0  0  0  0  0  0  0  0  0  0  0
    7.3820  -12.9990   24.0068 C   0  0  0  0  0  0  0  0  0  0  0  0
    9.4590  -16.0024   24.1180 C   0  0  0  0  0  0  0  0  0  0  0  0
    9.6470  -17.2379   24.2581 O   0  0  0  0  0  0  0  0  0  0  0  0
   12.1449  -15.4896   29.1521 C   0  0  0  0  0  0  0  0  0  0  0  0
   10.8085  -14.9325   28.8530 C   0  0  1  0  0  0  0  0  0  0  0  0
   10.5709  -13.7103   29.7548 C   0  0  0  0  0  0  0  0  0  0  0  0
   10.4233  -14.6710   27.4624 C   0  0  0  0  0  0  0  0  0  0  0  0
   10.4175  -15.7332   26.4455 C   0  0  2  0  0  0  0  0  0  0  0  0
    9.8651  -15.1627   25.1864 N   0  0  0  0  0  0  0  0  0  0  0  0
    9.6604  -16.9550   26.6845 C   0  0  0  0  0  0  0  0  0  0  0  0
   10.2985  -18.0256   26.9809 O   0  0  0  0  0  0  0  0  0  0  0  0
    8.2903  -17.1246   26.6378 O   0  0  0  0  0  0  0  0  0  0  0  0
  1  2  1  0
  2  3  1  0
  4  3  1  0
  5  1  1  0
  5  4  1  0
  5  6  1  1
  7  6  2  0
  8  6  1  0
  9  8  1  0
  9 10  1  1
 10 11  1  0
 11 12  2  0
 12 13  1  0
 14 13  2  0
 15 14  1  0
 16 15  2  0
 16 11  1  0
 17 24  1  0
 17  9  1  0
 18 17  2  0
 20 19  1  6
 20 21  1  0
 22 20  1  0
 23 22  1  1
 23 24  1  0
 25 23  1  0
 26 25  2  0
 27 25  1  0
M  END
$$$$
