PFL.pdb
     RDKit          3D

 27 28  0  0  1  0  0  0  0  0999 V2000
    9.1484  -17.9384   19.7862 N   0  0  0  0  0  0  0  0  0  0  0  0
    9.1685  -18.2057   18.3533 C   0  0  0  0  0  0  0  0  0  0  0  0
    9.4969  -16.9210   17.6663 C   0  0  0  0  0  0  0  0  0  0  0  0
    9.7156  -15.9340   18.8192 C   0  0  0  0  0  0  0  0  0  0  0  0
   10.1358  -16.9127   19.9233 C   0  0  1  0  0  0  0  0  0  0  0  0
   10.0819  -16.2488   21.2622 C   0  0  0  0  0  0  0  0  0  0  0  0
   11.0193  -15.4927   21.6184 O   0  0  0  0  0  0  0  0  0  0  0  0
    9.0007  -16.4556   22.1297 N   0  0  0  0  0  0  0  0  0  0  0  0
    8.7737  -15.7374   23.3473 C   0  0  1  0  0  0  0  0  0  0  0  0
    7.2960  -15.4436   23.4948 C   0  0  0  0  0  0  0  0  0  0  0  0
    7.0098  -14.4625   24.5505 C   0  0  0  0  0  0  0  0  0  0  0  0
    7.3839  -13.1416   24.4564 C   0  0  0  0  0  0  0  0  0  0  0  0
    7.1038  -12.2289   25.4663 C   0  0  0  0  0  0  0  0  0  0  0  0
    6.4365  -12.6194   26.6053 C   0  0  0  0  0  0  0  0  0  0  0  0
    6.0579  -13.9386   26.7093 C   0  0  0  0  0  0  0  0  0  0  0  0
    6.3436  -14.8416   25.6930 C   0  0  0  0  0  0  0  0  0  0  0  0
    9.3596  -16.3803   24.5265 C   0  0  0  0  0  0  0  0  0  0  0  0
    9.7894  -17.5564   24.4100 O   0  0  0  0  0  0  0  0  0  0  0  0
    9.9886  -13.1823   29.0033 C   0  0  0  0  0  0  0  0  0  0  0  0
   10.2632  -14.0763   27.8583 C   0  0  1  0  0  0  0  0  0  0  0  0
   11.5391  -13.5925   27.1503 C   0  0  0  0  0  0  0  0  0  0  0  0
   10.2615  -15.5298   28.0527 C   0  0  0  0  0  0  0  0  0  0  0  0
   10.1783  -16.4644   26.9205 C   0  0  2  0  0  0  0  0  0  0  0  0
    9.4806  -15.7725   25.8022 N   0  0  0  0  0  0  0  0  0  0  0  0
    9.4851  -17.7354   27.0850 C   0  0  0  0  0  0  0  0  0  0  0  0
   10.0222  -18.6383   27.8182 O   0  0  0  0  0  0  0  0  0  0  0  0
    8.2744  -18.1160   26.5396 O   0  0  0  0  0  0  0  0  0  0  0  0
  1  2  1  0
  2  3  1  0
  4  3  1  0
  5  1  1  0
  5  4  1  0
  5  6  1  1
  7  6  2  0
  8  6  1  0
  9  8  1  0
  9 10  1  1
 10 11  1  0
 11 12  2  0
 12 13  1  0
 14 13  2  0
 15 14  1  0
 16 15  2  0
 16 11  1  0
 17 24  1  0
 17  9  1  0
 18 17  2  0
 20 19  1  1
 20 21  1  0
 22 20  1  0
 23 22  1  1
 23 24  1  0
 25 23  1  0
 26 25  2  0
 27 25  1  0
M  END
$$$$
