PFL.pdb
     RDKit          3D

 27 28  0  0  1  0  0  0  0  0999 V2000
    9.4343  -18.1770   19.9162 N   0  0  0  0  0  0  0  0  0  0  0  0
    9.5899  -18.4916   18.5013 C   0  0  0  0  0  0  0  0  0  0  0  0
   10.1414  -17.2750   17.8336 C   0  0  0  0  0  0  0  0  0  0  0  0
   10.3367  -16.2814   18.9851 C   0  0  0  0  0  0  0  0  0  0  0  0
   10.5104  -17.2643   20.1501 C   0  0  1  0  0  0  0  0  0  0  0  0
   10.3781  -16.5550   21.4599 C   0  0  0  0  0  0  0  0  0  0  0  0
   11.3747  -15.9716   21.9535 O   0  0  0  0  0  0  0  0  0  0  0  0
    9.1579  -16.5292   22.1491 N   0  0  0  0  0  0  0  0  0  0  0  0
    8.9007  -15.7752   23.3386 C   0  0  1  0  0  0  0  0  0  0  0  0
    7.4735  -15.2706   23.3205 C   0  0  0  0  0  0  0  0  0  0  0  0
    7.1450  -14.4400   24.4872 C   0  0  0  0  0  0  0  0  0  0  0  0
    6.4587  -14.9282   25.5754 C   0  0  0  0  0  0  0  0  0  0  0  0
    6.1575  -14.1260   26.6696 C   0  0  0  0  0  0  0  0  0  0  0  0
    6.5393  -12.8038   26.7016 C   0  0  0  0  0  0  0  0  0  0  0  0
    7.2263  -12.3056   25.6180 C   0  0  0  0  0  0  0  0  0  0  0  0
    7.5215  -13.1174   24.5300 C   0  0  0  0  0  0  0  0  0  0  0  0
    9.2509  -16.4854   24.5716 C   0  0  0  0  0  0  0  0  0  0  0  0
    9.1508  -17.7390   24.5840 O   0  0  0  0  0  0  0  0  0  0  0  0
   10.1842  -13.8519   29.4711 C   0  0  0  0  0  0  0  0  0  0  0  0
   10.1230  -14.4569   28.1235 C   0  0  1  0  0  0  0  0  0  0  0  0
   10.3924  -13.3616   27.0789 C   0  0  0  0  0  0  0  0  0  0  0  0
   10.8776  -15.6820   27.8405 C   0  0  0  0  0  0  0  0  0  0  0  0
   10.4638  -16.6234   26.7894 C   0  0  2  0  0  0  0  0  0  0  0  0
    9.6986  -15.8620   25.7642 N   0  0  0  0  0  0  0  0  0  0  0  0
    9.6252  -17.7642   27.1335 C   0  0  0  0  0  0  0  0  0  0  0  0
   10.0839  -18.6412   27.9469 O   0  0  0  0  0  0  0  0  0  0  0  0
    8.3471  -18.0402   26.6879 O   0  0  0  0  0  0  0  0  0  0  0  0
  1  2  1  0
  2  3  1  0
  4  3  1  0
  5  1  1  0
  5  4  1  0
  5  6  1  1
  7  6  2  0
  8  6  1  0
  9  8  1  0
  9 10  1  1
 10 11  1  0
 11 12  2  0
 12 13  1  0
 14 13  2  0
 15 14  1  0
 16 15  2  0
 16 11  1  0
 17 24  1  0
 17  9  1  0
 18 17  2  0
 20 19  1  1
 20 21  1  0
 22 20  1  0
 23 22  1  1
 23 24  1  0
 25 23  1  0
 26 25  2  0
 27 25  1  0
M  END
$$$$
