PFL.pdb
     RDKit          3D

 27 28  0  0  1  0  0  0  0  0999 V2000
    9.4414  -18.2247   19.9692 N   0  0  0  0  0  0  0  0  0  0  0  0
    9.6237  -18.6076   18.5746 C   0  0  0  0  0  0  0  0  0  0  0  0
   10.1165  -17.4021   17.8437 C   0  0  0  0  0  0  0  0  0  0  0  0
   10.2513  -16.3382   18.9397 C   0  0  0  0  0  0  0  0  0  0  0  0
   10.4669  -17.2457   20.1578 C   0  0  1  0  0  0  0  0  0  0  0  0
   10.2880  -16.4737   21.4260 C   0  0  0  0  0  0  0  0  0  0  0  0
   11.1590  -15.6376   21.7720 O   0  0  0  0  0  0  0  0  0  0  0  0
    9.1623  -16.6668   22.2384 N   0  0  0  0  0  0  0  0  0  0  0  0
    8.8551  -15.9077   23.4126 C   0  0  1  0  0  0  0  0  0  0  0  0
    7.3788  -15.5727   23.4280 C   0  0  0  0  0  0  0  0  0  0  0  0
    7.0382  -14.5311   24.4068 C   0  0  0  0  0  0  0  0  0  0  0  0
    6.3330  -14.7974   25.5581 C   0  0  0  0  0  0  0  0  0  0  0  0
    6.0207  -13.7977   26.4716 C   0  0  0  0  0  0  0  0  0  0  0  0
    6.4099  -12.4955   26.2532 C   0  0  0  0  0  0  0  0  0  0  0  0
    7.1158  -12.2185   25.1046 C   0  0  0  0  0  0  0  0  0  0  0  0
    7.4220  -13.2264   24.1988 C   0  0  0  0  0  0  0  0  0  0  0  0
    9.3234  -16.5300   24.6538 C   0  0  0  0  0  0  0  0  0  0  0  0
    9.4545  -17.7805   24.6787 O   0  0  0  0  0  0  0  0  0  0  0  0
   10.2165  -13.3262   26.8402 C   0  0  0  0  0  0  0  0  0  0  0  0
   10.9177  -14.1930   27.8112 C   0  0  1  0  0  0  0  0  0  0  0  0
   11.1677  -13.3898   29.0979 C   0  0  0  0  0  0  0  0  0  0  0  0
   10.4006  -15.5357   28.0946 C   0  0  0  0  0  0  0  0  0  0  0  0
   10.1957  -16.5293   27.0302 C   0  0  2  0  0  0  0  0  0  0  0  0
    9.6435  -15.8239   25.8414 N   0  0  0  0  0  0  0  0  0  0  0  0
    9.3049  -17.6591   27.2612 C   0  0  0  0  0  0  0  0  0  0  0  0
    8.1063  -17.5984   26.8130 O   0  0  0  0  0  0  0  0  0  0  0  0
    9.5879  -18.8390   27.9213 O   0  0  0  0  0  0  0  0  0  0  0  0
  1  2  1  0
  2  3  1  0
  4  3  1  0
  5  1  1  0
  5  4  1  0
  5  6  1  1
  7  6  2  0
  8  6  1  0
  9  8  1  0
  9 10  1  1
 10 11  1  0
 11 12  2  0
 12 13  1  0
 14 13  2  0
 15 14  1  0
 16 15  2  0
 16 11  1  0
 17 24  1  0
 17  9  1  0
 18 17  2  0
 20 19  1  6
 20 21  1  0
 22 20  1  0
 23 22  1  1
 23 24  1  0
 25 23  1  0
 26 25  2  0
 27 25  1  0
M  END
$$$$
