IRQ.pdb
     RDKit          3D

 29 28  0  0  1  0  0  0  0  0999 V2000
   28.9102  -18.6518  -17.6821 C   0  0  0  0  0  0  0  0  0  0  0  0
   28.5103  -17.3432  -17.0652 C   0  0  0  0  0  0  0  0  0  0  0  0
   27.6246  -17.6596  -15.8328 C   0  0  2  0  0  0  0  0  0  0  0  0
   28.4962  -18.5142  -14.9314 C   0  0  0  0  0  0  0  0  0  0  0  0
   26.4072  -18.3626  -16.3035 C   0  0  2  0  0  0  0  0  0  0  0  0
   25.6660  -17.4811  -17.2488 N   0  0  0  0  0  0  0  0  0  0  0  0
   25.4145  -18.7952  -15.3144 C   0  0  0  0  0  0  0  0  0  0  0  0
   24.7961  -17.8863  -14.6232 O   0  0  0  0  0  0  0  0  0  0  0  0
   18.3789  -20.2381  -13.1190 N   0  0  0  0  0  0  0  0  0  0  0  0
   18.9493  -20.5075  -14.4018 C   0  0  0  0  0  0  0  0  0  0  0  0
   18.4709  -19.8733  -15.4067 N   0  0  0  0  0  0  0  0  0  0  0  0
   20.0076  -21.4414  -14.5592 N   0  0  0  0  0  0  0  0  0  0  0  0
   20.6386  -22.0318  -13.3972 C   0  0  0  0  0  0  0  0  0  0  0  0
   21.9054  -21.3233  -13.0312 C   0  0  0  0  0  0  0  0  0  0  0  0
   22.8021  -21.0097  -14.1857 C   0  0  0  0  0  0  0  0  0  0  0  0
   24.0821  -20.3542  -13.9155 C   0  0  2  0  0  0  0  0  0  0  0  0
   25.0041  -20.1117  -14.9861 N   0  0  0  0  0  0  0  0  0  0  0  0
   24.7922  -20.9478  -12.7184 C   0  0  0  0  0  0  0  0  0  0  0  0
   25.3961  -22.0400  -12.9204 O   0  0  0  0  0  0  0  0  0  0  0  0
   18.7264  -19.9927  -16.3983 N   0  0  0  0  0  0  0  0  0  0  0  0
   27.2060  -17.9928   -7.8691 C   0  0  0  0  0  0  0  0  0  0  0  0
   27.3890  -19.3752   -7.5000 O   0  0  0  0  0  0  0  0  0  0  0  0
   28.0406  -19.5543   -6.4466 C   0  0  0  0  0  0  0  0  0  0  0  0
   26.8306  -20.4532   -8.3335 C   0  0  0  0  0  0  0  0  0  0  0  0
   26.1782  -19.9350   -9.5767 C   0  0  1  0  0  0  0  0  0  0  0  0
   25.3457  -20.9466  -10.3010 N   0  0  0  0  0  0  0  0  0  0  0  0
   24.7675  -20.3090  -11.4783 C   0  0  0  0  0  0  0  0  0  0  0  0
   24.1980  -21.3923   -9.4464 O   0  0  0  0  0  0  0  0  0  0  0  0
   24.3472  -22.3417   -8.4626 O   0  0  0  0  0  0  0  0  0  0  0  0
  2  3  1  0
  2  1  1  0
  3  4  1  1
  5  6  1  6
  5  3  1  0
  7  5  1  0
  8  7  2  0
  9 10  1  0
 10 12  1  0
 11 10  2  0
 13 12  1  0
 13 14  1  0
 15 14  1  0
 16 15  1  6
 16 17  1  0
 17  7  1  0
 18 16  1  0
 18 26  1  0
 19 18  2  0
 20 21  1  0
 21 23  1  0
 22 21  2  0
 23 24  1  0
 25 26  1  0
 25 24  1  6
 25 27  1  0
 27 28  1  0
 29 27  2  0
M  END
$$$$
