IRQ.pdb
     RDKit          3D

 29 28  0  0  1  0  0  0  0  0999 V2000
   29.3948  -20.2637  -13.0066 C   0  0  0  0  0  0  0  0  0  0  0  0
   28.2045  -21.1237  -12.6956 C   0  0  0  0  0  0  0  0  0  0  0  0
   27.0185  -20.6051  -13.5487 C   0  0  2  0  0  0  0  0  0  0  0  0
   26.8120  -19.1694  -13.1032 C   0  0  0  0  0  0  0  0  0  0  0  0
   25.8442  -21.4714  -13.2874 C   0  0  2  0  0  0  0  0  0  0  0  0
   26.1760  -22.8745  -13.6630 N   0  0  0  0  0  0  0  0  0  0  0  0
   24.5809  -21.1735  -13.9704 C   0  0  0  0  0  0  0  0  0  0  0  0
   24.6096  -20.9467  -15.2487 O   0  0  0  0  0  0  0  0  0  0  0  0
   17.2971  -21.6101  -10.4037 N   0  0  0  0  0  0  0  0  0  0  0  0
   16.9594  -22.0507  -11.7211 C   0  0  0  0  0  0  0  0  0  0  0  0
   15.7216  -22.0352  -12.0506 N   0  0  0  0  0  0  0  0  0  0  0  0
   17.9565  -22.4881  -12.6329 N   0  0  0  0  0  0  0  0  0  0  0  0
   19.3592  -22.3614  -12.2963 C   0  0  0  0  0  0  0  0  0  0  0  0
   19.9893  -21.1827  -12.9704 C   0  0  0  0  0  0  0  0  0  0  0  0
   20.8976  -21.5249  -14.1075 C   0  0  0  0  0  0  0  0  0  0  0  0
   22.1466  -20.7761  -14.2510 C   0  0  2  0  0  0  0  0  0  0  0  0
   23.2743  -21.0971  -13.4261 N   0  0  0  0  0  0  0  0  0  0  0  0
   21.9203  -19.2806  -14.2943 C   0  0  0  0  0  0  0  0  0  0  0  0
   21.9801  -18.6809  -13.1830 O   0  0  0  0  0  0  0  0  0  0  0  0
   15.3078  -22.3664  -12.9348 N   0  0  0  0  0  0  0  0  0  0  0  0
   24.5320  -14.4808  -15.1477 C   0  0  0  0  0  0  0  0  0  0  0  0
   23.7239  -14.3209  -16.3318 O   0  0  0  0  0  0  0  0  0  0  0  0
   23.8627  -13.2231  -16.9164 C   0  0  0  0  0  0  0  0  0  0  0  0
   22.8228  -15.3983  -16.7748 C   0  0  0  0  0  0  0  0  0  0  0  0
   22.8762  -16.5938  -15.8760 C   0  0  1  0  0  0  0  0  0  0  0  0
   21.5365  -17.1750  -15.5468 N   0  0  0  0  0  0  0  0  0  0  0  0
   21.6636  -18.6270  -15.4999 C   0  0  0  0  0  0  0  0  0  0  0  0
   20.5482  -16.8650  -16.6302 O   0  0  0  0  0  0  0  0  0  0  0  0
   19.9100  -15.6492  -16.7088 O   0  0  0  0  0  0  0  0  0  0  0  0
  2  3  1  0
  2  1  1  0
  3  4  1  1
  5  6  1  6
  5  3  1  0
  7  5  1  0
  8  7  2  0
  9 10  1  0
 10 12  1  0
 11 10  2  0
 13 12  1  0
 13 14  1  0
 15 14  1  0
 16 15  1  1
 16 17  1  0
 17  7  1  0
 18 16  1  0
 18 26  1  0
 19 18  2  0
 20 21  1  0
 21 23  1  0
 22 21  2  0
 23 24  1  0
 25 26  1  0
 25 24  1  1
 25 27  1  0
 27 28  1  0
 29 27  2  0
M  END
$$$$
