IRQ.pdb
     RDKit          3D

 29 28  0  0  1  0  0  0  0  0999 V2000
   27.9294  -19.3617   -6.0367 C   0  0  0  0  0  0  0  0  0  0  0  0
   27.8428  -20.3326   -7.1783 C   0  0  0  0  0  0  0  0  0  0  0  0
   26.8481  -19.7479   -8.2136 C   0  0  2  0  0  0  0  0  0  0  0  0
   25.5322  -19.6243   -7.4681 C   0  0  0  0  0  0  0  0  0  0  0  0
   26.7795  -20.6759   -9.3677 C   0  0  2  0  0  0  0  0  0  0  0  0
   28.1502  -20.8818   -9.9141 N   0  0  0  0  0  0  0  0  0  0  0  0
   25.9512  -20.3086  -10.5210 C   0  0  0  0  0  0  0  0  0  0  0  0
   26.1337  -19.1437  -11.0651 O   0  0  0  0  0  0  0  0  0  0  0  0
   25.2027  -25.0170  -15.0640 N   0  0  0  0  0  0  0  0  0  0  0  0
   26.1356  -24.4167  -15.9655 C   0  0  0  0  0  0  0  0  0  0  0  0
   26.9100  -25.1979  -16.6220 N   0  0  0  0  0  0  0  0  0  0  0  0
   26.2028  -23.0077  -16.1305 N   0  0  0  0  0  0  0  0  0  0  0  0
   26.5066  -22.1544  -15.0007 C   0  0  0  0  0  0  0  0  0  0  0  0
   25.3947  -22.1404  -13.9986 C   0  0  0  0  0  0  0  0  0  0  0  0
   24.8781  -20.7796  -13.6572 C   0  0  0  0  0  0  0  0  0  0  0  0
   24.2803  -20.5722  -12.3378 C   0  0  2  0  0  0  0  0  0  0  0  0
   24.9408  -21.0658  -11.1652 N   0  0  0  0  0  0  0  0  0  0  0  0
   22.8075  -20.9186  -12.3115 C   0  0  0  0  0  0  0  0  0  0  0  0
   22.5021  -21.9852  -11.7052 O   0  0  0  0  0  0  0  0  0  0  0  0
   27.6681  -24.9273  -17.2661 N   0  0  0  0  0  0  0  0  0  0  0  0
   22.6550  -22.1130  -16.4721 C   0  0  0  0  0  0  0  0  0  0  0  0
   21.6857  -21.1360  -16.0401 O   0  0  0  0  0  0  0  0  0  0  0  0
   22.0227  -19.9454  -16.2274 C   0  0  0  0  0  0  0  0  0  0  0  0
   20.4133  -21.5611  -15.4326 C   0  0  0  0  0  0  0  0  0  0  0  0
   20.5345  -21.8000  -13.9602 C   0  0  2  0  0  0  0  0  0  0  0  0
   20.4953  -20.5544  -13.1306 N   0  0  0  0  0  0  0  0  0  0  0  0
   21.8640  -20.0947  -12.9258 C   0  0  0  0  0  0  0  0  0  0  0  0
   19.9318  -20.8447  -11.7725 O   0  0  0  0  0  0  0  0  0  0  0  0
   19.1653  -19.9289  -11.0902 O   0  0  0  0  0  0  0  0  0  0  0  0
  2  3  1  0
  2  1  1  0
  3  4  1  1
  5  6  1  6
  5  3  1  0
  7  5  1  0
  8  7  2  0
  9 10  1  0
 10 12  1  0
 11 10  2  0
 13 12  1  0
 13 14  1  0
 15 14  1  0
 16 15  1  6
 16 17  1  0
 17  7  1  0
 18 16  1  0
 18 26  1  0
 19 18  2  0
 20 21  1  0
 21 23  1  0
 22 21  2  0
 23 24  1  0
 25 26  1  0
 25 24  1  6
 25 27  1  0
 27 28  1  0
 29 27  2  0
M  END
$$$$
