IRQ.pdb
     RDKit          3D

 29 28  0  0  1  0  0  0  0  0999 V2000
   26.2593  -21.1351   -8.7285 C   0  0  0  0  0  0  0  0  0  0  0  0
   26.1519  -19.8510   -9.4983 C   0  0  0  0  0  0  0  0  0  0  0  0
   25.1384  -20.0800  -10.6487 C   0  0  2  0  0  0  0  0  0  0  0  0
   23.8876  -20.6083   -9.9712 C   0  0  0  0  0  0  0  0  0  0  0  0
   25.7328  -21.0421  -11.6073 C   0  0  2  0  0  0  0  0  0  0  0  0
   27.0449  -20.5174  -12.0793 N   0  0  0  0  0  0  0  0  0  0  0  0
   24.9869  -21.3786  -12.8245 C   0  0  0  0  0  0  0  0  0  0  0  0
   24.2587  -20.4558  -13.3762 O   0  0  0  0  0  0  0  0  0  0  0  0
   25.4311  -26.8802  -16.0055 N   0  0  0  0  0  0  0  0  0  0  0  0
   26.7264  -26.5814  -16.5315 C   0  0  0  0  0  0  0  0  0  0  0  0
   27.6590  -27.4355  -16.3271 N   0  0  0  0  0  0  0  0  0  0  0  0
   26.9726  -25.3844  -17.2550 N   0  0  0  0  0  0  0  0  0  0  0  0
   25.8763  -24.5070  -17.6090 C   0  0  0  0  0  0  0  0  0  0  0  0
   25.6182  -23.4827  -16.5483 C   0  0  0  0  0  0  0  0  0  0  0  0
   24.4191  -23.7528  -15.6973 C   0  0  0  0  0  0  0  0  0  0  0  0
   24.0741  -22.7874  -14.6532 C   0  0  2  0  0  0  0  0  0  0  0  0
   24.9411  -22.6097  -13.5254 N   0  0  0  0  0  0  0  0  0  0  0  0
   22.6325  -22.9089  -14.2095 C   0  0  0  0  0  0  0  0  0  0  0  0
   22.4492  -23.3889  -13.0543 O   0  0  0  0  0  0  0  0  0  0  0  0
   28.6272  -27.3972  -16.6789 N   0  0  0  0  0  0  0  0  0  0  0  0
   18.9266  -18.3452  -14.9368 C   0  0  0  0  0  0  0  0  0  0  0  0
   17.9851  -19.3132  -14.4297 O   0  0  0  0  0  0  0  0  0  0  0  0
   16.8309  -18.8698  -14.2361 C   0  0  0  0  0  0  0  0  0  0  0  0
   18.4021  -20.7030  -14.1779 C   0  0  0  0  0  0  0  0  0  0  0  0
   19.8222  -20.9550  -14.5773 C   0  0  1  0  0  0  0  0  0  0  0  0
   20.2275  -22.3953  -14.5287 N   0  0  0  0  0  0  0  0  0  0  0  0
   21.5877  -22.5082  -15.0426 C   0  0  0  0  0  0  0  0  0  0  0  0
   19.3577  -23.2171  -15.4312 O   0  0  0  0  0  0  0  0  0  0  0  0
   18.1339  -23.6964  -15.0259 O   0  0  0  0  0  0  0  0  0  0  0  0
  2  3  1  0
  2  1  1  0
  3  4  1  1
  5  6  1  6
  5  3  1  0
  7  5  1  0
  8  7  2  0
  9 10  1  0
 10 12  1  0
 11 10  2  0
 13 12  1  0
 13 14  1  0
 15 14  1  0
 16 15  1  1
 16 17  1  0
 17  7  1  0
 18 16  1  0
 18 26  1  0
 19 18  2  0
 20 21  1  0
 21 23  1  0
 22 21  2  0
 23 24  1  0
 25 26  1  0
 25 24  1  1
 25 27  1  0
 27 28  1  0
 29 27  2  0
M  END
$$$$
