IRQ.pdb
     RDKit          3D

 29 28  0  0  1  0  0  0  0  0999 V2000
   26.2052  -16.3431  -16.6123 C   0  0  0  0  0  0  0  0  0  0  0  0
   25.3002  -15.6465  -15.6382 C   0  0  0  0  0  0  0  0  0  0  0  0
   24.7101  -14.4051  -16.3552 C   0  0  2  0  0  0  0  0  0  0  0  0
   25.9120  -13.5535  -16.7196 C   0  0  0  0  0  0  0  0  0  0  0  0
   23.7777  -13.7289  -15.4220 C   0  0  2  0  0  0  0  0  0  0  0  0
   22.7449  -14.7024  -14.9687 N   0  0  0  0  0  0  0  0  0  0  0  0
   23.0297  -12.5592  -15.8949 C   0  0  0  0  0  0  0  0  0  0  0  0
   23.6965  -11.5553  -16.3785 O   0  0  0  0  0  0  0  0  0  0  0  0
   17.5203  -14.7451  -16.8501 N   0  0  0  0  0  0  0  0  0  0  0  0
   16.3789  -13.9203  -16.6039 C   0  0  0  0  0  0  0  0  0  0  0  0
   15.4007  -14.4410  -15.9613 N   0  0  0  0  0  0  0  0  0  0  0  0
   16.3290  -12.5737  -17.0522 N   0  0  0  0  0  0  0  0  0  0  0  0
   17.4847  -11.9715  -17.6836 C   0  0  0  0  0  0  0  0  0  0  0  0
   18.6789  -11.9780  -16.7810 C   0  0  0  0  0  0  0  0  0  0  0  0
   19.8656  -11.2379  -17.3093 C   0  0  0  0  0  0  0  0  0  0  0  0
   21.0647  -11.1574  -16.4744 C   0  0  2  0  0  0  0  0  0  0  0  0
   21.6280  -12.3492  -15.9110 N   0  0  0  0  0  0  0  0  0  0  0  0
   20.9697  -10.0633  -15.4335 C   0  0  0  0  0  0  0  0  0  0  0  0
   20.8296  -10.4497  -14.2379 O   0  0  0  0  0  0  0  0  0  0  0  0
   14.4948  -14.0009  -15.7411 N   0  0  0  0  0  0  0  0  0  0  0  0
   22.5676   -4.0722  -16.5159 C   0  0  0  0  0  0  0  0  0  0  0  0
   22.1690   -4.0417  -15.1300 O   0  0  0  0  0  0  0  0  0  0  0  0
   22.2411   -2.9156  -14.5888 C   0  0  0  0  0  0  0  0  0  0  0  0
   21.7192   -5.2697  -14.4528 C   0  0  0  0  0  0  0  0  0  0  0  0
   21.6866   -6.4502  -15.3720 C   0  0  1  0  0  0  0  0  0  0  0  0
   21.0579   -7.6728  -14.7796 N   0  0  0  0  0  0  0  0  0  0  0  0
   21.0360   -8.7179  -15.7965 C   0  0  0  0  0  0  0  0  0  0  0  0
   19.6307   -7.4035  -14.4095 O   0  0  0  0  0  0  0  0  0  0  0  0
   19.2728   -6.9661  -13.1556 O   0  0  0  0  0  0  0  0  0  0  0  0
  2  3  1  0
  2  1  1  0
  3  4  1  1
  5  6  1  6
  5  3  1  0
  7  5  1  0
  8  7  2  0
  9 10  1  0
 10 12  1  0
 11 10  2  0
 13 12  1  0
 13 14  1  0
 15 14  1  0
 16 15  1  1
 16 17  1  0
 17  7  1  0
 18 16  1  0
 18 26  1  0
 19 18  2  0
 20 21  1  0
 21 23  1  0
 22 21  2  0
 23 24  1  0
 25 26  1  0
 25 24  1  1
 25 27  1  0
 27 28  1  0
 29 27  2  0
M  END
$$$$
