IRQ.pdb
     RDKit          3D

 29 28  0  0  1  0  0  0  0  0999 V2000
   30.0198  -20.5180  -11.6074 C   0  0  0  0  0  0  0  0  0  0  0  0
   28.7406  -21.2408  -11.3001 C   0  0  0  0  0  0  0  0  0  0  0  0
   27.6084  -20.5456  -12.0989 C   0  0  2  0  0  0  0  0  0  0  0  0
   27.6086  -19.1086  -11.6115 C   0  0  0  0  0  0  0  0  0  0  0  0
   26.3379  -21.2562  -11.8187 C   0  0  2  0  0  0  0  0  0  0  0  0
   26.4794  -22.6871  -12.2088 N   0  0  0  0  0  0  0  0  0  0  0  0
   25.1102  -20.7931  -12.4741 C   0  0  0  0  0  0  0  0  0  0  0  0
   24.3946  -19.8900  -11.8753 O   0  0  0  0  0  0  0  0  0  0  0  0
   22.9619  -19.6231  -19.1036 N   0  0  0  0  0  0  0  0  0  0  0  0
   24.3487  -19.2847  -19.0260 C   0  0  0  0  0  0  0  0  0  0  0  0
   25.1061  -19.6708  -19.9842 N   0  0  0  0  0  0  0  0  0  0  0  0
   24.8697  -18.5472  -17.9299 N   0  0  0  0  0  0  0  0  0  0  0  0
   23.9752  -17.9623  -16.9528 C   0  0  0  0  0  0  0  0  0  0  0  0
   24.0908  -18.6337  -15.6199 C   0  0  0  0  0  0  0  0  0  0  0  0
   23.3391  -19.9206  -15.5010 C   0  0  0  0  0  0  0  0  0  0  0  0
   23.3482  -20.6162  -14.2137 C   0  0  2  0  0  0  0  0  0  0  0  0
   24.5633  -21.1940  -13.7188 N   0  0  0  0  0  0  0  0  0  0  0  0
   22.1957  -21.5870  -14.0752 C   0  0  0  0  0  0  0  0  0  0  0  0
   22.2973  -22.6618  -14.7331 O   0  0  0  0  0  0  0  0  0  0  0  0
   26.1242  -19.5323  -20.0686 N   0  0  0  0  0  0  0  0  0  0  0  0
   19.4358  -22.8984   -8.8808 C   0  0  0  0  0  0  0  0  0  0  0  0
   18.4858  -23.4790   -9.7979 O   0  0  0  0  0  0  0  0  0  0  0  0
   17.5415  -24.0944   -9.2541 C   0  0  0  0  0  0  0  0  0  0  0  0
   18.6606  -23.3284  -11.2524 C   0  0  0  0  0  0  0  0  0  0  0  0
   19.8219  -22.4510  -11.6007 C   0  0  1  0  0  0  0  0  0  0  0  0
   20.0319  -22.2651  -13.0713 N   0  0  0  0  0  0  0  0  0  0  0  0
   21.0998  -21.2909  -13.2641 C   0  0  0  0  0  0  0  0  0  0  0  0
   18.8042  -21.6886  -13.7090 O   0  0  0  0  0  0  0  0  0  0  0  0
   17.8380  -22.4833  -14.2806 O   0  0  0  0  0  0  0  0  0  0  0  0
  2  3  1  0
  2  1  1  0
  3  4  1  1
  5  6  1  6
  5  3  1  0
  7  5  1  0
  8  7  2  0
  9 10  1  0
 10 12  1  0
 11 10  2  0
 13 12  1  0
 13 14  1  0
 15 14  1  0
 16 15  1  6
 16 17  1  0
 17  7  1  0
 18 16  1  0
 18 26  1  0
 19 18  2  0
 20 21  1  0
 21 23  1  0
 22 21  2  0
 23 24  1  0
 25 26  1  0
 25 24  1  1
 25 27  1  0
 27 28  1  0
 29 27  2  0
M  END
$$$$
