IRQ.pdb
     RDKit          3D

 29 28  0  0  1  0  0  0  0  0999 V2000
   28.2155  -22.3060  -20.7077 C   0  0  0  0  0  0  0  0  0  0  0  0
   28.6353  -21.5671  -19.4704 C   0  0  0  0  0  0  0  0  0  0  0  0
   27.3526  -21.2454  -18.6613 C   0  0  2  0  0  0  0  0  0  0  0  0
   26.4806  -20.4436  -19.6096 C   0  0  0  0  0  0  0  0  0  0  0  0
   27.7454  -20.4879  -17.4491 C   0  0  2  0  0  0  0  0  0  0  0  0
   28.5216  -21.3802  -16.5428 N   0  0  0  0  0  0  0  0  0  0  0  0
   26.6942  -19.9009  -16.6115 C   0  0  0  0  0  0  0  0  0  0  0  0
   26.0491  -20.6790  -15.7963 O   0  0  0  0  0  0  0  0  0  0  0  0
   27.3779  -14.0051  -15.9531 N   0  0  0  0  0  0  0  0  0  0  0  0
   26.3546  -13.4275  -16.7673 C   0  0  0  0  0  0  0  0  0  0  0  0
   26.7033  -12.9448  -17.9014 N   0  0  0  0  0  0  0  0  0  0  0  0
   25.0013  -13.3903  -16.3383 N   0  0  0  0  0  0  0  0  0  0  0  0
   24.5104  -14.3648  -15.3863 C   0  0  0  0  0  0  0  0  0  0  0  0
   24.4727  -15.7429  -15.9695 C   0  0  0  0  0  0  0  0  0  0  0  0
   25.1554  -16.7884  -15.1473 C   0  0  0  0  0  0  0  0  0  0  0  0
   25.2041  -18.1574  -15.6618 C   0  0  2  0  0  0  0  0  0  0  0  0
   26.2585  -18.5535  -16.5486 N   0  0  0  0  0  0  0  0  0  0  0  0
   23.8617  -18.6267  -16.1789 C   0  0  0  0  0  0  0  0  0  0  0  0
   23.6839  -18.5234  -17.4264 O   0  0  0  0  0  0  0  0  0  0  0  0
   26.1107  -12.4268  -18.5672 N   0  0  0  0  0  0  0  0  0  0  0  0
   20.1155  -22.6995  -13.2729 C   0  0  0  0  0  0  0  0  0  0  0  0
   19.2571  -22.2110  -14.3242 O   0  0  0  0  0  0  0  0  0  0  0  0
   18.1535  -22.7944  -14.4129 C   0  0  0  0  0  0  0  0  0  0  0  0
   19.6945  -21.1080  -15.1965 C   0  0  0  0  0  0  0  0  0  0  0  0
   21.0826  -20.6460  -14.8814 C   0  0  1  0  0  0  0  0  0  0  0  0
   21.6123  -19.6073  -15.8204 N   0  0  0  0  0  0  0  0  0  0  0  0
   22.8962  -19.1388  -15.3117 C   0  0  0  0  0  0  0  0  0  0  0  0
   20.7031  -18.4163  -15.8542 O   0  0  0  0  0  0  0  0  0  0  0  0
   20.9503  -17.2889  -15.1063 O   0  0  0  0  0  0  0  0  0  0  0  0
  2  3  1  0
  2  1  1  0
  3  4  1  6
  5  6  1  1
  5  3  1  0
  7  5  1  0
  8  7  2  0
  9 10  1  0
 10 12  1  0
 11 10  2  0
 13 12  1  0
 13 14  1  0
 15 14  1  0
 16 15  1  6
 16 17  1  0
 17  7  1  0
 18 16  1  0
 18 26  1  0
 19 18  2  0
 20 21  1  0
 21 23  1  0
 22 21  2  0
 23 24  1  0
 25 26  1  0
 25 24  1  6
 25 27  1  0
 27 28  1  0
 29 27  2  0
M  END
$$$$
