IRQ.pdb
     RDKit          3D

 29 28  0  0  1  0  0  0  0  0999 V2000
   26.2764  -19.1512  -21.7918 C   0  0  0  0  0  0  0  0  0  0  0  0
   27.0571  -19.3402  -20.5238 C   0  0  0  0  0  0  0  0  0  0  0  0
   26.0695  -19.8385  -19.4377 C   0  0  2  0  0  0  0  0  0  0  0  0
   25.0279  -18.7412  -19.3205 C   0  0  0  0  0  0  0  0  0  0  0  0
   26.8293  -20.0575  -18.1838 C   0  0  2  0  0  0  0  0  0  0  0  0
   27.7676  -21.1995  -18.3715 N   0  0  0  0  0  0  0  0  0  0  0  0
   26.0900  -20.3588  -16.9534 C   0  0  0  0  0  0  0  0  0  0  0  0
   25.5289  -21.5245  -16.8411 O   0  0  0  0  0  0  0  0  0  0  0  0
   23.0217  -20.8242   -9.0596 N   0  0  0  0  0  0  0  0  0  0  0  0
   24.4472  -20.9144   -9.1194 C   0  0  0  0  0  0  0  0  0  0  0  0
   25.0266  -21.6871   -8.2779 N   0  0  0  0  0  0  0  0  0  0  0  0
   25.1953  -20.1776  -10.0755 N   0  0  0  0  0  0  0  0  0  0  0  0
   24.5245  -19.2791  -10.9918 C   0  0  0  0  0  0  0  0  0  0  0  0
   24.2872  -19.9179  -12.3246 C   0  0  0  0  0  0  0  0  0  0  0  0
   25.2751  -19.5429  -13.3822 C   0  0  0  0  0  0  0  0  0  0  0  0
   24.9984  -19.9353  -14.7645 C   0  0  2  0  0  0  0  0  0  0  0  0
   25.8895  -19.5384  -15.8150 N   0  0  0  0  0  0  0  0  0  0  0  0
   23.5587  -19.6851  -15.1573 C   0  0  0  0  0  0  0  0  0  0  0  0
   23.2642  -18.4892  -15.4426 O   0  0  0  0  0  0  0  0  0  0  0  0
   26.0401  -21.8406   -8.1678 N   0  0  0  0  0  0  0  0  0  0  0  0
   19.3877  -24.2358  -16.5000 C   0  0  0  0  0  0  0  0  0  0  0  0
   18.6431  -23.0282  -16.7602 O   0  0  0  0  0  0  0  0  0  0  0  0
   17.4786  -23.2111  -17.1807 C   0  0  0  0  0  0  0  0  0  0  0  0
   19.2535  -21.7077  -16.5309 C   0  0  0  0  0  0  0  0  0  0  0  0
   20.6451  -21.8075  -15.9896 C   0  0  2  0  0  0  0  0  0  0  0  0
   21.2625  -20.4904  -15.6358 N   0  0  0  0  0  0  0  0  0  0  0  0
   22.6324  -20.7277  -15.1954 C   0  0  0  0  0  0  0  0  0  0  0  0
   20.5417  -19.8653  -14.4799 O   0  0  0  0  0  0  0  0  0  0  0  0
   19.5453  -18.9344  -14.6593 O   0  0  0  0  0  0  0  0  0  0  0  0
  2  3  1  0
  2  1  1  0
  3  4  1  1
  5  6  1  6
  5  3  1  0
  7  5  1  0
  8  7  2  0
  9 10  1  0
 10 12  1  0
 11 10  2  0
 13 12  1  0
 13 14  1  0
 15 14  1  0
 16 15  1  1
 16 17  1  0
 17  7  1  0
 18 16  1  0
 18 26  1  0
 19 18  2  0
 20 21  1  0
 21 23  1  0
 22 21  2  0
 23 24  1  0
 25 26  1  0
 25 24  1  6
 25 27  1  0
 27 28  1  0
 29 27  2  0
M  END
$$$$
