IRQ.pdb
     RDKit          3D

 29 28  0  0  1  0  0  0  0  0999 V2000
   25.2855  -17.5324  -22.0658 C   0  0  0  0  0  0  0  0  0  0  0  0
   24.8956  -17.0076  -20.7147 C   0  0  0  0  0  0  0  0  0  0  0  0
   24.8240  -18.2169  -19.7473 C   0  0  2  0  0  0  0  0  0  0  0  0
   23.8023  -19.1539  -20.3642 C   0  0  0  0  0  0  0  0  0  0  0  0
   24.4252  -17.7187  -18.4092 C   0  0  2  0  0  0  0  0  0  0  0  0
   25.4852  -16.8112  -17.8873 N   0  0  0  0  0  0  0  0  0  0  0  0
   24.1815  -18.6901  -17.3377 C   0  0  0  0  0  0  0  0  0  0  0  0
   23.2496  -19.5778  -17.5105 O   0  0  0  0  0  0  0  0  0  0  0  0
   25.9504  -22.2629  -11.7452 N   0  0  0  0  0  0  0  0  0  0  0  0
   26.4700  -21.0617  -11.1700 C   0  0  0  0  0  0  0  0  0  0  0  0
   26.1679  -20.8113   -9.9506 N   0  0  0  0  0  0  0  0  0  0  0  0
   27.2915  -20.1782  -11.9192 N   0  0  0  0  0  0  0  0  0  0  0  0
   27.7212  -20.5372  -13.2546 C   0  0  0  0  0  0  0  0  0  0  0  0
   26.8202  -19.9625  -14.3029 C   0  0  0  0  0  0  0  0  0  0  0  0
   25.3746  -20.3079  -14.1421 C   0  0  0  0  0  0  0  0  0  0  0  0
   24.4224  -19.7972  -15.1289 C   0  0  2  0  0  0  0  0  0  0  0  0
   24.8400  -18.8179  -16.0890 N   0  0  0  0  0  0  0  0  0  0  0  0
   23.0991  -19.4094  -14.5059 C   0  0  0  0  0  0  0  0  0  0  0  0
   22.9209  -18.1727  -14.3137 O   0  0  0  0  0  0  0  0  0  0  0  0
   26.4819  -20.0103   -9.3825 N   0  0  0  0  0  0  0  0  0  0  0  0
   19.1746  -19.0669  -17.8984 C   0  0  0  0  0  0  0  0  0  0  0  0
   18.3177  -18.8721  -16.7545 O   0  0  0  0  0  0  0  0  0  0  0  0
   17.1806  -18.4230  -17.0222 C   0  0  0  0  0  0  0  0  0  0  0  0
   18.7939  -19.1938  -15.3986 C   0  0  0  0  0  0  0  0  0  0  0  0
   20.2501  -19.5379  -15.3707 C   0  0  1  0  0  0  0  0  0  0  0  0
   20.7414  -20.0227  -14.0423 N   0  0  0  0  0  0  0  0  0  0  0  0
   22.1500  -20.3766  -14.1737 C   0  0  0  0  0  0  0  0  0  0  0  0
   20.0200  -21.2731  -13.6392 O   0  0  0  0  0  0  0  0  0  0  0  0
   18.9090  -21.2449  -12.8291 O   0  0  0  0  0  0  0  0  0  0  0  0
  2  3  1  0
  2  1  1  0
  3  4  1  6
  5  6  1  1
  5  3  1  0
  7  5  1  0
  8  7  2  0
  9 10  1  0
 10 12  1  0
 11 10  2  0
 13 12  1  0
 13 14  1  0
 15 14  1  0
 16 15  1  1
 16 17  1  0
 17  7  1  0
 18 16  1  0
 18 26  1  0
 19 18  2  0
 20 21  1  0
 21 23  1  0
 22 21  2  0
 23 24  1  0
 25 26  1  0
 25 24  1  1
 25 27  1  0
 27 28  1  0
 29 27  2  0
M  END
$$$$
