IRQ.pdb
     RDKit          3D

 29 28  0  0  1  0  0  0  0  0999 V2000
   28.9249  -19.7900   -5.8759 C   0  0  0  0  0  0  0  0  0  0  0  0
   27.5036  -20.1178   -6.2301 C   0  0  0  0  0  0  0  0  0  0  0  0
   27.3457  -19.9176   -7.7592 C   0  0  2  0  0  0  0  0  0  0  0  0
   27.7464  -18.4757   -8.0103 C   0  0  0  0  0  0  0  0  0  0  0  0
   25.9371  -20.2030   -8.1224 C   0  0  2  0  0  0  0  0  0  0  0  0
   25.5825  -21.5777   -7.6705 N   0  0  0  0  0  0  0  0  0  0  0  0
   25.5460  -20.1441   -9.5348 C   0  0  0  0  0  0  0  0  0  0  0  0
   24.9316  -19.0823   -9.9607 O   0  0  0  0  0  0  0  0  0  0  0  0
   29.0975  -21.3078  -16.9836 N   0  0  0  0  0  0  0  0  0  0  0  0
   29.0481  -22.1094  -15.8010 C   0  0  0  0  0  0  0  0  0  0  0  0
   30.0676  -22.8392  -15.5383 N   0  0  0  0  0  0  0  0  0  0  0  0
   27.9137  -22.0980  -14.9468 N   0  0  0  0  0  0  0  0  0  0  0  0
   26.6125  -21.7324  -15.4665 C   0  0  0  0  0  0  0  0  0  0  0  0
   25.7438  -21.1200  -14.4124 C   0  0  0  0  0  0  0  0  0  0  0  0
   26.1933  -21.3708  -13.0088 C   0  0  0  0  0  0  0  0  0  0  0  0
   25.3832  -20.8389  -11.9124 C   0  0  2  0  0  0  0  0  0  0  0  0
   25.7497  -21.1090  -10.5530 N   0  0  0  0  0  0  0  0  0  0  0  0
   23.9028  -21.0681  -12.1260 C   0  0  0  0  0  0  0  0  0  0  0  0
   23.4415  -22.1548  -11.6733 O   0  0  0  0  0  0  0  0  0  0  0  0
   30.1963  -23.4612  -14.7263 N   0  0  0  0  0  0  0  0  0  0  0  0
   17.6338  -17.4222  -13.8734 C   0  0  0  0  0  0  0  0  0  0  0  0
   19.0472  -17.6036  -13.6499 O   0  0  0  0  0  0  0  0  0  0  0  0
   19.7384  -16.5716  -13.8030 C   0  0  0  0  0  0  0  0  0  0  0  0
   19.5826  -18.9223  -13.2715 C   0  0  0  0  0  0  0  0  0  0  0  0
   21.0759  -18.9262  -13.1733 C   0  0  1  0  0  0  0  0  0  0  0  0
   21.6648  -20.2567  -12.8207 N   0  0  0  0  0  0  0  0  0  0  0  0
   23.1165  -20.1224  -12.7845 C   0  0  0  0  0  0  0  0  0  0  0  0
   21.3532  -21.2676  -13.8824 O   0  0  0  0  0  0  0  0  0  0  0  0
   20.2542  -22.0909  -13.8050 O   0  0  0  0  0  0  0  0  0  0  0  0
  2  3  1  0
  2  1  1  0
  3  4  1  1
  5  6  1  6
  5  3  1  0
  7  5  1  0
  8  7  2  0
  9 10  1  0
 10 12  1  0
 11 10  2  0
 13 12  1  0
 13 14  1  0
 15 14  1  0
 16 15  1  6
 16 17  1  0
 17  7  1  0
 18 16  1  0
 18 26  1  0
 19 18  2  0
 20 21  1  0
 21 23  1  0
 22 21  2  0
 23 24  1  0
 25 26  1  0
 25 24  1  1
 25 27  1  0
 27 28  1  0
 29 27  2  0
M  END
$$$$
