IRQ.pdb
     RDKit          3D

 29 28  0  0  1  0  0  0  0  0999 V2000
   25.5062  -16.6061  -20.3273 C   0  0  0  0  0  0  0  0  0  0  0  0
   25.7409  -17.2073  -18.9720 C   0  0  0  0  0  0  0  0  0  0  0  0
   24.3850  -17.7645  -18.4677 C   0  0  2  0  0  0  0  0  0  0  0  0
   23.4779  -16.5529  -18.3596 C   0  0  0  0  0  0  0  0  0  0  0  0
   24.6143  -18.4390  -17.1676 C   0  0  2  0  0  0  0  0  0  0  0  0
   25.5862  -19.5523  -17.3570 N   0  0  0  0  0  0  0  0  0  0  0  0
   23.4703  -19.0349  -16.4696 C   0  0  0  0  0  0  0  0  0  0  0  0
   22.7609  -19.9241  -17.0959 O   0  0  0  0  0  0  0  0  0  0  0  0
   25.8644  -22.6261  -14.4105 N   0  0  0  0  0  0  0  0  0  0  0  0
   25.0336  -23.1807  -13.3878 C   0  0  0  0  0  0  0  0  0  0  0  0
   24.6797  -24.4055  -13.5129 N   0  0  0  0  0  0  0  0  0  0  0  0
   24.6160  -22.4060  -12.2732 N   0  0  0  0  0  0  0  0  0  0  0  0
   23.9971  -21.1124  -12.4744 C   0  0  0  0  0  0  0  0  0  0  0  0
   22.5686  -21.2393  -12.9036 C   0  0  0  0  0  0  0  0  0  0  0  0
   21.8957  -19.9440  -13.2267 C   0  0  0  0  0  0  0  0  0  0  0  0
   21.8805  -19.4953  -14.6195 C   0  0  2  0  0  0  0  0  0  0  0  0
   23.0024  -18.7819  -15.1557 N   0  0  0  0  0  0  0  0  0  0  0  0
   20.5819  -18.8132  -14.9909 C   0  0  0  0  0  0  0  0  0  0  0  0
   20.5490  -17.5604  -14.8238 O   0  0  0  0  0  0  0  0  0  0  0  0
   24.1015  -24.9568  -12.8614 N   0  0  0  0  0  0  0  0  0  0  0  0
   14.1855  -19.8995  -18.6378 C   0  0  0  0  0  0  0  0  0  0  0  0
   15.5213  -20.2180  -18.1963 O   0  0  0  0  0  0  0  0  0  0  0  0
   15.8955  -21.3833  -18.4574 C   0  0  0  0  0  0  0  0  0  0  0  0
   16.3389  -19.2120  -17.4975 C   0  0  0  0  0  0  0  0  0  0  0  0
   17.5576  -19.8059  -16.8638 C   0  0  2  0  0  0  0  0  0  0  0  0
   18.3025  -18.8676  -15.9661 N   0  0  0  0  0  0  0  0  0  0  0  0
   19.5019  -19.5443  -15.4863 C   0  0  0  0  0  0  0  0  0  0  0  0
   17.4829  -18.5359  -14.7558 O   0  0  0  0  0  0  0  0  0  0  0  0
   17.5263  -19.3013  -13.6139 O   0  0  0  0  0  0  0  0  0  0  0  0
  2  3  1  0
  2  1  1  0
  3  4  1  1
  5  6  1  6
  5  3  1  0
  7  5  1  0
  8  7  2  0
  9 10  1  0
 10 12  1  0
 11 10  2  0
 13 12  1  0
 13 14  1  0
 15 14  1  0
 16 15  1  1
 16 17  1  0
 17  7  1  0
 18 16  1  0
 18 26  1  0
 19 18  2  0
 20 21  1  0
 21 23  1  0
 22 21  2  0
 23 24  1  0
 25 26  1  0
 25 24  1  6
 25 27  1  0
 27 28  1  0
 29 27  2  0
M  END
$$$$
