IRQ.pdb
     RDKit          3D

 29 28  0  0  1  0  0  0  0  0999 V2000
   22.5142  -17.2731   -0.2815 C   0  0  0  0  0  0  0  0  0  0  0  0
   21.2941  -18.1474   -0.2899 C   0  0  0  0  0  0  0  0  0  0  0  0
   20.4825  -17.8282    0.9918 C   0  0  2  0  0  0  0  0  0  0  0  0
   21.4480  -18.0668    2.1380 C   0  0  0  0  0  0  0  0  0  0  0  0
   19.3010  -18.7228    1.0288 C   0  0  2  0  0  0  0  0  0  0  0  0
   18.5169  -18.5525   -0.2266 N   0  0  0  0  0  0  0  0  0  0  0  0
   18.3313  -18.5674    2.1181 C   0  0  0  0  0  0  0  0  0  0  0  0
   17.7498  -17.4158    2.2664 O   0  0  0  0  0  0  0  0  0  0  0  0
   10.6043  -20.4401    3.2041 N   0  0  0  0  0  0  0  0  0  0  0  0
   11.2914  -19.4525    3.9762 C   0  0  0  0  0  0  0  0  0  0  0  0
   10.5984  -18.7589    4.8006 N   0  0  0  0  0  0  0  0  0  0  0  0
   12.6898  -19.2469    3.8380 N   0  0  0  0  0  0  0  0  0  0  0  0
   13.4161  -19.8749    2.7539 C   0  0  0  0  0  0  0  0  0  0  0  0
   14.8513  -19.4506    2.7258 C   0  0  0  0  0  0  0  0  0  0  0  0
   15.5852  -19.6427    4.0141 C   0  0  0  0  0  0  0  0  0  0  0  0
   16.9711  -19.1814    4.1018 C   0  0  2  0  0  0  0  0  0  0  0  0
   17.9084  -19.5257    3.0732 N   0  0  0  0  0  0  0  0  0  0  0  0
   17.5690  -19.4106    5.4728 C   0  0  0  0  0  0  0  0  0  0  0  0
   18.4112  -20.3496    5.5578 O   0  0  0  0  0  0  0  0  0  0  0  0
   10.9452  -18.0512    5.4652 N   0  0  0  0  0  0  0  0  0  0  0  0
   18.1372  -14.9960    9.8014 C   0  0  0  0  0  0  0  0  0  0  0  0
   18.5843  -16.1629   10.5220 O   0  0  0  0  0  0  0  0  0  0  0  0
   19.0366  -15.9309   11.6656 C   0  0  0  0  0  0  0  0  0  0  0  0
   18.4921  -17.5004    9.9126 C   0  0  0  0  0  0  0  0  0  0  0  0
   17.8794  -17.4657    8.5477 C   0  0  1  0  0  0  0  0  0  0  0  0
   17.8352  -18.7949    7.8603 N   0  0  0  0  0  0  0  0  0  0  0  0
   17.1974  -18.6199    6.5605 C   0  0  0  0  0  0  0  0  0  0  0  0
   16.9831  -19.7574    8.6309 O   0  0  0  0  0  0  0  0  0  0  0  0
   17.4663  -20.4525    9.7149 O   0  0  0  0  0  0  0  0  0  0  0  0
  2  3  1  0
  2  1  1  0
  3  4  1  1
  5  6  1  6
  5  3  1  0
  7  5  1  0
  8  7  2  0
  9 10  1  0
 10 12  1  0
 11 10  2  0
 13 12  1  0
 13 14  1  0
 15 14  1  0
 16 15  1  6
 16 17  1  0
 17  7  1  0
 18 16  1  0
 18 26  1  0
 19 18  2  0
 20 21  1  0
 21 23  1  0
 22 21  2  0
 23 24  1  0
 25 26  1  0
 25 24  1  6
 25 27  1  0
 27 28  1  0
 29 27  2  0
M  END
$$$$
