IRQ.pdb
     RDKit          3D

 29 28  0  0  1  0  0  0  0  0999 V2000
   20.2345  -32.0810  -10.8753 C   0  0  0  0  0  0  0  0  0  0  0  0
   20.2850  -30.7047  -11.4722 C   0  0  0  0  0  0  0  0  0  0  0  0
   19.8949  -29.6988  -10.3591 C   0  0  2  0  0  0  0  0  0  0  0  0
   18.4868  -30.0905   -9.9512 C   0  0  0  0  0  0  0  0  0  0  0  0
   19.9797  -28.3291  -10.9198 C   0  0  2  0  0  0  0  0  0  0  0  0
   21.3926  -28.0378  -11.2922 N   0  0  0  0  0  0  0  0  0  0  0  0
   19.5547  -27.1980  -10.0884 C   0  0  0  0  0  0  0  0  0  0  0  0
   20.2291  -26.9381   -9.0096 O   0  0  0  0  0  0  0  0  0  0  0  0
   19.3413  -20.6777  -13.4656 N   0  0  0  0  0  0  0  0  0  0  0  0
   18.0813  -21.3524  -13.4369 C   0  0  0  0  0  0  0  0  0  0  0  0
   17.4861  -21.5411  -14.5554 N   0  0  0  0  0  0  0  0  0  0  0  0
   17.5092  -21.7991  -12.2162 N   0  0  0  0  0  0  0  0  0  0  0  0
   18.2747  -21.7438  -10.9883 C   0  0  0  0  0  0  0  0  0  0  0  0
   18.7744  -23.0952  -10.5823 C   0  0  0  0  0  0  0  0  0  0  0  0
   17.7806  -23.9330   -9.8437 C   0  0  0  0  0  0  0  0  0  0  0  0
   18.2009  -25.2487   -9.3604 C   0  0  2  0  0  0  0  0  0  0  0  0
   18.4760  -26.3016  -10.2937 N   0  0  0  0  0  0  0  0  0  0  0  0
   17.3351  -25.7492   -8.2249 C   0  0  0  0  0  0  0  0  0  0  0  0
   16.2571  -26.3174   -8.5618 O   0  0  0  0  0  0  0  0  0  0  0  0
   16.5726  -21.9944  -14.7067 N   0  0  0  0  0  0  0  0  0  0  0  0
   19.3821  -26.5146   -2.4118 C   0  0  0  0  0  0  0  0  0  0  0  0
   18.8972  -27.6918   -3.0900 O   0  0  0  0  0  0  0  0  0  0  0  0
   19.3183  -28.7748   -2.6252 C   0  0  0  0  0  0  0  0  0  0  0  0
   17.9785  -27.5718   -4.2347 C   0  0  0  0  0  0  0  0  0  0  0  0
   17.6626  -26.1472   -4.5672 C   0  0  2  0  0  0  0  0  0  0  0  0
   16.8393  -25.9735   -5.8055 N   0  0  0  0  0  0  0  0  0  0  0  0
   17.7251  -25.5821   -6.8958 C   0  0  0  0  0  0  0  0  0  0  0  0
   15.8547  -24.8573   -5.6300 O   0  0  0  0  0  0  0  0  0  0  0  0
   16.2036  -23.5406   -5.8201 O   0  0  0  0  0  0  0  0  0  0  0  0
  2  3  1  0
  2  1  1  0
  3  4  1  6
  5  6  1  1
  5  3  1  0
  7  5  1  0
  8  7  2  0
  9 10  1  0
 10 12  1  0
 11 10  2  0
 13 12  1  0
 13 14  1  0
 15 14  1  0
 16 15  1  6
 16 17  1  0
 17  7  1  0
 18 16  1  0
 18 26  1  0
 19 18  2  0
 20 21  1  0
 21 23  1  0
 22 21  2  0
 23 24  1  0
 25 26  1  0
 25 24  1  6
 25 27  1  0
 27 28  1  0
 29 27  2  0
M  END
$$$$
