MFE.pdb
     RDKit          3D

 29 29  0  0  1  0  0  0  0  0999 V2000
    8.8911  -13.7866   29.1912 C   0  0  0  0  0  0  0  0  0  0  0  0
   10.4242  -14.7543   29.2397 S   0  0  0  0  0  0  0  0  0  0  0  0
    9.9618  -16.5069   29.1561 C   0  0  0  0  0  0  0  0  0  0  0  0
    8.8773  -16.6293   28.1011 C   0  0  0  0  0  0  0  0  0  0  0  0
    9.4067  -17.2063   26.8048 C   0  0  2  0  0  0  0  0  0  0  0  0
   10.7893  -16.7978   26.6785 N   0  0  0  0  0  0  0  0  0  0  0  0
    8.5942  -16.6418   25.7082 C   0  0  0  0  0  0  0  0  0  0  0  0
    7.4073  -17.0318   25.6053 O   0  0  0  0  0  0  0  0  0  0  0  0
    9.0420  -15.6986   24.7650 N   0  0  0  0  0  0  0  0  0  0  0  0
    8.4446  -15.5375   23.4871 C   0  0  1  0  0  0  0  0  0  0  0  0
    7.7740  -14.2262   23.2504 C   0  0  0  0  0  0  0  0  0  0  0  0
    7.5461  -13.4239   24.4526 C   0  0  0  0  0  0  0  0  0  0  0  0
    6.4514  -13.6818   25.2875 C   0  0  0  0  0  0  0  0  0  0  0  0
    6.2050  -12.9485   26.4284 C   0  0  0  0  0  0  0  0  0  0  0  0
    7.0454  -11.9148   26.7941 C   0  0  0  0  0  0  0  0  0  0  0  0
    8.1214  -11.6452   25.9927 C   0  0  0  0  0  0  0  0  0  0  0  0
    8.3553  -12.3894   24.8517 C   0  0  0  0  0  0  0  0  0  0  0  0
    9.4020  -15.8061   22.3925 C   0  0  0  0  0  0  0  0  0  0  0  0
    9.8244  -14.8304   21.6817 O   0  0  0  0  0  0  0  0  0  0  0  0
    9.9007  -17.0776   22.0641 N   0  0  0  0  0  0  0  0  0  0  0  0
   11.3109  -17.3562   21.7740 C   0  0  1  0  0  0  0  0  0  0  0  0
   12.1601  -16.9058   22.9419 C   0  0  0  0  0  0  0  0  0  0  0  0
   13.1701  -15.9035   22.4796 C   0  0  0  0  0  0  0  0  0  0  0  0
   14.3731  -15.9701   23.3650 C   0  0  0  0  0  0  0  0  0  0  0  0
   14.4210  -16.8333   24.2508 O   0  0  0  0  0  0  0  0  0  0  0  0
   11.4446  -18.8048   21.6052 C   0  0  0  0  0  0  0  0  0  0  0  0
   12.4709  -19.3245   20.8355 O   0  0  0  0  0  0  0  0  0  0  0  0
   15.3972  -15.0745   23.1776 O   0  0  0  0  0  0  0  0  0  0  0  0
   10.6669  -19.6167   22.1270 O   0  0  0  0  0  0  0  0  0  0  0  0
  2  1  1  0
  3  2  1  0
  4  3  1  0
  5  4  1  0
  5  6  1  6
  7  5  1  0
  7  8  2  0
  9  7  1  0
 10  9  1  0
 10 11  1  6
 12 11  1  0
 12 13  2  0
 14 13  1  0
 15 14  2  0
 16 17  2  0
 16 15  1  0
 17 12  1  0
 18 10  1  0
 19 18  2  0
 20 18  1  0
 21 20  1  0
 21 22  1  1
 22 23  1  0
 23 24  1  0
 24 25  2  0
 24 28  1  0
 26 27  1  0
 26 21  1  0
 29 26  2  0
M  END
$$$$
