MFE.pdb
     RDKit          3D

 29 29  0  0  1  0  0  0  0  0999 V2000
    7.0648  -21.1112   20.6172 C   0  0  0  0  0  0  0  0  0  0  0  0
    8.6598  -20.9642   19.7666 S   0  0  0  0  0  0  0  0  0  0  0  0
    8.7965  -19.2589   19.1619 C   0  0  0  0  0  0  0  0  0  0  0  0
    8.8788  -18.3609   20.3829 C   0  0  0  0  0  0  0  0  0  0  0  0
    8.8543  -16.8926   20.0124 C   0  0  2  0  0  0  0  0  0  0  0  0
    9.9885  -16.6421   19.1492 N   0  0  0  0  0  0  0  0  0  0  0  0
    8.9731  -16.1210   21.2662 C   0  0  0  0  0  0  0  0  0  0  0  0
   10.1161  -15.9982   21.7660 O   0  0  0  0  0  0  0  0  0  0  0  0
    7.9064  -15.5093   21.9502 N   0  0  0  0  0  0  0  0  0  0  0  0
    8.0628  -14.8507   23.1982 C   0  0  1  0  0  0  0  0  0  0  0  0
    6.8746  -14.0855   23.6759 C   0  0  0  0  0  0  0  0  0  0  0  0
    7.0440  -13.4296   24.9728 C   0  0  0  0  0  0  0  0  0  0  0  0
    7.9677  -12.3889   25.1327 C   0  0  0  0  0  0  0  0  0  0  0  0
    8.1541  -11.7468   26.3380 C   0  0  0  0  0  0  0  0  0  0  0  0
    7.4222  -12.1148   27.4505 C   0  0  0  0  0  0  0  0  0  0  0  0
    6.5138  -13.1295   27.3171 C   0  0  0  0  0  0  0  0  0  0  0  0
    6.3382  -13.7639   26.1018 C   0  0  0  0  0  0  0  0  0  0  0  0
    8.5108  -15.7781   24.2593 C   0  0  0  0  0  0  0  0  0  0  0  0
    7.7672  -16.7700   24.5739 O   0  0  0  0  0  0  0  0  0  0  0  0
    9.7192  -15.6572   24.9653 N   0  0  0  0  0  0  0  0  0  0  0  0
   10.2634  -16.6969   25.8447 C   0  0  1  0  0  0  0  0  0  0  0  0
   11.7232  -16.9167   25.5152 C   0  0  0  0  0  0  0  0  0  0  0  0
   11.9107  -18.2762   24.9192 C   0  0  0  0  0  0  0  0  0  0  0  0
   13.3289  -18.4271   24.4700 C   0  0  0  0  0  0  0  0  0  0  0  0
   13.6947  -19.5056   23.9850 O   0  0  0  0  0  0  0  0  0  0  0  0
   10.1431  -16.2119   27.2214 C   0  0  0  0  0  0  0  0  0  0  0  0
    9.5731  -14.9767   27.4773 O   0  0  0  0  0  0  0  0  0  0  0  0
   14.1938  -17.3689   24.6045 O   0  0  0  0  0  0  0  0  0  0  0  0
   10.5355  -16.8634   28.2001 O   0  0  0  0  0  0  0  0  0  0  0  0
  2  1  1  0
  3  2  1  0
  4  3  1  0
  5  4  1  0
  5  6  1  6
  7  5  1  0
  7  8  2  0
  9  7  1  0
 10  9  1  0
 10 11  1  1
 12 11  1  0
 12 13  2  0
 14 13  1  0
 15 14  2  0
 16 17  2  0
 16 15  1  0
 17 12  1  0
 18 10  1  0
 19 18  2  0
 20 18  1  0
 21 20  1  0
 21 22  1  6
 22 23  1  0
 23 24  1  0
 24 25  2  0
 24 28  1  0
 26 27  1  0
 26 21  1  0
 29 26  2  0
M  END
$$$$
