MFE.pdb
     RDKit          3D

 29 29  0  0  1  0  0  0  0  0999 V2000
    7.5280  -11.2465   19.9241 C   0  0  0  0  0  0  0  0  0  0  0  0
    7.5074  -12.4275   18.5478 S   0  0  0  0  0  0  0  0  0  0  0  0
    7.2372  -14.0772   19.2534 C   0  0  0  0  0  0  0  0  0  0  0  0
    8.0049  -14.1310   20.5617 C   0  0  0  0  0  0  0  0  0  0  0  0
    8.2622  -15.5537   21.0129 C   0  0  2  0  0  0  0  0  0  0  0  0
    6.9918  -16.2467   21.0148 N   0  0  0  0  0  0  0  0  0  0  0  0
    8.8219  -15.4874   22.3780 C   0  0  0  0  0  0  0  0  0  0  0  0
    9.9693  -15.0007   22.5118 O   0  0  0  0  0  0  0  0  0  0  0  0
    8.1726  -15.9264   23.5467 N   0  0  0  0  0  0  0  0  0  0  0  0
    8.7197  -15.7589   24.8460 C   0  0  1  0  0  0  0  0  0  0  0  0
    7.7262  -15.6277   25.9511 C   0  0  0  0  0  0  0  0  0  0  0  0
    7.1222  -14.3015   26.0834 C   0  0  0  0  0  0  0  0  0  0  0  0
    5.7668  -14.1008   25.7930 C   0  0  0  0  0  0  0  0  0  0  0  0
    5.1629  -12.8670   25.9071 C   0  0  0  0  0  0  0  0  0  0  0  0
    5.8878  -11.7656   26.3196 C   0  0  0  0  0  0  0  0  0  0  0  0
    7.2141  -11.9387   26.6086 C   0  0  0  0  0  0  0  0  0  0  0  0
    7.8056  -13.1823   26.4894 C   0  0  0  0  0  0  0  0  0  0  0  0
    9.6886  -16.8254   25.1786 C   0  0  0  0  0  0  0  0  0  0  0  0
    9.2954  -18.0423   25.1895 O   0  0  0  0  0  0  0  0  0  0  0  0
   11.0411  -16.6052   25.4879 N   0  0  0  0  0  0  0  0  0  0  0  0
   11.9850  -17.6692   25.8447 C   0  0  1  0  0  0  0  0  0  0  0  0
   13.3804  -17.2601   25.4280 C   0  0  0  0  0  0  0  0  0  0  0  0
   13.3818  -16.8513   23.9888 C   0  0  0  0  0  0  0  0  0  0  0  0
   14.7720  -16.4803   23.5822 C   0  0  0  0  0  0  0  0  0  0  0  0
   15.0779  -16.5159   22.3833 O   0  0  0  0  0  0  0  0  0  0  0  0
   11.9380  -17.8251   27.3002 C   0  0  0  0  0  0  0  0  0  0  0  0
   12.6310  -18.8548   27.9130 O   0  0  0  0  0  0  0  0  0  0  0  0
   15.6783  -16.1086   24.5447 O   0  0  0  0  0  0  0  0  0  0  0  0
   11.2925  -17.0656   28.0369 O   0  0  0  0  0  0  0  0  0  0  0  0
  2  1  1  0
  3  2  1  0
  4  3  1  0
  5  4  1  0
  5  6  1  1
  7  5  1  0
  7  8  2  0
  9  7  1  0
 10  9  1  0
 10 11  1  1
 12 11  1  0
 12 13  2  0
 14 13  1  0
 15 14  2  0
 16 17  2  0
 16 15  1  0
 17 12  1  0
 18 10  1  0
 19 18  2  0
 20 18  1  0
 21 20  1  0
 21 22  1  1
 22 23  1  0
 23 24  1  0
 24 25  2  0
 24 28  1  0
 26 27  1  0
 26 21  1  0
 29 26  2  0
M  END
$$$$
