MFE.pdb
     RDKit          3D

 29 29  0  0  1  0  0  0  0  0999 V2000
    7.9021  -11.8397   18.7420 C   0  0  0  0  0  0  0  0  0  0  0  0
    6.6228  -13.0118   18.2137 S   0  0  0  0  0  0  0  0  0  0  0  0
    7.0869  -14.6452   18.8532 C   0  0  0  0  0  0  0  0  0  0  0  0
    8.2312  -14.4311   19.8272 C   0  0  0  0  0  0  0  0  0  0  0  0
    8.6483  -15.7185   20.5074 C   0  0  2  0  0  0  0  0  0  0  0  0
    7.4904  -16.5856   20.5465 N   0  0  0  0  0  0  0  0  0  0  0  0
    9.0860  -15.3713   21.8746 C   0  0  0  0  0  0  0  0  0  0  0  0
   10.1873  -14.7858   22.0003 O   0  0  0  0  0  0  0  0  0  0  0  0
    8.3677  -15.6436   23.0535 N   0  0  0  0  0  0  0  0  0  0  0  0
    8.8381  -15.2913   24.3459 C   0  0  1  0  0  0  0  0  0  0  0  0
    7.7822  -15.0391   25.3690 C   0  0  0  0  0  0  0  0  0  0  0  0
    8.2636  -14.4553   26.6213 C   0  0  0  0  0  0  0  0  0  0  0  0
    8.0227  -13.1086   26.9217 C   0  0  0  0  0  0  0  0  0  0  0  0
    8.4592  -12.5242   28.0912 C   0  0  0  0  0  0  0  0  0  0  0  0
    9.1626  -13.2608   29.0246 C   0  0  0  0  0  0  0  0  0  0  0  0
    9.4095  -14.5789   28.7517 C   0  0  0  0  0  0  0  0  0  0  0  0
    8.9652  -15.1508   27.5744 C   0  0  0  0  0  0  0  0  0  0  0  0
    9.8054  -16.2798   24.8694 C   0  0  0  0  0  0  0  0  0  0  0  0
    9.4125  -17.4756   25.0959 O   0  0  0  0  0  0  0  0  0  0  0  0
   11.1561  -16.0061   25.1417 N   0  0  0  0  0  0  0  0  0  0  0  0
   12.2033  -17.0303   25.2106 C   0  0  1  0  0  0  0  0  0  0  0  0
   13.4884  -16.4705   24.6423 C   0  0  0  0  0  0  0  0  0  0  0  0
   14.6005  -17.4523   24.8368 C   0  0  0  0  0  0  0  0  0  0  0  0
   15.8590  -16.8951   24.2526 C   0  0  0  0  0  0  0  0  0  0  0  0
   16.9168  -17.5223   24.3933 O   0  0  0  0  0  0  0  0  0  0  0  0
   12.3994  -17.3605   26.6239 C   0  0  0  0  0  0  0  0  0  0  0  0
   11.8575  -16.5535   27.6093 O   0  0  0  0  0  0  0  0  0  0  0  0
   15.8154  -15.7020   23.5738 O   0  0  0  0  0  0  0  0  0  0  0  0
   13.0436  -18.3505   26.9996 O   0  0  0  0  0  0  0  0  0  0  0  0
  2  1  1  0
  3  2  1  0
  4  3  1  0
  5  4  1  0
  5  6  1  1
  7  5  1  0
  7  8  2  0
  9  7  1  0
 10  9  1  0
 10 11  1  1
 12 11  1  0
 12 13  2  0
 14 13  1  0
 15 14  2  0
 16 17  2  0
 16 15  1  0
 17 12  1  0
 18 10  1  0
 19 18  2  0
 20 18  1  0
 21 20  1  0
 21 22  1  1
 22 23  1  0
 23 24  1  0
 24 25  2  0
 24 28  1  0
 26 27  1  0
 26 21  1  0
 29 26  2  0
M  END
$$$$
