MFE.pdb
     RDKit          3D

 29 29  0  0  1  0  0  0  0  0999 V2000
    7.9573  -13.1510   16.2540 C   0  0  0  0  0  0  0  0  0  0  0  0
    8.7096  -14.5065   15.3129 S   0  0  0  0  0  0  0  0  0  0  0  0
    8.6108  -15.9993   16.3397 C   0  0  0  0  0  0  0  0  0  0  0  0
    9.1934  -15.6440   17.6955 C   0  0  0  0  0  0  0  0  0  0  0  0
    9.7533  -16.8564   18.4100 C   0  0  2  0  0  0  0  0  0  0  0  0
    8.6947  -17.8395   18.4950 N   0  0  0  0  0  0  0  0  0  0  0  0
   10.1681  -16.4192   19.7584 C   0  0  0  0  0  0  0  0  0  0  0  0
   11.1141  -15.6006   19.8375 O   0  0  0  0  0  0  0  0  0  0  0  0
    9.5882  -16.8461   20.9673 N   0  0  0  0  0  0  0  0  0  0  0  0
    9.9409  -16.3016   22.2301 C   0  0  1  0  0  0  0  0  0  0  0  0
    8.8096  -15.7558   23.0348 C   0  0  0  0  0  0  0  0  0  0  0  0
    8.0382  -14.7001   22.3779 C   0  0  0  0  0  0  0  0  0  0  0  0
    8.4350  -13.3601   22.4725 C   0  0  0  0  0  0  0  0  0  0  0  0
    7.7348  -12.3390   21.8666 C   0  0  0  0  0  0  0  0  0  0  0  0
    6.5963  -12.6077   21.1315 C   0  0  0  0  0  0  0  0  0  0  0  0
    6.1902  -13.9102   21.0259 C   0  0  0  0  0  0  0  0  0  0  0  0
    6.9030  -14.9233   21.6392 C   0  0  0  0  0  0  0  0  0  0  0  0
   10.7102  -17.2624   23.0500 C   0  0  0  0  0  0  0  0  0  0  0  0
   10.2713  -18.4558   23.1860 O   0  0  0  0  0  0  0  0  0  0  0  0
   11.9165  -16.9640   23.7051 N   0  0  0  0  0  0  0  0  0  0  0  0
   12.6612  -17.9213   24.5294 C   0  0  1  0  0  0  0  0  0  0  0  0
   14.1261  -17.5441   24.5334 C   0  0  0  0  0  0  0  0  0  0  0  0
   14.6560  -17.5483   23.1342 C   0  0  0  0  0  0  0  0  0  0  0  0
   15.7087  -16.4948   23.0017 C   0  0  0  0  0  0  0  0  0  0  0  0
   16.2243  -16.2955   21.8942 O   0  0  0  0  0  0  0  0  0  0  0  0
   12.1315  -17.8299   25.8917 C   0  0  0  0  0  0  0  0  0  0  0  0
   12.5941  -18.6844   26.8775 O   0  0  0  0  0  0  0  0  0  0  0  0
   16.0810  -15.7722   24.1087 O   0  0  0  0  0  0  0  0  0  0  0  0
   11.2655  -17.0070   26.2222 O   0  0  0  0  0  0  0  0  0  0  0  0
  2  1  1  0
  3  2  1  0
  4  3  1  0
  5  4  1  0
  5  6  1  1
  7  5  1  0
  7  8  2  0
  9  7  1  0
 10  9  1  0
 10 11  1  1
 12 11  1  0
 12 13  2  0
 14 13  1  0
 15 14  2  0
 16 17  2  0
 16 15  1  0
 17 12  1  0
 18 10  1  0
 19 18  2  0
 20 18  1  0
 21 20  1  0
 21 22  1  1
 22 23  1  0
 23 24  1  0
 24 25  2  0
 24 28  1  0
 26 27  1  0
 26 21  1  0
 29 26  2  0
M  END
$$$$
