MFE.pdb
     RDKit          3D

 29 29  0  0  1  0  0  0  0  0999 V2000
    9.2146  -20.9464   22.4739 C   0  0  0  0  0  0  0  0  0  0  0  0
    9.7278  -20.9881   20.7349 S   0  0  0  0  0  0  0  0  0  0  0  0
    9.1871  -19.4327   19.9728 C   0  0  0  0  0  0  0  0  0  0  0  0
    9.9495  -18.3142   20.6596 C   0  0  0  0  0  0  0  0  0  0  0  0
    9.4491  -16.9461   20.2450 C   0  0  2  0  0  0  0  0  0  0  0  0
   10.4197  -16.3862   19.3292 N   0  0  0  0  0  0  0  0  0  0  0  0
    9.3524  -16.1243   21.4684 C   0  0  0  0  0  0  0  0  0  0  0  0
   10.3988  -15.5698   21.8793 O   0  0  0  0  0  0  0  0  0  0  0  0
    8.1791  -15.9103   22.2152 N   0  0  0  0  0  0  0  0  0  0  0  0
    8.1435  -15.1145   23.3904 C   0  0  1  0  0  0  0  0  0  0  0  0
    6.8194  -14.5117   23.7201 C   0  0  0  0  0  0  0  0  0  0  0  0
    6.7864  -13.7359   24.9602 C   0  0  0  0  0  0  0  0  0  0  0  0
    7.3031  -12.4347   25.0037 C   0  0  0  0  0  0  0  0  0  0  0  0
    7.2886  -11.6733   26.1526 C   0  0  0  0  0  0  0  0  0  0  0  0
    6.7536  -12.1772   27.3225 C   0  0  0  0  0  0  0  0  0  0  0  0
    6.2431  -13.4467   27.3029 C   0  0  0  0  0  0  0  0  0  0  0  0
    6.2649  -14.1981   26.1429 C   0  0  0  0  0  0  0  0  0  0  0  0
    8.6588  -15.8459   24.5679 C   0  0  0  0  0  0  0  0  0  0  0  0
    8.0529  -16.9021   24.9589 O   0  0  0  0  0  0  0  0  0  0  0  0
    9.7908  -15.4670   25.3086 N   0  0  0  0  0  0  0  0  0  0  0  0
   10.4241  -16.3096   26.3281 C   0  0  1  0  0  0  0  0  0  0  0  0
   11.9276  -16.1985   26.2051 C   0  0  0  0  0  0  0  0  0  0  0  0
   12.3679  -16.7122   24.8707 C   0  0  0  0  0  0  0  0  0  0  0  0
   13.8513  -16.5678   24.7509 C   0  0  0  0  0  0  0  0  0  0  0  0
   14.5817  -17.4462   25.2275 O   0  0  0  0  0  0  0  0  0  0  0  0
   10.0041  -15.8029   27.6364 C   0  0  0  0  0  0  0  0  0  0  0  0
   10.3184  -16.5035   28.7881 O   0  0  0  0  0  0  0  0  0  0  0  0
   14.3714  -15.4665   24.1162 O   0  0  0  0  0  0  0  0  0  0  0  0
    9.3628  -14.7515   27.7756 O   0  0  0  0  0  0  0  0  0  0  0  0
  2  1  1  0
  3  2  1  0
  4  3  1  0
  5  4  1  0
  5  6  1  6
  7  5  1  0
  7  8  2  0
  9  7  1  0
 10  9  1  0
 10 11  1  1
 12 11  1  0
 12 13  2  0
 14 13  1  0
 15 14  2  0
 16 17  2  0
 16 15  1  0
 17 12  1  0
 18 10  1  0
 19 18  2  0
 20 18  1  0
 21 20  1  0
 21 22  1  1
 22 23  1  0
 23 24  1  0
 24 25  2  0
 24 28  1  0
 26 27  1  0
 26 21  1  0
 29 26  2  0
M  END
$$$$
