MFE.pdb
     RDKit          3D

 29 29  0  0  1  0  0  0  0  0999 V2000
    6.4856  -20.4945   19.9596 C   0  0  0  0  0  0  0  0  0  0  0  0
    8.1550  -20.4968   19.2510 S   0  0  0  0  0  0  0  0  0  0  0  0
    8.5638  -18.7820   18.8214 C   0  0  0  0  0  0  0  0  0  0  0  0
    8.3544  -17.9494   20.0732 C   0  0  0  0  0  0  0  0  0  0  0  0
    8.6318  -16.4800   19.8327 C   0  0  2  0  0  0  0  0  0  0  0  0
    9.8434  -16.3883   19.0467 N   0  0  0  0  0  0  0  0  0  0  0  0
    8.8181  -15.8461   21.1536 C   0  0  0  0  0  0  0  0  0  0  0  0
    9.9870  -15.7666   21.5995 O   0  0  0  0  0  0  0  0  0  0  0  0
    7.7894  -15.3214   21.9575 N   0  0  0  0  0  0  0  0  0  0  0  0
    8.0162  -14.7815   23.2509 C   0  0  1  0  0  0  0  0  0  0  0  0
    6.9230  -13.9219   23.7907 C   0  0  0  0  0  0  0  0  0  0  0  0
    7.1569  -13.3996   25.1374 C   0  0  0  0  0  0  0  0  0  0  0  0
    7.9492  -12.2616   25.3355 C   0  0  0  0  0  0  0  0  0  0  0  0
    8.1908  -11.7401   26.5883 C   0  0  0  0  0  0  0  0  0  0  0  0
    7.6495  -12.3333   27.7125 C   0  0  0  0  0  0  0  0  0  0  0  0
    6.8721  -13.4466   27.5423 C   0  0  0  0  0  0  0  0  0  0  0  0
    6.6389  -13.9578   26.2795 C   0  0  0  0  0  0  0  0  0  0  0  0
    8.3493  -15.8321   24.2368 C   0  0  0  0  0  0  0  0  0  0  0  0
    7.6275  -16.8865   24.2908 O   0  0  0  0  0  0  0  0  0  0  0  0
    9.4236  -15.7661   25.1395 N   0  0  0  0  0  0  0  0  0  0  0  0
    9.9558  -16.9223   25.8678 C   0  0  1  0  0  0  0  0  0  0  0  0
   11.2086  -17.4145   25.1777 C   0  0  0  0  0  0  0  0  0  0  0  0
   11.7910  -18.5628   25.9397 C   0  0  0  0  0  0  0  0  0  0  0  0
   13.0101  -19.0588   25.2301 C   0  0  0  0  0  0  0  0  0  0  0  0
   14.0709  -19.1647   25.8591 O   0  0  0  0  0  0  0  0  0  0  0  0
   10.2907  -16.4706   27.2201 C   0  0  0  0  0  0  0  0  0  0  0  0
   10.5131  -17.3936   28.2274 O   0  0  0  0  0  0  0  0  0  0  0  0
   12.9278  -19.3857   23.8988 O   0  0  0  0  0  0  0  0  0  0  0  0
   10.3881  -15.2729   27.5237 O   0  0  0  0  0  0  0  0  0  0  0  0
  2  1  1  0
  3  2  1  0
  4  3  1  0
  5  4  1  0
  5  6  1  6
  7  5  1  0
  7  8  2  0
  9  7  1  0
 10  9  1  0
 10 11  1  1
 12 11  1  0
 12 13  2  0
 14 13  1  0
 15 14  2  0
 16 17  2  0
 16 15  1  0
 17 12  1  0
 18 10  1  0
 19 18  2  0
 20 18  1  0
 21 20  1  0
 21 22  1  6
 22 23  1  0
 23 24  1  0
 24 25  2  0
 24 28  1  0
 26 27  1  0
 26 21  1  0
 29 26  2  0
M  END
$$$$
