MFE.pdb
     RDKit          3D

 29 29  0  0  1  0  0  0  0  0999 V2000
    8.4289  -11.9595   18.9897 C   0  0  0  0  0  0  0  0  0  0  0  0
    8.1396  -13.2746   17.7749 S   0  0  0  0  0  0  0  0  0  0  0  0
    7.9707  -14.8315   18.6914 C   0  0  0  0  0  0  0  0  0  0  0  0
    9.1886  -14.9515   19.5894 C   0  0  0  0  0  0  0  0  0  0  0  0
    9.1211  -16.1748   20.4798 C   0  0  2  0  0  0  0  0  0  0  0  0
    7.8344  -16.8008   20.2634 N   0  0  0  0  0  0  0  0  0  0  0  0
    9.2462  -15.7095   21.8760 C   0  0  0  0  0  0  0  0  0  0  0  0
   10.3751  -15.3227   22.2599 O   0  0  0  0  0  0  0  0  0  0  0  0
    8.2001  -15.6634   22.8159 N   0  0  0  0  0  0  0  0  0  0  0  0
    8.3750  -15.2026   24.1474 C   0  0  1  0  0  0  0  0  0  0  0  0
    7.3045  -14.3003   24.6624 C   0  0  0  0  0  0  0  0  0  0  0  0
    7.5520  -13.7470   25.9942 C   0  0  0  0  0  0  0  0  0  0  0  0
    6.5806  -12.9695   26.6374 C   0  0  0  0  0  0  0  0  0  0  0  0
    6.7772  -12.4328   27.8917 C   0  0  0  0  0  0  0  0  0  0  0  0
    7.9615  -12.6475   28.5699 C   0  0  0  0  0  0  0  0  0  0  0  0
    8.9248  -13.4044   27.9601 C   0  0  0  0  0  0  0  0  0  0  0  0
    8.7129  -13.9360   26.7019 C   0  0  0  0  0  0  0  0  0  0  0  0
    8.5769  -16.3191   25.0958 C   0  0  0  0  0  0  0  0  0  0  0  0
    7.5793  -17.0531   25.4147 O   0  0  0  0  0  0  0  0  0  0  0  0
    9.8075  -16.6498   25.6871 N   0  0  0  0  0  0  0  0  0  0  0  0
   10.0541  -17.8899   26.4298 C   0  0  1  0  0  0  0  0  0  0  0  0
   10.9985  -18.7674   25.6384 C   0  0  0  0  0  0  0  0  0  0  0  0
   12.3263  -18.0916   25.5020 C   0  0  0  0  0  0  0  0  0  0  0  0
   13.1736  -18.8580   24.5374 C   0  0  0  0  0  0  0  0  0  0  0  0
   13.9252  -18.2389   23.7732 O   0  0  0  0  0  0  0  0  0  0  0  0
   10.6824  -17.5209   27.7003 C   0  0  0  0  0  0  0  0  0  0  0  0
   10.7215  -18.4261   28.7467 O   0  0  0  0  0  0  0  0  0  0  0  0
   13.1005  -20.2292   24.5192 O   0  0  0  0  0  0  0  0  0  0  0  0
   11.1956  -16.4102   27.8985 O   0  0  0  0  0  0  0  0  0  0  0  0
  2  1  1  0
  3  2  1  0
  4  3  1  0
  5  4  1  0
  5  6  1  1
  7  5  1  0
  7  8  2  0
  9  7  1  0
 10  9  1  0
 10 11  1  1
 12 11  1  0
 12 13  2  0
 14 13  1  0
 15 14  2  0
 16 17  2  0
 16 15  1  0
 17 12  1  0
 18 10  1  0
 19 18  2  0
 20 18  1  0
 21 20  1  0
 21 22  1  6
 22 23  1  0
 23 24  1  0
 24 25  2  0
 24 28  1  0
 26 27  1  0
 26 21  1  0
 29 26  2  0
M  END
$$$$
