MFE.pdb
     RDKit          3D

 29 29  0  0  1  0  0  0  0  0999 V2000
    9.1163  -21.8450   18.1539 C   0  0  0  0  0  0  0  0  0  0  0  0
    9.6121  -20.6435   19.4186 S   0  0  0  0  0  0  0  0  0  0  0  0
    8.5081  -19.2114   19.2679 C   0  0  0  0  0  0  0  0  0  0  0  0
    8.9803  -18.1796   20.2761 C   0  0  0  0  0  0  0  0  0  0  0  0
    8.5729  -16.7741   19.8857 C   0  0  2  0  0  0  0  0  0  0  0  0
    9.4660  -16.3379   18.8339 N   0  0  0  0  0  0  0  0  0  0  0  0
    8.7243  -15.9239   21.0839 C   0  0  0  0  0  0  0  0  0  0  0  0
    9.8701  -15.4875   21.3449 O   0  0  0  0  0  0  0  0  0  0  0  0
    7.6859  -15.5609   21.9614 N   0  0  0  0  0  0  0  0  0  0  0  0
    7.8994  -14.8008   23.1414 C   0  0  1  0  0  0  0  0  0  0  0  0
    6.6898  -14.1353   23.7065 C   0  0  0  0  0  0  0  0  0  0  0  0
    6.9044  -13.4405   24.9761 C   0  0  0  0  0  0  0  0  0  0  0  0
    7.6928  -12.2842   25.0342 C   0  0  0  0  0  0  0  0  0  0  0  0
    7.9165  -11.6023   26.2111 C   0  0  0  0  0  0  0  0  0  0  0  0
    7.3601  -12.0445   27.3957 C   0  0  0  0  0  0  0  0  0  0  0  0
    6.5861  -13.1726   27.3623 C   0  0  0  0  0  0  0  0  0  0  0  0
    6.3709  -13.8456   26.1743 C   0  0  0  0  0  0  0  0  0  0  0  0
    8.5630  -15.5956   24.1973 C   0  0  0  0  0  0  0  0  0  0  0  0
    7.9981  -16.6615   24.6218 O   0  0  0  0  0  0  0  0  0  0  0  0
    9.7967  -15.2684   24.7842 N   0  0  0  0  0  0  0  0  0  0  0  0
   10.6740  -16.2397   25.4456 C   0  0  1  0  0  0  0  0  0  0  0  0
   12.1170  -15.8578   25.2009 C   0  0  0  0  0  0  0  0  0  0  0  0
   13.0239  -16.8642   25.8358 C   0  0  0  0  0  0  0  0  0  0  0  0
   14.2580  -17.0108   25.0044 C   0  0  0  0  0  0  0  0  0  0  0  0
   14.5297  -16.1363   24.1716 O   0  0  0  0  0  0  0  0  0  0  0  0
   10.3910  -16.1777   26.8812 C   0  0  0  0  0  0  0  0  0  0  0  0
    9.7005  -15.1003   27.4089 O   0  0  0  0  0  0  0  0  0  0  0  0
   15.0623  -18.1098   25.1815 O   0  0  0  0  0  0  0  0  0  0  0  0
   10.7464  -17.0608   27.6749 O   0  0  0  0  0  0  0  0  0  0  0  0
  2  1  1  0
  3  2  1  0
  4  3  1  0
  5  4  1  0
  5  6  1  6
  7  5  1  0
  7  8  2  0
  9  7  1  0
 10  9  1  0
 10 11  1  1
 12 11  1  0
 12 13  2  0
 14 13  1  0
 15 14  2  0
 16 17  2  0
 16 15  1  0
 17 12  1  0
 18 10  1  0
 19 18  2  0
 20 18  1  0
 21 20  1  0
 21 22  1  1
 22 23  1  0
 23 24  1  0
 24 25  2  0
 24 28  1  0
 26 27  1  0
 26 21  1  0
 29 26  2  0
M  END
$$$$
