MFE.pdb
     RDKit          3D

 29 29  0  0  1  0  0  0  0  0999 V2000
    8.8409  -11.4289   19.6885 C   0  0  0  0  0  0  0  0  0  0  0  0
    7.4167  -12.2498   18.9223 S   0  0  0  0  0  0  0  0  0  0  0  0
    7.5878  -14.0300   19.2288 C   0  0  0  0  0  0  0  0  0  0  0  0
    8.1397  -14.1869   20.6340 C   0  0  0  0  0  0  0  0  0  0  0  0
    8.3341  -15.6410   21.0104 C   0  0  2  0  0  0  0  0  0  0  0  0
    7.0596  -16.3070   20.8486 N   0  0  0  0  0  0  0  0  0  0  0  0
    8.7647  -15.6756   22.4227 C   0  0  0  0  0  0  0  0  0  0  0  0
    9.9610  -15.3957   22.6718 O   0  0  0  0  0  0  0  0  0  0  0  0
    7.9415  -15.9977   23.5175 N   0  0  0  0  0  0  0  0  0  0  0  0
    8.3888  -15.9473   24.8640 C   0  0  1  0  0  0  0  0  0  0  0  0
    7.3536  -15.5795   25.8732 C   0  0  0  0  0  0  0  0  0  0  0  0
    7.1855  -14.1420   26.0887 C   0  0  0  0  0  0  0  0  0  0  0  0
    5.9243  -13.5440   25.9719 C   0  0  0  0  0  0  0  0  0  0  0  0
    5.7270  -12.1941   26.1687 C   0  0  0  0  0  0  0  0  0  0  0  0
    6.7865  -11.3694   26.4939 C   0  0  0  0  0  0  0  0  0  0  0  0
    8.0281  -11.9325   26.6132 C   0  0  0  0  0  0  0  0  0  0  0  0
    8.2101  -13.2880   26.4129 C   0  0  0  0  0  0  0  0  0  0  0  0
    9.0507  -17.2049   25.2731 C   0  0  0  0  0  0  0  0  0  0  0  0
    8.3623  -18.2814   25.3279 O   0  0  0  0  0  0  0  0  0  0  0  0
   10.4095  -17.3167   25.6115 N   0  0  0  0  0  0  0  0  0  0  0  0
   11.0820  -18.5880   25.8977 C   0  0  1  0  0  0  0  0  0  0  0  0
   12.4781  -18.5572   25.3163 C   0  0  0  0  0  0  0  0  0  0  0  0
   13.2101  -19.8088   25.6851 C   0  0  0  0  0  0  0  0  0  0  0  0
   14.5970  -19.7518   25.1292 C   0  0  0  0  0  0  0  0  0  0  0  0
   15.3532  -18.8411   25.4909 O   0  0  0  0  0  0  0  0  0  0  0  0
   11.1641  -18.7209   27.3539 C   0  0  0  0  0  0  0  0  0  0  0  0
   10.9418  -17.6230   28.1670 O   0  0  0  0  0  0  0  0  0  0  0  0
   15.0019  -20.7086   24.2309 O   0  0  0  0  0  0  0  0  0  0  0  0
   11.4308  -19.7924   27.9170 O   0  0  0  0  0  0  0  0  0  0  0  0
  2  1  1  0
  3  2  1  0
  4  3  1  0
  5  4  1  0
  5  6  1  1
  7  5  1  0
  7  8  2  0
  9  7  1  0
 10  9  1  0
 10 11  1  1
 12 11  1  0
 12 13  2  0
 14 13  1  0
 15 14  2  0
 16 17  2  0
 16 15  1  0
 17 12  1  0
 18 10  1  0
 19 18  2  0
 20 18  1  0
 21 20  1  0
 21 22  1  6
 22 23  1  0
 23 24  1  0
 24 25  2  0
 24 28  1  0
 26 27  1  0
 26 21  1  0
 29 26  2  0
M  END
$$$$
