MFE.pdb
     RDKit          3D

 29 29  0  0  1  0  0  0  0  0999 V2000
    9.2747  -21.1424   21.6609 C   0  0  0  0  0  0  0  0  0  0  0  0
   10.4697  -20.9203   20.3148 S   0  0  0  0  0  0  0  0  0  0  0  0
   10.3522  -19.1951   19.7650 C   0  0  0  0  0  0  0  0  0  0  0  0
    9.3694  -18.5009   20.6904 C   0  0  0  0  0  0  0  0  0  0  0  0
    9.1053  -17.0699   20.2704 C   0  0  2  0  0  0  0  0  0  0  0  0
   10.1458  -16.6901   19.3391 N   0  0  0  0  0  0  0  0  0  0  0  0
    9.1658  -16.2363   21.4880 C   0  0  0  0  0  0  0  0  0  0  0  0
   10.2935  -15.8368   21.8624 O   0  0  0  0  0  0  0  0  0  0  0  0
    8.0592  -15.8509   22.2670 N   0  0  0  0  0  0  0  0  0  0  0  0
    8.1715  -15.0265   23.4175 C   0  0  1  0  0  0  0  0  0  0  0  0
    6.9468  -14.2553   23.7791 C   0  0  0  0  0  0  0  0  0  0  0  0
    7.0686  -13.4335   24.9836 C   0  0  0  0  0  0  0  0  0  0  0  0
    7.8778  -12.2902   24.9905 C   0  0  0  0  0  0  0  0  0  0  0  0
    8.0163  -11.4913   26.1052 C   0  0  0  0  0  0  0  0  0  0  0  0
    7.3490  -11.7969   27.2757 C   0  0  0  0  0  0  0  0  0  0  0  0
    6.5528  -12.9097   27.2915 C   0  0  0  0  0  0  0  0  0  0  0  0
    6.4240  -13.7011   26.1656 C   0  0  0  0  0  0  0  0  0  0  0  0
    8.6418  -15.7855   24.5964 C   0  0  0  0  0  0  0  0  0  0  0  0
    7.9873  -16.8172   24.9742 O   0  0  0  0  0  0  0  0  0  0  0  0
    9.7802  -15.4590   25.3520 N   0  0  0  0  0  0  0  0  0  0  0  0
   10.3913  -16.3512   26.3424 C   0  0  1  0  0  0  0  0  0  0  0  0
   11.8926  -16.3497   26.1577 C   0  0  0  0  0  0  0  0  0  0  0  0
   12.2341  -16.7836   24.7672 C   0  0  0  0  0  0  0  0  0  0  0  0
   13.7199  -16.7794   24.5994 C   0  0  0  0  0  0  0  0  0  0  0  0
   14.4231  -16.2647   25.4785 O   0  0  0  0  0  0  0  0  0  0  0  0
   10.0637  -15.8222   27.6682 C   0  0  0  0  0  0  0  0  0  0  0  0
   10.3902  -16.5412   28.8051 O   0  0  0  0  0  0  0  0  0  0  0  0
   14.2721  -17.3451   23.4765 O   0  0  0  0  0  0  0  0  0  0  0  0
    9.4921  -14.7352   27.8356 O   0  0  0  0  0  0  0  0  0  0  0  0
  2  1  1  0
  3  2  1  0
  4  3  1  0
  5  4  1  0
  5  6  1  6
  7  5  1  0
  7  8  2  0
  9  7  1  0
 10  9  1  0
 10 11  1  1
 12 11  1  0
 12 13  2  0
 14 13  1  0
 15 14  2  0
 16 17  2  0
 16 15  1  0
 17 12  1  0
 18 10  1  0
 19 18  2  0
 20 18  1  0
 21 20  1  0
 21 22  1  6
 22 23  1  0
 23 24  1  0
 24 25  2  0
 24 28  1  0
 26 27  1  0
 26 21  1  0
 29 26  2  0
M  END
$$$$
