SKH.pdb
     RDKit          3D

 26 26  0  0  1  0  0  0  0  0999 V2000
   16.5572  -11.5362  -17.0703 O   0  0  0  0  0  0  0  0  0  0  0  0
   17.5635  -10.7091  -16.5870 C   0  0  0  0  0  0  0  0  0  0  0  0
   18.9211  -11.0542  -17.1943 C   0  0  2  0  0  0  0  0  0  0  0  0
   19.4457  -12.2245  -16.5547 N   0  0  0  0  0  0  0  0  0  0  0  0
   19.8728   -9.9228  -17.0657 C   0  0  0  0  0  0  0  0  0  0  0  0
   20.6959   -9.9154  -16.1152 O   0  0  0  0  0  0  0  0  0  0  0  0
   19.8980   -8.8380  -17.9739 N   0  0  0  0  0  0  0  0  0  0  0  0
   20.8949   -7.7900  -17.9287 C   0  0  1  0  0  0  0  0  0  0  0  0
   20.8765   -7.0854  -19.2532 C   0  0  0  0  0  0  0  0  0  0  0  0
   21.9334   -6.0506  -19.4097 C   0  0  0  0  0  0  0  0  0  0  0  0
   21.9030   -5.3795  -20.7673 C   0  0  0  0  0  0  0  0  0  0  0  0
   22.9989   -4.3316  -20.8626 C   0  0  0  0  0  0  0  0  0  0  0  0
   22.8805   -3.6099  -22.1078 N   0  0  0  0  0  0  0  0  0  0  0  0
   20.6335   -6.9268  -16.7849 C   0  0  0  0  0  0  0  0  0  0  0  0
   19.5043   -6.3793  -16.5542 O   0  0  0  0  0  0  0  0  0  0  0  0
   21.6696   -6.6565  -15.8528 N   0  0  0  0  0  0  0  0  0  0  0  0
   21.4498   -5.6745  -14.7880 C   0  0  1  0  0  0  0  0  0  0  0  0
   21.6349   -6.4070  -13.4760 C   0  0  0  0  0  0  0  0  0  0  0  0
   20.4921   -7.2331  -13.0825 C   0  0  0  0  0  0  0  0  0  0  0  0
   19.3139   -7.3508  -13.7944 C   0  0  0  0  0  0  0  0  0  0  0  0
   18.5429   -8.2006  -13.0837 N   0  0  0  0  0  0  0  0  0  0  0  0
   19.2250   -8.5802  -11.9900 C   0  0  0  0  0  0  0  0  0  0  0  0
   20.4173   -8.0013  -11.9697 N   0  0  0  0  0  0  0  0  0  0  0  0
   22.4731   -4.6021  -14.8441 C   0  0  0  0  0  0  0  0  0  0  0  0
   23.4833   -4.5527  -15.7833 O   0  0  0  0  0  0  0  0  0  0  0  0
   22.4138   -3.6883  -13.9860 O   0  0  0  0  0  0  0  0  0  0  0  0
  1  2  1  0
  3  2  1  0
  3  4  1  1
  5  3  1  0
  6  5  2  0
  7  5  1  0
  8  7  1  0
  8  9  1  6
 10 11  1  0
 10  9  1  0
 11 12  1  0
 13 12  1  0
 14 16  1  0
 14  8  1  0
 15 14  2  0
 17 18  1  1
 17 16  1  0
 19 18  1  0
 19 23  1  0
 20 21  1  0
 20 19  2  0
 21 22  1  0
 22 23  2  0
 24 17  1  0
 25 24  1  0
 26 24  2  0
M  END
$$$$
