SKH.pdb
     RDKit          3D

 26 26  0  0  1  0  0  0  0  0999 V2000
   28.9238  -20.8989  -17.1908 O   0  0  0  0  0  0  0  0  0  0  0  0
   27.7651  -20.4631  -16.5601 C   0  0  0  0  0  0  0  0  0  0  0  0
   27.2463  -19.1608  -17.1649 C   0  0  2  0  0  0  0  0  0  0  0  0
   28.2588  -18.1517  -17.0639 N   0  0  0  0  0  0  0  0  0  0  0  0
   26.0002  -18.7135  -16.4944 C   0  0  0  0  0  0  0  0  0  0  0  0
   26.0668  -18.2073  -15.3454 O   0  0  0  0  0  0  0  0  0  0  0  0
   24.7243  -18.8313  -17.0947 N   0  0  0  0  0  0  0  0  0  0  0  0
   23.4924  -18.5102  -16.4066 C   0  0  1  0  0  0  0  0  0  0  0  0
   22.4994  -18.0576  -17.4363 C   0  0  0  0  0  0  0  0  0  0  0  0
   22.6778  -16.6492  -17.8800 C   0  0  0  0  0  0  0  0  0  0  0  0
   21.7845  -16.2824  -19.0469 C   0  0  0  0  0  0  0  0  0  0  0  0
   21.9838  -14.8249  -19.4264 C   0  0  0  0  0  0  0  0  0  0  0  0
   21.1755  -14.5032  -20.5790 N   0  0  0  0  0  0  0  0  0  0  0  0
   23.0643  -19.6618  -15.6242 C   0  0  0  0  0  0  0  0  0  0  0  0
   23.7291  -20.7477  -15.5402 O   0  0  0  0  0  0  0  0  0  0  0  0
   21.8438  -19.6099  -14.9009 N   0  0  0  0  0  0  0  0  0  0  0  0
   21.6769  -20.4313  -13.6993 C   0  0  1  0  0  0  0  0  0  0  0  0
   22.5916  -19.8480  -12.6432 C   0  0  0  0  0  0  0  0  0  0  0  0
   23.7740  -20.6621  -12.3561 C   0  0  0  0  0  0  0  0  0  0  0  0
   24.0915  -21.8515  -12.9834 C   0  0  0  0  0  0  0  0  0  0  0  0
   25.2484  -22.2613  -12.4218 N   0  0  0  0  0  0  0  0  0  0  0  0
   25.6144  -21.3593  -11.4957 C   0  0  0  0  0  0  0  0  0  0  0  0
   24.7284  -20.3750  -11.4392 N   0  0  0  0  0  0  0  0  0  0  0  0
   20.2889  -20.3330  -13.1855 C   0  0  0  0  0  0  0  0  0  0  0  0
   19.6644  -21.3303  -12.4639 O   0  0  0  0  0  0  0  0  0  0  0  0
   19.6479  -19.2805  -13.4227 O   0  0  0  0  0  0  0  0  0  0  0  0
  1  2  1  0
  3  2  1  0
  3  4  1  1
  5  3  1  0
  6  5  2  0
  7  5  1  0
  8  7  1  0
  8  9  1  6
 10 11  1  0
 10  9  1  0
 11 12  1  0
 13 12  1  0
 14 16  1  0
 14  8  1  0
 15 14  2  0
 17 18  1  1
 17 16  1  0
 19 18  1  0
 19 23  1  0
 20 21  1  0
 20 19  2  0
 21 22  1  0
 22 23  2  0
 24 17  1  0
 25 24  1  0
 26 24  2  0
M  END
$$$$
