SKH.pdb
     RDKit          3D

 26 26  0  0  1  0  0  0  0  0999 V2000
   24.8207  -33.6163   -4.7667 O   0  0  0  0  0  0  0  0  0  0  0  0
   25.8427  -32.8090   -5.2507 C   0  0  0  0  0  0  0  0  0  0  0  0
   26.7703  -33.5728   -6.1926 C   0  0  2  0  0  0  0  0  0  0  0  0
   25.9900  -34.2404   -7.1922 N   0  0  0  0  0  0  0  0  0  0  0  0
   27.6073  -34.5486   -5.4512 C   0  0  0  0  0  0  0  0  0  0  0  0
   27.4112  -35.7794   -5.6173 O   0  0  0  0  0  0  0  0  0  0  0  0
   28.6285  -34.1543   -4.5548 N   0  0  0  0  0  0  0  0  0  0  0  0
   29.4557  -35.0966   -3.8323 C   0  0  1  0  0  0  0  0  0  0  0  0
   30.7884  -34.4481   -3.5985 C   0  0  0  0  0  0  0  0  0  0  0  0
   31.6691  -34.4118   -4.7967 C   0  0  0  0  0  0  0  0  0  0  0  0
   32.2721  -35.7619   -5.1246 C   0  0  0  0  0  0  0  0  0  0  0  0
   33.3024  -35.6247   -6.2327 C   0  0  0  0  0  0  0  0  0  0  0  0
   33.7347  -36.9328   -6.6653 N   0  0  0  0  0  0  0  0  0  0  0  0
   28.7663  -35.5086   -2.6171 C   0  0  0  0  0  0  0  0  0  0  0  0
   27.6105  -35.0857   -2.2805 O   0  0  0  0  0  0  0  0  0  0  0  0
   29.3844  -36.4314   -1.7329 N   0  0  0  0  0  0  0  0  0  0  0  0
   28.6749  -36.8682   -0.5278 C   0  0  1  0  0  0  0  0  0  0  0  0
   27.4093  -37.5562   -0.9937 C   0  0  0  0  0  0  0  0  0  0  0  0
   26.1780  -36.8344   -0.6677 C   0  0  0  0  0  0  0  0  0  0  0  0
   26.1208  -35.5838   -0.0834 C   0  0  0  0  0  0  0  0  0  0  0  0
   24.8072  -35.2986    0.0376 N   0  0  0  0  0  0  0  0  0  0  0  0
   24.1010  -36.3316   -0.4520 C   0  0  0  0  0  0  0  0  0  0  0  0
   24.9182  -37.2799   -0.8878 N   0  0  0  0  0  0  0  0  0  0  0  0
   29.4749  -37.8708    0.2173 C   0  0  0  0  0  0  0  0  0  0  0  0
   30.6710  -38.3897   -0.2356 O   0  0  0  0  0  0  0  0  0  0  0  0
   29.0354  -38.2682    1.3236 O   0  0  0  0  0  0  0  0  0  0  0  0
  1  2  1  0
  3  2  1  0
  3  4  1  6
  5  3  1  0
  6  5  2  0
  7  5  1  0
  8  7  1  0
  8  9  1  1
 10 11  1  0
 10  9  1  0
 11 12  1  0
 13 12  1  0
 14 16  1  0
 14  8  1  0
 15 14  2  0
 17 18  1  6
 17 16  1  0
 19 18  1  0
 19 23  1  0
 20 21  1  0
 20 19  2  0
 21 22  1  0
 22 23  2  0
 24 17  1  0
 25 24  1  0
 26 24  2  0
M  END
$$$$
