SKH.pdb
     RDKit          3D

 26 26  0  0  1  0  0  0  0  0999 V2000
   14.4940  -14.2691  -17.0405 O   0  0  0  0  0  0  0  0  0  0  0  0
   15.4391  -13.2662  -16.8635 C   0  0  0  0  0  0  0  0  0  0  0  0
   16.0280  -13.2848  -15.4550 C   0  0  2  0  0  0  0  0  0  0  0  0
   15.1769  -12.5426  -14.5727 N   0  0  0  0  0  0  0  0  0  0  0  0
   17.4035  -12.7279  -15.4383 C   0  0  0  0  0  0  0  0  0  0  0  0
   18.0577  -12.7350  -14.3645 O   0  0  0  0  0  0  0  0  0  0  0  0
   18.0216  -12.1823  -16.5883 N   0  0  0  0  0  0  0  0  0  0  0  0
   19.3955  -11.7286  -16.6093 C   0  0  1  0  0  0  0  0  0  0  0  0
   20.0194  -12.2217  -17.8815 C   0  0  0  0  0  0  0  0  0  0  0  0
   21.2466  -13.0387  -17.6839 C   0  0  0  0  0  0  0  0  0  0  0  0
   21.0964  -14.4579  -18.1913 C   0  0  0  0  0  0  0  0  0  0  0  0
   22.3871  -15.2320  -17.9836 C   0  0  0  0  0  0  0  0  0  0  0  0
   22.2046  -16.6069  -18.3855 N   0  0  0  0  0  0  0  0  0  0  0  0
   19.4265  -10.2814  -16.4463 C   0  0  0  0  0  0  0  0  0  0  0  0
   18.4813   -9.5069  -16.8135 O   0  0  0  0  0  0  0  0  0  0  0  0
   20.5557   -9.6621  -15.8491 N   0  0  0  0  0  0  0  0  0  0  0  0
   20.5602   -8.2127  -15.6356 C   0  0  1  0  0  0  0  0  0  0  0  0
   21.8220   -7.8907  -14.8633 C   0  0  0  0  0  0  0  0  0  0  0  0
   22.0355   -6.4613  -14.6299 C   0  0  0  0  0  0  0  0  0  0  0  0
   22.9181   -5.6644  -15.3332 C   0  0  0  0  0  0  0  0  0  0  0  0
   22.7983   -4.4304  -14.7998 N   0  0  0  0  0  0  0  0  0  0  0  0
   21.8833   -4.4791  -13.8170 C   0  0  0  0  0  0  0  0  0  0  0  0
   21.4051   -5.7094  -13.6965 N   0  0  0  0  0  0  0  0  0  0  0  0
   20.6377   -7.4922  -16.9299 C   0  0  0  0  0  0  0  0  0  0  0  0
   21.3636   -7.9390  -18.0155 O   0  0  0  0  0  0  0  0  0  0  0  0
   20.0055   -6.4138  -17.0406 O   0  0  0  0  0  0  0  0  0  0  0  0
  1  2  1  0
  3  2  1  0
  3  4  1  1
  5  3  1  0
  6  5  2  0
  7  5  1  0
  8  7  1  0
  8  9  1  6
 10 11  1  0
 10  9  1  0
 11 12  1  0
 13 12  1  0
 14 16  1  0
 14  8  1  0
 15 14  2  0
 17 18  1  1
 17 16  1  0
 19 18  1  0
 19 23  1  0
 20 21  1  0
 20 19  2  0
 21 22  1  0
 22 23  2  0
 24 17  1  0
 25 24  1  0
 26 24  2  0
M  END
$$$$
