SKH.pdb
     RDKit          3D

 26 26  0  0  1  0  0  0  0  0999 V2000
   25.4616  -12.2760  -17.6839 O   0  0  0  0  0  0  0  0  0  0  0  0
   24.3377  -11.4654  -17.7849 C   0  0  0  0  0  0  0  0  0  0  0  0
   23.0841  -12.2731  -18.1123 C   0  0  2  0  0  0  0  0  0  0  0  0
   23.1761  -12.7739  -19.4519 N   0  0  0  0  0  0  0  0  0  0  0  0
   21.8571  -11.4547  -17.9481 C   0  0  0  0  0  0  0  0  0  0  0  0
   21.6540  -10.4867  -18.7245 O   0  0  0  0  0  0  0  0  0  0  0  0
   20.8925  -11.7155  -16.9463 N   0  0  0  0  0  0  0  0  0  0  0  0
   19.7220  -10.8901  -16.7396 C   0  0  1  0  0  0  0  0  0  0  0  0
   18.6928  -11.7257  -16.0368 C   0  0  0  0  0  0  0  0  0  0  0  0
   17.3846  -11.0460  -15.8396 C   0  0  0  0  0  0  0  0  0  0  0  0
   16.3396  -11.9502  -15.2194 C   0  0  0  0  0  0  0  0  0  0  0  0
   15.0245  -11.2061  -15.0616 C   0  0  0  0  0  0  0  0  0  0  0  0
   14.0989  -12.0037  -14.2919 N   0  0  0  0  0  0  0  0  0  0  0  0
   20.1063   -9.6816  -16.0231 C   0  0  0  0  0  0  0  0  0  0  0  0
   20.8378   -9.6803  -14.9777 O   0  0  0  0  0  0  0  0  0  0  0  0
   19.6605   -8.4152  -16.4845 N   0  0  0  0  0  0  0  0  0  0  0  0
   19.9568   -7.2123  -15.7023 C   0  0  1  0  0  0  0  0  0  0  0  0
   20.6755   -6.2561  -16.6304 C   0  0  0  0  0  0  0  0  0  0  0  0
   22.0999   -6.5455  -16.8059 C   0  0  0  0  0  0  0  0  0  0  0  0
   22.8469   -7.3798  -15.9969 C   0  0  0  0  0  0  0  0  0  0  0  0
   24.0953   -7.3614  -16.5096 N   0  0  0  0  0  0  0  0  0  0  0  0
   24.1027   -6.5515  -17.5817 C   0  0  0  0  0  0  0  0  0  0  0  0
   22.8949   -6.0429  -17.7803 N   0  0  0  0  0  0  0  0  0  0  0  0
   18.7041   -6.5483  -15.2665 C   0  0  0  0  0  0  0  0  0  0  0  0
   18.6689   -5.4188  -14.4739 O   0  0  0  0  0  0  0  0  0  0  0  0
   17.6146   -7.0452  -15.6421 O   0  0  0  0  0  0  0  0  0  0  0  0
  1  2  1  0
  3  2  1  0
  3  4  1  6
  5  3  1  0
  6  5  2  0
  7  5  1  0
  8  7  1  0
  8  9  1  1
 10 11  1  0
 10  9  1  0
 11 12  1  0
 13 12  1  0
 14 16  1  0
 14  8  1  0
 15 14  2  0
 17 18  1  6
 17 16  1  0
 19 18  1  0
 19 23  1  0
 20 21  1  0
 20 19  2  0
 21 22  1  0
 22 23  2  0
 24 17  1  0
 25 24  1  0
 26 24  2  0
M  END
$$$$
