SKH.pdb
     RDKit          3D

 26 26  0  0  1  0  0  0  0  0999 V2000
   23.2548  -14.1740  -14.8089 O   0  0  0  0  0  0  0  0  0  0  0  0
   23.0552  -12.8231  -15.0656 C   0  0  0  0  0  0  0  0  0  0  0  0
   22.1655  -12.6039  -16.2868 C   0  0  2  0  0  0  0  0  0  0  0  0
   22.8045  -13.1520  -17.4465 N   0  0  0  0  0  0  0  0  0  0  0  0
   21.8724  -11.1632  -16.4889 C   0  0  0  0  0  0  0  0  0  0  0  0
   22.6338  -10.4759  -17.2161 O   0  0  0  0  0  0  0  0  0  0  0  0
   20.7624  -10.5180  -15.8941 N   0  0  0  0  0  0  0  0  0  0  0  0
   20.4590   -9.1174  -16.0949 C   0  0  1  0  0  0  0  0  0  0  0  0
   18.9785   -8.9425  -15.9256 C   0  0  0  0  0  0  0  0  0  0  0  0
   18.1736   -9.3771  -17.0985 C   0  0  0  0  0  0  0  0  0  0  0  0
   16.6836   -9.2091  -16.8840 C   0  0  0  0  0  0  0  0  0  0  0  0
   15.9188   -9.6606  -18.1166 C   0  0  0  0  0  0  0  0  0  0  0  0
   14.5036   -9.4510  -17.9199 N   0  0  0  0  0  0  0  0  0  0  0  0
   21.2669   -8.3154  -15.1862 C   0  0  0  0  0  0  0  0  0  0  0  0
   21.4296   -8.5921  -13.9513 O   0  0  0  0  0  0  0  0  0  0  0  0
   21.9255   -7.1528  -15.6659 N   0  0  0  0  0  0  0  0  0  0  0  0
   22.7965   -6.3898  -14.7684 C   0  0  1  0  0  0  0  0  0  0  0  0
   24.0257   -6.0158  -15.5694 C   0  0  0  0  0  0  0  0  0  0  0  0
   24.8709   -7.1526  -15.9390 C   0  0  0  0  0  0  0  0  0  0  0  0
   24.7916   -8.4155  -15.3845 C   0  0  0  0  0  0  0  0  0  0  0  0
   25.7406   -9.1462  -16.0066 N   0  0  0  0  0  0  0  0  0  0  0  0
   26.3664   -8.3596  -16.8983 C   0  0  0  0  0  0  0  0  0  0  0  0
   25.8511   -7.1386  -16.8734 N   0  0  0  0  0  0  0  0  0  0  0  0
   22.1407   -5.1271  -14.3492 C   0  0  0  0  0  0  0  0  0  0  0  0
   22.6650   -4.2650  -13.4074 O   0  0  0  0  0  0  0  0  0  0  0  0
   21.0452   -4.8287  -14.8839 O   0  0  0  0  0  0  0  0  0  0  0  0
  1  2  1  0
  3  2  1  0
  3  4  1  6
  5  3  1  0
  6  5  2  0
  7  5  1  0
  8  7  1  0
  8  9  1  1
 10 11  1  0
 10  9  1  0
 11 12  1  0
 13 12  1  0
 14 16  1  0
 14  8  1  0
 15 14  2  0
 17 18  1  6
 17 16  1  0
 19 18  1  0
 19 23  1  0
 20 21  1  0
 20 19  2  0
 21 22  1  0
 22 23  2  0
 24 17  1  0
 25 24  1  0
 26 24  2  0
M  END
$$$$
