SKH.pdb
     RDKit          3D

 26 26  0  0  1  0  0  0  0  0999 V2000
   12.0988  -12.2537  -10.7962 O   0  0  0  0  0  0  0  0  0  0  0  0
   13.3427  -12.2727  -11.4148 C   0  0  0  0  0  0  0  0  0  0  0  0
   13.6255  -10.9699  -12.1588 C   0  0  2  0  0  0  0  0  0  0  0  0
   12.7219  -10.8465  -13.2642 N   0  0  0  0  0  0  0  0  0  0  0  0
   15.0316  -10.9121  -12.6300 C   0  0  0  0  0  0  0  0  0  0  0  0
   15.9654  -11.0562  -11.8005 O   0  0  0  0  0  0  0  0  0  0  0  0
   15.3754  -10.6998  -13.9860 N   0  0  0  0  0  0  0  0  0  0  0  0
   16.7426  -10.6282  -14.4548 C   0  0  1  0  0  0  0  0  0  0  0  0
   16.8115  -11.3444  -15.7714 C   0  0  0  0  0  0  0  0  0  0  0  0
   17.1335  -12.7925  -15.6634 C   0  0  0  0  0  0  0  0  0  0  0  0
   17.1708  -13.4886  -17.0081 C   0  0  0  0  0  0  0  0  0  0  0  0
   17.5094  -14.9592  -16.8319 C   0  0  0  0  0  0  0  0  0  0  0  0
   17.4679  -15.6287  -18.1107 N   0  0  0  0  0  0  0  0  0  0  0  0
   17.1609   -9.2340  -14.5064 C   0  0  0  0  0  0  0  0  0  0  0  0
   16.3730   -8.2677  -14.7777 O   0  0  0  0  0  0  0  0  0  0  0  0
   18.5140   -8.8926  -14.2456 N   0  0  0  0  0  0  0  0  0  0  0  0
   18.9356   -7.4913  -14.3174 C   0  0  1  0  0  0  0  0  0  0  0  0
   20.4368   -7.4783  -14.1213 C   0  0  0  0  0  0  0  0  0  0  0  0
   21.0435   -6.1492  -14.2138 C   0  0  0  0  0  0  0  0  0  0  0  0
   20.3447   -4.9623  -14.3221 C   0  0  0  0  0  0  0  0  0  0  0  0
   21.2816   -3.9925  -14.3794 N   0  0  0  0  0  0  0  0  0  0  0  0
   22.4938   -4.5677  -14.3088 C   0  0  0  0  0  0  0  0  0  0  0  0
   22.3715   -5.8837  -14.2073 N   0  0  0  0  0  0  0  0  0  0  0  0
   18.6603   -6.9290  -15.6621 C   0  0  0  0  0  0  0  0  0  0  0  0
   18.9209   -7.5962  -16.8419 O   0  0  0  0  0  0  0  0  0  0  0  0
   18.1614   -5.7793  -15.7270 O   0  0  0  0  0  0  0  0  0  0  0  0
  1  2  1  0
  3  2  1  0
  3  4  1  6
  5  3  1  0
  6  5  2  0
  7  5  1  0
  8  7  1  0
  8  9  1  6
 10 11  1  0
 10  9  1  0
 11 12  1  0
 13 12  1  0
 14 16  1  0
 14  8  1  0
 15 14  2  0
 17 18  1  6
 17 16  1  0
 19 18  1  0
 19 23  1  0
 20 21  1  0
 20 19  2  0
 21 22  1  0
 22 23  2  0
 24 17  1  0
 25 24  1  0
 26 24  2  0
M  END
$$$$
