SKH.pdb
     RDKit          3D

 26 26  0  0  1  0  0  0  0  0999 V2000
   19.4184  -12.8930  -14.0002 O   0  0  0  0  0  0  0  0  0  0  0  0
   18.4086  -12.5245  -14.8805 C   0  0  0  0  0  0  0  0  0  0  0  0
   18.8058  -12.7718  -16.3338 C   0  0  2  0  0  0  0  0  0  0  0  0
   19.4986  -14.0224  -16.4324 N   0  0  0  0  0  0  0  0  0  0  0  0
   19.6500  -11.6691  -16.8572 C   0  0  0  0  0  0  0  0  0  0  0  0
   20.8976  -11.8180  -16.9047 O   0  0  0  0  0  0  0  0  0  0  0  0
   19.1103  -10.4425  -17.3112 N   0  0  0  0  0  0  0  0  0  0  0  0
   19.9187   -9.3792  -17.8681 C   0  0  1  0  0  0  0  0  0  0  0  0
   19.0105   -8.4790  -18.6530 C   0  0  0  0  0  0  0  0  0  0  0  0
   19.7080   -7.3680  -19.3543 C   0  0  0  0  0  0  0  0  0  0  0  0
   18.7569   -6.4514  -20.0956 C   0  0  0  0  0  0  0  0  0  0  0  0
   19.5301   -5.3605  -20.8169 C   0  0  0  0  0  0  0  0  0  0  0  0
   18.6119   -4.4676  -21.4839 N   0  0  0  0  0  0  0  0  0  0  0  0
   20.6436   -8.7135  -16.7944 C   0  0  0  0  0  0  0  0  0  0  0  0
   20.2105   -8.6224  -15.5976 O   0  0  0  0  0  0  0  0  0  0  0  0
   21.9066   -8.1208  -17.0567 N   0  0  0  0  0  0  0  0  0  0  0  0
   22.6004   -7.3904  -15.9928 C   0  0  1  0  0  0  0  0  0  0  0  0
   24.0821   -7.6199  -16.2028 C   0  0  0  0  0  0  0  0  0  0  0  0
   24.5725   -8.8964  -15.6801 C   0  0  0  0  0  0  0  0  0  0  0  0
   23.8145   -9.8094  -14.9726 C   0  0  0  0  0  0  0  0  0  0  0  0
   24.6488  -10.8313  -14.6872 N   0  0  0  0  0  0  0  0  0  0  0  0
   25.8583  -10.5486  -15.1996 C   0  0  0  0  0  0  0  0  0  0  0  0
   25.8338   -9.3722  -15.8099 N   0  0  0  0  0  0  0  0  0  0  0  0
   22.3572   -5.9321  -16.1132 C   0  0  0  0  0  0  0  0  0  0  0  0
   22.4541   -5.0475  -15.0581 O   0  0  0  0  0  0  0  0  0  0  0  0
   22.0452   -5.4798  -17.2414 O   0  0  0  0  0  0  0  0  0  0  0  0
  1  2  1  0
  3  2  1  0
  3  4  1  1
  5  3  1  0
  6  5  2  0
  7  5  1  0
  8  7  1  0
  8  9  1  1
 10 11  1  0
 10  9  1  0
 11 12  1  0
 13 12  1  0
 14 16  1  0
 14  8  1  0
 15 14  2  0
 17 18  1  6
 17 16  1  0
 19 18  1  0
 19 23  1  0
 20 21  1  0
 20 19  2  0
 21 22  1  0
 22 23  2  0
 24 17  1  0
 25 24  1  0
 26 24  2  0
M  END
$$$$
