SKH.pdb
     RDKit          3D

 26 26  0  0  1  0  0  0  0  0999 V2000
   24.5389  -21.8111   -7.7235 O   0  0  0  0  0  0  0  0  0  0  0  0
   24.6202  -21.3904   -9.0452 C   0  0  0  0  0  0  0  0  0  0  0  0
   26.0305  -20.9322   -9.4082 C   0  0  2  0  0  0  0  0  0  0  0  0
   26.4686  -19.9456   -8.4657 N   0  0  0  0  0  0  0  0  0  0  0  0
   26.0827  -20.3894  -10.7885 C   0  0  0  0  0  0  0  0  0  0  0  0
   25.7647  -19.1899  -10.9909 O   0  0  0  0  0  0  0  0  0  0  0  0
   26.4784  -21.1679  -11.9018 N   0  0  0  0  0  0  0  0  0  0  0  0
   26.3998  -20.6951  -13.2672 C   0  0  1  0  0  0  0  0  0  0  0  0
   27.4396  -21.4268  -14.0639 C   0  0  0  0  0  0  0  0  0  0  0  0
   27.4189  -21.1240  -15.5200 C   0  0  0  0  0  0  0  0  0  0  0  0
   27.6332  -19.6545  -15.8183 C   0  0  0  0  0  0  0  0  0  0  0  0
   27.5769  -19.4063  -17.3161 C   0  0  0  0  0  0  0  0  0  0  0  0
   27.7976  -18.0057  -17.5898 N   0  0  0  0  0  0  0  0  0  0  0  0
   25.0384  -20.8640  -13.7569 C   0  0  0  0  0  0  0  0  0  0  0  0
   24.3654  -21.9395  -13.6218 O   0  0  0  0  0  0  0  0  0  0  0  0
   24.3913  -19.7930  -14.4275 N   0  0  0  0  0  0  0  0  0  0  0  0
   22.9927  -19.9346  -14.8403 C   0  0  1  0  0  0  0  0  0  0  0  0
   22.2795  -18.6739  -14.3997 C   0  0  0  0  0  0  0  0  0  0  0  0
   20.8818  -18.5934  -14.8278 C   0  0  0  0  0  0  0  0  0  0  0  0
   20.1942  -19.5928  -15.4889 C   0  0  0  0  0  0  0  0  0  0  0  0
   18.9511  -19.1073  -15.6901 N   0  0  0  0  0  0  0  0  0  0  0  0
   18.8897  -17.8685  -15.1733 C   0  0  0  0  0  0  0  0  0  0  0  0
   20.0574  -17.5351  -14.6420 N   0  0  0  0  0  0  0  0  0  0  0  0
   22.8870  -20.0093  -16.3180 C   0  0  0  0  0  0  0  0  0  0  0  0
   21.7647  -20.4552  -16.9863 O   0  0  0  0  0  0  0  0  0  0  0  0
   23.8778  -19.6453  -16.9968 O   0  0  0  0  0  0  0  0  0  0  0  0
  1  2  1  0
  3  2  1  0
  3  4  1  1
  5  3  1  0
  6  5  2  0
  7  5  1  0
  8  7  1  0
  8  9  1  6
 10 11  1  0
 10  9  1  0
 11 12  1  0
 13 12  1  0
 14 16  1  0
 14  8  1  0
 15 14  2  0
 17 18  1  6
 17 16  1  0
 19 18  1  0
 19 23  1  0
 20 21  1  0
 20 19  2  0
 21 22  1  0
 22 23  2  0
 24 17  1  0
 25 24  1  0
 26 24  2  0
M  END
$$$$
