SKH.pdb
     RDKit          3D

 26 26  0  0  1  0  0  0  0  0999 V2000
    9.4100   -9.6602  -10.1217 O   0  0  0  0  0  0  0  0  0  0  0  0
   10.7949   -9.6856  -10.2304 C   0  0  0  0  0  0  0  0  0  0  0  0
   11.2994  -11.0377  -10.7285 C   0  0  2  0  0  0  0  0  0  0  0  0
   10.9526  -12.0547   -9.7803 N   0  0  0  0  0  0  0  0  0  0  0  0
   12.7663  -11.0168  -10.9526 C   0  0  0  0  0  0  0  0  0  0  0  0
   13.5405  -11.0031   -9.9620 O   0  0  0  0  0  0  0  0  0  0  0  0
   13.3423  -11.0114  -12.2451 N   0  0  0  0  0  0  0  0  0  0  0  0
   14.7695  -10.9511  -12.4760 C   0  0  1  0  0  0  0  0  0  0  0  0
   15.0405  -11.5619  -13.8194 C   0  0  0  0  0  0  0  0  0  0  0  0
   16.4713  -11.5359  -14.2252 C   0  0  0  0  0  0  0  0  0  0  0  0
   16.7031  -12.1251  -15.6012 C   0  0  0  0  0  0  0  0  0  0  0  0
   18.1775  -12.0590  -15.9620 C   0  0  0  0  0  0  0  0  0  0  0  0
   18.4056  -12.7328  -17.2187 N   0  0  0  0  0  0  0  0  0  0  0  0
   15.2207   -9.5728  -12.3403 C   0  0  0  0  0  0  0  0  0  0  0  0
   14.6025   -8.5730  -12.8367 O   0  0  0  0  0  0  0  0  0  0  0  0
   16.4115   -9.2871  -11.6221 N   0  0  0  0  0  0  0  0  0  0  0  0
   16.8963   -7.9069  -11.5407 C   0  0  1  0  0  0  0  0  0  0  0  0
   17.2942   -7.6701  -10.0992 C   0  0  0  0  0  0  0  0  0  0  0  0
   16.1967   -7.2258   -9.2381 C   0  0  0  0  0  0  0  0  0  0  0  0
   14.8936   -7.0254   -9.6509 C   0  0  0  0  0  0  0  0  0  0  0  0
   14.2216   -6.6229   -8.5518 N   0  0  0  0  0  0  0  0  0  0  0  0
   15.0808   -6.5817   -7.5195 C   0  0  0  0  0  0  0  0  0  0  0  0
   16.2919   -6.9459   -7.9164 N   0  0  0  0  0  0  0  0  0  0  0  0
   18.1128   -7.7285  -12.3704 C   0  0  0  0  0  0  0  0  0  0  0  0
   18.7291   -6.5111  -12.5785 O   0  0  0  0  0  0  0  0  0  0  0  0
   18.6077   -8.7459  -12.9134 O   0  0  0  0  0  0  0  0  0  0  0  0
  1  2  1  0
  3  2  1  0
  3  4  1  1
  5  3  1  0
  6  5  2  0
  7  5  1  0
  8  7  1  0
  8  9  1  6
 10 11  1  0
 10  9  1  0
 11 12  1  0
 13 12  1  0
 14 16  1  0
 14  8  1  0
 15 14  2  0
 17 18  1  1
 17 16  1  0
 19 18  1  0
 19 23  1  0
 20 21  1  0
 20 19  2  0
 21 22  1  0
 22 23  2  0
 24 17  1  0
 25 24  1  0
 26 24  2  0
M  END
$$$$
