SKH.pdb
     RDKit          3D

 26 26  0  0  1  0  0  0  0  0999 V2000
   17.8487  -19.7810  -14.3888 O   0  0  0  0  0  0  0  0  0  0  0  0
   19.1597  -19.6034  -13.9645 C   0  0  0  0  0  0  0  0  0  0  0  0
   19.9294  -20.9216  -13.9357 C   0  0  2  0  0  0  0  0  0  0  0  0
   19.5554  -21.6665  -12.7699 N   0  0  0  0  0  0  0  0  0  0  0  0
   21.3953  -20.6908  -13.9549 C   0  0  0  0  0  0  0  0  0  0  0  0
   21.9398  -20.1088  -12.9824 O   0  0  0  0  0  0  0  0  0  0  0  0
   22.2196  -21.0998  -15.0297 N   0  0  0  0  0  0  0  0  0  0  0  0
   23.6616  -20.9791  -15.0126 C   0  0  1  0  0  0  0  0  0  0  0  0
   24.2308  -22.2227  -15.6295 C   0  0  0  0  0  0  0  0  0  0  0  0
   25.7173  -22.2600  -15.6692 C   0  0  0  0  0  0  0  0  0  0  0  0
   26.2571  -23.5246  -16.3045 C   0  0  0  0  0  0  0  0  0  0  0  0
   27.7744  -23.5462  -16.2303 C   0  0  0  0  0  0  0  0  0  0  0  0
   28.3327  -23.3591  -17.5489 N   0  0  0  0  0  0  0  0  0  0  0  0
   24.0487  -19.7447  -15.6820 C   0  0  0  0  0  0  0  0  0  0  0  0
   23.4395  -19.2681  -16.6967 O   0  0  0  0  0  0  0  0  0  0  0  0
   25.1618  -19.0028  -15.2066 N   0  0  0  0  0  0  0  0  0  0  0  0
   25.5576  -17.7693  -15.8911 C   0  0  1  0  0  0  0  0  0  0  0  0
   26.0638  -16.8228  -14.8234 C   0  0  0  0  0  0  0  0  0  0  0  0
   26.6525  -15.5880  -15.3451 C   0  0  0  0  0  0  0  0  0  0  0  0
   26.7208  -15.2427  -16.6810 C   0  0  0  0  0  0  0  0  0  0  0  0
   27.3325  -14.0401  -16.7150 N   0  0  0  0  0  0  0  0  0  0  0  0
   27.6214  -13.6742  -15.4548 C   0  0  0  0  0  0  0  0  0  0  0  0
   27.2149  -14.6048  -14.6028 N   0  0  0  0  0  0  0  0  0  0  0  0
   26.6815  -18.0251  -16.8247 C   0  0  0  0  0  0  0  0  0  0  0  0
   26.9456  -17.2539  -17.9386 O   0  0  0  0  0  0  0  0  0  0  0  0
   27.4340  -19.0003  -16.5847 O   0  0  0  0  0  0  0  0  0  0  0  0
  1  2  1  0
  3  2  1  0
  3  4  1  1
  5  3  1  0
  6  5  2  0
  7  5  1  0
  8  7  1  0
  8  9  1  6
 10 11  1  0
 10  9  1  0
 11 12  1  0
 13 12  1  0
 14 16  1  0
 14  8  1  0
 15 14  2  0
 17 18  1  1
 17 16  1  0
 19 18  1  0
 19 23  1  0
 20 21  1  0
 20 19  2  0
 21 22  1  0
 22 23  2  0
 24 17  1  0
 25 24  1  0
 26 24  2  0
M  END
$$$$
