SKH.pdb
     RDKit          3D

 26 26  0  0  1  0  0  0  0  0999 V2000
   24.6645  -14.7207  -15.4782 O   0  0  0  0  0  0  0  0  0  0  0  0
   25.7361  -15.4654  -15.0014 C   0  0  0  0  0  0  0  0  0  0  0  0
   26.1392  -16.5676  -15.9780 C   0  0  2  0  0  0  0  0  0  0  0  0
   26.5177  -15.9806  -17.2293 N   0  0  0  0  0  0  0  0  0  0  0  0
   25.0381  -17.5428  -16.1750 C   0  0  0  0  0  0  0  0  0  0  0  0
   24.1617  -17.3141  -17.0472 O   0  0  0  0  0  0  0  0  0  0  0  0
   24.9264  -18.7331  -15.4182 N   0  0  0  0  0  0  0  0  0  0  0  0
   23.8222  -19.6583  -15.5553 C   0  0  1  0  0  0  0  0  0  0  0  0
   24.2802  -20.9937  -15.0470 C   0  0  0  0  0  0  0  0  0  0  0  0
   25.0387  -21.7988  -16.0414 C   0  0  0  0  0  0  0  0  0  0  0  0
   25.2895  -23.2194  -15.5797 C   0  0  0  0  0  0  0  0  0  0  0  0
   26.1232  -23.9683  -16.6055 C   0  0  0  0  0  0  0  0  0  0  0  0
   26.4231  -25.2948  -16.1198 N   0  0  0  0  0  0  0  0  0  0  0  0
   22.6562  -19.1210  -14.8672 C   0  0  0  0  0  0  0  0  0  0  0  0
   22.7210  -18.2418  -13.9447 O   0  0  0  0  0  0  0  0  0  0  0  0
   21.3580  -19.5775  -15.2159 N   0  0  0  0  0  0  0  0  0  0  0  0
   20.1794  -18.8871  -14.6858 C   0  0  1  0  0  0  0  0  0  0  0  0
   19.9108  -17.7157  -15.6066 C   0  0  0  0  0  0  0  0  0  0  0  0
   20.1628  -16.4063  -15.0024 C   0  0  0  0  0  0  0  0  0  0  0  0
   20.3744  -16.1796  -13.6561 C   0  0  0  0  0  0  0  0  0  0  0  0
   20.5636  -14.8486  -13.5366 N   0  0  0  0  0  0  0  0  0  0  0  0
   20.4705  -14.2947  -14.7573 C   0  0  0  0  0  0  0  0  0  0  0  0
   20.2261  -15.2277  -15.6665 N   0  0  0  0  0  0  0  0  0  0  0  0
   18.9885  -19.7701  -14.7342 C   0  0  0  0  0  0  0  0  0  0  0  0
   17.9752  -19.7453  -13.7974 O   0  0  0  0  0  0  0  0  0  0  0  0
   18.9005  -20.5860  -15.6836 O   0  0  0  0  0  0  0  0  0  0  0  0
  1  2  1  0
  3  2  1  0
  3  4  1  6
  5  3  1  0
  6  5  2  0
  7  5  1  0
  8  7  1  0
  8  9  1  1
 10 11  1  0
 10  9  1  0
 11 12  1  0
 13 12  1  0
 14 16  1  0
 14  8  1  0
 15 14  2  0
 17 18  1  6
 17 16  1  0
 19 18  1  0
 19 23  1  0
 20 21  1  0
 20 19  2  0
 21 22  1  0
 22 23  2  0
 24 17  1  0
 25 24  1  0
 26 24  2  0
M  END
$$$$
