DPG.pdb
     RDKit          3D

 20 20  0  0  1  0  0  0  0  0999 V2000
   21.5080   -5.9325  -17.3761 N   0  0  0  0  0  0  0  0  0  0  0  0
   21.0543   -6.6413  -16.1783 C   0  0  1  0  0  0  0  0  0  0  0  0
   19.6849   -6.0780  -15.7786 C   0  0  0  0  0  0  0  0  0  0  0  0
   19.7675   -4.6958  -15.2763 C   0  0  0  0  0  0  0  0  0  0  0  0
   18.8863   -3.8667  -15.6038 O   0  0  0  0  0  0  0  0  0  0  0  0
   20.9818   -8.0669  -16.4844 C   0  0  0  0  0  0  0  0  0  0  0  0
   20.5729   -8.3808  -17.6552 O   0  0  0  0  0  0  0  0  0  0  0  0
   20.7892   -4.2923  -14.4556 O   0  0  0  0  0  0  0  0  0  0  0  0
   21.3230   -9.1398  -15.6116 N   0  0  0  0  0  0  0  0  0  0  0  0
   21.8545   -8.8909  -14.2566 C   0  0  0  0  0  0  0  0  0  0  0  0
   22.9176   -9.9639  -14.1613 C   0  0  0  0  0  0  0  0  0  0  0  0
   22.1052  -11.1699  -14.6405 C   0  0  0  0  0  0  0  0  0  0  0  0
   21.2442  -10.5570  -15.7514 C   0  0  1  0  0  0  0  0  0  0  0  0
   19.8690  -11.0822  -15.5272 C   0  0  0  0  0  0  0  0  0  0  0  0
   19.1286  -10.5826  -14.6411 O   0  0  0  0  0  0  0  0  0  0  0  0
   19.3193  -12.1544  -16.2812 N   0  0  0  0  0  0  0  0  0  0  0  0
   17.9482  -12.5644  -16.0748 C   0  0  0  0  0  0  0  0  0  0  0  0
   17.8134  -13.8851  -15.4659 C   0  0  0  0  0  0  0  0  0  0  0  0
   16.6485  -14.3051  -15.2397 O   0  0  0  0  0  0  0  0  0  0  0  0
   18.8633  -14.7195  -15.1143 O   0  0  0  0  0  0  0  0  0  0  0  0
  2  1  1  6
  2  3  1  0
  3  4  1  0
  4  8  1  0
  5  4  2  0
  6  7  2  0
  6  2  1  0
  9  6  1  0
 10  9  1  0
 11 12  1  0
 11 10  1  0
 12 13  1  0
 13 14  1  1
 13  9  1  0
 14 15  2  0
 16 17  1  0
 16 14  1  0
 17 18  1  0
 18 20  1  0
 19 18  2  0
M  END
$$$$
