DPG.pdb
     RDKit          3D

 20 20  0  0  1  0  0  0  0  0999 V2000
   18.8952  -12.9358  -16.3484 N   0  0  0  0  0  0  0  0  0  0  0  0
   20.0303  -12.2119  -16.9233 C   0  0  1  0  0  0  0  0  0  0  0  0
   19.5842  -11.6056  -18.2596 C   0  0  0  0  0  0  0  0  0  0  0  0
   19.2404  -12.6319  -19.2588 C   0  0  0  0  0  0  0  0  0  0  0  0
   18.0814  -12.6652  -19.7352 O   0  0  0  0  0  0  0  0  0  0  0  0
   20.4486  -11.1818  -15.9774 C   0  0  0  0  0  0  0  0  0  0  0  0
   19.5220  -10.6149  -15.3017 O   0  0  0  0  0  0  0  0  0  0  0  0
   20.1612  -13.5554  -19.6823 O   0  0  0  0  0  0  0  0  0  0  0  0
   21.7831  -10.7485  -15.7310 N   0  0  0  0  0  0  0  0  0  0  0  0
   22.9256  -11.3103  -16.4791 C   0  0  0  0  0  0  0  0  0  0  0  0
   23.9591  -11.4322  -15.3802 C   0  0  0  0  0  0  0  0  0  0  0  0
   23.8405  -10.0357  -14.7638 C   0  0  0  0  0  0  0  0  0  0  0  0
   22.3314   -9.7760  -14.8434 C   0  0  1  0  0  0  0  0  0  0  0  0
   22.1917   -8.3849  -15.3559 C   0  0  0  0  0  0  0  0  0  0  0  0
   22.1962   -8.1540  -16.5928 O   0  0  0  0  0  0  0  0  0  0  0  0
   22.0479   -7.2579  -14.5018 N   0  0  0  0  0  0  0  0  0  0  0  0
   21.7612   -5.9537  -15.0560 C   0  0  0  0  0  0  0  0  0  0  0  0
   21.6279   -4.9025  -14.0509 C   0  0  0  0  0  0  0  0  0  0  0  0
   21.5434   -3.7148  -14.4589 O   0  0  0  0  0  0  0  0  0  0  0  0
   21.5863   -5.1019  -12.6794 O   0  0  0  0  0  0  0  0  0  0  0  0
  2  1  1  1
  2  3  1  0
  3  4  1  0
  4  8  1  0
  5  4  2  0
  6  7  2  0
  6  2  1  0
  9  6  1  0
 10  9  1  0
 11 12  1  0
 11 10  1  0
 12 13  1  0
 13 14  1  6
 13  9  1  0
 14 15  2  0
 16 17  1  0
 16 14  1  0
 17 18  1  0
 18 20  1  0
 19 18  2  0
M  END
$$$$
