DPG.pdb
     RDKit          3D

 20 20  0  0  1  0  0  0  0  0999 V2000
   20.0727  -12.5247  -17.8271 N   0  0  0  0  0  0  0  0  0  0  0  0
   21.3221  -11.7663  -17.7443 C   0  0  1  0  0  0  0  0  0  0  0  0
   21.5343  -11.0460  -19.0817 C   0  0  0  0  0  0  0  0  0  0  0  0
   21.7791  -11.9804  -20.1938 C   0  0  0  0  0  0  0  0  0  0  0  0
   21.1138  -11.8697  -21.2503 O   0  0  0  0  0  0  0  0  0  0  0  0
   21.2175  -10.8229  -16.6352 C   0  0  0  0  0  0  0  0  0  0  0  0
   20.0938  -10.2282  -16.4935 O   0  0  0  0  0  0  0  0  0  0  0  0
   22.7213  -12.9723  -20.1011 O   0  0  0  0  0  0  0  0  0  0  0  0
   22.2394  -10.5022  -15.6959 N   0  0  0  0  0  0  0  0  0  0  0  0
   23.5827  -11.1093  -15.7822 C   0  0  0  0  0  0  0  0  0  0  0  0
   23.8807  -11.3613  -14.3199 C   0  0  0  0  0  0  0  0  0  0  0  0
   23.5082   -9.9921  -13.7450 C   0  0  0  0  0  0  0  0  0  0  0  0
   22.2761   -9.6180  -14.5774 C   0  0  1  0  0  0  0  0  0  0  0  0
   22.4777   -8.1967  -14.9733 C   0  0  0  0  0  0  0  0  0  0  0  0
   23.1026   -7.9070  -16.0262 O   0  0  0  0  0  0  0  0  0  0  0  0
   21.9891   -7.1045  -14.2061 N   0  0  0  0  0  0  0  0  0  0  0  0
   22.0538   -5.7581  -14.7290 C   0  0  0  0  0  0  0  0  0  0  0  0
   21.4588   -4.7551  -13.8498 C   0  0  0  0  0  0  0  0  0  0  0  0
   22.2374   -4.0790  -13.1279 O   0  0  0  0  0  0  0  0  0  0  0  0
   20.1037   -4.4827  -13.7417 O   0  0  0  0  0  0  0  0  0  0  0  0
  2  1  1  6
  2  3  1  0
  3  4  1  0
  4  8  1  0
  5  4  2  0
  6  7  2  0
  6  2  1  0
  9  6  1  0
 10  9  1  0
 11 12  1  0
 11 10  1  0
 12 13  1  0
 13 14  1  6
 13  9  1  0
 14 15  2  0
 16 17  1  0
 16 14  1  0
 17 18  1  0
 18 20  1  0
 19 18  2  0
M  END
$$$$
