DPG.pdb
     RDKit          3D

 20 20  0  0  1  0  0  0  0  0999 V2000
   16.5760  -21.6075    5.0276 N   0  0  0  0  0  0  0  0  0  0  0  0
   17.5023  -20.4832    4.8830 C   0  0  1  0  0  0  0  0  0  0  0  0
   16.7830  -19.3659    4.1171 C   0  0  0  0  0  0  0  0  0  0  0  0
   16.4873  -19.7368    2.7226 C   0  0  0  0  0  0  0  0  0  0  0  0
   15.3218  -19.6007    2.2819 O   0  0  0  0  0  0  0  0  0  0  0  0
   17.9109  -20.0466    6.2147 C   0  0  0  0  0  0  0  0  0  0  0  0
   17.0279  -20.1206    7.1373 O   0  0  0  0  0  0  0  0  0  0  0  0
   17.4603  -20.2293    1.8912 O   0  0  0  0  0  0  0  0  0  0  0  0
   19.1930  -19.5504    6.5880 N   0  0  0  0  0  0  0  0  0  0  0  0
   20.2649  -19.3589    5.5905 C   0  0  0  0  0  0  0  0  0  0  0  0
   21.4715  -19.8413    6.3664 C   0  0  0  0  0  0  0  0  0  0  0  0
   21.2596  -19.0695    7.6715 C   0  0  0  0  0  0  0  0  0  0  0  0
   19.7366  -19.1310    7.8381 C   0  0  1  0  0  0  0  0  0  0  0  0
   19.3195  -17.7518    8.2138 C   0  0  0  0  0  0  0  0  0  0  0  0
   19.1861  -16.8608    7.3355 O   0  0  0  0  0  0  0  0  0  0  0  0
   19.0523  -17.3641    9.5550 N   0  0  0  0  0  0  0  0  0  0  0  0
   18.7161  -15.9925    9.8652 C   0  0  0  0  0  0  0  0  0  0  0  0
   17.3480  -15.6261    9.5089 C   0  0  0  0  0  0  0  0  0  0  0  0
   17.1762  -14.9951    8.4333 O   0  0  0  0  0  0  0  0  0  0  0  0
   16.2172  -15.9150   10.2572 O   0  0  0  0  0  0  0  0  0  0  0  0
  2  1  1  1
  2  3  1  0
  3  4  1  0
  4  8  1  0
  5  4  2  0
  6  7  2  0
  6  2  1  0
  9  6  1  0
 10  9  1  0
 11 12  1  0
 11 10  1  0
 12 13  1  0
 13 14  1  6
 13  9  1  0
 14 15  2  0
 16 17  1  0
 16 14  1  0
 17 18  1  0
 18 20  1  0
 19 18  2  0
M  END
$$$$
