DPG.pdb
     RDKit          3D

 20 20  0  0  1  0  0  0  0  0999 V2000
   23.2873   -8.6880  -19.2197 N   0  0  0  0  0  0  0  0  0  0  0  0
   22.4120   -7.7193  -18.5576 C   0  0  1  0  0  0  0  0  0  0  0  0
   21.4269   -7.1743  -19.5992 C   0  0  0  0  0  0  0  0  0  0  0  0
   22.0948   -6.3906  -20.6525 C   0  0  0  0  0  0  0  0  0  0  0  0
   21.9186   -6.6972  -21.8550 O   0  0  0  0  0  0  0  0  0  0  0  0
   21.7202   -8.3938  -17.4632 C   0  0  0  0  0  0  0  0  0  0  0  0
   21.4507   -9.6327  -17.6336 O   0  0  0  0  0  0  0  0  0  0  0  0
   22.9078   -5.3292  -20.3482 O   0  0  0  0  0  0  0  0  0  0  0  0
   21.3193   -7.8111  -16.2267 N   0  0  0  0  0  0  0  0  0  0  0  0
   21.5346   -6.3776  -15.9454 C   0  0  0  0  0  0  0  0  0  0  0  0
   21.9570   -6.4281  -14.4928 C   0  0  0  0  0  0  0  0  0  0  0  0
   20.8546   -7.3348  -13.9391 C   0  0  0  0  0  0  0  0  0  0  0  0
   20.6686   -8.3466  -15.0760 C   0  0  1  0  0  0  0  0  0  0  0  0
   19.1964   -8.4792  -15.2564 C   0  0  0  0  0  0  0  0  0  0  0  0
   18.5550   -7.6348  -15.9337 O   0  0  0  0  0  0  0  0  0  0  0  0
   18.4415   -9.5416  -14.6892 N   0  0  0  0  0  0  0  0  0  0  0  0
   17.0779   -9.7741  -15.1103 C   0  0  0  0  0  0  0  0  0  0  0  0
   16.4199  -10.8670  -14.3992 C   0  0  0  0  0  0  0  0  0  0  0  0
   15.1659  -10.8237  -14.2984 O   0  0  0  0  0  0  0  0  0  0  0  0
   17.0611  -11.9530  -13.8232 O   0  0  0  0  0  0  0  0  0  0  0  0
  2  1  1  6
  2  3  1  0
  3  4  1  0
  4  8  1  0
  5  4  2  0
  6  7  2  0
  6  2  1  0
  9  6  1  0
 10  9  1  0
 11 12  1  0
 11 10  1  0
 12 13  1  0
 13 14  1  6
 13  9  1  0
 14 15  2  0
 16 17  1  0
 16 14  1  0
 17 18  1  0
 18 20  1  0
 19 18  2  0
M  END
$$$$
