DPG.pdb
     RDKit          3D

 20 20  0  0  1  0  0  0  0  0999 V2000
   18.9172  -11.6472  -15.6273 N   0  0  0  0  0  0  0  0  0  0  0  0
   19.2018  -10.3575  -16.2585 C   0  0  1  0  0  0  0  0  0  0  0  0
   17.8673   -9.6495  -16.5236 C   0  0  0  0  0  0  0  0  0  0  0  0
   17.0526  -10.3412  -17.5372 C   0  0  0  0  0  0  0  0  0  0  0  0
   17.4952  -10.4676  -18.7031 O   0  0  0  0  0  0  0  0  0  0  0  0
   20.0541   -9.5821  -15.3621 C   0  0  0  0  0  0  0  0  0  0  0  0
   19.7623   -9.6229  -14.1173 O   0  0  0  0  0  0  0  0  0  0  0  0
   15.8167  -10.8526  -17.2351 O   0  0  0  0  0  0  0  0  0  0  0  0
   21.1771   -8.7891  -15.7352 N   0  0  0  0  0  0  0  0  0  0  0  0
   21.6066   -8.6767  -17.1436 C   0  0  0  0  0  0  0  0  0  0  0  0
   23.1118   -8.7227  -16.9915 C   0  0  0  0  0  0  0  0  0  0  0  0
   23.2861   -7.6895  -15.8752 C   0  0  0  0  0  0  0  0  0  0  0  0
   22.0719   -7.9723  -14.9825 C   0  0  1  0  0  0  0  0  0  0  0  0
   21.4967   -6.6383  -14.6553 C   0  0  0  0  0  0  0  0  0  0  0  0
   20.6404   -6.1072  -15.4088 O   0  0  0  0  0  0  0  0  0  0  0  0
   21.8694   -5.8989  -13.5000 N   0  0  0  0  0  0  0  0  0  0  0  0
   21.2136   -4.6480  -13.1909 C   0  0  0  0  0  0  0  0  0  0  0  0
   21.6787   -3.5235  -13.9985 C   0  0  0  0  0  0  0  0  0  0  0  0
   21.2278   -3.4223  -15.1693 O   0  0  0  0  0  0  0  0  0  0  0  0
   22.5785   -2.5535  -13.5840 O   0  0  0  0  0  0  0  0  0  0  0  0
  2  1  1  1
  2  3  1  0
  3  4  1  0
  4  8  1  0
  5  4  2  0
  6  7  2  0
  6  2  1  0
  9  6  1  0
 10  9  1  0
 11 12  1  0
 11 10  1  0
 12 13  1  0
 13 14  1  6
 13  9  1  0
 14 15  2  0
 16 17  1  0
 16 14  1  0
 17 18  1  0
 18 20  1  0
 19 18  2  0
M  END
$$$$
