DPG.pdb
     RDKit          3D

 20 20  0  0  1  0  0  0  0  0999 V2000
   25.8532  -19.8978  -17.4449 N   0  0  0  0  0  0  0  0  0  0  0  0
   26.2646  -19.1898  -16.2315 C   0  0  1  0  0  0  0  0  0  0  0  0
   25.4438  -17.8982  -16.1294 C   0  0  0  0  0  0  0  0  0  0  0  0
   25.6440  -17.0088  -17.2864 C   0  0  0  0  0  0  0  0  0  0  0  0
   26.7964  -16.5947  -17.5539 O   0  0  0  0  0  0  0  0  0  0  0  0
   26.0363  -20.0651  -15.0857 C   0  0  0  0  0  0  0  0  0  0  0  0
   24.9892  -20.7988  -15.1255 O   0  0  0  0  0  0  0  0  0  0  0  0
   24.5961  -16.6215  -18.0813 O   0  0  0  0  0  0  0  0  0  0  0  0
   26.8635  -20.1846  -13.9321 N   0  0  0  0  0  0  0  0  0  0  0  0
   28.0809  -19.3648  -13.7692 C   0  0  0  0  0  0  0  0  0  0  0  0
   29.0343  -20.3780  -13.1732 C   0  0  0  0  0  0  0  0  0  0  0  0
   28.1390  -20.9523  -12.0720 C   0  0  0  0  0  0  0  0  0  0  0  0
   26.7682  -20.9888  -12.7580 C   0  0  1  0  0  0  0  0  0  0  0  0
   25.8075  -20.4407  -11.7610 C   0  0  0  0  0  0  0  0  0  0  0  0
   25.7080  -19.1992  -11.5819 O   0  0  0  0  0  0  0  0  0  0  0  0
   24.9630  -21.2646  -10.9683 N   0  0  0  0  0  0  0  0  0  0  0  0
   23.9943  -20.6708  -10.0741 C   0  0  0  0  0  0  0  0  0  0  0  0
   22.6131  -20.8030  -10.5299 C   0  0  0  0  0  0  0  0  0  0  0  0
   22.4187  -20.9348  -11.7665 O   0  0  0  0  0  0  0  0  0  0  0  0
   21.4926  -20.7957   -9.7133 O   0  0  0  0  0  0  0  0  0  0  0  0
  2  1  1  6
  2  3  1  0
  3  4  1  0
  4  8  1  0
  5  4  2  0
  6  7  2  0
  6  2  1  0
  9  6  1  0
 10  9  1  0
 11 12  1  0
 11 10  1  0
 12 13  1  0
 13 14  1  1
 13  9  1  0
 14 15  2  0
 16 17  1  0
 16 14  1  0
 17 18  1  0
 18 20  1  0
 19 18  2  0
M  END
$$$$
