DPG.pdb
     RDKit          3D

 20 20  0  0  1  0  0  0  0  0999 V2000
   18.9699  -11.5080  -16.8647 N   0  0  0  0  0  0  0  0  0  0  0  0
   20.2585  -10.8567  -17.1064 C   0  0  1  0  0  0  0  0  0  0  0  0
   20.1648  -10.0866  -18.4296 C   0  0  0  0  0  0  0  0  0  0  0  0
   20.0108  -10.9780  -19.5921 C   0  0  0  0  0  0  0  0  0  0  0  0
   19.1527  -10.7100  -20.4656 O   0  0  0  0  0  0  0  0  0  0  0  0
   20.5445   -9.9672  -15.9847 C   0  0  0  0  0  0  0  0  0  0  0  0
   19.5689   -9.2638  -15.5489 O   0  0  0  0  0  0  0  0  0  0  0  0
   20.7867  -12.0985  -19.7428 O   0  0  0  0  0  0  0  0  0  0  0  0
   21.7983   -9.8077  -15.3277 N   0  0  0  0  0  0  0  0  0  0  0  0
   23.0166  -10.4817  -15.8194 C   0  0  0  0  0  0  0  0  0  0  0  0
   23.6608  -10.9020  -14.5159 C   0  0  0  0  0  0  0  0  0  0  0  0
   23.5680   -9.5802  -13.7488 C   0  0  0  0  0  0  0  0  0  0  0  0
   22.1987   -9.0484  -14.1886 C   0  0  1  0  0  0  0  0  0  0  0  0
   22.4111   -7.6083  -14.5022 C   0  0  0  0  0  0  0  0  0  0  0  0
   22.7971   -7.2513  -15.6452 O   0  0  0  0  0  0  0  0  0  0  0  0
   22.1965   -6.5716  -13.5537 N   0  0  0  0  0  0  0  0  0  0  0  0
   22.4005   -5.1891  -13.9246 C   0  0  0  0  0  0  0  0  0  0  0  0
   21.1953   -4.5268  -14.4163 C   0  0  0  0  0  0  0  0  0  0  0  0
   21.1857   -3.2681  -14.4253 O   0  0  0  0  0  0  0  0  0  0  0  0
   20.0556   -5.1687  -14.8762 O   0  0  0  0  0  0  0  0  0  0  0  0
  2  1  1  1
  2  3  1  0
  3  4  1  0
  4  8  1  0
  5  4  2  0
  6  7  2  0
  6  2  1  0
  9  6  1  0
 10  9  1  0
 11 12  1  0
 11 10  1  0
 12 13  1  0
 13 14  1  6
 13  9  1  0
 14 15  2  0
 16 17  1  0
 16 14  1  0
 17 18  1  0
 18 20  1  0
 19 18  2  0
M  END
$$$$
