DPG.pdb
     RDKit          3D

 20 20  0  0  1  0  0  0  0  0999 V2000
   16.6318  -19.8538    2.9442 N   0  0  0  0  0  0  0  0  0  0  0  0
   17.4338  -19.3203    4.0466 C   0  0  1  0  0  0  0  0  0  0  0  0
   16.4777  -18.7524    5.1029 C   0  0  0  0  0  0  0  0  0  0  0  0
   15.6833  -17.6205    4.5954 C   0  0  0  0  0  0  0  0  0  0  0  0
   16.1995  -16.8215    3.7792 O   0  0  0  0  0  0  0  0  0  0  0  0
   18.2532  -20.4008    4.5871 C   0  0  0  0  0  0  0  0  0  0  0  0
   17.8803  -21.5936    4.3141 O   0  0  0  0  0  0  0  0  0  0  0  0
   14.3874  -17.4190    4.9957 O   0  0  0  0  0  0  0  0  0  0  0  0
   19.4254  -20.2585    5.3840 N   0  0  0  0  0  0  0  0  0  0  0  0
   19.9071  -18.9308    5.8149 C   0  0  0  0  0  0  0  0  0  0  0  0
   21.4023  -19.0980    5.6497 C   0  0  0  0  0  0  0  0  0  0  0  0
   21.5888  -20.4383    6.3657 C   0  0  0  0  0  0  0  0  0  0  0  0
   20.3329  -21.2081    5.9400 C   0  0  1  0  0  0  0  0  0  0  0  0
   19.8125  -21.8427    7.1826 C   0  0  0  0  0  0  0  0  0  0  0  0
   19.0879  -21.1923    7.9795 O   0  0  0  0  0  0  0  0  0  0  0  0
   20.0945  -23.1896    7.5383 N   0  0  0  0  0  0  0  0  0  0  0  0
   19.6284  -23.7249    8.7979 C   0  0  0  0  0  0  0  0  0  0  0  0
   18.2769  -24.2754    8.7403 C   0  0  0  0  0  0  0  0  0  0  0  0
   17.4153  -23.6346    8.0833 O   0  0  0  0  0  0  0  0  0  0  0  0
   17.8597  -25.4486    9.3500 O   0  0  0  0  0  0  0  0  0  0  0  0
  2  1  1  6
  2  3  1  0
  3  4  1  0
  4  8  1  0
  5  4  2  0
  6  7  2  0
  6  2  1  0
  9  6  1  0
 10  9  1  0
 11 12  1  0
 11 10  1  0
 12 13  1  0
 13 14  1  1
 13  9  1  0
 14 15  2  0
 16 17  1  0
 16 14  1  0
 17 18  1  0
 18 20  1  0
 19 18  2  0
M  END
$$$$
