DPG.pdb
     RDKit          3D

 20 20  0  0  1  0  0  0  0  0999 V2000
   23.1825  -14.6451  -14.7276 N   0  0  0  0  0  0  0  0  0  0  0  0
   23.9067  -13.9438  -15.7891 C   0  0  1  0  0  0  0  0  0  0  0  0
   23.1640  -14.1780  -17.1105 C   0  0  0  0  0  0  0  0  0  0  0  0
   23.1280  -15.5998  -17.4938 C   0  0  0  0  0  0  0  0  0  0  0  0
   22.1289  -16.2946  -17.1934 O   0  0  0  0  0  0  0  0  0  0  0  0
   23.9663  -12.5255  -15.4488 C   0  0  0  0  0  0  0  0  0  0  0  0
   22.9179  -12.0194  -14.9186 O   0  0  0  0  0  0  0  0  0  0  0  0
   24.1651  -16.1842  -18.1744 O   0  0  0  0  0  0  0  0  0  0  0  0
   25.0745  -11.6523  -15.6458 N   0  0  0  0  0  0  0  0  0  0  0  0
   26.3545  -12.1442  -16.1938 C   0  0  0  0  0  0  0  0  0  0  0  0
   27.3460  -11.3812  -15.3420 C   0  0  0  0  0  0  0  0  0  0  0  0
   26.7556   -9.9739  -15.4638 C   0  0  0  0  0  0  0  0  0  0  0  0
   25.2483  -10.2532  -15.4300 C   0  0  1  0  0  0  0  0  0  0  0  0
   24.6636   -9.4253  -16.5209 C   0  0  0  0  0  0  0  0  0  0  0  0
   24.6467   -9.8464  -17.7064 O   0  0  0  0  0  0  0  0  0  0  0  0
   24.1017   -8.1389  -16.2977 N   0  0  0  0  0  0  0  0  0  0  0  0
   23.4486   -7.8352  -15.0440 C   0  0  0  0  0  0  0  0  0  0  0  0
   21.9904   -7.8779  -15.1136 C   0  0  0  0  0  0  0  0  0  0  0  0
   21.3527   -6.9705  -14.5183 O   0  0  0  0  0  0  0  0  0  0  0  0
   21.2450   -8.8367  -15.7825 O   0  0  0  0  0  0  0  0  0  0  0  0
  2  1  1  1
  2  3  1  0
  3  4  1  0
  4  8  1  0
  5  4  2  0
  6  7  2  0
  6  2  1  0
  9  6  1  0
 10  9  1  0
 11 12  1  0
 11 10  1  0
 12 13  1  0
 13 14  1  6
 13  9  1  0
 14 15  2  0
 16 17  1  0
 16 14  1  0
 17 18  1  0
 18 20  1  0
 19 18  2  0
M  END
$$$$
