DPG.pdb
     RDKit          3D

 20 20  0  0  1  0  0  0  0  0999 V2000
   27.5654  -20.5493  -17.4915 N   0  0  0  0  0  0  0  0  0  0  0  0
   27.1854  -19.7121  -16.3523 C   0  0  1  0  0  0  0  0  0  0  0  0
   26.4980  -18.4520  -16.8926 C   0  0  0  0  0  0  0  0  0  0  0  0
   27.3704  -17.2662  -16.8400 C   0  0  0  0  0  0  0  0  0  0  0  0
   28.6107  -17.4074  -16.9530 O   0  0  0  0  0  0  0  0  0  0  0  0
   26.2956  -20.4827  -15.4888 C   0  0  0  0  0  0  0  0  0  0  0  0
   25.3676  -21.1453  -16.0686 O   0  0  0  0  0  0  0  0  0  0  0  0
   26.8564  -16.0064  -16.6700 O   0  0  0  0  0  0  0  0  0  0  0  0
   26.3602  -20.5717  -14.0685 N   0  0  0  0  0  0  0  0  0  0  0  0
   27.3909  -19.8478  -13.2977 C   0  0  0  0  0  0  0  0  0  0  0  0
   27.7522  -20.8830  -12.2544 C   0  0  0  0  0  0  0  0  0  0  0  0
   26.3472  -21.2809  -11.7941 C   0  0  0  0  0  0  0  0  0  0  0  0
   25.5595  -21.2597  -13.1094 C   0  0  1  0  0  0  0  0  0  0  0  0
   24.2885  -20.5470  -12.8029 C   0  0  0  0  0  0  0  0  0  0  0  0
   24.3051  -19.3763  -12.3422 O   0  0  0  0  0  0  0  0  0  0  0  0
   23.0080  -21.1295  -13.0061 N   0  0  0  0  0  0  0  0  0  0  0  0
   21.8288  -20.5180  -12.4352 C   0  0  0  0  0  0  0  0  0  0  0  0
   20.5864  -21.2097  -12.7680 C   0  0  0  0  0  0  0  0  0  0  0  0
   19.6987  -20.5528  -13.3722 O   0  0  0  0  0  0  0  0  0  0  0  0
   20.2997  -22.5340  -12.4743 O   0  0  0  0  0  0  0  0  0  0  0  0
  2  1  1  6
  2  3  1  0
  3  4  1  0
  4  8  1  0
  5  4  2  0
  6  7  2  0
  6  2  1  0
  9  6  1  0
 10  9  1  0
 11 12  1  0
 11 10  1  0
 12 13  1  0
 13 14  1  1
 13  9  1  0
 14 15  2  0
 16 17  1  0
 16 14  1  0
 17 18  1  0
 18 20  1  0
 19 18  2  0
M  END
$$$$
