DPG.pdb
     RDKit          3D

 20 20  0  0  1  0  0  0  0  0999 V2000
   20.7516  -21.5671  -14.1942 N   0  0  0  0  0  0  0  0  0  0  0  0
   20.6788  -20.7485  -12.9828 C   0  0  1  0  0  0  0  0  0  0  0  0
   19.3427  -19.9953  -12.9938 C   0  0  0  0  0  0  0  0  0  0  0  0
   19.3092  -18.9193  -13.9991 C   0  0  0  0  0  0  0  0  0  0  0  0
   20.2892  -18.1454  -14.1072 O   0  0  0  0  0  0  0  0  0  0  0  0
   20.7919  -21.6279  -11.8231 C   0  0  0  0  0  0  0  0  0  0  0  0
   20.4142  -22.8395  -11.9845 O   0  0  0  0  0  0  0  0  0  0  0  0
   18.2275  -18.7431  -14.8232 O   0  0  0  0  0  0  0  0  0  0  0  0
   21.2823  -21.2720  -10.5339 N   0  0  0  0  0  0  0  0  0  0  0  0
   21.7831  -19.9124  -10.2489 C   0  0  0  0  0  0  0  0  0  0  0  0
   22.9839  -20.2224   -9.3813 C   0  0  0  0  0  0  0  0  0  0  0  0
   22.3414  -21.2072   -8.4007 C   0  0  0  0  0  0  0  0  0  0  0  0
   21.3976  -22.0000   -9.3128 C   0  0  1  0  0  0  0  0  0  0  0  0
   20.1088  -22.0907   -8.5726 C   0  0  0  0  0  0  0  0  0  0  0  0
   19.1838  -21.2666   -8.7926 O   0  0  0  0  0  0  0  0  0  0  0  0
   19.8483  -23.0890   -7.5949 N   0  0  0  0  0  0  0  0  0  0  0  0
   18.5101  -23.6077   -7.4197 C   0  0  0  0  0  0  0  0  0  0  0  0
   18.4245  -24.7054   -6.4602 C   0  0  0  0  0  0  0  0  0  0  0  0
   18.9991  -25.7849   -6.7584 O   0  0  0  0  0  0  0  0  0  0  0  0
   17.7616  -24.6599   -5.2432 O   0  0  0  0  0  0  0  0  0  0  0  0
  2  1  1  6
  2  3  1  0
  3  4  1  0
  4  8  1  0
  5  4  2  0
  6  7  2  0
  6  2  1  0
  9  6  1  0
 10  9  1  0
 11 12  1  0
 11 10  1  0
 12 13  1  0
 13 14  1  1
 13  9  1  0
 14 15  2  0
 16 17  1  0
 16 14  1  0
 17 18  1  0
 18 20  1  0
 19 18  2  0
M  END
$$$$
