FAM.pdb
     RDKit          3D

 25 25  0  0  1  0  0  0  0  0999 V2000
   24.0380  -20.0216  -17.2269 N   0  0  0  0  0  0  0  0  0  0  0  0
   24.2636  -19.3040  -15.9890 C   0  0  1  0  0  0  0  0  0  0  0  0
   22.9700  -18.8369  -15.3875 C   0  0  0  0  0  0  0  0  0  0  0  0
   22.3993  -17.7632  -16.2410 C   0  0  0  0  0  0  0  0  0  0  0  0
   23.0527  -16.5484  -16.2817 C   0  0  0  0  0  0  0  0  0  0  0  0
   22.5149  -15.5389  -17.0845 C   0  0  0  0  0  0  0  0  0  0  0  0
   21.3643  -15.7667  -17.8085 C   0  0  0  0  0  0  0  0  0  0  0  0
   20.7255  -16.9905  -17.7535 C   0  0  0  0  0  0  0  0  0  0  0  0
   21.2468  -17.9954  -16.9644 C   0  0  0  0  0  0  0  0  0  0  0  0
   25.0980  -20.0748  -15.0429 C   0  0  0  0  0  0  0  0  0  0  0  0
   24.6608  -21.1738  -14.6038 O   0  0  0  0  0  0  0  0  0  0  0  0
   28.5129  -19.7058  -13.5573 C   0  0  0  0  0  0  0  0  0  0  0  0
   27.1382  -20.3526  -13.5908 C   0  0  2  0  0  0  0  0  0  0  0  0
   26.3741  -19.6396  -14.6002 N   0  0  0  0  0  0  0  0  0  0  0  0
   26.5573  -20.2222  -12.2485 C   0  0  0  0  0  0  0  0  0  0  0  0
   25.8404  -19.2150  -11.9206 O   0  0  0  0  0  0  0  0  0  0  0  0
   29.4339  -19.4867   -6.8499 C   0  0  0  0  0  0  0  0  0  0  0  0
   27.6926  -19.2988   -6.5479 S   0  0  0  0  0  0  0  0  0  0  0  0
   26.6372  -20.2077   -7.6542 C   0  0  0  0  0  0  0  0  0  0  0  0
   27.1398  -20.4398   -9.0253 C   0  0  0  0  0  0  0  0  0  0  0  0
   26.2891  -21.2222   -9.9512 C   0  0  2  0  0  0  0  0  0  0  0  0
   26.8067  -21.2505  -11.2978 N   0  0  0  0  0  0  0  0  0  0  0  0
   24.8518  -20.8916   -9.8859 C   0  0  0  0  0  0  0  0  0  0  0  0
   24.3053  -19.9549  -10.5221 O   0  0  0  0  0  0  0  0  0  0  0  0
   24.0206  -21.6497   -9.0744 O   0  0  0  0  0  0  0  0  0  0  0  0
  2  1  1  6
  2 10  1  0
  3  2  1  0
  3  4  1  0
  4  9  2  0
  4  5  1  0
  5  6  2  0
  6  7  1  0
  8  7  2  0
  9  8  1  0
 10 14  1  0
 10 11  2  0
 13 12  1  1
 13 15  1  0
 14 13  1  0
 15 16  2  0
 18 17  1  0
 19 18  1  0
 20 19  1  0
 21 20  1  1
 21 23  1  0
 22 21  1  0
 22 15  1  0
 23 25  1  0
 24 23  2  0
M  END
$$$$
