FAM.pdb
     RDKit          3D

 25 25  0  0  1  0  0  0  0  0999 V2000
   17.8731  -13.9708    8.1313 N   0  0  0  0  0  0  0  0  0  0  0  0
   18.0895  -14.8701    7.0166 C   0  0  1  0  0  0  0  0  0  0  0  0
   19.5084  -14.8032    6.5313 C   0  0  0  0  0  0  0  0  0  0  0  0
   19.7942  -13.4236    6.0602 C   0  0  0  0  0  0  0  0  0  0  0  0
   18.9767  -12.8863    5.0869 C   0  0  0  0  0  0  0  0  0  0  0  0
   19.2466  -11.5886    4.6442 C   0  0  0  0  0  0  0  0  0  0  0  0
   20.3028  -10.8796    5.1750 C   0  0  0  0  0  0  0  0  0  0  0  0
   21.1092  -11.4364    6.1489 C   0  0  0  0  0  0  0  0  0  0  0  0
   20.8529  -12.7170    6.5943 C   0  0  0  0  0  0  0  0  0  0  0  0
   17.6440  -16.2472    7.3179 C   0  0  0  0  0  0  0  0  0  0  0  0
   17.9710  -16.7634    8.4216 O   0  0  0  0  0  0  0  0  0  0  0  0
   15.7547  -18.8997    5.4643 C   0  0  0  0  0  0  0  0  0  0  0  0
   16.5448  -18.4199    6.6704 C   0  0  2  0  0  0  0  0  0  0  0  0
   16.8622  -17.0237    6.4236 N   0  0  0  0  0  0  0  0  0  0  0  0
   17.7446  -19.2603    6.7736 C   0  0  0  0  0  0  0  0  0  0  0  0
   18.7765  -19.0518    6.0474 O   0  0  0  0  0  0  0  0  0  0  0  0
   22.7475  -19.3336    8.7150 C   0  0  0  0  0  0  0  0  0  0  0  0
   22.3254  -20.5393    9.9506 S   0  0  0  0  0  0  0  0  0  0  0  0
   20.8213  -21.4365    9.6400 C   0  0  0  0  0  0  0  0  0  0  0  0
   19.6496  -20.6525    9.1939 C   0  0  0  0  0  0  0  0  0  0  0  0
   18.9143  -21.1258    7.9987 C   0  0  2  0  0  0  0  0  0  0  0  0
   17.7451  -20.3311    7.7101 N   0  0  0  0  0  0  0  0  0  0  0  0
   18.6512  -22.5783    7.9798 C   0  0  0  0  0  0  0  0  0  0  0  0
   17.6417  -23.1274    8.4898 O   0  0  0  0  0  0  0  0  0  0  0  0
   19.5636  -23.4220    7.3634 O   0  0  0  0  0  0  0  0  0  0  0  0
  2  1  1  1
  2 10  1  0
  3  2  1  0
  3  4  1  0
  4  9  2  0
  4  5  1  0
  5  6  2  0
  6  7  1  0
  8  7  2  0
  9  8  1  0
 10 14  1  0
 10 11  2  0
 13 12  1  6
 13 15  1  0
 14 13  1  0
 15 16  2  0
 18 17  1  0
 19 18  1  0
 20 19  1  0
 21 20  1  1
 21 23  1  0
 22 21  1  0
 22 15  1  0
 23 25  1  0
 24 23  2  0
M  END
$$$$
