FAM.pdb
     RDKit          3D

 25 25  0  0  1  0  0  0  0  0999 V2000
   28.5963  -21.5884  -12.4147 N   0  0  0  0  0  0  0  0  0  0  0  0
   28.4901  -21.3190  -10.9954 C   0  0  1  0  0  0  0  0  0  0  0  0
   29.6881  -20.5665  -10.4935 C   0  0  0  0  0  0  0  0  0  0  0  0
   29.6139  -20.4707   -9.0129 C   0  0  0  0  0  0  0  0  0  0  0  0
   30.3378  -21.3769   -8.2653 C   0  0  0  0  0  0  0  0  0  0  0  0
   30.2670  -21.2861   -6.8727 C   0  0  0  0  0  0  0  0  0  0  0  0
   29.4916  -20.3134   -6.2789 C   0  0  0  0  0  0  0  0  0  0  0  0
   28.7743  -19.4157   -7.0460 C   0  0  0  0  0  0  0  0  0  0  0  0
   28.8361  -19.4951   -8.4223 C   0  0  0  0  0  0  0  0  0  0  0  0
   27.2091  -20.6687  -10.6467 C   0  0  0  0  0  0  0  0  0  0  0  0
   27.1262  -20.0346   -9.5592 O   0  0  0  0  0  0  0  0  0  0  0  0
   23.7931  -20.5481  -12.1833 C   0  0  0  0  0  0  0  0  0  0  0  0
   24.7355  -20.3529  -11.0074 C   0  0  2  0  0  0  0  0  0  0  0  0
   26.0599  -20.7211  -11.4778 N   0  0  0  0  0  0  0  0  0  0  0  0
   24.2647  -21.2173   -9.9176 C   0  0  0  0  0  0  0  0  0  0  0  0
   24.6259  -22.4407   -9.8253 O   0  0  0  0  0  0  0  0  0  0  0  0
   25.3534  -20.6455   -3.8192 C   0  0  0  0  0  0  0  0  0  0  0  0
   23.6201  -21.0329   -3.7526 S   0  0  0  0  0  0  0  0  0  0  0  0
   22.9134  -21.5764   -5.2917 C   0  0  0  0  0  0  0  0  0  0  0  0
   23.4393  -20.9601   -6.5287 C   0  0  0  0  0  0  0  0  0  0  0  0
   22.8803  -21.4173   -7.8216 C   0  0  2  0  0  0  0  0  0  0  0  0
   23.3840  -20.6662   -8.9459 N   0  0  0  0  0  0  0  0  0  0  0  0
   21.4119  -21.5685   -7.8322 C   0  0  0  0  0  0  0  0  0  0  0  0
   20.7793  -22.4384   -7.1810 O   0  0  0  0  0  0  0  0  0  0  0  0
   20.6495  -20.7052   -8.6052 O   0  0  0  0  0  0  0  0  0  0  0  0
  2  1  1  6
  2 10  1  0
  3  2  1  0
  3  4  1  0
  4  9  2  0
  4  5  1  0
  5  6  2  0
  6  7  1  0
  8  7  2  0
  9  8  1  0
 10 14  1  0
 10 11  2  0
 13 12  1  6
 13 15  1  0
 14 13  1  0
 15 16  2  0
 18 17  1  0
 19 18  1  0
 20 19  1  0
 21 20  1  1
 21 23  1  0
 22 21  1  0
 22 15  1  0
 23 25  1  0
 24 23  2  0
M  END
$$$$
