FAM.pdb
     RDKit          3D

 25 25  0  0  1  0  0  0  0  0999 V2000
   27.4419  -19.9688  -11.4755 N   0  0  0  0  0  0  0  0  0  0  0  0
   26.5179  -21.0527  -11.2120 C   0  0  1  0  0  0  0  0  0  0  0  0
   26.0213  -21.0120   -9.7959 C   0  0  0  0  0  0  0  0  0  0  0  0
   27.1773  -20.8191   -8.8831 C   0  0  0  0  0  0  0  0  0  0  0  0
   27.0293  -19.9513   -7.8205 C   0  0  0  0  0  0  0  0  0  0  0  0
   28.1174  -19.7703   -6.9626 C   0  0  0  0  0  0  0  0  0  0  0  0
   29.2974  -20.4469   -7.1857 C   0  0  0  0  0  0  0  0  0  0  0  0
   29.4247  -21.3115   -8.2559 C   0  0  0  0  0  0  0  0  0  0  0  0
   28.3573  -21.4986   -9.1101 C   0  0  0  0  0  0  0  0  0  0  0  0
   25.4267  -21.1082  -12.2077 C   0  0  0  0  0  0  0  0  0  0  0  0
   24.7463  -20.0676  -12.4218 O   0  0  0  0  0  0  0  0  0  0  0  0
   24.1385  -23.6884  -14.5993 C   0  0  0  0  0  0  0  0  0  0  0  0
   24.1213  -22.2871  -14.0118 C   0  0  2  0  0  0  0  0  0  0  0  0
   25.1027  -22.2796  -12.9404 N   0  0  0  0  0  0  0  0  0  0  0  0
   22.7588  -22.0286  -13.5290 C   0  0  0  0  0  0  0  0  0  0  0  0
   22.3201  -22.5449  -12.4442 O   0  0  0  0  0  0  0  0  0  0  0  0
   20.0214  -17.0074  -12.4621 C   0  0  0  0  0  0  0  0  0  0  0  0
   18.5086  -17.7136  -13.0717 S   0  0  0  0  0  0  0  0  0  0  0  0
   18.7126  -19.1502  -14.1003 C   0  0  0  0  0  0  0  0  0  0  0  0
   20.0976  -19.5629  -14.4134 C   0  0  0  0  0  0  0  0  0  0  0  0
   20.5478  -20.8918  -13.9397 C   0  0  2  0  0  0  0  0  0  0  0  0
   21.9154  -21.1799  -14.2984 N   0  0  0  0  0  0  0  0  0  0  0  0
   19.6188  -21.9967  -14.2489 C   0  0  0  0  0  0  0  0  0  0  0  0
   19.7299  -22.7674  -15.2361 O   0  0  0  0  0  0  0  0  0  0  0  0
   18.5380  -22.2252  -13.4099 O   0  0  0  0  0  0  0  0  0  0  0  0
  2  1  1  6
  2 10  1  0
  3  2  1  0
  3  4  1  0
  4  9  2  0
  4  5  1  0
  5  6  2  0
  6  7  1  0
  8  7  2  0
  9  8  1  0
 10 14  1  0
 10 11  2  0
 13 12  1  1
 13 15  1  0
 14 13  1  0
 15 16  2  0
 18 17  1  0
 19 18  1  0
 20 19  1  0
 21 20  1  6
 21 23  1  0
 22 21  1  0
 22 15  1  0
 23 25  1  0
 24 23  2  0
M  END
$$$$
