FAM.pdb
     RDKit          3D

 25 25  0  0  1  0  0  0  0  0999 V2000
   23.1699  -12.3549  -17.1271 N   0  0  0  0  0  0  0  0  0  0  0  0
   22.6814  -11.2028  -17.8566 C   0  0  1  0  0  0  0  0  0  0  0  0
   21.8708  -11.6183  -19.0499 C   0  0  0  0  0  0  0  0  0  0  0  0
   22.7446  -12.3630  -19.9927 C   0  0  0  0  0  0  0  0  0  0  0  0
   23.5192  -11.6364  -20.8736 C   0  0  0  0  0  0  0  0  0  0  0  0
   24.3405  -12.3378  -21.7604 C   0  0  0  0  0  0  0  0  0  0  0  0
   24.3641  -13.7159  -21.7424 C   0  0  0  0  0  0  0  0  0  0  0  0
   23.5804  -14.4244  -20.8521 C   0  0  0  0  0  0  0  0  0  0  0  0
   22.7653  -13.7432  -19.9714 C   0  0  0  0  0  0  0  0  0  0  0  0
   21.9729  -10.2475  -16.9786 C   0  0  0  0  0  0  0  0  0  0  0  0
   21.0254  -10.6702  -16.2608 O   0  0  0  0  0  0  0  0  0  0  0  0
   22.4175   -6.6552  -16.0362 C   0  0  0  0  0  0  0  0  0  0  0  0
   21.6164   -7.9463  -16.0164 C   0  0  2  0  0  0  0  0  0  0  0  0
   22.3058   -8.8702  -16.9009 N   0  0  0  0  0  0  0  0  0  0  0  0
   20.2594   -7.6298  -16.4798 C   0  0  0  0  0  0  0  0  0  0  0  0
   19.9572   -7.6236  -17.7226 O   0  0  0  0  0  0  0  0  0  0  0  0
   12.6659   -8.7455  -15.4044 C   0  0  0  0  0  0  0  0  0  0  0  0
   14.3535   -8.9550  -14.8878 S   0  0  0  0  0  0  0  0  0  0  0  0
   15.4931   -7.7580  -15.5454 C   0  0  0  0  0  0  0  0  0  0  0  0
   16.9318   -7.9889  -15.2934 C   0  0  0  0  0  0  0  0  0  0  0  0
   17.8975   -7.0154  -15.8527 C   0  0  2  0  0  0  0  0  0  0  0  0
   19.2648   -7.3237  -15.5100 N   0  0  0  0  0  0  0  0  0  0  0  0
   17.5427   -5.6015  -15.6198 C   0  0  0  0  0  0  0  0  0  0  0  0
   16.6668   -4.9701  -16.2640 O   0  0  0  0  0  0  0  0  0  0  0  0
   18.2048   -4.8935  -14.6275 O   0  0  0  0  0  0  0  0  0  0  0  0
  2  1  1  1
  2 10  1  0
  3  2  1  0
  3  4  1  0
  4  9  2  0
  4  5  1  0
  5  6  2  0
  6  7  1  0
  8  7  2  0
  9  8  1  0
 10 14  1  0
 10 11  2  0
 13 12  1  6
 13 15  1  0
 14 13  1  0
 15 16  2  0
 18 17  1  0
 19 18  1  0
 20 19  1  0
 21 20  1  1
 21 23  1  0
 22 21  1  0
 22 15  1  0
 23 25  1  0
 24 23  2  0
M  END
$$$$
