FAM.pdb
     RDKit          3D

 25 25  0  0  1  0  0  0  0  0999 V2000
   26.0488  -15.7494  -16.6376 N   0  0  0  0  0  0  0  0  0  0  0  0
   26.5995  -16.9544  -16.0521 C   0  0  1  0  0  0  0  0  0  0  0  0
   28.0648  -16.7991  -15.7652 C   0  0  0  0  0  0  0  0  0  0  0  0
   28.8163  -16.8465  -17.0459 C   0  0  0  0  0  0  0  0  0  0  0  0
   29.4978  -15.7140  -17.4423 C   0  0  0  0  0  0  0  0  0  0  0  0
   30.2040  -15.7595  -18.6473 C   0  0  0  0  0  0  0  0  0  0  0  0
   30.2094  -16.9104  -19.4058 C   0  0  0  0  0  0  0  0  0  0  0  0
   29.5202  -18.0335  -18.9906 C   0  0  0  0  0  0  0  0  0  0  0  0
   28.8190  -18.0011  -17.8025 C   0  0  0  0  0  0  0  0  0  0  0  0
   25.8237  -17.4074  -14.8780 C   0  0  0  0  0  0  0  0  0  0  0  0
   25.6941  -16.6248  -13.8970 O   0  0  0  0  0  0  0  0  0  0  0  0
   23.3571  -19.9954  -14.0848 C   0  0  0  0  0  0  0  0  0  0  0  0
   24.5261  -19.1517  -13.6044 C   0  0  2  0  0  0  0  0  0  0  0  0
   25.2129  -18.6858  -14.7970 N   0  0  0  0  0  0  0  0  0  0  0  0
   25.3730  -20.0094  -12.7658 C   0  0  0  0  0  0  0  0  0  0  0  0
   26.0612  -20.9667  -13.2618 O   0  0  0  0  0  0  0  0  0  0  0  0
   27.7958  -18.4837   -6.4391 C   0  0  0  0  0  0  0  0  0  0  0  0
   27.0251  -20.0851   -6.4190 S   0  0  0  0  0  0  0  0  0  0  0  0
   26.8326  -20.8448   -8.0156 C   0  0  0  0  0  0  0  0  0  0  0  0
   26.2446  -20.0153   -9.0894 C   0  0  0  0  0  0  0  0  0  0  0  0
   26.0972  -20.6233  -10.4317 C   0  0  2  0  0  0  0  0  0  0  0  0
   25.4196  -19.7579  -11.3665 N   0  0  0  0  0  0  0  0  0  0  0  0
   25.5667  -22.0009  -10.4226 C   0  0  0  0  0  0  0  0  0  0  0  0
   26.2595  -23.0336  -10.6084 O   0  0  0  0  0  0  0  0  0  0  0  0
   24.2131  -22.2020  -10.1957 O   0  0  0  0  0  0  0  0  0  0  0  0
  2  1  1  1
  2 10  1  0
  3  2  1  0
  3  4  1  0
  4  9  2  0
  4  5  1  0
  5  6  2  0
  6  7  1  0
  8  7  2  0
  9  8  1  0
 10 14  1  0
 10 11  2  0
 13 12  1  6
 13 15  1  0
 14 13  1  0
 15 16  2  0
 18 17  1  0
 19 18  1  0
 20 19  1  0
 21 20  1  1
 21 23  1  0
 22 21  1  0
 22 15  1  0
 23 25  1  0
 24 23  2  0
M  END
$$$$
