FAM.pdb
     RDKit          3D

 25 25  0  0  1  0  0  0  0  0999 V2000
   26.0922  -16.7633  -18.6738 N   0  0  0  0  0  0  0  0  0  0  0  0
   24.9544  -17.6456  -18.8318 C   0  0  1  0  0  0  0  0  0  0  0  0
   25.3655  -18.9629  -19.4228 C   0  0  0  0  0  0  0  0  0  0  0  0
   25.9299  -18.7304  -20.7773 C   0  0  0  0  0  0  0  0  0  0  0  0
   25.0696  -18.3359  -21.7814 C   0  0  0  0  0  0  0  0  0  0  0  0
   25.6013  -18.1179  -23.0552 C   0  0  0  0  0  0  0  0  0  0  0  0
   26.9487  -18.2963  -23.2848 C   0  0  0  0  0  0  0  0  0  0  0  0
   27.7930  -18.6919  -22.2651 C   0  0  0  0  0  0  0  0  0  0  0  0
   27.2798  -18.9103  -21.0030 C   0  0  0  0  0  0  0  0  0  0  0  0
   24.1822  -17.7879  -17.5792 C   0  0  0  0  0  0  0  0  0  0  0  0
   24.7992  -17.7615  -16.4791 O   0  0  0  0  0  0  0  0  0  0  0  0
   20.5544  -18.0205  -16.6902 C   0  0  0  0  0  0  0  0  0  0  0  0
   22.0247  -18.0806  -16.3112 C   0  0  2  0  0  0  0  0  0  0  0  0
   22.7731  -17.9537  -17.5501 N   0  0  0  0  0  0  0  0  0  0  0  0
   22.2551  -19.3681  -15.6436 C   0  0  0  0  0  0  0  0  0  0  0  0
   22.4442  -20.4454  -16.3065 O   0  0  0  0  0  0  0  0  0  0  0  0
   24.4918  -20.4809   -8.7297 C   0  0  0  0  0  0  0  0  0  0  0  0
   25.1638  -21.1212  -10.2453 S   0  0  0  0  0  0  0  0  0  0  0  0
   23.9643  -21.4548  -11.5156 C   0  0  0  0  0  0  0  0  0  0  0  0
   23.5435  -20.3160  -12.3599 C   0  0  0  0  0  0  0  0  0  0  0  0
   22.5946  -20.5866  -13.4643 C   0  0  2  0  0  0  0  0  0  0  0  0
   22.2654  -19.4033  -14.2215 N   0  0  0  0  0  0  0  0  0  0  0  0
   21.4104  -21.3758  -13.0716 C   0  0  0  0  0  0  0  0  0  0  0  0
   20.3592  -20.8899  -12.5821 O   0  0  0  0  0  0  0  0  0  0  0  0
   21.4290  -22.7522  -13.2428 O   0  0  0  0  0  0  0  0  0  0  0  0
  2  1  1  1
  2 10  1  0
  3  2  1  0
  3  4  1  0
  4  9  2  0
  4  5  1  0
  5  6  2  0
  6  7  1  0
  8  7  2  0
  9  8  1  0
 10 14  1  0
 10 11  2  0
 13 12  1  6
 13 15  1  0
 14 13  1  0
 15 16  2  0
 18 17  1  0
 19 18  1  0
 20 19  1  0
 21 20  1  1
 21 23  1  0
 22 21  1  0
 22 15  1  0
 23 25  1  0
 24 23  2  0
M  END
$$$$
