FAM.pdb
     RDKit          3D

 25 25  0  0  1  0  0  0  0  0999 V2000
   28.3645  -19.3417  -13.9841 N   0  0  0  0  0  0  0  0  0  0  0  0
   26.9853  -19.1580  -14.3869 C   0  0  1  0  0  0  0  0  0  0  0  0
   26.0907  -18.9737  -13.1956 C   0  0  0  0  0  0  0  0  0  0  0  0
   26.1053  -20.2170  -12.3826 C   0  0  0  0  0  0  0  0  0  0  0  0
   26.4818  -20.1238  -11.0584 C   0  0  0  0  0  0  0  0  0  0  0  0
   26.4955  -21.2939  -10.2946 C   0  0  0  0  0  0  0  0  0  0  0  0
   26.1403  -22.4983  -10.8632 C   0  0  0  0  0  0  0  0  0  0  0  0
   25.7664  -22.5696  -12.1913 C   0  0  0  0  0  0  0  0  0  0  0  0
   25.7489  -21.4211  -12.9560 C   0  0  0  0  0  0  0  0  0  0  0  0
   26.8378  -18.0859  -15.3941 C   0  0  0  0  0  0  0  0  0  0  0  0
   27.2794  -16.9351  -15.1253 O   0  0  0  0  0  0  0  0  0  0  0  0
   26.2301  -17.5657  -18.9253 C   0  0  0  0  0  0  0  0  0  0  0  0
   25.8161  -17.1847  -17.5137 C   0  0  2  0  0  0  0  0  0  0  0  0
   26.2208  -18.2858  -16.6564 N   0  0  0  0  0  0  0  0  0  0  0  0
   24.3617  -16.9820  -17.5208 C   0  0  0  0  0  0  0  0  0  0  0  0
   23.5451  -17.9661  -17.4961 O   0  0  0  0  0  0  0  0  0  0  0  0
   21.7929  -10.8505  -16.2950 C   0  0  0  0  0  0  0  0  0  0  0  0
   20.4677  -11.7218  -17.0971 S   0  0  0  0  0  0  0  0  0  0  0  0
   20.7723  -13.4505  -17.3842 C   0  0  0  0  0  0  0  0  0  0  0  0
   22.1804  -13.9006  -17.3512 C   0  0  0  0  0  0  0  0  0  0  0  0
   22.4536  -15.3375  -17.5832 C   0  0  2  0  0  0  0  0  0  0  0  0
   23.8618  -15.6507  -17.5565 N   0  0  0  0  0  0  0  0  0  0  0  0
   21.7504  -15.9120  -18.7471 C   0  0  0  0  0  0  0  0  0  0  0  0
   22.1190  -15.7769  -19.9416 O   0  0  0  0  0  0  0  0  0  0  0  0
   20.5994  -16.6581  -18.5402 O   0  0  0  0  0  0  0  0  0  0  0  0
  2  1  1  1
  2 10  1  0
  3  2  1  0
  3  4  1  0
  4  9  2  0
  4  5  1  0
  5  6  2  0
  6  7  1  0
  8  7  2  0
  9  8  1  0
 10 14  1  0
 10 11  2  0
 13 12  1  6
 13 15  1  0
 14 13  1  0
 15 16  2  0
 18 17  1  0
 19 18  1  0
 20 19  1  0
 21 20  1  6
 21 23  1  0
 22 21  1  0
 22 15  1  0
 23 25  1  0
 24 23  2  0
M  END
$$$$
