FAM.pdb
     RDKit          3D

 25 25  0  0  1  0  0  0  0  0999 V2000
   26.8102  -18.2859   -7.7405 N   0  0  0  0  0  0  0  0  0  0  0  0
   27.2991  -19.5530   -8.2438 C   0  0  1  0  0  0  0  0  0  0  0  0
   27.0766  -20.6555   -7.2495 C   0  0  0  0  0  0  0  0  0  0  0  0
   27.8297  -20.3458   -6.0070 C   0  0  0  0  0  0  0  0  0  0  0  0
   29.1964  -20.5362   -6.0102 C   0  0  0  0  0  0  0  0  0  0  0  0
   29.9038  -20.2448   -4.8408 C   0  0  0  0  0  0  0  0  0  0  0  0
   29.2400  -19.7814   -3.7251 C   0  0  0  0  0  0  0  0  0  0  0  0
   27.8708  -19.5977   -3.7431 C   0  0  0  0  0  0  0  0  0  0  0  0
   27.1611  -19.8819   -4.8919 C   0  0  0  0  0  0  0  0  0  0  0  0
   26.7606  -19.8644   -9.5849 C   0  0  0  0  0  0  0  0  0  0  0  0
   25.5435  -19.6297   -9.8200 O   0  0  0  0  0  0  0  0  0  0  0  0
   28.2665  -20.9576  -12.8325 C   0  0  0  0  0  0  0  0  0  0  0  0
   27.0778  -20.5056  -12.0008 C   0  0  2  0  0  0  0  0  0  0  0  0
   27.5473  -20.4171  -10.6286 N   0  0  0  0  0  0  0  0  0  0  0  0
   26.0164  -21.5063  -12.1692 C   0  0  0  0  0  0  0  0  0  0  0  0
   25.7816  -22.3943  -11.2792 O   0  0  0  0  0  0  0  0  0  0  0  0
   21.9167  -20.0874   -9.2069 C   0  0  0  0  0  0  0  0  0  0  0  0
   21.0062  -19.9515  -10.7272 S   0  0  0  0  0  0  0  0  0  0  0  0
   21.7129  -20.8263  -12.1053 C   0  0  0  0  0  0  0  0  0  0  0  0
   23.1829  -20.7709  -12.2555 C   0  0  0  0  0  0  0  0  0  0  0  0
   23.7956  -21.5453  -13.3591 C   0  0  2  0  0  0  0  0  0  0  0  0
   25.2368  -21.4756  -13.3587 N   0  0  0  0  0  0  0  0  0  0  0  0
   23.2001  -21.2923  -14.6860 C   0  0  0  0  0  0  0  0  0  0  0  0
   23.4332  -20.2778  -15.3912 O   0  0  0  0  0  0  0  0  0  0  0  0
   22.3177  -22.2208  -15.2185 O   0  0  0  0  0  0  0  0  0  0  0  0
  2  1  1  1
  2 10  1  0
  3  2  1  0
  3  4  1  0
  4  9  2  0
  4  5  1  0
  5  6  2  0
  6  7  1  0
  8  7  2  0
  9  8  1  0
 10 14  1  0
 10 11  2  0
 13 12  1  6
 13 15  1  0
 14 13  1  0
 15 16  2  0
 18 17  1  0
 19 18  1  0
 20 19  1  0
 21 20  1  1
 21 23  1  0
 22 21  1  0
 22 15  1  0
 23 25  1  0
 24 23  2  0
M  END
$$$$
