FAM.pdb
     RDKit          3D

 25 25  0  0  1  0  0  0  0  0999 V2000
   25.3997  -19.4017   -8.0802 N   0  0  0  0  0  0  0  0  0  0  0  0
   26.6476  -19.7673   -8.7183 C   0  0  1  0  0  0  0  0  0  0  0  0
   27.3562  -20.8448   -7.9500 C   0  0  0  0  0  0  0  0  0  0  0  0
   27.7967  -20.2963   -6.6416 C   0  0  0  0  0  0  0  0  0  0  0  0
   28.9221  -19.4982   -6.6165 C   0  0  0  0  0  0  0  0  0  0  0  0
   29.3358  -18.9830   -5.3852 C   0  0  0  0  0  0  0  0  0  0  0  0
   28.6286  -19.2734   -4.2382 C   0  0  0  0  0  0  0  0  0  0  0  0
   27.5042  -20.0748   -4.2853 C   0  0  0  0  0  0  0  0  0  0  0  0
   27.0856  -20.5896   -5.4953 C   0  0  0  0  0  0  0  0  0  0  0  0
   26.4658  -20.0983  -10.1476 C   0  0  0  0  0  0  0  0  0  0  0  0
   25.2981  -20.3008  -10.5803 O   0  0  0  0  0  0  0  0  0  0  0  0
   28.7233  -20.3810  -13.1244 C   0  0  0  0  0  0  0  0  0  0  0  0
   27.3565  -20.1442  -12.5041 C   0  0  2  0  0  0  0  0  0  0  0  0
   27.5442  -20.2006  -11.0644 N   0  0  0  0  0  0  0  0  0  0  0  0
   26.4607  -21.1984  -12.9968 C   0  0  0  0  0  0  0  0  0  0  0  0
   26.3460  -22.3202  -12.3933 O   0  0  0  0  0  0  0  0  0  0  0  0
   21.8851  -21.1885  -10.2589 C   0  0  0  0  0  0  0  0  0  0  0  0
   21.0587  -21.1810  -11.8323 S   0  0  0  0  0  0  0  0  0  0  0  0
   22.0886  -21.5946  -13.2223 C   0  0  0  0  0  0  0  0  0  0  0  0
   23.5027  -21.1663  -13.1634 C   0  0  0  0  0  0  0  0  0  0  0  0
   24.3486  -21.4053  -14.3553 C   0  0  2  0  0  0  0  0  0  0  0  0
   25.7067  -20.9517  -14.1775 N   0  0  0  0  0  0  0  0  0  0  0  0
   23.7477  -20.9620  -15.6288 C   0  0  0  0  0  0  0  0  0  0  0  0
   23.8098  -19.7889  -16.0770 O   0  0  0  0  0  0  0  0  0  0  0  0
   23.0602  -21.8814  -16.4074 O   0  0  0  0  0  0  0  0  0  0  0  0
  2  1  1  1
  2 10  1  0
  3  2  1  0
  3  4  1  0
  4  9  2  0
  4  5  1  0
  5  6  2  0
  6  7  1  0
  8  7  2  0
  9  8  1  0
 10 14  1  0
 10 11  2  0
 13 12  1  6
 13 15  1  0
 14 13  1  0
 15 16  2  0
 18 17  1  0
 19 18  1  0
 20 19  1  0
 21 20  1  1
 21 23  1  0
 22 21  1  0
 22 15  1  0
 23 25  1  0
 24 23  2  0
M  END
$$$$
