IHK.pdb
     RDKit          3D

 28 28  0  0  1  0  0  0  0  0999 V2000
    6.5967  -11.0764   27.7836 C   0  0  0  0  0  0  0  0  0  0  0  0
    6.0633  -11.9927   26.7357 C   0  0  0  0  0  0  0  0  0  0  0  0
    7.0630  -12.9498   26.1466 C   0  0  2  0  0  0  0  0  0  0  0  0
    8.2119  -12.1270   25.5550 C   0  0  0  0  0  0  0  0  0  0  0  0
    6.4197  -13.8069   25.1164 C   0  0  2  0  0  0  0  0  0  0  0  0
    5.2653  -14.4559   25.6446 N   0  0  0  0  0  0  0  0  0  0  0  0
    7.3692  -14.7476   24.4699 C   0  0  0  0  0  0  0  0  0  0  0  0
    7.4515  -15.9241   24.8758 O   0  0  0  0  0  0  0  0  0  0  0  0
    8.2273  -14.4075   23.3837 N   0  0  0  0  0  0  0  0  0  0  0  0
    9.0724  -15.3208   22.7078 C   0  0  1  0  0  0  0  0  0  0  0  0
    9.5925  -14.9958   21.3841 C   0  0  0  0  0  0  0  0  0  0  0  0
    8.6912  -14.5422   20.3439 C   0  0  0  0  0  0  0  0  0  0  0  0
    8.4258  -13.3339   19.8044 C   0  0  0  0  0  0  0  0  0  0  0  0
    7.4835  -13.4337   18.8177 N   0  0  0  0  0  0  0  0  0  0  0  0
    7.1906  -14.7449   18.7810 C   0  0  0  0  0  0  0  0  0  0  0  0
    7.8894  -15.4255   19.6722 N   0  0  0  0  0  0  0  0  0  0  0  0
   10.1630  -15.7847   23.6451 C   0  0  0  0  0  0  0  0  0  0  0  0
   10.8160  -14.8865   24.2214 O   0  0  0  0  0  0  0  0  0  0  0  0
   10.4540  -17.1321   23.8794 N   0  0  0  0  0  0  0  0  0  0  0  0
   11.4678  -17.5830   24.8273 C   0  0  1  0  0  0  0  0  0  0  0  0
   11.0593  -18.8994   25.4474 C   0  0  0  0  0  0  0  0  0  0  0  0
   12.0773  -19.4814   26.3651 C   0  0  0  0  0  0  0  0  0  0  0  0
   11.7293  -20.8540   26.8708 C   0  0  0  0  0  0  0  0  0  0  0  0
   12.7929  -21.4386   27.7544 C   0  0  0  0  0  0  0  0  0  0  0  0
   12.4073  -22.8251   28.0437 N   0  0  0  0  0  0  0  0  0  0  0  0
   12.7467  -17.6722   24.1038 C   0  0  0  0  0  0  0  0  0  0  0  0
   13.9543  -17.3984   24.7161 O   0  0  0  0  0  0  0  0  0  0  0  0
   12.7488  -18.0057   22.8970 O   0  0  0  0  0  0  0  0  0  0  0  0
  2  1  1  0
  2  3  1  0
  3  5  1  0
  3  4  1  6
  5  7  1  0
  5  6  1  1
  7  8  2  0
  9 10  1  0
  9  7  1  0
 10 11  1  6
 11 12  1  0
 12 16  1  0
 13 14  1  0
 13 12  2  0
 14 15  1  0
 15 16  2  0
 17 18  2  0
 17 10  1  0
 19 17  1  0
 20 19  1  0
 20 21  1  6
 22 21  1  0
 23 22  1  0
 24 23  1  0
 24 25  1  0
 26 20  1  0
 26 27  1  0
 28 26  2  0
M  END
$$$$
