IHK.pdb
     RDKit          3D

 28 28  0  0  1  0  0  0  0  0999 V2000
    7.1839  -12.0640   19.4059 C   0  0  0  0  0  0  0  0  0  0  0  0
    7.9602  -12.9257   18.4694 C   0  0  0  0  0  0  0  0  0  0  0  0
    8.9695  -13.8346   19.1159 C   0  0  2  0  0  0  0  0  0  0  0  0
    9.9410  -12.9645   19.9198 C   0  0  0  0  0  0  0  0  0  0  0  0
    9.6810  -14.6386   18.0877 C   0  0  2  0  0  0  0  0  0  0  0  0
    8.7574  -15.2277   17.1753 N   0  0  0  0  0  0  0  0  0  0  0  0
   10.6257  -15.6229   18.6734 C   0  0  0  0  0  0  0  0  0  0  0  0
   10.6200  -16.8040   18.2727 O   0  0  0  0  0  0  0  0  0  0  0  0
   11.5746  -15.3214   19.6934 N   0  0  0  0  0  0  0  0  0  0  0  0
   12.5217  -16.2387   20.2098 C   0  0  1  0  0  0  0  0  0  0  0  0
   13.3612  -17.0136   19.3026 C   0  0  0  0  0  0  0  0  0  0  0  0
   13.0243  -17.0932   17.8953 C   0  0  0  0  0  0  0  0  0  0  0  0
   12.3336  -16.2922   17.0571 C   0  0  0  0  0  0  0  0  0  0  0  0
   12.3086  -16.8115   15.7918 N   0  0  0  0  0  0  0  0  0  0  0  0
   13.0089  -17.9539   15.8966 C   0  0  0  0  0  0  0  0  0  0  0  0
   13.4448  -18.1469   17.1289 N   0  0  0  0  0  0  0  0  0  0  0  0
   13.3317  -15.5677   21.2947 C   0  0  0  0  0  0  0  0  0  0  0  0
   14.4682  -15.1615   20.9652 O   0  0  0  0  0  0  0  0  0  0  0  0
   12.8698  -15.3935   22.6029 N   0  0  0  0  0  0  0  0  0  0  0  0
   13.4012  -16.1260   23.7478 C   0  0  1  0  0  0  0  0  0  0  0  0
   12.4624  -17.2442   24.1382 C   0  0  0  0  0  0  0  0  0  0  0  0
   13.0356  -18.2040   25.1218 C   0  0  0  0  0  0  0  0  0  0  0  0
   12.0603  -18.6554   26.1735 C   0  0  0  0  0  0  0  0  0  0  0  0
   12.6780  -19.5731   27.1883 C   0  0  0  0  0  0  0  0  0  0  0  0
   11.6380  -19.9016   28.1708 N   0  0  0  0  0  0  0  0  0  0  0  0
   14.7407  -16.6149   23.3818 C   0  0  0  0  0  0  0  0  0  0  0  0
   14.9361  -17.5048   22.3435 O   0  0  0  0  0  0  0  0  0  0  0  0
   15.7379  -16.2171   24.0259 O   0  0  0  0  0  0  0  0  0  0  0  0
  2  1  1  0
  2  3  1  0
  3  5  1  0
  3  4  1  6
  5  7  1  0
  5  6  1  1
  7  8  2  0
  9 10  1  0
  9  7  1  0
 10 11  1  6
 11 12  1  0
 12 16  1  0
 13 14  1  0
 13 12  2  0
 14 15  1  0
 15 16  2  0
 17 18  2  0
 17 10  1  0
 19 17  1  0
 20 19  1  0
 20 21  1  6
 22 21  1  0
 23 22  1  0
 24 23  1  0
 24 25  1  0
 26 20  1  0
 26 27  1  0
 28 26  2  0
M  END
$$$$
