IHK.pdb
     RDKit          3D

 28 28  0  0  1  0  0  0  0  0999 V2000
    7.7863  -11.7809   19.4685 C   0  0  0  0  0  0  0  0  0  0  0  0
    8.1608  -13.2223   19.4024 C   0  0  0  0  0  0  0  0  0  0  0  0
    7.8199  -14.0336   20.6223 C   0  0  2  0  0  0  0  0  0  0  0  0
    8.6101  -13.4629   21.8042 C   0  0  0  0  0  0  0  0  0  0  0  0
    8.1349  -15.4691   20.3984 C   0  0  2  0  0  0  0  0  0  0  0  0
    7.5548  -15.9323   19.1812 N   0  0  0  0  0  0  0  0  0  0  0  0
    7.7983  -16.3249   21.5640 C   0  0  0  0  0  0  0  0  0  0  0  0
    6.6043  -16.5210   21.8666 O   0  0  0  0  0  0  0  0  0  0  0  0
    8.7602  -16.9655   22.3985 N   0  0  0  0  0  0  0  0  0  0  0  0
    8.4448  -17.8148   23.4867 C   0  0  1  0  0  0  0  0  0  0  0  0
    8.0794  -19.2069   23.2477 C   0  0  0  0  0  0  0  0  0  0  0  0
    7.7833  -20.0795   24.3662 C   0  0  0  0  0  0  0  0  0  0  0  0
    6.9512  -19.9858   25.4247 C   0  0  0  0  0  0  0  0  0  0  0  0
    7.0263  -21.1048   26.2080 N   0  0  0  0  0  0  0  0  0  0  0  0
    7.9327  -21.8767   25.5842 C   0  0  0  0  0  0  0  0  0  0  0  0
    8.3977  -21.2965   24.4920 N   0  0  0  0  0  0  0  0  0  0  0  0
    9.5097  -17.6849   24.5508 C   0  0  0  0  0  0  0  0  0  0  0  0
   10.6956  -17.7445   24.1565 O   0  0  0  0  0  0  0  0  0  0  0  0
    9.2233  -17.5074   25.9078 N   0  0  0  0  0  0  0  0  0  0  0  0
   10.2302  -17.5947   26.9605 C   0  0  1  0  0  0  0  0  0  0  0  0
    9.5674  -17.6800   28.3162 C   0  0  0  0  0  0  0  0  0  0  0  0
   10.5149  -17.9002   29.4436 C   0  0  0  0  0  0  0  0  0  0  0  0
    9.8453  -18.0685   30.7793 C   0  0  0  0  0  0  0  0  0  0  0  0
   10.8172  -18.3433   31.8900 C   0  0  0  0  0  0  0  0  0  0  0  0
   10.0406  -18.4679   33.1294 N   0  0  0  0  0  0  0  0  0  0  0  0
   11.0775  -18.7634   26.6715 C   0  0  0  0  0  0  0  0  0  0  0  0
   12.4560  -18.7006   26.7333 O   0  0  0  0  0  0  0  0  0  0  0  0
   10.5405  -19.8505   26.3597 O   0  0  0  0  0  0  0  0  0  0  0  0
  2  1  1  0
  2  3  1  0
  3  5  1  0
  3  4  1  1
  5  7  1  0
  5  6  1  6
  7  8  2  0
  9 10  1  0
  9  7  1  0
 10 11  1  6
 11 12  1  0
 12 16  1  0
 13 14  1  0
 13 12  2  0
 14 15  1  0
 15 16  2  0
 17 18  2  0
 17 10  1  0
 19 17  1  0
 20 19  1  0
 20 21  1  1
 22 21  1  0
 23 22  1  0
 24 23  1  0
 24 25  1  0
 26 20  1  0
 26 27  1  0
 28 26  2  0
M  END
$$$$
