IHK.pdb
     RDKit          3D

 28 28  0  0  1  0  0  0  0  0999 V2000
    6.6710  -11.4751   27.7100 C   0  0  0  0  0  0  0  0  0  0  0  0
    6.0191  -12.6107   26.9976 C   0  0  0  0  0  0  0  0  0  0  0  0
    6.9188  -13.4042   26.0901 C   0  0  2  0  0  0  0  0  0  0  0  0
    7.5265  -12.4392   25.0670 C   0  0  0  0  0  0  0  0  0  0  0  0
    6.1581  -14.4949   25.4255 C   0  0  2  0  0  0  0  0  0  0  0  0
    5.5154  -15.3259   26.3894 N   0  0  0  0  0  0  0  0  0  0  0  0
    6.9756  -15.2614   24.4516 C   0  0  0  0  0  0  0  0  0  0  0  0
    7.5496  -16.3090   24.8107 O   0  0  0  0  0  0  0  0  0  0  0  0
    7.1676  -14.8878   23.0895 N   0  0  0  0  0  0  0  0  0  0  0  0
    7.9161  -15.6337   22.1470 C   0  0  1  0  0  0  0  0  0  0  0  0
    7.8249  -15.3197   20.7252 C   0  0  0  0  0  0  0  0  0  0  0  0
    8.5524  -16.1187   19.7596 C   0  0  0  0  0  0  0  0  0  0  0  0
    9.3971  -17.1659   19.8659 C   0  0  0  0  0  0  0  0  0  0  0  0
    9.8157  -17.5855   18.6330 N   0  0  0  0  0  0  0  0  0  0  0  0
    9.1934  -16.7545   17.7795 C   0  0  0  0  0  0  0  0  0  0  0  0
    8.4393  -15.8764   18.4168 N   0  0  0  0  0  0  0  0  0  0  0  0
    9.3502  -15.7365   22.6120 C   0  0  0  0  0  0  0  0  0  0  0  0
    9.8945  -14.6673   22.9666 O   0  0  0  0  0  0  0  0  0  0  0  0
   10.0598  -16.9404   22.6566 N   0  0  0  0  0  0  0  0  0  0  0  0
   11.3071  -17.1120   23.3945 C   0  0  1  0  0  0  0  0  0  0  0  0
   11.1756  -18.2376   24.3947 C   0  0  0  0  0  0  0  0  0  0  0  0
   12.4368  -18.5585   25.1183 C   0  0  0  0  0  0  0  0  0  0  0  0
   12.2993  -19.6717   26.1197 C   0  0  0  0  0  0  0  0  0  0  0  0
   13.5405  -19.8781   26.9386 C   0  0  0  0  0  0  0  0  0  0  0  0
   13.3108  -21.0495   27.7928 N   0  0  0  0  0  0  0  0  0  0  0  0
   12.3771  -17.3514   22.4122 C   0  0  0  0  0  0  0  0  0  0  0  0
   13.6750  -16.9304   22.6273 O   0  0  0  0  0  0  0  0  0  0  0  0
   12.1112  -17.9539   21.3475 O   0  0  0  0  0  0  0  0  0  0  0  0
  2  1  1  0
  2  3  1  0
  3  5  1  0
  3  4  1  6
  5  7  1  0
  5  6  1  1
  7  8  2  0
  9 10  1  0
  9  7  1  0
 10 11  1  6
 11 12  1  0
 12 16  1  0
 13 14  1  0
 13 12  2  0
 14 15  1  0
 15 16  2  0
 17 18  2  0
 17 10  1  0
 19 17  1  0
 20 19  1  0
 20 21  1  1
 22 21  1  0
 23 22  1  0
 24 23  1  0
 24 25  1  0
 26 20  1  0
 26 27  1  0
 28 26  2  0
M  END
$$$$
