IHK.pdb
     RDKit          3D

 28 28  0  0  1  0  0  0  0  0999 V2000
    6.6551  -11.4143   27.6338 C   0  0  0  0  0  0  0  0  0  0  0  0
    6.0541  -12.5618   26.8962 C   0  0  0  0  0  0  0  0  0  0  0  0
    7.0076  -13.3469   26.0376 C   0  0  2  0  0  0  0  0  0  0  0  0
    7.6228  -12.3856   25.0155 C   0  0  0  0  0  0  0  0  0  0  0  0
    6.3024  -14.4730   25.3709 C   0  0  2  0  0  0  0  0  0  0  0  0
    5.6556  -15.3061   26.3302 N   0  0  0  0  0  0  0  0  0  0  0  0
    7.1736  -15.2310   24.4377 C   0  0  0  0  0  0  0  0  0  0  0  0
    7.9044  -16.1434   24.8725 O   0  0  0  0  0  0  0  0  0  0  0  0
    7.2488  -14.9956   23.0338 N   0  0  0  0  0  0  0  0  0  0  0  0
    7.9987  -15.7800   22.1242 C   0  0  1  0  0  0  0  0  0  0  0  0
    7.8350  -15.5920   20.6867 C   0  0  0  0  0  0  0  0  0  0  0  0
    8.4582  -16.5162   19.7606 C   0  0  0  0  0  0  0  0  0  0  0  0
    8.0931  -17.7117   19.2517 C   0  0  0  0  0  0  0  0  0  0  0  0
    9.0401  -18.1861   18.3861 N   0  0  0  0  0  0  0  0  0  0  0  0
    9.9890  -17.2343   18.3906 C   0  0  0  0  0  0  0  0  0  0  0  0
    9.6724  -16.2344   19.1942 N   0  0  0  0  0  0  0  0  0  0  0  0
    9.4533  -15.7711   22.5332 C   0  0  0  0  0  0  0  0  0  0  0  0
    9.9283  -14.6616   22.8627 O   0  0  0  0  0  0  0  0  0  0  0  0
   10.2533  -16.9176   22.5541 N   0  0  0  0  0  0  0  0  0  0  0  0
   11.6408  -16.9222   23.0063 C   0  0  1  0  0  0  0  0  0  0  0  0
   11.7034  -17.0682   24.5094 C   0  0  0  0  0  0  0  0  0  0  0  0
   11.5842  -18.4727   24.9894 C   0  0  0  0  0  0  0  0  0  0  0  0
   11.6290  -18.6119   26.4859 C   0  0  0  0  0  0  0  0  0  0  0  0
   11.5077  -20.0362   26.9445 C   0  0  0  0  0  0  0  0  0  0  0  0
   11.6959  -20.0441   28.4003 N   0  0  0  0  0  0  0  0  0  0  0  0
   12.3355  -18.0132   22.3034 C   0  0  0  0  0  0  0  0  0  0  0  0
   13.7105  -18.1425   22.3310 O   0  0  0  0  0  0  0  0  0  0  0  0
   11.6674  -18.8534   21.6590 O   0  0  0  0  0  0  0  0  0  0  0  0
  2  1  1  0
  2  3  1  0
  3  5  1  0
  3  4  1  6
  5  7  1  0
  5  6  1  1
  7  8  2  0
  9 10  1  0
  9  7  1  0
 10 11  1  6
 11 12  1  0
 12 16  1  0
 13 14  1  0
 13 12  2  0
 14 15  1  0
 15 16  2  0
 17 18  2  0
 17 10  1  0
 19 17  1  0
 20 19  1  0
 20 21  1  1
 22 21  1  0
 23 22  1  0
 24 23  1  0
 24 25  1  0
 26 20  1  0
 26 27  1  0
 28 26  2  0
M  END
$$$$
