IHK.pdb
     RDKit          3D

 28 28  0  0  1  0  0  0  0  0999 V2000
    6.4333  -11.5818   27.7176 C   0  0  0  0  0  0  0  0  0  0  0  0
    5.9515  -12.7269   26.8937 C   0  0  0  0  0  0  0  0  0  0  0  0
    7.0177  -13.4699   26.1363 C   0  0  2  0  0  0  0  0  0  0  0  0
    7.6928  -12.4814   25.1802 C   0  0  0  0  0  0  0  0  0  0  0  0
    6.4298  -14.6219   25.4034 C   0  0  2  0  0  0  0  0  0  0  0  0
    5.6444  -15.4312   26.2757 N   0  0  0  0  0  0  0  0  0  0  0  0
    7.4390  -15.4001   24.6417 C   0  0  0  0  0  0  0  0  0  0  0  0
    8.0764  -16.3114   25.2064 O   0  0  0  0  0  0  0  0  0  0  0  0
    7.7534  -15.1862   23.2680 N   0  0  0  0  0  0  0  0  0  0  0  0
    8.6058  -16.0141   22.4979 C   0  0  1  0  0  0  0  0  0  0  0  0
    8.5205  -16.0005   21.0415 C   0  0  0  0  0  0  0  0  0  0  0  0
    8.2513  -14.7590   20.3441 C   0  0  0  0  0  0  0  0  0  0  0  0
    8.0490  -13.4882   20.7508 C   0  0  0  0  0  0  0  0  0  0  0  0
    7.8462  -12.6579   19.6827 N   0  0  0  0  0  0  0  0  0  0  0  0
    7.9336  -13.4729   18.6176 C   0  0  0  0  0  0  0  0  0  0  0  0
    8.1727  -14.7215   18.9778 N   0  0  0  0  0  0  0  0  0  0  0  0
   10.0288  -15.8589   22.9819 C   0  0  0  0  0  0  0  0  0  0  0  0
   10.3350  -14.7394   23.4492 O   0  0  0  0  0  0  0  0  0  0  0  0
   10.9764  -16.8856   22.9263 N   0  0  0  0  0  0  0  0  0  0  0  0
   12.2357  -16.8586   23.6631 C   0  0  1  0  0  0  0  0  0  0  0  0
   12.3022  -18.0159   24.6330 C   0  0  0  0  0  0  0  0  0  0  0  0
   13.5771  -18.0956   25.3983 C   0  0  0  0  0  0  0  0  0  0  0  0
   13.6962  -19.3224   26.2595 C   0  0  0  0  0  0  0  0  0  0  0  0
   14.9762  -19.3650   27.0426 C   0  0  0  0  0  0  0  0  0  0  0  0
   14.9846  -20.6235   27.7981 N   0  0  0  0  0  0  0  0  0  0  0  0
   13.3295  -16.8835   22.6781 C   0  0  0  0  0  0  0  0  0  0  0  0
   14.5760  -16.3571   22.9558 O   0  0  0  0  0  0  0  0  0  0  0  0
   13.1322  -17.3954   21.5527 O   0  0  0  0  0  0  0  0  0  0  0  0
  2  1  1  0
  2  3  1  0
  3  5  1  0
  3  4  1  6
  5  7  1  0
  5  6  1  1
  7  8  2  0
  9 10  1  0
  9  7  1  0
 10 11  1  6
 11 12  1  0
 12 16  1  0
 13 14  1  0
 13 12  2  0
 14 15  1  0
 15 16  2  0
 17 18  2  0
 17 10  1  0
 19 17  1  0
 20 19  1  0
 20 21  1  1
 22 21  1  0
 23 22  1  0
 24 23  1  0
 24 25  1  0
 26 20  1  0
 26 27  1  0
 28 26  2  0
M  END
$$$$
