IHK.pdb
     RDKit          3D

 28 28  0  0  1  0  0  0  0  0999 V2000
    6.6882  -12.0795   20.3091 C   0  0  0  0  0  0  0  0  0  0  0  0
    7.3915  -13.1379   19.5299 C   0  0  0  0  0  0  0  0  0  0  0  0
    7.9310  -14.2843   20.3406 C   0  0  2  0  0  0  0  0  0  0  0  0
    8.9351  -13.7174   21.3492 C   0  0  0  0  0  0  0  0  0  0  0  0
    8.5617  -15.2979   19.4547 C   0  0  2  0  0  0  0  0  0  0  0  0
    7.6398  -15.7527   18.4668 N   0  0  0  0  0  0  0  0  0  0  0  0
    9.2005  -16.4074   20.2066 C   0  0  0  0  0  0  0  0  0  0  0  0
    8.5599  -17.4531   20.4347 O   0  0  0  0  0  0  0  0  0  0  0  0
   10.5341  -16.3780   20.7091 N   0  0  0  0  0  0  0  0  0  0  0  0
   11.1853  -17.4710   21.3307 C   0  0  1  0  0  0  0  0  0  0  0  0
   12.4413  -17.9794   20.7900 C   0  0  0  0  0  0  0  0  0  0  0  0
   12.4773  -18.5503   19.4584 C   0  0  0  0  0  0  0  0  0  0  0  0
   11.8554  -19.5981   18.8781 C   0  0  0  0  0  0  0  0  0  0  0  0
   12.2212  -19.7199   17.5656 N   0  0  0  0  0  0  0  0  0  0  0  0
   13.0854  -18.7084   17.3749 C   0  0  0  0  0  0  0  0  0  0  0  0
   13.2565  -17.9994   18.4767 N   0  0  0  0  0  0  0  0  0  0  0  0
   11.2694  -17.2255   22.8193 C   0  0  0  0  0  0  0  0  0  0  0  0
   11.8656  -16.1848   23.1754 O   0  0  0  0  0  0  0  0  0  0  0  0
   10.7238  -18.0900   23.7733 N   0  0  0  0  0  0  0  0  0  0  0  0
   10.8162  -17.8618   25.2118 C   0  0  1  0  0  0  0  0  0  0  0  0
    9.9592  -18.8583   25.9582 C   0  0  0  0  0  0  0  0  0  0  0  0
    8.5670  -18.9702   25.4420 C   0  0  0  0  0  0  0  0  0  0  0  0
    7.7176  -19.9617   26.1878 C   0  0  0  0  0  0  0  0  0  0  0  0
    6.2926  -19.9825   25.7159 C   0  0  0  0  0  0  0  0  0  0  0  0
    5.5734  -20.9610   26.5405 N   0  0  0  0  0  0  0  0  0  0  0  0
   12.2373  -17.9465   25.5865 C   0  0  0  0  0  0  0  0  0  0  0  0
   12.7688  -17.1927   26.6148 O   0  0  0  0  0  0  0  0  0  0  0  0
   12.9936  -18.7225   24.9594 O   0  0  0  0  0  0  0  0  0  0  0  0
  2  1  1  0
  2  3  1  0
  3  5  1  0
  3  4  1  1
  5  7  1  0
  5  6  1  6
  7  8  2  0
  9 10  1  0
  9  7  1  0
 10 11  1  6
 11 12  1  0
 12 16  1  0
 13 14  1  0
 13 12  2  0
 14 15  1  0
 15 16  2  0
 17 18  2  0
 17 10  1  0
 19 17  1  0
 20 19  1  0
 20 21  1  1
 22 21  1  0
 23 22  1  0
 24 23  1  0
 24 25  1  0
 26 20  1  0
 26 27  1  0
 28 26  2  0
M  END
$$$$
