IHK.pdb
     RDKit          3D

 28 28  0  0  1  0  0  0  0  0999 V2000
    6.4741  -11.5093   27.6858 C   0  0  0  0  0  0  0  0  0  0  0  0
    6.0503  -12.5495   26.7059 C   0  0  0  0  0  0  0  0  0  0  0  0
    7.1583  -13.4023   26.1510 C   0  0  2  0  0  0  0  0  0  0  0  0
    8.1755  -12.4749   25.4785 C   0  0  0  0  0  0  0  0  0  0  0  0
    6.6168  -14.4027   25.1940 C   0  0  2  0  0  0  0  0  0  0  0  0
    5.5528  -15.1458   25.7842 N   0  0  0  0  0  0  0  0  0  0  0  0
    7.6690  -15.2667   24.6018 C   0  0  0  0  0  0  0  0  0  0  0  0
    7.9207  -16.3770   25.1111 O   0  0  0  0  0  0  0  0  0  0  0  0
    8.4456  -14.9219   23.4573 N   0  0  0  0  0  0  0  0  0  0  0  0
    9.2799  -15.8205   22.7489 C   0  0  1  0  0  0  0  0  0  0  0  0
    9.6151  -15.5632   21.3526 C   0  0  0  0  0  0  0  0  0  0  0  0
    8.5917  -15.1019   20.4360 C   0  0  0  0  0  0  0  0  0  0  0  0
    7.3668  -15.5597   20.1020 C   0  0  0  0  0  0  0  0  0  0  0  0
    6.7734  -14.7436   19.1783 N   0  0  0  0  0  0  0  0  0  0  0  0
    7.6836  -13.7775   18.9673 C   0  0  0  0  0  0  0  0  0  0  0  0
    8.7692  -13.9629   19.6974 N   0  0  0  0  0  0  0  0  0  0  0  0
   10.5060  -16.1270   23.5771 C   0  0  0  0  0  0  0  0  0  0  0  0
   11.2126  -15.1472   23.9026 O   0  0  0  0  0  0  0  0  0  0  0  0
   10.8619  -17.4193   23.9752 N   0  0  0  0  0  0  0  0  0  0  0  0
   11.8290  -17.6977   25.0320 C   0  0  1  0  0  0  0  0  0  0  0  0
   11.2621  -18.6979   26.0132 C   0  0  0  0  0  0  0  0  0  0  0  0
   12.2023  -19.0815   27.1022 C   0  0  0  0  0  0  0  0  0  0  0  0
   11.6208  -20.0453   28.0991 C   0  0  0  0  0  0  0  0  0  0  0  0
   12.5978  -20.4415   29.1678 C   0  0  0  0  0  0  0  0  0  0  0  0
   11.9511  -21.4703   29.9914 N   0  0  0  0  0  0  0  0  0  0  0  0
   13.0656  -18.1741   24.3908 C   0  0  0  0  0  0  0  0  0  0  0  0
   14.3093  -17.9640   24.9540 O   0  0  0  0  0  0  0  0  0  0  0  0
   12.9967  -18.7888   23.3023 O   0  0  0  0  0  0  0  0  0  0  0  0
  2  1  1  0
  2  3  1  0
  3  5  1  0
  3  4  1  6
  5  7  1  0
  5  6  1  1
  7  8  2  0
  9 10  1  0
  9  7  1  0
 10 11  1  6
 11 12  1  0
 12 16  1  0
 13 14  1  0
 13 12  2  0
 14 15  1  0
 15 16  2  0
 17 18  2  0
 17 10  1  0
 19 17  1  0
 20 19  1  0
 20 21  1  1
 22 21  1  0
 23 22  1  0
 24 23  1  0
 24 25  1  0
 26 20  1  0
 26 27  1  0
 28 26  2  0
M  END
$$$$
