IHK.pdb
     RDKit          3D

 28 28  0  0  1  0  0  0  0  0999 V2000
   10.7441  -22.3677   17.3921 C   0  0  0  0  0  0  0  0  0  0  0  0
   10.0495  -21.0488   17.4025 C   0  0  0  0  0  0  0  0  0  0  0  0
   10.3864  -20.1518   18.5620 C   0  0  2  0  0  0  0  0  0  0  0  0
   10.0982  -20.9229   19.8541 C   0  0  0  0  0  0  0  0  0  0  0  0
    9.6000  -18.8922   18.4922 C   0  0  2  0  0  0  0  0  0  0  0  0
    9.6928  -18.3069   17.1954 N   0  0  0  0  0  0  0  0  0  0  0  0
    9.9314  -17.9410   19.5830 C   0  0  0  0  0  0  0  0  0  0  0  0
   11.0813  -17.4646   19.6639 O   0  0  0  0  0  0  0  0  0  0  0  0
    9.0125  -17.5097   20.5836 N   0  0  0  0  0  0  0  0  0  0  0  0
    9.3093  -16.5677   21.5984 C   0  0  1  0  0  0  0  0  0  0  0  0
    8.3882  -15.4697   21.8710 C   0  0  0  0  0  0  0  0  0  0  0  0
    8.1248  -14.4758   20.8497 C   0  0  0  0  0  0  0  0  0  0  0  0
    8.6262  -14.2531   19.6166 C   0  0  0  0  0  0  0  0  0  0  0  0
    8.0249  -13.1732   19.0304 N   0  0  0  0  0  0  0  0  0  0  0  0
    7.1430  -12.7529   19.9534 C   0  0  0  0  0  0  0  0  0  0  0  0
    7.1794  -13.5039   21.0399 N   0  0  0  0  0  0  0  0  0  0  0  0
    9.7082  -17.2971   22.8602 C   0  0  0  0  0  0  0  0  0  0  0  0
    9.0086  -18.2864   23.1717 O   0  0  0  0  0  0  0  0  0  0  0  0
   10.7910  -16.9166   23.6588 N   0  0  0  0  0  0  0  0  0  0  0  0
   11.3247  -17.7425   24.7370 C   0  0  1  0  0  0  0  0  0  0  0  0
   12.7873  -18.0389   24.4976 C   0  0  0  0  0  0  0  0  0  0  0  0
   13.3842  -18.9871   25.4783 C   0  0  0  0  0  0  0  0  0  0  0  0
   14.8298  -19.3068   25.2160 C   0  0  0  0  0  0  0  0  0  0  0  0
   15.4226  -20.2226   26.2472 C   0  0  0  0  0  0  0  0  0  0  0  0
   16.7897  -20.5391   25.8164 N   0  0  0  0  0  0  0  0  0  0  0  0
   11.0930  -17.0277   26.0030 C   0  0  0  0  0  0  0  0  0  0  0  0
   11.2570  -17.6409   27.2298 O   0  0  0  0  0  0  0  0  0  0  0  0
   10.7366  -15.8279   25.9756 O   0  0  0  0  0  0  0  0  0  0  0  0
  2  1  1  0
  2  3  1  0
  3  5  1  0
  3  4  1  1
  5  7  1  0
  5  6  1  6
  7  8  2  0
  9 10  1  0
  9  7  1  0
 10 11  1  1
 11 12  1  0
 12 16  1  0
 13 14  1  0
 13 12  2  0
 14 15  1  0
 15 16  2  0
 17 18  2  0
 17 10  1  0
 19 17  1  0
 20 19  1  0
 20 21  1  6
 22 21  1  0
 23 22  1  0
 24 23  1  0
 24 25  1  0
 26 20  1  0
 26 27  1  0
 28 26  2  0
M  END
$$$$
