IHK.pdb
     RDKit          3D

 28 28  0  0  1  0  0  0  0  0999 V2000
    6.7477  -10.8012   27.6325 C   0  0  0  0  0  0  0  0  0  0  0  0
    6.0066  -11.8838   26.9247 C   0  0  0  0  0  0  0  0  0  0  0  0
    6.8625  -12.8649   26.1714 C   0  0  2  0  0  0  0  0  0  0  0  0
    7.6940  -12.0798   25.1519 C   0  0  0  0  0  0  0  0  0  0  0  0
    6.0172  -13.8930   25.5091 C   0  0  2  0  0  0  0  0  0  0  0  0
    5.2173  -14.5851   26.4650 N   0  0  0  0  0  0  0  0  0  0  0  0
    6.7945  -14.8058   24.6334 C   0  0  0  0  0  0  0  0  0  0  0  0
    7.1310  -15.9315   25.0520 O   0  0  0  0  0  0  0  0  0  0  0  0
    7.2046  -14.4931   23.3045 N   0  0  0  0  0  0  0  0  0  0  0  0
    7.8410  -15.4003   22.4229 C   0  0  1  0  0  0  0  0  0  0  0  0
    7.9043  -15.1113   20.9944 C   0  0  0  0  0  0  0  0  0  0  0  0
    8.5135  -16.0654   20.0894 C   0  0  0  0  0  0  0  0  0  0  0  0
    8.0271  -16.8750   19.1254 C   0  0  0  0  0  0  0  0  0  0  0  0
    9.0316  -17.5889   18.5316 N   0  0  0  0  0  0  0  0  0  0  0  0
   10.1409  -17.1807   19.1713 C   0  0  0  0  0  0  0  0  0  0  0  0
    9.8656  -16.2799   20.0978 N   0  0  0  0  0  0  0  0  0  0  0  0
    9.1918  -15.7812   22.9827 C   0  0  0  0  0  0  0  0  0  0  0  0
   10.0212  -14.8527   23.1061 O   0  0  0  0  0  0  0  0  0  0  0  0
    9.5308  -17.0864   23.3525 N   0  0  0  0  0  0  0  0  0  0  0  0
   10.8219  -17.4499   23.9274 C   0  0  1  0  0  0  0  0  0  0  0  0
   10.8002  -18.8842   24.4037 C   0  0  0  0  0  0  0  0  0  0  0  0
   12.0928  -19.3555   24.9732 C   0  0  0  0  0  0  0  0  0  0  0  0
   12.0555  -19.5918   26.4577 C   0  0  0  0  0  0  0  0  0  0  0  0
   13.3513  -20.1234   26.9978 C   0  0  0  0  0  0  0  0  0  0  0  0
   13.2584  -20.0961   28.4625 N   0  0  0  0  0  0  0  0  0  0  0  0
   11.8503  -17.2109   22.9015 C   0  0  0  0  0  0  0  0  0  0  0  0
   13.0340  -16.5600   23.1901 O   0  0  0  0  0  0  0  0  0  0  0  0
   11.6540  -17.6063   21.7299 O   0  0  0  0  0  0  0  0  0  0  0  0
  2  1  1  0
  2  3  1  0
  3  5  1  0
  3  4  1  6
  5  7  1  0
  5  6  1  1
  7  8  2  0
  9 10  1  0
  9  7  1  0
 10 11  1  6
 11 12  1  0
 12 16  1  0
 13 14  1  0
 13 12  2  0
 14 15  1  0
 15 16  2  0
 17 18  2  0
 17 10  1  0
 19 17  1  0
 20 19  1  0
 20 21  1  6
 22 21  1  0
 23 22  1  0
 24 23  1  0
 24 25  1  0
 26 20  1  0
 26 27  1  0
 28 26  2  0
M  END
$$$$
