QDY.pdb
     RDKit          3D

 30 30  0  0  1  0  0  0  0  0999 V2000
    6.4804  -15.3517   17.3137 N   0  0  0  0  0  0  0  0  0  0  0  0
    7.3543  -14.2481   17.0591 C   0  0  0  0  0  0  0  0  0  0  0  0
    7.3796  -13.7619   15.9236 O   0  0  0  0  0  0  0  0  0  0  0  0
    8.1740  -13.7488   18.1566 C   0  0  0  0  0  0  0  0  0  0  0  0
    7.9398  -14.4666   19.4364 C   0  0  0  0  0  0  0  0  0  0  0  0
    8.7653  -14.0064   20.6035 C   0  0  2  0  0  0  0  0  0  0  0  0
    9.9543  -13.3012   20.2042 N   0  0  0  0  0  0  0  0  0  0  0  0
    9.0381  -15.1916   21.4392 C   0  0  0  0  0  0  0  0  0  0  0  0
    8.0578  -15.8619   21.8412 O   0  0  0  0  0  0  0  0  0  0  0  0
   10.3509  -15.6105   21.8100 N   0  0  0  0  0  0  0  0  0  0  0  0
   10.5939  -16.7476   22.6691 C   0  0  1  0  0  0  0  0  0  0  0  0
   11.9450  -17.3279   22.3785 C   0  0  0  0  0  0  0  0  0  0  0  0
   12.1718  -17.6660   20.9679 C   0  0  0  0  0  0  0  0  0  0  0  0
   13.1877  -17.2301   20.3820 O   0  0  0  0  0  0  0  0  0  0  0  0
   10.4347  -16.4048   24.1019 C   0  0  0  0  0  0  0  0  0  0  0  0
   11.2559  -15.6369   24.6468 O   0  0  0  0  0  0  0  0  0  0  0  0
   11.2922  -18.4590   20.2540 O   0  0  0  0  0  0  0  0  0  0  0  0
    6.5148  -10.8702   25.4986 O   0  0  0  0  0  0  0  0  0  0  0  0
    6.8052  -12.2005   25.7152 C   0  0  0  0  0  0  0  0  0  0  0  0
    6.2119  -13.1691   24.9411 C   0  0  0  0  0  0  0  0  0  0  0  0
    6.4988  -14.5066   25.1530 C   0  0  0  0  0  0  0  0  0  0  0  0
    7.3780  -14.8765   26.1380 C   0  0  0  0  0  0  0  0  0  0  0  0
    7.6690  -16.3027   26.3514 C   0  0  0  0  0  0  0  0  0  0  0  0
    9.1368  -16.6509   26.2252 C   0  0  2  0  0  0  0  0  0  0  0  0
    9.3486  -16.9613   24.8169 N   0  0  0  0  0  0  0  0  0  0  0  0
    9.5391  -17.7963   27.0584 C   0  0  0  0  0  0  0  0  0  0  0  0
    9.9470  -18.9672   26.4741 O   0  0  0  0  0  0  0  0  0  0  0  0
    7.9800  -13.9230   26.9207 C   0  0  0  0  0  0  0  0  0  0  0  0
    7.6765  -12.5813   26.6898 C   0  0  0  0  0  0  0  0  0  0  0  0
    9.5026  -17.6841   28.3035 O   0  0  0  0  0  0  0  0  0  0  0  0
  2  3  2  0
  2  1  1  0
  4  2  1  0
  5  6  1  0
  5  4  1  0
  6  7  1  6
  6  8  1  0
  8  9  2  0
  8 10  1  0
 10 11  1  0
 11 12  1  1
 12 13  1  0
 13 17  1  0
 14 13  2  0
 15 11  1  0
 15 16  2  0
 18 19  1  0
 19 20  2  0
 20 21  1  0
 22 21  2  0
 22 23  1  0
 24 23  1  6
 24 25  1  0
 25 15  1  0
 26 24  1  0
 27 26  1  0
 28 22  1  0
 29 19  1  0
 29 28  2  0
 30 26  2  0
M  END
$$$$
