QDY.pdb
     RDKit          3D

 30 30  0  0  1  0  0  0  0  0999 V2000
    7.9374  -20.1102   16.5238 N   0  0  0  0  0  0  0  0  0  0  0  0
    7.5950  -18.7229   16.5911 C   0  0  0  0  0  0  0  0  0  0  0  0
    8.1434  -17.9386   15.8098 O   0  0  0  0  0  0  0  0  0  0  0  0
    6.6111  -18.3016   17.5811 C   0  0  0  0  0  0  0  0  0  0  0  0
    7.1474  -18.2772   18.9666 C   0  0  0  0  0  0  0  0  0  0  0  0
    7.9585  -17.0670   19.3313 C   0  0  2  0  0  0  0  0  0  0  0  0
    8.7355  -16.5619   18.2306 N   0  0  0  0  0  0  0  0  0  0  0  0
    8.7722  -17.4259   20.5088 C   0  0  0  0  0  0  0  0  0  0  0  0
    8.1770  -17.8787   21.5151 O   0  0  0  0  0  0  0  0  0  0  0  0
   10.1914  -17.2851   20.5599 N   0  0  0  0  0  0  0  0  0  0  0  0
   10.9495  -17.4569   21.7790 C   0  0  1  0  0  0  0  0  0  0  0  0
   12.4124  -17.5395   21.4634 C   0  0  0  0  0  0  0  0  0  0  0  0
   12.7779  -18.6301   20.5509 C   0  0  0  0  0  0  0  0  0  0  0  0
   13.4738  -18.3852   19.5404 O   0  0  0  0  0  0  0  0  0  0  0  0
   10.6554  -16.3949   22.7697 C   0  0  0  0  0  0  0  0  0  0  0  0
   11.1206  -15.2479   22.6001 O   0  0  0  0  0  0  0  0  0  0  0  0
   12.3757  -19.9347   20.7703 O   0  0  0  0  0  0  0  0  0  0  0  0
    6.1477  -10.8998   27.4551 O   0  0  0  0  0  0  0  0  0  0  0  0
    6.6778  -11.8913   26.6572 C   0  0  0  0  0  0  0  0  0  0  0  0
    7.8640  -11.6811   25.9952 C   0  0  0  0  0  0  0  0  0  0  0  0
    8.4020  -12.6722   25.1924 C   0  0  0  0  0  0  0  0  0  0  0  0
    7.7554  -13.8730   25.0510 C   0  0  0  0  0  0  0  0  0  0  0  0
    8.3400  -14.9140   24.1915 C   0  0  0  0  0  0  0  0  0  0  0  0
    9.4603  -15.6902   24.8502 C   0  0  2  0  0  0  0  0  0  0  0  0
    9.8499  -16.7133   23.8879 N   0  0  0  0  0  0  0  0  0  0  0  0
    9.0657  -16.3201   26.1213 C   0  0  0  0  0  0  0  0  0  0  0  0
    9.3905  -15.7307   27.3155 O   0  0  0  0  0  0  0  0  0  0  0  0
    6.5700  -14.1008   25.7046 C   0  0  0  0  0  0  0  0  0  0  0  0
    6.0460  -13.0883   26.5083 C   0  0  0  0  0  0  0  0  0  0  0  0
    8.4316  -17.3977   26.0939 O   0  0  0  0  0  0  0  0  0  0  0  0
  2  3  2  0
  2  1  1  0
  4  2  1  0
  5  6  1  0
  5  4  1  0
  6  7  1  6
  6  8  1  0
  8  9  2  0
  8 10  1  0
 10 11  1  0
 11 12  1  6
 12 13  1  0
 13 17  1  0
 14 13  2  0
 15 11  1  0
 15 16  2  0
 18 19  1  0
 19 20  2  0
 20 21  1  0
 22 21  2  0
 22 23  1  0
 24 23  1  6
 24 25  1  0
 25 15  1  0
 26 24  1  0
 27 26  1  0
 28 22  1  0
 29 19  1  0
 29 28  2  0
 30 26  2  0
M  END
$$$$
