QDY.pdb
     RDKit          3D

 30 30  0  0  1  0  0  0  0  0999 V2000
    7.1341  -12.3136   18.7610 N   0  0  0  0  0  0  0  0  0  0  0  0
    7.2914  -13.5929   18.1405 C   0  0  0  0  0  0  0  0  0  0  0  0
    7.1742  -13.6747   16.9133 O   0  0  0  0  0  0  0  0  0  0  0  0
    7.5847  -14.7411   18.9898 C   0  0  0  0  0  0  0  0  0  0  0  0
    7.5580  -14.4190   20.4401 C   0  0  0  0  0  0  0  0  0  0  0  0
    8.8985  -14.2639   21.0992 C   0  0  2  0  0  0  0  0  0  0  0  0
    9.9841  -14.2222   20.1557 N   0  0  0  0  0  0  0  0  0  0  0  0
    9.0245  -15.3482   22.0921 C   0  0  0  0  0  0  0  0  0  0  0  0
    8.0291  -15.6015   22.8111 O   0  0  0  0  0  0  0  0  0  0  0  0
   10.2127  -16.1175   22.2740 N   0  0  0  0  0  0  0  0  0  0  0  0
   10.3589  -17.0888   23.3349 C   0  0  1  0  0  0  0  0  0  0  0  0
   11.5296  -17.9812   23.0526 C   0  0  0  0  0  0  0  0  0  0  0  0
   11.5823  -18.5007   21.6804 C   0  0  0  0  0  0  0  0  0  0  0  0
   10.7456  -19.3532   21.3083 O   0  0  0  0  0  0  0  0  0  0  0  0
   10.4607  -16.4456   24.6660 C   0  0  0  0  0  0  0  0  0  0  0  0
   11.3232  -15.5627   24.8595 O   0  0  0  0  0  0  0  0  0  0  0  0
   12.5353  -18.0767   20.7727 O   0  0  0  0  0  0  0  0  0  0  0  0
    6.3665  -11.0339   25.4766 O   0  0  0  0  0  0  0  0  0  0  0  0
    6.8093  -12.2502   25.9514 C   0  0  0  0  0  0  0  0  0  0  0  0
    8.1076  -12.3898   26.3807 C   0  0  0  0  0  0  0  0  0  0  0  0
    8.5589  -13.6081   26.8586 C   0  0  0  0  0  0  0  0  0  0  0  0
    7.7137  -14.6866   26.9075 C   0  0  0  0  0  0  0  0  0  0  0  0
    8.2109  -15.9746   27.4155 C   0  0  0  0  0  0  0  0  0  0  0  0
    9.6419  -16.2734   27.0225 C   0  0  2  0  0  0  0  0  0  0  0  0
    9.5711  -16.8534   25.6872 N   0  0  0  0  0  0  0  0  0  0  0  0
   10.3171  -17.2060   27.9404 C   0  0  0  0  0  0  0  0  0  0  0  0
   10.6768  -18.4578   27.5135 O   0  0  0  0  0  0  0  0  0  0  0  0
    6.4139  -14.5657   26.4830 C   0  0  0  0  0  0  0  0  0  0  0  0
    5.9802  -13.3289   26.0053 C   0  0  0  0  0  0  0  0  0  0  0  0
   10.5560  -16.8388   29.1118 O   0  0  0  0  0  0  0  0  0  0  0  0
  2  3  2  0
  2  1  1  0
  4  2  1  0
  5  6  1  0
  5  4  1  0
  6  7  1  6
  6  8  1  0
  8  9  2  0
  8 10  1  0
 10 11  1  0
 11 12  1  6
 12 13  1  0
 13 17  1  0
 14 13  2  0
 15 11  1  0
 15 16  2  0
 18 19  1  0
 19 20  2  0
 20 21  1  0
 22 21  2  0
 22 23  1  0
 24 23  1  1
 24 25  1  0
 25 15  1  0
 26 24  1  0
 27 26  1  0
 28 22  1  0
 29 19  1  0
 29 28  2  0
 30 26  2  0
M  END
$$$$
