QDY.pdb
     RDKit          3D

 30 30  0  0  1  0  0  0  0  0999 V2000
    7.7196  -12.8018   17.0437 N   0  0  0  0  0  0  0  0  0  0  0  0
    7.8333  -14.1829   16.6890 C   0  0  0  0  0  0  0  0  0  0  0  0
    8.4815  -14.4845   15.6814 O   0  0  0  0  0  0  0  0  0  0  0  0
    7.1773  -15.1702   17.5379 C   0  0  0  0  0  0  0  0  0  0  0  0
    7.1469  -14.7822   18.9718 C   0  0  0  0  0  0  0  0  0  0  0  0
    8.4545  -14.3255   19.5523 C   0  0  2  0  0  0  0  0  0  0  0  0
    9.4959  -14.2138   18.5657 N   0  0  0  0  0  0  0  0  0  0  0  0
    8.7874  -15.2468   20.6560 C   0  0  0  0  0  0  0  0  0  0  0  0
    7.8714  -15.5603   21.4526 O   0  0  0  0  0  0  0  0  0  0  0  0
   10.0890  -15.7949   20.8610 N   0  0  0  0  0  0  0  0  0  0  0  0
   10.4110  -16.6408   21.9884 C   0  0  1  0  0  0  0  0  0  0  0  0
   11.7429  -17.2936   21.7733 C   0  0  0  0  0  0  0  0  0  0  0  0
   12.0850  -18.3206   22.7651 C   0  0  0  0  0  0  0  0  0  0  0  0
   11.1798  -18.8450   23.4513 O   0  0  0  0  0  0  0  0  0  0  0  0
   10.3575  -15.9004   23.2709 C   0  0  0  0  0  0  0  0  0  0  0  0
   10.4375  -14.6536   23.2665 O   0  0  0  0  0  0  0  0  0  0  0  0
   13.3881  -18.7347   22.9712 O   0  0  0  0  0  0  0  0  0  0  0  0
    6.2247  -10.7277   26.7132 O   0  0  0  0  0  0  0  0  0  0  0  0
    6.6822  -11.9690   26.3249 C   0  0  0  0  0  0  0  0  0  0  0  0
    7.5538  -12.6636   27.1294 C   0  0  0  0  0  0  0  0  0  0  0  0
    8.0172  -13.9103   26.7457 C   0  0  0  0  0  0  0  0  0  0  0  0
    7.6101  -14.4630   25.5588 C   0  0  0  0  0  0  0  0  0  0  0  0
    8.1148  -15.7877   25.1653 C   0  0  0  0  0  0  0  0  0  0  0  0
    9.5307  -16.0618   25.6254 C   0  0  2  0  0  0  0  0  0  0  0  0
   10.2161  -16.6327   24.4727 N   0  0  0  0  0  0  0  0  0  0  0  0
    9.6047  -16.9911   26.7652 C   0  0  0  0  0  0  0  0  0  0  0  0
    9.4658  -16.5260   28.0471 O   0  0  0  0  0  0  0  0  0  0  0  0
    6.7400  -13.7839   24.7427 C   0  0  0  0  0  0  0  0  0  0  0  0
    6.2857  -12.5292   25.1489 C   0  0  0  0  0  0  0  0  0  0  0  0
    9.7959  -18.2074   26.5456 O   0  0  0  0  0  0  0  0  0  0  0  0
  2  3  2  0
  2  1  1  0
  4  2  1  0
  5  6  1  0
  5  4  1  0
  6  7  1  6
  6  8  1  0
  8  9  2  0
  8 10  1  0
 10 11  1  0
 11 12  1  6
 12 13  1  0
 13 17  1  0
 14 13  2  0
 15 11  1  0
 15 16  2  0
 18 19  1  0
 19 20  2  0
 20 21  1  0
 22 21  2  0
 22 23  1  0
 24 23  1  6
 24 25  1  0
 25 15  1  0
 26 24  1  0
 27 26  1  0
 28 22  1  0
 29 19  1  0
 29 28  2  0
 30 26  2  0
M  END
$$$$
