QDY.pdb
     RDKit          3D

 30 30  0  0  1  0  0  0  0  0999 V2000
    8.3002  -12.5601   17.2829 N   0  0  0  0  0  0  0  0  0  0  0  0
    7.6310  -13.4049   16.3424 C   0  0  0  0  0  0  0  0  0  0  0  0
    7.7094  -13.1318   15.1400 O   0  0  0  0  0  0  0  0  0  0  0  0
    6.8878  -14.5516   16.8508 C   0  0  0  0  0  0  0  0  0  0  0  0
    7.0778  -14.7737   18.3076 C   0  0  0  0  0  0  0  0  0  0  0  0
    8.4994  -14.7514   18.7914 C   0  0  2  0  0  0  0  0  0  0  0  0
    9.4439  -15.1163   17.7691 N   0  0  0  0  0  0  0  0  0  0  0  0
    8.5666  -15.6129   19.9876 C   0  0  0  0  0  0  0  0  0  0  0  0
    7.6940  -15.4526   20.8736 O   0  0  0  0  0  0  0  0  0  0  0  0
    9.5665  -16.6116   20.1857 N   0  0  0  0  0  0  0  0  0  0  0  0
    9.6228  -17.4353   21.3726 C   0  0  1  0  0  0  0  0  0  0  0  0
   10.1775  -18.7853   21.0317 C   0  0  0  0  0  0  0  0  0  0  0  0
   10.2879  -19.7039   22.1718 C   0  0  0  0  0  0  0  0  0  0  0  0
    9.2745  -19.9646   22.8576 O   0  0  0  0  0  0  0  0  0  0  0  0
   10.3829  -16.7835   22.4650 C   0  0  0  0  0  0  0  0  0  0  0  0
   11.6311  -16.7583   22.4173 O   0  0  0  0  0  0  0  0  0  0  0  0
   11.4866  -20.2990   22.5195 O   0  0  0  0  0  0  0  0  0  0  0  0
   10.9905  -14.7469   31.0327 O   0  0  0  0  0  0  0  0  0  0  0  0
   10.5608  -14.9093   29.7327 C   0  0  0  0  0  0  0  0  0  0  0  0
   10.1306  -16.1406   29.2990 C   0  0  0  0  0  0  0  0  0  0  0  0
    9.6978  -16.3108   27.9952 C   0  0  0  0  0  0  0  0  0  0  0  0
    9.6947  -15.2514   27.1249 C   0  0  0  0  0  0  0  0  0  0  0  0
    9.2342  -15.4509   25.7420 C   0  0  0  0  0  0  0  0  0  0  0  0
   10.3367  -15.8483   24.7837 C   0  0  2  0  0  0  0  0  0  0  0  0
    9.6674  -16.2041   23.5387 N   0  0  0  0  0  0  0  0  0  0  0  0
   11.1451  -16.9825   25.2616 C   0  0  0  0  0  0  0  0  0  0  0  0
   12.4552  -16.7961   25.6189 O   0  0  0  0  0  0  0  0  0  0  0  0
   10.1207  -14.0144   27.5404 C   0  0  0  0  0  0  0  0  0  0  0  0
   10.5525  -13.8654   28.8584 C   0  0  0  0  0  0  0  0  0  0  0  0
   10.6190  -18.1146   25.3359 O   0  0  0  0  0  0  0  0  0  0  0  0
  2  3  2  0
  2  1  1  0
  4  2  1  0
  5  6  1  0
  5  4  1  0
  6  7  1  6
  6  8  1  0
  8  9  2  0
  8 10  1  0
 10 11  1  0
 11 12  1  6
 12 13  1  0
 13 17  1  0
 14 13  2  0
 15 11  1  0
 15 16  2  0
 18 19  1  0
 19 20  2  0
 20 21  1  0
 22 21  2  0
 22 23  1  0
 24 23  1  1
 24 25  1  0
 25 15  1  0
 26 24  1  0
 27 26  1  0
 28 22  1  0
 29 19  1  0
 29 28  2  0
 30 26  2  0
M  END
$$$$
