QDY.pdb
     RDKit          3D

 30 30  0  0  1  0  0  0  0  0999 V2000
    6.0097  -13.7300   18.0246 N   0  0  0  0  0  0  0  0  0  0  0  0
    7.1328  -13.5165   17.1647 C   0  0  0  0  0  0  0  0  0  0  0  0
    6.9394  -13.4310   15.9475 O   0  0  0  0  0  0  0  0  0  0  0  0
    8.4550  -13.4086   17.7696 C   0  0  0  0  0  0  0  0  0  0  0  0
    8.4622  -13.7222   19.2219 C   0  0  0  0  0  0  0  0  0  0  0  0
    9.7882  -13.5833   19.9132 C   0  0  2  0  0  0  0  0  0  0  0  0
   10.8567  -13.2451   19.0108 N   0  0  0  0  0  0  0  0  0  0  0  0
   10.0239  -14.8339   20.6602 C   0  0  0  0  0  0  0  0  0  0  0  0
    9.1189  -15.2350   21.4296 O   0  0  0  0  0  0  0  0  0  0  0  0
   11.2204  -15.6040   20.5521 N   0  0  0  0  0  0  0  0  0  0  0  0
   11.4398  -16.8158   21.3096 C   0  0  1  0  0  0  0  0  0  0  0  0
   12.5077  -17.6401   20.6566 C   0  0  0  0  0  0  0  0  0  0  0  0
   12.1849  -18.0877   19.2960 C   0  0  0  0  0  0  0  0  0  0  0  0
   11.0715  -18.6086   19.0631 O   0  0  0  0  0  0  0  0  0  0  0  0
   11.7492  -16.5334   22.7310 C   0  0  0  0  0  0  0  0  0  0  0  0
   12.2813  -15.4466   23.0417 O   0  0  0  0  0  0  0  0  0  0  0  0
   13.0782  -17.9528   18.2492 O   0  0  0  0  0  0  0  0  0  0  0  0
    9.9885  -14.3108   30.6341 O   0  0  0  0  0  0  0  0  0  0  0  0
   10.1327  -14.7341   29.3300 C   0  0  0  0  0  0  0  0  0  0  0  0
    9.9720  -13.8432   28.2956 C   0  0  0  0  0  0  0  0  0  0  0  0
   10.1153  -14.2614   26.9839 C   0  0  0  0  0  0  0  0  0  0  0  0
   10.4191  -15.5691   26.7053 C   0  0  0  0  0  0  0  0  0  0  0  0
   10.5648  -15.9969   25.3053 C   0  0  0  0  0  0  0  0  0  0  0  0
   11.4694  -17.1973   25.1257 C   0  0  2  0  0  0  0  0  0  0  0  0
   11.4306  -17.5106   23.7027 N   0  0  0  0  0  0  0  0  0  0  0  0
   11.0470  -18.3696   25.9101 C   0  0  0  0  0  0  0  0  0  0  0  0
   11.7136  -18.7102   27.0583 O   0  0  0  0  0  0  0  0  0  0  0  0
   10.5833  -16.4728   27.7254 C   0  0  0  0  0  0  0  0  0  0  0  0
   10.4344  -16.0299   29.0397 C   0  0  0  0  0  0  0  0  0  0  0  0
   10.0735  -19.0471   25.5133 O   0  0  0  0  0  0  0  0  0  0  0  0
  2  3  2  0
  2  1  1  0
  4  2  1  0
  5  6  1  0
  5  4  1  0
  6  7  1  6
  6  8  1  0
  8  9  2  0
  8 10  1  0
 10 11  1  0
 11 12  1  6
 12 13  1  0
 13 17  1  0
 14 13  2  0
 15 11  1  0
 15 16  2  0
 18 19  1  0
 19 20  2  0
 20 21  1  0
 22 21  2  0
 22 23  1  0
 24 23  1  6
 24 25  1  0
 25 15  1  0
 26 24  1  0
 27 26  1  0
 28 22  1  0
 29 19  1  0
 29 28  2  0
 30 26  2  0
M  END
$$$$
