QDY.pdb
     RDKit          3D

 30 30  0  0  1  0  0  0  0  0999 V2000
    5.4129  -15.0519   16.7607 N   0  0  0  0  0  0  0  0  0  0  0  0
    6.4455  -14.2684   16.1554 C   0  0  0  0  0  0  0  0  0  0  0  0
    6.4077  -14.0793   14.9351 O   0  0  0  0  0  0  0  0  0  0  0  0
    7.4946  -13.7285   17.0119 C   0  0  0  0  0  0  0  0  0  0  0  0
    7.4124  -14.2118   18.4146 C   0  0  0  0  0  0  0  0  0  0  0  0
    8.4439  -13.6604   19.3566 C   0  0  2  0  0  0  0  0  0  0  0  0
    9.4915  -12.9420   18.6806 N   0  0  0  0  0  0  0  0  0  0  0  0
    8.9363  -14.7871   20.1724 C   0  0  0  0  0  0  0  0  0  0  0  0
    8.1432  -15.3050   20.9938 O   0  0  0  0  0  0  0  0  0  0  0  0
   10.2592  -15.3133   20.0747 N   0  0  0  0  0  0  0  0  0  0  0  0
   10.7285  -16.4038   20.8999 C   0  0  1  0  0  0  0  0  0  0  0  0
   11.9139  -17.0577   20.2567 C   0  0  0  0  0  0  0  0  0  0  0  0
   12.3975  -18.2584   20.9496 C   0  0  0  0  0  0  0  0  0  0  0  0
   11.6066  -18.9320   21.6467 O   0  0  0  0  0  0  0  0  0  0  0  0
   11.0211  -15.9656   22.2849 C   0  0  0  0  0  0  0  0  0  0  0  0
   11.5886  -14.8694   22.4775 O   0  0  0  0  0  0  0  0  0  0  0  0
   13.7121  -18.6772   20.8585 O   0  0  0  0  0  0  0  0  0  0  0  0
   10.5792  -14.3456   30.7107 O   0  0  0  0  0  0  0  0  0  0  0  0
   10.4233  -14.6456   29.3741 C   0  0  0  0  0  0  0  0  0  0  0  0
   10.0845  -15.9213   28.9903 C   0  0  0  0  0  0  0  0  0  0  0  0
    9.9264  -16.2296   27.6501 C   0  0  0  0  0  0  0  0  0  0  0  0
   10.1067  -15.2639   26.6935 C   0  0  0  0  0  0  0  0  0  0  0  0
    9.9376  -15.6098   25.2736 C   0  0  0  0  0  0  0  0  0  0  0  0
   11.0344  -16.4990   24.7280 C   0  0  2  0  0  0  0  0  0  0  0  0
   10.6461  -16.8080   23.3574 N   0  0  0  0  0  0  0  0  0  0  0  0
   11.2114  -17.7446   25.4931 C   0  0  0  0  0  0  0  0  0  0  0  0
   10.3561  -18.7991   25.3053 O   0  0  0  0  0  0  0  0  0  0  0  0
   10.4452  -13.9846   27.0582 C   0  0  0  0  0  0  0  0  0  0  0  0
   10.5993  -13.6960   28.4142 C   0  0  0  0  0  0  0  0  0  0  0  0
   12.1513  -17.8245   26.3143 O   0  0  0  0  0  0  0  0  0  0  0  0
  2  3  2  0
  2  1  1  0
  4  2  1  0
  5  6  1  0
  5  4  1  0
  6  7  1  6
  6  8  1  0
  8  9  2  0
  8 10  1  0
 10 11  1  0
 11 12  1  6
 12 13  1  0
 13 17  1  0
 14 13  2  0
 15 11  1  0
 15 16  2  0
 18 19  1  0
 19 20  2  0
 20 21  1  0
 22 21  2  0
 22 23  1  0
 24 23  1  1
 24 25  1  0
 25 15  1  0
 26 24  1  0
 27 26  1  0
 28 22  1  0
 29 19  1  0
 29 28  2  0
 30 26  2  0
M  END
$$$$
