QDY.pdb
     RDKit          3D

 30 30  0  0  1  0  0  0  0  0999 V2000
    9.8731  -12.3779   18.5946 N   0  0  0  0  0  0  0  0  0  0  0  0
    9.8635  -13.1549   19.7957 C   0  0  0  0  0  0  0  0  0  0  0  0
   10.9364  -13.5854   20.2316 O   0  0  0  0  0  0  0  0  0  0  0  0
    8.5835  -13.4003   20.4493 C   0  0  0  0  0  0  0  0  0  0  0  0
    7.6349  -14.1746   19.6077 C   0  0  0  0  0  0  0  0  0  0  0  0
    8.0698  -15.5655   19.2447 C   0  0  2  0  0  0  0  0  0  0  0  0
    7.1178  -16.2493   18.4101 N   0  0  0  0  0  0  0  0  0  0  0  0
    8.3611  -16.2745   20.5057 C   0  0  0  0  0  0  0  0  0  0  0  0
    7.4249  -16.4145   21.3278 O   0  0  0  0  0  0  0  0  0  0  0  0
    9.6445  -16.8049   20.8344 N   0  0  0  0  0  0  0  0  0  0  0  0
    9.9113  -17.4872   22.0808 C   0  0  1  0  0  0  0  0  0  0  0  0
   10.7474  -18.7051   21.8277 C   0  0  0  0  0  0  0  0  0  0  0  0
   11.0757  -19.4793   23.0312 C   0  0  0  0  0  0  0  0  0  0  0  0
   12.2107  -19.3719   23.5464 O   0  0  0  0  0  0  0  0  0  0  0  0
   10.5299  -16.5890   23.0840 C   0  0  0  0  0  0  0  0  0  0  0  0
   11.6452  -16.0776   22.8485 O   0  0  0  0  0  0  0  0  0  0  0  0
   10.1642  -20.3339   23.6237 O   0  0  0  0  0  0  0  0  0  0  0  0
    4.9631  -12.5531   26.4350 O   0  0  0  0  0  0  0  0  0  0  0  0
    6.2484  -12.9380   26.1180 C   0  0  0  0  0  0  0  0  0  0  0  0
    6.5042  -13.5619   24.9202 C   0  0  0  0  0  0  0  0  0  0  0  0
    7.7923  -13.9511   24.5955 C   0  0  0  0  0  0  0  0  0  0  0  0
    8.8247  -13.7172   25.4670 C   0  0  0  0  0  0  0  0  0  0  0  0
   10.1870  -14.1401   25.1069 C   0  0  0  0  0  0  0  0  0  0  0  0
   10.4636  -15.6030   25.3811 C   0  0  2  0  0  0  0  0  0  0  0  0
    9.8341  -16.3345   24.2888 N   0  0  0  0  0  0  0  0  0  0  0  0
    9.9273  -16.0669   26.6715 C   0  0  0  0  0  0  0  0  0  0  0  0
   10.4529  -15.5986   27.8476 O   0  0  0  0  0  0  0  0  0  0  0  0
    8.5881  -13.0953   26.6676 C   0  0  0  0  0  0  0  0  0  0  0  0
    7.2826  -12.7116   26.9744 C   0  0  0  0  0  0  0  0  0  0  0  0
    8.9877  -16.8924   26.6772 O   0  0  0  0  0  0  0  0  0  0  0  0
  2  3  2  0
  2  1  1  0
  4  2  1  0
  5  6  1  0
  5  4  1  0
  6  7  1  1
  6  8  1  0
  8  9  2  0
  8 10  1  0
 10 11  1  0
 11 12  1  6
 12 13  1  0
 13 17  1  0
 14 13  2  0
 15 11  1  0
 15 16  2  0
 18 19  1  0
 19 20  2  0
 20 21  1  0
 22 21  2  0
 22 23  1  0
 24 23  1  6
 24 25  1  0
 25 15  1  0
 26 24  1  0
 27 26  1  0
 28 22  1  0
 29 19  1  0
 29 28  2  0
 30 26  2  0
M  END
$$$$
