QDY.pdb
     RDKit          3D

 30 30  0  0  1  0  0  0  0  0999 V2000
    6.3961  -13.3602   17.3737 N   0  0  0  0  0  0  0  0  0  0  0  0
    7.5955  -13.8526   16.7694 C   0  0  0  0  0  0  0  0  0  0  0  0
    7.5301  -14.3456   15.6384 O   0  0  0  0  0  0  0  0  0  0  0  0
    8.8408  -13.7469   17.5202 C   0  0  0  0  0  0  0  0  0  0  0  0
    8.6907  -14.0974   18.9563 C   0  0  0  0  0  0  0  0  0  0  0  0
    9.9212  -13.9312   19.8010 C   0  0  2  0  0  0  0  0  0  0  0  0
   11.1257  -13.8289   19.0205 N   0  0  0  0  0  0  0  0  0  0  0  0
    9.9407  -15.0460   20.7676 C   0  0  0  0  0  0  0  0  0  0  0  0
    8.8788  -15.3066   21.3813 O   0  0  0  0  0  0  0  0  0  0  0  0
   11.0977  -15.8365   21.0374 N   0  0  0  0  0  0  0  0  0  0  0  0
   11.1284  -16.8485   22.0695 C   0  0  1  0  0  0  0  0  0  0  0  0
   12.2925  -17.7668   21.8500 C   0  0  0  0  0  0  0  0  0  0  0  0
   12.2831  -18.4637   20.5578 C   0  0  0  0  0  0  0  0  0  0  0  0
   11.3226  -19.2092   20.2630 O   0  0  0  0  0  0  0  0  0  0  0  0
   11.1385  -16.2559   23.4277 C   0  0  0  0  0  0  0  0  0  0  0  0
   11.8927  -15.2907   23.6733 O   0  0  0  0  0  0  0  0  0  0  0  0
   13.3106  -18.3243   19.6429 O   0  0  0  0  0  0  0  0  0  0  0  0
    6.1596  -11.3664   28.0916 O   0  0  0  0  0  0  0  0  0  0  0  0
    6.8226  -12.2350   27.2509 C   0  0  0  0  0  0  0  0  0  0  0  0
    7.9693  -12.8628   27.6754 C   0  0  0  0  0  0  0  0  0  0  0  0
    8.6401  -13.7360   26.8366 C   0  0  0  0  0  0  0  0  0  0  0  0
    8.1656  -13.9820   25.5739 C   0  0  0  0  0  0  0  0  0  0  0  0
    8.8928  -14.9106   24.6946 C   0  0  0  0  0  0  0  0  0  0  0  0
    9.6844  -15.9631   25.4409 C   0  0  2  0  0  0  0  0  0  0  0  0
   10.2869  -16.8047   24.4146 N   0  0  0  0  0  0  0  0  0  0  0  0
    8.8595  -16.7837   26.3433 C   0  0  0  0  0  0  0  0  0  0  0  0
    8.2325  -17.9092   25.8753 O   0  0  0  0  0  0  0  0  0  0  0  0
    7.0220  -13.3641   25.1328 C   0  0  0  0  0  0  0  0  0  0  0  0
    6.3621  -12.4880   25.9947 C   0  0  0  0  0  0  0  0  0  0  0  0
    8.7405  -16.4384   27.5394 O   0  0  0  0  0  0  0  0  0  0  0  0
  2  3  2  0
  2  1  1  0
  4  2  1  0
  5  6  1  0
  5  4  1  0
  6  7  1  6
  6  8  1  0
  8  9  2  0
  8 10  1  0
 10 11  1  0
 11 12  1  6
 12 13  1  0
 13 17  1  0
 14 13  2  0
 15 11  1  0
 15 16  2  0
 18 19  1  0
 19 20  2  0
 20 21  1  0
 22 21  2  0
 22 23  1  0
 24 23  1  6
 24 25  1  0
 25 15  1  0
 26 24  1  0
 27 26  1  0
 28 22  1  0
 29 19  1  0
 29 28  2  0
 30 26  2  0
M  END
$$$$
