QDY.pdb
     RDKit          3D

 30 30  0  0  1  0  0  0  0  0999 V2000
    7.8260  -13.5158   15.9562 N   0  0  0  0  0  0  0  0  0  0  0  0
    7.9075  -14.7625   16.6529 C   0  0  0  0  0  0  0  0  0  0  0  0
    8.7967  -15.5603   16.3381 O   0  0  0  0  0  0  0  0  0  0  0  0
    6.9344  -15.0306   17.7051 C   0  0  0  0  0  0  0  0  0  0  0  0
    7.5025  -15.7906   18.8486 C   0  0  0  0  0  0  0  0  0  0  0  0
    8.1469  -14.9653   19.9252 C   0  0  2  0  0  0  0  0  0  0  0  0
    9.0381  -13.9632   19.4037 N   0  0  0  0  0  0  0  0  0  0  0  0
    8.7990  -15.9015   20.8611 C   0  0  0  0  0  0  0  0  0  0  0  0
    8.0880  -16.7866   21.3932 O   0  0  0  0  0  0  0  0  0  0  0  0
   10.1870  -15.8512   21.1887 N   0  0  0  0  0  0  0  0  0  0  0  0
   10.7685  -16.6456   22.2475 C   0  0  1  0  0  0  0  0  0  0  0  0
   12.2561  -16.7125   22.0778 C   0  0  0  0  0  0  0  0  0  0  0  0
   12.6981  -17.2714   20.7941 C   0  0  0  0  0  0  0  0  0  0  0  0
   13.4619  -16.6067   20.0592 O   0  0  0  0  0  0  0  0  0  0  0  0
   10.3856  -16.1472   23.5895 C   0  0  0  0  0  0  0  0  0  0  0  0
   10.6233  -14.9598   23.8968 O   0  0  0  0  0  0  0  0  0  0  0  0
   12.2958  -18.5219   20.3622 O   0  0  0  0  0  0  0  0  0  0  0  0
    6.8770  -10.7500   26.8519 O   0  0  0  0  0  0  0  0  0  0  0  0
    7.1158  -12.0718   26.5409 C   0  0  0  0  0  0  0  0  0  0  0  0
    7.0283  -12.4985   25.2372 C   0  0  0  0  0  0  0  0  0  0  0  0
    7.2668  -13.8241   24.9178 C   0  0  0  0  0  0  0  0  0  0  0  0
    7.5926  -14.7233   25.9004 C   0  0  0  0  0  0  0  0  0  0  0  0
    7.8398  -16.1289   25.5435 C   0  0  0  0  0  0  0  0  0  0  0  0
    9.2657  -16.5771   25.7836 C   0  0  2  0  0  0  0  0  0  0  0  0
    9.7571  -17.0376   24.4909 N   0  0  0  0  0  0  0  0  0  0  0  0
    9.3788  -17.6571   26.7781 C   0  0  0  0  0  0  0  0  0  0  0  0
    9.2604  -17.3810   28.1154 O   0  0  0  0  0  0  0  0  0  0  0  0
    7.6846  -14.3151   27.2077 C   0  0  0  0  0  0  0  0  0  0  0  0
    7.4402  -12.9748   27.5071 C   0  0  0  0  0  0  0  0  0  0  0  0
    9.5840  -18.8262   26.3842 O   0  0  0  0  0  0  0  0  0  0  0  0
  2  3  2  0
  2  1  1  0
  4  2  1  0
  5  6  1  0
  5  4  1  0
  6  7  1  6
  6  8  1  0
  8  9  2  0
  8 10  1  0
 10 11  1  0
 11 12  1  1
 12 13  1  0
 13 17  1  0
 14 13  2  0
 15 11  1  0
 15 16  2  0
 18 19  1  0
 19 20  2  0
 20 21  1  0
 22 21  2  0
 22 23  1  0
 24 23  1  6
 24 25  1  0
 25 15  1  0
 26 24  1  0
 27 26  1  0
 28 22  1  0
 29 19  1  0
 29 28  2  0
 30 26  2  0
M  END
$$$$
