QDY.pdb
     RDKit          3D

 30 30  0  0  1  0  0  0  0  0999 V2000
   19.6678  -22.9452   16.5021 N   0  0  0  0  0  0  0  0  0  0  0  0
   18.8673  -21.9973   15.7899 C   0  0  0  0  0  0  0  0  0  0  0  0
   19.2710  -21.5822   14.6985 O   0  0  0  0  0  0  0  0  0  0  0  0
   17.6094  -21.5673   16.3887 C   0  0  0  0  0  0  0  0  0  0  0  0
   17.3482  -22.1890   17.7127 C   0  0  0  0  0  0  0  0  0  0  0  0
   16.1160  -23.0429   17.8013 C   0  0  2  0  0  0  0  0  0  0  0  0
   15.9326  -23.8817   16.6466 N   0  0  0  0  0  0  0  0  0  0  0  0
   14.9773  -22.1402   18.0583 C   0  0  0  0  0  0  0  0  0  0  0  0
   15.0907  -21.3054   18.9868 O   0  0  0  0  0  0  0  0  0  0  0  0
   13.7628  -22.1689   17.3094 N   0  0  0  0  0  0  0  0  0  0  0  0
   12.6298  -21.3289   17.6270 C   0  0  1  0  0  0  0  0  0  0  0  0
   11.9453  -20.8961   16.3659 C   0  0  0  0  0  0  0  0  0  0  0  0
   12.6513  -19.8478   15.6187 C   0  0  0  0  0  0  0  0  0  0  0  0
   12.9491  -18.7746   16.1886 O   0  0  0  0  0  0  0  0  0  0  0  0
   11.6942  -21.9909   18.5663 C   0  0  0  0  0  0  0  0  0  0  0  0
   11.0375  -22.9830   18.1851 O   0  0  0  0  0  0  0  0  0  0  0  0
   13.0036  -20.0056   14.2909 O   0  0  0  0  0  0  0  0  0  0  0  0
   16.0579  -22.5631   24.3045 O   0  0  0  0  0  0  0  0  0  0  0  0
   14.9126  -22.7681   23.5648 C   0  0  0  0  0  0  0  0  0  0  0  0
   14.9926  -22.9223   22.2013 C   0  0  0  0  0  0  0  0  0  0  0  0
   13.8468  -23.1284   21.4524 C   0  0  0  0  0  0  0  0  0  0  0  0
   12.6214  -23.1805   22.0654 C   0  0  0  0  0  0  0  0  0  0  0  0
   11.4137  -23.3974   21.2538 C   0  0  0  0  0  0  0  0  0  0  0  0
   10.7061  -22.1184   20.8599 C   0  0  2  0  0  0  0  0  0  0  0  0
   11.5707  -21.4760   19.8778 N   0  0  0  0  0  0  0  0  0  0  0  0
   10.4703  -21.2086   21.9934 C   0  0  0  0  0  0  0  0  0  0  0  0
   11.0271  -19.9561   22.0024 O   0  0  0  0  0  0  0  0  0  0  0  0
   12.5223  -23.0287   23.4260 C   0  0  0  0  0  0  0  0  0  0  0  0
   13.6897  -22.8221   24.1611 C   0  0  0  0  0  0  0  0  0  0  0  0
    9.7564  -21.5957   22.9445 O   0  0  0  0  0  0  0  0  0  0  0  0
  2  3  2  0
  2  1  1  0
  4  2  1  0
  5  6  1  0
  5  4  1  0
  6  7  1  6
  6  8  1  0
  8  9  2  0
  8 10  1  0
 10 11  1  0
 11 12  1  6
 12 13  1  0
 13 17  1  0
 14 13  2  0
 15 11  1  0
 15 16  2  0
 18 19  1  0
 19 20  2  0
 20 21  1  0
 22 21  2  0
 22 23  1  0
 24 23  1  1
 24 25  1  0
 25 15  1  0
 26 24  1  0
 27 26  1  0
 28 22  1  0
 29 19  1  0
 29 28  2  0
 30 26  2  0
M  END
$$$$
