HHC.pdb
     RDKit          3D

 27 28  0  0  1  0  0  0  0  0999 V2000
   10.1208  -18.1719   20.7815 N   0  0  0  0  0  0  0  0  0  0  0  0
   10.9406  -16.9886   20.7079 C   0  0  1  0  0  0  0  0  0  0  0  0
   10.6938  -16.3797   19.3213 C   0  0  0  0  0  0  0  0  0  0  0  0
   11.2096  -17.2729   18.2660 C   0  0  0  0  0  0  0  0  0  0  0  0
   12.3897  -18.0054   18.2526 C   0  0  0  0  0  0  0  0  0  0  0  0
   12.4843  -18.6935   17.0986 N   0  0  0  0  0  0  0  0  0  0  0  0
   11.3764  -18.3954   16.3976 C   0  0  0  0  0  0  0  0  0  0  0  0
   10.6088  -17.5430   17.0950 N   0  0  0  0  0  0  0  0  0  0  0  0
   10.4904  -15.9663   21.7176 C   0  0  0  0  0  0  0  0  0  0  0  0
   11.0650  -14.8476   21.7465 O   0  0  0  0  0  0  0  0  0  0  0  0
    9.4334  -16.2979   22.6031 N   0  0  0  0  0  0  0  0  0  0  0  0
    9.0721  -15.3602   23.6292 C   0  0  1  0  0  0  0  0  0  0  0  0
    7.5707  -15.2908   23.6695 C   0  0  0  0  0  0  0  0  0  0  0  0
    7.1372  -14.3143   24.6672 C   0  0  0  0  0  0  0  0  0  0  0  0
    7.1852  -12.9453   24.5212 C   0  0  0  0  0  0  0  0  0  0  0  0
    6.7035  -12.3839   25.6432 N   0  0  0  0  0  0  0  0  0  0  0  0
    6.3629  -13.3664   26.4696 C   0  0  0  0  0  0  0  0  0  0  0  0
    6.6230  -14.5434   25.8846 N   0  0  0  0  0  0  0  0  0  0  0  0
    9.7105  -15.6539   24.9274 C   0  0  0  0  0  0  0  0  0  0  0  0
    9.9209  -16.8457   25.2585 O   0  0  0  0  0  0  0  0  0  0  0  0
   10.1114  -14.6472   25.8477 N   0  0  0  0  0  0  0  0  0  0  0  0
   10.5813  -14.9167   27.1821 C   0  0  1  0  0  0  0  0  0  0  0  0
   10.3362  -13.7312   28.1210 C   0  0  0  0  0  0  0  0  0  0  0  0
   10.9469  -14.1278   29.7595 S   0  0  0  0  0  0  0  0  0  0  0  0
   10.0625  -16.1612   27.7452 C   0  0  0  0  0  0  0  0  0  0  0  0
   10.8316  -17.0004   28.2589 O   0  0  0  0  0  0  0  0  0  0  0  0
    8.7094  -16.4290   27.7179 O   0  0  0  0  0  0  0  0  0  0  0  0
  2  1  1  6
  2  3  1  0
  2  9  1  0
  4  5  2  0
  4  3  1  0
  6  5  1  0
  7  8  2  0
  7  6  1  0
  8  4  1  0
  9 11  1  0
 10  9  2  0
 11 12  1  0
 12 13  1  1
 13 14  1  0
 14 15  2  0
 15 16  1  0
 17 16  1  0
 18 14  1  0
 18 17  2  0
 19 12  1  0
 19 20  2  0
 21 19  1  0
 22 25  1  0
 22 21  1  0
 22 23  1  1
 24 23  1  0
 25 27  1  0
 26 25  2  0
M  END
$$$$
