HHC.pdb
     RDKit          3D

 27 28  0  0  1  0  0  0  0  0999 V2000
    8.5136  -16.6135   20.3755 N   0  0  0  0  0  0  0  0  0  0  0  0
    8.6503  -15.5224   21.3075 C   0  0  1  0  0  0  0  0  0  0  0  0
    7.5746  -14.4959   20.9288 C   0  0  0  0  0  0  0  0  0  0  0  0
    7.8428  -13.9372   19.5896 C   0  0  0  0  0  0  0  0  0  0  0  0
    8.7562  -12.9550   19.2286 C   0  0  0  0  0  0  0  0  0  0  0  0
    8.6854  -12.7342   17.9019 N   0  0  0  0  0  0  0  0  0  0  0  0
    7.7388  -13.5683   17.4374 C   0  0  0  0  0  0  0  0  0  0  0  0
    7.2307  -14.2921   18.4474 N   0  0  0  0  0  0  0  0  0  0  0  0
    8.3414  -15.9783   22.7088 C   0  0  0  0  0  0  0  0  0  0  0  0
    7.1816  -15.8016   23.1630 O   0  0  0  0  0  0  0  0  0  0  0  0
    9.3678  -16.5921   23.4711 N   0  0  0  0  0  0  0  0  0  0  0  0
    9.0762  -17.0072   24.8148 C   0  0  1  0  0  0  0  0  0  0  0  0
    9.1733  -18.5070   24.8554 C   0  0  0  0  0  0  0  0  0  0  0  0
    8.0051  -19.1061   24.2126 C   0  0  0  0  0  0  0  0  0  0  0  0
    8.0189  -19.8273   23.0390 C   0  0  0  0  0  0  0  0  0  0  0  0
    6.7610  -20.2135   22.7659 N   0  0  0  0  0  0  0  0  0  0  0  0
    5.9795  -19.7510   23.7354 C   0  0  0  0  0  0  0  0  0  0  0  0
    6.7273  -19.0766   24.6192 N   0  0  0  0  0  0  0  0  0  0  0  0
    9.8972  -16.3089   25.8235 C   0  0  0  0  0  0  0  0  0  0  0  0
   11.1410  -16.2436   25.6721 O   0  0  0  0  0  0  0  0  0  0  0  0
    9.3540  -15.6912   26.9830 N   0  0  0  0  0  0  0  0  0  0  0  0
   10.1495  -15.1354   28.0471 C   0  0  1  0  0  0  0  0  0  0  0  0
    9.4734  -13.9178   28.6854 C   0  0  0  0  0  0  0  0  0  0  0  0
    8.7778  -12.8768   27.4018 S   0  0  0  0  0  0  0  0  0  0  0  0
   10.5464  -16.1162   29.0548 C   0  0  0  0  0  0  0  0  0  0  0  0
   10.0789  -17.2742   29.0395 O   0  0  0  0  0  0  0  0  0  0  0  0
   11.4476  -15.7764   30.0426 O   0  0  0  0  0  0  0  0  0  0  0  0
  2  1  1  6
  2  3  1  0
  2  9  1  0
  4  5  2  0
  4  3  1  0
  6  5  1  0
  7  8  2  0
  7  6  1  0
  8  4  1  0
  9 11  1  0
 10  9  2  0
 11 12  1  0
 12 13  1  6
 13 14  1  0
 14 15  2  0
 15 16  1  0
 17 16  1  0
 18 14  1  0
 18 17  2  0
 19 12  1  0
 19 20  2  0
 21 19  1  0
 22 25  1  0
 22 21  1  0
 22 23  1  1
 24 23  1  0
 25 27  1  0
 26 25  2  0
M  END
$$$$
