HHC.pdb
     RDKit          3D

 27 28  0  0  1  0  0  0  0  0999 V2000
   13.7398  -14.2803   18.4352 N   0  0  0  0  0  0  0  0  0  0  0  0
   13.0739  -15.3659   19.1105 C   0  0  1  0  0  0  0  0  0  0  0  0
   14.1801  -16.3034   19.6123 C   0  0  0  0  0  0  0  0  0  0  0  0
   14.7956  -17.0267   18.4829 C   0  0  0  0  0  0  0  0  0  0  0  0
   14.2013  -17.9190   17.5997 C   0  0  0  0  0  0  0  0  0  0  0  0
   15.1152  -18.3566   16.7124 N   0  0  0  0  0  0  0  0  0  0  0  0
   16.2682  -17.7455   17.0361 C   0  0  0  0  0  0  0  0  0  0  0  0
   16.0804  -16.9465   18.0983 N   0  0  0  0  0  0  0  0  0  0  0  0
   12.3428  -14.8659   20.3281 C   0  0  0  0  0  0  0  0  0  0  0  0
   12.9792  -14.2069   21.1904 O   0  0  0  0  0  0  0  0  0  0  0  0
   10.9608  -15.1540   20.4633 N   0  0  0  0  0  0  0  0  0  0  0  0
   10.2996  -14.8068   21.6901 C   0  0  1  0  0  0  0  0  0  0  0  0
    8.8299  -15.0600   21.4986 C   0  0  0  0  0  0  0  0  0  0  0  0
    8.3417  -14.3367   20.3260 C   0  0  0  0  0  0  0  0  0  0  0  0
    9.0890  -13.4858   19.5416 C   0  0  0  0  0  0  0  0  0  0  0  0
    8.2998  -13.0118   18.5625 N   0  0  0  0  0  0  0  0  0  0  0  0
    7.0945  -13.5460   18.7240 C   0  0  0  0  0  0  0  0  0  0  0  0
    7.1107  -14.3528   19.7937 N   0  0  0  0  0  0  0  0  0  0  0  0
   10.8906  -15.4693   22.8694 C   0  0  0  0  0  0  0  0  0  0  0  0
   12.0814  -15.2286   23.1830 O   0  0  0  0  0  0  0  0  0  0  0  0
   10.1782  -16.3845   23.6916 N   0  0  0  0  0  0  0  0  0  0  0  0
   10.0260  -16.2375   25.1161 C   0  0  1  0  0  0  0  0  0  0  0  0
    9.3544  -14.9100   25.4818 C   0  0  0  0  0  0  0  0  0  0  0  0
    9.4706  -14.6469   27.2516 S   0  0  0  0  0  0  0  0  0  0  0  0
    9.3560  -17.3692   25.7530 C   0  0  0  0  0  0  0  0  0  0  0  0
    8.2448  -17.7669   25.3447 O   0  0  0  0  0  0  0  0  0  0  0  0
    9.9433  -18.0180   26.8194 O   0  0  0  0  0  0  0  0  0  0  0  0
  2  1  1  1
  2  3  1  0
  2  9  1  0
  4  5  2  0
  4  3  1  0
  6  5  1  0
  7  8  2  0
  7  6  1  0
  8  4  1  0
  9 11  1  0
 10  9  2  0
 11 12  1  0
 12 13  1  6
 13 14  1  0
 14 15  2  0
 15 16  1  0
 17 16  1  0
 18 14  1  0
 18 17  2  0
 19 12  1  0
 19 20  2  0
 21 19  1  0
 22 25  1  0
 22 21  1  0
 22 23  1  6
 24 23  1  0
 25 27  1  0
 26 25  2  0
M  END
$$$$
