HHC.pdb
     RDKit          3D

 27 28  0  0  1  0  0  0  0  0999 V2000
    8.1967  -17.5421   19.6894 N   0  0  0  0  0  0  0  0  0  0  0  0
    8.7580  -16.4821   20.4888 C   0  0  1  0  0  0  0  0  0  0  0  0
    7.7344  -15.3392   20.4676 C   0  0  0  0  0  0  0  0  0  0  0  0
    7.9295  -14.4934   19.2744 C   0  0  0  0  0  0  0  0  0  0  0  0
    8.8162  -14.6747   18.2206 C   0  0  0  0  0  0  0  0  0  0  0  0
    8.6759  -13.6730   17.3313 N   0  0  0  0  0  0  0  0  0  0  0  0
    7.7127  -12.8737   17.8223 C   0  0  0  0  0  0  0  0  0  0  0  0
    7.2622  -13.3628   18.9885 N   0  0  0  0  0  0  0  0  0  0  0  0
    8.8960  -16.9150   21.9243 C   0  0  0  0  0  0  0  0  0  0  0  0
    7.8711  -17.3010   22.5433 O   0  0  0  0  0  0  0  0  0  0  0  0
   10.1769  -16.8734   22.5319 N   0  0  0  0  0  0  0  0  0  0  0  0
   10.2956  -17.2289   23.9183 C   0  0  1  0  0  0  0  0  0  0  0  0
   11.4696  -18.1594   24.0472 C   0  0  0  0  0  0  0  0  0  0  0  0
   11.0676  -19.5270   23.7232 C   0  0  0  0  0  0  0  0  0  0  0  0
   11.3151  -20.1734   22.5321 C   0  0  0  0  0  0  0  0  0  0  0  0
   10.7958  -21.4106   22.6074 N   0  0  0  0  0  0  0  0  0  0  0  0
   10.2391  -21.5403   23.8063 C   0  0  0  0  0  0  0  0  0  0  0  0
   10.3995  -20.4001   24.4915 N   0  0  0  0  0  0  0  0  0  0  0  0
   10.3392  -16.0545   24.8115 C   0  0  0  0  0  0  0  0  0  0  0  0
   11.1345  -15.1164   24.5628 O   0  0  0  0  0  0  0  0  0  0  0  0
    9.5171  -15.9164   25.9631 N   0  0  0  0  0  0  0  0  0  0  0  0
    9.5146  -14.7564   26.8166 C   0  0  1  0  0  0  0  0  0  0  0  0
    8.1173  -14.1388   26.9318 C   0  0  0  0  0  0  0  0  0  0  0  0
    8.1629  -12.7627   28.0804 S   0  0  0  0  0  0  0  0  0  0  0  0
   10.1034  -14.9964   28.1322 C   0  0  0  0  0  0  0  0  0  0  0  0
   10.2608  -16.1591   28.5601 O   0  0  0  0  0  0  0  0  0  0  0  0
   10.4960  -13.9377   28.9249 O   0  0  0  0  0  0  0  0  0  0  0  0
  2  1  1  6
  2  3  1  0
  2  9  1  0
  4  5  2  0
  4  3  1  0
  6  5  1  0
  7  8  2  0
  7  6  1  0
  8  4  1  0
  9 11  1  0
 10  9  2  0
 11 12  1  0
 12 13  1  6
 13 14  1  0
 14 15  2  0
 15 16  1  0
 17 16  1  0
 18 14  1  0
 18 17  2  0
 19 12  1  0
 19 20  2  0
 21 19  1  0
 22 25  1  0
 22 21  1  0
 22 23  1  1
 24 23  1  0
 25 27  1  0
 26 25  2  0
M  END
$$$$
