HHC.pdb
     RDKit          3D

 27 28  0  0  1  0  0  0  0  0999 V2000
    9.8998  -14.9990   18.9236 N   0  0  0  0  0  0  0  0  0  0  0  0
    8.5712  -14.7337   19.4156 C   0  0  1  0  0  0  0  0  0  0  0  0
    7.6079  -15.4533   18.4624 C   0  0  0  0  0  0  0  0  0  0  0  0
    7.6719  -14.8549   17.1150 C   0  0  0  0  0  0  0  0  0  0  0  0
    8.5290  -13.8676   16.6463 C   0  0  0  0  0  0  0  0  0  0  0  0
    8.2564  -13.6053   15.3537 N   0  0  0  0  0  0  0  0  0  0  0  0
    7.2403  -14.4189   15.0168 C   0  0  0  0  0  0  0  0  0  0  0  0
    6.8867  -15.1705   16.0714 N   0  0  0  0  0  0  0  0  0  0  0  0
    8.3756  -15.3481   20.7763 C   0  0  0  0  0  0  0  0  0  0  0  0
    7.2438  -15.2712   21.3201 O   0  0  0  0  0  0  0  0  0  0  0  0
    9.4734  -15.9934   21.4004 N   0  0  0  0  0  0  0  0  0  0  0  0
    9.3496  -16.3934   22.7742 C   0  0  1  0  0  0  0  0  0  0  0  0
   10.4070  -17.4286   23.0405 C   0  0  0  0  0  0  0  0  0  0  0  0
   10.0720  -18.6787   22.3610 C   0  0  0  0  0  0  0  0  0  0  0  0
    8.9170  -19.4062   22.5464 C   0  0  0  0  0  0  0  0  0  0  0  0
    8.9679  -20.4889   21.7519 N   0  0  0  0  0  0  0  0  0  0  0  0
   10.1172  -20.4458   21.0874 C   0  0  0  0  0  0  0  0  0  0  0  0
   10.7949  -19.3488   21.4513 N   0  0  0  0  0  0  0  0  0  0  0  0
    9.3566  -15.2508   23.7088 C   0  0  0  0  0  0  0  0  0  0  0  0
   10.2363  -14.3634   23.5954 O   0  0  0  0  0  0  0  0  0  0  0  0
    8.4066  -15.0890   24.7539 N   0  0  0  0  0  0  0  0  0  0  0  0
    8.5875  -14.2064   25.8774 C   0  0  1  0  0  0  0  0  0  0  0  0
    7.5181  -13.1100   25.9166 C   0  0  0  0  0  0  0  0  0  0  0  0
    5.8906  -13.8562   25.8195 S   0  0  0  0  0  0  0  0  0  0  0  0
    8.6872  -14.9023   27.1584 C   0  0  0  0  0  0  0  0  0  0  0  0
    8.4388  -16.1231   27.2441 O   0  0  0  0  0  0  0  0  0  0  0  0
    9.0590  -14.2181   28.2973 O   0  0  0  0  0  0  0  0  0  0  0  0
  2  1  1  6
  2  3  1  0
  2  9  1  0
  4  5  2  0
  4  3  1  0
  6  5  1  0
  7  8  2  0
  7  6  1  0
  8  4  1  0
  9 11  1  0
 10  9  2  0
 11 12  1  0
 12 13  1  1
 13 14  1  0
 14 15  2  0
 15 16  1  0
 17 16  1  0
 18 14  1  0
 18 17  2  0
 19 12  1  0
 19 20  2  0
 21 19  1  0
 22 25  1  0
 22 21  1  0
 22 23  1  1
 24 23  1  0
 25 27  1  0
 26 25  2  0
M  END
$$$$
