HHC.pdb
     RDKit          3D

 27 28  0  0  1  0  0  0  0  0999 V2000
   11.5317  -20.1892   20.7178 N   0  0  0  0  0  0  0  0  0  0  0  0
   12.5616  -19.1967   20.8970 C   0  0  1  0  0  0  0  0  0  0  0  0
   13.5464  -19.3841   19.7353 C   0  0  0  0  0  0  0  0  0  0  0  0
   13.4276  -20.7428   19.1719 C   0  0  0  0  0  0  0  0  0  0  0  0
   13.4504  -21.9612   19.8385 C   0  0  0  0  0  0  0  0  0  0  0  0
   13.3109  -22.9663   18.9529 N   0  0  0  0  0  0  0  0  0  0  0  0
   13.2019  -22.3842   17.7459 C   0  0  0  0  0  0  0  0  0  0  0  0
   13.2716  -21.0497   17.8732 N   0  0  0  0  0  0  0  0  0  0  0  0
   11.9919  -17.8094   20.7640 C   0  0  0  0  0  0  0  0  0  0  0  0
   12.7798  -16.8289   20.7435 O   0  0  0  0  0  0  0  0  0  0  0  0
   10.5858  -17.6531   20.6661 N   0  0  0  0  0  0  0  0  0  0  0  0
   10.0342  -16.3274   20.6976 C   0  0  1  0  0  0  0  0  0  0  0  0
    9.1332  -16.1844   19.5025 C   0  0  0  0  0  0  0  0  0  0  0  0
    8.5073  -14.8633   19.4974 C   0  0  0  0  0  0  0  0  0  0  0  0
    8.7726  -13.8482   20.3901 C   0  0  0  0  0  0  0  0  0  0  0  0
    8.0069  -12.7918   20.0679 N   0  0  0  0  0  0  0  0  0  0  0  0
    7.2826  -13.1295   19.0070 C   0  0  0  0  0  0  0  0  0  0  0  0
    7.5802  -14.3871   18.6532 N   0  0  0  0  0  0  0  0  0  0  0  0
    9.4009  -15.9984   21.9898 C   0  0  0  0  0  0  0  0  0  0  0  0
    8.1684  -16.1795   22.1393 O   0  0  0  0  0  0  0  0  0  0  0  0
   10.1170  -15.4770   23.1018 N   0  0  0  0  0  0  0  0  0  0  0  0
    9.5761  -15.3763   24.4327 C   0  0  1  0  0  0  0  0  0  0  0  0
    8.0840  -15.7221   24.4673 C   0  0  0  0  0  0  0  0  0  0  0  0
    7.2152  -14.5280   25.4843 S   0  0  0  0  0  0  0  0  0  0  0  0
   10.3253  -16.1395   25.4283 C   0  0  0  0  0  0  0  0  0  0  0  0
   11.2527  -16.9020   25.0847 O   0  0  0  0  0  0  0  0  0  0  0  0
   10.0180  -16.0288   26.7687 O   0  0  0  0  0  0  0  0  0  0  0  0
  2  1  1  6
  2  3  1  0
  2  9  1  0
  4  5  2  0
  4  3  1  0
  6  5  1  0
  7  8  2  0
  7  6  1  0
  8  4  1  0
  9 11  1  0
 10  9  2  0
 11 12  1  0
 12 13  1  6
 13 14  1  0
 14 15  2  0
 15 16  1  0
 17 16  1  0
 18 14  1  0
 18 17  2  0
 19 12  1  0
 19 20  2  0
 21 19  1  0
 22 25  1  0
 22 21  1  0
 22 23  1  6
 24 23  1  0
 25 27  1  0
 26 25  2  0
M  END
$$$$
