HHC.pdb
     RDKit          3D

 27 28  0  0  1  0  0  0  0  0999 V2000
    9.0424  -18.4190   15.7804 N   0  0  0  0  0  0  0  0  0  0  0  0
    9.8363  -17.4415   16.4819 C   0  0  1  0  0  0  0  0  0  0  0  0
    9.1632  -16.0846   16.2369 C   0  0  0  0  0  0  0  0  0  0  0  0
    9.2933  -15.6920   14.8204 C   0  0  0  0  0  0  0  0  0  0  0  0
    8.3007  -15.6000   13.8531 C   0  0  0  0  0  0  0  0  0  0  0  0
    8.8407  -15.2055   12.6841 N   0  0  0  0  0  0  0  0  0  0  0  0
   10.1561  -15.0522   12.9165 C   0  0  0  0  0  0  0  0  0  0  0  0
   10.4316  -15.3433   14.1977 N   0  0  0  0  0  0  0  0  0  0  0  0
    9.7916  -17.6868   17.9668 C   0  0  0  0  0  0  0  0  0  0  0  0
    8.6722  -17.7771   18.5338 O   0  0  0  0  0  0  0  0  0  0  0  0
   11.0126  -17.8080   18.6779 N   0  0  0  0  0  0  0  0  0  0  0  0
   10.9700  -18.1711   20.0668 C   0  0  1  0  0  0  0  0  0  0  0  0
   12.1040  -19.1255   20.3193 C   0  0  0  0  0  0  0  0  0  0  0  0
   11.7553  -20.4619   19.8405 C   0  0  0  0  0  0  0  0  0  0  0  0
   10.5675  -21.1153   20.0850 C   0  0  0  0  0  0  0  0  0  0  0  0
   10.6153  -22.3168   19.4849 N   0  0  0  0  0  0  0  0  0  0  0  0
   11.7944  -22.4178   18.8817 C   0  0  0  0  0  0  0  0  0  0  0  0
   12.4941  -21.2948   19.0925 N   0  0  0  0  0  0  0  0  0  0  0  0
   10.9371  -17.0012   20.9664 C   0  0  0  0  0  0  0  0  0  0  0  0
   11.6921  -16.0249   20.7405 O   0  0  0  0  0  0  0  0  0  0  0  0
   10.0834  -16.9093   22.0995 N   0  0  0  0  0  0  0  0  0  0  0  0
   10.2349  -15.9305   23.1449 C   0  0  1  0  0  0  0  0  0  0  0  0
    8.8818  -15.4967   23.7176 C   0  0  0  0  0  0  0  0  0  0  0  0
    9.1446  -14.4424   25.1439 S   0  0  0  0  0  0  0  0  0  0  0  0
   11.1563  -16.3409   24.2021 C   0  0  0  0  0  0  0  0  0  0  0  0
   11.2614  -17.5419   24.5283 O   0  0  0  0  0  0  0  0  0  0  0  0
   11.9274  -15.4040   24.8586 O   0  0  0  0  0  0  0  0  0  0  0  0
  2  1  1  6
  2  3  1  0
  2  9  1  0
  4  5  2  0
  4  3  1  0
  6  5  1  0
  7  8  2  0
  7  6  1  0
  8  4  1  0
  9 11  1  0
 10  9  2  0
 11 12  1  0
 12 13  1  1
 13 14  1  0
 14 15  2  0
 15 16  1  0
 17 16  1  0
 18 14  1  0
 18 17  2  0
 19 12  1  0
 19 20  2  0
 21 19  1  0
 22 25  1  0
 22 21  1  0
 22 23  1  1
 24 23  1  0
 25 27  1  0
 26 25  2  0
M  END
$$$$
