HHC.pdb
     RDKit          3D

 27 28  0  0  1  0  0  0  0  0999 V2000
   14.7614  -17.9502   11.4646 N   0  0  0  0  0  0  0  0  0  0  0  0
   15.6862  -18.9280   11.9809 C   0  0  1  0  0  0  0  0  0  0  0  0
   17.0773  -18.2845   11.9086 C   0  0  0  0  0  0  0  0  0  0  0  0
   17.6265  -18.3940   10.5433 C   0  0  0  0  0  0  0  0  0  0  0  0
   17.1494  -19.1443    9.4762 C   0  0  0  0  0  0  0  0  0  0  0  0
   17.9435  -18.9644    8.4033 N   0  0  0  0  0  0  0  0  0  0  0  0
   18.9066  -18.1115    8.7940 C   0  0  0  0  0  0  0  0  0  0  0  0
   18.7197  -17.7668   10.0779 N   0  0  0  0  0  0  0  0  0  0  0  0
   15.4106  -19.2045   13.4351 C   0  0  0  0  0  0  0  0  0  0  0  0
   14.9040  -18.2945   14.1407 O   0  0  0  0  0  0  0  0  0  0  0  0
   15.7311  -20.4816   13.9620 N   0  0  0  0  0  0  0  0  0  0  0  0
   15.5167  -20.7253   15.3611 C   0  0  1  0  0  0  0  0  0  0  0  0
   15.1600  -22.1775   15.5173 C   0  0  0  0  0  0  0  0  0  0  0  0
   14.7589  -22.4532   16.8957 C   0  0  0  0  0  0  0  0  0  0  0  0
   14.3954  -21.5068   17.8284 C   0  0  0  0  0  0  0  0  0  0  0  0
   14.0945  -22.1386   18.9757 N   0  0  0  0  0  0  0  0  0  0  0  0
   14.2627  -23.4405   18.7734 C   0  0  0  0  0  0  0  0  0  0  0  0
   14.6665  -23.6411   17.5116 N   0  0  0  0  0  0  0  0  0  0  0  0
   16.6421  -20.2731   16.2026 C   0  0  0  0  0  0  0  0  0  0  0  0
   17.8063  -20.2783   15.7349 O   0  0  0  0  0  0  0  0  0  0  0  0
   16.4856  -19.8214   17.5415 N   0  0  0  0  0  0  0  0  0  0  0  0
   17.5776  -19.4106   18.3858 C   0  0  1  0  0  0  0  0  0  0  0  0
   17.2438  -18.1350   19.1660 C   0  0  0  0  0  0  0  0  0  0  0  0
   18.7259  -17.5136   19.9612 S   0  0  0  0  0  0  0  0  0  0  0  0
   18.0629  -20.4673   19.2707 C   0  0  0  0  0  0  0  0  0  0  0  0
   17.2676  -21.1407   19.9589 O   0  0  0  0  0  0  0  0  0  0  0  0
   19.4127  -20.7380   19.3596 O   0  0  0  0  0  0  0  0  0  0  0  0
  2  1  1  1
  2  3  1  0
  2  9  1  0
  4  5  2  0
  4  3  1  0
  6  5  1  0
  7  8  2  0
  7  6  1  0
  8  4  1  0
  9 11  1  0
 10  9  2  0
 11 12  1  0
 12 13  1  6
 13 14  1  0
 14 15  2  0
 15 16  1  0
 17 16  1  0
 18 14  1  0
 18 17  2  0
 19 12  1  0
 19 20  2  0
 21 19  1  0
 22 25  1  0
 22 21  1  0
 22 23  1  1
 24 23  1  0
 25 27  1  0
 26 25  2  0
M  END
$$$$
