HHC.pdb
     RDKit          3D

 27 28  0  0  1  0  0  0  0  0999 V2000
    7.4889  -18.5234   19.7783 N   0  0  0  0  0  0  0  0  0  0  0  0
    8.0422  -17.2304   20.0939 C   0  0  1  0  0  0  0  0  0  0  0  0
    7.0270  -16.1943   19.5937 C   0  0  0  0  0  0  0  0  0  0  0  0
    7.5797  -14.8312   19.7114 C   0  0  0  0  0  0  0  0  0  0  0  0
    8.8448  -14.4438   20.1343 C   0  0  0  0  0  0  0  0  0  0  0  0
    8.9459  -13.1013   20.0944 N   0  0  0  0  0  0  0  0  0  0  0  0
    7.7581  -12.6533   19.6517 C   0  0  0  0  0  0  0  0  0  0  0  0
    6.9354  -13.6886   19.4207 N   0  0  0  0  0  0  0  0  0  0  0  0
    8.1504  -17.0479   21.5846 C   0  0  0  0  0  0  0  0  0  0  0  0
    7.1297  -17.2373   22.2951 O   0  0  0  0  0  0  0  0  0  0  0  0
    9.3993  -16.6684   22.1391 N   0  0  0  0  0  0  0  0  0  0  0  0
    9.5338  -16.6176   23.5681 C   0  0  1  0  0  0  0  0  0  0  0  0
   10.9615  -16.9527   23.8998 C   0  0  0  0  0  0  0  0  0  0  0  0
   11.1479  -18.4024   23.9208 C   0  0  0  0  0  0  0  0  0  0  0  0
   10.2271  -19.3216   24.3736 C   0  0  0  0  0  0  0  0  0  0  0  0
   10.7541  -20.5502   24.2357 N   0  0  0  0  0  0  0  0  0  0  0  0
   11.9672  -20.4105   23.7131 C   0  0  0  0  0  0  0  0  0  0  0  0
   12.2151  -19.1082   23.5183 N   0  0  0  0  0  0  0  0  0  0  0  0
    9.0480  -15.3494   24.1468 C   0  0  0  0  0  0  0  0  0  0  0  0
    9.2505  -14.2723   23.5360 O   0  0  0  0  0  0  0  0  0  0  0  0
    8.3487  -15.2702   25.3820 N   0  0  0  0  0  0  0  0  0  0  0  0
    7.9402  -14.0345   25.9985 C   0  0  1  0  0  0  0  0  0  0  0  0
    6.4437  -13.7701   25.8043 C   0  0  0  0  0  0  0  0  0  0  0  0
    5.9849  -12.2633   26.6611 S   0  0  0  0  0  0  0  0  0  0  0  0
    8.3244  -13.9266   27.4042 C   0  0  0  0  0  0  0  0  0  0  0  0
    8.5995  -14.9454   28.0721 O   0  0  0  0  0  0  0  0  0  0  0  0
    8.3894  -12.6925   28.0173 O   0  0  0  0  0  0  0  0  0  0  0  0
  2  1  1  1
  2  3  1  0
  2  9  1  0
  4  5  2  0
  4  3  1  0
  6  5  1  0
  7  8  2  0
  7  6  1  0
  8  4  1  0
  9 11  1  0
 10  9  2  0
 11 12  1  0
 12 13  1  6
 13 14  1  0
 14 15  2  0
 15 16  1  0
 17 16  1  0
 18 14  1  0
 18 17  2  0
 19 12  1  0
 19 20  2  0
 21 19  1  0
 22 25  1  0
 22 21  1  0
 22 23  1  1
 24 23  1  0
 25 27  1  0
 26 25  2  0
M  END
$$$$
