HHC.pdb
     RDKit          3D

 27 28  0  0  1  0  0  0  0  0999 V2000
   13.6213  -14.5798   17.7052 N   0  0  0  0  0  0  0  0  0  0  0  0
   13.0031  -15.5902   18.5265 C   0  0  1  0  0  0  0  0  0  0  0  0
   14.1381  -16.2588   19.3132 C   0  0  0  0  0  0  0  0  0  0  0  0
   14.8917  -17.1849   18.4459 C   0  0  0  0  0  0  0  0  0  0  0  0
   14.4000  -18.1571   17.5843 C   0  0  0  0  0  0  0  0  0  0  0  0
   15.4245  -18.7854   16.9762 N   0  0  0  0  0  0  0  0  0  0  0  0
   16.5446  -18.2134   17.4515 C   0  0  0  0  0  0  0  0  0  0  0  0
   16.2289  -17.2523   18.3339 N   0  0  0  0  0  0  0  0  0  0  0  0
   12.0835  -14.9622   19.5399 C   0  0  0  0  0  0  0  0  0  0  0  0
   12.4756  -13.9446   20.1671 O   0  0  0  0  0  0  0  0  0  0  0  0
   10.8054  -15.5382   19.7545 N   0  0  0  0  0  0  0  0  0  0  0  0
    9.9586  -14.9810   20.7720 C   0  0  1  0  0  0  0  0  0  0  0  0
    8.5342  -15.1830   20.3349 C   0  0  0  0  0  0  0  0  0  0  0  0
    8.2882  -14.4817   19.0762 C   0  0  0  0  0  0  0  0  0  0  0  0
    8.0674  -13.1284   18.9435 C   0  0  0  0  0  0  0  0  0  0  0  0
    7.8816  -12.8567   17.6405 N   0  0  0  0  0  0  0  0  0  0  0  0
    7.9819  -14.0009   16.9734 C   0  0  0  0  0  0  0  0  0  0  0  0
    8.2290  -14.9941   17.8381 N   0  0  0  0  0  0  0  0  0  0  0  0
   10.2677  -15.4933   22.1215 C   0  0  0  0  0  0  0  0  0  0  0  0
   10.9988  -16.5051   22.2474 O   0  0  0  0  0  0  0  0  0  0  0  0
    9.7773  -14.8978   23.3156 N   0  0  0  0  0  0  0  0  0  0  0  0
    9.9857  -15.4431   24.6321 C   0  0  1  0  0  0  0  0  0  0  0  0
    9.3194  -14.5869   25.7138 C   0  0  0  0  0  0  0  0  0  0  0  0
    7.6209  -14.2488   25.2491 S   0  0  0  0  0  0  0  0  0  0  0  0
    9.6029  -16.8483   24.7510 C   0  0  0  0  0  0  0  0  0  0  0  0
    9.9465  -17.5230   25.7442 O   0  0  0  0  0  0  0  0  0  0  0  0
    8.8530  -17.4534   23.7637 O   0  0  0  0  0  0  0  0  0  0  0  0
  2  1  1  6
  2  3  1  0
  2  9  1  0
  4  5  2  0
  4  3  1  0
  6  5  1  0
  7  8  2  0
  7  6  1  0
  8  4  1  0
  9 11  1  0
 10  9  2  0
 11 12  1  0
 12 13  1  6
 13 14  1  0
 14 15  2  0
 15 16  1  0
 17 16  1  0
 18 14  1  0
 18 17  2  0
 19 12  1  0
 19 20  2  0
 21 19  1  0
 22 25  1  0
 22 21  1  0
 22 23  1  1
 24 23  1  0
 25 27  1  0
 26 25  2  0
M  END
$$$$
