HHC.pdb
     RDKit          3D

 27 28  0  0  1  0  0  0  0  0999 V2000
    8.2233  -17.1301   19.3453 N   0  0  0  0  0  0  0  0  0  0  0  0
    8.5210  -15.9508   20.1188 C   0  0  1  0  0  0  0  0  0  0  0  0
    7.4337  -14.9245   19.7741 C   0  0  0  0  0  0  0  0  0  0  0  0
    7.5809  -14.4648   18.3797 C   0  0  0  0  0  0  0  0  0  0  0  0
    8.3807  -13.4424   17.8853 C   0  0  0  0  0  0  0  0  0  0  0  0
    8.2225  -13.3464   16.5513 N   0  0  0  0  0  0  0  0  0  0  0  0
    7.3341  -14.2976   16.2141 C   0  0  0  0  0  0  0  0  0  0  0  0
    6.9466  -14.9710   17.3088 N   0  0  0  0  0  0  0  0  0  0  0  0
    8.3978  -16.2360   21.5920 C   0  0  0  0  0  0  0  0  0  0  0  0
    7.3095  -16.6863   22.0343 O   0  0  0  0  0  0  0  0  0  0  0  0
    9.5123  -15.9879   22.4331 N   0  0  0  0  0  0  0  0  0  0  0  0
    9.4163  -16.3275   23.8253 C   0  0  1  0  0  0  0  0  0  0  0  0
   10.4286  -17.4051   24.0985 C   0  0  0  0  0  0  0  0  0  0  0  0
   10.5099  -17.6691   25.5339 C   0  0  0  0  0  0  0  0  0  0  0  0
   11.4753  -17.1776   26.3850 C   0  0  0  0  0  0  0  0  0  0  0  0
   11.2200  -17.6355   27.6224 N   0  0  0  0  0  0  0  0  0  0  0  0
   10.1296  -18.3909   27.5540 C   0  0  0  0  0  0  0  0  0  0  0  0
    9.6911  -18.4170   26.2882 N   0  0  0  0  0  0  0  0  0  0  0  0
    9.5136  -15.1514   24.7122 C   0  0  0  0  0  0  0  0  0  0  0  0
   10.3321  -14.2393   24.4436 O   0  0  0  0  0  0  0  0  0  0  0  0
    8.7191  -14.9837   25.8791 N   0  0  0  0  0  0  0  0  0  0  0  0
    8.8543  -13.8795   26.7937 C   0  0  1  0  0  0  0  0  0  0  0  0
    7.7917  -12.8038   26.5468 C   0  0  0  0  0  0  0  0  0  0  0  0
    6.1948  -13.3995   27.1037 S   0  0  0  0  0  0  0  0  0  0  0  0
    8.8904  -14.2832   28.1976 C   0  0  0  0  0  0  0  0  0  0  0  0
    9.1509  -13.4546   29.0949 O   0  0  0  0  0  0  0  0  0  0  0  0
    8.6363  -15.5914   28.5544 O   0  0  0  0  0  0  0  0  0  0  0  0
  2  1  1  6
  2  3  1  0
  2  9  1  0
  4  5  2  0
  4  3  1  0
  6  5  1  0
  7  8  2  0
  7  6  1  0
  8  4  1  0
  9 11  1  0
 10  9  2  0
 11 12  1  0
 12 13  1  1
 13 14  1  0
 14 15  2  0
 15 16  1  0
 17 16  1  0
 18 14  1  0
 18 17  2  0
 19 12  1  0
 19 20  2  0
 21 19  1  0
 22 25  1  0
 22 21  1  0
 22 23  1  1
 24 23  1  0
 25 27  1  0
 26 25  2  0
M  END
$$$$
