HHC.pdb
     RDKit          3D

 27 28  0  0  1  0  0  0  0  0999 V2000
   14.8369  -16.7067   14.9659 N   0  0  0  0  0  0  0  0  0  0  0  0
   15.1485  -16.4890   16.3563 C   0  0  1  0  0  0  0  0  0  0  0  0
   15.6612  -15.0467   16.4614 C   0  0  0  0  0  0  0  0  0  0  0  0
   17.0056  -14.9318   15.8641 C   0  0  0  0  0  0  0  0  0  0  0  0
   17.4215  -14.1170   14.8188 C   0  0  0  0  0  0  0  0  0  0  0  0
   18.7320  -14.3168   14.5808 N   0  0  0  0  0  0  0  0  0  0  0  0
   19.1322  -15.2458   15.4665 C   0  0  0  0  0  0  0  0  0  0  0  0
   18.0988  -15.6175   16.2385 N   0  0  0  0  0  0  0  0  0  0  0  0
   13.9034  -16.5699   17.1991 C   0  0  0  0  0  0  0  0  0  0  0  0
   12.7835  -16.5971   16.6266 O   0  0  0  0  0  0  0  0  0  0  0  0
   14.0336  -16.6127   18.6106 N   0  0  0  0  0  0  0  0  0  0  0  0
   13.0995  -17.3989   19.3670 C   0  0  1  0  0  0  0  0  0  0  0  0
   13.2023  -18.8169   18.8778 C   0  0  0  0  0  0  0  0  0  0  0  0
   12.0571  -19.1425   18.0296 C   0  0  0  0  0  0  0  0  0  0  0  0
   11.0023  -18.3013   17.7509 C   0  0  0  0  0  0  0  0  0  0  0  0
   10.1484  -18.9493   16.9404 N   0  0  0  0  0  0  0  0  0  0  0  0
   10.6481  -20.1592   16.7152 C   0  0  0  0  0  0  0  0  0  0  0  0
   11.8083  -20.2855   17.3733 N   0  0  0  0  0  0  0  0  0  0  0  0
   13.2599  -17.2370   20.8255 C   0  0  0  0  0  0  0  0  0  0  0  0
   14.4061  -17.2947   21.3326 O   0  0  0  0  0  0  0  0  0  0  0  0
   12.1713  -17.0147   21.7124 N   0  0  0  0  0  0  0  0  0  0  0  0
   12.2991  -16.9562   23.1457 C   0  0  1  0  0  0  0  0  0  0  0  0
   11.0161  -16.4466   23.8101 C   0  0  0  0  0  0  0  0  0  0  0  0
   10.5790  -14.8490   23.1231 S   0  0  0  0  0  0  0  0  0  0  0  0
   12.7499  -18.2103   23.7449 C   0  0  0  0  0  0  0  0  0  0  0  0
   13.0979  -18.2578   24.9433 O   0  0  0  0  0  0  0  0  0  0  0  0
   12.7982  -19.3657   22.9925 O   0  0  0  0  0  0  0  0  0  0  0  0
  2  1  1  6
  2  3  1  0
  2  9  1  0
  4  5  2  0
  4  3  1  0
  6  5  1  0
  7  8  2  0
  7  6  1  0
  8  4  1  0
  9 11  1  0
 10  9  2  0
 11 12  1  0
 12 13  1  1
 13 14  1  0
 14 15  2  0
 15 16  1  0
 17 16  1  0
 18 14  1  0
 18 17  2  0
 19 12  1  0
 19 20  2  0
 21 19  1  0
 22 25  1  0
 22 21  1  0
 22 23  1  1
 24 23  1  0
 25 27  1  0
 26 25  2  0
M  END
$$$$
