IYC.pdb
     RDKit          3D

 27 27  0  0  1  0  0  0  0  0999 V2000
    7.7245  -13.4117   16.9466 C   0  0  0  0  0  0  0  0  0  0  0  0
    8.3222  -14.4976   17.8086 C   0  0  0  0  0  0  0  0  0  0  0  0
    8.5376  -14.0064   19.2312 C   0  0  2  0  0  0  0  0  0  0  0  0
    9.4080  -12.7778   19.1853 C   0  0  0  0  0  0  0  0  0  0  0  0
    9.1872  -15.1396   19.9900 C   0  0  2  0  0  0  0  0  0  0  0  0
    8.3057  -16.2835   19.9213 N   0  0  0  0  0  0  0  0  0  0  0  0
    9.4018  -14.7860   21.4123 C   0  0  0  0  0  0  0  0  0  0  0  0
   10.4037  -14.0627   21.6499 O   0  0  0  0  0  0  0  0  0  0  0  0
    5.8356  -10.9695   28.0607 O   0  0  0  0  0  0  0  0  0  0  0  0
    6.2181  -12.0108   27.2172 C   0  0  0  0  0  0  0  0  0  0  0  0
    6.1280  -11.8280   25.8656 C   0  0  0  0  0  0  0  0  0  0  0  0
    6.4964  -12.8330   24.9954 C   0  0  0  0  0  0  0  0  0  0  0  0
    6.9649  -14.0487   25.4429 C   0  0  0  0  0  0  0  0  0  0  0  0
    7.3378  -15.0656   24.4631 C   0  0  0  0  0  0  0  0  0  0  0  0
    8.6035  -14.8023   23.7379 C   0  0  2  0  0  0  0  0  0  0  0  0
    8.4942  -15.2697   22.3812 N   0  0  0  0  0  0  0  0  0  0  0  0
    9.8007  -15.4544   24.3752 C   0  0  0  0  0  0  0  0  0  0  0  0
   10.9835  -15.2086   24.0470 O   0  0  0  0  0  0  0  0  0  0  0  0
    7.0534  -14.2267   26.8104 C   0  0  0  0  0  0  0  0  0  0  0  0
    6.6846  -13.2205   27.6834 C   0  0  0  0  0  0  0  0  0  0  0  0
    9.6083  -16.4208   25.4256 N   0  0  0  0  0  0  0  0  0  0  0  0
   10.5410  -16.4695   26.5230 C   0  0  1  0  0  0  0  0  0  0  0  0
   10.5249  -15.1244   27.2648 C   0  0  0  0  0  0  0  0  0  0  0  0
   11.6792  -15.1900   28.6611 S   0  0  0  0  0  0  0  0  0  0  0  0
   10.2493  -17.5757   27.4597 C   0  0  0  0  0  0  0  0  0  0  0  0
   11.3000  -18.1409   28.1638 O   0  0  0  0  0  0  0  0  0  0  0  0
    9.0848  -18.0079   27.6281 O   0  0  0  0  0  0  0  0  0  0  0  0
  1  2  1  0
  2  3  1  0
  3  5  1  0
  3  4  1  6
  5  6  1  1
  7  5  1  0
  7  8  2  0
  9 10  1  0
 10 20  2  0
 10 11  1  0
 11 12  2  0
 13 12  1  0
 13 14  1  0
 15 14  1  1
 15 16  1  0
 16  7  1  0
 17 15  1  0
 18 17  2  0
 19 13  2  0
 20 19  1  0
 21 17  1  0
 22 23  1  1
 22 21  1  0
 24 23  1  0
 25 22  1  0
 26 25  1  0
 27 25  2  0
M  END
$$$$
