IYC.pdb
     RDKit          3D

 27 27  0  0  1  0  0  0  0  0999 V2000
    7.4625  -12.3035   19.4399 C   0  0  0  0  0  0  0  0  0  0  0  0
    8.1281  -13.4454   18.7103 C   0  0  0  0  0  0  0  0  0  0  0  0
    8.9849  -14.2706   19.6571 C   0  0  2  0  0  0  0  0  0  0  0  0
   10.0489  -13.3772   20.2393 C   0  0  0  0  0  0  0  0  0  0  0  0
    9.5694  -15.4009   18.8431 C   0  0  2  0  0  0  0  0  0  0  0  0
    8.4743  -16.1277   18.2410 N   0  0  0  0  0  0  0  0  0  0  0  0
   10.3516  -16.3304   19.6907 C   0  0  0  0  0  0  0  0  0  0  0  0
    9.6775  -17.1358   20.3836 O   0  0  0  0  0  0  0  0  0  0  0  0
   17.1863  -20.9523   22.7076 O   0  0  0  0  0  0  0  0  0  0  0  0
   16.4104  -19.9766   22.0847 C   0  0  0  0  0  0  0  0  0  0  0  0
   15.5234  -20.3610   21.1183 C   0  0  0  0  0  0  0  0  0  0  0  0
   14.7363  -19.4272   20.4767 C   0  0  0  0  0  0  0  0  0  0  0  0
   14.8076  -18.0846   20.7768 C   0  0  0  0  0  0  0  0  0  0  0  0
   13.9422  -17.1535   20.0576 C   0  0  0  0  0  0  0  0  0  0  0  0
   12.5261  -17.1493   20.4953 C   0  0  2  0  0  0  0  0  0  0  0  0
   11.7623  -16.2543   19.6665 N   0  0  0  0  0  0  0  0  0  0  0  0
   12.3492  -16.7405   21.9328 C   0  0  0  0  0  0  0  0  0  0  0  0
   12.5098  -15.5704   22.3479 O   0  0  0  0  0  0  0  0  0  0  0  0
   15.7064  -17.7031   21.7547 C   0  0  0  0  0  0  0  0  0  0  0  0
   16.4957  -18.6377   22.3982 C   0  0  0  0  0  0  0  0  0  0  0  0
   11.9741  -17.7284   22.9114 N   0  0  0  0  0  0  0  0  0  0  0  0
   11.8040  -17.3340   24.2870 C   0  0  1  0  0  0  0  0  0  0  0  0
   10.3048  -17.2221   24.6028 C   0  0  0  0  0  0  0  0  0  0  0  0
   10.0818  -16.9062   26.3739 S   0  0  0  0  0  0  0  0  0  0  0  0
   12.4576  -18.2713   25.2252 C   0  0  0  0  0  0  0  0  0  0  0  0
   12.8187  -19.5263   24.7626 O   0  0  0  0  0  0  0  0  0  0  0  0
   12.6892  -17.9580   26.4167 O   0  0  0  0  0  0  0  0  0  0  0  0
  1  2  1  0
  2  3  1  0
  3  5  1  0
  3  4  1  6
  5  6  1  1
  7  5  1  0
  7  8  2  0
  9 10  1  0
 10 20  2  0
 10 11  1  0
 11 12  2  0
 13 12  1  0
 13 14  1  0
 15 14  1  6
 15 16  1  0
 16  7  1  0
 17 15  1  0
 18 17  2  0
 19 13  2  0
 20 19  1  0
 21 17  1  0
 22 23  1  1
 22 21  1  0
 24 23  1  0
 25 22  1  0
 26 25  1  0
 27 25  2  0
M  END
$$$$
