IYC.pdb
     RDKit          3D

 27 27  0  0  1  0  0  0  0  0999 V2000
    6.5916  -11.9066   26.0628 C   0  0  0  0  0  0  0  0  0  0  0  0
    6.7482  -13.0827   25.1293 C   0  0  0  0  0  0  0  0  0  0  0  0
    6.2474  -14.3632   25.7782 C   0  0  2  0  0  0  0  0  0  0  0  0
    7.1244  -14.6724   26.9633 C   0  0  0  0  0  0  0  0  0  0  0  0
    6.3118  -15.4413   24.7221 C   0  0  2  0  0  0  0  0  0  0  0  0
    5.6429  -16.6130   25.2416 N   0  0  0  0  0  0  0  0  0  0  0  0
    7.7124  -15.7958   24.3949 C   0  0  0  0  0  0  0  0  0  0  0  0
    8.0999  -16.9216   24.8020 O   0  0  0  0  0  0  0  0  0  0  0  0
    7.0629  -14.0328   17.4002 O   0  0  0  0  0  0  0  0  0  0  0  0
    7.8450  -14.1641   18.5461 C   0  0  0  0  0  0  0  0  0  0  0  0
    8.1012  -13.0514   19.2975 C   0  0  0  0  0  0  0  0  0  0  0  0
    8.8708  -13.1375   20.4392 C   0  0  0  0  0  0  0  0  0  0  0  0
    9.4080  -14.3315   20.8674 C   0  0  0  0  0  0  0  0  0  0  0  0
   10.2118  -14.3471   22.0867 C   0  0  0  0  0  0  0  0  0  0  0  0
    9.7588  -15.3053   23.1231 C   0  0  2  0  0  0  0  0  0  0  0  0
    8.4988  -14.8737   23.6685 N   0  0  0  0  0  0  0  0  0  0  0  0
   10.7401  -15.4676   24.2524 C   0  0  0  0  0  0  0  0  0  0  0  0
   11.9551  -15.1789   24.1649 O   0  0  0  0  0  0  0  0  0  0  0  0
    9.1450  -15.4523   20.1030 C   0  0  0  0  0  0  0  0  0  0  0  0
    8.3741  -15.3674   18.9588 C   0  0  0  0  0  0  0  0  0  0  0  0
   10.2869  -15.9820   25.5190 N   0  0  0  0  0  0  0  0  0  0  0  0
   11.0084  -15.6442   26.7198 C   0  0  1  0  0  0  0  0  0  0  0  0
   10.4245  -14.3560   27.3192 C   0  0  0  0  0  0  0  0  0  0  0  0
   11.3537  -13.9071   28.8097 S   0  0  0  0  0  0  0  0  0  0  0  0
   10.9790  -16.7343   27.7184 C   0  0  0  0  0  0  0  0  0  0  0  0
   10.0035  -17.7112   27.6030 O   0  0  0  0  0  0  0  0  0  0  0  0
   11.8085  -16.7923   28.6565 O   0  0  0  0  0  0  0  0  0  0  0  0
  1  2  1  0
  2  3  1  0
  3  5  1  0
  3  4  1  1
  5  6  1  1
  7  5  1  0
  7  8  2  0
  9 10  1  0
 10 20  2  0
 10 11  1  0
 11 12  2  0
 13 12  1  0
 13 14  1  0
 15 14  1  6
 15 16  1  0
 16  7  1  0
 17 15  1  0
 18 17  2  0
 19 13  2  0
 20 19  1  0
 21 17  1  0
 22 23  1  1
 22 21  1  0
 24 23  1  0
 25 22  1  0
 26 25  1  0
 27 25  2  0
M  END
$$$$
