IYC.pdb
     RDKit          3D

 27 27  0  0  1  0  0  0  0  0999 V2000
    6.4798  -12.9738   18.7689 C   0  0  0  0  0  0  0  0  0  0  0  0
    7.8338  -13.4276   19.2588 C   0  0  0  0  0  0  0  0  0  0  0  0
    7.7134  -14.1728   20.5785 C   0  0  2  0  0  0  0  0  0  0  0  0
    7.0186  -13.2771   21.5707 C   0  0  0  0  0  0  0  0  0  0  0  0
    9.1176  -14.5240   21.0105 C   0  0  2  0  0  0  0  0  0  0  0  0
    9.6783  -15.4139   20.0187 N   0  0  0  0  0  0  0  0  0  0  0  0
    9.1249  -15.2074   22.3248 C   0  0  0  0  0  0  0  0  0  0  0  0
    9.1153  -16.4650   22.2862 O   0  0  0  0  0  0  0  0  0  0  0  0
   10.2384  -16.4415   30.9129 O   0  0  0  0  0  0  0  0  0  0  0  0
   10.0180  -15.8097   29.6906 C   0  0  0  0  0  0  0  0  0  0  0  0
    9.7370  -16.5778   28.5954 C   0  0  0  0  0  0  0  0  0  0  0  0
    9.5124  -15.9925   27.3666 C   0  0  0  0  0  0  0  0  0  0  0  0
    9.5604  -14.6272   27.1903 C   0  0  0  0  0  0  0  0  0  0  0  0
    9.3104  -14.0778   25.8603 C   0  0  0  0  0  0  0  0  0  0  0  0
    9.1871  -15.0850   24.7798 C   0  0  2  0  0  0  0  0  0  0  0  0
    9.1416  -14.4254   23.5014 N   0  0  0  0  0  0  0  0  0  0  0  0
    7.9666  -15.9551   24.9144 C   0  0  0  0  0  0  0  0  0  0  0  0
    6.7949  -15.5142   24.9160 O   0  0  0  0  0  0  0  0  0  0  0  0
    9.8450  -13.8567   28.3016 C   0  0  0  0  0  0  0  0  0  0  0  0
   10.0703  -14.4419   29.5334 C   0  0  0  0  0  0  0  0  0  0  0  0
    8.1217  -17.3805   25.0510 N   0  0  0  0  0  0  0  0  0  0  0  0
    6.9521  -18.2220   25.0671 C   0  0  1  0  0  0  0  0  0  0  0  0
    6.1885  -18.0579   23.7443 C   0  0  0  0  0  0  0  0  0  0  0  0
    6.3365  -19.5782   22.7679 S   0  0  0  0  0  0  0  0  0  0  0  0
    7.2863  -19.6444   25.2938 C   0  0  0  0  0  0  0  0  0  0  0  0
    8.6165  -19.9926   25.4629 O   0  0  0  0  0  0  0  0  0  0  0  0
    6.4017  -20.5315   25.3356 O   0  0  0  0  0  0  0  0  0  0  0  0
  1  2  1  0
  2  3  1  0
  3  5  1  0
  3  4  1  1
  5  6  1  6
  7  5  1  0
  7  8  2  0
  9 10  1  0
 10 20  2  0
 10 11  1  0
 11 12  2  0
 13 12  1  0
 13 14  1  0
 15 14  1  1
 15 16  1  0
 16  7  1  0
 17 15  1  0
 18 17  2  0
 19 13  2  0
 20 19  1  0
 21 17  1  0
 22 23  1  6
 22 21  1  0
 24 23  1  0
 25 22  1  0
 26 25  1  0
 27 25  2  0
M  END
$$$$
