IYC.pdb
     RDKit          3D

 27 27  0  0  1  0  0  0  0  0999 V2000
    7.5487  -13.2845   17.9091 C   0  0  0  0  0  0  0  0  0  0  0  0
    6.8332  -13.7986   19.1350 C   0  0  0  0  0  0  0  0  0  0  0  0
    7.8028  -13.9922   20.2900 C   0  0  2  0  0  0  0  0  0  0  0  0
    8.9161  -14.8978   19.8319 C   0  0  0  0  0  0  0  0  0  0  0  0
    7.0107  -14.5904   21.4287 C   0  0  2  0  0  0  0  0  0  0  0  0
    5.7528  -13.8832   21.5148 N   0  0  0  0  0  0  0  0  0  0  0  0
    7.7267  -14.4515   22.7180 C   0  0  0  0  0  0  0  0  0  0  0  0
    8.1522  -13.2978   22.9846 O   0  0  0  0  0  0  0  0  0  0  0  0
   11.2944  -15.1079   30.5436 O   0  0  0  0  0  0  0  0  0  0  0  0
   10.4896  -15.2025   29.4099 C   0  0  0  0  0  0  0  0  0  0  0  0
   10.3039  -14.0875   28.6414 C   0  0  0  0  0  0  0  0  0  0  0  0
    9.5147  -14.1377   27.5109 C   0  0  0  0  0  0  0  0  0  0  0  0
    8.8874  -15.2972   27.1113 C   0  0  0  0  0  0  0  0  0  0  0  0
    8.0683  -15.2762   25.9023 C   0  0  0  0  0  0  0  0  0  0  0  0
    8.8043  -15.5381   24.6426 C   0  0  2  0  0  0  0  0  0  0  0  0
    7.8806  -15.5902   23.5402 N   0  0  0  0  0  0  0  0  0  0  0  0
    9.5920  -16.8201   24.6697 C   0  0  0  0  0  0  0  0  0  0  0  0
    9.1565  -17.9131   24.2418 O   0  0  0  0  0  0  0  0  0  0  0  0
    9.0795  -16.4206   27.8929 C   0  0  0  0  0  0  0  0  0  0  0  0
    9.8698  -16.3716   29.0258 C   0  0  0  0  0  0  0  0  0  0  0  0
   10.9260  -16.8231   25.2124 N   0  0  0  0  0  0  0  0  0  0  0  0
   11.9150  -17.7115   24.6564 C   0  0  1  0  0  0  0  0  0  0  0  0
   12.0255  -17.4677   23.1438 C   0  0  0  0  0  0  0  0  0  0  0  0
   13.3761  -18.4696   22.4667 S   0  0  0  0  0  0  0  0  0  0  0  0
   13.2370  -17.5538   25.2997 C   0  0  0  0  0  0  0  0  0  0  0  0
   13.9685  -18.6922   25.5965 O   0  0  0  0  0  0  0  0  0  0  0  0
   13.7044  -16.4247   25.5788 O   0  0  0  0  0  0  0  0  0  0  0  0
  1  2  1  0
  2  3  1  0
  3  5  1  0
  3  4  1  6
  5  6  1  1
  7  5  1  0
  7  8  2  0
  9 10  1  0
 10 20  2  0
 10 11  1  0
 11 12  2  0
 13 12  1  0
 13 14  1  0
 15 14  1  1
 15 16  1  0
 16  7  1  0
 17 15  1  0
 18 17  2  0
 19 13  2  0
 20 19  1  0
 21 17  1  0
 22 23  1  6
 22 21  1  0
 24 23  1  0
 25 22  1  0
 26 25  1  0
 27 25  2  0
M  END
$$$$
