IYC.pdb
     RDKit          3D

 27 27  0  0  1  0  0  0  0  0999 V2000
    6.4081  -11.3371   27.7830 C   0  0  0  0  0  0  0  0  0  0  0  0
    5.9071  -12.3377   26.7695 C   0  0  0  0  0  0  0  0  0  0  0  0
    7.0300  -13.2522   26.3066 C   0  0  2  0  0  0  0  0  0  0  0  0
    8.1383  -12.4006   25.7446 C   0  0  0  0  0  0  0  0  0  0  0  0
    6.4387  -14.1785   25.2702 C   0  0  2  0  0  0  0  0  0  0  0  0
    5.4021  -14.9573   25.9098 N   0  0  0  0  0  0  0  0  0  0  0  0
    7.4603  -15.1006   24.7222 C   0  0  0  0  0  0  0  0  0  0  0  0
    7.4987  -16.2450   25.2439 O   0  0  0  0  0  0  0  0  0  0  0  0
    6.1289  -13.9476   17.7280 O   0  0  0  0  0  0  0  0  0  0  0  0
    7.0315  -14.2552   18.7441 C   0  0  0  0  0  0  0  0  0  0  0  0
    7.6968  -13.2341   19.3630 C   0  0  0  0  0  0  0  0  0  0  0  0
    8.5989  -13.4949   20.3736 C   0  0  0  0  0  0  0  0  0  0  0  0
    8.8660  -14.7778   20.7985 C   0  0  0  0  0  0  0  0  0  0  0  0
    9.8324  -14.9780   21.8752 C   0  0  0  0  0  0  0  0  0  0  0  0
    9.2714  -15.5518   23.1215 C   0  0  2  0  0  0  0  0  0  0  0  0
    8.3004  -14.6483   23.6802 N   0  0  0  0  0  0  0  0  0  0  0  0
   10.3156  -15.8399   24.1661 C   0  0  0  0  0  0  0  0  0  0  0  0
   11.0538  -14.9642   24.6716 O   0  0  0  0  0  0  0  0  0  0  0  0
    8.1900  -15.8053   20.1685 C   0  0  0  0  0  0  0  0  0  0  0  0
    7.2859  -15.5452   19.1558 C   0  0  0  0  0  0  0  0  0  0  0  0
   10.5011  -17.1900   24.6320 N   0  0  0  0  0  0  0  0  0  0  0  0
   11.1613  -17.4202   25.8921 C   0  0  1  0  0  0  0  0  0  0  0  0
   10.3877  -16.7053   27.0102 C   0  0  0  0  0  0  0  0  0  0  0  0
   11.1584  -17.0727   28.6093 S   0  0  0  0  0  0  0  0  0  0  0  0
   11.2963  -18.8599   26.2009 C   0  0  0  0  0  0  0  0  0  0  0  0
   10.5860  -19.7703   25.4353 O   0  0  0  0  0  0  0  0  0  0  0  0
   12.0313  -19.2693   27.1300 O   0  0  0  0  0  0  0  0  0  0  0  0
  1  2  1  0
  2  3  1  0
  3  5  1  0
  3  4  1  6
  5  6  1  1
  7  5  1  0
  7  8  2  0
  9 10  1  0
 10 20  2  0
 10 11  1  0
 11 12  2  0
 13 12  1  0
 13 14  1  0
 15 14  1  6
 15 16  1  0
 16  7  1  0
 17 15  1  0
 18 17  2  0
 19 13  2  0
 20 19  1  0
 21 17  1  0
 22 23  1  1
 22 21  1  0
 24 23  1  0
 25 22  1  0
 26 25  1  0
 27 25  2  0
M  END
$$$$
