IYC.pdb
     RDKit          3D

 27 27  0  0  1  0  0  0  0  0999 V2000
    7.7778  -19.7301   18.0059 C   0  0  0  0  0  0  0  0  0  0  0  0
    8.3100  -18.3236   18.1392 C   0  0  0  0  0  0  0  0  0  0  0  0
    8.4362  -17.9257   19.6012 C   0  0  2  0  0  0  0  0  0  0  0  0
    7.0909  -18.0907   20.2586 C   0  0  0  0  0  0  0  0  0  0  0  0
    8.9118  -16.4921   19.6234 C   0  0  2  0  0  0  0  0  0  0  0  0
   10.1585  -16.4261   18.8943 N   0  0  0  0  0  0  0  0  0  0  0  0
    9.1420  -16.0194   21.0082 C   0  0  0  0  0  0  0  0  0  0  0  0
   10.2114  -16.4065   21.5465 O   0  0  0  0  0  0  0  0  0  0  0  0
    7.0668  -12.0240   28.6917 O   0  0  0  0  0  0  0  0  0  0  0  0
    7.2004  -12.4506   27.3719 C   0  0  0  0  0  0  0  0  0  0  0  0
    6.1975  -12.1705   26.4864 C   0  0  0  0  0  0  0  0  0  0  0  0
    6.2898  -12.5747   25.1706 C   0  0  0  0  0  0  0  0  0  0  0  0
    7.3812  -13.2688   24.6966 C   0  0  0  0  0  0  0  0  0  0  0  0
    7.4108  -13.6631   23.2906 C   0  0  0  0  0  0  0  0  0  0  0  0
    8.4021  -14.7131   22.9555 C   0  0  2  0  0  0  0  0  0  0  0  0
    8.1742  -15.1890   21.6165 N   0  0  0  0  0  0  0  0  0  0  0  0
    8.3646  -15.8879   23.8952 C   0  0  0  0  0  0  0  0  0  0  0  0
    7.4258  -16.7151   23.9374 O   0  0  0  0  0  0  0  0  0  0  0  0
    8.3913  -13.5487   25.5972 C   0  0  0  0  0  0  0  0  0  0  0  0
    8.3000  -13.1443   26.9158 C   0  0  0  0  0  0  0  0  0  0  0  0
    9.4559  -16.1006   24.8107 N   0  0  0  0  0  0  0  0  0  0  0  0
    9.4509  -17.2642   25.6608 C   0  0  1  0  0  0  0  0  0  0  0  0
    9.5008  -18.5299   24.7918 C   0  0  0  0  0  0  0  0  0  0  0  0
   11.0686  -18.5780   23.8829 S   0  0  0  0  0  0  0  0  0  0  0  0
   10.5710  -17.2597   26.6259 C   0  0  0  0  0  0  0  0  0  0  0  0
   10.6330  -18.2695   27.5724 O   0  0  0  0  0  0  0  0  0  0  0  0
   11.4555  -16.3717   26.6061 O   0  0  0  0  0  0  0  0  0  0  0  0
  1  2  1  0
  2  3  1  0
  3  5  1  0
  3  4  1  6
  5  6  1  6
  7  5  1  0
  7  8  2  0
  9 10  1  0
 10 20  2  0
 10 11  1  0
 11 12  2  0
 13 12  1  0
 13 14  1  0
 15 14  1  1
 15 16  1  0
 16  7  1  0
 17 15  1  0
 18 17  2  0
 19 13  2  0
 20 19  1  0
 21 17  1  0
 22 23  1  6
 22 21  1  0
 24 23  1  0
 25 22  1  0
 26 25  1  0
 27 25  2  0
M  END
$$$$
