IYC.pdb
     RDKit          3D

 27 27  0  0  1  0  0  0  0  0999 V2000
    6.8318  -23.0664   20.9977 C   0  0  0  0  0  0  0  0  0  0  0  0
    7.0281  -22.6156   22.4252 C   0  0  0  0  0  0  0  0  0  0  0  0
    6.4777  -21.2139   22.6338 C   0  0  2  0  0  0  0  0  0  0  0  0
    7.0938  -20.3012   21.6058 C   0  0  0  0  0  0  0  0  0  0  0  0
    6.8358  -20.8104   24.0448 C   0  0  2  0  0  0  0  0  0  0  0  0
    6.1500  -21.7046   24.9504 N   0  0  0  0  0  0  0  0  0  0  0  0
    6.4136  -19.4204   24.3342 C   0  0  0  0  0  0  0  0  0  0  0  0
    5.1742  -19.2402   24.4549 O   0  0  0  0  0  0  0  0  0  0  0  0
    6.7601  -11.0429   27.0489 O   0  0  0  0  0  0  0  0  0  0  0  0
    7.0130  -12.3500   26.6371 C   0  0  0  0  0  0  0  0  0  0  0  0
    8.1113  -12.9943   27.1339 C   0  0  0  0  0  0  0  0  0  0  0  0
    8.3981  -14.2886   26.7522 C   0  0  0  0  0  0  0  0  0  0  0  0
    7.6020  -14.9801   25.8659 C   0  0  0  0  0  0  0  0  0  0  0  0
    7.9668  -16.3484   25.5086 C   0  0  0  0  0  0  0  0  0  0  0  0
    6.9916  -17.0501   24.6403 C   0  0  2  0  0  0  0  0  0  0  0  0
    7.4012  -18.4169   24.4525 N   0  0  0  0  0  0  0  0  0  0  0  0
    6.8289  -16.4079   23.2890 C   0  0  0  0  0  0  0  0  0  0  0  0
    5.7194  -16.1323   22.7790 O   0  0  0  0  0  0  0  0  0  0  0  0
    6.4933  -14.3227   25.3675 C   0  0  0  0  0  0  0  0  0  0  0  0
    6.2049  -13.0259   25.7491 C   0  0  0  0  0  0  0  0  0  0  0  0
    7.9971  -16.0794   22.5133 N   0  0  0  0  0  0  0  0  0  0  0  0
    7.8395  -15.4386   21.2322 C   0  0  1  0  0  0  0  0  0  0  0  0
    7.0325  -14.1432   21.4066 C   0  0  0  0  0  0  0  0  0  0  0  0
    7.0395  -13.2122   19.8512 S   0  0  0  0  0  0  0  0  0  0  0  0
    9.1371  -15.1516   20.5841 C   0  0  0  0  0  0  0  0  0  0  0  0
    9.1523  -14.8778   19.2261 O   0  0  0  0  0  0  0  0  0  0  0  0
   10.2114  -15.1510   21.2300 O   0  0  0  0  0  0  0  0  0  0  0  0
  1  2  1  0
  2  3  1  0
  3  5  1  0
  3  4  1  6
  5  6  1  1
  7  5  1  0
  7  8  2  0
  9 10  1  0
 10 20  2  0
 10 11  1  0
 11 12  2  0
 13 12  1  0
 13 14  1  0
 15 14  1  1
 15 16  1  0
 16  7  1  0
 17 15  1  0
 18 17  2  0
 19 13  2  0
 20 19  1  0
 21 17  1  0
 22 23  1  1
 22 21  1  0
 24 23  1  0
 25 22  1  0
 26 25  1  0
 27 25  2  0
M  END
$$$$
