IYC.pdb
     RDKit          3D

 27 27  0  0  1  0  0  0  0  0999 V2000
    8.2739  -15.4628   16.6157 C   0  0  0  0  0  0  0  0  0  0  0  0
    7.8359  -14.4982   17.6913 C   0  0  0  0  0  0  0  0  0  0  0  0
    8.4697  -14.8491   19.0279 C   0  0  2  0  0  0  0  0  0  0  0  0
    8.2376  -16.3131   19.2966 C   0  0  0  0  0  0  0  0  0  0  0  0
    7.8164  -13.9665   20.0653 C   0  0  2  0  0  0  0  0  0  0  0  0
    7.9954  -12.5917   19.6556 N   0  0  0  0  0  0  0  0  0  0  0  0
    8.4325  -14.1520   21.3996 C   0  0  0  0  0  0  0  0  0  0  0  0
    9.5506  -13.5995   21.5662 O   0  0  0  0  0  0  0  0  0  0  0  0
    6.3424  -10.3012   27.3204 O   0  0  0  0  0  0  0  0  0  0  0  0
    6.6407  -11.5146   26.7033 C   0  0  0  0  0  0  0  0  0  0  0  0
    5.7321  -12.0502   25.8339 C   0  0  0  0  0  0  0  0  0  0  0  0
    5.9880  -13.2493   25.2018 C   0  0  0  0  0  0  0  0  0  0  0  0
    7.1542  -13.9510   25.4151 C   0  0  0  0  0  0  0  0  0  0  0  0
    7.3575  -15.2135   24.7095 C   0  0  0  0  0  0  0  0  0  0  0  0
    8.3786  -15.1733   23.6357 C   0  0  2  0  0  0  0  0  0  0  0  0
    7.7446  -14.9150   22.3697 N   0  0  0  0  0  0  0  0  0  0  0  0
    9.1737  -16.4461   23.5233 C   0  0  0  0  0  0  0  0  0  0  0  0
    8.6852  -17.5420   23.1663 O   0  0  0  0  0  0  0  0  0  0  0  0
    8.0683  -13.4037   26.2952 C   0  0  0  0  0  0  0  0  0  0  0  0
    7.8130  -12.2023   26.9292 C   0  0  0  0  0  0  0  0  0  0  0  0
   10.5792  -16.4359   23.8373 N   0  0  0  0  0  0  0  0  0  0  0  0
   11.3091  -17.6782   23.8599 C   0  0  1  0  0  0  0  0  0  0  0  0
   12.7683  -17.4189   23.4559 C   0  0  0  0  0  0  0  0  0  0  0  0
   12.8109  -16.5748   21.8521 S   0  0  0  0  0  0  0  0  0  0  0  0
   11.2521  -18.3393   25.1813 C   0  0  0  0  0  0  0  0  0  0  0  0
   10.4925  -17.7546   26.1815 O   0  0  0  0  0  0  0  0  0  0  0  0
   11.8695  -19.4054   25.4129 O   0  0  0  0  0  0  0  0  0  0  0  0
  1  2  1  0
  2  3  1  0
  3  5  1  0
  3  4  1  1
  5  6  1  6
  7  5  1  0
  7  8  2  0
  9 10  1  0
 10 20  2  0
 10 11  1  0
 11 12  2  0
 13 12  1  0
 13 14  1  0
 15 14  1  1
 15 16  1  0
 16  7  1  0
 17 15  1  0
 18 17  2  0
 19 13  2  0
 20 19  1  0
 21 17  1  0
 22 23  1  1
 22 21  1  0
 24 23  1  0
 25 22  1  0
 26 25  1  0
 27 25  2  0
M  END
$$$$
