IYC.pdb
     RDKit          3D

 27 27  0  0  1  0  0  0  0  0999 V2000
    8.5113  -13.7457   29.0724 C   0  0  0  0  0  0  0  0  0  0  0  0
    7.5221  -14.5444   28.2584 C   0  0  0  0  0  0  0  0  0  0  0  0
    7.9960  -14.6958   26.8217 C   0  0  2  0  0  0  0  0  0  0  0  0
    8.1408  -13.3225   26.2197 C   0  0  0  0  0  0  0  0  0  0  0  0
    6.9582  -15.5278   26.1056 C   0  0  2  0  0  0  0  0  0  0  0  0
    6.8567  -16.7972   26.7900 N   0  0  0  0  0  0  0  0  0  0  0  0
    7.3401  -15.7738   24.6957 C   0  0  0  0  0  0  0  0  0  0  0  0
    7.8670  -16.8919   24.4600 O   0  0  0  0  0  0  0  0  0  0  0  0
    8.3007  -14.2360   16.0225 O   0  0  0  0  0  0  0  0  0  0  0  0
    7.9243  -14.2225   17.3641 C   0  0  0  0  0  0  0  0  0  0  0  0
    8.2866  -13.1549   18.1371 C   0  0  0  0  0  0  0  0  0  0  0  0
    7.9343  -13.1019   19.4699 C   0  0  0  0  0  0  0  0  0  0  0  0
    7.2119  -14.1078   20.0731 C   0  0  0  0  0  0  0  0  0  0  0  0
    6.8735  -13.9828   21.4884 C   0  0  0  0  0  0  0  0  0  0  0  0
    7.5238  -14.9745   22.3777 C   0  0  2  0  0  0  0  0  0  0  0  0
    7.0950  -14.7665   23.7357 N   0  0  0  0  0  0  0  0  0  0  0  0
    9.0269  -14.9160   22.3348 C   0  0  0  0  0  0  0  0  0  0  0  0
    9.7184  -14.2209   23.1134 O   0  0  0  0  0  0  0  0  0  0  0  0
    6.8490  -15.1839   19.2858 C   0  0  0  0  0  0  0  0  0  0  0  0
    7.2013  -15.2384   17.9503 C   0  0  0  0  0  0  0  0  0  0  0  0
    9.7406  -15.6923   21.3538 N   0  0  0  0  0  0  0  0  0  0  0  0
   11.1564  -15.9078   21.5142 C   0  0  1  0  0  0  0  0  0  0  0  0
   11.4141  -16.6269   22.8470 C   0  0  0  0  0  0  0  0  0  0  0  0
   13.0876  -16.2421   23.4280 S   0  0  0  0  0  0  0  0  0  0  0  0
   11.7378  -16.6785   20.3943 C   0  0  0  0  0  0  0  0  0  0  0  0
   13.1149  -16.8152   20.3298 O   0  0  0  0  0  0  0  0  0  0  0  0
   11.0192  -17.2047   19.5122 O   0  0  0  0  0  0  0  0  0  0  0  0
  1  2  1  0
  2  3  1  0
  3  5  1  0
  3  4  1  6
  5  6  1  1
  7  5  1  0
  7  8  2  0
  9 10  1  0
 10 20  2  0
 10 11  1  0
 11 12  2  0
 13 12  1  0
 13 14  1  0
 15 14  1  6
 15 16  1  0
 16  7  1  0
 17 15  1  0
 18 17  2  0
 19 13  2  0
 20 19  1  0
 21 17  1  0
 22 23  1  1
 22 21  1  0
 24 23  1  0
 25 22  1  0
 26 25  1  0
 27 25  2  0
M  END
$$$$
