IYC.pdb
     RDKit          3D

 27 27  0  0  1  0  0  0  0  0999 V2000
    7.9468  -16.1385   16.0286 C   0  0  0  0  0  0  0  0  0  0  0  0
    7.5686  -14.9063   16.8146 C   0  0  0  0  0  0  0  0  0  0  0  0
    8.1268  -14.9693   18.2274 C   0  0  2  0  0  0  0  0  0  0  0  0
    7.6612  -16.2509   18.8678 C   0  0  0  0  0  0  0  0  0  0  0  0
    7.6142  -13.7479   18.9536 C   0  0  2  0  0  0  0  0  0  0  0  0
    8.0821  -12.5792   18.2427 N   0  0  0  0  0  0  0  0  0  0  0  0
    8.1180  -13.6944   20.3456 C   0  0  0  0  0  0  0  0  0  0  0  0
    9.3424  -13.4344   20.4734 O   0  0  0  0  0  0  0  0  0  0  0  0
    7.8575  -13.8360   29.1837 O   0  0  0  0  0  0  0  0  0  0  0  0
    7.6081  -13.6670   27.8231 C   0  0  0  0  0  0  0  0  0  0  0  0
    6.8097  -14.5741   27.1842 C   0  0  0  0  0  0  0  0  0  0  0  0
    6.5375  -14.4438   25.8380 C   0  0  0  0  0  0  0  0  0  0  0  0
    7.0505  -13.4086   25.0879 C   0  0  0  0  0  0  0  0  0  0  0  0
    6.7182  -13.3336   23.6677 C   0  0  0  0  0  0  0  0  0  0  0  0
    7.7151  -13.9468   22.7581 C   0  0  2  0  0  0  0  0  0  0  0  0
    7.2171  -13.9319   21.4079 N   0  0  0  0  0  0  0  0  0  0  0  0
    8.0628  -15.3641   23.1256 C   0  0  0  0  0  0  0  0  0  0  0  0
    7.2566  -16.3191   23.0533 O   0  0  0  0  0  0  0  0  0  0  0  0
    7.8568  -12.4952   25.7402 C   0  0  0  0  0  0  0  0  0  0  0  0
    8.1303  -12.6247   27.0889 C   0  0  0  0  0  0  0  0  0  0  0  0
    9.3906  -15.6722   23.5906 N   0  0  0  0  0  0  0  0  0  0  0  0
    9.6674  -16.9806   24.1274 C   0  0  1  0  0  0  0  0  0  0  0  0
   10.7808  -17.6441   23.3029 C   0  0  0  0  0  0  0  0  0  0  0  0
   11.5298  -16.4163   22.1994 S   0  0  0  0  0  0  0  0  0  0  0  0
   10.0456  -16.9332   25.5561 C   0  0  0  0  0  0  0  0  0  0  0  0
   10.2536  -18.1282   26.2254 O   0  0  0  0  0  0  0  0  0  0  0  0
   10.1803  -15.8471   26.1673 O   0  0  0  0  0  0  0  0  0  0  0  0
  1  2  1  0
  2  3  1  0
  3  5  1  0
  3  4  1  1
  5  6  1  6
  7  5  1  0
  7  8  2  0
  9 10  1  0
 10 20  2  0
 10 11  1  0
 11 12  2  0
 13 12  1  0
 13 14  1  0
 15 14  1  1
 15 16  1  0
 16  7  1  0
 17 15  1  0
 18 17  2  0
 19 13  2  0
 20 19  1  0
 21 17  1  0
 22 23  1  6
 22 21  1  0
 24 23  1  0
 25 22  1  0
 26 25  1  0
 27 25  2  0
M  END
$$$$
