IYC.pdb
     RDKit          3D

 27 27  0  0  1  0  0  0  0  0999 V2000
    7.1156  -11.4277   27.2760 C   0  0  0  0  0  0  0  0  0  0  0  0
    6.6527  -12.8292   26.9585 C   0  0  0  0  0  0  0  0  0  0  0  0
    6.9804  -13.1979   25.5203 C   0  0  2  0  0  0  0  0  0  0  0  0
    6.2378  -12.2589   24.6059 C   0  0  0  0  0  0  0  0  0  0  0  0
    6.5561  -14.6353   25.3312 C   0  0  2  0  0  0  0  0  0  0  0  0
    6.9632  -15.3768   26.5036 N   0  0  0  0  0  0  0  0  0  0  0  0
    7.1968  -15.2365   24.1387 C   0  0  0  0  0  0  0  0  0  0  0  0
    6.6358  -14.9967   23.0383 O   0  0  0  0  0  0  0  0  0  0  0  0
    7.0542  -13.6181   17.8986 O   0  0  0  0  0  0  0  0  0  0  0  0
    7.6637  -13.7793   19.1414 C   0  0  0  0  0  0  0  0  0  0  0  0
    8.0449  -15.0338   19.5281 C   0  0  0  0  0  0  0  0  0  0  0  0
    8.6513  -15.2374   20.7504 C   0  0  0  0  0  0  0  0  0  0  0  0
    8.8967  -14.2007   21.6236 C   0  0  0  0  0  0  0  0  0  0  0  0
    9.5442  -14.4911   22.9001 C   0  0  0  0  0  0  0  0  0  0  0  0
    9.4313  -15.8977   23.3538 C   0  0  2  0  0  0  0  0  0  0  0  0
    8.3620  -16.0173   24.3096 N   0  0  0  0  0  0  0  0  0  0  0  0
   10.6949  -16.4240   23.9792 C   0  0  0  0  0  0  0  0  0  0  0  0
   11.8437  -16.1406   23.5702 O   0  0  0  0  0  0  0  0  0  0  0  0
    8.5087  -12.9352   21.2263 C   0  0  0  0  0  0  0  0  0  0  0  0
    7.9010  -12.7298   20.0019 C   0  0  0  0  0  0  0  0  0  0  0  0
   10.6118  -17.3062   25.1146 N   0  0  0  0  0  0  0  0  0  0  0  0
   11.4356  -17.0538   26.2697 C   0  0  1  0  0  0  0  0  0  0  0  0
   11.1827  -15.6247   26.7730 C   0  0  0  0  0  0  0  0  0  0  0  0
   10.8767  -15.6579   28.5595 S   0  0  0  0  0  0  0  0  0  0  0  0
   11.1966  -18.0298   27.3544 C   0  0  0  0  0  0  0  0  0  0  0  0
   12.0506  -18.0290   28.4452 O   0  0  0  0  0  0  0  0  0  0  0  0
   10.2485  -18.8485   27.3082 O   0  0  0  0  0  0  0  0  0  0  0  0
  1  2  1  0
  2  3  1  0
  3  5  1  0
  3  4  1  6
  5  6  1  1
  7  5  1  0
  7  8  2  0
  9 10  1  0
 10 20  2  0
 10 11  1  0
 11 12  2  0
 13 12  1  0
 13 14  1  0
 15 14  1  1
 15 16  1  0
 16  7  1  0
 17 15  1  0
 18 17  2  0
 19 13  2  0
 20 19  1  0
 21 17  1  0
 22 23  1  1
 22 21  1  0
 24 23  1  0
 25 22  1  0
 26 25  1  0
 27 25  2  0
M  END
$$$$
