IYC.pdb
     RDKit          3D

 27 27  0  0  1  0  0  0  0  0999 V2000
    6.6090  -16.4194   17.6821 C   0  0  0  0  0  0  0  0  0  0  0  0
    6.6066  -15.1812   18.5459 C   0  0  0  0  0  0  0  0  0  0  0  0
    7.4697  -15.3783   19.7819 C   0  0  2  0  0  0  0  0  0  0  0  0
    6.9788  -16.5979   20.5174 C   0  0  0  0  0  0  0  0  0  0  0  0
    7.3404  -14.1209   20.6090 C   0  0  2  0  0  0  0  0  0  0  0  0
    7.7231  -13.0012   19.7784 N   0  0  0  0  0  0  0  0  0  0  0  0
    8.2255  -14.1602   21.7962 C   0  0  0  0  0  0  0  0  0  0  0  0
    9.4412  -13.9196   21.5789 O   0  0  0  0  0  0  0  0  0  0  0  0
   10.6014  -14.9756   30.2656 O   0  0  0  0  0  0  0  0  0  0  0  0
    9.9224  -14.7281   29.0741 C   0  0  0  0  0  0  0  0  0  0  0  0
    9.2342  -15.7520   28.4855 C   0  0  0  0  0  0  0  0  0  0  0  0
    8.5486  -15.5498   27.3055 C   0  0  0  0  0  0  0  0  0  0  0  0
    8.5270  -14.3245   26.6763 C   0  0  0  0  0  0  0  0  0  0  0  0
    7.7786  -14.1840   25.4300 C   0  0  0  0  0  0  0  0  0  0  0  0
    8.5278  -14.5513   24.2049 C   0  0  2  0  0  0  0  0  0  0  0  0
    7.6633  -14.4566   23.0581 N   0  0  0  0  0  0  0  0  0  0  0  0
    9.1069  -15.9394   24.2557 C   0  0  0  0  0  0  0  0  0  0  0  0
    8.4149  -16.9789   24.3437 O   0  0  0  0  0  0  0  0  0  0  0  0
    9.2250  -13.2940   27.2768 C   0  0  0  0  0  0  0  0  0  0  0  0
    9.9122  -13.4953   28.4590 C   0  0  0  0  0  0  0  0  0  0  0  0
   10.5353  -16.1157   24.2021 N   0  0  0  0  0  0  0  0  0  0  0  0
   11.0880  -17.4450   24.2662 C   0  0  1  0  0  0  0  0  0  0  0  0
   12.0375  -17.6595   23.0778 C   0  0  0  0  0  0  0  0  0  0  0  0
   11.0746  -17.7627   21.5453 S   0  0  0  0  0  0  0  0  0  0  0  0
   11.7945  -17.6990   25.5400 C   0  0  0  0  0  0  0  0  0  0  0  0
   12.4505  -18.9082   25.7030 O   0  0  0  0  0  0  0  0  0  0  0  0
   11.8121  -16.8529   26.4648 O   0  0  0  0  0  0  0  0  0  0  0  0
  1  2  1  0
  2  3  1  0
  3  5  1  0
  3  4  1  1
  5  6  1  6
  7  5  1  0
  7  8  2  0
  9 10  1  0
 10 20  2  0
 10 11  1  0
 11 12  2  0
 13 12  1  0
 13 14  1  0
 15 14  1  1
 15 16  1  0
 16  7  1  0
 17 15  1  0
 18 17  2  0
 19 13  2  0
 20 19  1  0
 21 17  1  0
 22 23  1  6
 22 21  1  0
 24 23  1  0
 25 22  1  0
 26 25  1  0
 27 25  2  0
M  END
$$$$
