IYC.pdb
     RDKit          3D

 27 27  0  0  1  0  0  0  0  0999 V2000
    7.3005  -16.0447   17.1267 C   0  0  0  0  0  0  0  0  0  0  0  0
    7.1102  -14.8810   18.0694 C   0  0  0  0  0  0  0  0  0  0  0  0
    7.9184  -15.0743   19.3426 C   0  0  2  0  0  0  0  0  0  0  0  0
    7.5117  -16.3809   19.9724 C   0  0  0  0  0  0  0  0  0  0  0  0
    7.6180  -13.8919   20.2334 C   0  0  2  0  0  0  0  0  0  0  0  0
    7.9327  -12.6887   19.4963 N   0  0  0  0  0  0  0  0  0  0  0  0
    8.4348  -13.9233   21.4688 C   0  0  0  0  0  0  0  0  0  0  0  0
    9.6465  -13.6141   21.3301 O   0  0  0  0  0  0  0  0  0  0  0  0
   10.4991  -15.0993   29.9796 O   0  0  0  0  0  0  0  0  0  0  0  0
    9.8283  -14.9433   28.7682 C   0  0  0  0  0  0  0  0  0  0  0  0
    9.6924  -13.6858   28.2499 C   0  0  0  0  0  0  0  0  0  0  0  0
    9.0354  -13.4872   27.0532 C   0  0  0  0  0  0  0  0  0  0  0  0
    8.4944  -14.5321   26.3369 C   0  0  0  0  0  0  0  0  0  0  0  0
    7.8139  -14.2465   25.0766 C   0  0  0  0  0  0  0  0  0  0  0  0
    8.6332  -14.4606   23.8600 C   0  0  2  0  0  0  0  0  0  0  0  0
    7.8180  -14.2878   22.6866 N   0  0  0  0  0  0  0  0  0  0  0  0
    9.2710  -15.8225   23.8047 C   0  0  0  0  0  0  0  0  0  0  0  0
    8.7050  -16.8372   23.3386 O   0  0  0  0  0  0  0  0  0  0  0  0
    8.6354  -15.8006   26.8667 C   0  0  0  0  0  0  0  0  0  0  0  0
    9.2935  -16.0010   28.0656 C   0  0  0  0  0  0  0  0  0  0  0  0
   10.6082  -16.0019   24.3088 N   0  0  0  0  0  0  0  0  0  0  0  0
   11.3303  -17.2072   23.9887 C   0  0  1  0  0  0  0  0  0  0  0  0
   11.4727  -17.3255   22.4637 C   0  0  0  0  0  0  0  0  0  0  0  0
   12.4637  -18.7890   22.0606 S   0  0  0  0  0  0  0  0  0  0  0  0
   12.6600  -17.2537   24.6335 C   0  0  0  0  0  0  0  0  0  0  0  0
   13.4380  -18.3875   24.4647 O   0  0  0  0  0  0  0  0  0  0  0  0
   13.0932  -16.2998   25.3218 O   0  0  0  0  0  0  0  0  0  0  0  0
  1  2  1  0
  2  3  1  0
  3  5  1  0
  3  4  1  1
  5  6  1  6
  7  5  1  0
  7  8  2  0
  9 10  1  0
 10 20  2  0
 10 11  1  0
 11 12  2  0
 13 12  1  0
 13 14  1  0
 15 14  1  1
 15 16  1  0
 16  7  1  0
 17 15  1  0
 18 17  2  0
 19 13  2  0
 20 19  1  0
 21 17  1  0
 22 23  1  6
 22 21  1  0
 24 23  1  0
 25 22  1  0
 26 25  1  0
 27 25  2  0
M  END
$$$$
