IYC.pdb
     RDKit          3D

 27 27  0  0  1  0  0  0  0  0999 V2000
    7.0810  -12.0980   19.2576 C   0  0  0  0  0  0  0  0  0  0  0  0
    7.9659  -13.1876   18.7017 C   0  0  0  0  0  0  0  0  0  0  0  0
    8.2535  -14.2455   19.7551 C   0  0  2  0  0  0  0  0  0  0  0  0
    8.9654  -13.5890   20.9090 C   0  0  0  0  0  0  0  0  0  0  0  0
    9.0995  -15.3051   19.0893 C   0  0  2  0  0  0  0  0  0  0  0  0
    8.3259  -15.8790   18.0112 N   0  0  0  0  0  0  0  0  0  0  0  0
    9.4671  -16.3806   20.0393 C   0  0  0  0  0  0  0  0  0  0  0  0
    8.5777  -17.2434   20.2578 O   0  0  0  0  0  0  0  0  0  0  0  0
   14.2960  -21.8494   24.8899 O   0  0  0  0  0  0  0  0  0  0  0  0
   13.8866  -20.7772   24.0995 C   0  0  0  0  0  0  0  0  0  0  0  0
   13.2841  -21.0376   22.9005 C   0  0  0  0  0  0  0  0  0  0  0  0
   12.8638  -20.0054   22.0875 C   0  0  0  0  0  0  0  0  0  0  0  0
   13.0298  -18.6847   22.4422 C   0  0  0  0  0  0  0  0  0  0  0  0
   12.5585  -17.6445   21.5317 C   0  0  0  0  0  0  0  0  0  0  0  0
   11.1000  -17.3845   21.5794 C   0  0  2  0  0  0  0  0  0  0  0  0
   10.7546  -16.3677   20.6211 N   0  0  0  0  0  0  0  0  0  0  0  0
   10.6178  -16.9483   22.9366 C   0  0  0  0  0  0  0  0  0  0  0  0
   10.7596  -15.7882   23.3853 O   0  0  0  0  0  0  0  0  0  0  0  0
   13.6397  -18.4287   23.6555 C   0  0  0  0  0  0  0  0  0  0  0  0
   14.0613  -19.4620   24.4711 C   0  0  0  0  0  0  0  0  0  0  0  0
    9.9512  -17.8959   23.7921 N   0  0  0  0  0  0  0  0  0  0  0  0
    9.5618  -17.4984   25.1214 C   0  0  1  0  0  0  0  0  0  0  0  0
    8.1772  -16.8351   25.0694 C   0  0  0  0  0  0  0  0  0  0  0  0
    6.9410  -18.0554   24.5507 S   0  0  0  0  0  0  0  0  0  0  0  0
    9.5512  -18.6349   26.0672 C   0  0  0  0  0  0  0  0  0  0  0  0
    9.3570  -18.3733   27.4138 O   0  0  0  0  0  0  0  0  0  0  0  0
    9.7123  -19.8164   25.6808 O   0  0  0  0  0  0  0  0  0  0  0  0
  1  2  1  0
  2  3  1  0
  3  5  1  0
  3  4  1  1
  5  6  1  6
  7  5  1  0
  7  8  2  0
  9 10  1  0
 10 20  2  0
 10 11  1  0
 11 12  2  0
 13 12  1  0
 13 14  1  0
 15 14  1  1
 15 16  1  0
 16  7  1  0
 17 15  1  0
 18 17  2  0
 19 13  2  0
 20 19  1  0
 21 17  1  0
 22 23  1  6
 22 21  1  0
 24 23  1  0
 25 22  1  0
 26 25  1  0
 27 25  2  0
M  END
$$$$
