IYC.pdb
     RDKit          3D

 27 27  0  0  1  0  0  0  0  0999 V2000
    7.6937  -15.5376   16.9661 C   0  0  0  0  0  0  0  0  0  0  0  0
    7.4295  -14.5829   18.1054 C   0  0  0  0  0  0  0  0  0  0  0  0
    8.0619  -15.0847   19.3937 C   0  0  2  0  0  0  0  0  0  0  0  0
    7.5181  -16.4582   19.6890 C   0  0  0  0  0  0  0  0  0  0  0  0
    7.7088  -14.0860   20.4706 C   0  0  2  0  0  0  0  0  0  0  0  0
    8.1650  -12.7846   20.0367 N   0  0  0  0  0  0  0  0  0  0  0  0
    8.3667  -14.4195   21.7552 C   0  0  0  0  0  0  0  0  0  0  0  0
    9.5866  -14.1224   21.8371 O   0  0  0  0  0  0  0  0  0  0  0  0
    6.0045  -10.0372   27.1742 O   0  0  0  0  0  0  0  0  0  0  0  0
    6.3462  -11.2895   26.6673 C   0  0  0  0  0  0  0  0  0  0  0  0
    5.3536  -12.2047   26.4538 C   0  0  0  0  0  0  0  0  0  0  0  0
    5.6486  -13.4559   25.9532 C   0  0  0  0  0  0  0  0  0  0  0  0
    6.9382  -13.8339   25.6502 C   0  0  0  0  0  0  0  0  0  0  0  0
    7.1752  -15.1748   25.1221 C   0  0  0  0  0  0  0  0  0  0  0  0
    8.2077  -15.2567   24.0617 C   0  0  2  0  0  0  0  0  0  0  0  0
    7.6038  -15.0316   22.7749 N   0  0  0  0  0  0  0  0  0  0  0  0
    8.9245  -16.5796   24.0305 C   0  0  0  0  0  0  0  0  0  0  0  0
    8.5054  -17.5832   23.4105 O   0  0  0  0  0  0  0  0  0  0  0  0
    7.9366  -12.9038   25.8686 C   0  0  0  0  0  0  0  0  0  0  0  0
    7.6424  -11.6498   26.3701 C   0  0  0  0  0  0  0  0  0  0  0  0
   10.1658  -16.7321   24.7446 N   0  0  0  0  0  0  0  0  0  0  0  0
   10.8591  -17.9946   24.6987 C   0  0  1  0  0  0  0  0  0  0  0  0
   11.7617  -18.0348   23.4563 C   0  0  0  0  0  0  0  0  0  0  0  0
   12.8886  -16.6151   23.4813 S   0  0  0  0  0  0  0  0  0  0  0  0
   11.6550  -18.2434   25.9197 C   0  0  0  0  0  0  0  0  0  0  0  0
   12.3418  -19.4415   26.0291 O   0  0  0  0  0  0  0  0  0  0  0  0
   11.7206  -17.4027   26.8472 O   0  0  0  0  0  0  0  0  0  0  0  0
  1  2  1  0
  2  3  1  0
  3  5  1  0
  3  4  1  1
  5  6  1  6
  7  5  1  0
  7  8  2  0
  9 10  1  0
 10 20  2  0
 10 11  1  0
 11 12  2  0
 13 12  1  0
 13 14  1  0
 15 14  1  1
 15 16  1  0
 16  7  1  0
 17 15  1  0
 18 17  2  0
 19 13  2  0
 20 19  1  0
 21 17  1  0
 22 23  1  6
 22 21  1  0
 24 23  1  0
 25 22  1  0
 26 25  1  0
 27 25  2  0
M  END
$$$$
