IYC.pdb
     RDKit          3D

 27 27  0  0  1  0  0  0  0  0999 V2000
    5.8618  -11.3308   27.3329 C   0  0  0  0  0  0  0  0  0  0  0  0
    5.5859  -12.4748   26.3872 C   0  0  0  0  0  0  0  0  0  0  0  0
    6.8558  -13.2582   26.0956 C   0  0  2  0  0  0  0  0  0  0  0  0
    7.9087  -12.2968   25.6094 C   0  0  0  0  0  0  0  0  0  0  0  0
    6.5005  -14.2924   25.0535 C   0  0  2  0  0  0  0  0  0  0  0  0
    5.4584  -15.1331   25.5988 N   0  0  0  0  0  0  0  0  0  0  0  0
    7.6670  -15.1385   24.7104 C   0  0  0  0  0  0  0  0  0  0  0  0
    7.6928  -16.2763   25.2470 O   0  0  0  0  0  0  0  0  0  0  0  0
    6.5289  -14.4907   17.9618 O   0  0  0  0  0  0  0  0  0  0  0  0
    7.4622  -14.5580   18.9945 C   0  0  0  0  0  0  0  0  0  0  0  0
    7.8411  -15.7867   19.4583 C   0  0  0  0  0  0  0  0  0  0  0  0
    8.7622  -15.8979   20.4793 C   0  0  0  0  0  0  0  0  0  0  0  0
    9.3335  -14.7917   21.0688 C   0  0  0  0  0  0  0  0  0  0  0  0
   10.3029  -14.9860   22.1438 C   0  0  0  0  0  0  0  0  0  0  0  0
    9.7323  -15.4786   23.4201 C   0  0  2  0  0  0  0  0  0  0  0  0
    8.6460  -14.6277   23.8289 N   0  0  0  0  0  0  0  0  0  0  0  0
   10.7392  -15.5412   24.5367 C   0  0  0  0  0  0  0  0  0  0  0  0
   11.6982  -14.7450   24.6539 O   0  0  0  0  0  0  0  0  0  0  0  0
    8.9459  -13.5527   20.5950 C   0  0  0  0  0  0  0  0  0  0  0  0
    8.0231  -13.4399   19.5722 C   0  0  0  0  0  0  0  0  0  0  0  0
   10.6205  -16.5637   25.5440 N   0  0  0  0  0  0  0  0  0  0  0  0
   11.1250  -16.3134   26.8705 C   0  0  1  0  0  0  0  0  0  0  0  0
   10.4727  -15.0408   27.4314 C   0  0  0  0  0  0  0  0  0  0  0  0
   11.0841  -14.7378   29.1110 S   0  0  0  0  0  0  0  0  0  0  0  0
   10.8948  -17.4534   27.7835 C   0  0  0  0  0  0  0  0  0  0  0  0
    9.7947  -18.2661   27.5630 O   0  0  0  0  0  0  0  0  0  0  0  0
   11.6652  -17.6972   28.7419 O   0  0  0  0  0  0  0  0  0  0  0  0
  1  2  1  0
  2  3  1  0
  3  5  1  0
  3  4  1  6
  5  6  1  1
  7  5  1  0
  7  8  2  0
  9 10  1  0
 10 20  2  0
 10 11  1  0
 11 12  2  0
 13 12  1  0
 13 14  1  0
 15 14  1  6
 15 16  1  0
 16  7  1  0
 17 15  1  0
 18 17  2  0
 19 13  2  0
 20 19  1  0
 21 17  1  0
 22 23  1  1
 22 21  1  0
 24 23  1  0
 25 22  1  0
 26 25  1  0
 27 25  2  0
M  END
$$$$
