VRI.pdb
     RDKit          3D

 27 26  0  0  1  0  0  0  0  0999 V2000
   12.7151  -18.6579   18.1904 C   0  0  0  0  0  0  0  0  0  0  0  0
   12.4023  -17.5013   19.0846 C   0  0  1  0  0  0  0  0  0  0  0  0
   11.4592  -16.5661   18.3625 C   0  0  0  0  0  0  0  0  0  0  0  0
   11.7370  -17.9674   20.3629 C   0  0  2  0  0  0  0  0  0  0  0  0
   10.5533  -18.7281   19.9077 N   0  0  0  0  0  0  0  0  0  0  0  0
   11.2637  -16.8651   21.2147 C   0  0  0  0  0  0  0  0  0  0  0  0
   12.1548  -16.0654   21.6785 O   0  0  0  0  0  0  0  0  0  0  0  0
    8.6680  -15.1106   18.3739 N   0  0  0  0  0  0  0  0  0  0  0  0
    8.0769  -13.8062   18.3510 C   0  0  0  0  0  0  0  0  0  0  0  0
    7.8654  -13.1831   17.2448 N   0  0  0  0  0  0  0  0  0  0  0  0
    7.6945  -13.1357   19.5434 N   0  0  0  0  0  0  0  0  0  0  0  0
    8.1606  -13.6415   20.8173 C   0  0  0  0  0  0  0  0  0  0  0  0
    7.3929  -14.8662   21.2549 C   0  0  0  0  0  0  0  0  0  0  0  0
    7.9603  -15.4648   22.4932 C   0  0  0  0  0  0  0  0  0  0  0  0
    9.4896  -15.5913   22.4716 C   0  0  2  0  0  0  0  0  0  0  0  0
    9.9038  -16.6268   21.5541 N   0  0  0  0  0  0  0  0  0  0  0  0
    9.8133  -15.9664   23.8886 C   0  0  0  0  0  0  0  0  0  0  0  0
   10.0092  -17.1814   24.1280 O   0  0  0  0  0  0  0  0  0  0  0  0
    7.4719  -12.2230   17.2925 C   0  0  0  0  0  0  0  0  0  0  0  0
   10.4576  -13.2014   29.4248 C   0  0  0  0  0  0  0  0  0  0  0  0
   10.4716  -14.5373   28.6693 C   0  0  2  0  0  0  0  0  0  0  0  0
   10.1747  -14.2142   27.2435 C   0  0  0  0  0  0  0  0  0  0  0  0
    8.9391  -13.3781   27.1012 C   0  0  2  0  0  0  0  0  0  0  0  0
   10.1486  -15.4173   26.3297 N   0  0  0  0  0  0  0  0  0  0  0  0
    9.9094  -15.0569   24.9483 C   0  0  0  0  0  0  0  0  0  0  0  0
    9.1010  -16.3669   26.7431 O   0  0  0  0  0  0  0  0  0  0  0  0
    9.3724  -17.3660   27.6551 O   0  0  0  0  0  0  0  0  0  0  0  0
  2  3  1  6
  2  1  1  0
  4  2  1  0
  4  5  1  6
  6  7  2  0
  6  4  1  0
  9  8  1  0
 10  9  2  0
 11  9  1  0
 12 11  1  0
 13 12  1  0
 13 14  1  0
 15 14  1  1
 15 16  1  0
 16  6  1  0
 17 15  1  0
 18 17  2  0
 19 20  1  0
 20 21  1  0
 21 23  1  0
 21 22  1  6
 23 24  1  1
 24 17  1  0
 25 23  1  0
 25 26  1  0
 27 25  2  0
M  END
$$$$
