VRI.pdb
     RDKit          3D

 27 26  0  0  1  0  0  0  0  0999 V2000
    7.3653  -18.4401   26.6737 C   0  0  0  0  0  0  0  0  0  0  0  0
    7.5734  -19.6726   25.8531 C   0  0  1  0  0  0  0  0  0  0  0  0
    6.8802  -20.8332   26.5298 C   0  0  0  0  0  0  0  0  0  0  0  0
    6.9926  -19.5051   24.4644 C   0  0  2  0  0  0  0  0  0  0  0  0
    7.2120  -20.8138   23.8115 N   0  0  0  0  0  0  0  0  0  0  0  0
    7.6773  -18.4804   23.6608 C   0  0  0  0  0  0  0  0  0  0  0  0
    8.8705  -18.7497   23.2703 O   0  0  0  0  0  0  0  0  0  0  0  0
    7.1811  -14.6143   17.7570 N   0  0  0  0  0  0  0  0  0  0  0  0
    7.9473  -13.4422   18.0578 C   0  0  0  0  0  0  0  0  0  0  0  0
    8.8110  -12.9719   17.2274 N   0  0  0  0  0  0  0  0  0  0  0  0
    7.7939  -12.7406   19.2833 N   0  0  0  0  0  0  0  0  0  0  0  0
    6.9428  -13.2981   20.3132 C   0  0  0  0  0  0  0  0  0  0  0  0
    7.7377  -14.0240   21.3724 C   0  0  0  0  0  0  0  0  0  0  0  0
    7.0247  -15.2298   21.8738 C   0  0  0  0  0  0  0  0  0  0  0  0
    7.8962  -16.1422   22.7474 C   0  0  2  0  0  0  0  0  0  0  0  0
    7.1147  -17.2284   23.2904 N   0  0  0  0  0  0  0  0  0  0  0  0
    8.3616  -15.2177   23.8346 C   0  0  0  0  0  0  0  0  0  0  0  0
    8.4549  -14.0004   23.5491 O   0  0  0  0  0  0  0  0  0  0  0  0
    9.2669  -12.0673   17.4567 C   0  0  0  0  0  0  0  0  0  0  0  0
    6.4040  -12.0421   26.0177 C   0  0  0  0  0  0  0  0  0  0  0  0
    7.5709  -12.8725   25.4661 C   0  0  2  0  0  0  0  0  0  0  0  0
    8.0211  -13.7538   26.5823 C   0  0  0  0  0  0  0  0  0  0  0  0
    8.3851  -12.9701   27.8068 C   0  0  2  0  0  0  0  0  0  0  0  0
    9.1058  -14.7330   26.1977 N   0  0  0  0  0  0  0  0  0  0  0  0
    8.6947  -15.6227   25.1325 C   0  0  0  0  0  0  0  0  0  0  0  0
    9.5034  -15.5554   27.3535 O   0  0  0  0  0  0  0  0  0  0  0  0
   10.3387  -15.0489   28.3277 O   0  0  0  0  0  0  0  0  0  0  0  0
  2  3  1  1
  2  1  1  0
  4  2  1  0
  4  5  1  6
  6  7  2  0
  6  4  1  0
  9  8  1  0
 10  9  2  0
 11  9  1  0
 12 11  1  0
 13 12  1  0
 13 14  1  0
 15 14  1  6
 15 16  1  0
 16  6  1  0
 17 15  1  0
 18 17  2  0
 19 20  1  0
 20 21  1  0
 21 23  1  0
 21 22  1  1
 23 24  1  6
 24 17  1  0
 25 23  1  0
 25 26  1  0
 27 25  2  0
M  END
$$$$
