VRI.pdb
     RDKit          3D

 27 26  0  0  1  0  0  0  0  0999 V2000
    8.4859  -12.8071   17.7905 C   0  0  0  0  0  0  0  0  0  0  0  0
    7.7959  -13.1332   19.0762 C   0  0  1  0  0  0  0  0  0  0  0  0
    6.5721  -13.9684   18.7760 C   0  0  0  0  0  0  0  0  0  0  0  0
    8.7055  -13.9207   19.9963 C   0  0  2  0  0  0  0  0  0  0  0  0
    9.1286  -15.0857   19.1896 N   0  0  0  0  0  0  0  0  0  0  0  0
    8.0275  -14.4282   21.1994 C   0  0  0  0  0  0  0  0  0  0  0  0
    7.5274  -13.5546   21.9966 O   0  0  0  0  0  0  0  0  0  0  0  0
    4.5693  -20.4802   20.1881 N   0  0  0  0  0  0  0  0  0  0  0  0
    3.8778  -20.4043   21.4401 C   0  0  0  0  0  0  0  0  0  0  0  0
    2.5958  -20.3026   21.4952 N   0  0  0  0  0  0  0  0  0  0  0  0
    4.5683  -20.4378   22.6810 N   0  0  0  0  0  0  0  0  0  0  0  0
    5.9011  -19.8783   22.7616 C   0  0  0  0  0  0  0  0  0  0  0  0
    5.8775  -18.3704   22.8433 C   0  0  0  0  0  0  0  0  0  0  0  0
    7.2476  -17.7909   22.8176 C   0  0  0  0  0  0  0  0  0  0  0  0
    7.2669  -16.2575   22.7564 C   0  0  2  0  0  0  0  0  0  0  0  0
    7.8885  -15.8027   21.5348 N   0  0  0  0  0  0  0  0  0  0  0  0
    8.0947  -15.8864   23.9523 C   0  0  0  0  0  0  0  0  0  0  0  0
    9.3235  -16.1285   23.8947 O   0  0  0  0  0  0  0  0  0  0  0  0
    2.1526  -20.2138   22.4303 C   0  0  0  0  0  0  0  0  0  0  0  0
    6.2074  -11.7563   27.0067 C   0  0  0  0  0  0  0  0  0  0  0  0
    7.0636  -12.6330   26.0825 C   0  0  2  0  0  0  0  0  0  0  0  0
    7.6975  -13.6644   26.9541 C   0  0  0  0  0  0  0  0  0  0  0  0
    8.5859  -13.0534   27.9949 C   0  0  2  0  0  0  0  0  0  0  0  0
    8.3958  -14.7695   26.1962 N   0  0  0  0  0  0  0  0  0  0  0  0
    7.5885  -15.2938   25.1152 C   0  0  0  0  0  0  0  0  0  0  0  0
    8.7387  -15.8856   27.0946 O   0  0  0  0  0  0  0  0  0  0  0  0
    9.9515  -15.9171   27.7517 O   0  0  0  0  0  0  0  0  0  0  0  0
  2  3  1  6
  2  1  1  0
  4  2  1  0
  4  5  1  6
  6  7  2  0
  6  4  1  0
  9  8  1  0
 10  9  2  0
 11  9  1  0
 12 11  1  0
 13 12  1  0
 13 14  1  0
 15 14  1  6
 15 16  1  0
 16  6  1  0
 17 15  1  0
 18 17  2  0
 19 20  1  0
 20 21  1  0
 21 23  1  0
 21 22  1  1
 23 24  1  6
 24 17  1  0
 25 23  1  0
 25 26  1  0
 27 25  2  0
M  END
$$$$
