VRI.pdb
     RDKit          3D

 27 26  0  0  1  0  0  0  0  0999 V2000
    8.1275  -12.7303   20.2382 C   0  0  0  0  0  0  0  0  0  0  0  0
    7.5960  -13.5473   19.1044 C   0  0  1  0  0  0  0  0  0  0  0  0
    8.2228  -13.0629   17.8168 C   0  0  0  0  0  0  0  0  0  0  0  0
    7.9337  -15.0126   19.2856 C   0  0  2  0  0  0  0  0  0  0  0  0
    7.1883  -15.6998   18.2089 N   0  0  0  0  0  0  0  0  0  0  0  0
    7.4799  -15.5655   20.5713 C   0  0  0  0  0  0  0  0  0  0  0  0
    6.2143  -15.5683   20.7882 O   0  0  0  0  0  0  0  0  0  0  0  0
    8.4804  -21.0929   26.2485 N   0  0  0  0  0  0  0  0  0  0  0  0
    7.3776  -20.3571   26.7905 C   0  0  0  0  0  0  0  0  0  0  0  0
    7.1825  -20.2756   28.0602 N   0  0  0  0  0  0  0  0  0  0  0  0
    6.4459  -19.6813   25.9579 N   0  0  0  0  0  0  0  0  0  0  0  0
    6.8278  -19.3414   24.6035 C   0  0  0  0  0  0  0  0  0  0  0  0
    7.9960  -18.3851   24.5682 C   0  0  0  0  0  0  0  0  0  0  0  0
    8.3115  -17.9437   23.1828 C   0  0  0  0  0  0  0  0  0  0  0  0
    7.8634  -16.5082   22.8765 C   0  0  2  0  0  0  0  0  0  0  0  0
    8.3360  -16.0917   21.5770 N   0  0  0  0  0  0  0  0  0  0  0  0
    8.5195  -15.7138   23.9681 C   0  0  0  0  0  0  0  0  0  0  0  0
    9.7620  -15.5620   23.8972 O   0  0  0  0  0  0  0  0  0  0  0  0
    6.4052  -19.6749   28.3974 C   0  0  0  0  0  0  0  0  0  0  0  0
    5.5958  -11.7962   26.4434 C   0  0  0  0  0  0  0  0  0  0  0  0
    6.7066  -12.5123   25.6630 C   0  0  2  0  0  0  0  0  0  0  0  0
    7.4649  -13.3201   26.6618 C   0  0  0  0  0  0  0  0  0  0  0  0
    8.1039  -12.4623   27.7115 C   0  0  2  0  0  0  0  0  0  0  0  0
    8.4494  -14.2909   26.0522 N   0  0  0  0  0  0  0  0  0  0  0  0
    7.8408  -15.1380   25.0486 C   0  0  0  0  0  0  0  0  0  0  0  0
    9.0395  -15.1580   27.0867 O   0  0  0  0  0  0  0  0  0  0  0  0
   10.2302  -14.8211   27.6967 O   0  0  0  0  0  0  0  0  0  0  0  0
  2  3  1  6
  2  1  1  0
  4  2  1  0
  4  5  1  6
  6  7  2  0
  6  4  1  0
  9  8  1  0
 10  9  2  0
 11  9  1  0
 12 11  1  0
 13 12  1  0
 13 14  1  0
 15 14  1  1
 15 16  1  0
 16  6  1  0
 17 15  1  0
 18 17  2  0
 19 20  1  0
 20 21  1  0
 21 23  1  0
 21 22  1  1
 23 24  1  6
 24 17  1  0
 25 23  1  0
 25 26  1  0
 27 25  2  0
M  END
$$$$
