VRI.pdb
     RDKit          3D

 27 26  0  0  1  0  0  0  0  0999 V2000
    8.0459  -12.7398   20.5119 C   0  0  0  0  0  0  0  0  0  0  0  0
    7.5840  -13.5617   19.3515 C   0  0  1  0  0  0  0  0  0  0  0  0
    8.1629  -12.9824   18.0808 C   0  0  0  0  0  0  0  0  0  0  0  0
    8.0477  -14.9975   19.4839 C   0  0  2  0  0  0  0  0  0  0  0  0
    7.3737  -15.7074   18.3754 N   0  0  0  0  0  0  0  0  0  0  0  0
    7.6346  -15.6346   20.7441 C   0  0  0  0  0  0  0  0  0  0  0  0
    6.3726  -15.7270   20.9619 O   0  0  0  0  0  0  0  0  0  0  0  0
    5.9348  -20.4762   25.7625 N   0  0  0  0  0  0  0  0  0  0  0  0
    7.0393  -20.2473   26.6451 C   0  0  0  0  0  0  0  0  0  0  0  0
    6.8597  -19.8863   27.8675 N   0  0  0  0  0  0  0  0  0  0  0  0
    8.3848  -20.4067   26.2188 N   0  0  0  0  0  0  0  0  0  0  0  0
    8.7776  -19.9019   24.9201 C   0  0  0  0  0  0  0  0  0  0  0  0
    8.3138  -18.4814   24.7014 C   0  0  0  0  0  0  0  0  0  0  0  0
    8.6709  -17.9825   23.3460 C   0  0  0  0  0  0  0  0  0  0  0  0
    8.0926  -16.5971   23.0273 C   0  0  2  0  0  0  0  0  0  0  0  0
    8.5261  -16.1498   21.7244 N   0  0  0  0  0  0  0  0  0  0  0  0
    8.6718  -15.7364   24.1123 C   0  0  0  0  0  0  0  0  0  0  0  0
    9.9152  -15.5756   24.1123 O   0  0  0  0  0  0  0  0  0  0  0  0
    7.6990  -19.6967   28.4491 C   0  0  0  0  0  0  0  0  0  0  0  0
    5.8432  -11.4610   25.9548 C   0  0  0  0  0  0  0  0  0  0  0  0
    6.9419  -12.3629   25.3759 C   0  0  2  0  0  0  0  0  0  0  0  0
    7.4927  -13.1400   26.5239 C   0  0  0  0  0  0  0  0  0  0  0  0
    8.0587  -12.2487   27.5875 C   0  0  2  0  0  0  0  0  0  0  0  0
    8.4635  -14.2272   26.1253 N   0  0  0  0  0  0  0  0  0  0  0  0
    7.9210  -15.1085   25.1132 C   0  0  0  0  0  0  0  0  0  0  0  0
    8.8412  -15.0457   27.2905 O   0  0  0  0  0  0  0  0  0  0  0  0
    9.9303  -14.7090   28.0677 O   0  0  0  0  0  0  0  0  0  0  0  0
  2  3  1  6
  2  1  1  0
  4  2  1  0
  4  5  1  6
  6  7  2  0
  6  4  1  0
  9  8  1  0
 10  9  2  0
 11  9  1  0
 12 11  1  0
 13 12  1  0
 13 14  1  0
 15 14  1  1
 15 16  1  0
 16  6  1  0
 17 15  1  0
 18 17  2  0
 19 20  1  0
 20 21  1  0
 21 23  1  0
 21 22  1  1
 23 24  1  6
 24 17  1  0
 25 23  1  0
 25 26  1  0
 27 25  2  0
M  END
$$$$
