VRI.pdb
     RDKit          3D

 27 26  0  0  1  0  0  0  0  0999 V2000
    8.2976  -12.6552   17.6296 C   0  0  0  0  0  0  0  0  0  0  0  0
    7.6975  -13.1873   18.8914 C   0  0  1  0  0  0  0  0  0  0  0  0
    6.7235  -14.2896   18.5427 C   0  0  0  0  0  0  0  0  0  0  0  0
    8.7652  -13.7554   19.8032 C   0  0  2  0  0  0  0  0  0  0  0  0
    9.4740  -14.7492   18.9682 N   0  0  0  0  0  0  0  0  0  0  0  0
    8.2228  -14.4579   20.9766 C   0  0  0  0  0  0  0  0  0  0  0  0
    7.5924  -13.7462   21.8397 O   0  0  0  0  0  0  0  0  0  0  0  0
   11.2654  -18.8071   19.7517 N   0  0  0  0  0  0  0  0  0  0  0  0
   11.9271  -19.5659   20.7705 C   0  0  0  0  0  0  0  0  0  0  0  0
   13.1930  -19.7939   20.7238 N   0  0  0  0  0  0  0  0  0  0  0  0
   11.2232  -20.1035   21.8809 N   0  0  0  0  0  0  0  0  0  0  0  0
    9.8171  -19.7978   22.0396 C   0  0  0  0  0  0  0  0  0  0  0  0
    9.5718  -18.3131   22.1670 C   0  0  0  0  0  0  0  0  0  0  0  0
    8.1316  -18.0034   22.3753 C   0  0  0  0  0  0  0  0  0  0  0  0
    7.8214  -16.5005   22.3965 C   0  0  2  0  0  0  0  0  0  0  0  0
    8.3461  -15.8537   21.2167 N   0  0  0  0  0  0  0  0  0  0  0  0
    8.5347  -16.0301   23.6307 C   0  0  0  0  0  0  0  0  0  0  0  0
    9.7816  -15.9189   23.5632 O   0  0  0  0  0  0  0  0  0  0  0  0
   13.6114  -20.3812   21.4713 C   0  0  0  0  0  0  0  0  0  0  0  0
    7.5157  -11.3038   26.8785 C   0  0  0  0  0  0  0  0  0  0  0  0
    8.2982  -12.6177   27.0084 C   0  0  2  0  0  0  0  0  0  0  0  0
    7.7160  -13.5522   26.0019 C   0  0  0  0  0  0  0  0  0  0  0  0
    6.2490  -13.7693   26.2175 C   0  0  2  0  0  0  0  0  0  0  0  0
    8.4642  -14.8579   25.8654 N   0  0  0  0  0  0  0  0  0  0  0  0
    7.9040  -15.7111   24.8391 C   0  0  0  0  0  0  0  0  0  0  0  0
    8.4542  -15.6031   27.1362 O   0  0  0  0  0  0  0  0  0  0  0  0
    9.2217  -15.1884   28.2050 O   0  0  0  0  0  0  0  0  0  0  0  0
  2  3  1  6
  2  1  1  0
  4  2  1  0
  4  5  1  6
  6  7  2  0
  6  4  1  0
  9  8  1  0
 10  9  2  0
 11  9  1  0
 12 11  1  0
 13 12  1  0
 13 14  1  0
 15 14  1  6
 15 16  1  0
 16  6  1  0
 17 15  1  0
 18 17  2  0
 19 20  1  0
 20 21  1  0
 21 23  1  0
 21 22  1  6
 23 24  1  1
 24 17  1  0
 25 23  1  0
 25 26  1  0
 27 25  2  0
M  END
$$$$
