VRI.pdb
     RDKit          3D

 27 26  0  0  1  0  0  0  0  0999 V2000
    8.5812  -12.6630   18.1150 C   0  0  0  0  0  0  0  0  0  0  0  0
    8.4370  -13.2689   19.4742 C   0  0  1  0  0  0  0  0  0  0  0  0
    7.0738  -12.9162   20.0245 C   0  0  0  0  0  0  0  0  0  0  0  0
    8.5585  -14.7773   19.4123 C   0  0  2  0  0  0  0  0  0  0  0  0
    7.6077  -15.1817   18.3542 N   0  0  0  0  0  0  0  0  0  0  0  0
    8.1591  -15.4506   20.6580 C   0  0  0  0  0  0  0  0  0  0  0  0
    6.9143  -15.7362   20.7907 O   0  0  0  0  0  0  0  0  0  0  0  0
   11.8608  -22.1659   22.0184 N   0  0  0  0  0  0  0  0  0  0  0  0
   12.1597  -21.2306   23.0612 C   0  0  0  0  0  0  0  0  0  0  0  0
   13.0138  -21.5035   23.9847 N   0  0  0  0  0  0  0  0  0  0  0  0
   11.5317  -19.9584   23.1295 N   0  0  0  0  0  0  0  0  0  0  0  0
   10.5181  -19.6190   22.1532 C   0  0  0  0  0  0  0  0  0  0  0  0
   10.2176  -18.1390   22.1409 C   0  0  0  0  0  0  0  0  0  0  0  0
    9.2073  -17.7684   23.1683 C   0  0  0  0  0  0  0  0  0  0  0  0
    8.6002  -16.3742   22.9606 C   0  0  2  0  0  0  0  0  0  0  0  0
    9.0465  -15.8036   21.7112 N   0  0  0  0  0  0  0  0  0  0  0  0
    9.1370  -15.5992   24.1287 C   0  0  0  0  0  0  0  0  0  0  0  0
   10.3001  -15.1424   24.0261 O   0  0  0  0  0  0  0  0  0  0  0  0
   13.2246  -20.7685   24.6876 C   0  0  0  0  0  0  0  0  0  0  0  0
    5.9937  -11.9756   26.3728 C   0  0  0  0  0  0  0  0  0  0  0  0
    7.1936  -12.7044   25.7525 C   0  0  2  0  0  0  0  0  0  0  0  0
    7.7820  -13.5404   26.8389 C   0  0  0  0  0  0  0  0  0  0  0  0
    8.2173  -12.7149   28.0115 C   0  0  2  0  0  0  0  0  0  0  0  0
    8.8720  -14.4785   26.3753 N   0  0  0  0  0  0  0  0  0  0  0  0
    8.4303  -15.3564   25.3125 C   0  0  0  0  0  0  0  0  0  0  0  0
    9.3532  -15.3141   27.4891 O   0  0  0  0  0  0  0  0  0  0  0  0
    9.0180  -16.6501   27.5667 O   0  0  0  0  0  0  0  0  0  0  0  0
  2  3  1  6
  2  1  1  0
  4  2  1  0
  4  5  1  6
  6  7  2  0
  6  4  1  0
  9  8  1  0
 10  9  2  0
 11  9  1  0
 12 11  1  0
 13 12  1  0
 13 14  1  0
 15 14  1  1
 15 16  1  0
 16  6  1  0
 17 15  1  0
 18 17  2  0
 19 20  1  0
 20 21  1  0
 21 23  1  0
 21 22  1  1
 23 24  1  6
 24 17  1  0
 25 23  1  0
 25 26  1  0
 27 25  2  0
M  END
$$$$
