VRI.pdb
     RDKit          3D

 27 26  0  0  1  0  0  0  0  0999 V2000
    8.6569  -12.5294   17.9562 C   0  0  0  0  0  0  0  0  0  0  0  0
    8.5456  -13.0984   19.3343 C   0  0  1  0  0  0  0  0  0  0  0  0
    7.2072  -12.7071   19.9182 C   0  0  0  0  0  0  0  0  0  0  0  0
    8.6385  -14.6099   19.3071 C   0  0  2  0  0  0  0  0  0  0  0  0
    7.6021  -15.0267   18.3380 N   0  0  0  0  0  0  0  0  0  0  0  0
    8.3269  -15.2411   20.5991 C   0  0  0  0  0  0  0  0  0  0  0  0
    7.0918  -15.2692   20.9491 O   0  0  0  0  0  0  0  0  0  0  0  0
    8.1590  -21.1464   21.5921 N   0  0  0  0  0  0  0  0  0  0  0  0
    9.3702  -21.2836   20.8401 C   0  0  0  0  0  0  0  0  0  0  0  0
    9.3729  -21.7881   19.6559 N   0  0  0  0  0  0  0  0  0  0  0  0
   10.6260  -20.8711   21.3600 N   0  0  0  0  0  0  0  0  0  0  0  0
   10.6643  -19.8418   22.3772 C   0  0  0  0  0  0  0  0  0  0  0  0
    9.7780  -18.6695   22.0295 C   0  0  0  0  0  0  0  0  0  0  0  0
    9.8391  -17.6007   23.0627 C   0  0  0  0  0  0  0  0  0  0  0  0
    8.9439  -16.3930   22.7536 C   0  0  2  0  0  0  0  0  0  0  0  0
    9.2878  -15.8162   21.4751 N   0  0  0  0  0  0  0  0  0  0  0  0
    9.2619  -15.4465   23.8744 C   0  0  0  0  0  0  0  0  0  0  0  0
   10.3314  -14.7978   23.7891 O   0  0  0  0  0  0  0  0  0  0  0  0
   10.2849  -21.8852   19.1685 C   0  0  0  0  0  0  0  0  0  0  0  0
    5.6996  -12.5540   27.3586 C   0  0  0  0  0  0  0  0  0  0  0  0
    6.3904  -13.7411   26.6737 C   0  0  2  0  0  0  0  0  0  0  0  0
    7.7416  -13.2592   26.2648 C   0  0  0  0  0  0  0  0  0  0  0  0
    7.6809  -12.3652   25.0636 C   0  0  1  0  0  0  0  0  0  0  0  0
    8.7652  -14.3582   26.0974 N   0  0  0  0  0  0  0  0  0  0  0  0
    8.4501  -15.2438   24.9967 C   0  0  0  0  0  0  0  0  0  0  0  0
    8.8683  -15.1695   27.3228 O   0  0  0  0  0  0  0  0  0  0  0  0
    9.4657  -14.6622   28.4582 O   0  0  0  0  0  0  0  0  0  0  0  0
  2  3  1  6
  2  1  1  0
  4  2  1  0
  4  5  1  6
  6  7  2  0
  6  4  1  0
  9  8  1  0
 10  9  2  0
 11  9  1  0
 12 11  1  0
 13 12  1  0
 13 14  1  0
 15 14  1  1
 15 16  1  0
 16  6  1  0
 17 15  1  0
 18 17  2  0
 19 20  1  0
 20 21  1  0
 21 23  1  0
 21 22  1  1
 23 24  1  6
 24 17  1  0
 25 23  1  0
 25 26  1  0
 27 25  2  0
M  END
$$$$
