VRI.pdb
     RDKit          3D

 27 26  0  0  1  0  0  0  0  0999 V2000
    8.4604  -12.6594   17.7918 C   0  0  0  0  0  0  0  0  0  0  0  0
    8.4093  -13.2483   19.1652 C   0  0  1  0  0  0  0  0  0  0  0  0
    7.1272  -12.8120   19.8368 C   0  0  0  0  0  0  0  0  0  0  0  0
    8.4354  -14.7615   19.1086 C   0  0  2  0  0  0  0  0  0  0  0  0
    7.5068  -15.1066   18.0106 N   0  0  0  0  0  0  0  0  0  0  0  0
    7.9401  -15.4040   20.3360 C   0  0  0  0  0  0  0  0  0  0  0  0
    6.6663  -15.4723   20.4826 O   0  0  0  0  0  0  0  0  0  0  0  0
   12.6322  -18.0125   22.9076 N   0  0  0  0  0  0  0  0  0  0  0  0
   12.7428  -19.1190   22.0050 C   0  0  0  0  0  0  0  0  0  0  0  0
   13.8441  -19.3790   21.3916 N   0  0  0  0  0  0  0  0  0  0  0  0
   11.6471  -19.9837   21.7416 N   0  0  0  0  0  0  0  0  0  0  0  0
   10.3545  -19.6797   22.3182 C   0  0  0  0  0  0  0  0  0  0  0  0
   10.0176  -18.2116   22.2094 C   0  0  0  0  0  0  0  0  0  0  0  0
    8.7149  -17.8910   22.8528 C   0  0  0  0  0  0  0  0  0  0  0  0
    8.2447  -16.4508   22.6078 C   0  0  2  0  0  0  0  0  0  0  0  0
    8.7651  -15.9490   21.3576 N   0  0  0  0  0  0  0  0  0  0  0  0
    8.8301  -15.7061   23.7723 C   0  0  0  0  0  0  0  0  0  0  0  0
    9.9867  -15.2430   23.6319 O   0  0  0  0  0  0  0  0  0  0  0  0
   13.8614  -20.1882   20.7407 C   0  0  0  0  0  0  0  0  0  0  0  0
    6.0204  -12.0346   26.2988 C   0  0  0  0  0  0  0  0  0  0  0  0
    7.1601  -12.8017   25.6146 C   0  0  2  0  0  0  0  0  0  0  0  0
    7.7120  -13.7331   26.6409 C   0  0  0  0  0  0  0  0  0  0  0  0
    8.2483  -13.0022   27.8343 C   0  0  2  0  0  0  0  0  0  0  0  0
    8.7080  -14.7312   26.0978 N   0  0  0  0  0  0  0  0  0  0  0  0
    8.1749  -15.4979   24.9918 C   0  0  0  0  0  0  0  0  0  0  0  0
    9.1302  -15.6747   27.1475 O   0  0  0  0  0  0  0  0  0  0  0  0
   10.1820  -15.3729   27.9878 O   0  0  0  0  0  0  0  0  0  0  0  0
  2  3  1  6
  2  1  1  0
  4  2  1  0
  4  5  1  6
  6  7  2  0
  6  4  1  0
  9  8  1  0
 10  9  2  0
 11  9  1  0
 12 11  1  0
 13 12  1  0
 13 14  1  0
 15 14  1  1
 15 16  1  0
 16  6  1  0
 17 15  1  0
 18 17  2  0
 19 20  1  0
 20 21  1  0
 21 23  1  0
 21 22  1  1
 23 24  1  6
 24 17  1  0
 25 23  1  0
 25 26  1  0
 27 25  2  0
M  END
$$$$
