VRI.pdb
     RDKit          3D

 27 26  0  0  1  0  0  0  0  0999 V2000
    8.2221  -12.6562   20.1854 C   0  0  0  0  0  0  0  0  0  0  0  0
    7.7771  -13.5490   19.0716 C   0  0  1  0  0  0  0  0  0  0  0  0
    8.4654  -13.1194   17.7960 C   0  0  0  0  0  0  0  0  0  0  0  0
    8.1392  -14.9922   19.3545 C   0  0  2  0  0  0  0  0  0  0  0  0
    7.5335  -15.7509   18.2389 N   0  0  0  0  0  0  0  0  0  0  0  0
    7.5695  -15.5056   20.6101 C   0  0  0  0  0  0  0  0  0  0  0  0
    6.3631  -15.1617   20.8842 O   0  0  0  0  0  0  0  0  0  0  0  0
    5.1255  -20.9878   23.7705 N   0  0  0  0  0  0  0  0  0  0  0  0
    5.9194  -21.9565   23.0756 C   0  0  0  0  0  0  0  0  0  0  0  0
    5.6688  -23.2162   23.1594 N   0  0  0  0  0  0  0  0  0  0  0  0
    7.0197  -21.5784   22.2608 N   0  0  0  0  0  0  0  0  0  0  0  0
    7.9274  -20.5540   22.7327 C   0  0  0  0  0  0  0  0  0  0  0  0
    7.4376  -19.1656   22.3962 C   0  0  0  0  0  0  0  0  0  0  0  0
    8.1167  -18.1235   23.2126 C   0  0  0  0  0  0  0  0  0  0  0  0
    7.7272  -16.6895   22.8289 C   0  0  2  0  0  0  0  0  0  0  0  0
    8.2544  -16.3473   21.5287 N   0  0  0  0  0  0  0  0  0  0  0  0
    8.3751  -15.8685   23.9057 C   0  0  0  0  0  0  0  0  0  0  0  0
    9.5986  -15.6249   23.7811 O   0  0  0  0  0  0  0  0  0  0  0  0
    6.2748  -23.8712   22.6279 C   0  0  0  0  0  0  0  0  0  0  0  0
    6.9812  -11.0137   27.0977 C   0  0  0  0  0  0  0  0  0  0  0  0
    7.9387  -12.2125   27.1385 C   0  0  2  0  0  0  0  0  0  0  0  0
    7.3706  -13.2330   26.2104 C   0  0  0  0  0  0  0  0  0  0  0  0
    5.9890  -13.6521   26.6119 C   0  0  2  0  0  0  0  0  0  0  0  0
    8.2725  -14.4217   25.9720 N   0  0  0  0  0  0  0  0  0  0  0  0
    7.7083  -15.3627   25.0279 C   0  0  0  0  0  0  0  0  0  0  0  0
    8.5378  -15.1393   27.2309 O   0  0  0  0  0  0  0  0  0  0  0  0
    8.0432  -16.4105   27.4377 O   0  0  0  0  0  0  0  0  0  0  0  0
  2  3  1  6
  2  1  1  0
  4  2  1  0
  4  5  1  6
  6  7  2  0
  6  4  1  0
  9  8  1  0
 10  9  2  0
 11  9  1  0
 12 11  1  0
 13 12  1  0
 13 14  1  0
 15 14  1  1
 15 16  1  0
 16  6  1  0
 17 15  1  0
 18 17  2  0
 19 20  1  0
 20 21  1  0
 21 23  1  0
 21 22  1  6
 23 24  1  1
 24 17  1  0
 25 23  1  0
 25 26  1  0
 27 25  2  0
M  END
$$$$
