VRI.pdb
     RDKit          3D

 27 26  0  0  1  0  0  0  0  0999 V2000
    8.2489  -12.5038   20.3739 C   0  0  0  0  0  0  0  0  0  0  0  0
    7.6231  -13.3753   19.3326 C   0  0  1  0  0  0  0  0  0  0  0  0
    7.8433  -12.7492   17.9743 C   0  0  0  0  0  0  0  0  0  0  0  0
    8.2444  -14.7566   19.3352 C   0  0  2  0  0  0  0  0  0  0  0  0
    7.4581  -15.5176   18.3404 N   0  0  0  0  0  0  0  0  0  0  0  0
    8.1285  -15.4506   20.6273 C   0  0  0  0  0  0  0  0  0  0  0  0
    6.9593  -15.8614   20.9633 O   0  0  0  0  0  0  0  0  0  0  0  0
   10.3822  -21.8042   22.6707 N   0  0  0  0  0  0  0  0  0  0  0  0
   10.1922  -21.8057   24.0903 C   0  0  0  0  0  0  0  0  0  0  0  0
    9.9206  -22.8884   24.7312 N   0  0  0  0  0  0  0  0  0  0  0  0
   10.2938  -20.6171   24.8613 N   0  0  0  0  0  0  0  0  0  0  0  0
   10.8849  -19.4380   24.2646 C   0  0  0  0  0  0  0  0  0  0  0  0
    9.9049  -18.2915   24.1868 C   0  0  0  0  0  0  0  0  0  0  0  0
   10.0391  -17.5309   22.9152 C   0  0  0  0  0  0  0  0  0  0  0  0
    9.0492  -16.3651   22.7872 C   0  0  2  0  0  0  0  0  0  0  0  0
    9.2094  -15.6957   21.5177 N   0  0  0  0  0  0  0  0  0  0  0  0
    9.4435  -15.4666   23.9233 C   0  0  0  0  0  0  0  0  0  0  0  0
   10.5818  -14.9438   23.8703 O   0  0  0  0  0  0  0  0  0  0  0  0
    9.9221  -22.8550   25.7693 C   0  0  0  0  0  0  0  0  0  0  0  0
    6.0420  -11.8826   25.9004 C   0  0  0  0  0  0  0  0  0  0  0  0
    7.2923  -12.5881   25.3576 C   0  0  2  0  0  0  0  0  0  0  0  0
    7.8628  -13.3632   26.4974 C   0  0  0  0  0  0  0  0  0  0  0  0
    8.2355  -12.4794   27.6489 C   0  0  2  0  0  0  0  0  0  0  0  0
    8.9918  -14.2901   26.1107 N   0  0  0  0  0  0  0  0  0  0  0  0
    8.6309  -15.1780   25.0261 C   0  0  0  0  0  0  0  0  0  0  0  0
    9.4092  -15.1147   27.2580 O   0  0  0  0  0  0  0  0  0  0  0  0
   10.3361  -14.6455   28.1658 O   0  0  0  0  0  0  0  0  0  0  0  0
  2  3  1  6
  2  1  1  0
  4  2  1  0
  4  5  1  6
  6  7  2  0
  6  4  1  0
  9  8  1  0
 10  9  2  0
 11  9  1  0
 12 11  1  0
 13 12  1  0
 13 14  1  0
 15 14  1  6
 15 16  1  0
 16  6  1  0
 17 15  1  0
 18 17  2  0
 19 20  1  0
 20 21  1  0
 21 23  1  0
 21 22  1  1
 23 24  1  6
 24 17  1  0
 25 23  1  0
 25 26  1  0
 27 25  2  0
M  END
$$$$
