VRI.pdb
     RDKit          3D

 27 26  0  0  1  0  0  0  0  0999 V2000
    8.5739  -12.6238   20.0763 C   0  0  0  0  0  0  0  0  0  0  0  0
    8.0526  -13.4144   18.9194 C   0  0  1  0  0  0  0  0  0  0  0  0
    8.8203  -13.0260   17.6763 C   0  0  0  0  0  0  0  0  0  0  0  0
    8.2297  -14.9003   19.1530 C   0  0  2  0  0  0  0  0  0  0  0  0
    7.5455  -15.5388   18.0079 N   0  0  0  0  0  0  0  0  0  0  0  0
    7.5881  -15.3817   20.3864 C   0  0  0  0  0  0  0  0  0  0  0  0
    6.3064  -15.3221   20.4360 O   0  0  0  0  0  0  0  0  0  0  0  0
    9.1865  -20.2774   26.8389 N   0  0  0  0  0  0  0  0  0  0  0  0
    7.7663  -20.4542   26.8932 C   0  0  0  0  0  0  0  0  0  0  0  0
    7.1799  -20.8626   27.9638 N   0  0  0  0  0  0  0  0  0  0  0  0
    6.9345  -20.1884   25.7729 N   0  0  0  0  0  0  0  0  0  0  0  0
    7.5373  -19.7223   24.5419 C   0  0  0  0  0  0  0  0  0  0  0  0
    7.2525  -18.2607   24.2905 C   0  0  0  0  0  0  0  0  0  0  0  0
    7.8054  -17.8028   22.9874 C   0  0  0  0  0  0  0  0  0  0  0  0
    7.6184  -16.3010   22.7324 C   0  0  2  0  0  0  0  0  0  0  0  0
    8.2815  -15.9034   21.5126 N   0  0  0  0  0  0  0  0  0  0  0  0
    8.2729  -15.6753   23.9297 C   0  0  0  0  0  0  0  0  0  0  0  0
    9.5186  -15.7830   24.0220 O   0  0  0  0  0  0  0  0  0  0  0  0
    6.1417  -20.8482   27.9879 C   0  0  0  0  0  0  0  0  0  0  0  0
    5.7599  -11.4583   26.4712 C   0  0  0  0  0  0  0  0  0  0  0  0
    6.8070  -12.2867   25.7143 C   0  0  2  0  0  0  0  0  0  0  0  0
    7.3404  -13.2796   26.6915 C   0  0  0  0  0  0  0  0  0  0  0  0
    8.0051  -12.6181   27.8604 C   0  0  2  0  0  0  0  0  0  0  0  0
    8.2167  -14.3448   26.0743 N   0  0  0  0  0  0  0  0  0  0  0  0
    7.5893  -14.9869   24.9389 C   0  0  0  0  0  0  0  0  0  0  0  0
    8.5510  -15.3855   27.0619 O   0  0  0  0  0  0  0  0  0  0  0  0
    9.7625  -15.3707   27.7218 O   0  0  0  0  0  0  0  0  0  0  0  0
  2  3  1  6
  2  1  1  0
  4  2  1  0
  4  5  1  6
  6  7  2  0
  6  4  1  0
  9  8  1  0
 10  9  2  0
 11  9  1  0
 12 11  1  0
 13 12  1  0
 13 14  1  0
 15 14  1  1
 15 16  1  0
 16  6  1  0
 17 15  1  0
 18 17  2  0
 19 20  1  0
 20 21  1  0
 21 23  1  0
 21 22  1  1
 23 24  1  6
 24 17  1  0
 25 23  1  0
 25 26  1  0
 27 25  2  0
M  END
$$$$
