VRI.pdb
     RDKit          3D

 27 26  0  0  1  0  0  0  0  0999 V2000
    8.2256  -12.4683   20.3893 C   0  0  0  0  0  0  0  0  0  0  0  0
    7.5294  -13.2720   19.3381 C   0  0  1  0  0  0  0  0  0  0  0  0
    7.7098  -12.5894   18.0014 C   0  0  0  0  0  0  0  0  0  0  0  0
    8.1082  -14.6689   19.2502 C   0  0  2  0  0  0  0  0  0  0  0  0
    7.2396  -15.3686   18.2790 N   0  0  0  0  0  0  0  0  0  0  0  0
    8.0515  -15.4094   20.5203 C   0  0  0  0  0  0  0  0  0  0  0  0
    6.8882  -15.7542   20.9403 O   0  0  0  0  0  0  0  0  0  0  0  0
   10.7286  -18.8432   27.0304 N   0  0  0  0  0  0  0  0  0  0  0  0
   11.1285  -20.0645   26.3981 C   0  0  0  0  0  0  0  0  0  0  0  0
   11.8902  -20.9130   26.9954 N   0  0  0  0  0  0  0  0  0  0  0  0
   10.7065  -20.4014   25.0843 N   0  0  0  0  0  0  0  0  0  0  0  0
   10.9853  -19.4863   23.9977 C   0  0  0  0  0  0  0  0  0  0  0  0
   10.0054  -18.3378   23.9597 C   0  0  0  0  0  0  0  0  0  0  0  0
   10.0995  -17.5685   22.6897 C   0  0  0  0  0  0  0  0  0  0  0  0
    9.0791  -16.4271   22.5837 C   0  0  2  0  0  0  0  0  0  0  0  0
    9.1829  -15.7662   21.3039 N   0  0  0  0  0  0  0  0  0  0  0  0
    9.4885  -15.5091   23.6986 C   0  0  0  0  0  0  0  0  0  0  0  0
   10.1109  -14.4677   23.3825 O   0  0  0  0  0  0  0  0  0  0  0  0
   12.2133  -21.7415   26.4590 C   0  0  0  0  0  0  0  0  0  0  0  0
    6.4913  -11.9352   26.4179 C   0  0  0  0  0  0  0  0  0  0  0  0
    7.7992  -12.6603   26.7631 C   0  0  2  0  0  0  0  0  0  0  0  0
    7.9100  -13.8003   25.8074 C   0  0  0  0  0  0  0  0  0  0  0  0
    6.6301  -14.5726   25.7013 C   0  0  2  0  0  0  0  0  0  0  0  0
    9.0940  -14.7048   26.0588 N   0  0  0  0  0  0  0  0  0  0  0  0
    9.2230  -15.7385   25.0538 C   0  0  0  0  0  0  0  0  0  0  0  0
    8.9851  -15.3570   27.3752 O   0  0  0  0  0  0  0  0  0  0  0  0
    9.6141  -14.8251   28.4820 O   0  0  0  0  0  0  0  0  0  0  0  0
  2  3  1  6
  2  1  1  0
  4  2  1  0
  4  5  1  6
  6  7  2  0
  6  4  1  0
  9  8  1  0
 10  9  2  0
 11  9  1  0
 12 11  1  0
 13 12  1  0
 13 14  1  0
 15 14  1  6
 15 16  1  0
 16  6  1  0
 17 15  1  0
 18 17  2  0
 19 20  1  0
 20 21  1  0
 21 23  1  0
 21 22  1  6
 23 24  1  1
 24 17  1  0
 25 23  1  0
 25 26  1  0
 27 25  2  0
M  END
$$$$
