VRI.pdb
     RDKit          3D

 27 26  0  0  1  0  0  0  0  0999 V2000
    8.2619  -12.7310   20.1436 C   0  0  0  0  0  0  0  0  0  0  0  0
    7.7369  -13.5616   19.0167 C   0  0  1  0  0  0  0  0  0  0  0  0
    8.4762  -13.1918   17.7510 C   0  0  0  0  0  0  0  0  0  0  0  0
    7.9464  -15.0373   19.2860 C   0  0  2  0  0  0  0  0  0  0  0  0
    7.2253  -15.7192   18.1896 N   0  0  0  0  0  0  0  0  0  0  0  0
    7.3640  -15.4908   20.5587 C   0  0  0  0  0  0  0  0  0  0  0  0
    6.0907  -15.3837   20.6858 O   0  0  0  0  0  0  0  0  0  0  0  0
    7.0161  -21.3690   21.9036 N   0  0  0  0  0  0  0  0  0  0  0  0
    6.5800  -21.6441   23.2398 C   0  0  0  0  0  0  0  0  0  0  0  0
    6.4681  -22.8500   23.6758 N   0  0  0  0  0  0  0  0  0  0  0  0
    6.2502  -20.6044   24.1496 N   0  0  0  0  0  0  0  0  0  0  0  0
    7.3130  -19.8073   24.7249 C   0  0  0  0  0  0  0  0  0  0  0  0
    7.1061  -18.3307   24.4851 C   0  0  0  0  0  0  0  0  0  0  0  0
    7.6878  -17.8913   23.1881 C   0  0  0  0  0  0  0  0  0  0  0  0
    7.5052  -16.3936   22.9069 C   0  0  2  0  0  0  0  0  0  0  0  0
    8.1051  -16.0341   21.6435 N   0  0  0  0  0  0  0  0  0  0  0  0
    8.2319  -15.7484   24.0510 C   0  0  0  0  0  0  0  0  0  0  0  0
    9.4759  -15.6331   23.9461 O   0  0  0  0  0  0  0  0  0  0  0  0
    6.2081  -22.9871   24.6719 C   0  0  0  0  0  0  0  0  0  0  0  0
    5.6430  -11.6973   26.5287 C   0  0  0  0  0  0  0  0  0  0  0  0
    6.7229  -12.4991   25.7894 C   0  0  2  0  0  0  0  0  0  0  0  0
    7.3292  -13.4139   26.7998 C   0  0  0  0  0  0  0  0  0  0  0  0
    7.9662  -12.6627   27.9292 C   0  0  2  0  0  0  0  0  0  0  0  0
    8.2621  -14.4489   26.2152 N   0  0  0  0  0  0  0  0  0  0  0  0
    7.6167  -15.2724   25.2149 C   0  0  0  0  0  0  0  0  0  0  0  0
    8.7879  -15.3350   27.2681 O   0  0  0  0  0  0  0  0  0  0  0  0
    8.2734  -16.6026   27.4474 O   0  0  0  0  0  0  0  0  0  0  0  0
  2  3  1  6
  2  1  1  0
  4  2  1  0
  4  5  1  6
  6  7  2  0
  6  4  1  0
  9  8  1  0
 10  9  2  0
 11  9  1  0
 12 11  1  0
 13 12  1  0
 13 14  1  0
 15 14  1  1
 15 16  1  0
 16  6  1  0
 17 15  1  0
 18 17  2  0
 19 20  1  0
 20 21  1  0
 21 23  1  0
 21 22  1  1
 23 24  1  6
 24 17  1  0
 25 23  1  0
 25 26  1  0
 27 25  2  0
M  END
$$$$
