YHG.pdb
     RDKit          3D

 27 28  0  0  1  0  0  0  0  0999 V2000
   26.1444  -20.3398   -6.9452 O   0  0  0  0  0  0  0  0  0  0  0  0
   25.8922  -20.6385   -8.2746 C   0  0  0  0  0  0  0  0  0  0  0  0
   24.7985  -21.3789   -8.6746 C   0  0  0  0  0  0  0  0  0  0  0  0
   24.6098  -21.6394  -10.0271 C   0  0  0  0  0  0  0  0  0  0  0  0
   25.4963  -21.1687  -10.9562 C   0  0  0  0  0  0  0  0  0  0  0  0
   25.3046  -21.4400  -12.3942 C   0  0  0  0  0  0  0  0  0  0  0  0
   24.6744  -20.1964  -13.0341 C   0  0  2  0  0  0  0  0  0  0  0  0
   23.2514  -20.3255  -12.8860 N   0  0  0  0  0  0  0  0  0  0  0  0
   25.0677  -20.2426  -14.4770 C   0  0  0  0  0  0  0  0  0  0  0  0
   24.2760  -20.5035  -15.3853 O   0  0  0  0  0  0  0  0  0  0  0  0
   26.6003  -20.4239  -10.5779 C   0  0  0  0  0  0  0  0  0  0  0  0
   26.7630  -20.1816   -9.2403 C   0  0  0  0  0  0  0  0  0  0  0  0
   26.4050  -19.9759  -14.8174 N   0  0  0  0  0  0  0  0  0  0  0  0
   26.9675  -19.7557  -16.0770 C   0  0  1  0  0  0  0  0  0  0  0  0
   27.9513  -18.6757  -16.3255 C   0  0  0  0  0  0  0  0  0  0  0  0
   27.3190  -17.3282  -16.2003 C   0  0  0  0  0  0  0  0  0  0  0  0
   25.9337  -17.1082  -16.0618 C   0  0  0  0  0  0  0  0  0  0  0  0
   25.6774  -15.8061  -15.9720 N   0  0  0  0  0  0  0  0  0  0  0  0
   26.8598  -15.1642  -16.0480 C   0  0  0  0  0  0  0  0  0  0  0  0
   27.8102  -16.0889  -16.1824 N   0  0  0  0  0  0  0  0  0  0  0  0
   27.3525  -21.0233  -16.7030 C   0  0  0  0  0  0  0  0  0  0  0  0
   27.7360  -21.0247  -17.9248 O   0  0  0  0  0  0  0  0  0  0  0  0
   27.3479  -22.2917  -16.0855 N   0  0  0  0  0  0  0  0  0  0  0  0
   27.8074  -23.4979  -16.7615 C   0  0  0  0  0  0  0  0  0  0  0  0
   29.2608  -23.4400  -17.0289 C   0  0  0  0  0  0  0  0  0  0  0  0
   30.0520  -23.4176  -16.0656 O   0  0  0  0  0  0  0  0  0  0  0  0
   29.7671  -23.4101  -18.3141 O   0  0  0  0  0  0  0  0  0  0  0  0
  1  2  1  0
  2 12  2  0
  3  4  2  0
  3  2  1  0
  4  5  1  0
  5  6  1  0
  5 11  2  0
  6  7  1  0
  7  9  1  0
  7  8  1  6
  9 10  2  0
 12 11  1  0
 13 14  1  0
 13  9  1  0
 14 21  1  0
 14 15  1  1
 16 15  1  0
 17 16  2  0
 18 17  1  0
 19 18  1  0
 19 20  2  0
 20 16  1  0
 21 22  2  0
 21 23  1  0
 23 24  1  0
 24 25  1  0
 25 27  1  0
 26 25  2  0
M  END
$$$$
