YHG.pdb
     RDKit          3D

 27 28  0  0  1  0  0  0  0  0999 V2000
   23.4494  -11.9209  -25.8871 O   0  0  0  0  0  0  0  0  0  0  0  0
   23.0833  -11.8494  -24.5526 C   0  0  0  0  0  0  0  0  0  0  0  0
   21.8937  -12.3653  -24.0804 C   0  0  0  0  0  0  0  0  0  0  0  0
   21.5931  -12.2567  -22.7273 C   0  0  0  0  0  0  0  0  0  0  0  0
   22.4645  -11.6455  -21.8684 C   0  0  0  0  0  0  0  0  0  0  0  0
   22.1544  -11.5253  -20.4305 C   0  0  0  0  0  0  0  0  0  0  0  0
   23.2883  -12.1916  -19.6409 C   0  0  2  0  0  0  0  0  0  0  0  0
   23.2309  -13.5971  -19.9324 N   0  0  0  0  0  0  0  0  0  0  0  0
   22.9821  -11.9321  -18.1995 C   0  0  0  0  0  0  0  0  0  0  0  0
   22.2162  -12.6326  -17.5345 O   0  0  0  0  0  0  0  0  0  0  0  0
   23.6635  -11.1207  -22.3198 C   0  0  0  0  0  0  0  0  0  0  0  0
   23.9353  -11.2408  -23.6562 C   0  0  0  0  0  0  0  0  0  0  0  0
   23.5965  -10.8362  -17.5693 N   0  0  0  0  0  0  0  0  0  0  0  0
   23.4748  -10.3958  -16.2491 C   0  0  1  0  0  0  0  0  0  0  0  0
   24.6467  -10.2459  -15.3547 C   0  0  0  0  0  0  0  0  0  0  0  0
   25.5820  -11.4028  -15.4894 C   0  0  0  0  0  0  0  0  0  0  0  0
   25.3512  -12.5217  -16.3149 C   0  0  0  0  0  0  0  0  0  0  0  0
   26.3617  -13.3818  -16.2241 N   0  0  0  0  0  0  0  0  0  0  0  0
   27.2516  -12.8563  -15.3593 C   0  0  0  0  0  0  0  0  0  0  0  0
   26.7639  -11.6880  -14.9423 N   0  0  0  0  0  0  0  0  0  0  0  0
   22.5515   -9.2614  -16.1628 C   0  0  0  0  0  0  0  0  0  0  0  0
   22.7656   -8.2262  -16.8855 O   0  0  0  0  0  0  0  0  0  0  0  0
   21.4082   -9.1795  -15.3403 N   0  0  0  0  0  0  0  0  0  0  0  0
   20.4873   -8.0512  -15.3828 C   0  0  0  0  0  0  0  0  0  0  0  0
   20.9439   -6.9552  -14.5011 C   0  0  0  0  0  0  0  0  0  0  0  0
   22.0064   -7.0950  -13.8638 O   0  0  0  0  0  0  0  0  0  0  0  0
   20.2280   -5.7814  -14.3630 O   0  0  0  0  0  0  0  0  0  0  0  0
  1  2  1  0
  2 12  2  0
  3  4  2  0
  3  2  1  0
  4  5  1  0
  5  6  1  0
  5 11  2  0
  6  7  1  0
  7  9  1  0
  7  8  1  1
  9 10  2  0
 12 11  1  0
 13 14  1  0
 13  9  1  0
 14 21  1  0
 14 15  1  6
 16 15  1  0
 17 16  2  0
 18 17  1  0
 19 18  1  0
 19 20  2  0
 20 16  1  0
 21 22  2  0
 21 23  1  0
 23 24  1  0
 24 25  1  0
 25 27  1  0
 26 25  2  0
M  END
$$$$
