YHG.pdb
     RDKit          3D

 27 28  0  0  1  0  0  0  0  0999 V2000
   35.4689  -34.2760   -9.6718 O   0  0  0  0  0  0  0  0  0  0  0  0
   34.6870  -34.1640   -8.5333 C   0  0  0  0  0  0  0  0  0  0  0  0
   33.9705  -33.0232   -8.2341 C   0  0  0  0  0  0  0  0  0  0  0  0
   33.2071  -32.9830   -7.0729 C   0  0  0  0  0  0  0  0  0  0  0  0
   33.1631  -34.0607   -6.2319 C   0  0  0  0  0  0  0  0  0  0  0  0
   32.3557  -34.0277   -4.9970 C   0  0  0  0  0  0  0  0  0  0  0  0
   30.9974  -34.6740   -5.2979 C   0  0  2  0  0  0  0  0  0  0  0  0
   30.1969  -33.6783   -5.9547 N   0  0  0  0  0  0  0  0  0  0  0  0
   30.4177  -35.0322   -3.9658 C   0  0  0  0  0  0  0  0  0  0  0  0
   29.9288  -34.2023   -3.1964 O   0  0  0  0  0  0  0  0  0  0  0  0
   33.8737  -35.2155   -6.5119 C   0  0  0  0  0  0  0  0  0  0  0  0
   34.6174  -35.2292   -7.6613 C   0  0  0  0  0  0  0  0  0  0  0  0
   30.4295  -36.3804   -3.5690 N   0  0  0  0  0  0  0  0  0  0  0  0
   29.8277  -36.9785   -2.4591 C   0  0  1  0  0  0  0  0  0  0  0  0
   29.2997  -38.3627   -2.4963 C   0  0  0  0  0  0  0  0  0  0  0  0
   28.4241  -38.6399   -1.3183 C   0  0  0  0  0  0  0  0  0  0  0  0
   27.5346  -37.7060   -0.7498 C   0  0  0  0  0  0  0  0  0  0  0  0
   26.8937  -38.2451    0.2836 N   0  0  0  0  0  0  0  0  0  0  0  0
   27.3398  -39.5105    0.4089 C   0  0  0  0  0  0  0  0  0  0  0  0
   28.2422  -39.7146   -0.5505 N   0  0  0  0  0  0  0  0  0  0  0  0
   30.5918  -36.6997   -1.2404 C   0  0  0  0  0  0  0  0  0  0  0  0
   31.8582  -36.8898   -1.2408 O   0  0  0  0  0  0  0  0  0  0  0  0
   30.0675  -36.2264   -0.0192 N   0  0  0  0  0  0  0  0  0  0  0  0
   30.9108  -35.8720    1.1148 C   0  0  0  0  0  0  0  0  0  0  0  0
   30.0959  -35.4822    2.2857 C   0  0  0  0  0  0  0  0  0  0  0  0
   28.8545  -35.4491    2.1741 O   0  0  0  0  0  0  0  0  0  0  0  0
   30.6695  -35.1537    3.4991 O   0  0  0  0  0  0  0  0  0  0  0  0
  1  2  1  0
  2 12  2  0
  3  4  2  0
  3  2  1  0
  4  5  1  0
  5  6  1  0
  5 11  2  0
  6  7  1  0
  7  9  1  0
  7  8  1  1
  9 10  2  0
 12 11  1  0
 13 14  1  0
 13  9  1  0
 14 21  1  0
 14 15  1  6
 16 15  1  0
 17 16  2  0
 18 17  1  0
 19 18  1  0
 19 20  2  0
 20 16  1  0
 21 22  2  0
 21 23  1  0
 23 24  1  0
 24 25  1  0
 25 27  1  0
 26 25  2  0
M  END
$$$$
