YHG.pdb
     RDKit          3D

 27 28  0  0  1  0  0  0  0  0999 V2000
   16.2234  -13.2087  -26.8186 O   0  0  0  0  0  0  0  0  0  0  0  0
   16.5710  -14.0374  -25.7639 C   0  0  0  0  0  0  0  0  0  0  0  0
   17.5719  -13.7194  -24.8687 C   0  0  0  0  0  0  0  0  0  0  0  0
   17.8660  -14.6003  -23.8341 C   0  0  0  0  0  0  0  0  0  0  0  0
   17.1729  -15.7719  -23.7004 C   0  0  0  0  0  0  0  0  0  0  0  0
   17.4777  -16.7135  -22.6055 C   0  0  0  0  0  0  0  0  0  0  0  0
   18.7298  -17.5091  -22.9956 C   0  0  2  0  0  0  0  0  0  0  0  0
   18.3330  -18.4395  -24.0157 N   0  0  0  0  0  0  0  0  0  0  0  0
   19.1541  -18.2274  -21.7535 C   0  0  0  0  0  0  0  0  0  0  0  0
   18.8503  -19.3975  -21.5122 O   0  0  0  0  0  0  0  0  0  0  0  0
   16.1650  -16.1115  -24.5865 C   0  0  0  0  0  0  0  0  0  0  0  0
   15.8953  -15.2269  -25.5961 C   0  0  0  0  0  0  0  0  0  0  0  0
   19.9378  -17.5368  -20.8130 N   0  0  0  0  0  0  0  0  0  0  0  0
   20.5250  -18.0096  -19.6369 C   0  0  1  0  0  0  0  0  0  0  0  0
   21.8594  -17.5540  -19.1810 C   0  0  0  0  0  0  0  0  0  0  0  0
   22.3198  -18.3319  -17.9919 C   0  0  0  0  0  0  0  0  0  0  0  0
   23.0835  -19.5146  -18.0608 C   0  0  0  0  0  0  0  0  0  0  0  0
   23.3394  -19.9736  -16.8389 N   0  0  0  0  0  0  0  0  0  0  0  0
   22.7629  -19.1221  -15.9680 C   0  0  0  0  0  0  0  0  0  0  0  0
   22.1687  -18.1634  -16.6780 N   0  0  0  0  0  0  0  0  0  0  0  0
   19.5443  -18.0576  -18.5493 C   0  0  0  0  0  0  0  0  0  0  0  0
   18.8856  -16.9993  -18.2560 O   0  0  0  0  0  0  0  0  0  0  0  0
   19.2324  -19.1837  -17.7588 N   0  0  0  0  0  0  0  0  0  0  0  0
   18.2980  -19.1272  -16.6423 C   0  0  0  0  0  0  0  0  0  0  0  0
   16.9086  -19.3521  -17.0964 C   0  0  0  0  0  0  0  0  0  0  0  0
   16.6408  -20.3916  -17.7307 O   0  0  0  0  0  0  0  0  0  0  0  0
   15.8991  -18.4446  -16.8384 O   0  0  0  0  0  0  0  0  0  0  0  0
  1  2  1  0
  2 12  2  0
  3  4  2  0
  3  2  1  0
  4  5  1  0
  5  6  1  0
  5 11  2  0
  6  7  1  0
  7  9  1  0
  7  8  1  6
  9 10  2  0
 12 11  1  0
 13 14  1  0
 13  9  1  0
 14 21  1  0
 14 15  1  1
 16 15  1  0
 17 16  2  0
 18 17  1  0
 19 18  1  0
 19 20  2  0
 20 16  1  0
 21 22  2  0
 21 23  1  0
 23 24  1  0
 24 25  1  0
 25 27  1  0
 26 25  2  0
M  END
$$$$
