YHG.pdb
     RDKit          3D

 27 28  0  0  1  0  0  0  0  0999 V2000
   15.0789  -20.2487  -11.6538 O   0  0  0  0  0  0  0  0  0  0  0  0
   16.4622  -20.1773  -11.6912 C   0  0  0  0  0  0  0  0  0  0  0  0
   17.2573  -20.6325  -10.6593 C   0  0  0  0  0  0  0  0  0  0  0  0
   18.6394  -20.5281  -10.7669 C   0  0  0  0  0  0  0  0  0  0  0  0
   19.2106  -19.9805  -11.8824 C   0  0  0  0  0  0  0  0  0  0  0  0
   20.6768  -19.8653  -12.0060 C   0  0  0  0  0  0  0  0  0  0  0  0
   21.1598  -20.9484  -12.9789 C   0  0  2  0  0  0  0  0  0  0  0  0
   21.1354  -22.1939  -12.2636 N   0  0  0  0  0  0  0  0  0  0  0  0
   22.5607  -20.5682  -13.3418 C   0  0  0  0  0  0  0  0  0  0  0  0
   23.5168  -20.6992  -12.5747 O   0  0  0  0  0  0  0  0  0  0  0  0
   18.4327  -19.5173  -12.9299 C   0  0  0  0  0  0  0  0  0  0  0  0
   17.0748  -19.6318  -12.7989 C   0  0  0  0  0  0  0  0  0  0  0  0
   22.8022  -20.0352  -14.6197 N   0  0  0  0  0  0  0  0  0  0  0  0
   24.0209  -19.7579  -15.2439 C   0  0  1  0  0  0  0  0  0  0  0  0
   24.6247  -20.6734  -16.2405 C   0  0  0  0  0  0  0  0  0  0  0  0
   24.5627  -22.0927  -15.7792 C   0  0  0  0  0  0  0  0  0  0  0  0
   25.5366  -22.7101  -14.9687 C   0  0  0  0  0  0  0  0  0  0  0  0
   25.2038  -23.9746  -14.7250 N   0  0  0  0  0  0  0  0  0  0  0  0
   24.0351  -24.2043  -15.3552 C   0  0  0  0  0  0  0  0  0  0  0  0
   23.6816  -23.0752  -15.9688 N   0  0  0  0  0  0  0  0  0  0  0  0
   24.0854  -18.3537  -15.6571 C   0  0  0  0  0  0  0  0  0  0  0  0
   23.0511  -17.8088  -16.1796 O   0  0  0  0  0  0  0  0  0  0  0  0
   25.2037  -17.5017  -15.5384 N   0  0  0  0  0  0  0  0  0  0  0  0
   25.2047  -16.1309  -16.0322 C   0  0  0  0  0  0  0  0  0  0  0  0
   25.4832  -16.0860  -17.4840 C   0  0  0  0  0  0  0  0  0  0  0  0
   25.9524  -17.0980  -18.0409 O   0  0  0  0  0  0  0  0  0  0  0  0
   25.2390  -14.9560  -18.2407 O   0  0  0  0  0  0  0  0  0  0  0  0
  1  2  1  0
  2 12  2  0
  3  4  2  0
  3  2  1  0
  4  5  1  0
  5  6  1  0
  5 11  2  0
  6  7  1  0
  7  9  1  0
  7  8  1  1
  9 10  2  0
 12 11  1  0
 13 14  1  0
 13  9  1  0
 14 21  1  0
 14 15  1  6
 16 15  1  0
 17 16  2  0
 18 17  1  0
 19 18  1  0
 19 20  2  0
 20 16  1  0
 21 22  2  0
 21 23  1  0
 23 24  1  0
 24 25  1  0
 25 27  1  0
 26 25  2  0
M  END
$$$$
