YHG.pdb
     RDKit          3D

 27 28  0  0  1  0  0  0  0  0999 V2000
   29.1470  -19.7956   -4.3649 O   0  0  0  0  0  0  0  0  0  0  0  0
   28.3132  -19.7983   -5.4716 C   0  0  0  0  0  0  0  0  0  0  0  0
   28.4064  -18.8541   -6.4737 C   0  0  0  0  0  0  0  0  0  0  0  0
   27.5351  -18.9199   -7.5551 C   0  0  0  0  0  0  0  0  0  0  0  0
   26.5931  -19.9087   -7.6299 C   0  0  0  0  0  0  0  0  0  0  0  0
   25.6638  -19.9869   -8.7738 C   0  0  0  0  0  0  0  0  0  0  0  0
   26.2655  -20.9421   -9.8124 C   0  0  2  0  0  0  0  0  0  0  0  0
   27.6615  -20.6202   -9.9173 N   0  0  0  0  0  0  0  0  0  0  0  0
   25.5513  -20.6460  -11.0935 C   0  0  0  0  0  0  0  0  0  0  0  0
   25.5491  -19.5334  -11.6244 O   0  0  0  0  0  0  0  0  0  0  0  0
   26.4815  -20.8664   -6.6365 C   0  0  0  0  0  0  0  0  0  0  0  0
   27.3512  -20.7791   -5.5827 C   0  0  0  0  0  0  0  0  0  0  0  0
   24.8471  -21.6853  -11.7254 N   0  0  0  0  0  0  0  0  0  0  0  0
   24.1902  -21.6834  -12.9584 C   0  0  1  0  0  0  0  0  0  0  0  0
   24.7308  -22.3905  -14.1431 C   0  0  0  0  0  0  0  0  0  0  0  0
   26.0860  -21.8786  -14.5074 C   0  0  0  0  0  0  0  0  0  0  0  0
   26.6972  -20.7535  -13.9181 C   0  0  0  0  0  0  0  0  0  0  0  0
   27.8996  -20.5477  -14.4484 N   0  0  0  0  0  0  0  0  0  0  0  0
   28.0943  -21.5096  -15.3718 C   0  0  0  0  0  0  0  0  0  0  0  0
   27.0068  -22.2800  -15.3840 N   0  0  0  0  0  0  0  0  0  0  0  0
   22.7519  -21.8995  -12.7811 C   0  0  0  0  0  0  0  0  0  0  0  0
   22.3525  -22.8080  -11.9718 O   0  0  0  0  0  0  0  0  0  0  0  0
   21.7177  -21.1903  -13.4277 N   0  0  0  0  0  0  0  0  0  0  0  0
   20.3549  -21.6969  -13.5209 C   0  0  0  0  0  0  0  0  0  0  0  0
   19.4639  -21.0143  -12.5579 C   0  0  0  0  0  0  0  0  0  0  0  0
   18.2414  -21.2576  -12.5883 O   0  0  0  0  0  0  0  0  0  0  0  0
   19.9462  -20.1153  -11.6260 O   0  0  0  0  0  0  0  0  0  0  0  0
  1  2  1  0
  2 12  2  0
  3  4  2  0
  3  2  1  0
  4  5  1  0
  5  6  1  0
  5 11  2  0
  6  7  1  0
  7  9  1  0
  7  8  1  6
  9 10  2  0
 12 11  1  0
 13 14  1  0
 13  9  1  0
 14 21  1  0
 14 15  1  6
 16 15  1  0
 17 16  2  0
 18 17  1  0
 19 18  1  0
 19 20  2  0
 20 16  1  0
 21 22  2  0
 21 23  1  0
 23 24  1  0
 24 25  1  0
 25 27  1  0
 26 25  2  0
M  END
$$$$
