YHG.pdb
     RDKit          3D

 27 28  0  0  1  0  0  0  0  0999 V2000
   19.5544   -5.6327  -24.2311 O   0  0  0  0  0  0  0  0  0  0  0  0
   19.3869   -5.5050  -22.8616 C   0  0  0  0  0  0  0  0  0  0  0  0
   18.1621   -5.6622  -22.2456 C   0  0  0  0  0  0  0  0  0  0  0  0
   18.0699   -5.5191  -20.8658 C   0  0  0  0  0  0  0  0  0  0  0  0
   19.1792   -5.2256  -20.1215 C   0  0  0  0  0  0  0  0  0  0  0  0
   19.0915   -5.0718  -18.6563 C   0  0  0  0  0  0  0  0  0  0  0  0
   19.8753   -6.2204  -18.0086 C   0  0  2  0  0  0  0  0  0  0  0  0
   19.1245   -7.4227  -18.2420 N   0  0  0  0  0  0  0  0  0  0  0  0
   19.9282   -5.8988  -16.5482 C   0  0  0  0  0  0  0  0  0  0  0  0
   19.0388   -6.2127  -15.7544 O   0  0  0  0  0  0  0  0  0  0  0  0
   20.4180   -5.0636  -20.7180 C   0  0  0  0  0  0  0  0  0  0  0  0
   20.4815   -5.2096  -22.0778 C   0  0  0  0  0  0  0  0  0  0  0  0
   21.0458   -5.2047  -16.0536 N   0  0  0  0  0  0  0  0  0  0  0  0
   21.2562   -4.6623  -14.7835 C   0  0  1  0  0  0  0  0  0  0  0  0
   22.2184   -5.2506  -13.8223 C   0  0  0  0  0  0  0  0  0  0  0  0
   22.1405   -6.7423  -13.8227 C   0  0  0  0  0  0  0  0  0  0  0  0
   21.2175   -7.4914  -14.5799 C   0  0  0  0  0  0  0  0  0  0  0  0
   21.3948   -8.7932  -14.3720 N   0  0  0  0  0  0  0  0  0  0  0  0
   22.4117   -8.9188  -13.4968 C   0  0  0  0  0  0  0  0  0  0  0  0
   22.8315   -7.6914  -13.1907 N   0  0  0  0  0  0  0  0  0  0  0  0
   21.3492   -3.2016  -14.8511 C   0  0  0  0  0  0  0  0  0  0  0  0
   22.3242   -2.6673  -15.4864 O   0  0  0  0  0  0  0  0  0  0  0  0
   20.4491   -2.2826  -14.2719 N   0  0  0  0  0  0  0  0  0  0  0  0
   20.6269   -0.8397  -14.3680 C   0  0  0  0  0  0  0  0  0  0  0  0
   21.6257   -0.3579  -13.3895 C   0  0  0  0  0  0  0  0  0  0  0  0
   22.2006   -1.1856  -12.6554 O   0  0  0  0  0  0  0  0  0  0  0  0
   21.9401    0.9818  -13.2650 O   0  0  0  0  0  0  0  0  0  0  0  0
  1  2  1  0
  2 12  2  0
  3  4  2  0
  3  2  1  0
  4  5  1  0
  5  6  1  0
  5 11  2  0
  6  7  1  0
  7  9  1  0
  7  8  1  1
  9 10  2  0
 12 11  1  0
 13 14  1  0
 13  9  1  0
 14 21  1  0
 14 15  1  6
 16 15  1  0
 17 16  2  0
 18 17  1  0
 19 18  1  0
 19 20  2  0
 20 16  1  0
 21 22  2  0
 21 23  1  0
 23 24  1  0
 24 25  1  0
 25 27  1  0
 26 25  2  0
M  END
$$$$
