YHG.pdb
     RDKit          3D

 27 28  0  0  1  0  0  0  0  0999 V2000
   21.8026   -4.2964  -26.1445 O   0  0  0  0  0  0  0  0  0  0  0  0
   21.3614   -5.1631  -25.1576 C   0  0  0  0  0  0  0  0  0  0  0  0
   20.2391   -5.9516  -25.3095 C   0  0  0  0  0  0  0  0  0  0  0  0
   19.8561   -6.7984  -24.2755 C   0  0  0  0  0  0  0  0  0  0  0  0
   20.5811   -6.8531  -23.1169 C   0  0  0  0  0  0  0  0  0  0  0  0
   20.1825   -7.7486  -22.0136 C   0  0  0  0  0  0  0  0  0  0  0  0
   20.9075   -9.0875  -22.2008 C   0  0  2  0  0  0  0  0  0  0  0  0
   20.3589   -9.6988  -23.3793 N   0  0  0  0  0  0  0  0  0  0  0  0
   20.5859   -9.8936  -20.9819 C   0  0  0  0  0  0  0  0  0  0  0  0
   19.5839  -10.6057  -20.8875 O   0  0  0  0  0  0  0  0  0  0  0  0
   21.7102   -6.0712  -22.9425 C   0  0  0  0  0  0  0  0  0  0  0  0
   22.0656   -5.2463  -23.9757 C   0  0  0  0  0  0  0  0  0  0  0  0
   21.4674   -9.8386  -19.8886 N   0  0  0  0  0  0  0  0  0  0  0  0
   21.3788  -10.4804  -18.6509 C   0  0  1  0  0  0  0  0  0  0  0  0
   22.4772  -11.3181  -18.1145 C   0  0  0  0  0  0  0  0  0  0  0  0
   22.7553  -12.4829  -19.0074 C   0  0  0  0  0  0  0  0  0  0  0  0
   22.0161  -12.7918  -20.1670 C   0  0  0  0  0  0  0  0  0  0  0  0
   22.5027  -13.8837  -20.7504 N   0  0  0  0  0  0  0  0  0  0  0  0
   23.5436  -14.3006  -20.0031 C   0  0  0  0  0  0  0  0  0  0  0  0
   23.6684  -13.4540  -18.9813 N   0  0  0  0  0  0  0  0  0  0  0  0
   20.8084   -9.5852  -17.6410 C   0  0  0  0  0  0  0  0  0  0  0  0
   20.3693  -10.0804  -16.5447 O   0  0  0  0  0  0  0  0  0  0  0  0
   20.6846   -8.1837  -17.7456 N   0  0  0  0  0  0  0  0  0  0  0  0
   20.1766   -7.3552  -16.6602 C   0  0  0  0  0  0  0  0  0  0  0  0
   21.1964   -7.1727  -15.6048 C   0  0  0  0  0  0  0  0  0  0  0  0
   22.3242   -7.6812  -15.7598 O   0  0  0  0  0  0  0  0  0  0  0  0
   20.9362   -6.4557  -14.4527 O   0  0  0  0  0  0  0  0  0  0  0  0
  1  2  1  0
  2 12  2  0
  3  4  2  0
  3  2  1  0
  4  5  1  0
  5  6  1  0
  5 11  2  0
  6  7  1  0
  7  9  1  0
  7  8  1  6
  9 10  2  0
 12 11  1  0
 13 14  1  0
 13  9  1  0
 14 21  1  0
 14 15  1  1
 16 15  1  0
 17 16  2  0
 18 17  1  0
 19 18  1  0
 19 20  2  0
 20 16  1  0
 21 22  2  0
 21 23  1  0
 23 24  1  0
 24 25  1  0
 25 27  1  0
 26 25  2  0
M  END
$$$$
