YHG.pdb
     RDKit          3D

 27 28  0  0  1  0  0  0  0  0999 V2000
   26.2024   -0.7012  -19.3344 O   0  0  0  0  0  0  0  0  0  0  0  0
   25.4272   -1.8092  -19.0325 C   0  0  0  0  0  0  0  0  0  0  0  0
   25.5532   -2.5025  -17.8459 C   0  0  0  0  0  0  0  0  0  0  0  0
   24.7404   -3.6059  -17.6118 C   0  0  0  0  0  0  0  0  0  0  0  0
   23.8234   -4.0045  -18.5449 C   0  0  0  0  0  0  0  0  0  0  0  0
   22.9562   -5.1745  -18.3056 C   0  0  0  0  0  0  0  0  0  0  0  0
   23.8463   -6.4221  -18.2395 C   0  0  2  0  0  0  0  0  0  0  0  0
   24.4268   -6.5911  -19.5425 N   0  0  0  0  0  0  0  0  0  0  0  0
   22.9266   -7.5564  -17.9132 C   0  0  0  0  0  0  0  0  0  0  0  0
   22.4225   -8.2856  -18.7699 O   0  0  0  0  0  0  0  0  0  0  0  0
   23.6796   -3.3243  -19.7421 C   0  0  0  0  0  0  0  0  0  0  0  0
   24.4918   -2.2416  -19.9479 C   0  0  0  0  0  0  0  0  0  0  0  0
   22.6201   -7.8057  -16.5644 N   0  0  0  0  0  0  0  0  0  0  0  0
   21.7779   -8.7760  -16.0160 C   0  0  1  0  0  0  0  0  0  0  0  0
   22.2347  -10.1604  -15.7503 C   0  0  0  0  0  0  0  0  0  0  0  0
   23.6938  -10.3124  -16.0318 C   0  0  0  0  0  0  0  0  0  0  0  0
   24.5258   -9.2775  -16.5043 C   0  0  0  0  0  0  0  0  0  0  0  0
   25.7719   -9.7170  -16.6570 N   0  0  0  0  0  0  0  0  0  0  0  0
   25.7800  -11.0154  -16.2966 C   0  0  0  0  0  0  0  0  0  0  0  0
   24.5393  -11.3385  -15.9324 N   0  0  0  0  0  0  0  0  0  0  0  0
   20.9948   -8.2192  -14.9098 C   0  0  0  0  0  0  0  0  0  0  0  0
   21.6049   -7.6562  -13.9348 O   0  0  0  0  0  0  0  0  0  0  0  0
   19.5887   -8.2345  -14.7949 N   0  0  0  0  0  0  0  0  0  0  0  0
   18.8853   -7.6493  -13.6611 C   0  0  0  0  0  0  0  0  0  0  0  0
   18.6077   -8.6649  -12.6224 C   0  0  0  0  0  0  0  0  0  0  0  0
   18.9712   -9.8418  -12.8155 O   0  0  0  0  0  0  0  0  0  0  0  0
   17.9578   -8.3478  -11.4450 O   0  0  0  0  0  0  0  0  0  0  0  0
  1  2  1  0
  2 12  2  0
  3  4  2  0
  3  2  1  0
  4  5  1  0
  5  6  1  0
  5 11  2  0
  6  7  1  0
  7  9  1  0
  7  8  1  6
  9 10  2  0
 12 11  1  0
 13 14  1  0
 13  9  1  0
 14 21  1  0
 14 15  1  1
 16 15  1  0
 17 16  2  0
 18 17  1  0
 19 18  1  0
 19 20  2  0
 20 16  1  0
 21 22  2  0
 21 23  1  0
 23 24  1  0
 24 25  1  0
 25 27  1  0
 26 25  2  0
M  END
$$$$
