YHG.pdb
     RDKit          3D

 27 28  0  0  1  0  0  0  0  0999 V2000
   18.1395  -21.1522  -15.6202 O   0  0  0  0  0  0  0  0  0  0  0  0
   18.8895  -19.9953  -15.4825 C   0  0  0  0  0  0  0  0  0  0  0  0
   18.4128  -18.8743  -14.8341 C   0  0  0  0  0  0  0  0  0  0  0  0
   19.2227  -17.7487  -14.7344 C   0  0  0  0  0  0  0  0  0  0  0  0
   20.4804  -17.7472  -15.2720 C   0  0  0  0  0  0  0  0  0  0  0  0
   21.3476  -16.5573  -15.1714 C   0  0  0  0  0  0  0  0  0  0  0  0
   20.7910  -15.4809  -16.1120 C   0  0  2  0  0  0  0  0  0  0  0  0
   20.9585  -15.9696  -17.4524 N   0  0  0  0  0  0  0  0  0  0  0  0
   21.6328  -14.2663  -15.8772 C   0  0  0  0  0  0  0  0  0  0  0  0
   21.8304  -13.7868  -14.7588 O   0  0  0  0  0  0  0  0  0  0  0  0
   20.9793  -18.8603  -15.9268 C   0  0  0  0  0  0  0  0  0  0  0  0
   20.1618  -19.9553  -16.0111 C   0  0  0  0  0  0  0  0  0  0  0  0
   22.2294  -13.6386  -16.9842 N   0  0  0  0  0  0  0  0  0  0  0  0
   22.9919  -12.4689  -17.0300 C   0  0  1  0  0  0  0  0  0  0  0  0
   24.4161  -12.4692  -17.4396 C   0  0  0  0  0  0  0  0  0  0  0  0
   25.1966  -13.4940  -16.6833 C   0  0  0  0  0  0  0  0  0  0  0  0
   25.7149  -14.6768  -17.2479 C   0  0  0  0  0  0  0  0  0  0  0  0
   26.3624  -15.3855  -16.3271 N   0  0  0  0  0  0  0  0  0  0  0  0
   26.2828  -14.6980  -15.1710 C   0  0  0  0  0  0  0  0  0  0  0  0
   25.5889  -13.5860  -15.4124 N   0  0  0  0  0  0  0  0  0  0  0  0
   22.2306  -11.3758  -17.6401 C   0  0  0  0  0  0  0  0  0  0  0  0
   21.9636  -11.4239  -18.8916 O   0  0  0  0  0  0  0  0  0  0  0  0
   21.7394  -10.2318  -16.9764 N   0  0  0  0  0  0  0  0  0  0  0  0
   20.9860   -9.1884  -17.6595 C   0  0  0  0  0  0  0  0  0  0  0  0
   20.5841   -8.1182  -16.7212 C   0  0  0  0  0  0  0  0  0  0  0  0
   20.8546   -8.2428  -15.5105 O   0  0  0  0  0  0  0  0  0  0  0  0
   19.9181   -6.9848  -17.1469 O   0  0  0  0  0  0  0  0  0  0  0  0
  1  2  1  0
  2 12  2  0
  3  4  2  0
  3  2  1  0
  4  5  1  0
  5  6  1  0
  5 11  2  0
  6  7  1  0
  7  9  1  0
  7  8  1  6
  9 10  2  0
 12 11  1  0
 13 14  1  0
 13  9  1  0
 14 21  1  0
 14 15  1  6
 16 15  1  0
 17 16  2  0
 18 17  1  0
 19 18  1  0
 19 20  2  0
 20 16  1  0
 21 22  2  0
 21 23  1  0
 23 24  1  0
 24 25  1  0
 25 27  1  0
 26 25  2  0
M  END
$$$$
