YHG.pdb
     RDKit          3D

 27 28  0  0  1  0  0  0  0  0999 V2000
   28.1488  -20.7115   -6.9427 O   0  0  0  0  0  0  0  0  0  0  0  0
   27.5105  -20.6256   -8.1696 C   0  0  0  0  0  0  0  0  0  0  0  0
   26.1360  -20.6226   -8.2927 C   0  0  0  0  0  0  0  0  0  0  0  0
   25.5653  -20.5337   -9.5573 C   0  0  0  0  0  0  0  0  0  0  0  0
   26.3539  -20.4498  -10.6717 C   0  0  0  0  0  0  0  0  0  0  0  0
   25.7576  -20.3551  -12.0184 C   0  0  0  0  0  0  0  0  0  0  0  0
   25.7869  -21.7518  -12.6520 C   0  0  2  0  0  0  0  0  0  0  0  0
   27.1339  -21.9819  -13.0948 N   0  0  0  0  0  0  0  0  0  0  0  0
   24.8464  -21.6869  -13.8139 C   0  0  0  0  0  0  0  0  0  0  0  0
   25.0729  -21.0277  -14.8308 O   0  0  0  0  0  0  0  0  0  0  0  0
   27.7348  -20.4511  -10.5721 C   0  0  0  0  0  0  0  0  0  0  0  0
   28.2713  -20.5395   -9.3156 C   0  0  0  0  0  0  0  0  0  0  0  0
   23.6444  -22.4121  -13.7462 N   0  0  0  0  0  0  0  0  0  0  0  0
   22.6007  -22.4782  -14.6726 C   0  0  1  0  0  0  0  0  0  0  0  0
   22.5288  -23.5357  -15.7082 C   0  0  0  0  0  0  0  0  0  0  0  0
   23.8564  -24.1913  -15.9055 C   0  0  0  0  0  0  0  0  0  0  0  0
   25.0112  -23.8934  -15.1544 C   0  0  0  0  0  0  0  0  0  0  0  0
   26.0344  -24.6399  -15.5607 N   0  0  0  0  0  0  0  0  0  0  0  0
   25.5811  -25.4213  -16.5605 C   0  0  0  0  0  0  0  0  0  0  0  0
   24.2923  -25.1340  -16.7414 N   0  0  0  0  0  0  0  0  0  0  0  0
   21.3107  -22.2405  -14.0198 C   0  0  0  0  0  0  0  0  0  0  0  0
   21.2230  -22.3626  -12.7481 O   0  0  0  0  0  0  0  0  0  0  0  0
   20.1076  -21.8774  -14.6611 N   0  0  0  0  0  0  0  0  0  0  0  0
   18.8362  -21.7855  -13.9556 C   0  0  0  0  0  0  0  0  0  0  0  0
   18.3513  -20.3892  -13.9077 C   0  0  0  0  0  0  0  0  0  0  0  0
   19.1418  -19.4651  -14.1828 O   0  0  0  0  0  0  0  0  0  0  0  0
   17.0486  -20.0788  -13.5672 O   0  0  0  0  0  0  0  0  0  0  0  0
  1  2  1  0
  2 12  2  0
  3  4  2  0
  3  2  1  0
  4  5  1  0
  5  6  1  0
  5 11  2  0
  6  7  1  0
  7  9  1  0
  7  8  1  6
  9 10  2  0
 12 11  1  0
 13 14  1  0
 13  9  1  0
 14 21  1  0
 14 15  1  1
 16 15  1  0
 17 16  2  0
 18 17  1  0
 19 18  1  0
 19 20  2  0
 20 16  1  0
 21 22  2  0
 21 23  1  0
 23 24  1  0
 24 25  1  0
 25 27  1  0
 26 25  2  0
M  END
$$$$
