YHG.pdb
     RDKit          3D

 27 28  0  0  1  0  0  0  0  0999 V2000
   30.9667   -2.9567  -20.1885 O   0  0  0  0  0  0  0  0  0  0  0  0
   29.6831   -3.1909  -19.7222 C   0  0  0  0  0  0  0  0  0  0  0  0
   28.5701   -2.5972  -20.2818 C   0  0  0  0  0  0  0  0  0  0  0  0
   27.3125   -2.8798  -19.7609 C   0  0  0  0  0  0  0  0  0  0  0  0
   27.1742   -3.7371  -18.7042 C   0  0  0  0  0  0  0  0  0  0  0  0
   25.8435   -4.0433  -18.1441 C   0  0  0  0  0  0  0  0  0  0  0  0
   25.4262   -5.4338  -18.6396 C   0  0  2  0  0  0  0  0  0  0  0  0
   25.2485   -5.3349  -20.0617 N   0  0  0  0  0  0  0  0  0  0  0  0
   24.1275   -5.7312  -17.9585 C   0  0  0  0  0  0  0  0  0  0  0  0
   23.0460   -5.2769  -18.3376 O   0  0  0  0  0  0  0  0  0  0  0  0
   28.2765   -4.3441  -18.1270 C   0  0  0  0  0  0  0  0  0  0  0  0
   29.5031   -4.0490  -18.6587 C   0  0  0  0  0  0  0  0  0  0  0  0
   24.1375   -6.5696  -16.8305 N   0  0  0  0  0  0  0  0  0  0  0  0
   23.0683   -6.9956  -16.0386 C   0  0  1  0  0  0  0  0  0  0  0  0
   23.0313   -8.3406  -15.4177 C   0  0  0  0  0  0  0  0  0  0  0  0
   21.6590   -8.6746  -14.9312 C   0  0  0  0  0  0  0  0  0  0  0  0
   20.5441   -7.8198  -15.0439 C   0  0  0  0  0  0  0  0  0  0  0  0
   19.4640   -8.3946  -14.5219 N   0  0  0  0  0  0  0  0  0  0  0  0
   19.8411   -9.6063  -14.0688 C   0  0  0  0  0  0  0  0  0  0  0  0
   21.1420   -9.7432  -14.3244 N   0  0  0  0  0  0  0  0  0  0  0  0
   22.6517   -5.9372  -15.1150 C   0  0  0  0  0  0  0  0  0  0  0  0
   23.4545   -5.5652  -14.1893 O   0  0  0  0  0  0  0  0  0  0  0  0
   21.4167   -5.2554  -15.1330 N   0  0  0  0  0  0  0  0  0  0  0  0
   21.1452   -4.0963  -14.2930 C   0  0  0  0  0  0  0  0  0  0  0  0
   19.8489   -3.4755  -14.6415 C   0  0  0  0  0  0  0  0  0  0  0  0
   19.7344   -2.8890  -15.7357 O   0  0  0  0  0  0  0  0  0  0  0  0
   18.7615   -3.5266  -13.7904 O   0  0  0  0  0  0  0  0  0  0  0  0
  1  2  1  0
  2 12  2  0
  3  4  2  0
  3  2  1  0
  4  5  1  0
  5  6  1  0
  5 11  2  0
  6  7  1  0
  7  9  1  0
  7  8  1  6
  9 10  2  0
 12 11  1  0
 13 14  1  0
 13  9  1  0
 14 21  1  0
 14 15  1  1
 16 15  1  0
 17 16  2  0
 18 17  1  0
 19 18  1  0
 19 20  2  0
 20 16  1  0
 21 22  2  0
 21 23  1  0
 23 24  1  0
 24 25  1  0
 25 27  1  0
 26 25  2  0
M  END
$$$$
