YHG.pdb
     RDKit          3D

 27 28  0  0  1  0  0  0  0  0999 V2000
   17.5699  -18.0440  -16.3859 O   0  0  0  0  0  0  0  0  0  0  0  0
   18.7328  -18.6347  -15.9184 C   0  0  0  0  0  0  0  0  0  0  0  0
   18.8635  -20.0002  -15.7683 C   0  0  0  0  0  0  0  0  0  0  0  0
   20.0613  -20.5221  -15.2932 C   0  0  0  0  0  0  0  0  0  0  0  0
   21.1031  -19.6945  -14.9762 C   0  0  0  0  0  0  0  0  0  0  0  0
   22.3785  -20.2389  -14.4711 C   0  0  0  0  0  0  0  0  0  0  0  0
   23.3591  -20.3254  -15.6476 C   0  0  2  0  0  0  0  0  0  0  0  0
   22.9177  -21.4090  -16.4811 N   0  0  0  0  0  0  0  0  0  0  0  0
   24.6923  -20.6282  -15.0394 C   0  0  0  0  0  0  0  0  0  0  0  0
   25.0802  -21.7729  -14.7969 O   0  0  0  0  0  0  0  0  0  0  0  0
   20.9946  -18.3217  -15.1188 C   0  0  0  0  0  0  0  0  0  0  0  0
   19.8048  -17.8336  -15.5884 C   0  0  0  0  0  0  0  0  0  0  0  0
   25.5472  -19.5569  -14.7281 N   0  0  0  0  0  0  0  0  0  0  0  0
   26.7636  -19.5700  -14.0411 C   0  0  1  0  0  0  0  0  0  0  0  0
   27.8619  -18.6280  -14.3605 C   0  0  0  0  0  0  0  0  0  0  0  0
   28.2517  -18.7189  -15.7997 C   0  0  0  0  0  0  0  0  0  0  0  0
   27.7269  -19.6593  -16.7090 C   0  0  0  0  0  0  0  0  0  0  0  0
   28.2652  -19.4903  -17.9136 N   0  0  0  0  0  0  0  0  0  0  0  0
   29.1310  -18.4621  -17.8190 C   0  0  0  0  0  0  0  0  0  0  0  0
   29.1014  -18.0273  -16.5594 N   0  0  0  0  0  0  0  0  0  0  0  0
   26.5446  -19.7118  -12.5993 C   0  0  0  0  0  0  0  0  0  0  0  0
   26.0092  -18.7456  -11.9515 O   0  0  0  0  0  0  0  0  0  0  0  0
   26.8701  -20.8382  -11.8147 N   0  0  0  0  0  0  0  0  0  0  0  0
   26.5275  -20.9392  -10.4022 C   0  0  0  0  0  0  0  0  0  0  0  0
   25.0660  -21.0665  -10.2146 C   0  0  0  0  0  0  0  0  0  0  0  0
   24.3351  -21.1763  -11.2186 O   0  0  0  0  0  0  0  0  0  0  0  0
   24.4873  -21.0674   -8.9598 O   0  0  0  0  0  0  0  0  0  0  0  0
  1  2  1  0
  2 12  2  0
  3  4  2  0
  3  2  1  0
  4  5  1  0
  5  6  1  0
  5 11  2  0
  6  7  1  0
  7  9  1  0
  7  8  1  6
  9 10  2  0
 12 11  1  0
 13 14  1  0
 13  9  1  0
 14 21  1  0
 14 15  1  1
 16 15  1  0
 17 16  2  0
 18 17  1  0
 19 18  1  0
 19 20  2  0
 20 16  1  0
 21 22  2  0
 21 23  1  0
 23 24  1  0
 24 25  1  0
 25 27  1  0
 26 25  2  0
M  END
$$$$
