YHG.pdb
     RDKit          3D

 27 28  0  0  1  0  0  0  0  0999 V2000
   15.7065  -14.8266  -19.2616 O   0  0  0  0  0  0  0  0  0  0  0  0
   16.5401  -14.0560  -18.4670 C   0  0  0  0  0  0  0  0  0  0  0  0
   16.6806  -14.2711  -17.1112 C   0  0  0  0  0  0  0  0  0  0  0  0
   17.5360  -13.4573  -16.3771 C   0  0  0  0  0  0  0  0  0  0  0  0
   18.2337  -12.4519  -16.9880 C   0  0  0  0  0  0  0  0  0  0  0  0
   19.1442  -11.5827  -16.2173 C   0  0  0  0  0  0  0  0  0  0  0  0
   20.5731  -12.1110  -16.3966 C   0  0  2  0  0  0  0  0  0  0  0  0
   20.6353  -13.3828  -15.7316 N   0  0  0  0  0  0  0  0  0  0  0  0
   21.4596  -11.1118  -15.7224 C   0  0  0  0  0  0  0  0  0  0  0  0
   21.5917  -11.0427  -14.4986 O   0  0  0  0  0  0  0  0  0  0  0  0
   18.1084  -12.2178  -18.3467 C   0  0  0  0  0  0  0  0  0  0  0  0
   17.2598  -13.0332  -19.0463 C   0  0  0  0  0  0  0  0  0  0  0  0
   22.1787  -10.2056  -16.5205 N   0  0  0  0  0  0  0  0  0  0  0  0
   23.1156   -9.2430  -16.1368 C   0  0  1  0  0  0  0  0  0  0  0  0
   24.5023   -9.2373  -16.6592 C   0  0  0  0  0  0  0  0  0  0  0  0
   25.1805  -10.5445  -16.4090 C   0  0  0  0  0  0  0  0  0  0  0  0
   24.6101  -11.6123  -15.6872 C   0  0  0  0  0  0  0  0  0  0  0  0
   25.4532  -12.6398  -15.6350 N   0  0  0  0  0  0  0  0  0  0  0  0
   26.5639  -12.2743  -16.3047 C   0  0  0  0  0  0  0  0  0  0  0  0
   26.3734  -11.0326  -16.7500 N   0  0  0  0  0  0  0  0  0  0  0  0
   22.5130   -7.9075  -16.1239 C   0  0  0  0  0  0  0  0  0  0  0  0
   22.0174   -7.4361  -17.2065 O   0  0  0  0  0  0  0  0  0  0  0  0
   22.4138   -7.0498  -15.0082 N   0  0  0  0  0  0  0  0  0  0  0  0
   21.7451   -5.7567  -15.0664 C   0  0  0  0  0  0  0  0  0  0  0  0
   21.8423   -5.0460  -13.7731 C   0  0  0  0  0  0  0  0  0  0  0  0
   22.3826   -5.6200  -12.8072 O   0  0  0  0  0  0  0  0  0  0  0  0
   21.3520   -3.7652  -13.6039 O   0  0  0  0  0  0  0  0  0  0  0  0
  1  2  1  0
  2 12  2  0
  3  4  2  0
  3  2  1  0
  4  5  1  0
  5  6  1  0
  5 11  2  0
  6  7  1  0
  7  9  1  0
  7  8  1  1
  9 10  2  0
 12 11  1  0
 13 14  1  0
 13  9  1  0
 14 21  1  0
 14 15  1  6
 16 15  1  0
 17 16  2  0
 18 17  1  0
 19 18  1  0
 19 20  2  0
 20 16  1  0
 21 22  2  0
 21 23  1  0
 23 24  1  0
 24 25  1  0
 25 27  1  0
 26 25  2  0
M  END
$$$$
