YHG.pdb
     RDKit          3D

 27 28  0  0  1  0  0  0  0  0999 V2000
   20.4559  -12.6380  -25.0079 O   0  0  0  0  0  0  0  0  0  0  0  0
   20.5141  -12.2782  -23.6711 C   0  0  0  0  0  0  0  0  0  0  0  0
   21.1564  -11.1367  -23.2367 C   0  0  0  0  0  0  0  0  0  0  0  0
   21.1739  -10.8395  -21.8787 C   0  0  0  0  0  0  0  0  0  0  0  0
   20.5622  -11.6671  -20.9779 C   0  0  0  0  0  0  0  0  0  0  0  0
   20.5754  -11.3603  -19.5343 C   0  0  0  0  0  0  0  0  0  0  0  0
   22.0195  -11.4883  -19.0329 C   0  0  2  0  0  0  0  0  0  0  0  0
   22.2964  -12.8925  -18.9096 N   0  0  0  0  0  0  0  0  0  0  0  0
   22.0420  -10.8199  -17.6944 C   0  0  0  0  0  0  0  0  0  0  0  0
   21.6725  -11.3730  -16.6565 O   0  0  0  0  0  0  0  0  0  0  0  0
   19.9119  -12.8175  -21.3908 C   0  0  0  0  0  0  0  0  0  0  0  0
   19.9093  -13.0870  -22.7331 C   0  0  0  0  0  0  0  0  0  0  0  0
   22.5068   -9.4960  -17.6127 N   0  0  0  0  0  0  0  0  0  0  0  0
   22.5718   -8.6509  -16.5022 C   0  0  1  0  0  0  0  0  0  0  0  0
   23.8585   -8.1501  -15.9642 C   0  0  0  0  0  0  0  0  0  0  0  0
   24.8324   -9.2651  -15.7646 C   0  0  0  0  0  0  0  0  0  0  0  0
   24.5391  -10.6268  -15.9794 C   0  0  0  0  0  0  0  0  0  0  0  0
   25.6057  -11.3779  -15.7196 N   0  0  0  0  0  0  0  0  0  0  0  0
   26.5933  -10.5438  -15.3392 C   0  0  0  0  0  0  0  0  0  0  0  0
   26.1071   -9.3033  -15.3756 N   0  0  0  0  0  0  0  0  0  0  0  0
   21.5504   -7.6037  -16.5857 C   0  0  0  0  0  0  0  0  0  0  0  0
   21.5247   -6.8376  -17.6115 O   0  0  0  0  0  0  0  0  0  0  0  0
   20.5531   -7.3351  -15.6246 N   0  0  0  0  0  0  0  0  0  0  0  0
   19.6306   -6.2133  -15.7400 C   0  0  0  0  0  0  0  0  0  0  0  0
   20.3016   -4.9346  -15.4207 C   0  0  0  0  0  0  0  0  0  0  0  0
   21.5147   -4.9440  -15.1329 O   0  0  0  0  0  0  0  0  0  0  0  0
   19.6239   -3.7305  -15.4321 O   0  0  0  0  0  0  0  0  0  0  0  0
  1  2  1  0
  2 12  2  0
  3  4  2  0
  3  2  1  0
  4  5  1  0
  5  6  1  0
  5 11  2  0
  6  7  1  0
  7  9  1  0
  7  8  1  1
  9 10  2  0
 12 11  1  0
 13 14  1  0
 13  9  1  0
 14 21  1  0
 14 15  1  6
 16 15  1  0
 17 16  2  0
 18 17  1  0
 19 18  1  0
 19 20  2  0
 20 16  1  0
 21 22  2  0
 21 23  1  0
 23 24  1  0
 24 25  1  0
 25 27  1  0
 26 25  2  0
M  END
$$$$
