YHG.pdb
     RDKit          3D

 27 28  0  0  1  0  0  0  0  0999 V2000
   11.5103   -8.3659   -8.4361 O   0  0  0  0  0  0  0  0  0  0  0  0
   12.7259   -7.8656   -8.8745 C   0  0  0  0  0  0  0  0  0  0  0  0
   12.9889   -7.6148  -10.2057 C   0  0  0  0  0  0  0  0  0  0  0  0
   14.2325   -7.1125  -10.5718 C   0  0  0  0  0  0  0  0  0  0  0  0
   15.1894   -6.8677   -9.6257 C   0  0  0  0  0  0  0  0  0  0  0  0
   16.5125   -6.3346  -10.0044 C   0  0  0  0  0  0  0  0  0  0  0  0
   17.2566   -7.4208  -10.7916 C   0  0  2  0  0  0  0  0  0  0  0  0
   17.5818   -8.4642   -9.8593 N   0  0  0  0  0  0  0  0  0  0  0  0
   18.4962   -6.7637  -11.3116 C   0  0  0  0  0  0  0  0  0  0  0  0
   19.5367   -6.6697  -10.6571 O   0  0  0  0  0  0  0  0  0  0  0  0
   14.9478   -7.1118   -8.2846 C   0  0  0  0  0  0  0  0  0  0  0  0
   13.7154   -7.6062   -7.9508 C   0  0  0  0  0  0  0  0  0  0  0  0
   18.4770   -6.2260  -12.6100 N   0  0  0  0  0  0  0  0  0  0  0  0
   19.5027   -5.5961  -13.3191 C   0  0  1  0  0  0  0  0  0  0  0  0
   20.0096   -6.1206  -14.6091 C   0  0  0  0  0  0  0  0  0  0  0  0
   20.3447   -7.5728  -14.5089 C   0  0  0  0  0  0  0  0  0  0  0  0
   21.5874   -8.0752  -14.0732 C   0  0  0  0  0  0  0  0  0  0  0  0
   21.5821   -9.4052  -14.0908 N   0  0  0  0  0  0  0  0  0  0  0  0
   20.3667   -9.7900  -14.5274 C   0  0  0  0  0  0  0  0  0  0  0  0
   19.6583   -8.6865  -14.7660 N   0  0  0  0  0  0  0  0  0  0  0  0
   19.3045   -4.1445  -13.3401 C   0  0  0  0  0  0  0  0  0  0  0  0
   18.1125   -3.6771  -13.3182 O   0  0  0  0  0  0  0  0  0  0  0  0
   20.3202   -3.1663  -13.3829 N   0  0  0  0  0  0  0  0  0  0  0  0
   20.0365   -1.7412  -13.4900 C   0  0  0  0  0  0  0  0  0  0  0  0
   19.4486   -1.4107  -14.8062 C   0  0  0  0  0  0  0  0  0  0  0  0
   19.2992   -2.3194  -15.6467 O   0  0  0  0  0  0  0  0  0  0  0  0
   19.0603   -0.1252  -15.1315 O   0  0  0  0  0  0  0  0  0  0  0  0
  1  2  1  0
  2 12  2  0
  3  4  2  0
  3  2  1  0
  4  5  1  0
  5  6  1  0
  5 11  2  0
  6  7  1  0
  7  9  1  0
  7  8  1  1
  9 10  2  0
 12 11  1  0
 13 14  1  0
 13  9  1  0
 14 21  1  0
 14 15  1  6
 16 15  1  0
 17 16  2  0
 18 17  1  0
 19 18  1  0
 19 20  2  0
 20 16  1  0
 21 22  2  0
 21 23  1  0
 23 24  1  0
 24 25  1  0
 25 27  1  0
 26 25  2  0
M  END
$$$$
