ICF.pdb
     RDKit          3D

 26 26  0  0  1  0  0  0  0  0999 V2000
    9.7865  -21.5894   17.8613 C   0  0  0  0  0  0  0  0  0  0  0  0
    9.7986  -21.1528   19.2871 C   0  0  0  0  0  0  0  0  0  0  0  0
    9.8129  -19.6747   19.4956 C   0  0  2  0  0  0  0  0  0  0  0  0
   10.8864  -18.9512   18.7531 C   0  0  0  0  0  0  0  0  0  0  0  0
    9.8579  -19.3031   20.9719 C   0  0  2  0  0  0  0  0  0  0  0  0
    8.7249  -19.9486   21.6093 N   0  0  0  0  0  0  0  0  0  0  0  0
    9.6695  -17.8176   21.1305 C   0  0  0  0  0  0  0  0  0  0  0  0
   10.4775  -16.9924   20.6279 O   0  0  0  0  0  0  0  0  0  0  0  0
    8.5695  -17.2858   21.8557 N   0  0  0  0  0  0  0  0  0  0  0  0
    8.3066  -15.8859   22.0129 C   0  0  1  0  0  0  0  0  0  0  0  0
    6.8266  -15.5881   22.1516 C   0  0  0  0  0  0  0  0  0  0  0  0
    6.5420  -13.8018   22.1322 S   0  0  0  0  0  0  0  0  0  0  0  0
    9.0546  -15.2675   23.1192 C   0  0  0  0  0  0  0  0  0  0  0  0
    9.1529  -14.0208   23.1654 O   0  0  0  0  0  0  0  0  0  0  0  0
    9.6745  -16.0195   24.1440 N   0  0  0  0  0  0  0  0  0  0  0  0
    9.4116  -15.7612   25.5240 C   0  0  1  0  0  0  0  0  0  0  0  0
    7.9162  -15.5837   25.7459 C   0  0  0  0  0  0  0  0  0  0  0  0
    7.5719  -14.1842   26.0635 C   0  0  0  0  0  0  0  0  0  0  0  0
    8.5697  -13.2919   26.4037 C   0  0  0  0  0  0  0  0  0  0  0  0
    8.3023  -11.9704   26.7100 C   0  0  0  0  0  0  0  0  0  0  0  0
    6.9889  -11.5642   26.6646 C   0  0  0  0  0  0  0  0  0  0  0  0
    5.9858  -12.4576   26.3235 C   0  0  0  0  0  0  0  0  0  0  0  0
    6.2550  -13.7755   26.0183 C   0  0  0  0  0  0  0  0  0  0  0  0
    9.9992  -16.7345   26.4423 C   0  0  0  0  0  0  0  0  0  0  0  0
    9.9121  -18.1002   26.2429 O   0  0  0  0  0  0  0  0  0  0  0  0
   10.6114  -16.3316   27.4584 O   0  0  0  0  0  0  0  0  0  0  0  0
  2  1  1  0
  3  2  1  0
  3  4  1  6
  5  6  1  1
  5  3  1  0
  7  5  1  0
  8  7  2  0
  9  7  1  0
 10 11  1  1
 10  9  1  0
 11 12  1  0
 13 14  2  0
 13 10  1  0
 15 13  1  0
 16 15  1  0
 17 18  1  0
 16 17  1  6
 18 19  2  0
 19 20  1  0
 21 20  2  0
 22 21  1  0
 23 18  1  0
 23 22  2  0
 24 16  1  0
 24 25  1  0
 26 24  2  0
M  END
$$$$
