ICF.pdb
     RDKit          3D

 26 26  0  0  1  0  0  0  0  0999 V2000
    7.6754  -11.9856   18.9328 C   0  0  0  0  0  0  0  0  0  0  0  0
    8.3874  -13.2954   18.9700 C   0  0  0  0  0  0  0  0  0  0  0  0
    8.1337  -14.1184   20.1893 C   0  0  2  0  0  0  0  0  0  0  0  0
    8.4635  -13.4413   21.4777 C   0  0  0  0  0  0  0  0  0  0  0  0
    8.8235  -15.4745   20.1208 C   0  0  2  0  0  0  0  0  0  0  0  0
    8.2706  -16.1775   18.9776 N   0  0  0  0  0  0  0  0  0  0  0  0
    8.4842  -16.2824   21.3453 C   0  0  0  0  0  0  0  0  0  0  0  0
    7.6625  -17.2360   21.3002 O   0  0  0  0  0  0  0  0  0  0  0  0
    9.0791  -16.0007   22.6044 N   0  0  0  0  0  0  0  0  0  0  0  0
    9.0545  -16.8913   23.7268 C   0  0  1  0  0  0  0  0  0  0  0  0
    9.5657  -18.2752   23.3775 C   0  0  0  0  0  0  0  0  0  0  0  0
    9.5240  -19.3453   24.8353 S   0  0  0  0  0  0  0  0  0  0  0  0
    9.7644  -16.3709   24.9063 C   0  0  0  0  0  0  0  0  0  0  0  0
   10.9630  -16.0295   24.7935 O   0  0  0  0  0  0  0  0  0  0  0  0
    9.1534  -16.2358   26.1745 N   0  0  0  0  0  0  0  0  0  0  0  0
    9.8610  -15.6949   27.2912 C   0  0  1  0  0  0  0  0  0  0  0  0
    8.9250  -14.8472   28.1411 C   0  0  0  0  0  0  0  0  0  0  0  0
    8.2015  -13.8492   27.3297 C   0  0  0  0  0  0  0  0  0  0  0  0
    8.8002  -12.6403   27.0339 C   0  0  0  0  0  0  0  0  0  0  0  0
    8.1673  -11.6708   26.2781 C   0  0  0  0  0  0  0  0  0  0  0  0
    6.9005  -11.9521   25.8217 C   0  0  0  0  0  0  0  0  0  0  0  0
    6.2974  -13.1644   26.1171 C   0  0  0  0  0  0  0  0  0  0  0  0
    6.9309  -14.1301   26.8713 C   0  0  0  0  0  0  0  0  0  0  0  0
   10.5874  -16.6860   28.0823 C   0  0  0  0  0  0  0  0  0  0  0  0
   11.4946  -16.3399   29.0672 O   0  0  0  0  0  0  0  0  0  0  0  0
   10.3921  -17.9055   27.8723 O   0  0  0  0  0  0  0  0  0  0  0  0
  2  1  1  0
  3  2  1  0
  3  4  1  1
  5  6  1  6
  5  3  1  0
  7  5  1  0
  8  7  2  0
  9  7  1  0
 10 11  1  6
 10  9  1  0
 11 12  1  0
 13 14  2  0
 13 10  1  0
 15 13  1  0
 16 15  1  0
 17 18  1  0
 16 17  1  1
 18 19  2  0
 19 20  1  0
 21 20  2  0
 22 21  1  0
 23 18  1  0
 23 22  2  0
 24 16  1  0
 24 25  1  0
 26 24  2  0
M  END
$$$$
