ICF.pdb
     RDKit          3D

 26 26  0  0  1  0  0  0  0  0999 V2000
    7.2637  -12.2535   20.5731 C   0  0  0  0  0  0  0  0  0  0  0  0
    7.5826  -13.6135   20.0512 C   0  0  0  0  0  0  0  0  0  0  0  0
    8.9644  -13.7748   19.5096 C   0  0  2  0  0  0  0  0  0  0  0  0
    9.3210  -12.8214   18.4183 C   0  0  0  0  0  0  0  0  0  0  0  0
    9.2442  -15.2046   19.0659 C   0  0  2  0  0  0  0  0  0  0  0  0
    8.3387  -15.4962   17.9696 N   0  0  0  0  0  0  0  0  0  0  0  0
    8.9124  -16.1598   20.1816 C   0  0  0  0  0  0  0  0  0  0  0  0
    7.7600  -16.6519   20.3084 O   0  0  0  0  0  0  0  0  0  0  0  0
    9.8890  -16.5453   21.1388 N   0  0  0  0  0  0  0  0  0  0  0  0
    9.6263  -17.3918   22.2649 C   0  0  1  0  0  0  0  0  0  0  0  0
   10.5259  -18.6119   22.2927 C   0  0  0  0  0  0  0  0  0  0  0  0
   10.1175  -19.6596   23.7096 S   0  0  0  0  0  0  0  0  0  0  0  0
    9.6853  -16.6883   23.5561 C   0  0  0  0  0  0  0  0  0  0  0  0
   10.7002  -16.0110   23.8342 O   0  0  0  0  0  0  0  0  0  0  0  0
    8.6414  -16.7396   24.5088 N   0  0  0  0  0  0  0  0  0  0  0  0
    8.7524  -16.0881   25.7751 C   0  0  1  0  0  0  0  0  0  0  0  0
    7.3691  -15.7366   26.3040 C   0  0  0  0  0  0  0  0  0  0  0  0
    7.1054  -14.2866   26.2269 C   0  0  0  0  0  0  0  0  0  0  0  0
    8.1499  -13.3913   26.3498 C   0  0  0  0  0  0  0  0  0  0  0  0
    7.9584  -12.0235   26.2850 C   0  0  0  0  0  0  0  0  0  0  0  0
    6.6730  -11.5736   26.0910 C   0  0  0  0  0  0  0  0  0  0  0  0
    5.6233  -12.4699   25.9674 C   0  0  0  0  0  0  0  0  0  0  0  0
    5.8167  -13.8341   26.0323 C   0  0  0  0  0  0  0  0  0  0  0  0
    9.5568  -16.8122   26.7573 C   0  0  0  0  0  0  0  0  0  0  0  0
   10.2267  -16.1805   27.7892 O   0  0  0  0  0  0  0  0  0  0  0  0
    9.6544  -18.0585   26.6756 O   0  0  0  0  0  0  0  0  0  0  0  0
  2  1  1  0
  3  2  1  0
  3  4  1  6
  5  6  1  6
  5  3  1  0
  7  5  1  0
  8  7  2  0
  9  7  1  0
 10 11  1  1
 10  9  1  0
 11 12  1  0
 13 14  2  0
 13 10  1  0
 15 13  1  0
 16 15  1  0
 17 18  1  0
 16 17  1  1
 18 19  2  0
 19 20  1  0
 21 20  2  0
 22 21  1  0
 23 18  1  0
 23 22  2  0
 24 16  1  0
 24 25  1  0
 26 24  2  0
M  END
$$$$
