ICF.pdb
     RDKit          3D

 26 26  0  0  1  0  0  0  0  0999 V2000
    7.2481  -11.9505   19.4992 C   0  0  0  0  0  0  0  0  0  0  0  0
    7.8194  -13.3245   19.4026 C   0  0  0  0  0  0  0  0  0  0  0  0
    7.7911  -14.1115   20.6708 C   0  0  2  0  0  0  0  0  0  0  0  0
    8.3618  -13.4053   21.8552 C   0  0  0  0  0  0  0  0  0  0  0  0
    8.4441  -15.4784   20.5134 C   0  0  2  0  0  0  0  0  0  0  0  0
    7.6854  -16.2009   19.5089 N   0  0  0  0  0  0  0  0  0  0  0  0
    8.3262  -16.2518   21.8000 C   0  0  0  0  0  0  0  0  0  0  0  0
    7.2230  -16.7156   22.1927 O   0  0  0  0  0  0  0  0  0  0  0  0
    9.4582  -16.4901   22.6249 N   0  0  0  0  0  0  0  0  0  0  0  0
    9.4078  -17.1559   23.8929 C   0  0  1  0  0  0  0  0  0  0  0  0
   10.0886  -18.5102   23.8618 C   0  0  0  0  0  0  0  0  0  0  0  0
   11.6419  -18.4099   22.9403 S   0  0  0  0  0  0  0  0  0  0  0  0
    9.9367  -16.3475   25.0032 C   0  0  0  0  0  0  0  0  0  0  0  0
   10.9483  -15.6367   24.8102 O   0  0  0  0  0  0  0  0  0  0  0  0
    9.3527  -16.3334   26.2911 N   0  0  0  0  0  0  0  0  0  0  0  0
    9.9375  -15.6009   27.3689 C   0  0  1  0  0  0  0  0  0  0  0  0
    8.8588  -14.8451   28.1319 C   0  0  0  0  0  0  0  0  0  0  0  0
    8.1977  -13.8322   27.2863 C   0  0  0  0  0  0  0  0  0  0  0  0
    6.9819  -14.1177   26.6967 C   0  0  0  0  0  0  0  0  0  0  0  0
    6.3198  -13.2054   25.8959 C   0  0  0  0  0  0  0  0  0  0  0  0
    6.9199  -11.9830   25.7010 C   0  0  0  0  0  0  0  0  0  0  0  0
    8.1399  -11.6941   26.2915 C   0  0  0  0  0  0  0  0  0  0  0  0
    8.7984  -12.6059   27.0901 C   0  0  0  0  0  0  0  0  0  0  0  0
   10.7869  -16.3997   28.2501 C   0  0  0  0  0  0  0  0  0  0  0  0
   11.6265  -15.8366   29.1938 O   0  0  0  0  0  0  0  0  0  0  0  0
   10.7659  -17.6491   28.1599 O   0  0  0  0  0  0  0  0  0  0  0  0
  2  1  1  0
  3  2  1  0
  3  4  1  1
  5  6  1  6
  5  3  1  0
  7  5  1  0
  8  7  2  0
  9  7  1  0
 10 11  1  6
 10  9  1  0
 11 12  1  0
 13 14  2  0
 13 10  1  0
 15 13  1  0
 16 15  1  0
 17 18  1  0
 16 17  1  1
 18 19  2  0
 19 20  1  0
 21 20  2  0
 22 21  1  0
 23 18  1  0
 23 22  2  0
 24 16  1  0
 24 25  1  0
 26 24  2  0
M  END
$$$$
