ICF.pdb
     RDKit          3D

 26 26  0  0  1  0  0  0  0  0999 V2000
    8.4294  -12.3352   21.4592 C   0  0  0  0  0  0  0  0  0  0  0  0
    7.7960  -13.6699   21.6618 C   0  0  0  0  0  0  0  0  0  0  0  0
    8.0091  -14.6457   20.5524 C   0  0  2  0  0  0  0  0  0  0  0  0
    7.6587  -14.1326   19.1955 C   0  0  0  0  0  0  0  0  0  0  0  0
    7.3018  -15.9700   20.8083 C   0  0  2  0  0  0  0  0  0  0  0  0
    6.0166  -15.6589   21.4069 N   0  0  0  0  0  0  0  0  0  0  0  0
    8.0771  -16.7767   21.8159 C   0  0  0  0  0  0  0  0  0  0  0  0
    8.2044  -18.0249   21.7051 O   0  0  0  0  0  0  0  0  0  0  0  0
    8.6980  -16.1604   22.9354 N   0  0  0  0  0  0  0  0  0  0  0  0
    9.4632  -16.8626   23.9228 C   0  0  1  0  0  0  0  0  0  0  0  0
   10.6555  -17.5832   23.3247 C   0  0  0  0  0  0  0  0  0  0  0  0
   11.6268  -18.3767   24.6281 S   0  0  0  0  0  0  0  0  0  0  0  0
    9.8939  -16.0145   25.0458 C   0  0  0  0  0  0  0  0  0  0  0  0
   10.7037  -15.0851   24.8308 O   0  0  0  0  0  0  0  0  0  0  0  0
    9.4335  -16.1991   26.3702 N   0  0  0  0  0  0  0  0  0  0  0  0
    9.9479  -15.4253   27.4550 C   0  0  1  0  0  0  0  0  0  0  0  0
    8.8306  -14.6093   28.0896 C   0  0  0  0  0  0  0  0  0  0  0  0
    8.1481  -13.7528   27.1004 C   0  0  0  0  0  0  0  0  0  0  0  0
    8.5607  -12.4469   26.9221 C   0  0  0  0  0  0  0  0  0  0  0  0
    7.9565  -11.6021   26.0093 C   0  0  0  0  0  0  0  0  0  0  0  0
    6.9133  -12.1112   25.2711 C   0  0  0  0  0  0  0  0  0  0  0  0
    6.4974  -13.4212   25.4482 C   0  0  0  0  0  0  0  0  0  0  0  0
    7.1017  -14.2621   26.3594 C   0  0  0  0  0  0  0  0  0  0  0  0
   10.7035  -16.1959   28.4404 C   0  0  0  0  0  0  0  0  0  0  0  0
   10.8199  -17.5729   28.3855 O   0  0  0  0  0  0  0  0  0  0  0  0
   11.2763  -15.5995   29.3816 O   0  0  0  0  0  0  0  0  0  0  0  0
  2  1  1  0
  3  2  1  0
  3  4  1  6
  5  6  1  1
  5  3  1  0
  7  5  1  0
  8  7  2  0
  9  7  1  0
 10 11  1  6
 10  9  1  0
 11 12  1  0
 13 14  2  0
 13 10  1  0
 15 13  1  0
 16 15  1  0
 17 18  1  0
 16 17  1  1
 18 19  2  0
 19 20  1  0
 21 20  2  0
 22 21  1  0
 23 18  1  0
 23 22  2  0
 24 16  1  0
 24 25  1  0
 26 24  2  0
M  END
$$$$
