ICF.pdb
     RDKit          3D

 26 26  0  0  1  0  0  0  0  0999 V2000
    8.2043  -11.9437   18.6382 C   0  0  0  0  0  0  0  0  0  0  0  0
    8.2558  -13.4336   18.6751 C   0  0  0  0  0  0  0  0  0  0  0  0
    7.9150  -14.0455   19.9934 C   0  0  2  0  0  0  0  0  0  0  0  0
    8.6962  -13.5130   21.1481 C   0  0  0  0  0  0  0  0  0  0  0  0
    8.0021  -15.5656   19.9609 C   0  0  2  0  0  0  0  0  0  0  0  0
    7.0201  -16.0290   18.9977 N   0  0  0  0  0  0  0  0  0  0  0  0
    7.6092  -16.1284   21.3011 C   0  0  0  0  0  0  0  0  0  0  0  0
    6.4996  -16.6975   21.4785 O   0  0  0  0  0  0  0  0  0  0  0  0
    8.4769  -16.0398   22.4227 N   0  0  0  0  0  0  0  0  0  0  0  0
    8.4433  -16.9332   23.5427 C   0  0  1  0  0  0  0  0  0  0  0  0
    8.5582  -18.3864   23.1261 C   0  0  0  0  0  0  0  0  0  0  0  0
    8.4023  -19.4663   24.5688 S   0  0  0  0  0  0  0  0  0  0  0  0
    9.4446  -16.6204   24.5748 C   0  0  0  0  0  0  0  0  0  0  0  0
   10.4564  -17.3490   24.6815 O   0  0  0  0  0  0  0  0  0  0  0  0
    9.3195  -15.5260   25.4617 N   0  0  0  0  0  0  0  0  0  0  0  0
    9.4515  -15.6900   26.8745 C   0  0  1  0  0  0  0  0  0  0  0  0
    8.1192  -15.4173   27.5582 C   0  0  0  0  0  0  0  0  0  0  0  0
    7.5389  -14.1288   27.1324 C   0  0  0  0  0  0  0  0  0  0  0  0
    8.3704  -13.0897   26.7638 C   0  0  0  0  0  0  0  0  0  0  0  0
    7.8794  -11.8627   26.3571 C   0  0  0  0  0  0  0  0  0  0  0  0
    6.5130  -11.7061   26.3304 C   0  0  0  0  0  0  0  0  0  0  0  0
    5.6764  -12.7473   26.6998 C   0  0  0  0  0  0  0  0  0  0  0  0
    6.1686  -13.9704   27.1052 C   0  0  0  0  0  0  0  0  0  0  0  0
   10.0353  -16.9666   27.2815 C   0  0  0  0  0  0  0  0  0  0  0  0
    9.4815  -18.1867   26.9391 O   0  0  0  0  0  0  0  0  0  0  0  0
   11.0818  -16.9740   27.9701 O   0  0  0  0  0  0  0  0  0  0  0  0
  2  1  1  0
  3  2  1  0
  3  4  1  1
  5  6  1  6
  5  3  1  0
  7  5  1  0
  8  7  2  0
  9  7  1  0
 10 11  1  6
 10  9  1  0
 11 12  1  0
 13 14  2  0
 13 10  1  0
 15 13  1  0
 16 15  1  0
 17 18  1  0
 16 17  1  1
 18 19  2  0
 19 20  1  0
 21 20  2  0
 22 21  1  0
 23 18  1  0
 23 22  2  0
 24 16  1  0
 24 25  1  0
 26 24  2  0
M  END
$$$$
