ICF.pdb
     RDKit          3D

 26 26  0  0  1  0  0  0  0  0999 V2000
    1.8303  -19.6048   22.0586 C   0  0  0  0  0  0  0  0  0  0  0  0
    2.5951  -18.8514   21.0236 C   0  0  0  0  0  0  0  0  0  0  0  0
    4.0030  -18.5210   21.3937 C   0  0  2  0  0  0  0  0  0  0  0  0
    4.1484  -17.7421   22.6583 C   0  0  0  0  0  0  0  0  0  0  0  0
    4.7457  -17.8227   20.2623 C   0  0  2  0  0  0  0  0  0  0  0  0
    4.7403  -18.7263   19.1263 N   0  0  0  0  0  0  0  0  0  0  0  0
    6.1843  -17.6080   20.6517 C   0  0  0  0  0  0  0  0  0  0  0  0
    7.0606  -18.4909   20.4539 O   0  0  0  0  0  0  0  0  0  0  0  0
    6.6122  -16.3972   21.2597 N   0  0  0  0  0  0  0  0  0  0  0  0
    7.9676  -16.1134   21.6285 C   0  0  1  0  0  0  0  0  0  0  0  0
    8.6329  -15.1380   20.6775 C   0  0  0  0  0  0  0  0  0  0  0  0
    7.5451  -13.7271   20.3644 S   0  0  0  0  0  0  0  0  0  0  0  0
    8.1143  -15.6485   23.0170 C   0  0  0  0  0  0  0  0  0  0  0  0
    7.3379  -14.7671   23.4489 O   0  0  0  0  0  0  0  0  0  0  0  0
    9.0993  -16.1531   23.8975 N   0  0  0  0  0  0  0  0  0  0  0  0
    9.0998  -15.8224   25.2871 C   0  0  1  0  0  0  0  0  0  0  0  0
    7.6707  -15.6556   25.7841 C   0  0  0  0  0  0  0  0  0  0  0  0
    7.3786  -14.2565   26.1520 C   0  0  0  0  0  0  0  0  0  0  0  0
    6.1223  -13.7330   25.9176 C   0  0  0  0  0  0  0  0  0  0  0  0
    5.7957  -12.4294   26.2427 C   0  0  0  0  0  0  0  0  0  0  0  0
    6.7778  -11.6561   26.8171 C   0  0  0  0  0  0  0  0  0  0  0  0
    8.0392  -12.1791   27.0534 C   0  0  0  0  0  0  0  0  0  0  0  0
    8.3627  -13.4800   26.7281 C   0  0  0  0  0  0  0  0  0  0  0  0
    9.8776  -16.7340   26.1236 C   0  0  0  0  0  0  0  0  0  0  0  0
   10.5323  -17.8417   25.6167 O   0  0  0  0  0  0  0  0  0  0  0  0
    9.9654  -16.5176   27.3545 O   0  0  0  0  0  0  0  0  0  0  0  0
  2  1  1  0
  3  2  1  0
  3  4  1  1
  5  6  1  6
  5  3  1  0
  7  5  1  0
  8  7  2  0
  9  7  1  0
 10 11  1  6
 10  9  1  0
 11 12  1  0
 13 14  2  0
 13 10  1  0
 15 13  1  0
 16 15  1  0
 17 18  1  0
 16 17  1  1
 18 19  2  0
 19 20  1  0
 21 20  2  0
 22 21  1  0
 23 18  1  0
 23 22  2  0
 24 16  1  0
 24 25  1  0
 26 24  2  0
M  END
$$$$
