ICF.pdb
     RDKit          3D

 26 26  0  0  1  0  0  0  0  0999 V2000
    7.6444  -11.6686   19.4517 C   0  0  0  0  0  0  0  0  0  0  0  0
    7.8857  -13.1274   19.2583 C   0  0  0  0  0  0  0  0  0  0  0  0
    7.8034  -13.9519   20.5000 C   0  0  2  0  0  0  0  0  0  0  0  0
    8.6985  -13.5029   21.6065 C   0  0  0  0  0  0  0  0  0  0  0  0
    8.0207  -15.4334   20.2215 C   0  0  2  0  0  0  0  0  0  0  0  0
    6.9397  -15.8680   19.3558 N   0  0  0  0  0  0  0  0  0  0  0  0
    7.9055  -16.2161   21.5026 C   0  0  0  0  0  0  0  0  0  0  0  0
    6.7895  -16.4362   22.0436 O   0  0  0  0  0  0  0  0  0  0  0  0
    9.0544  -16.7394   22.1544 N   0  0  0  0  0  0  0  0  0  0  0  0
    9.0205  -17.4781   23.3819 C   0  0  1  0  0  0  0  0  0  0  0  0
    9.7158  -18.8205   23.2677 C   0  0  0  0  0  0  0  0  0  0  0  0
    9.5608  -19.7405   24.8174 S   0  0  0  0  0  0  0  0  0  0  0  0
    9.5485  -16.7294   24.5337 C   0  0  0  0  0  0  0  0  0  0  0  0
   10.6835  -16.2087   24.4523 O   0  0  0  0  0  0  0  0  0  0  0  0
    8.8299  -16.5670   25.7408 N   0  0  0  0  0  0  0  0  0  0  0  0
    9.4134  -15.9294   26.8780 C   0  0  1  0  0  0  0  0  0  0  0  0
    8.3359  -15.2282   27.6930 C   0  0  0  0  0  0  0  0  0  0  0  0
    7.8200  -14.0301   27.0028 C   0  0  0  0  0  0  0  0  0  0  0  0
    6.4794  -13.9467   26.6816 C   0  0  0  0  0  0  0  0  0  0  0  0
    5.9442  -12.8476   26.0356 C   0  0  0  0  0  0  0  0  0  0  0  0
    6.8031  -11.8215   25.7168 C   0  0  0  0  0  0  0  0  0  0  0  0
    8.1488  -11.9027   26.0380 C   0  0  0  0  0  0  0  0  0  0  0  0
    8.6804  -13.0003   26.6825 C   0  0  0  0  0  0  0  0  0  0  0  0
   10.2499  -16.8045   27.6968 C   0  0  0  0  0  0  0  0  0  0  0  0
   10.4066  -18.1530   27.4329 O   0  0  0  0  0  0  0  0  0  0  0  0
   10.8580  -16.3292   28.6836 O   0  0  0  0  0  0  0  0  0  0  0  0
  2  1  1  0
  3  2  1  0
  3  4  1  1
  5  6  1  6
  5  3  1  0
  7  5  1  0
  8  7  2  0
  9  7  1  0
 10 11  1  6
 10  9  1  0
 11 12  1  0
 13 14  2  0
 13 10  1  0
 15 13  1  0
 16 15  1  0
 17 18  1  0
 16 17  1  1
 18 19  2  0
 19 20  1  0
 21 20  2  0
 22 21  1  0
 23 18  1  0
 23 22  2  0
 24 16  1  0
 24 25  1  0
 26 24  2  0
M  END
$$$$
