ICF.pdb
     RDKit          3D

 26 26  0  0  1  0  0  0  0  0999 V2000
    7.2263  -12.0564   18.8098 C   0  0  0  0  0  0  0  0  0  0  0  0
    8.0381  -13.2833   18.5660 C   0  0  0  0  0  0  0  0  0  0  0  0
    8.0690  -14.2562   19.6979 C   0  0  2  0  0  0  0  0  0  0  0  0
    8.5179  -13.6825   21.0004 C   0  0  0  0  0  0  0  0  0  0  0  0
    8.8851  -15.4983   19.3656 C   0  0  2  0  0  0  0  0  0  0  0  0
    8.2338  -16.1497   18.2439 N   0  0  0  0  0  0  0  0  0  0  0  0
    8.8440  -16.4609   20.5228 C   0  0  0  0  0  0  0  0  0  0  0  0
    8.2881  -17.5870   20.4252 O   0  0  0  0  0  0  0  0  0  0  0  0
    9.4323  -16.1367   21.7747 N   0  0  0  0  0  0  0  0  0  0  0  0
    9.7177  -17.0914   22.8046 C   0  0  1  0  0  0  0  0  0  0  0  0
   10.3343  -18.3639   22.2579 C   0  0  0  0  0  0  0  0  0  0  0  0
   10.3501  -19.6497   23.5302 S   0  0  0  0  0  0  0  0  0  0  0  0
   10.5485  -16.5518   23.8930 C   0  0  0  0  0  0  0  0  0  0  0  0
   11.4240  -15.6989   23.6247 O   0  0  0  0  0  0  0  0  0  0  0  0
   10.4055  -16.9530   25.2415 N   0  0  0  0  0  0  0  0  0  0  0  0
    9.6015  -16.2119   26.1606 C   0  0  1  0  0  0  0  0  0  0  0  0
    8.3520  -15.6952   25.4617 C   0  0  0  0  0  0  0  0  0  0  0  0
    7.9369  -14.3789   25.9843 C   0  0  0  0  0  0  0  0  0  0  0  0
    6.6199  -13.9792   25.8704 C   0  0  0  0  0  0  0  0  0  0  0  0
    6.1780  -12.7571   26.3428 C   0  0  0  0  0  0  0  0  0  0  0  0
    7.1068  -11.9370   26.9403 C   0  0  0  0  0  0  0  0  0  0  0  0
    8.4290  -12.3357   27.0558 C   0  0  0  0  0  0  0  0  0  0  0  0
    8.8675  -13.5554   26.5838 C   0  0  0  0  0  0  0  0  0  0  0  0
    9.2930  -16.9217   27.4003 C   0  0  0  0  0  0  0  0  0  0  0  0
    9.0180  -18.2765   27.4394 O   0  0  0  0  0  0  0  0  0  0  0  0
    9.2725  -16.2912   28.4827 O   0  0  0  0  0  0  0  0  0  0  0  0
  2  1  1  0
  3  2  1  0
  3  4  1  1
  5  6  1  6
  5  3  1  0
  7  5  1  0
  8  7  2  0
  9  7  1  0
 10 11  1  6
 10  9  1  0
 11 12  1  0
 13 14  2  0
 13 10  1  0
 15 13  1  0
 16 15  1  0
 17 18  1  0
 16 17  1  6
 18 19  2  0
 19 20  1  0
 21 20  2  0
 22 21  1  0
 23 18  1  0
 23 22  2  0
 24 16  1  0
 24 25  1  0
 26 24  2  0
M  END
$$$$
