ICF.pdb
     RDKit          3D

 26 26  0  0  1  0  0  0  0  0999 V2000
    8.6096  -12.4037   18.7671 C   0  0  0  0  0  0  0  0  0  0  0  0
    7.3107  -12.7799   19.3959 C   0  0  0  0  0  0  0  0  0  0  0  0
    7.4229  -13.6257   20.6208 C   0  0  2  0  0  0  0  0  0  0  0  0
    8.2444  -13.0309   21.7155 C   0  0  0  0  0  0  0  0  0  0  0  0
    7.9140  -15.0322   20.3048 C   0  0  2  0  0  0  0  0  0  0  0  0
    7.0109  -15.5870   19.3131 N   0  0  0  0  0  0  0  0  0  0  0  0
    7.8101  -15.8973   21.5329 C   0  0  0  0  0  0  0  0  0  0  0  0
    6.7183  -16.0504   22.1421 O   0  0  0  0  0  0  0  0  0  0  0  0
    8.9428  -16.5776   22.0552 N   0  0  0  0  0  0  0  0  0  0  0  0
    8.9246  -17.3874   23.2374 C   0  0  1  0  0  0  0  0  0  0  0  0
    9.6276  -18.7158   23.0386 C   0  0  0  0  0  0  0  0  0  0  0  0
    9.5135  -19.7165   24.5412 S   0  0  0  0  0  0  0  0  0  0  0  0
    9.4579  -16.7040   24.4267 C   0  0  0  0  0  0  0  0  0  0  0  0
   10.5854  -16.1646   24.3642 O   0  0  0  0  0  0  0  0  0  0  0  0
    8.7526  -16.6252   25.6499 N   0  0  0  0  0  0  0  0  0  0  0  0
    9.3560  -16.0866   26.8273 C   0  0  1  0  0  0  0  0  0  0  0  0
    8.3072  -15.3802   27.6746 C   0  0  0  0  0  0  0  0  0  0  0  0
    7.8176  -14.1485   27.0254 C   0  0  0  0  0  0  0  0  0  0  0  0
    6.5684  -14.1327   26.4367 C   0  0  0  0  0  0  0  0  0  0  0  0
    6.0616  -13.0061   25.8155 C   0  0  0  0  0  0  0  0  0  0  0  0
    6.8538  -11.8816   25.8017 C   0  0  0  0  0  0  0  0  0  0  0  0
    8.1077  -11.8949   26.3917 C   0  0  0  0  0  0  0  0  0  0  0  0
    8.6111  -13.0200   27.0108 C   0  0  0  0  0  0  0  0  0  0  0  0
   10.1385  -17.0502   27.5987 C   0  0  0  0  0  0  0  0  0  0  0  0
   10.9675  -16.6785   28.6414 O   0  0  0  0  0  0  0  0  0  0  0  0
   10.0669  -18.2687   27.3168 O   0  0  0  0  0  0  0  0  0  0  0  0
  2  1  1  0
  3  2  1  0
  3  4  1  1
  5  6  1  6
  5  3  1  0
  7  5  1  0
  8  7  2  0
  9  7  1  0
 10 11  1  6
 10  9  1  0
 11 12  1  0
 13 14  2  0
 13 10  1  0
 15 13  1  0
 16 15  1  0
 17 18  1  0
 16 17  1  1
 18 19  2  0
 19 20  1  0
 21 20  2  0
 22 21  1  0
 23 18  1  0
 23 22  2  0
 24 16  1  0
 24 25  1  0
 26 24  2  0
M  END
$$$$
