ICF.pdb
     RDKit          3D

 26 26  0  0  1  0  0  0  0  0999 V2000
    8.8606  -11.8438   18.9718 C   0  0  0  0  0  0  0  0  0  0  0  0
    7.7915  -12.8673   18.7897 C   0  0  0  0  0  0  0  0  0  0  0  0
    7.5691  -13.7647   19.9617 C   0  0  2  0  0  0  0  0  0  0  0  0
    7.8178  -13.1293   21.2889 C   0  0  0  0  0  0  0  0  0  0  0  0
    8.3571  -15.0631   19.8487 C   0  0  2  0  0  0  0  0  0  0  0  0
    7.8971  -15.7387   18.6493 N   0  0  0  0  0  0  0  0  0  0  0  0
    8.0341  -15.9596   21.0146 C   0  0  0  0  0  0  0  0  0  0  0  0
    6.9064  -16.5081   21.1329 O   0  0  0  0  0  0  0  0  0  0  0  0
    8.9912  -16.2234   22.0310 N   0  0  0  0  0  0  0  0  0  0  0  0
    8.7341  -17.0167   23.1964 C   0  0  1  0  0  0  0  0  0  0  0  0
    9.1696  -18.4583   23.0215 C   0  0  0  0  0  0  0  0  0  0  0  0
   10.9189  -18.5341   22.5674 S   0  0  0  0  0  0  0  0  0  0  0  0
    9.3136  -16.4575   24.4282 C   0  0  0  0  0  0  0  0  0  0  0  0
   10.4085  -15.8547   24.3664 O   0  0  0  0  0  0  0  0  0  0  0  0
    8.6885  -16.5681   25.6918 N   0  0  0  0  0  0  0  0  0  0  0  0
    9.3325  -16.1215   26.8860 C   0  0  1  0  0  0  0  0  0  0  0  0
    8.3259  -15.4290   27.7939 C   0  0  0  0  0  0  0  0  0  0  0  0
    7.7110  -14.2588   27.1378 C   0  0  0  0  0  0  0  0  0  0  0  0
    8.3566  -13.0383   27.1653 C   0  0  0  0  0  0  0  0  0  0  0  0
    7.8251  -11.9108   26.5668 C   0  0  0  0  0  0  0  0  0  0  0  0
    6.6121  -12.0444   25.9319 C   0  0  0  0  0  0  0  0  0  0  0  0
    5.9622  -13.2681   25.9029 C   0  0  0  0  0  0  0  0  0  0  0  0
    6.4945  -14.3915   26.5007 C   0  0  0  0  0  0  0  0  0  0  0  0
   10.0928  -17.1561   27.5842 C   0  0  0  0  0  0  0  0  0  0  0  0
   10.0939  -18.4810   27.1879 O   0  0  0  0  0  0  0  0  0  0  0  0
   10.7779  -16.8468   28.5864 O   0  0  0  0  0  0  0  0  0  0  0  0
  2  1  1  0
  3  2  1  0
  3  4  1  1
  5  6  1  6
  5  3  1  0
  7  5  1  0
  8  7  2  0
  9  7  1  0
 10 11  1  6
 10  9  1  0
 11 12  1  0
 13 14  2  0
 13 10  1  0
 15 13  1  0
 16 15  1  0
 17 18  1  0
 16 17  1  1
 18 19  2  0
 19 20  1  0
 21 20  2  0
 22 21  1  0
 23 18  1  0
 23 22  2  0
 24 16  1  0
 24 25  1  0
 26 24  2  0
M  END
$$$$
