ICF.pdb
     RDKit          3D

 26 26  0  0  1  0  0  0  0  0999 V2000
    7.6267  -11.8566   19.5056 C   0  0  0  0  0  0  0  0  0  0  0  0
    7.8985  -13.3228   19.5112 C   0  0  0  0  0  0  0  0  0  0  0  0
    7.8592  -13.9680   20.8568 C   0  0  2  0  0  0  0  0  0  0  0  0
    8.7883  -13.3717   21.8610 C   0  0  0  0  0  0  0  0  0  0  0  0
    8.0722  -15.4740   20.7784 C   0  0  2  0  0  0  0  0  0  0  0  0
    6.9994  -16.0150   19.9640 N   0  0  0  0  0  0  0  0  0  0  0  0
    7.9376  -16.0808   22.1498 C   0  0  0  0  0  0  0  0  0  0  0  0
    6.8114  -16.2606   22.6846 O   0  0  0  0  0  0  0  0  0  0  0  0
    9.0790  -16.4763   22.8978 N   0  0  0  0  0  0  0  0  0  0  0  0
    9.0281  -17.0168   24.2241 C   0  0  1  0  0  0  0  0  0  0  0  0
    9.5557  -18.4366   24.2899 C   0  0  0  0  0  0  0  0  0  0  0  0
   10.9810  -18.6272   23.1925 S   0  0  0  0  0  0  0  0  0  0  0  0
    9.7026  -16.1778   25.2275 C   0  0  0  0  0  0  0  0  0  0  0  0
   10.7764  -15.6112   24.9243 O   0  0  0  0  0  0  0  0  0  0  0  0
    9.1927  -15.9773   26.5312 N   0  0  0  0  0  0  0  0  0  0  0  0
    9.9129  -15.2236   27.5078 C   0  0  1  0  0  0  0  0  0  0  0  0
    8.9671  -14.2859   28.2447 C   0  0  0  0  0  0  0  0  0  0  0  0
    8.1811  -13.4560   27.3111 C   0  0  0  0  0  0  0  0  0  0  0  0
    6.8952  -13.8310   26.9750 C   0  0  0  0  0  0  0  0  0  0  0  0
    6.1158  -13.0901   26.1058 C   0  0  0  0  0  0  0  0  0  0  0  0
    6.6702  -11.9478   25.5767 C   0  0  0  0  0  0  0  0  0  0  0  0
    7.9605  -11.5694   25.9123 C   0  0  0  0  0  0  0  0  0  0  0  0
    8.7361  -12.3101   26.7797 C   0  0  0  0  0  0  0  0  0  0  0  0
   10.7181  -16.0327   28.4204 C   0  0  0  0  0  0  0  0  0  0  0  0
   10.7476  -17.4144   28.3693 O   0  0  0  0  0  0  0  0  0  0  0  0
   11.4173  -15.4665   29.2923 O   0  0  0  0  0  0  0  0  0  0  0  0
  2  1  1  0
  3  2  1  0
  3  4  1  1
  5  6  1  6
  5  3  1  0
  7  5  1  0
  8  7  2  0
  9  7  1  0
 10 11  1  6
 10  9  1  0
 11 12  1  0
 13 14  2  0
 13 10  1  0
 15 13  1  0
 16 15  1  0
 17 18  1  0
 16 17  1  1
 18 19  2  0
 19 20  1  0
 21 20  2  0
 22 21  1  0
 23 18  1  0
 23 22  2  0
 24 16  1  0
 24 25  1  0
 26 24  2  0
M  END
$$$$
