ICF.pdb
     RDKit          3D

 26 26  0  0  1  0  0  0  0  0999 V2000
    7.8252  -12.1307   18.9422 C   0  0  0  0  0  0  0  0  0  0  0  0
    7.9960  -13.6050   19.0870 C   0  0  0  0  0  0  0  0  0  0  0  0
    7.7945  -14.1321   20.4690 C   0  0  2  0  0  0  0  0  0  0  0  0
    8.7092  -13.5529   21.4962 C   0  0  0  0  0  0  0  0  0  0  0  0
    7.8512  -15.6532   20.5177 C   0  0  2  0  0  0  0  0  0  0  0  0
    6.7964  -16.1477   19.6519 N   0  0  0  0  0  0  0  0  0  0  0  0
    7.5420  -16.1313   21.9116 C   0  0  0  0  0  0  0  0  0  0  0  0
    6.3827  -16.0462   22.3968 O   0  0  0  0  0  0  0  0  0  0  0  0
    8.5485  -16.6994   22.7380 N   0  0  0  0  0  0  0  0  0  0  0  0
    8.3580  -17.0584   24.1122 C   0  0  1  0  0  0  0  0  0  0  0  0
    8.1827  -18.5526   24.3000 C   0  0  0  0  0  0  0  0  0  0  0  0
    9.5529  -19.4463   23.5281 S   0  0  0  0  0  0  0  0  0  0  0  0
    9.4155  -16.5555   25.0036 C   0  0  0  0  0  0  0  0  0  0  0  0
   10.5777  -16.4279   24.5575 O   0  0  0  0  0  0  0  0  0  0  0  0
    9.1818  -16.2052   26.3537 N   0  0  0  0  0  0  0  0  0  0  0  0
   10.2543  -15.8687   27.2350 C   0  0  1  0  0  0  0  0  0  0  0  0
   10.1255  -14.4200   27.6841 C   0  0  0  0  0  0  0  0  0  0  0  0
    8.8358  -13.8319   27.2731 C   0  0  0  0  0  0  0  0  0  0  0  0
    7.9338  -14.5901   26.5529 C   0  0  0  0  0  0  0  0  0  0  0  0
    6.7122  -14.0885   26.1432 C   0  0  0  0  0  0  0  0  0  0  0  0
    6.4175  -12.7880   26.4809 C   0  0  0  0  0  0  0  0  0  0  0  0
    7.3209  -12.0250   27.2036 C   0  0  0  0  0  0  0  0  0  0  0  0
    8.5390  -12.5276   27.6112 C   0  0  0  0  0  0  0  0  0  0  0  0
   10.4220  -16.7874   28.3591 C   0  0  0  0  0  0  0  0  0  0  0  0
   11.4906  -16.7138   29.2339 O   0  0  0  0  0  0  0  0  0  0  0  0
    9.5708  -17.6860   28.5529 O   0  0  0  0  0  0  0  0  0  0  0  0
  2  1  1  0
  3  2  1  0
  3  4  1  1
  5  6  1  6
  5  3  1  0
  7  5  1  0
  8  7  2  0
  9  7  1  0
 10 11  1  6
 10  9  1  0
 11 12  1  0
 13 14  2  0
 13 10  1  0
 15 13  1  0
 16 15  1  0
 17 18  1  0
 16 17  1  1
 18 19  2  0
 19 20  1  0
 21 20  2  0
 22 21  1  0
 23 18  1  0
 23 22  2  0
 24 16  1  0
 24 25  1  0
 26 24  2  0
M  END
$$$$
