ICF.pdb
     RDKit          3D

 26 26  0  0  1  0  0  0  0  0999 V2000
    7.3913  -11.8073   19.3454 C   0  0  0  0  0  0  0  0  0  0  0  0
    8.0247  -13.1515   19.2206 C   0  0  0  0  0  0  0  0  0  0  0  0
    7.9862  -13.9858   20.4579 C   0  0  2  0  0  0  0  0  0  0  0  0
    8.5488  -13.3255   21.6723 C   0  0  0  0  0  0  0  0  0  0  0  0
    8.6391  -15.3465   20.2539 C   0  0  2  0  0  0  0  0  0  0  0  0
    7.9067  -16.0171   19.1952 N   0  0  0  0  0  0  0  0  0  0  0  0
    8.4828  -16.1797   21.4983 C   0  0  0  0  0  0  0  0  0  0  0  0
    7.3758  -16.6894   21.8167 O   0  0  0  0  0  0  0  0  0  0  0  0
    9.5809  -16.4251   22.3658 N   0  0  0  0  0  0  0  0  0  0  0  0
    9.4971  -17.1788   23.5818 C   0  0  1  0  0  0  0  0  0  0  0  0
   10.2960  -18.4658   23.5199 C   0  0  0  0  0  0  0  0  0  0  0  0
   12.0013  -18.1218   23.0243 S   0  0  0  0  0  0  0  0  0  0  0  0
    9.8692  -16.4076   24.7787 C   0  0  0  0  0  0  0  0  0  0  0  0
   10.7900  -15.5641   24.6971 O   0  0  0  0  0  0  0  0  0  0  0  0
    9.2315  -16.5735   26.0300 N   0  0  0  0  0  0  0  0  0  0  0  0
    9.7257  -15.9395   27.2107 C   0  0  1  0  0  0  0  0  0  0  0  0
    8.5915  -15.2277   27.9344 C   0  0  0  0  0  0  0  0  0  0  0  0
    7.9736  -14.1850   27.0923 C   0  0  0  0  0  0  0  0  0  0  0  0
    8.5592  -12.9374   27.0041 C   0  0  0  0  0  0  0  0  0  0  0  0
    8.0222  -11.9252   26.2301 C   0  0  0  0  0  0  0  0  0  0  0  0
    6.8663  -12.2039   25.5384 C   0  0  0  0  0  0  0  0  0  0  0  0
    6.2767  -13.4550   25.6252 C   0  0  0  0  0  0  0  0  0  0  0  0
    6.8143  -14.4632   26.3980 C   0  0  0  0  0  0  0  0  0  0  0  0
   10.4848  -16.8207   28.0957 C   0  0  0  0  0  0  0  0  0  0  0  0
   10.6516  -18.1706   27.8457 O   0  0  0  0  0  0  0  0  0  0  0  0
   11.0134  -16.3495   29.1291 O   0  0  0  0  0  0  0  0  0  0  0  0
  2  1  1  0
  3  2  1  0
  3  4  1  1
  5  6  1  6
  5  3  1  0
  7  5  1  0
  8  7  2  0
  9  7  1  0
 10 11  1  6
 10  9  1  0
 11 12  1  0
 13 14  2  0
 13 10  1  0
 15 13  1  0
 16 15  1  0
 17 18  1  0
 16 17  1  1
 18 19  2  0
 19 20  1  0
 21 20  2  0
 22 21  1  0
 23 18  1  0
 23 22  2  0
 24 16  1  0
 24 25  1  0
 26 24  2  0
M  END
$$$$
