TKA.pdb
     RDKit          3D

 22 21  0  0  1  0  0  0  0  0999 V2000
   27.0067  -13.8800  -18.0381 C   0  0  0  0  0  0  0  0  0  0  0  0
   25.7650  -13.0327  -18.0789 C   0  0  1  0  0  0  0  0  0  0  0  0
   24.6543  -13.8017  -18.3368 O   0  0  0  0  0  0  0  0  0  0  0  0
   25.5710  -12.2399  -16.8050 C   0  0  2  0  0  0  0  0  0  0  0  0
   25.4320  -13.1295  -15.6759 N   0  0  0  0  0  0  0  0  0  0  0  0
   24.3789  -11.3625  -16.9566 C   0  0  0  0  0  0  0  0  0  0  0  0
   24.3793  -10.4161  -17.7823 O   0  0  0  0  0  0  0  0  0  0  0  0
   23.1971  -11.5453  -16.1888 N   0  0  0  0  0  0  0  0  0  0  0  0
   22.0067  -10.7912  -16.3899 C   0  0  1  0  0  0  0  0  0  0  0  0
   20.8153  -11.5372  -15.7959 C   0  0  0  0  0  0  0  0  0  0  0  0
   20.2448  -12.5294  -16.7537 C   0  0  0  0  0  0  0  0  0  0  0  0
   19.3939  -13.5150  -16.0024 C   0  0  0  0  0  0  0  0  0  0  0  0
   18.6397  -14.4744  -16.8766 C   0  0  0  0  0  0  0  0  0  0  0  0
   17.7231  -15.2051  -15.9862 N   0  0  0  0  0  0  0  0  0  0  0  0
   22.0400   -9.4394  -15.8299 C   0  0  0  0  0  0  0  0  0  0  0  0
   22.5601   -9.2508  -14.7064 O   0  0  0  0  0  0  0  0  0  0  0  0
   21.2905   -5.8774  -16.8032 C   0  0  0  0  0  0  0  0  0  0  0  0
   21.5594   -7.0287  -15.8675 C   0  0  2  0  0  0  0  0  0  0  0  0
   21.5108   -8.3056  -16.4903 N   0  0  0  0  0  0  0  0  0  0  0  0
   20.5420   -6.9645  -14.7901 C   0  0  0  0  0  0  0  0  0  0  0  0
   20.4922   -5.9050  -13.8852 O   0  0  0  0  0  0  0  0  0  0  0  0
   19.6968   -7.8836  -14.6796 O   0  0  0  0  0  0  0  0  0  0  0  0
  2  1  1  1
  2  3  1  0
  4  2  1  0
  4  5  1  1
  6  4  1  0
  7  6  2  0
  8  6  1  0
  9  8  1  0
 10 11  1  0
  9 10  1  1
 12 13  1  0
 12 11  1  0
 13 14  1  0
 15  9  1  0
 15 19  1  0
 16 15  2  0
 18 19  1  0
 18 17  1  6
 18 20  1  0
 20 21  1  0
 22 20  2  0
M  END
$$$$
