TKA.pdb
     RDKit          3D

 22 21  0  0  1  0  0  0  0  0999 V2000
   19.1661  -11.8165  -15.2858 C   0  0  0  0  0  0  0  0  0  0  0  0
   18.2108  -12.9662  -15.4501 C   0  0  1  0  0  0  0  0  0  0  0  0
   18.8888  -14.1346  -15.7081 O   0  0  0  0  0  0  0  0  0  0  0  0
   17.3083  -13.1368  -14.2479 C   0  0  2  0  0  0  0  0  0  0  0  0
   16.5498  -14.3607  -14.3589 N   0  0  0  0  0  0  0  0  0  0  0  0
   16.4156  -11.9513  -14.1395 C   0  0  0  0  0  0  0  0  0  0  0  0
   15.5292  -11.7343  -15.0024 O   0  0  0  0  0  0  0  0  0  0  0  0
   16.5166  -11.0179  -13.0726 N   0  0  0  0  0  0  0  0  0  0  0  0
   15.6661   -9.8842  -12.9394 C   0  0  1  0  0  0  0  0  0  0  0  0
   15.1788   -9.7699  -11.4978 C   0  0  0  0  0  0  0  0  0  0  0  0
   13.7028   -9.9631  -11.3912 C   0  0  0  0  0  0  0  0  0  0  0  0
   13.2608   -9.6613   -9.9863 C   0  0  0  0  0  0  0  0  0  0  0  0
   11.8028   -9.9090   -9.7293 C   0  0  0  0  0  0  0  0  0  0  0  0
   11.5778   -9.5908   -8.3099 N   0  0  0  0  0  0  0  0  0  0  0  0
   16.2791   -8.6137  -13.3292 C   0  0  0  0  0  0  0  0  0  0  0  0
   17.4163   -8.3195  -12.8950 O   0  0  0  0  0  0  0  0  0  0  0  0
   15.8694   -5.9528  -15.9262 C   0  0  0  0  0  0  0  0  0  0  0  0
   16.3695   -6.5261  -14.6245 C   0  0  2  0  0  0  0  0  0  0  0  0
   15.6563   -7.6744  -14.1845 N   0  0  0  0  0  0  0  0  0  0  0  0
   16.2613   -5.4552  -13.6039 C   0  0  0  0  0  0  0  0  0  0  0  0
   17.0327   -4.2956  -13.6674 O   0  0  0  0  0  0  0  0  0  0  0  0
   15.4565   -5.5849  -12.6517 O   0  0  0  0  0  0  0  0  0  0  0  0
  2  1  1  1
  2  3  1  0
  4  2  1  0
  4  5  1  6
  6  4  1  0
  7  6  2  0
  8  6  1  0
  9  8  1  0
 10 11  1  0
  9 10  1  1
 12 13  1  0
 12 11  1  0
 13 14  1  0
 15  9  1  0
 15 19  1  0
 16 15  2  0
 18 19  1  0
 18 17  1  6
 18 20  1  0
 20 21  1  0
 22 20  2  0
M  END
$$$$
