TKA.pdb
     RDKit          3D

 22 21  0  0  1  0  0  0  0  0999 V2000
   26.6619  -15.6134  -14.9435 C   0  0  0  0  0  0  0  0  0  0  0  0
   26.7951  -16.9528  -15.6141 C   0  0  1  0  0  0  0  0  0  0  0  0
   27.7695  -17.7106  -15.0078 O   0  0  0  0  0  0  0  0  0  0  0  0
   25.4853  -17.7093  -15.6467 C   0  0  2  0  0  0  0  0  0  0  0  0
   25.7026  -19.0715  -16.0743 N   0  0  0  0  0  0  0  0  0  0  0  0
   24.5379  -17.0003  -16.5486 C   0  0  0  0  0  0  0  0  0  0  0  0
   24.6979  -17.0242  -17.7942 O   0  0  0  0  0  0  0  0  0  0  0  0
   23.4213  -16.2710  -16.0578 N   0  0  0  0  0  0  0  0  0  0  0  0
   22.4943  -15.5951  -16.9003 C   0  0  1  0  0  0  0  0  0  0  0  0
   21.0873  -15.7142  -16.3215 C   0  0  0  0  0  0  0  0  0  0  0  0
   20.0492  -15.2198  -17.2729 C   0  0  0  0  0  0  0  0  0  0  0  0
   18.6841  -15.5532  -16.7386 C   0  0  0  0  0  0  0  0  0  0  0  0
   17.5647  -15.3205  -17.7113 C   0  0  0  0  0  0  0  0  0  0  0  0
   16.3616  -15.9063  -17.0980 N   0  0  0  0  0  0  0  0  0  0  0  0
   22.7920  -14.1793  -17.1213 C   0  0  0  0  0  0  0  0  0  0  0  0
   22.9503  -13.4221  -16.1363 O   0  0  0  0  0  0  0  0  0  0  0  0
   23.5255  -11.7948  -19.9614 C   0  0  0  0  0  0  0  0  0  0  0  0
   23.3012  -12.2349  -18.5369 C   0  0  2  0  0  0  0  0  0  0  0  0
   22.9156  -13.5968  -18.4046 N   0  0  0  0  0  0  0  0  0  0  0  0
   22.2428  -11.3636  -17.9706 C   0  0  0  0  0  0  0  0  0  0  0  0
   20.8913  -11.5746  -18.2407 O   0  0  0  0  0  0  0  0  0  0  0  0
   22.5599  -10.4064  -17.2260 O   0  0  0  0  0  0  0  0  0  0  0  0
  2  1  1  1
  2  3  1  0
  4  2  1  0
  4  5  1  6
  6  4  1  0
  7  6  2  0
  8  6  1  0
  9  8  1  0
 10 11  1  0
  9 10  1  1
 12 13  1  0
 12 11  1  0
 13 14  1  0
 15  9  1  0
 15 19  1  0
 16 15  2  0
 18 19  1  0
 18 17  1  6
 18 20  1  0
 20 21  1  0
 22 20  2  0
M  END
$$$$
