TKA.pdb
     RDKit          3D

 22 21  0  0  1  0  0  0  0  0999 V2000
   24.0837  -11.6585  -18.5147 C   0  0  0  0  0  0  0  0  0  0  0  0
   23.0535  -12.0653  -17.4975 C   0  0  1  0  0  0  0  0  0  0  0  0
   23.0946  -13.4214  -17.2726 O   0  0  0  0  0  0  0  0  0  0  0  0
   23.2068  -11.3116  -16.1947 C   0  0  2  0  0  0  0  0  0  0  0  0
   22.5922  -12.0464  -15.1140 N   0  0  0  0  0  0  0  0  0  0  0  0
   22.6059   -9.9586  -16.3435 C   0  0  0  0  0  0  0  0  0  0  0  0
   23.0101   -9.1713  -17.2348 O   0  0  0  0  0  0  0  0  0  0  0  0
   21.5611   -9.4929  -15.5002 N   0  0  0  0  0  0  0  0  0  0  0  0
   20.9191   -8.2338  -15.6691 C   0  0  1  0  0  0  0  0  0  0  0  0
   19.4596   -8.3351  -15.2351 C   0  0  0  0  0  0  0  0  0  0  0  0
   18.6419   -9.1188  -16.2071 C   0  0  0  0  0  0  0  0  0  0  0  0
   17.2528   -9.2965  -15.6604 C   0  0  0  0  0  0  0  0  0  0  0  0
   16.3100  -10.0096  -16.5856 C   0  0  0  0  0  0  0  0  0  0  0  0
   15.0253  -10.0971  -15.8725 N   0  0  0  0  0  0  0  0  0  0  0  0
   21.5477   -7.1276  -14.9458 C   0  0  0  0  0  0  0  0  0  0  0  0
   21.8884   -7.2873  -13.7514 O   0  0  0  0  0  0  0  0  0  0  0  0
   23.2200   -3.8582  -15.6681 C   0  0  0  0  0  0  0  0  0  0  0  0
   22.5347   -4.8809  -14.7976 C   0  0  2  0  0  0  0  0  0  0  0  0
   21.8012   -5.8602  -15.5213 N   0  0  0  0  0  0  0  0  0  0  0  0
   21.6180   -4.1436  -13.8942 C   0  0  0  0  0  0  0  0  0  0  0  0
   22.0884   -3.2302  -12.9517 O   0  0  0  0  0  0  0  0  0  0  0  0
   20.3821   -4.3387  -13.9707 O   0  0  0  0  0  0  0  0  0  0  0  0
  2  1  1  6
  2  3  1  0
  4  2  1  0
  4  5  1  1
  6  4  1  0
  7  6  2  0
  8  6  1  0
  9  8  1  0
 10 11  1  0
  9 10  1  1
 12 13  1  0
 12 11  1  0
 13 14  1  0
 15  9  1  0
 15 19  1  0
 16 15  2  0
 18 19  1  0
 18 17  1  6
 18 20  1  0
 20 21  1  0
 22 20  2  0
M  END
$$$$
