TKA.pdb
     RDKit          3D

 22 21  0  0  1  0  0  0  0  0999 V2000
   15.2440   -7.7988  -10.4240 C   0  0  0  0  0  0  0  0  0  0  0  0
   14.5889   -9.0555   -9.9211 C   0  0  1  0  0  0  0  0  0  0  0  0
   13.4018   -8.7705   -9.2878 O   0  0  0  0  0  0  0  0  0  0  0  0
   14.3662  -10.0660  -11.0248 C   0  0  2  0  0  0  0  0  0  0  0  0
   13.7792  -11.2724  -10.4904 N   0  0  0  0  0  0  0  0  0  0  0  0
   15.6642  -10.3439  -11.6970 C   0  0  0  0  0  0  0  0  0  0  0  0
   16.4722  -11.1753  -11.2138 O   0  0  0  0  0  0  0  0  0  0  0  0
   16.0522   -9.6951  -12.9005 N   0  0  0  0  0  0  0  0  0  0  0  0
   17.2177  -10.0444  -13.6391 C   0  0  1  0  0  0  0  0  0  0  0  0
   16.8257  -10.4806  -15.0480 C   0  0  0  0  0  0  0  0  0  0  0  0
   16.5365  -11.9430  -15.1187 C   0  0  0  0  0  0  0  0  0  0  0  0
   16.1501  -12.3072  -16.5252 C   0  0  0  0  0  0  0  0  0  0  0  0
   15.7685  -13.7473  -16.7091 C   0  0  0  0  0  0  0  0  0  0  0  0
   15.5728  -13.9369  -18.1557 N   0  0  0  0  0  0  0  0  0  0  0  0
   18.2173   -8.9800  -13.7389 C   0  0  0  0  0  0  0  0  0  0  0  0
   17.8453   -7.8039  -13.9551 O   0  0  0  0  0  0  0  0  0  0  0  0
   21.9482   -8.4653  -13.4243 C   0  0  0  0  0  0  0  0  0  0  0  0
   20.5195   -8.1177  -13.7579 C   0  0  2  0  0  0  0  0  0  0  0  0
   19.6087   -9.1982  -13.6039 N   0  0  0  0  0  0  0  0  0  0  0  0
   20.4995   -7.6504  -15.1655 C   0  0  0  0  0  0  0  0  0  0  0  0
   20.7899   -6.3305  -15.5084 O   0  0  0  0  0  0  0  0  0  0  0  0
   20.2147   -8.4561  -16.0826 O   0  0  0  0  0  0  0  0  0  0  0  0
  2  1  1  6
  2  3  1  0
  4  2  1  0
  4  5  1  1
  6  4  1  0
  7  6  2  0
  8  6  1  0
  9  8  1  0
 10 11  1  0
  9 10  1  6
 12 13  1  0
 12 11  1  0
 13 14  1  0
 15  9  1  0
 15 19  1  0
 16 15  2  0
 18 19  1  0
 18 17  1  6
 18 20  1  0
 20 21  1  0
 22 20  2  0
M  END
$$$$
