TKA.pdb
     RDKit          3D

 22 21  0  0  1  0  0  0  0  0999 V2000
   18.0616   -6.8181  -19.0633 C   0  0  0  0  0  0  0  0  0  0  0  0
   17.3261   -8.0901  -18.7432 C   0  0  1  0  0  0  0  0  0  0  0  0
   16.4660   -8.4292  -19.7613 O   0  0  0  0  0  0  0  0  0  0  0  0
   18.2677   -9.2366  -18.4469 C   0  0  2  0  0  0  0  0  0  0  0  0
   17.5227  -10.4535  -18.2233 N   0  0  0  0  0  0  0  0  0  0  0  0
   19.1033   -8.8855  -17.2670 C   0  0  0  0  0  0  0  0  0  0  0  0
   18.6486   -8.9994  -16.1017 O   0  0  0  0  0  0  0  0  0  0  0  0
   20.4369   -8.4109  -17.3931 N   0  0  0  0  0  0  0  0  0  0  0  0
   21.2754   -8.1226  -16.2795 C   0  0  1  0  0  0  0  0  0  0  0  0
   22.6851   -8.6432  -16.5451 C   0  0  0  0  0  0  0  0  0  0  0  0
   22.7639  -10.1283  -16.4201 C   0  0  0  0  0  0  0  0  0  0  0  0
   24.1777  -10.5750  -16.6686 C   0  0  0  0  0  0  0  0  0  0  0  0
   24.3830  -12.0592  -16.5775 C   0  0  0  0  0  0  0  0  0  0  0  0
   25.8283  -12.2831  -16.7438 N   0  0  0  0  0  0  0  0  0  0  0  0
   21.3576   -6.7038  -15.9300 C   0  0  0  0  0  0  0  0  0  0  0  0
   21.6657   -5.8692  -16.8114 O   0  0  0  0  0  0  0  0  0  0  0  0
   20.2632   -4.3502  -13.2518 C   0  0  0  0  0  0  0  0  0  0  0  0
   21.1481   -4.8025  -14.3856 C   0  0  2  0  0  0  0  0  0  0  0  0
   21.1059   -6.2021  -14.6314 N   0  0  0  0  0  0  0  0  0  0  0  0
   22.5351   -4.4014  -14.0457 C   0  0  0  0  0  0  0  0  0  0  0  0
   22.9344   -3.0656  -14.0339 O   0  0  0  0  0  0  0  0  0  0  0  0
   23.3822   -5.2798  -13.7590 O   0  0  0  0  0  0  0  0  0  0  0  0
  2  1  1  6
  2  3  1  0
  4  2  1  0
  4  5  1  1
  6  4  1  0
  7  6  2  0
  8  6  1  0
  9  8  1  0
 10 11  1  0
  9 10  1  6
 12 13  1  0
 12 11  1  0
 13 14  1  0
 15  9  1  0
 15 19  1  0
 16 15  2  0
 18 19  1  0
 18 17  1  1
 18 20  1  0
 20 21  1  0
 22 20  2  0
M  END
$$$$
