TKA.pdb
     RDKit          3D

 22 21  0  0  1  0  0  0  0  0999 V2000
   15.4823   -6.7216  -15.3651 C   0  0  0  0  0  0  0  0  0  0  0  0
   15.0611   -8.0591  -14.8219 C   0  0  1  0  0  0  0  0  0  0  0  0
   13.6917   -8.1855  -14.8363 O   0  0  0  0  0  0  0  0  0  0  0  0
   15.7027   -9.2079  -15.5686 C   0  0  2  0  0  0  0  0  0  0  0  0
   15.2061  -10.4698  -15.0717 N   0  0  0  0  0  0  0  0  0  0  0  0
   17.1809   -9.1119  -15.4290 C   0  0  0  0  0  0  0  0  0  0  0  0
   17.7341   -9.2991  -14.3171 O   0  0  0  0  0  0  0  0  0  0  0  0
   18.0308   -8.8085  -16.5269 N   0  0  0  0  0  0  0  0  0  0  0  0
   19.4280   -8.5710  -16.3948 C   0  0  1  0  0  0  0  0  0  0  0  0
   20.1092   -8.7244  -17.7518 C   0  0  0  0  0  0  0  0  0  0  0  0
   21.5785   -8.4763  -17.6694 C   0  0  0  0  0  0  0  0  0  0  0  0
   22.3175   -9.7342  -18.0322 C   0  0  0  0  0  0  0  0  0  0  0  0
   23.8106   -9.5851  -18.0732 C   0  0  0  0  0  0  0  0  0  0  0  0
   24.3433  -10.9049  -18.4489 N   0  0  0  0  0  0  0  0  0  0  0  0
   19.7737   -7.2607  -15.8421 C   0  0  0  0  0  0  0  0  0  0  0  0
   19.1942   -6.2378  -16.2737 O   0  0  0  0  0  0  0  0  0  0  0  0
   21.8662   -5.7587  -13.0791 C   0  0  0  0  0  0  0  0  0  0  0  0
   20.9630   -5.7744  -14.2863 C   0  0  2  0  0  0  0  0  0  0  0  0
   20.7421   -7.0698  -14.8285 N   0  0  0  0  0  0  0  0  0  0  0  0
   21.5902   -4.9081  -15.3140 C   0  0  0  0  0  0  0  0  0  0  0  0
   21.4001   -3.5270  -15.3299 O   0  0  0  0  0  0  0  0  0  0  0  0
   22.3144   -5.4208  -16.1994 O   0  0  0  0  0  0  0  0  0  0  0  0
  2  1  1  6
  2  3  1  0
  4  2  1  0
  4  5  1  1
  6  4  1  0
  7  6  2  0
  8  6  1  0
  9  8  1  0
 10 11  1  0
  9 10  1  6
 12 13  1  0
 12 11  1  0
 13 14  1  0
 15  9  1  0
 15 19  1  0
 16 15  2  0
 18 19  1  0
 18 17  1  1
 18 20  1  0
 20 21  1  0
 22 20  2  0
M  END
$$$$
