TKA.pdb
     RDKit          3D

 22 21  0  0  1  0  0  0  0  0999 V2000
   39.0291  -27.9601    2.6581 C   0  0  0  0  0  0  0  0  0  0  0  0
   38.1067  -28.6365    1.6818 C   0  0  1  0  0  0  0  0  0  0  0  0
   38.7711  -29.6094    0.9722 O   0  0  0  0  0  0  0  0  0  0  0  0
   36.8860  -29.2207    2.3582 C   0  0  2  0  0  0  0  0  0  0  0  0
   35.9989  -29.8025    1.3783 N   0  0  0  0  0  0  0  0  0  0  0  0
   36.2072  -28.1524    3.1405 C   0  0  0  0  0  0  0  0  0  0  0  0
   35.4446  -27.3295    2.5758 O   0  0  0  0  0  0  0  0  0  0  0  0
   36.3822  -28.0087    4.5434 N   0  0  0  0  0  0  0  0  0  0  0  0
   35.7158  -27.0189    5.3196 C   0  0  1  0  0  0  0  0  0  0  0  0
   35.1979  -27.6390    6.6142 C   0  0  0  0  0  0  0  0  0  0  0  0
   33.8291  -28.2107    6.4501 C   0  0  0  0  0  0  0  0  0  0  0  0
   33.3552  -28.7555    7.7687 C   0  0  0  0  0  0  0  0  0  0  0  0
   32.0165  -29.4324    7.7137 C   0  0  0  0  0  0  0  0  0  0  0  0
   31.7478  -29.9188    9.0768 N   0  0  0  0  0  0  0  0  0  0  0  0
   36.5349  -25.8528    5.6531 C   0  0  0  0  0  0  0  0  0  0  0  0
   37.6915  -26.0209    6.1030 O   0  0  0  0  0  0  0  0  0  0  0  0
   36.4287  -22.0835    5.4027 C   0  0  0  0  0  0  0  0  0  0  0  0
   36.9766  -23.4375    5.7766 C   0  0  2  0  0  0  0  0  0  0  0  0
   36.0952  -24.5172    5.4968 N   0  0  0  0  0  0  0  0  0  0  0  0
   37.2728  -23.4043    7.2296 C   0  0  0  0  0  0  0  0  0  0  0  0
   38.3052  -22.6277    7.7540 O   0  0  0  0  0  0  0  0  0  0  0  0
   36.5819  -24.0900    8.0193 O   0  0  0  0  0  0  0  0  0  0  0  0
  2  1  1  1
  2  3  1  0
  4  2  1  0
  4  5  1  6
  6  4  1  0
  7  6  2  0
  8  6  1  0
  9  8  1  0
 10 11  1  0
  9 10  1  1
 12 13  1  0
 12 11  1  0
 13 14  1  0
 15  9  1  0
 15 19  1  0
 16 15  2  0
 18 19  1  0
 18 17  1  1
 18 20  1  0
 20 21  1  0
 22 20  2  0
M  END
$$$$
