TKA.pdb
     RDKit          3D

 22 21  0  0  1  0  0  0  0  0999 V2000
   24.5735  -10.1722  -20.5963 C   0  0  0  0  0  0  0  0  0  0  0  0
   23.6324   -9.3271  -19.7830 C   0  0  1  0  0  0  0  0  0  0  0  0
   23.6778   -8.0135  -20.1879 O   0  0  0  0  0  0  0  0  0  0  0  0
   22.2112   -9.8435  -19.8327 C   0  0  2  0  0  0  0  0  0  0  0  0
   21.6754   -9.7121  -21.1673 N   0  0  0  0  0  0  0  0  0  0  0  0
   21.3896   -9.0987  -18.8407 C   0  0  0  0  0  0  0  0  0  0  0  0
   20.6443   -8.1551  -19.2037 O   0  0  0  0  0  0  0  0  0  0  0  0
   21.4040   -9.4096  -17.4540 N   0  0  0  0  0  0  0  0  0  0  0  0
   20.6292   -8.7110  -16.4856 C   0  0  1  0  0  0  0  0  0  0  0  0
   20.0690   -9.6958  -15.4633 C   0  0  0  0  0  0  0  0  0  0  0  0
   19.2473   -9.0117  -14.4221 C   0  0  0  0  0  0  0  0  0  0  0  0
   17.7902   -9.2662  -14.6905 C   0  0  0  0  0  0  0  0  0  0  0  0
   16.8548   -8.5422  -13.7663 C   0  0  0  0  0  0  0  0  0  0  0  0
   15.5024   -8.7470  -14.3102 N   0  0  0  0  0  0  0  0  0  0  0  0
   21.3515   -7.6560  -15.7734 C   0  0  0  0  0  0  0  0  0  0  0  0
   22.3332   -7.9575  -15.0566 O   0  0  0  0  0  0  0  0  0  0  0  0
   21.3819   -3.8934  -15.4242 C   0  0  0  0  0  0  0  0  0  0  0  0
   21.7542   -5.3216  -15.1160 C   0  0  2  0  0  0  0  0  0  0  0  0
   21.0051   -6.2861  -15.8436 N   0  0  0  0  0  0  0  0  0  0  0  0
   21.5432   -5.5253  -13.6620 C   0  0  0  0  0  0  0  0  0  0  0  0
   22.5145   -5.1855  -12.7213 O   0  0  0  0  0  0  0  0  0  0  0  0
   20.4643   -6.0165  -13.2546 O   0  0  0  0  0  0  0  0  0  0  0  0
  2  1  1  6
  2  3  1  0
  4  2  1  0
  4  5  1  6
  6  4  1  0
  7  6  2  0
  8  6  1  0
  9  8  1  0
 10 11  1  0
  9 10  1  1
 12 13  1  0
 12 11  1  0
 13 14  1  0
 15  9  1  0
 15 19  1  0
 16 15  2  0
 18 19  1  0
 18 17  1  6
 18 20  1  0
 20 21  1  0
 22 20  2  0
M  END
$$$$
