TKA.pdb
     RDKit          3D

 22 21  0  0  1  0  0  0  0  0999 V2000
   28.1471  -18.1037  -15.7446 C   0  0  0  0  0  0  0  0  0  0  0  0
   26.9172  -18.8845  -15.3715 C   0  0  1  0  0  0  0  0  0  0  0  0
   26.1173  -19.0947  -16.4702 O   0  0  0  0  0  0  0  0  0  0  0  0
   27.2548  -20.2013  -14.7074 C   0  0  2  0  0  0  0  0  0  0  0  0
   27.9225  -21.0779  -15.6409 N   0  0  0  0  0  0  0  0  0  0  0  0
   26.0046  -20.8148  -14.1836 C   0  0  0  0  0  0  0  0  0  0  0  0
   25.4984  -21.8184  -14.7441 O   0  0  0  0  0  0  0  0  0  0  0  0
   25.3283  -20.3071  -13.0414 N   0  0  0  0  0  0  0  0  0  0  0  0
   24.1399  -20.8848  -12.5124 C   0  0  1  0  0  0  0  0  0  0  0  0
   24.0509  -20.6047  -11.0149 C   0  0  0  0  0  0  0  0  0  0  0  0
   22.8842  -21.2919  -10.3874 C   0  0  0  0  0  0  0  0  0  0  0  0
   22.9180  -21.0738   -8.9004 C   0  0  0  0  0  0  0  0  0  0  0  0
   21.7725  -21.6973   -8.1570 C   0  0  0  0  0  0  0  0  0  0  0  0
   21.9739  -21.3604   -6.7383 N   0  0  0  0  0  0  0  0  0  0  0  0
   22.9042  -20.4272  -13.1493 C   0  0  0  0  0  0  0  0  0  0  0  0
   22.6993  -19.1991  -13.2847 O   0  0  0  0  0  0  0  0  0  0  0  0
   20.4667  -21.4445  -15.6230 C   0  0  0  0  0  0  0  0  0  0  0  0
   20.7616  -20.7810  -14.3016 C   0  0  2  0  0  0  0  0  0  0  0  0
   21.9030  -21.3018  -13.6332 N   0  0  0  0  0  0  0  0  0  0  0  0
   19.5633  -20.9576  -13.4455 C   0  0  0  0  0  0  0  0  0  0  0  0
   18.3387  -20.3706  -13.7611 O   0  0  0  0  0  0  0  0  0  0  0  0
   19.6411  -21.6527  -12.4053 O   0  0  0  0  0  0  0  0  0  0  0  0
  2  1  1  6
  2  3  1  0
  4  2  1  0
  4  5  1  6
  6  4  1  0
  7  6  2  0
  8  6  1  0
  9  8  1  0
 10 11  1  0
  9 10  1  1
 12 13  1  0
 12 11  1  0
 13 14  1  0
 15  9  1  0
 15 19  1  0
 16 15  2  0
 18 19  1  0
 18 17  1  6
 18 20  1  0
 20 21  1  0
 22 20  2  0
M  END
$$$$
