TKA.pdb
     RDKit          3D

 22 21  0  0  1  0  0  0  0  0999 V2000
   20.2850   -8.9600  -16.1672 C   0  0  0  0  0  0  0  0  0  0  0  0
   20.1987  -10.3193  -16.8046 C   0  0  1  0  0  0  0  0  0  0  0  0
   21.4525  -10.8476  -17.0057 O   0  0  0  0  0  0  0  0  0  0  0  0
   19.3482  -11.2765  -15.9987 C   0  0  2  0  0  0  0  0  0  0  0  0
   19.4035  -12.6013  -16.5709 N   0  0  0  0  0  0  0  0  0  0  0  0
   17.9528  -10.7624  -15.9503 C   0  0  0  0  0  0  0  0  0  0  0  0
   17.2443  -10.7303  -16.9869 O   0  0  0  0  0  0  0  0  0  0  0  0
   17.3576  -10.2886  -14.7499 N   0  0  0  0  0  0  0  0  0  0  0  0
   16.0950   -9.6328  -14.7063 C   0  0  1  0  0  0  0  0  0  0  0  0
   15.2183  -10.2697  -13.6318 C   0  0  0  0  0  0  0  0  0  0  0  0
   13.8419   -9.6930  -13.6211 C   0  0  0  0  0  0  0  0  0  0  0  0
   13.0583  -10.2945  -12.4878 C   0  0  0  0  0  0  0  0  0  0  0  0
   11.6628   -9.7595  -12.3475 C   0  0  0  0  0  0  0  0  0  0  0  0
   11.0366  -10.5303  -11.2610 N   0  0  0  0  0  0  0  0  0  0  0  0
   16.1653   -8.1917  -14.4607 C   0  0  0  0  0  0  0  0  0  0  0  0
   16.8286   -7.7642  -13.4883 O   0  0  0  0  0  0  0  0  0  0  0  0
   15.4578   -4.9754  -16.2517 C   0  0  0  0  0  0  0  0  0  0  0  0
   15.7503   -5.8421  -15.0532 C   0  0  2  0  0  0  0  0  0  0  0  0
   15.5178   -7.2278  -15.2690 N   0  0  0  0  0  0  0  0  0  0  0  0
   14.8889   -5.3625  -13.9450 C   0  0  0  0  0  0  0  0  0  0  0  0
   15.1836   -4.2014  -13.2316 O   0  0  0  0  0  0  0  0  0  0  0  0
   13.8633   -6.0113  -13.6312 O   0  0  0  0  0  0  0  0  0  0  0  0
  2  1  1  1
  2  3  1  0
  4  2  1  0
  4  5  1  6
  6  4  1  0
  7  6  2  0
  8  6  1  0
  9  8  1  0
 10 11  1  0
  9 10  1  1
 12 13  1  0
 12 11  1  0
 13 14  1  0
 15  9  1  0
 15 19  1  0
 16 15  2  0
 18 19  1  0
 18 17  1  6
 18 20  1  0
 20 21  1  0
 22 20  2  0
M  END
$$$$
