NHQ.pdb
     RDKit          3D

 28 28  0  0  1  0  0  0  0  0999 V2000
   27.5231  -15.9384  -15.8648 N   0  0  0  0  0  0  0  0  0  0  0  0
   27.6844  -17.1277  -16.6227 C   0  0  0  0  0  0  0  0  0  0  0  0
   28.2758  -17.1479  -17.7367 O   0  0  0  0  0  0  0  0  0  0  0  0
   27.1281  -18.3872  -16.0655 C   0  0  0  0  0  0  0  0  0  0  0  0
   27.3814  -19.5647  -16.9822 C   0  0  2  0  0  0  0  0  0  0  0  0
   26.7532  -19.3245  -18.2614 N   0  0  0  0  0  0  0  0  0  0  0  0
   26.8254  -20.7654  -16.3086 C   0  0  0  0  0  0  0  0  0  0  0  0
   27.2407  -21.0848  -15.1670 O   0  0  0  0  0  0  0  0  0  0  0  0
   25.8285  -21.5892  -16.8985 N   0  0  0  0  0  0  0  0  0  0  0  0
   25.1902  -22.7041  -16.2672 C   0  0  1  0  0  0  0  0  0  0  0  0
   23.7431  -22.4605  -15.9455 C   0  0  0  0  0  0  0  0  0  0  0  0
   23.5177  -21.3211  -15.0523 C   0  0  0  0  0  0  0  0  0  0  0  0
   23.4995  -21.3591  -13.6796 C   0  0  0  0  0  0  0  0  0  0  0  0
   23.2633  -20.1072  -13.2437 N   0  0  0  0  0  0  0  0  0  0  0  0
   23.1325  -19.2838  -14.3044 C   0  0  0  0  0  0  0  0  0  0  0  0
   23.2931  -20.0527  -15.4215 N   0  0  0  0  0  0  0  0  0  0  0  0
   25.2574  -23.9191  -17.1498 C   0  0  0  0  0  0  0  0  0  0  0  0
   25.1773  -23.8090  -18.3994 O   0  0  0  0  0  0  0  0  0  0  0  0
   28.4618  -29.2208  -15.5229 N   0  0  0  0  0  0  0  0  0  0  0  0
   28.7846  -27.8480  -15.8188 C   0  0  0  0  0  0  0  0  0  0  0  0
   29.9340  -27.4984  -15.4834 O   0  0  0  0  0  0  0  0  0  0  0  0
   27.8569  -26.9429  -16.4501 C   0  0  0  0  0  0  0  0  0  0  0  0
   26.5243  -27.3862  -16.8760 C   0  0  0  0  0  0  0  0  0  0  0  0
   25.5871  -26.4062  -17.4706 C   0  0  2  0  0  0  0  0  0  0  0  0
   25.4117  -25.2289  -16.6211 N   0  0  0  0  0  0  0  0  0  0  0  0
   24.2867  -26.8937  -17.8949 C   0  0  0  0  0  0  0  0  0  0  0  0
   24.1663  -27.6381  -19.0533 O   0  0  0  0  0  0  0  0  0  0  0  0
   23.2227  -26.6694  -17.2448 O   0  0  0  0  0  0  0  0  0  0  0  0
  2  4  1  0
  2  1  1  0
  3  2  2  0
  5  4  1  0
  5  6  1  6
  7  8  2  0
  7  5  1  0
  9  7  1  0
 10  9  1  0
 11 12  1  0
 10 11  1  6
 12 13  2  0
 12 16  1  0
 13 14  1  0
 14 15  1  0
 16 15  2  0
 17 18  2  0
 17 10  1  0
 20 19  1  0
 21 20  2  0
 22 20  1  0
 23 22  1  0
 24 23  1  1
 24 25  1  0
 25 17  1  0
 26 24  1  0
 27 26  1  0
 28 26  2  0
M  END
$$$$
