NHQ.pdb
     RDKit          3D

 28 28  0  0  1  0  0  0  0  0999 V2000
   26.1182  -15.2163  -17.8812 N   0  0  0  0  0  0  0  0  0  0  0  0
   24.7317  -15.5179  -17.9187 C   0  0  0  0  0  0  0  0  0  0  0  0
   23.8447  -14.6251  -18.0056 O   0  0  0  0  0  0  0  0  0  0  0  0
   24.3295  -16.9462  -17.8519 C   0  0  0  0  0  0  0  0  0  0  0  0
   25.5319  -17.8646  -17.8057 C   0  0  2  0  0  0  0  0  0  0  0  0
   26.0398  -18.0625  -19.1441 N   0  0  0  0  0  0  0  0  0  0  0  0
   25.0806  -19.1382  -17.1903 C   0  0  0  0  0  0  0  0  0  0  0  0
   24.1522  -19.7922  -17.7271 O   0  0  0  0  0  0  0  0  0  0  0  0
   25.6543  -19.6674  -16.0025 N   0  0  0  0  0  0  0  0  0  0  0  0
   25.2702  -20.8910  -15.3667 C   0  0  1  0  0  0  0  0  0  0  0  0
   26.3905  -21.5505  -14.6138 C   0  0  0  0  0  0  0  0  0  0  0  0
   27.3938  -22.1810  -15.4757 C   0  0  0  0  0  0  0  0  0  0  0  0
   27.3714  -22.2228  -16.8483 C   0  0  0  0  0  0  0  0  0  0  0  0
   28.4698  -22.8898  -17.2503 N   0  0  0  0  0  0  0  0  0  0  0  0
   29.1816  -23.2682  -16.1685 C   0  0  0  0  0  0  0  0  0  0  0  0
   28.5003  -22.8206  -15.0730 N   0  0  0  0  0  0  0  0  0  0  0  0
   24.1523  -20.6497  -14.3909 C   0  0  0  0  0  0  0  0  0  0  0  0
   24.1969  -19.6805  -13.5918 O   0  0  0  0  0  0  0  0  0  0  0  0
   20.0501  -17.2079  -14.7485 N   0  0  0  0  0  0  0  0  0  0  0  0
   19.5460  -17.9930  -13.6503 C   0  0  0  0  0  0  0  0  0  0  0  0
   18.5788  -17.4861  -13.0474 O   0  0  0  0  0  0  0  0  0  0  0  0
   20.1111  -19.2637  -13.2704 C   0  0  0  0  0  0  0  0  0  0  0  0
   21.3555  -19.7585  -13.8708 C   0  0  0  0  0  0  0  0  0  0  0  0
   21.8084  -21.1367  -13.5747 C   0  0  2  0  0  0  0  0  0  0  0  0
   23.0107  -21.4932  -14.3269 N   0  0  0  0  0  0  0  0  0  0  0  0
   20.8308  -22.2039  -13.6923 C   0  0  0  0  0  0  0  0  0  0  0  0
   19.8616  -22.3705  -12.7209 O   0  0  0  0  0  0  0  0  0  0  0  0
   20.8138  -23.0169  -14.6638 O   0  0  0  0  0  0  0  0  0  0  0  0
  2  4  1  0
  2  1  1  0
  3  2  2  0
  5  4  1  0
  5  6  1  6
  7  8  2  0
  7  5  1  0
  9  7  1  0
 10  9  1  0
 11 12  1  0
 10 11  1  1
 12 13  2  0
 12 16  1  0
 13 14  1  0
 14 15  1  0
 16 15  2  0
 17 18  2  0
 17 10  1  0
 20 19  1  0
 21 20  2  0
 22 20  1  0
 23 22  1  0
 24 23  1  6
 24 25  1  0
 25 17  1  0
 26 24  1  0
 27 26  1  0
 28 26  2  0
M  END
$$$$
