NHQ.pdb
     RDKit          3D

 28 28  0  0  1  0  0  0  0  0999 V2000
   26.9497  -12.4333  -23.1942 N   0  0  0  0  0  0  0  0  0  0  0  0
   27.0903  -13.1373  -21.9697 C   0  0  0  0  0  0  0  0  0  0  0  0
   27.5157  -14.3235  -21.9135 O   0  0  0  0  0  0  0  0  0  0  0  0
   26.7167  -12.4327  -20.7166 C   0  0  0  0  0  0  0  0  0  0  0  0
   26.2945  -11.0037  -20.9826 C   0  0  2  0  0  0  0  0  0  0  0  0
   27.4667  -10.1862  -21.1981 N   0  0  0  0  0  0  0  0  0  0  0  0
   25.5158  -10.5551  -19.8007 C   0  0  0  0  0  0  0  0  0  0  0  0
   24.4266  -11.1169  -19.5254 O   0  0  0  0  0  0  0  0  0  0  0  0
   25.9455   -9.5028  -18.9473 N   0  0  0  0  0  0  0  0  0  0  0  0
   25.2889   -9.0855  -17.7458 C   0  0  1  0  0  0  0  0  0  0  0  0
   26.2098   -8.9942  -16.5624 C   0  0  0  0  0  0  0  0  0  0  0  0
   26.7181  -10.2901  -16.1050 C   0  0  0  0  0  0  0  0  0  0  0  0
   26.4438  -11.5123  -16.6683 C   0  0  0  0  0  0  0  0  0  0  0  0
   27.1032  -12.4438  -15.9536 N   0  0  0  0  0  0  0  0  0  0  0  0
   27.7840  -11.8407  -14.9572 C   0  0  0  0  0  0  0  0  0  0  0  0
   27.5349  -10.5023  -15.0642 N   0  0  0  0  0  0  0  0  0  0  0  0
   24.6586   -7.7334  -17.9317 C   0  0  0  0  0  0  0  0  0  0  0  0
   25.2538   -6.8315  -18.5739 O   0  0  0  0  0  0  0  0  0  0  0  0
   18.2826   -6.1983  -17.4110 N   0  0  0  0  0  0  0  0  0  0  0  0
   19.0458   -4.9782  -17.4830 C   0  0  0  0  0  0  0  0  0  0  0  0
   18.3662   -3.9338  -17.4272 O   0  0  0  0  0  0  0  0  0  0  0  0
   20.4815   -4.9578  -17.6123 C   0  0  0  0  0  0  0  0  0  0  0  0
   21.2746   -6.1904  -17.5377 C   0  0  0  0  0  0  0  0  0  0  0  0
   22.7523   -6.1085  -17.5813 C   0  0  2  0  0  0  0  0  0  0  0  0
   23.3805   -7.4163  -17.3982 N   0  0  0  0  0  0  0  0  0  0  0  0
   23.3962   -5.1377  -16.7144 C   0  0  0  0  0  0  0  0  0  0  0  0
   23.7166   -5.4719  -15.4119 O   0  0  0  0  0  0  0  0  0  0  0  0
   23.6909   -3.9655  -17.0940 O   0  0  0  0  0  0  0  0  0  0  0  0
  2  4  1  0
  2  1  1  0
  3  2  2  0
  5  4  1  0
  5  6  1  1
  7  8  2  0
  7  5  1  0
  9  7  1  0
 10  9  1  0
 11 12  1  0
 10 11  1  1
 12 13  2  0
 12 16  1  0
 13 14  1  0
 14 15  1  0
 16 15  2  0
 17 18  2  0
 17 10  1  0
 20 19  1  0
 21 20  2  0
 22 20  1  0
 23 22  1  0
 24 23  1  1
 24 25  1  0
 25 17  1  0
 26 24  1  0
 27 26  1  0
 28 26  2  0
M  END
$$$$
