NHQ.pdb
     RDKit          3D

 28 28  0  0  1  0  0  0  0  0999 V2000
   21.6194  -13.1728  -15.6723 N   0  0  0  0  0  0  0  0  0  0  0  0
   22.2503  -11.9055  -15.7769 C   0  0  0  0  0  0  0  0  0  0  0  0
   23.4547  -11.7178  -15.4522 O   0  0  0  0  0  0  0  0  0  0  0  0
   21.4442  -10.7687  -16.2908 C   0  0  0  0  0  0  0  0  0  0  0  0
   20.0143  -11.1783  -16.5714 C   0  0  2  0  0  0  0  0  0  0  0  0
   19.9814  -12.0673  -17.7104 N   0  0  0  0  0  0  0  0  0  0  0  0
   19.2474   -9.9313  -16.8195 C   0  0  0  0  0  0  0  0  0  0  0  0
   19.0495   -9.5488  -17.9994 O   0  0  0  0  0  0  0  0  0  0  0  0
   18.7148   -9.1315  -15.7722 N   0  0  0  0  0  0  0  0  0  0  0  0
   17.8520   -8.0024  -15.9445 C   0  0  1  0  0  0  0  0  0  0  0  0
   16.4920   -8.1911  -15.3349 C   0  0  0  0  0  0  0  0  0  0  0  0
   15.6667   -9.1873  -16.0230 C   0  0  0  0  0  0  0  0  0  0  0  0
   15.3079   -9.1659  -17.3485 C   0  0  0  0  0  0  0  0  0  0  0  0
   14.5527  -10.2563  -17.5805 N   0  0  0  0  0  0  0  0  0  0  0  0
   14.4272  -10.9620  -16.4375 C   0  0  0  0  0  0  0  0  0  0  0  0
   15.1249  -10.2852  -15.4784 N   0  0  0  0  0  0  0  0  0  0  0  0
   18.4585   -6.7757  -15.3221 C   0  0  0  0  0  0  0  0  0  0  0  0
   18.5435   -6.6659  -14.0728 O   0  0  0  0  0  0  0  0  0  0  0  0
   21.6735   -4.2393  -12.9068 N   0  0  0  0  0  0  0  0  0  0  0  0
   22.2373   -5.2220  -13.7971 C   0  0  0  0  0  0  0  0  0  0  0  0
   23.0228   -6.0261  -13.2565 O   0  0  0  0  0  0  0  0  0  0  0  0
   21.9255   -5.2765  -15.2036 C   0  0  0  0  0  0  0  0  0  0  0  0
   20.9665   -4.3468  -15.8118 C   0  0  0  0  0  0  0  0  0  0  0  0
   19.5239   -4.4895  -15.5108 C   0  0  2  0  0  0  0  0  0  0  0  0
   18.9560   -5.6992  -16.1047 N   0  0  0  0  0  0  0  0  0  0  0  0
   18.6624   -3.3577  -15.8031 C   0  0  0  0  0  0  0  0  0  0  0  0
   18.8315   -2.1620  -15.1305 O   0  0  0  0  0  0  0  0  0  0  0  0
   17.7358   -3.4036  -16.6659 O   0  0  0  0  0  0  0  0  0  0  0  0
  2  4  1  0
  2  1  1  0
  3  2  2  0
  5  4  1  0
  5  6  1  6
  7  8  2  0
  7  5  1  0
  9  7  1  0
 10  9  1  0
 11 12  1  0
 10 11  1  1
 12 13  2  0
 12 16  1  0
 13 14  1  0
 14 15  1  0
 16 15  2  0
 17 18  2  0
 17 10  1  0
 20 19  1  0
 21 20  2  0
 22 20  1  0
 23 22  1  0
 24 23  1  6
 24 25  1  0
 25 17  1  0
 26 24  1  0
 27 26  1  0
 28 26  2  0
M  END
$$$$
