NHQ.pdb
     RDKit          3D

 28 28  0  0  1  0  0  0  0  0999 V2000
   34.9235  -25.1540  -13.1656 N   0  0  0  0  0  0  0  0  0  0  0  0
   36.1537  -25.1497  -13.8739 C   0  0  0  0  0  0  0  0  0  0  0  0
   36.9746  -24.1946  -13.8029 O   0  0  0  0  0  0  0  0  0  0  0  0
   36.4683  -26.3246  -14.7264 C   0  0  0  0  0  0  0  0  0  0  0  0
   35.3922  -26.5684  -15.7626 C   0  0  2  0  0  0  0  0  0  0  0  0
   34.1562  -26.9201  -15.1014 N   0  0  0  0  0  0  0  0  0  0  0  0
   35.8790  -27.6597  -16.6440 C   0  0  0  0  0  0  0  0  0  0  0  0
   36.5694  -27.3795  -17.6552 O   0  0  0  0  0  0  0  0  0  0  0  0
   35.5998  -29.0317  -16.3997 N   0  0  0  0  0  0  0  0  0  0  0  0
   36.0376  -30.1269  -17.2108 C   0  0  1  0  0  0  0  0  0  0  0  0
   36.2805  -31.3880  -16.4314 C   0  0  0  0  0  0  0  0  0  0  0  0
   36.7001  -32.5238  -17.2566 C   0  0  0  0  0  0  0  0  0  0  0  0
   36.0824  -32.9654  -18.4010 C   0  0  0  0  0  0  0  0  0  0  0  0
   36.7787  -34.0257  -18.8527 N   0  0  0  0  0  0  0  0  0  0  0  0
   37.8166  -34.2624  -18.0238 C   0  0  0  0  0  0  0  0  0  0  0  0
   37.7545  -33.3209  -17.0367 N   0  0  0  0  0  0  0  0  0  0  0  0
   35.0165  -30.4407  -18.2686 C   0  0  0  0  0  0  0  0  0  0  0  0
   33.8157  -30.6470  -17.9594 O   0  0  0  0  0  0  0  0  0  0  0  0
   30.4475  -29.1524  -19.8241 N   0  0  0  0  0  0  0  0  0  0  0  0
   30.9353  -29.0826  -21.1782 C   0  0  0  0  0  0  0  0  0  0  0  0
   30.0476  -28.9724  -22.0475 O   0  0  0  0  0  0  0  0  0  0  0  0
   32.3371  -29.1380  -21.5105 C   0  0  0  0  0  0  0  0  0  0  0  0
   33.3568  -29.3981  -20.4875 C   0  0  0  0  0  0  0  0  0  0  0  0
   34.3520  -30.4718  -20.7088 C   0  0  2  0  0  0  0  0  0  0  0  0
   35.3556  -30.5179  -19.6462 N   0  0  0  0  0  0  0  0  0  0  0  0
   35.0138  -30.5172  -22.0005 C   0  0  0  0  0  0  0  0  0  0  0  0
   36.3461  -30.1663  -22.1130 O   0  0  0  0  0  0  0  0  0  0  0  0
   34.4229  -30.8709  -23.0639 O   0  0  0  0  0  0  0  0  0  0  0  0
  2  4  1  0
  2  1  1  0
  3  2  2  0
  5  4  1  0
  5  6  1  1
  7  8  2  0
  7  5  1  0
  9  7  1  0
 10  9  1  0
 11 12  1  0
 10 11  1  1
 12 13  2  0
 12 16  1  0
 13 14  1  0
 14 15  1  0
 16 15  2  0
 17 18  2  0
 17 10  1  0
 20 19  1  0
 21 20  2  0
 22 20  1  0
 23 22  1  0
 24 23  1  6
 24 25  1  0
 25 17  1  0
 26 24  1  0
 27 26  1  0
 28 26  2  0
M  END
$$$$
