NHQ.pdb
     RDKit          3D

 28 28  0  0  1  0  0  0  0  0999 V2000
   20.2987  -12.5461  -17.9030 N   0  0  0  0  0  0  0  0  0  0  0  0
   21.6591  -12.9412  -17.8117 C   0  0  0  0  0  0  0  0  0  0  0  0
   22.6022  -12.1097  -17.7105 O   0  0  0  0  0  0  0  0  0  0  0  0
   21.9634  -14.3948  -17.8381 C   0  0  0  0  0  0  0  0  0  0  0  0
   23.3494  -14.6666  -18.3823 C   0  0  2  0  0  0  0  0  0  0  0  0
   23.3626  -14.4322  -19.8083 N   0  0  0  0  0  0  0  0  0  0  0  0
   23.6766  -16.0761  -18.0494 C   0  0  0  0  0  0  0  0  0  0  0  0
   23.0279  -17.0075  -18.5874 O   0  0  0  0  0  0  0  0  0  0  0  0
   24.7050  -16.4348  -17.1363 N   0  0  0  0  0  0  0  0  0  0  0  0
   25.0631  -17.7714  -16.7698 C   0  0  1  0  0  0  0  0  0  0  0  0
   26.4826  -17.9009  -16.2955 C   0  0  0  0  0  0  0  0  0  0  0  0
   27.4607  -18.0279  -17.3791 C   0  0  0  0  0  0  0  0  0  0  0  0
   27.1763  -18.1392  -18.7181 C   0  0  0  0  0  0  0  0  0  0  0  0
   28.3487  -18.2324  -19.3739 N   0  0  0  0  0  0  0  0  0  0  0  0
   29.3615  -18.1827  -18.4840 C   0  0  0  0  0  0  0  0  0  0  0  0
   28.7941  -18.0556  -17.2485 N   0  0  0  0  0  0  0  0  0  0  0  0
   24.1721  -18.2723  -15.6674 C   0  0  0  0  0  0  0  0  0  0  0  0
   24.1123  -17.6680  -14.5668 O   0  0  0  0  0  0  0  0  0  0  0  0
   18.1678  -20.0066  -15.9997 N   0  0  0  0  0  0  0  0  0  0  0  0
   18.6182  -20.3958  -14.6874 C   0  0  0  0  0  0  0  0  0  0  0  0
   17.7142  -20.7790  -13.9180 O   0  0  0  0  0  0  0  0  0  0  0  0
   20.0021  -20.3463  -14.2867 C   0  0  0  0  0  0  0  0  0  0  0  0
   21.0470  -19.8681  -15.1996 C   0  0  0  0  0  0  0  0  0  0  0  0
   22.4628  -19.9054  -14.7681 C   0  0  2  0  0  0  0  0  0  0  0  0
   23.3686  -19.4348  -15.8153 N   0  0  0  0  0  0  0  0  0  0  0  0
   22.9646  -21.1531  -14.2204 C   0  0  0  0  0  0  0  0  0  0  0  0
   23.8385  -21.9338  -14.9535 O   0  0  0  0  0  0  0  0  0  0  0  0
   22.6380  -21.5813  -13.0737 O   0  0  0  0  0  0  0  0  0  0  0  0
  2  4  1  0
  2  1  1  0
  3  2  2  0
  5  4  1  0
  5  6  1  6
  7  8  2  0
  7  5  1  0
  9  7  1  0
 10  9  1  0
 11 12  1  0
 10 11  1  1
 12 13  2  0
 12 16  1  0
 13 14  1  0
 14 15  1  0
 16 15  2  0
 17 18  2  0
 17 10  1  0
 20 19  1  0
 21 20  2  0
 22 20  1  0
 23 22  1  0
 24 23  1  6
 24 25  1  0
 25 17  1  0
 26 24  1  0
 27 26  1  0
 28 26  2  0
M  END
$$$$
