NHQ.pdb
     RDKit          3D

 28 28  0  0  1  0  0  0  0  0999 V2000
   29.3607  -26.8727  -16.8552 N   0  0  0  0  0  0  0  0  0  0  0  0
   28.0791  -26.3839  -17.2205 C   0  0  0  0  0  0  0  0  0  0  0  0
   27.4582  -26.7996  -18.2368 O   0  0  0  0  0  0  0  0  0  0  0  0
   27.4618  -25.3424  -16.3600 C   0  0  0  0  0  0  0  0  0  0  0  0
   26.7651  -24.2787  -17.1810 C   0  0  2  0  0  0  0  0  0  0  0  0
   27.7481  -23.5131  -17.9133 N   0  0  0  0  0  0  0  0  0  0  0  0
   25.9982  -23.4324  -16.2323 C   0  0  0  0  0  0  0  0  0  0  0  0
   26.6076  -22.7896  -15.3416 O   0  0  0  0  0  0  0  0  0  0  0  0
   24.5830  -23.3084  -16.2789 N   0  0  0  0  0  0  0  0  0  0  0  0
   23.7936  -22.4655  -15.4331 C   0  0  1  0  0  0  0  0  0  0  0  0
   23.7588  -21.0324  -15.8824 C   0  0  0  0  0  0  0  0  0  0  0  0
   22.9051  -20.1730  -15.0581 C   0  0  0  0  0  0  0  0  0  0  0  0
   23.0711  -19.9100  -13.7204 C   0  0  0  0  0  0  0  0  0  0  0  0
   22.0806  -19.0782  -13.3460 N   0  0  0  0  0  0  0  0  0  0  0  0
   21.2970  -18.8114  -14.4114 C   0  0  0  0  0  0  0  0  0  0  0  0
   21.8220  -19.4989  -15.4680 N   0  0  0  0  0  0  0  0  0  0  0  0
   22.3733  -22.9552  -15.3785 C   0  0  0  0  0  0  0  0  0  0  0  0
   21.6670  -22.9906  -16.4177 O   0  0  0  0  0  0  0  0  0  0  0  0
   18.9699  -25.7389  -10.7981 N   0  0  0  0  0  0  0  0  0  0  0  0
   18.0440  -24.8434  -11.4441 C   0  0  0  0  0  0  0  0  0  0  0  0
   16.8427  -25.0621  -11.1890 O   0  0  0  0  0  0  0  0  0  0  0  0
   18.4647  -23.7782  -12.3197 C   0  0  0  0  0  0  0  0  0  0  0  0
   19.8815  -23.5593  -12.6333 C   0  0  0  0  0  0  0  0  0  0  0  0
   20.3335  -23.6256  -14.0417 C   0  0  2  0  0  0  0  0  0  0  0  0
   21.7719  -23.3941  -14.1683 N   0  0  0  0  0  0  0  0  0  0  0  0
   19.6257  -22.8101  -15.0125 C   0  0  0  0  0  0  0  0  0  0  0  0
   19.5235  -21.4436  -14.8315 O   0  0  0  0  0  0  0  0  0  0  0  0
   19.0793  -23.2931  -16.0484 O   0  0  0  0  0  0  0  0  0  0  0  0
  2  4  1  0
  2  1  1  0
  3  2  2  0
  5  4  1  0
  5  6  1  1
  7  8  2  0
  7  5  1  0
  9  7  1  0
 10  9  1  0
 11 12  1  0
 10 11  1  6
 12 13  2  0
 12 16  1  0
 13 14  1  0
 14 15  1  0
 16 15  2  0
 17 18  2  0
 17 10  1  0
 20 19  1  0
 21 20  2  0
 22 20  1  0
 23 22  1  0
 24 23  1  1
 24 25  1  0
 25 17  1  0
 26 24  1  0
 27 26  1  0
 28 26  2  0
M  END
$$$$
