NHQ.pdb
     RDKit          3D

 28 28  0  0  1  0  0  0  0  0999 V2000
   24.5334  -12.8900  -15.2874 N   0  0  0  0  0  0  0  0  0  0  0  0
   24.6472  -11.4752  -15.3044 C   0  0  0  0  0  0  0  0  0  0  0  0
   25.6532  -10.8694  -14.8435 O   0  0  0  0  0  0  0  0  0  0  0  0
   23.5278  -10.6953  -15.8917 C   0  0  0  0  0  0  0  0  0  0  0  0
   22.3602  -11.5844  -16.2623 C   0  0  2  0  0  0  0  0  0  0  0  0
   22.7497  -12.4701  -17.3359 N   0  0  0  0  0  0  0  0  0  0  0  0
   21.2437  -10.6899  -16.6594 C   0  0  0  0  0  0  0  0  0  0  0  0
   21.3478   -9.9906  -17.6976 O   0  0  0  0  0  0  0  0  0  0  0  0
   20.0394  -10.5804  -15.9125 N   0  0  0  0  0  0  0  0  0  0  0  0
   18.9458   -9.7097  -16.2205 C   0  0  1  0  0  0  0  0  0  0  0  0
   17.6000  -10.3432  -16.0099 C   0  0  0  0  0  0  0  0  0  0  0  0
   17.2568  -11.3541  -17.0135 C   0  0  0  0  0  0  0  0  0  0  0  0
   18.0152  -11.7029  -18.1041 C   0  0  0  0  0  0  0  0  0  0  0  0
   17.3485  -12.6657  -18.7688 N   0  0  0  0  0  0  0  0  0  0  0  0
   16.1924  -12.9313  -18.1260 C   0  0  0  0  0  0  0  0  0  0  0  0
   16.1495  -12.1083  -17.0372 N   0  0  0  0  0  0  0  0  0  0  0  0
   19.0002   -8.4730  -15.3674 C   0  0  0  0  0  0  0  0  0  0  0  0
   19.6305   -8.4716  -14.2799 O   0  0  0  0  0  0  0  0  0  0  0  0
   23.0763   -5.4376  -14.4876 N   0  0  0  0  0  0  0  0  0  0  0  0
   22.1423   -4.3418  -14.4328 C   0  0  0  0  0  0  0  0  0  0  0  0
   22.6172   -3.2727  -13.9998 O   0  0  0  0  0  0  0  0  0  0  0  0
   20.7652   -4.4639  -14.8416 C   0  0  0  0  0  0  0  0  0  0  0  0
   20.2044   -5.7513  -15.2681 C   0  0  0  0  0  0  0  0  0  0  0  0
   18.7401   -5.9621  -15.2097 C   0  0  2  0  0  0  0  0  0  0  0  0
   18.3513   -7.2665  -15.7444 N   0  0  0  0  0  0  0  0  0  0  0  0
   17.8908   -4.9328  -15.7822 C   0  0  0  0  0  0  0  0  0  0  0  0
   17.4335   -5.0504  -17.0814 O   0  0  0  0  0  0  0  0  0  0  0  0
   17.5330   -3.9009  -15.1403 O   0  0  0  0  0  0  0  0  0  0  0  0
  2  4  1  0
  2  1  1  0
  3  2  2  0
  5  4  1  0
  5  6  1  6
  7  8  2  0
  7  5  1  0
  9  7  1  0
 10  9  1  0
 11 12  1  0
 10 11  1  1
 12 13  2  0
 12 16  1  0
 13 14  1  0
 14 15  1  0
 16 15  2  0
 17 18  2  0
 17 10  1  0
 20 19  1  0
 21 20  2  0
 22 20  1  0
 23 22  1  0
 24 23  1  6
 24 25  1  0
 25 17  1  0
 26 24  1  0
 27 26  1  0
 28 26  2  0
M  END
$$$$
