NHQ.pdb
     RDKit          3D

 28 28  0  0  1  0  0  0  0  0999 V2000
   27.0987  -22.4658  -22.5043 N   0  0  0  0  0  0  0  0  0  0  0  0
   26.6941  -23.7937  -22.8013 C   0  0  0  0  0  0  0  0  0  0  0  0
   27.4431  -24.6140  -23.3990 O   0  0  0  0  0  0  0  0  0  0  0  0
   25.3322  -24.2146  -22.3838 C   0  0  0  0  0  0  0  0  0  0  0  0
   24.5552  -23.0686  -21.7721 C   0  0  2  0  0  0  0  0  0  0  0  0
   25.4585  -21.9837  -21.4626 N   0  0  0  0  0  0  0  0  0  0  0  0
   23.8881  -23.5982  -20.5559 C   0  0  0  0  0  0  0  0  0  0  0  0
   23.0815  -24.5557  -20.6575 O   0  0  0  0  0  0  0  0  0  0  0  0
   24.1179  -23.0688  -19.2570 N   0  0  0  0  0  0  0  0  0  0  0  0
   23.4706  -23.5015  -18.0559 C   0  0  1  0  0  0  0  0  0  0  0  0
   24.4068  -23.6396  -16.8891 C   0  0  0  0  0  0  0  0  0  0  0  0
   25.3574  -24.7470  -17.0193 C   0  0  0  0  0  0  0  0  0  0  0  0
   25.4563  -25.6087  -18.0841 C   0  0  0  0  0  0  0  0  0  0  0  0
   26.4507  -26.4749  -17.8120 N   0  0  0  0  0  0  0  0  0  0  0  0
   26.9791  -26.1813  -16.6059 C   0  0  0  0  0  0  0  0  0  0  0  0
   26.2893  -25.1052  -16.1255 N   0  0  0  0  0  0  0  0  0  0  0  0
   22.3944  -22.5303  -17.6577 C   0  0  0  0  0  0  0  0  0  0  0  0
   22.3607  -21.3738  -18.1492 O   0  0  0  0  0  0  0  0  0  0  0  0
   16.9645  -22.5458  -18.9239 N   0  0  0  0  0  0  0  0  0  0  0  0
   17.1006  -21.2620  -18.2837 C   0  0  0  0  0  0  0  0  0  0  0  0
   16.0604  -20.5738  -18.2687 O   0  0  0  0  0  0  0  0  0  0  0  0
   18.3384  -20.8010  -17.7061 C   0  0  0  0  0  0  0  0  0  0  0  0
   19.5566  -21.6182  -17.7534 C   0  0  0  0  0  0  0  0  0  0  0  0
   20.2095  -22.0246  -16.4883 C   0  0  2  0  0  0  0  0  0  0  0  0
   21.3808  -22.8686  -16.7212 N   0  0  0  0  0  0  0  0  0  0  0  0
   19.3739  -22.6296  -15.4663 C   0  0  0  0  0  0  0  0  0  0  0  0
   18.7484  -21.8391  -14.5205 O   0  0  0  0  0  0  0  0  0  0  0  0
   19.1786  -23.8789  -15.3885 O   0  0  0  0  0  0  0  0  0  0  0  0
  2  4  1  0
  2  1  1  0
  3  2  2  0
  5  4  1  0
  5  6  1  1
  7  8  2  0
  7  5  1  0
  9  7  1  0
 10  9  1  0
 11 12  1  0
 10 11  1  1
 12 13  2  0
 12 16  1  0
 13 14  1  0
 14 15  1  0
 16 15  2  0
 17 18  2  0
 17 10  1  0
 20 19  1  0
 21 20  2  0
 22 20  1  0
 23 22  1  0
 24 23  1  6
 24 25  1  0
 25 17  1  0
 26 24  1  0
 27 26  1  0
 28 26  2  0
M  END
$$$$
