NHQ.pdb
     RDKit          3D

 28 28  0  0  1  0  0  0  0  0999 V2000
   24.0047  -35.8208   -6.9718 N   0  0  0  0  0  0  0  0  0  0  0  0
   24.0672  -34.5695   -6.3044 C   0  0  0  0  0  0  0  0  0  0  0  0
   23.8504  -34.4482   -5.0677 O   0  0  0  0  0  0  0  0  0  0  0  0
   24.4022  -33.3681   -7.1110 C   0  0  0  0  0  0  0  0  0  0  0  0
   24.7628  -33.7328   -8.5350 C   0  0  2  0  0  0  0  0  0  0  0  0
   26.1728  -34.0403   -8.6123 N   0  0  0  0  0  0  0  0  0  0  0  0
   24.4020  -32.5697   -9.3846 C   0  0  0  0  0  0  0  0  0  0  0  0
   24.6873  -31.4084   -9.0005 O   0  0  0  0  0  0  0  0  0  0  0  0
   23.7376  -32.7031  -10.6339 N   0  0  0  0  0  0  0  0  0  0  0  0
   23.3774  -31.6248  -11.5038 C   0  0  1  0  0  0  0  0  0  0  0  0
   23.4218  -31.9915  -12.9599 C   0  0  0  0  0  0  0  0  0  0  0  0
   24.7779  -32.1714  -13.4851 C   0  0  0  0  0  0  0  0  0  0  0  0
   25.9475  -31.9713  -12.7936 C   0  0  0  0  0  0  0  0  0  0  0  0
   26.9648  -32.2457  -13.6321 N   0  0  0  0  0  0  0  0  0  0  0  0
   26.4666  -32.6125  -14.8311 C   0  0  0  0  0  0  0  0  0  0  0  0
   25.1062  -32.5615  -14.7243 N   0  0  0  0  0  0  0  0  0  0  0  0
   21.9845  -31.1467  -11.2018 C   0  0  0  0  0  0  0  0  0  0  0  0
   21.1285  -31.9300  -10.7182 O   0  0  0  0  0  0  0  0  0  0  0  0
   20.0349  -25.0735   -9.8912 N   0  0  0  0  0  0  0  0  0  0  0  0
   18.8550  -25.8591  -10.1500 C   0  0  0  0  0  0  0  0  0  0  0  0
   17.7779  -25.2755   -9.9152 O   0  0  0  0  0  0  0  0  0  0  0  0
   18.9069  -27.2143  -10.6390 C   0  0  0  0  0  0  0  0  0  0  0  0
   20.1828  -27.8628  -10.9635 C   0  0  0  0  0  0  0  0  0  0  0  0
   20.2249  -29.3304  -11.1550 C   0  0  2  0  0  0  0  0  0  0  0  0
   21.5763  -29.8078  -11.4454 N   0  0  0  0  0  0  0  0  0  0  0  0
   19.2932  -29.9099  -12.1061 C   0  0  0  0  0  0  0  0  0  0  0  0
   18.0424  -30.3263  -11.6901 O   0  0  0  0  0  0  0  0  0  0  0  0
   19.5682  -30.0608  -13.3335 O   0  0  0  0  0  0  0  0  0  0  0  0
  2  4  1  0
  2  1  1  0
  3  2  2  0
  5  4  1  0
  5  6  1  1
  7  8  2  0
  7  5  1  0
  9  7  1  0
 10  9  1  0
 11 12  1  0
 10 11  1  6
 12 13  2  0
 12 16  1  0
 13 14  1  0
 14 15  1  0
 16 15  2  0
 17 18  2  0
 17 10  1  0
 20 19  1  0
 21 20  2  0
 22 20  1  0
 23 22  1  0
 24 23  1  6
 24 25  1  0
 25 17  1  0
 26 24  1  0
 27 26  1  0
 28 26  2  0
M  END
$$$$
