NHQ.pdb
     RDKit          3D

 28 28  0  0  1  0  0  0  0  0999 V2000
   23.2167  -12.5685  -20.9823 N   0  0  0  0  0  0  0  0  0  0  0  0
   21.8008  -12.4786  -21.0305 C   0  0  0  0  0  0  0  0  0  0  0  0
   21.1153  -13.0366  -21.9305 O   0  0  0  0  0  0  0  0  0  0  0  0
   21.1183  -11.6922  -19.9712 C   0  0  0  0  0  0  0  0  0  0  0  0
   22.1095  -11.0520  -19.0231 C   0  0  2  0  0  0  0  0  0  0  0  0
   22.7918  -12.0805  -18.2712 N   0  0  0  0  0  0  0  0  0  0  0  0
   21.3381  -10.1402  -18.1410 C   0  0  0  0  0  0  0  0  0  0  0  0
   20.6974   -9.1844  -18.6445 O   0  0  0  0  0  0  0  0  0  0  0  0
   21.2852  -10.2942  -16.7290 N   0  0  0  0  0  0  0  0  0  0  0  0
   20.5843   -9.4345  -15.8242 C   0  0  1  0  0  0  0  0  0  0  0  0
   20.0556  -10.1468  -14.6117 C   0  0  0  0  0  0  0  0  0  0  0  0
   18.8223  -10.8991  -14.8566 C   0  0  0  0  0  0  0  0  0  0  0  0
   18.1122  -10.9301  -16.0318 C   0  0  0  0  0  0  0  0  0  0  0  0
   17.0503  -11.7358  -15.8412 N   0  0  0  0  0  0  0  0  0  0  0  0
   17.0736  -12.2117  -14.5790 C   0  0  0  0  0  0  0  0  0  0  0  0
   18.1807  -11.6829  -13.9794 N   0  0  0  0  0  0  0  0  0  0  0  0
   21.4840   -8.3309  -15.3419 C   0  0  0  0  0  0  0  0  0  0  0  0
   22.7008   -8.5489  -15.1144 O   0  0  0  0  0  0  0  0  0  0  0  0
   22.1800   -2.6145  -17.7193 N   0  0  0  0  0  0  0  0  0  0  0  0
   22.8239   -2.5650  -16.4312 C   0  0  0  0  0  0  0  0  0  0  0  0
   23.4675   -1.5198  -16.2096 O   0  0  0  0  0  0  0  0  0  0  0  0
   22.7382   -3.6360  -15.4699 C   0  0  0  0  0  0  0  0  0  0  0  0
   21.9630   -4.8514  -15.7449 C   0  0  0  0  0  0  0  0  0  0  0  0
   21.8858   -5.9134  -14.7161 C   0  0  2  0  0  0  0  0  0  0  0  0
   21.0082   -7.0100  -15.1236 N   0  0  0  0  0  0  0  0  0  0  0  0
   21.5581   -5.5110  -13.3599 C   0  0  0  0  0  0  0  0  0  0  0  0
   22.4874   -4.8371  -12.5899 O   0  0  0  0  0  0  0  0  0  0  0  0
   20.4350   -5.7491  -12.8243 O   0  0  0  0  0  0  0  0  0  0  0  0
  2  4  1  0
  2  1  1  0
  3  2  2  0
  5  4  1  0
  5  6  1  1
  7  8  2  0
  7  5  1  0
  9  7  1  0
 10  9  1  0
 11 12  1  0
 10 11  1  1
 12 13  2  0
 12 16  1  0
 13 14  1  0
 14 15  1  0
 16 15  2  0
 17 18  2  0
 17 10  1  0
 20 19  1  0
 21 20  2  0
 22 20  1  0
 23 22  1  0
 24 23  1  6
 24 25  1  0
 25 17  1  0
 26 24  1  0
 27 26  1  0
 28 26  2  0
M  END
$$$$
