NHQ.pdb
     RDKit          3D

 28 28  0  0  1  0  0  0  0  0999 V2000
   25.9324  -22.4166  -11.1085 N   0  0  0  0  0  0  0  0  0  0  0  0
   25.7562  -21.0234  -10.9011 C   0  0  0  0  0  0  0  0  0  0  0  0
   26.4354  -20.3707  -10.0622 O   0  0  0  0  0  0  0  0  0  0  0  0
   24.7271  -20.3250  -11.7131 C   0  0  0  0  0  0  0  0  0  0  0  0
   23.9452  -21.2912  -12.5770 C   0  0  2  0  0  0  0  0  0  0  0  0
   24.8332  -21.9093  -13.5352 N   0  0  0  0  0  0  0  0  0  0  0  0
   22.8724  -20.5081  -13.2406 C   0  0  0  0  0  0  0  0  0  0  0  0
   22.0142  -19.9145  -12.5415 O   0  0  0  0  0  0  0  0  0  0  0  0
   22.7624  -20.3923  -14.6530 N   0  0  0  0  0  0  0  0  0  0  0  0
   21.7022  -19.7333  -15.3535 C   0  0  1  0  0  0  0  0  0  0  0  0
   22.0660  -19.3429  -16.7578 C   0  0  0  0  0  0  0  0  0  0  0  0
   23.0596  -18.2688  -16.8362 C   0  0  0  0  0  0  0  0  0  0  0  0
   23.0768  -17.1242  -16.0774 C   0  0  0  0  0  0  0  0  0  0  0  0
   24.1494  -16.4039  -16.4566 N   0  0  0  0  0  0  0  0  0  0  0  0
   24.8065  -17.0643  -17.4325 C   0  0  0  0  0  0  0  0  0  0  0  0
   24.1173  -18.2214  -17.6576 N   0  0  0  0  0  0  0  0  0  0  0  0
   20.4909  -20.6202  -15.4318 C   0  0  0  0  0  0  0  0  0  0  0  0
   20.6094  -21.8713  -15.4030 O   0  0  0  0  0  0  0  0  0  0  0  0
   19.4403  -22.6852  -11.9203 N   0  0  0  0  0  0  0  0  0  0  0  0
   18.2259  -21.9098  -11.9050 C   0  0  0  0  0  0  0  0  0  0  0  0
   17.8242  -21.5920  -10.7676 O   0  0  0  0  0  0  0  0  0  0  0  0
   17.5230  -21.5296  -13.1049 C   0  0  0  0  0  0  0  0  0  0  0  0
   18.0050  -21.9269  -14.4330 C   0  0  0  0  0  0  0  0  0  0  0  0
   17.9846  -20.9426  -15.5388 C   0  0  2  0  0  0  0  0  0  0  0  0
   19.1756  -20.0940  -15.5408 N   0  0  0  0  0  0  0  0  0  0  0  0
   16.8006  -20.1134  -15.6771 C   0  0  0  0  0  0  0  0  0  0  0  0
   16.9001  -18.7374  -15.5900 O   0  0  0  0  0  0  0  0  0  0  0  0
   15.6453  -20.5924  -15.8792 O   0  0  0  0  0  0  0  0  0  0  0  0
  2  4  1  0
  2  1  1  0
  3  2  2  0
  5  4  1  0
  5  6  1  6
  7  8  2  0
  7  5  1  0
  9  7  1  0
 10  9  1  0
 11 12  1  0
 10 11  1  6
 12 13  2  0
 12 16  1  0
 13 14  1  0
 14 15  1  0
 16 15  2  0
 17 18  2  0
 17 10  1  0
 20 19  1  0
 21 20  2  0
 22 20  1  0
 23 22  1  0
 24 23  1  1
 24 25  1  0
 25 17  1  0
 26 24  1  0
 27 26  1  0
 28 26  2  0
M  END
$$$$
