HDL.pdb
     RDKit          3D

 27 27  0  0  1  0  0  0  0  0999 V2000
   42.7246   -6.3760   -8.2287 N   0  0  0  0  0  0  0  0  0  0  0  0
   43.5741   -7.5372   -8.1413 C   0  0  1  0  0  0  0  0  0  0  0  0
   44.1531   -7.7268   -6.7764 C   0  0  0  0  0  0  0  0  0  0  0  0
   44.8664   -6.5211   -6.3110 C   0  0  0  0  0  0  0  0  0  0  0  0
   46.1779   -6.1574   -6.6780 C   0  0  0  0  0  0  0  0  0  0  0  0
   46.5184   -5.0133   -6.0803 N   0  0  0  0  0  0  0  0  0  0  0  0
   45.4684   -4.6365   -5.3461 C   0  0  0  0  0  0  0  0  0  0  0  0
   44.4920   -5.5377   -5.4900 N   0  0  0  0  0  0  0  0  0  0  0  0
   43.0071   -8.7618   -8.7039 C   0  0  0  0  0  0  0  0  0  0  0  0
   41.7667   -8.8251   -9.0124 O   0  0  0  0  0  0  0  0  0  0  0  0
   43.7268   -9.9522   -8.9501 N   0  0  0  0  0  0  0  0  0  0  0  0
   43.2768  -10.9924   -9.8204 C   0  0  1  0  0  0  0  0  0  0  0  0
   43.0549  -10.6506  -11.2421 C   0  0  0  0  0  0  0  0  0  0  0  0
   42.5658  -11.7404  -12.1110 C   0  0  0  0  0  0  0  0  0  0  0  0
   43.3276  -12.2147  -12.9764 O   0  0  0  0  0  0  0  0  0  0  0  0
   44.2169  -12.1572   -9.7950 C   0  0  0  0  0  0  0  0  0  0  0  0
   45.4405  -12.0407   -9.9974 O   0  0  0  0  0  0  0  0  0  0  0  0
   41.2895  -12.1961  -11.9408 O   0  0  0  0  0  0  0  0  0  0  0  0
   45.1827  -17.0608   -7.1890 C   0  0  0  0  0  0  0  0  0  0  0  0
   44.2569  -16.9444   -8.3291 C   0  0  1  0  0  0  0  0  0  0  0  0
   43.0568  -17.8901   -8.1935 C   0  0  0  0  0  0  0  0  0  0  0  0
   43.7299  -15.6380   -8.7370 C   0  0  0  0  0  0  0  0  0  0  0  0
   44.6301  -14.5603   -9.2058 C   0  0  2  0  0  0  0  0  0  0  0  0
   43.6831  -13.4347   -9.5294 N   0  0  0  0  0  0  0  0  0  0  0  0
   45.2522  -14.8679  -10.4958 C   0  0  0  0  0  0  0  0  0  0  0  0
   46.5619  -15.3338  -10.5702 O   0  0  0  0  0  0  0  0  0  0  0  0
   44.6761  -14.7378  -11.5980 O   0  0  0  0  0  0  0  0  0  0  0  0
  2  1  1  1
  3  2  1  0
  4  8  1  0
  4  3  1  0
  5  4  2  0
  6  5  1  0
  6  7  1  0
  7  8  2  0
  9  2  1  0
 10  9  2  0
 11  9  1  0
 12 13  1  6
 12 11  1  0
 13 14  1  0
 14 15  2  0
 16 12  1  0
 17 16  2  0
 18 14  1  0
 20 19  1  1
 20 21  1  0
 22 20  1  0
 23 22  1  6
 23 24  1  0
 24 16  1  0
 25 26  1  0
 25 23  1  0
 27 25  2  0
M  END
$$$$
