HDL.pdb
     RDKit          3D

 27 27  0  0  1  0  0  0  0  0999 V2000
   24.1112  -17.6121  -16.2043 N   0  0  0  0  0  0  0  0  0  0  0  0
   22.8331  -16.9892  -16.4410 C   0  0  1  0  0  0  0  0  0  0  0  0
   21.8092  -17.3670  -15.4198 C   0  0  0  0  0  0  0  0  0  0  0  0
   21.6371  -18.8304  -15.3311 C   0  0  0  0  0  0  0  0  0  0  0  0
   21.8164  -19.7381  -16.3945 C   0  0  0  0  0  0  0  0  0  0  0  0
   21.5819  -20.9838  -15.9758 N   0  0  0  0  0  0  0  0  0  0  0  0
   21.2600  -20.8998  -14.6824 C   0  0  0  0  0  0  0  0  0  0  0  0
   21.2962  -19.6172  -14.3083 N   0  0  0  0  0  0  0  0  0  0  0  0
   22.8850  -15.5517  -16.7031 C   0  0  0  0  0  0  0  0  0  0  0  0
   23.3750  -14.7475  -15.8366 O   0  0  0  0  0  0  0  0  0  0  0  0
   22.4176  -14.9225  -17.8784 N   0  0  0  0  0  0  0  0  0  0  0  0
   22.4836  -13.5141  -18.1109 C   0  0  1  0  0  0  0  0  0  0  0  0
   23.0409  -13.0564  -19.4021 C   0  0  0  0  0  0  0  0  0  0  0  0
   24.4803  -13.3051  -19.6212 C   0  0  0  0  0  0  0  0  0  0  0  0
   24.8422  -14.4032  -20.0874 O   0  0  0  0  0  0  0  0  0  0  0  0
   21.1326  -12.8838  -17.9727 C   0  0  0  0  0  0  0  0  0  0  0  0
   20.0808  -13.4645  -18.3017 O   0  0  0  0  0  0  0  0  0  0  0  0
   25.3743  -12.3222  -19.3043 O   0  0  0  0  0  0  0  0  0  0  0  0
   17.0570  -12.3326  -14.7711 C   0  0  0  0  0  0  0  0  0  0  0  0
   17.8390  -11.3467  -15.5373 C   0  0  1  0  0  0  0  0  0  0  0  0
   18.0409  -10.0417  -14.7568 C   0  0  0  0  0  0  0  0  0  0  0  0
   19.1378  -11.7059  -16.1161 C   0  0  0  0  0  0  0  0  0  0  0  0
   19.7052  -10.9498  -17.2554 C   0  0  2  0  0  0  0  0  0  0  0  0
   21.0607  -11.5779  -17.4467 N   0  0  0  0  0  0  0  0  0  0  0  0
   20.0156   -9.5605  -16.9101 C   0  0  0  0  0  0  0  0  0  0  0  0
   19.0660   -8.5532  -17.0569 O   0  0  0  0  0  0  0  0  0  0  0  0
   21.1237   -9.1800  -16.4732 O   0  0  0  0  0  0  0  0  0  0  0  0
  2  1  1  1
  3  2  1  0
  4  8  1  0
  4  3  1  0
  5  4  2  0
  6  5  1  0
  6  7  1  0
  7  8  2  0
  9  2  1  0
 10  9  2  0
 11  9  1  0
 12 13  1  6
 12 11  1  0
 13 14  1  0
 14 15  2  0
 16 12  1  0
 17 16  2  0
 18 14  1  0
 20 19  1  1
 20 21  1  0
 22 20  1  0
 23 22  1  1
 23 24  1  0
 24 16  1  0
 25 26  1  0
 25 23  1  0
 27 25  2  0
M  END
$$$$
