HDL.pdb
     RDKit          3D

 27 27  0  0  1  0  0  0  0  0999 V2000
   17.9632  -13.0572  -15.2865 N   0  0  0  0  0  0  0  0  0  0  0  0
   17.7940  -11.8653  -16.0792 C   0  0  1  0  0  0  0  0  0  0  0  0
   16.3734  -11.4034  -16.1302 C   0  0  0  0  0  0  0  0  0  0  0  0
   15.4645  -12.4742  -16.5845 C   0  0  0  0  0  0  0  0  0  0  0  0
   14.6866  -12.4390  -17.7595 C   0  0  0  0  0  0  0  0  0  0  0  0
   13.9785  -13.5650  -17.8719 N   0  0  0  0  0  0  0  0  0  0  0  0
   14.2796  -14.3156  -16.8091 C   0  0  0  0  0  0  0  0  0  0  0  0
   15.1634  -13.6598  -16.0507 N   0  0  0  0  0  0  0  0  0  0  0  0
   18.7413  -10.7902  -15.7889 C   0  0  0  0  0  0  0  0  0  0  0  0
   18.7501  -10.2195  -14.6434 O   0  0  0  0  0  0  0  0  0  0  0  0
   19.6981  -10.2831  -16.6961 N   0  0  0  0  0  0  0  0  0  0  0  0
   20.5972   -9.2141  -16.3945 C   0  0  1  0  0  0  0  0  0  0  0  0
   21.9438   -9.2564  -17.0045 C   0  0  0  0  0  0  0  0  0  0  0  0
   22.8957   -8.2148  -16.5676 C   0  0  0  0  0  0  0  0  0  0  0  0
   22.5607   -7.4291  -15.6595 O   0  0  0  0  0  0  0  0  0  0  0  0
   19.9976   -7.8908  -16.7558 C   0  0  0  0  0  0  0  0  0  0  0  0
   19.4902   -7.6622  -17.8703 O   0  0  0  0  0  0  0  0  0  0  0  0
   24.1173   -8.1425  -17.1744 O   0  0  0  0  0  0  0  0  0  0  0  0
   15.5600   -6.3523  -16.5484 C   0  0  0  0  0  0  0  0  0  0  0  0
   16.9648   -6.0478  -16.8714 C   0  0  1  0  0  0  0  0  0  0  0  0
   17.0861   -4.9038  -17.8860 C   0  0  0  0  0  0  0  0  0  0  0  0
   17.9386   -5.7828  -15.8072 C   0  0  0  0  0  0  0  0  0  0  0  0
   19.3674   -5.5486  -16.1160 C   0  0  2  0  0  0  0  0  0  0  0  0
   20.0136   -6.8682  -15.7855 N   0  0  0  0  0  0  0  0  0  0  0  0
   19.9989   -4.6130  -15.1824 C   0  0  0  0  0  0  0  0  0  0  0  0
   20.8569   -5.0631  -14.1828 O   0  0  0  0  0  0  0  0  0  0  0  0
   19.8211   -3.3755  -15.2059 O   0  0  0  0  0  0  0  0  0  0  0  0
  2  1  1  1
  3  2  1  0
  4  8  1  0
  4  3  1  0
  5  4  2  0
  6  5  1  0
  6  7  1  0
  7  8  2  0
  9  2  1  0
 10  9  2  0
 11  9  1  0
 12 13  1  6
 12 11  1  0
 13 14  1  0
 14 15  2  0
 16 12  1  0
 17 16  2  0
 18 14  1  0
 20 19  1  1
 20 21  1  0
 22 20  1  0
 23 22  1  1
 23 24  1  0
 24 16  1  0
 25 26  1  0
 25 23  1  0
 27 25  2  0
M  END
$$$$
