HDL.pdb
     RDKit          3D

 27 27  0  0  1  0  0  0  0  0999 V2000
   27.3449  -21.1233  -16.0317 N   0  0  0  0  0  0  0  0  0  0  0  0
   27.5175  -19.7373  -15.6757 C   0  0  1  0  0  0  0  0  0  0  0  0
   27.4943  -18.8296  -16.8630 C   0  0  0  0  0  0  0  0  0  0  0  0
   28.3849  -19.3098  -17.9379 C   0  0  0  0  0  0  0  0  0  0  0  0
   28.0861  -20.3512  -18.8396 C   0  0  0  0  0  0  0  0  0  0  0  0
   29.1055  -20.5318  -19.6823 N   0  0  0  0  0  0  0  0  0  0  0  0
   30.0424  -19.6407  -19.3481 C   0  0  0  0  0  0  0  0  0  0  0  0
   29.6051  -18.9190  -18.3116 N   0  0  0  0  0  0  0  0  0  0  0  0
   26.6743  -19.2718  -14.5757 C   0  0  0  0  0  0  0  0  0  0  0  0
   26.0886  -18.1355  -14.6379 O   0  0  0  0  0  0  0  0  0  0  0  0
   26.4305  -19.9846  -13.3807 N   0  0  0  0  0  0  0  0  0  0  0  0
   25.1484  -20.0850  -12.7577 C   0  0  1  0  0  0  0  0  0  0  0  0
   24.0325  -20.6233  -13.5653 C   0  0  0  0  0  0  0  0  0  0  0  0
   22.6894  -20.5613  -12.9536 C   0  0  0  0  0  0  0  0  0  0  0  0
   21.7241  -20.1841  -13.6464 O   0  0  0  0  0  0  0  0  0  0  0  0
   25.2210  -20.9112  -11.5113 C   0  0  0  0  0  0  0  0  0  0  0  0
   25.1548  -22.1551  -11.5220 O   0  0  0  0  0  0  0  0  0  0  0  0
   22.5452  -20.9186  -11.6432 O   0  0  0  0  0  0  0  0  0  0  0  0
   28.0322  -18.7691   -7.2874 C   0  0  0  0  0  0  0  0  0  0  0  0
   27.4342  -19.7933   -8.1615 C   0  0  1  0  0  0  0  0  0  0  0  0
   28.2375  -21.1000   -8.1483 C   0  0  0  0  0  0  0  0  0  0  0  0
   26.0196  -20.1577   -8.0310 C   0  0  0  0  0  0  0  0  0  0  0  0
   25.3648  -21.0535   -9.0110 C   0  0  2  0  0  0  0  0  0  0  0  0
   25.3709  -20.2418  -10.2796 N   0  0  0  0  0  0  0  0  0  0  0  0
   23.9395  -21.2460   -8.7328 C   0  0  0  0  0  0  0  0  0  0  0  0
   23.5142  -22.0566   -7.6841 O   0  0  0  0  0  0  0  0  0  0  0  0
   23.0206  -20.7173   -9.3959 O   0  0  0  0  0  0  0  0  0  0  0  0
  2  1  1  6
  3  2  1  0
  4  8  1  0
  4  3  1  0
  5  4  2  0
  6  5  1  0
  6  7  1  0
  7  8  2  0
  9  2  1  0
 10  9  2  0
 11  9  1  0
 12 13  1  6
 12 11  1  0
 13 14  1  0
 14 15  2  0
 16 12  1  0
 17 16  2  0
 18 14  1  0
 20 19  1  1
 20 21  1  0
 22 20  1  0
 23 22  1  1
 23 24  1  0
 24 16  1  0
 25 26  1  0
 25 23  1  0
 27 25  2  0
M  END
$$$$
