HDL.pdb
     RDKit          3D

 27 27  0  0  1  0  0  0  0  0999 V2000
   24.4645  -22.0599   12.8349 N   0  0  0  0  0  0  0  0  0  0  0  0
   25.3372  -22.8887   12.0418 C   0  0  1  0  0  0  0  0  0  0  0  0
   24.8648  -23.0401   10.6319 C   0  0  0  0  0  0  0  0  0  0  0  0
   23.5955  -23.7900   10.5564 C   0  0  0  0  0  0  0  0  0  0  0  0
   22.3106  -23.2135   10.4965 C   0  0  0  0  0  0  0  0  0  0  0  0
   21.3829  -24.1715   10.4364 N   0  0  0  0  0  0  0  0  0  0  0  0
   22.0335  -25.3376   10.4555 C   0  0  0  0  0  0  0  0  0  0  0  0
   23.3470  -25.1009   10.5261 N   0  0  0  0  0  0  0  0  0  0  0  0
   26.7591  -22.5636   12.1432 C   0  0  0  0  0  0  0  0  0  0  0  0
   27.1557  -21.3477   12.0957 O   0  0  0  0  0  0  0  0  0  0  0  0
   27.8000  -23.5072   12.2901 N   0  0  0  0  0  0  0  0  0  0  0  0
   29.1763  -23.1594   12.4549 C   0  0  1  0  0  0  0  0  0  0  0  0
   30.0033  -24.0224   13.3257 C   0  0  0  0  0  0  0  0  0  0  0  0
   31.3592  -23.5291   13.6424 C   0  0  0  0  0  0  0  0  0  0  0  0
   32.3464  -24.1097   13.1499 O   0  0  0  0  0  0  0  0  0  0  0  0
   29.8723  -23.0827   11.1316 C   0  0  0  0  0  0  0  0  0  0  0  0
   29.5927  -23.8341   10.1782 O   0  0  0  0  0  0  0  0  0  0  0  0
   31.4911  -22.4495   14.4686 O   0  0  0  0  0  0  0  0  0  0  0  0
   30.8867  -18.6430    7.6892 C   0  0  0  0  0  0  0  0  0  0  0  0
   31.0404  -20.0797    7.9770 C   0  0  1  0  0  0  0  0  0  0  0  0
   31.9911  -20.7654    6.9877 C   0  0  0  0  0  0  0  0  0  0  0  0
   31.4122  -20.5403    9.3189 C   0  0  0  0  0  0  0  0  0  0  0  0
   31.5485  -21.9823    9.6244 C   0  0  2  0  0  0  0  0  0  0  0  0
   30.8848  -22.1152   10.9698 N   0  0  0  0  0  0  0  0  0  0  0  0
   32.9359  -22.3737    9.8853 C   0  0  0  0  0  0  0  0  0  0  0  0
   33.3651  -22.6875   11.1718 O   0  0  0  0  0  0  0  0  0  0  0  0
   33.8177  -22.4514    9.0022 O   0  0  0  0  0  0  0  0  0  0  0  0
  2  1  1  6
  3  2  1  0
  4  8  1  0
  4  3  1  0
  5  4  2  0
  6  5  1  0
  6  7  1  0
  7  8  2  0
  9  2  1  0
 10  9  2  0
 11  9  1  0
 12 13  1  1
 12 11  1  0
 13 14  1  0
 14 15  2  0
 16 12  1  0
 17 16  2  0
 18 14  1  0
 20 19  1  1
 20 21  1  0
 22 20  1  0
 23 22  1  1
 23 24  1  0
 24 16  1  0
 25 26  1  0
 25 23  1  0
 27 25  2  0
M  END
$$$$
