HDL.pdb
     RDKit          3D

 27 27  0  0  1  0  0  0  0  0999 V2000
   18.3570  -10.5152  -15.7797 N   0  0  0  0  0  0  0  0  0  0  0  0
   19.0682   -9.5061  -16.5236 C   0  0  1  0  0  0  0  0  0  0  0  0
   18.4784   -9.2628  -17.8752 C   0  0  0  0  0  0  0  0  0  0  0  0
   18.3795  -10.5076  -18.6626 C   0  0  0  0  0  0  0  0  0  0  0  0
   19.3630  -10.9919  -19.5486 C   0  0  0  0  0  0  0  0  0  0  0  0
   18.9580  -12.1397  -20.0969 N   0  0  0  0  0  0  0  0  0  0  0  0
   17.7508  -12.4025  -19.5896 C   0  0  0  0  0  0  0  0  0  0  0  0
   17.4160  -11.4280  -18.7383 N   0  0  0  0  0  0  0  0  0  0  0  0
   19.3478   -8.2756  -15.7850 C   0  0  0  0  0  0  0  0  0  0  0  0
   18.4756   -7.7780  -14.9916 O   0  0  0  0  0  0  0  0  0  0  0  0
   20.5471   -7.5336  -15.8664 N   0  0  0  0  0  0  0  0  0  0  0  0
   20.7681   -6.2953  -15.1881 C   0  0  1  0  0  0  0  0  0  0  0  0
   22.0982   -6.0724  -14.5812 C   0  0  0  0  0  0  0  0  0  0  0  0
   22.2482   -4.8562  -13.7564 C   0  0  0  0  0  0  0  0  0  0  0  0
   22.5987   -3.7920  -14.3029 O   0  0  0  0  0  0  0  0  0  0  0  0
   20.5031   -5.1330  -16.0938 C   0  0  0  0  0  0  0  0  0  0  0  0
   20.8469   -5.1190  -17.2910 O   0  0  0  0  0  0  0  0  0  0  0  0
   21.9992   -4.9347  -12.4157 O   0  0  0  0  0  0  0  0  0  0  0  0
   18.2398   -2.1364  -19.4665 C   0  0  0  0  0  0  0  0  0  0  0  0
   17.5984   -2.6821  -18.2576 C   0  0  1  0  0  0  0  0  0  0  0  0
   16.3225   -3.4667  -18.5884 C   0  0  0  0  0  0  0  0  0  0  0  0
   18.3636   -3.4901  -17.3023 C   0  0  0  0  0  0  0  0  0  0  0  0
   19.4440   -2.8931  -16.4852 C   0  0  2  0  0  0  0  0  0  0  0  0
   19.8355   -4.0131  -15.5576 N   0  0  0  0  0  0  0  0  0  0  0  0
   18.9543   -1.8514  -15.5791 C   0  0  0  0  0  0  0  0  0  0  0  0
   19.0769   -0.5025  -15.9003 O   0  0  0  0  0  0  0  0  0  0  0  0
   18.4075   -2.0832  -14.4787 O   0  0  0  0  0  0  0  0  0  0  0  0
  2  1  1  1
  3  2  1  0
  4  8  1  0
  4  3  1  0
  5  4  2  0
  6  5  1  0
  6  7  1  0
  7  8  2  0
  9  2  1  0
 10  9  2  0
 11  9  1  0
 12 13  1  6
 12 11  1  0
 13 14  1  0
 14 15  2  0
 16 12  1  0
 17 16  2  0
 18 14  1  0
 20 19  1  6
 20 21  1  0
 22 20  1  0
 23 22  1  6
 23 24  1  0
 24 16  1  0
 25 26  1  0
 25 23  1  0
 27 25  2  0
M  END
$$$$
