HDL.pdb
     RDKit          3D

 27 27  0  0  1  0  0  0  0  0999 V2000
   13.3923  -22.2397   -0.6217 N   0  0  0  0  0  0  0  0  0  0  0  0
   14.4831  -22.2368    0.3204 C   0  0  1  0  0  0  0  0  0  0  0  0
   15.8174  -22.3603   -0.3417 C   0  0  0  0  0  0  0  0  0  0  0  0
   15.8976  -23.5632   -1.1936 C   0  0  0  0  0  0  0  0  0  0  0  0
   15.5944  -24.8763   -0.7804 C   0  0  0  0  0  0  0  0  0  0  0  0
   15.7713  -25.7263   -1.7945 N   0  0  0  0  0  0  0  0  0  0  0  0
   16.1760  -24.9989   -2.8388 C   0  0  0  0  0  0  0  0  0  0  0  0
   16.2474  -23.7155   -2.4726 N   0  0  0  0  0  0  0  0  0  0  0  0
   14.4315  -21.1736    1.3228 C   0  0  0  0  0  0  0  0  0  0  0  0
   14.0045  -20.0070    1.0155 O   0  0  0  0  0  0  0  0  0  0  0  0
   14.8332  -21.3072    2.6705 N   0  0  0  0  0  0  0  0  0  0  0  0
   14.7113  -20.2710    3.6470 C   0  0  1  0  0  0  0  0  0  0  0  0
   14.3663  -20.6671    5.0295 C   0  0  0  0  0  0  0  0  0  0  0  0
   14.0119  -19.5734    5.9570 C   0  0  0  0  0  0  0  0  0  0  0  0
   13.9711  -18.4036    5.5282 O   0  0  0  0  0  0  0  0  0  0  0  0
   15.9668  -19.4596    3.7277 C   0  0  0  0  0  0  0  0  0  0  0  0
   17.1026  -19.9653    3.6503 O   0  0  0  0  0  0  0  0  0  0  0  0
   13.7402  -19.8773    7.2606 O   0  0  0  0  0  0  0  0  0  0  0  0
   19.0433  -15.1303    2.1738 C   0  0  0  0  0  0  0  0  0  0  0  0
   17.8508  -15.0146    3.0312 C   0  0  1  0  0  0  0  0  0  0  0  0
   17.0514  -13.7395    2.7345 C   0  0  0  0  0  0  0  0  0  0  0  0
   16.8851  -16.1144    3.1253 C   0  0  0  0  0  0  0  0  0  0  0  0
   17.0992  -17.2454    4.0561 C   0  0  2  0  0  0  0  0  0  0  0  0
   15.8458  -18.0654    3.8983 N   0  0  0  0  0  0  0  0  0  0  0  0
   17.0652  -16.8323    5.4611 C   0  0  0  0  0  0  0  0  0  0  0  0
   18.2386  -16.5691    6.1623 O   0  0  0  0  0  0  0  0  0  0  0  0
   16.0135  -16.6906    6.1225 O   0  0  0  0  0  0  0  0  0  0  0  0
  2  1  1  6
  3  2  1  0
  4  8  1  0
  4  3  1  0
  5  4  2  0
  6  5  1  0
  6  7  1  0
  7  8  2  0
  9  2  1  0
 10  9  2  0
 11  9  1  0
 12 13  1  1
 12 11  1  0
 13 14  1  0
 14 15  2  0
 16 12  1  0
 17 16  2  0
 18 14  1  0
 20 19  1  6
 20 21  1  0
 22 20  1  0
 23 22  1  6
 23 24  1  0
 24 16  1  0
 25 26  1  0
 25 23  1  0
 27 25  2  0
M  END
$$$$
