HDL.pdb
     RDKit          3D

 27 27  0  0  1  0  0  0  0  0999 V2000
   20.1888  -15.2610  -19.4682 N   0  0  0  0  0  0  0  0  0  0  0  0
   20.5409  -14.7027  -18.1869 C   0  0  1  0  0  0  0  0  0  0  0  0
   21.6688  -15.4312  -17.5305 C   0  0  0  0  0  0  0  0  0  0  0  0
   21.4010  -16.8793  -17.4286 C   0  0  0  0  0  0  0  0  0  0  0  0
   20.4353  -17.4726  -16.5904 C   0  0  0  0  0  0  0  0  0  0  0  0
   20.4528  -18.7988  -16.7414 N   0  0  0  0  0  0  0  0  0  0  0  0
   21.3960  -19.0696  -17.6472 C   0  0  0  0  0  0  0  0  0  0  0  0
   21.9531  -17.9234  -18.0501 N   0  0  0  0  0  0  0  0  0  0  0  0
   20.7031  -13.2497  -18.1691 C   0  0  0  0  0  0  0  0  0  0  0  0
   21.3770  -12.6569  -19.0815 O   0  0  0  0  0  0  0  0  0  0  0  0
   20.1677  -12.3841  -17.1895 N   0  0  0  0  0  0  0  0  0  0  0  0
   20.2827  -10.9603  -17.2326 C   0  0  1  0  0  0  0  0  0  0  0  0
   19.0425  -10.1762  -17.4173 C   0  0  0  0  0  0  0  0  0  0  0  0
   19.2001   -8.7106  -17.5125 C   0  0  0  0  0  0  0  0  0  0  0  0
   19.9712   -8.2378  -18.3703 O   0  0  0  0  0  0  0  0  0  0  0  0
   20.9470  -10.4383  -15.9966 C   0  0  0  0  0  0  0  0  0  0  0  0
   20.5162  -10.6692  -14.8508 O   0  0  0  0  0  0  0  0  0  0  0  0
   18.4954   -7.9152  -16.6543 O   0  0  0  0  0  0  0  0  0  0  0  0
   26.3624  -10.1660  -16.2568 C   0  0  0  0  0  0  0  0  0  0  0  0
   25.0254  -10.2758  -15.6477 C   0  0  1  0  0  0  0  0  0  0  0  0
   25.0439  -11.1252  -14.3706 C   0  0  0  0  0  0  0  0  0  0  0  0
   24.2342   -9.0764  -15.3539 C   0  0  0  0  0  0  0  0  0  0  0  0
   22.8246   -9.1765  -14.9128 C   0  0  2  0  0  0  0  0  0  0  0  0
   22.1084   -9.6538  -16.1487 N   0  0  0  0  0  0  0  0  0  0  0  0
   22.2226   -7.8670  -14.6506 C   0  0  0  0  0  0  0  0  0  0  0  0
   22.1501   -7.3541  -13.3585 O   0  0  0  0  0  0  0  0  0  0  0  0
   21.7385   -7.1304  -15.5376 O   0  0  0  0  0  0  0  0  0  0  0  0
  2  1  1  6
  3  2  1  0
  4  8  1  0
  4  3  1  0
  5  4  2  0
  6  5  1  0
  6  7  1  0
  7  8  2  0
  9  2  1  0
 10  9  2  0
 11  9  1  0
 12 13  1  1
 12 11  1  0
 13 14  1  0
 14 15  2  0
 16 12  1  0
 17 16  2  0
 18 14  1  0
 20 19  1  1
 20 21  1  0
 22 20  1  0
 23 22  1  6
 23 24  1  0
 24 16  1  0
 25 26  1  0
 25 23  1  0
 27 25  2  0
M  END
$$$$
