HDL.pdb
     RDKit          3D

 27 27  0  0  1  0  0  0  0  0999 V2000
   23.2108  -17.2462  -16.9963 N   0  0  0  0  0  0  0  0  0  0  0  0
   22.3820  -18.3944  -16.7277 C   0  0  1  0  0  0  0  0  0  0  0  0
   20.9933  -18.2403  -17.2587 C   0  0  0  0  0  0  0  0  0  0  0  0
   20.4087  -16.9346  -16.8946 C   0  0  0  0  0  0  0  0  0  0  0  0
   19.8524  -16.0095  -17.8010 C   0  0  0  0  0  0  0  0  0  0  0  0
   19.4144  -14.9334  -17.1436 N   0  0  0  0  0  0  0  0  0  0  0  0
   19.6724  -15.1424  -15.8500 C   0  0  0  0  0  0  0  0  0  0  0  0
   20.2623  -16.3337  -15.7119 N   0  0  0  0  0  0  0  0  0  0  0  0
   22.9868  -19.6841  -17.0569 C   0  0  0  0  0  0  0  0  0  0  0  0
   23.0242  -20.0977  -18.2675 O   0  0  0  0  0  0  0  0  0  0  0  0
   23.5613  -20.5745  -16.1226 N   0  0  0  0  0  0  0  0  0  0  0  0
   24.9039  -21.0576  -16.2005 C   0  0  1  0  0  0  0  0  0  0  0  0
   25.9967  -20.0634  -16.1327 C   0  0  0  0  0  0  0  0  0  0  0  0
   26.9246  -20.0280  -17.2815 C   0  0  0  0  0  0  0  0  0  0  0  0
   26.6229  -20.6411  -18.3242 O   0  0  0  0  0  0  0  0  0  0  0  0
   25.1719  -22.0715  -15.1321 C   0  0  0  0  0  0  0  0  0  0  0  0
   26.2055  -22.7663  -15.1059 O   0  0  0  0  0  0  0  0  0  0  0  0
   28.0893  -19.3238  -17.1661 O   0  0  0  0  0  0  0  0  0  0  0  0
   28.0971  -20.5032  -11.8413 C   0  0  0  0  0  0  0  0  0  0  0  0
   26.9538  -21.4205  -11.9896 C   0  0  1  0  0  0  0  0  0  0  0  0
   26.3341  -21.7897  -10.6359 C   0  0  0  0  0  0  0  0  0  0  0  0
   25.8460  -21.0979  -12.8950 C   0  0  0  0  0  0  0  0  0  0  0  0
   24.5163  -21.7288  -12.7352 C   0  0  2  0  0  0  0  0  0  0  0  0
   24.2064  -22.2378  -14.1183 N   0  0  0  0  0  0  0  0  0  0  0  0
   23.4557  -20.7502  -12.4833 C   0  0  0  0  0  0  0  0  0  0  0  0
   23.2528  -19.6724  -13.3405 O   0  0  0  0  0  0  0  0  0  0  0  0
   22.6751  -20.8016  -11.5078 O   0  0  0  0  0  0  0  0  0  0  0  0
  2  1  1  6
  3  2  1  0
  4  8  1  0
  4  3  1  0
  5  4  2  0
  6  5  1  0
  6  7  1  0
  7  8  2  0
  9  2  1  0
 10  9  2  0
 11  9  1  0
 12 13  1  1
 12 11  1  0
 13 14  1  0
 14 15  2  0
 16 12  1  0
 17 16  2  0
 18 14  1  0
 20 19  1  1
 20 21  1  0
 22 20  1  0
 23 22  1  6
 23 24  1  0
 24 16  1  0
 25 26  1  0
 25 23  1  0
 27 25  2  0
M  END
$$$$
