HDL.pdb
     RDKit          3D

 27 27  0  0  1  0  0  0  0  0999 V2000
   24.9398  -34.1105   -5.4195 N   0  0  0  0  0  0  0  0  0  0  0  0
   26.2030  -33.6144   -4.9340 C   0  0  1  0  0  0  0  0  0  0  0  0
   26.4475  -32.1895   -5.3133 C   0  0  0  0  0  0  0  0  0  0  0  0
   26.2579  -31.9669   -6.7602 C   0  0  0  0  0  0  0  0  0  0  0  0
   25.2052  -31.2308   -7.3405 C   0  0  0  0  0  0  0  0  0  0  0  0
   25.3307  -31.2250   -8.6695 N   0  0  0  0  0  0  0  0  0  0  0  0
   26.4275  -31.9316   -8.9546 C   0  0  0  0  0  0  0  0  0  0  0  0
   26.9718  -32.3675   -7.8143 N   0  0  0  0  0  0  0  0  0  0  0  0
   26.4760  -33.8924   -3.5248 C   0  0  0  0  0  0  0  0  0  0  0  0
   27.5447  -33.4600   -2.9692 O   0  0  0  0  0  0  0  0  0  0  0  0
   25.6370  -34.6369   -2.6660 N   0  0  0  0  0  0  0  0  0  0  0  0
   25.9119  -34.8668   -1.2826 C   0  0  1  0  0  0  0  0  0  0  0  0
   24.7816  -35.2607   -0.4139 C   0  0  0  0  0  0  0  0  0  0  0  0
   24.9024  -34.9166    1.0175 C   0  0  0  0  0  0  0  0  0  0  0  0
   25.9688  -35.1655    1.6134 O   0  0  0  0  0  0  0  0  0  0  0  0
   26.9741  -35.9080   -1.1126 C   0  0  0  0  0  0  0  0  0  0  0  0
   27.1655  -36.8177   -1.9418 O   0  0  0  0  0  0  0  0  0  0  0  0
   23.8388  -34.3357    1.6475 O   0  0  0  0  0  0  0  0  0  0  0  0
   31.8380  -37.3064   -2.2565 C   0  0  0  0  0  0  0  0  0  0  0  0
   30.9948  -37.4532   -1.0573 C   0  0  1  0  0  0  0  0  0  0  0  0
   31.8005  -37.2792    0.2364 C   0  0  0  0  0  0  0  0  0  0  0  0
   29.7643  -36.6698   -0.9052 C   0  0  0  0  0  0  0  0  0  0  0  0
   28.8455  -36.8981    0.2328 C   0  0  2  0  0  0  0  0  0  0  0  0
   27.7857  -35.8457    0.0384 N   0  0  0  0  0  0  0  0  0  0  0  0
   29.4471  -36.5463    1.5213 C   0  0  0  0  0  0  0  0  0  0  0  0
   29.3091  -35.2680    2.0548 O   0  0  0  0  0  0  0  0  0  0  0  0
   30.1140  -37.3397    2.2209 O   0  0  0  0  0  0  0  0  0  0  0  0
  2  1  1  1
  3  2  1  0
  4  8  1  0
  4  3  1  0
  5  4  2  0
  6  5  1  0
  6  7  1  0
  7  8  2  0
  9  2  1  0
 10  9  2  0
 11  9  1  0
 12 13  1  1
 12 11  1  0
 13 14  1  0
 14 15  2  0
 16 12  1  0
 17 16  2  0
 18 14  1  0
 20 19  1  6
 20 21  1  0
 22 20  1  0
 23 22  1  6
 23 24  1  0
 24 16  1  0
 25 26  1  0
 25 23  1  0
 27 25  2  0
M  END
$$$$
