HDL.pdb
     RDKit          3D

 27 27  0  0  1  0  0  0  0  0999 V2000
   19.0192  -13.6743  -18.2558 N   0  0  0  0  0  0  0  0  0  0  0  0
   19.9826  -12.6297  -18.4972 C   0  0  1  0  0  0  0  0  0  0  0  0
   20.3103  -12.4709  -19.9468 C   0  0  0  0  0  0  0  0  0  0  0  0
   20.8495  -13.7167  -20.5268 C   0  0  0  0  0  0  0  0  0  0  0  0
   20.0769  -14.7741  -21.0483 C   0  0  0  0  0  0  0  0  0  0  0  0
   20.8756  -15.7473  -21.4921 N   0  0  0  0  0  0  0  0  0  0  0  0
   22.1299  -15.3450  -21.2715 C   0  0  0  0  0  0  0  0  0  0  0  0
   22.1043  -14.1377  -20.6986 N   0  0  0  0  0  0  0  0  0  0  0  0
   19.7008  -11.3617  -17.8261 C   0  0  0  0  0  0  0  0  0  0  0  0
   18.5025  -10.9203  -17.7411 O   0  0  0  0  0  0  0  0  0  0  0  0
   20.6706  -10.5226  -17.2336 N   0  0  0  0  0  0  0  0  0  0  0  0
   20.3608   -9.3275  -16.5140 C   0  0  1  0  0  0  0  0  0  0  0  0
   20.7007   -9.2843  -15.0753 C   0  0  0  0  0  0  0  0  0  0  0  0
   20.2434   -8.0952  -14.3278 C   0  0  0  0  0  0  0  0  0  0  0  0
   19.2145   -7.5005  -14.7045 O   0  0  0  0  0  0  0  0  0  0  0  0
   21.0074   -8.1360  -17.1494 C   0  0  0  0  0  0  0  0  0  0  0  0
   22.1940   -8.1348  -17.5286 O   0  0  0  0  0  0  0  0  0  0  0  0
   20.9643   -7.6808  -13.2442 O   0  0  0  0  0  0  0  0  0  0  0  0
   17.8162   -5.3489  -20.5958 C   0  0  0  0  0  0  0  0  0  0  0  0
   19.0392   -5.8883  -19.9761 C   0  0  1  0  0  0  0  0  0  0  0  0
   20.1724   -6.0595  -20.9956 C   0  0  0  0  0  0  0  0  0  0  0  0
   19.6217   -5.2530  -18.7896 C   0  0  0  0  0  0  0  0  0  0  0  0
   20.8064   -5.8294  -18.1146 C   0  0  2  0  0  0  0  0  0  0  0  0
   20.2303   -6.9723  -17.3206 N   0  0  0  0  0  0  0  0  0  0  0  0
   21.3572   -4.9410  -17.0883 C   0  0  0  0  0  0  0  0  0  0  0  0
   22.2608   -3.9345  -17.4175 O   0  0  0  0  0  0  0  0  0  0  0  0
   21.0714   -5.0153  -15.8732 O   0  0  0  0  0  0  0  0  0  0  0  0
  2  1  1  6
  3  2  1  0
  4  8  1  0
  4  3  1  0
  5  4  2  0
  6  5  1  0
  6  7  1  0
  7  8  2  0
  9  2  1  0
 10  9  2  0
 11  9  1  0
 12 13  1  1
 12 11  1  0
 13 14  1  0
 14 15  2  0
 16 12  1  0
 17 16  2  0
 18 14  1  0
 20 19  1  6
 20 21  1  0
 22 20  1  0
 23 22  1  1
 23 24  1  0
 24 16  1  0
 25 26  1  0
 25 23  1  0
 27 25  2  0
M  END
$$$$
