HDL.pdb
     RDKit          3D

 27 27  0  0  1  0  0  0  0  0999 V2000
   42.9557   -7.7294   -8.8827 N   0  0  0  0  0  0  0  0  0  0  0  0
   41.6591   -8.0378   -9.4317 C   0  0  1  0  0  0  0  0  0  0  0  0
   40.7058   -8.5560   -8.4038 C   0  0  0  0  0  0  0  0  0  0  0  0
   41.2451   -9.7372   -7.7017 C   0  0  0  0  0  0  0  0  0  0  0  0
   41.5875   -9.7874   -6.3353 C   0  0  0  0  0  0  0  0  0  0  0  0
   42.0443  -11.0023   -6.0234 N   0  0  0  0  0  0  0  0  0  0  0  0
   42.0039  -11.7270   -7.1445 C   0  0  0  0  0  0  0  0  0  0  0  0
   41.5272  -10.9675   -8.1356 N   0  0  0  0  0  0  0  0  0  0  0  0
   41.0835   -6.9959  -10.2808 C   0  0  0  0  0  0  0  0  0  0  0  0
   41.2563   -5.7585  -10.0036 O   0  0  0  0  0  0  0  0  0  0  0  0
   40.3068   -7.2275  -11.4378 N   0  0  0  0  0  0  0  0  0  0  0  0
   39.5509   -6.2167  -12.1081 C   0  0  1  0  0  0  0  0  0  0  0  0
   38.9840   -6.5483  -13.4332 C   0  0  0  0  0  0  0  0  0  0  0  0
   39.9218   -7.1093  -14.4271 C   0  0  0  0  0  0  0  0  0  0  0  0
   41.0999   -6.7024  -14.4468 O   0  0  0  0  0  0  0  0  0  0  0  0
   38.4152   -5.7424  -11.2558 C   0  0  0  0  0  0  0  0  0  0  0  0
   37.3047   -6.3064  -11.2371 O   0  0  0  0  0  0  0  0  0  0  0  0
   39.4683   -8.0587  -15.2981 O   0  0  0  0  0  0  0  0  0  0  0  0
   35.8111   -5.3187   -6.8349 C   0  0  0  0  0  0  0  0  0  0  0  0
   37.2178   -4.9055   -6.9802 C   0  0  1  0  0  0  0  0  0  0  0  0
   38.1123   -5.5215   -5.8969 C   0  0  0  0  0  0  0  0  0  0  0  0
   37.9187   -5.0668   -8.2584 C   0  0  0  0  0  0  0  0  0  0  0  0
   37.5686   -4.2392   -9.4348 C   0  0  2  0  0  0  0  0  0  0  0  0
   38.6236   -4.6087  -10.4441 N   0  0  0  0  0  0  0  0  0  0  0  0
   37.7971   -2.8104   -9.2059 C   0  0  0  0  0  0  0  0  0  0  0  0
   36.7506   -1.9611   -8.8576 O   0  0  0  0  0  0  0  0  0  0  0  0
   38.9140   -2.2568   -9.3050 O   0  0  0  0  0  0  0  0  0  0  0  0
  2  1  1  1
  3  2  1  0
  4  8  1  0
  4  3  1  0
  5  4  2  0
  6  5  1  0
  6  7  1  0
  7  8  2  0
  9  2  1  0
 10  9  2  0
 11  9  1  0
 12 13  1  6
 12 11  1  0
 13 14  1  0
 14 15  2  0
 16 12  1  0
 17 16  2  0
 18 14  1  0
 20 19  1  6
 20 21  1  0
 22 20  1  0
 23 22  1  1
 23 24  1  0
 24 16  1  0
 25 26  1  0
 25 23  1  0
 27 25  2  0
M  END
$$$$
