HDL.pdb
     RDKit          3D

 27 27  0  0  1  0  0  0  0  0999 V2000
   23.5314  -31.9241   -4.5183 N   0  0  0  0  0  0  0  0  0  0  0  0
   23.3033  -33.3467   -4.4768 C   0  0  1  0  0  0  0  0  0  0  0  0
   23.3345  -33.9757   -5.8323 C   0  0  0  0  0  0  0  0  0  0  0  0
   24.6406  -33.7879   -6.4940 C   0  0  0  0  0  0  0  0  0  0  0  0
   25.7974  -34.5543   -6.2465 C   0  0  0  0  0  0  0  0  0  0  0  0
   26.8029  -34.1234   -7.0116 N   0  0  0  0  0  0  0  0  0  0  0  0
   26.3252  -33.1095   -7.7379 C   0  0  0  0  0  0  0  0  0  0  0  0
   25.0402  -32.9181   -7.4241 N   0  0  0  0  0  0  0  0  0  0  0  0
   24.0963  -34.0714   -3.4849 C   0  0  0  0  0  0  0  0  0  0  0  0
   23.9204  -35.3252   -3.2981 O   0  0  0  0  0  0  0  0  0  0  0  0
   25.0886  -33.4963   -2.6601 N   0  0  0  0  0  0  0  0  0  0  0  0
   25.8567  -34.2301   -1.7042 C   0  0  1  0  0  0  0  0  0  0  0  0
   27.0465  -34.9596   -2.1934 C   0  0  0  0  0  0  0  0  0  0  0  0
   27.7776  -35.7675   -1.1960 C   0  0  0  0  0  0  0  0  0  0  0  0
   28.9341  -35.4320   -0.8735 O   0  0  0  0  0  0  0  0  0  0  0  0
   26.3187  -33.3414   -0.5915 C   0  0  0  0  0  0  0  0  0  0  0  0
   26.9359  -32.2778   -0.7900 O   0  0  0  0  0  0  0  0  0  0  0  0
   27.1633  -36.8617   -0.6564 O   0  0  0  0  0  0  0  0  0  0  0  0
   22.9485  -31.2438    2.7724 C   0  0  0  0  0  0  0  0  0  0  0  0
   24.2710  -31.4325    2.1513 C   0  0  1  0  0  0  0  0  0  0  0  0
   25.1296  -30.1639    2.2312 C   0  0  0  0  0  0  0  0  0  0  0  0
   25.1289  -32.5566    2.5406 C   0  0  0  0  0  0  0  0  0  0  0  0
   26.4178  -32.8100    1.8580 C   0  0  2  0  0  0  0  0  0  0  0  0
   26.0372  -33.7355    0.7325 N   0  0  0  0  0  0  0  0  0  0  0  0
   27.3356  -33.6139    2.6688 C   0  0  0  0  0  0  0  0  0  0  0  0
   28.2741  -33.0125    3.5027 O   0  0  0  0  0  0  0  0  0  0  0  0
   27.3510  -34.8642    2.6740 O   0  0  0  0  0  0  0  0  0  0  0  0
  2  1  1  6
  3  2  1  0
  4  8  1  0
  4  3  1  0
  5  4  2  0
  6  5  1  0
  6  7  1  0
  7  8  2  0
  9  2  1  0
 10  9  2  0
 11  9  1  0
 12 13  1  6
 12 11  1  0
 13 14  1  0
 14 15  2  0
 16 12  1  0
 17 16  2  0
 18 14  1  0
 20 19  1  1
 20 21  1  0
 22 20  1  0
 23 22  1  1
 23 24  1  0
 24 16  1  0
 25 26  1  0
 25 23  1  0
 27 25  2  0
M  END
$$$$
