NTY.pdb
     RDKit          3D

 28 28  0  0  1  0  0  0  0  0999 V2000
   28.0616  -26.8962  -18.5956 N   0  0  0  0  0  0  0  0  0  0  0  0
   28.8394  -27.0344  -17.4207 C   0  0  0  0  0  0  0  0  0  0  0  0
   28.7251  -28.0765  -16.7335 O   0  0  0  0  0  0  0  0  0  0  0  0
   29.7718  -25.9516  -17.0271 C   0  0  0  0  0  0  0  0  0  0  0  0
   29.6069  -24.7821  -17.9693 C   0  0  2  0  0  0  0  0  0  0  0  0
   30.5189  -24.7663  -19.0576 N   0  0  0  0  0  0  0  0  0  0  0  0
   29.5640  -23.5074  -17.1936 C   0  0  0  0  0  0  0  0  0  0  0  0
   30.6282  -23.0854  -16.6948 O   0  0  0  0  0  0  0  0  0  0  0  0
   28.8399  -20.0403  -18.2389 C   0  0  0  0  0  0  0  0  0  0  0  0
   27.7768  -20.4181  -17.2314 C   0  0  1  0  0  0  0  0  0  0  0  0
   26.6676  -20.8355  -17.9583 O   0  0  0  0  0  0  0  0  0  0  0  0
   28.2763  -21.5072  -16.2877 C   0  0  2  0  0  0  0  0  0  0  0  0
   28.3731  -22.7773  -17.0117 N   0  0  0  0  0  0  0  0  0  0  0  0
   27.2890  -21.6217  -15.1863 C   0  0  0  0  0  0  0  0  0  0  0  0
   26.3393  -22.4411  -15.2490 O   0  0  0  0  0  0  0  0  0  0  0  0
   22.9274  -20.5929   -7.6170 O   0  0  0  0  0  0  0  0  0  0  0  0
   23.8452  -20.4393   -8.6623 C   0  0  0  0  0  0  0  0  0  0  0  0
   23.5302  -19.8241   -9.8500 C   0  0  0  0  0  0  0  0  0  0  0  0
   24.4409  -19.6756  -10.8791 C   0  0  0  0  0  0  0  0  0  0  0  0
   25.7119  -20.1739  -10.6829 C   0  0  0  0  0  0  0  0  0  0  0  0
   26.6988  -20.0231  -11.7809 C   0  0  0  0  0  0  0  0  0  0  0  0
   26.3737  -20.9369  -12.9424 C   0  0  2  0  0  0  0  0  0  0  0  0
   27.3548  -20.8212  -14.0039 N   0  0  0  0  0  0  0  0  0  0  0  0
   25.0280  -20.6606  -13.4925 C   0  0  0  0  0  0  0  0  0  0  0  0
   24.0846  -21.4302  -13.2033 O   0  0  0  0  0  0  0  0  0  0  0  0
   26.0332  -20.7905   -9.4963 C   0  0  0  0  0  0  0  0  0  0  0  0
   25.1175  -20.9420   -8.4565 C   0  0  0  0  0  0  0  0  0  0  0  0
   24.7446  -19.5858  -14.3224 O   0  0  0  0  0  0  0  0  0  0  0  0
  2  1  1  0
  2  3  2  0
  4  5  1  0
  4  2  1  0
  5  7  1  0
  5  6  1  6
  7  8  2  0
 10  9  1  6
 10 11  1  0
 10 12  1  0
 12 14  1  0
 12 13  1  6
 13  7  1  0
 14 15  2  0
 14 23  1  0
 16 17  1  0
 17 18  2  0
 18 19  1  0
 20 21  1  0
 20 19  2  0
 22 21  1  1
 22 24  1  0
 23 22  1  0
 24 25  2  0
 24 28  1  0
 26 20  1  0
 27 26  2  0
 27 17  1  0
M  END
$$$$
