NTY.pdb
     RDKit          3D

 28 28  0  0  1  0  0  0  0  0999 V2000
   15.0106  -14.8718  -16.1166 N   0  0  0  0  0  0  0  0  0  0  0  0
   15.1748  -14.0458  -14.9785 C   0  0  0  0  0  0  0  0  0  0  0  0
   14.2769  -14.0278  -14.1041 O   0  0  0  0  0  0  0  0  0  0  0  0
   16.3998  -13.2229  -14.8404 C   0  0  0  0  0  0  0  0  0  0  0  0
   17.3241  -13.5025  -16.0024 C   0  0  2  0  0  0  0  0  0  0  0  0
   17.8604  -14.8170  -16.0285 N   0  0  0  0  0  0  0  0  0  0  0  0
   18.3517  -12.4246  -16.1043 C   0  0  0  0  0  0  0  0  0  0  0  0
   19.5148  -12.6823  -15.7297 O   0  0  0  0  0  0  0  0  0  0  0  0
   19.7217   -8.2662  -18.4148 C   0  0  0  0  0  0  0  0  0  0  0  0
   18.7718   -9.4196  -18.1796 C   0  0  1  0  0  0  0  0  0  0  0  0
   18.9514  -10.3068  -19.2349 O   0  0  0  0  0  0  0  0  0  0  0  0
   19.0365  -10.0835  -16.8322 C   0  0  2  0  0  0  0  0  0  0  0  0
   18.0503  -11.1429  -16.6048 N   0  0  0  0  0  0  0  0  0  0  0  0
   18.9071   -9.0340  -15.7916 C   0  0  0  0  0  0  0  0  0  0  0  0
   17.7816   -8.5906  -15.4540 O   0  0  0  0  0  0  0  0  0  0  0  0
   25.5843   -5.7457  -16.4717 O   0  0  0  0  0  0  0  0  0  0  0  0
   24.4788   -6.0906  -15.6858 C   0  0  0  0  0  0  0  0  0  0  0  0
   23.6866   -5.1587  -15.0595 C   0  0  0  0  0  0  0  0  0  0  0  0
   22.5960   -5.5054  -14.2841 C   0  0  0  0  0  0  0  0  0  0  0  0
   22.3113   -6.8479  -14.1476 C   0  0  0  0  0  0  0  0  0  0  0  0
   21.1444   -7.2338  -13.3159 C   0  0  0  0  0  0  0  0  0  0  0  0
   19.8972   -7.3932  -14.1578 C   0  0  2  0  0  0  0  0  0  0  0  0
   20.0352   -8.4706  -15.1184 N   0  0  0  0  0  0  0  0  0  0  0  0
   19.5608   -6.1432  -14.8749 C   0  0  0  0  0  0  0  0  0  0  0  0
   19.7512   -6.0824  -16.1102 O   0  0  0  0  0  0  0  0  0  0  0  0
   23.1005   -7.7852  -14.7722 C   0  0  0  0  0  0  0  0  0  0  0  0
   24.2009   -7.4394  -15.5547 C   0  0  0  0  0  0  0  0  0  0  0  0
   19.0411   -5.0178  -14.2521 O   0  0  0  0  0  0  0  0  0  0  0  0
  2  1  1  0
  2  3  2  0
  4  5  1  0
  4  2  1  0
  5  7  1  0
  5  6  1  1
  7  8  2  0
 10  9  1  6
 10 11  1  0
 10 12  1  0
 12 14  1  0
 12 13  1  1
 13  7  1  0
 14 15  2  0
 14 23  1  0
 16 17  1  0
 17 18  2  0
 18 19  1  0
 20 21  1  0
 20 19  2  0
 22 21  1  6
 22 24  1  0
 23 22  1  0
 24 25  2  0
 24 28  1  0
 26 20  1  0
 27 26  2  0
 27 17  1  0
M  END
$$$$
