NTY.pdb
     RDKit          3D

 28 28  0  0  1  0  0  0  0  0999 V2000
   29.4902  -26.4118  -18.3781 N   0  0  0  0  0  0  0  0  0  0  0  0
   28.4254  -26.4784  -17.4473 C   0  0  0  0  0  0  0  0  0  0  0  0
   27.8157  -27.5631  -17.2957 O   0  0  0  0  0  0  0  0  0  0  0  0
   28.0538  -25.2719  -16.6709 C   0  0  0  0  0  0  0  0  0  0  0  0
   29.0582  -24.1754  -16.9386 C   0  0  2  0  0  0  0  0  0  0  0  0
   30.3667  -24.4413  -16.4555 N   0  0  0  0  0  0  0  0  0  0  0  0
   28.5037  -22.8608  -16.4999 C   0  0  0  0  0  0  0  0  0  0  0  0
   28.6215  -22.5434  -15.2978 O   0  0  0  0  0  0  0  0  0  0  0  0
   29.5320  -19.5935  -17.9914 C   0  0  0  0  0  0  0  0  0  0  0  0
   28.0228  -19.6416  -18.0805 C   0  0  1  0  0  0  0  0  0  0  0  0
   27.7110  -20.0144  -19.3832 O   0  0  0  0  0  0  0  0  0  0  0  0
   27.4429  -20.6157  -17.0601 C   0  0  2  0  0  0  0  0  0  0  0  0
   27.8607  -21.9803  -17.3918 N   0  0  0  0  0  0  0  0  0  0  0  0
   25.9655  -20.5023  -17.1338 C   0  0  0  0  0  0  0  0  0  0  0  0
   25.2879  -21.2968  -17.8316 O   0  0  0  0  0  0  0  0  0  0  0  0
   17.6440  -17.8161  -16.1679 O   0  0  0  0  0  0  0  0  0  0  0  0
   19.0293  -17.9471  -16.0184 C   0  0  0  0  0  0  0  0  0  0  0  0
   19.9239  -17.0183  -16.4929 C   0  0  0  0  0  0  0  0  0  0  0  0
   21.2914  -17.1533  -16.3426 C   0  0  0  0  0  0  0  0  0  0  0  0
   21.7532  -18.2749  -15.6864 C   0  0  0  0  0  0  0  0  0  0  0  0
   23.2194  -18.4332  -15.5203 C   0  0  0  0  0  0  0  0  0  0  0  0
   23.7976  -19.3473  -16.5786 C   0  0  2  0  0  0  0  0  0  0  0  0
   25.2318  -19.4994  -16.4273 N   0  0  0  0  0  0  0  0  0  0  0  0
   23.5024  -18.8560  -17.9428 C   0  0  0  0  0  0  0  0  0  0  0  0
   24.2748  -18.0233  -18.4683 O   0  0  0  0  0  0  0  0  0  0  0  0
   20.8627  -19.2080  -15.2091 C   0  0  0  0  0  0  0  0  0  0  0  0
   19.4833  -19.0752  -15.3589 C   0  0  0  0  0  0  0  0  0  0  0  0
   22.4050  -19.2669  -18.6852 O   0  0  0  0  0  0  0  0  0  0  0  0
  2  1  1  0
  2  3  2  0
  4  5  1  0
  4  2  1  0
  5  7  1  0
  5  6  1  1
  7  8  2  0
 10  9  1  6
 10 11  1  0
 10 12  1  0
 12 14  1  0
 12 13  1  6
 13  7  1  0
 14 15  2  0
 14 23  1  0
 16 17  1  0
 17 18  2  0
 18 19  1  0
 20 21  1  0
 20 19  2  0
 22 21  1  1
 22 24  1  0
 23 22  1  0
 24 25  2  0
 24 28  1  0
 26 20  1  0
 27 26  2  0
 27 17  1  0
M  END
$$$$
