NTY.pdb
     RDKit          3D

 28 28  0  0  1  0  0  0  0  0999 V2000
   18.5193  -12.2471  -18.4725 N   0  0  0  0  0  0  0  0  0  0  0  0
   17.8269  -12.7317  -17.3366 C   0  0  0  0  0  0  0  0  0  0  0  0
   16.8974  -13.5574  -17.4960 O   0  0  0  0  0  0  0  0  0  0  0  0
   18.2126  -12.2587  -15.9859 C   0  0  0  0  0  0  0  0  0  0  0  0
   19.3570  -11.2796  -16.1064 C   0  0  2  0  0  0  0  0  0  0  0  0
   20.5694  -11.8430  -16.5848 N   0  0  0  0  0  0  0  0  0  0  0  0
   19.5037  -10.5113  -14.8350 C   0  0  0  0  0  0  0  0  0  0  0  0
   20.1529  -11.0319  -13.9038 O   0  0  0  0  0  0  0  0  0  0  0  0
   21.0750   -7.0973  -14.4205 C   0  0  0  0  0  0  0  0  0  0  0  0
   19.6504   -7.0160  -13.9187 C   0  0  1  0  0  0  0  0  0  0  0  0
   18.8897   -6.4932  -14.9584 O   0  0  0  0  0  0  0  0  0  0  0  0
   19.1430   -8.3862  -13.4810 C   0  0  2  0  0  0  0  0  0  0  0  0
   18.9386   -9.2330  -14.6591 N   0  0  0  0  0  0  0  0  0  0  0  0
   17.8552   -8.1736  -12.7758 C   0  0  0  0  0  0  0  0  0  0  0  0
   16.7639   -8.1967  -13.3969 O   0  0  0  0  0  0  0  0  0  0  0  0
   11.5801   -6.9365   -6.7764 O   0  0  0  0  0  0  0  0  0  0  0  0
   12.8070   -7.2033   -7.3947 C   0  0  0  0  0  0  0  0  0  0  0  0
   13.0640   -8.3696   -8.0743 C   0  0  0  0  0  0  0  0  0  0  0  0
   14.2780   -8.6277   -8.6828 C   0  0  0  0  0  0  0  0  0  0  0  0
   15.2565   -7.6601   -8.5901 C   0  0  0  0  0  0  0  0  0  0  0  0
   16.5653   -7.9256   -9.2371 C   0  0  0  0  0  0  0  0  0  0  0  0
   16.5237   -7.6048  -10.7153 C   0  0  2  0  0  0  0  0  0  0  0  0
   17.7756   -7.9338  -11.3688 N   0  0  0  0  0  0  0  0  0  0  0  0
   16.2112   -6.1782  -10.9543 C   0  0  0  0  0  0  0  0  0  0  0  0
   17.1377   -5.3383  -10.9095 O   0  0  0  0  0  0  0  0  0  0  0  0
   15.0051   -6.4907   -7.9114 C   0  0  0  0  0  0  0  0  0  0  0  0
   13.7822   -6.2270   -7.2966 C   0  0  0  0  0  0  0  0  0  0  0  0
   14.9350   -5.7080  -11.2277 O   0  0  0  0  0  0  0  0  0  0  0  0
  2  1  1  0
  2  3  2  0
  4  5  1  0
  4  2  1  0
  5  7  1  0
  5  6  1  1
  7  8  2  0
 10  9  1  6
 10 11  1  0
 10 12  1  0
 12 14  1  0
 12 13  1  6
 13  7  1  0
 14 15  2  0
 14 23  1  0
 16 17  1  0
 17 18  2  0
 18 19  1  0
 20 21  1  0
 20 19  2  0
 22 21  1  1
 22 24  1  0
 23 22  1  0
 24 25  2  0
 24 28  1  0
 26 20  1  0
 27 26  2  0
 27 17  1  0
M  END
$$$$
