NTY.pdb
     RDKit          3D

 28 28  0  0  1  0  0  0  0  0999 V2000
   22.3943  -13.4569  -16.5888 N   0  0  0  0  0  0  0  0  0  0  0  0
   21.5062  -12.8273  -17.4939 C   0  0  0  0  0  0  0  0  0  0  0  0
   20.4933  -13.4521  -17.8876 O   0  0  0  0  0  0  0  0  0  0  0  0
   21.7866  -11.4472  -17.9560 C   0  0  0  0  0  0  0  0  0  0  0  0
   20.6531  -10.5397  -17.5385 C   0  0  2  0  0  0  0  0  0  0  0  0
   19.3724  -10.9417  -18.0016 N   0  0  0  0  0  0  0  0  0  0  0  0
   20.9959   -9.1215  -17.8536 C   0  0  0  0  0  0  0  0  0  0  0  0
   22.2029   -8.8115  -17.9356 O   0  0  0  0  0  0  0  0  0  0  0  0
   19.3570   -4.6337  -19.3438 C   0  0  0  0  0  0  0  0  0  0  0  0
   19.0986   -6.0924  -19.0383 C   0  0  1  0  0  0  0  0  0  0  0  0
   18.8461   -6.7168  -20.2547 O   0  0  0  0  0  0  0  0  0  0  0  0
   20.2857   -6.7213  -18.3163 C   0  0  2  0  0  0  0  0  0  0  0  0
   20.0096   -8.1369  -18.0586 N   0  0  0  0  0  0  0  0  0  0  0  0
   20.4571   -5.9933  -17.0349 C   0  0  0  0  0  0  0  0  0  0  0  0
   19.6484   -6.1498  -16.0868 O   0  0  0  0  0  0  0  0  0  0  0  0
   22.5510  -10.3712  -13.4529 O   0  0  0  0  0  0  0  0  0  0  0  0
   22.6401   -9.0116  -13.7725 C   0  0  0  0  0  0  0  0  0  0  0  0
   21.9822   -8.0328  -13.0673 C   0  0  0  0  0  0  0  0  0  0  0  0
   22.0738   -6.6914  -13.3880 C   0  0  0  0  0  0  0  0  0  0  0  0
   22.8635   -6.3453  -14.4645 C   0  0  0  0  0  0  0  0  0  0  0  0
   22.9685   -4.9086  -14.8208 C   0  0  0  0  0  0  0  0  0  0  0  0
   21.7196   -4.4233  -15.5240 C   0  0  2  0  0  0  0  0  0  0  0  0
   21.5350   -5.0839  -16.8016 N   0  0  0  0  0  0  0  0  0  0  0  0
   21.7472   -2.9587  -15.7339 C   0  0  0  0  0  0  0  0  0  0  0  0
   21.7333   -2.5130  -16.9032 O   0  0  0  0  0  0  0  0  0  0  0  0
   23.5245   -7.3205  -15.1740 C   0  0  0  0  0  0  0  0  0  0  0  0
   23.4345   -8.6740  -14.8536 C   0  0  0  0  0  0  0  0  0  0  0  0
   21.7896   -2.0362  -14.6987 O   0  0  0  0  0  0  0  0  0  0  0  0
  2  1  1  0
  2  3  2  0
  4  5  1  0
  4  2  1  0
  5  7  1  0
  5  6  1  6
  7  8  2  0
 10  9  1  6
 10 11  1  0
 10 12  1  0
 12 14  1  0
 12 13  1  1
 13  7  1  0
 14 15  2  0
 14 23  1  0
 16 17  1  0
 17 18  2  0
 18 19  1  0
 20 21  1  0
 20 19  2  0
 22 21  1  6
 22 24  1  0
 23 22  1  0
 24 25  2  0
 24 28  1  0
 26 20  1  0
 27 26  2  0
 27 17  1  0
M  END
$$$$
