NTY.pdb
     RDKit          3D

 28 28  0  0  1  0  0  0  0  0999 V2000
   22.2870  -26.4474  -18.3746 N   0  0  0  0  0  0  0  0  0  0  0  0
   21.8949  -25.7639  -17.1983 C   0  0  0  0  0  0  0  0  0  0  0  0
   20.6740  -25.6501  -16.9381 O   0  0  0  0  0  0  0  0  0  0  0  0
   22.9292  -25.2000  -16.2988 C   0  0  0  0  0  0  0  0  0  0  0  0
   24.2995  -25.5465  -16.8325 C   0  0  2  0  0  0  0  0  0  0  0  0
   24.6054  -26.9330  -16.8210 N   0  0  0  0  0  0  0  0  0  0  0  0
   25.3313  -24.6908  -16.1758 C   0  0  0  0  0  0  0  0  0  0  0  0
   26.0415  -25.2030  -15.2853 O   0  0  0  0  0  0  0  0  0  0  0  0
   27.5338  -20.1742  -15.9939 C   0  0  0  0  0  0  0  0  0  0  0  0
   26.5901  -21.1464  -16.6662 C   0  0  1  0  0  0  0  0  0  0  0  0
   27.1130  -21.4027  -17.9288 O   0  0  0  0  0  0  0  0  0  0  0  0
   26.4416  -22.4240  -15.8464 C   0  0  2  0  0  0  0  0  0  0  0  0
   25.5239  -23.3405  -16.5279 N   0  0  0  0  0  0  0  0  0  0  0  0
   25.8885  -22.0370  -14.5253 C   0  0  0  0  0  0  0  0  0  0  0  0
   24.6599  -21.8252  -14.3731 O   0  0  0  0  0  0  0  0  0  0  0  0
   25.1337  -19.4887   -6.1329 O   0  0  0  0  0  0  0  0  0  0  0  0
   25.6703  -19.8788   -7.3652 C   0  0  0  0  0  0  0  0  0  0  0  0
   26.2992  -19.0037   -8.2178 C   0  0  0  0  0  0  0  0  0  0  0  0
   26.8271  -19.3948   -9.4340 C   0  0  0  0  0  0  0  0  0  0  0  0
   26.7050  -20.7230   -9.7848 C   0  0  0  0  0  0  0  0  0  0  0  0
   27.2654  -21.1556  -11.0890 C   0  0  0  0  0  0  0  0  0  0  0  0
   26.1723  -21.3744  -12.1123 C   0  0  2  0  0  0  0  0  0  0  0  0
   26.7042  -21.8837  -13.3614 N   0  0  0  0  0  0  0  0  0  0  0  0
   25.4175  -20.1295  -12.3774 C   0  0  0  0  0  0  0  0  0  0  0  0
   24.2964  -19.9744  -11.8435 O   0  0  0  0  0  0  0  0  0  0  0  0
   26.0767  -21.6036   -8.9355 C   0  0  0  0  0  0  0  0  0  0  0  0
   25.5433  -21.2129   -7.7086 C   0  0  0  0  0  0  0  0  0  0  0  0
   25.8829  -19.1097  -13.1946 O   0  0  0  0  0  0  0  0  0  0  0  0
  2  1  1  0
  2  3  2  0
  4  5  1  0
  4  2  1  0
  5  7  1  0
  5  6  1  1
  7  8  2  0
 10  9  1  1
 10 11  1  0
 10 12  1  0
 12 14  1  0
 12 13  1  6
 13  7  1  0
 14 15  2  0
 14 23  1  0
 16 17  1  0
 17 18  2  0
 18 19  1  0
 20 21  1  0
 20 19  2  0
 22 21  1  1
 22 24  1  0
 23 22  1  0
 24 25  2  0
 24 28  1  0
 26 20  1  0
 27 26  2  0
 27 17  1  0
M  END
$$$$
