NTY.pdb
     RDKit          3D

 28 28  0  0  1  0  0  0  0  0999 V2000
   30.2321  -11.2356  -20.7385 N   0  0  0  0  0  0  0  0  0  0  0  0
   29.8106   -9.8918  -20.5938 C   0  0  0  0  0  0  0  0  0  0  0  0
   29.2431   -9.3242  -21.5566 O   0  0  0  0  0  0  0  0  0  0  0  0
   30.0442   -9.1841  -19.3126 C   0  0  0  0  0  0  0  0  0  0  0  0
   30.7119  -10.1241  -18.3362 C   0  0  2  0  0  0  0  0  0  0  0  0
   29.8794  -11.1711  -17.8598 N   0  0  0  0  0  0  0  0  0  0  0  0
   31.3828   -9.3417  -17.2563 C   0  0  0  0  0  0  0  0  0  0  0  0
   30.6936   -8.9694  -16.2837 O   0  0  0  0  0  0  0  0  0  0  0  0
   35.7218   -7.6713  -15.3735 C   0  0  0  0  0  0  0  0  0  0  0  0
   34.9558   -8.4958  -16.3841 C   0  0  1  0  0  0  0  0  0  0  0  0
   35.2584   -9.8279  -16.1249 O   0  0  0  0  0  0  0  0  0  0  0  0
   33.4573   -8.2281  -16.2890 C   0  0  2  0  0  0  0  0  0  0  0  0
   32.7526   -9.0167  -17.3030 N   0  0  0  0  0  0  0  0  0  0  0  0
   33.2526   -6.7796  -16.5360 C   0  0  0  0  0  0  0  0  0  0  0  0
   33.3033   -6.3062  -17.6982 O   0  0  0  0  0  0  0  0  0  0  0  0
   30.2704    1.1114  -17.5292 O   0  0  0  0  0  0  0  0  0  0  0  0
   30.5688   -0.1329  -16.9625 C   0  0  0  0  0  0  0  0  0  0  0  0
   31.1733   -0.2706  -15.7361 C   0  0  0  0  0  0  0  0  0  0  0  0
   31.4659   -1.5025  -15.1815 C   0  0  0  0  0  0  0  0  0  0  0  0
   31.1285   -2.6253  -15.9077 C   0  0  0  0  0  0  0  0  0  0  0  0
   31.4393   -3.9541  -15.3247 C   0  0  0  0  0  0  0  0  0  0  0  0
   32.8136   -4.4304  -15.7421 C   0  0  2  0  0  0  0  0  0  0  0  0
   32.9888   -5.8468  -15.4855 N   0  0  0  0  0  0  0  0  0  0  0  0
   33.8839   -3.6759  -15.0529 C   0  0  0  0  0  0  0  0  0  0  0  0
   34.4339   -4.1824  -14.0495 O   0  0  0  0  0  0  0  0  0  0  0  0
   30.5231   -2.4939  -17.1356 C   0  0  0  0  0  0  0  0  0  0  0  0
   30.2266   -1.2536  -17.6980 C   0  0  0  0  0  0  0  0  0  0  0  0
   34.3204   -2.4224  -15.4564 O   0  0  0  0  0  0  0  0  0  0  0  0
  2  1  1  0
  2  3  2  0
  4  5  1  0
  4  2  1  0
  5  7  1  0
  5  6  1  1
  7  8  2  0
 10  9  1  1
 10 11  1  0
 10 12  1  0
 12 14  1  0
 12 13  1  6
 13  7  1  0
 14 15  2  0
 14 23  1  0
 16 17  1  0
 17 18  2  0
 18 19  1  0
 20 21  1  0
 20 19  2  0
 22 21  1  1
 22 24  1  0
 23 22  1  0
 24 25  2  0
 24 28  1  0
 26 20  1  0
 27 26  2  0
 27 17  1  0
M  END
$$$$
