NTY.pdb
     RDKit          3D

 28 28  0  0  1  0  0  0  0  0999 V2000
   17.3545  -14.5228  -18.4434 N   0  0  0  0  0  0  0  0  0  0  0  0
   17.5750  -14.3909  -17.0511 C   0  0  0  0  0  0  0  0  0  0  0  0
   16.6491  -14.6810  -16.2574 O   0  0  0  0  0  0  0  0  0  0  0  0
   18.8902  -13.9171  -16.5587 C   0  0  0  0  0  0  0  0  0  0  0  0
   19.8121  -13.6895  -17.7339 C   0  0  2  0  0  0  0  0  0  0  0  0
   20.5268  -14.8414  -18.1566 N   0  0  0  0  0  0  0  0  0  0  0  0
   20.6749  -12.4984  -17.4790 C   0  0  0  0  0  0  0  0  0  0  0  0
   21.7908  -12.6819  -16.9492 O   0  0  0  0  0  0  0  0  0  0  0  0
   21.6479   -9.7496  -20.0323 C   0  0  0  0  0  0  0  0  0  0  0  0
   20.9963   -9.0930  -18.8355 C   0  0  1  0  0  0  0  0  0  0  0  0
   19.6783   -8.8305  -19.1921 O   0  0  0  0  0  0  0  0  0  0  0  0
   21.0806   -9.9885  -17.6038 C   0  0  2  0  0  0  0  0  0  0  0  0
   20.2712  -11.1914  -17.8152 N   0  0  0  0  0  0  0  0  0  0  0  0
   20.5493   -9.2110  -16.4574 C   0  0  0  0  0  0  0  0  0  0  0  0
   19.3487   -9.3151  -16.1037 O   0  0  0  0  0  0  0  0  0  0  0  0
   19.2256   -5.1329   -8.9344 O   0  0  0  0  0  0  0  0  0  0  0  0
   19.8454   -5.7232  -10.0417 C   0  0  0  0  0  0  0  0  0  0  0  0
   20.5230   -4.9999  -10.9934 C   0  0  0  0  0  0  0  0  0  0  0  0
   21.1330   -5.5885  -12.0853 C   0  0  0  0  0  0  0  0  0  0  0  0
   21.0440   -6.9598  -12.2032 C   0  0  0  0  0  0  0  0  0  0  0  0
   21.6927   -7.6041  -13.3720 C   0  0  0  0  0  0  0  0  0  0  0  0
   20.8117   -7.5306  -14.6002 C   0  0  2  0  0  0  0  0  0  0  0  0
   21.3558   -8.3099  -15.6953 N   0  0  0  0  0  0  0  0  0  0  0  0
   20.6170   -6.1336  -15.0478 C   0  0  0  0  0  0  0  0  0  0  0  0
   21.4697   -5.6136  -15.8018 O   0  0  0  0  0  0  0  0  0  0  0  0
   20.3674   -7.6892  -11.2537 C   0  0  0  0  0  0  0  0  0  0  0  0
   19.7511   -7.0990  -10.1516 C   0  0  0  0  0  0  0  0  0  0  0  0
   19.5319   -5.3533  -14.6761 O   0  0  0  0  0  0  0  0  0  0  0  0
  2  1  1  0
  2  3  2  0
  4  5  1  0
  4  2  1  0
  5  7  1  0
  5  6  1  1
  7  8  2  0
 10  9  1  6
 10 11  1  0
 10 12  1  0
 12 14  1  0
 12 13  1  6
 13  7  1  0
 14 15  2  0
 14 23  1  0
 16 17  1  0
 17 18  2  0
 18 19  1  0
 20 21  1  0
 20 19  2  0
 22 21  1  1
 22 24  1  0
 23 22  1  0
 24 25  2  0
 24 28  1  0
 26 20  1  0
 27 26  2  0
 27 17  1  0
M  END
$$$$
