NTY.pdb
     RDKit          3D

 28 28  0  0  1  0  0  0  0  0999 V2000
   21.0242  -13.5463  -16.8409 N   0  0  0  0  0  0  0  0  0  0  0  0
   20.4531  -12.2898  -17.1566 C   0  0  0  0  0  0  0  0  0  0  0  0
   19.2056  -12.1675  -17.1457 O   0  0  0  0  0  0  0  0  0  0  0  0
   21.3354  -11.1466  -17.4904 C   0  0  0  0  0  0  0  0  0  0  0  0
   20.8868  -10.5329  -18.7962 C   0  0  2  0  0  0  0  0  0  0  0  0
   21.2766  -11.2563  -19.9543 N   0  0  0  0  0  0  0  0  0  0  0  0
   21.2549   -9.0867  -18.8303 C   0  0  0  0  0  0  0  0  0  0  0  0
   22.3239   -8.7640  -19.3893 O   0  0  0  0  0  0  0  0  0  0  0  0
   18.2432   -6.3177  -18.6875 C   0  0  0  0  0  0  0  0  0  0  0  0
   19.6283   -5.9853  -19.1966 C   0  0  1  0  0  0  0  0  0  0  0  0
   19.7394   -4.5995  -19.1766 O   0  0  0  0  0  0  0  0  0  0  0  0
   20.7022   -6.6505  -18.3418 C   0  0  2  0  0  0  0  0  0  0  0  0
   20.4409   -8.0897  -18.2579 N   0  0  0  0  0  0  0  0  0  0  0  0
   20.6309   -6.0394  -16.9918 C   0  0  0  0  0  0  0  0  0  0  0  0
   19.7724   -6.4135  -16.1549 O   0  0  0  0  0  0  0  0  0  0  0  0
   23.6654  -10.4298  -14.2989 O   0  0  0  0  0  0  0  0  0  0  0  0
   23.4711   -9.0454  -14.3658 C   0  0  0  0  0  0  0  0  0  0  0  0
   24.1303   -8.2402  -15.2632 C   0  0  0  0  0  0  0  0  0  0  0  0
   23.9345   -6.8732  -15.3244 C   0  0  0  0  0  0  0  0  0  0  0  0
   23.0362   -6.3172  -14.4379 C   0  0  0  0  0  0  0  0  0  0  0  0
   22.8184   -4.8502  -14.4915 C   0  0  0  0  0  0  0  0  0  0  0  0
   21.5255   -4.5114  -15.2010 C   0  0  2  0  0  0  0  0  0  0  0  0
   21.5195   -5.0043  -16.5647 N   0  0  0  0  0  0  0  0  0  0  0  0
   21.2757   -3.0528  -15.2106 C   0  0  0  0  0  0  0  0  0  0  0  0
   21.1596   -2.4643  -16.3089 O   0  0  0  0  0  0  0  0  0  0  0  0
   22.3732   -7.1180  -13.5376 C   0  0  0  0  0  0  0  0  0  0  0  0
   22.5681   -8.4966  -13.4729 C   0  0  0  0  0  0  0  0  0  0  0  0
   21.1622   -2.2866  -14.0598 O   0  0  0  0  0  0  0  0  0  0  0  0
  2  1  1  0
  2  3  2  0
  4  5  1  0
  4  2  1  0
  5  7  1  0
  5  6  1  6
  7  8  2  0
 10  9  1  1
 10 11  1  0
 10 12  1  0
 12 14  1  0
 12 13  1  1
 13  7  1  0
 14 15  2  0
 14 23  1  0
 16 17  1  0
 17 18  2  0
 18 19  1  0
 20 21  1  0
 20 19  2  0
 22 21  1  6
 22 24  1  0
 23 22  1  0
 24 25  2  0
 24 28  1  0
 26 20  1  0
 27 26  2  0
 27 17  1  0
M  END
$$$$
