NTY.pdb
     RDKit          3D

 28 28  0  0  1  0  0  0  0  0999 V2000
   14.8609  -10.3236  -17.7023 N   0  0  0  0  0  0  0  0  0  0  0  0
   14.7863   -9.0590  -17.0701 C   0  0  0  0  0  0  0  0  0  0  0  0
   13.9980   -8.1965  -17.5239 O   0  0  0  0  0  0  0  0  0  0  0  0
   15.6352   -8.7792  -15.8877 C   0  0  0  0  0  0  0  0  0  0  0  0
   16.4663   -9.9998  -15.5682 C   0  0  2  0  0  0  0  0  0  0  0  0
   15.7510  -11.0550  -14.9428 N   0  0  0  0  0  0  0  0  0  0  0  0
   17.7070   -9.5938  -14.8444 C   0  0  0  0  0  0  0  0  0  0  0  0
   17.6234   -9.3514  -13.6222 O   0  0  0  0  0  0  0  0  0  0  0  0
   22.6736   -9.1616  -14.8654 C   0  0  0  0  0  0  0  0  0  0  0  0
   21.3825   -9.7214  -15.4199 C   0  0  1  0  0  0  0  0  0  0  0  0
   21.3532  -11.0695  -15.0807 O   0  0  0  0  0  0  0  0  0  0  0  0
   20.1755   -8.9727  -14.8643 C   0  0  2  0  0  0  0  0  0  0  0  0
   18.9524   -9.4786  -15.4925 N   0  0  0  0  0  0  0  0  0  0  0  0
   20.3602   -7.5372  -15.1899 C   0  0  0  0  0  0  0  0  0  0  0  0
   20.2293   -7.1167  -16.3662 O   0  0  0  0  0  0  0  0  0  0  0  0
   20.6032    1.1291  -15.3651 O   0  0  0  0  0  0  0  0  0  0  0  0
   20.4584   -0.2014  -14.9558 C   0  0  0  0  0  0  0  0  0  0  0  0
   21.1135   -0.7245  -13.8670 C   0  0  0  0  0  0  0  0  0  0  0  0
   20.9667   -2.0397  -13.4677 C   0  0  0  0  0  0  0  0  0  0  0  0
   20.1231   -2.8408  -14.2084 C   0  0  0  0  0  0  0  0  0  0  0  0
   19.9584   -4.2556  -13.7917 C   0  0  0  0  0  0  0  0  0  0  0  0
   20.9053   -5.1648  -14.5445 C   0  0  2  0  0  0  0  0  0  0  0  0
   20.6926   -6.5579  -14.2030 N   0  0  0  0  0  0  0  0  0  0  0  0
   22.3191   -4.8119  -14.2869 C   0  0  0  0  0  0  0  0  0  0  0  0
   22.9625   -4.2011  -15.1695 O   0  0  0  0  0  0  0  0  0  0  0  0
   19.4646   -2.3229  -15.2990 C   0  0  0  0  0  0  0  0  0  0  0  0
   19.6102   -0.9974  -15.7046 C   0  0  0  0  0  0  0  0  0  0  0  0
   22.9851   -5.1227  -13.1103 O   0  0  0  0  0  0  0  0  0  0  0  0
  2  1  1  0
  2  3  2  0
  4  5  1  0
  4  2  1  0
  5  7  1  0
  5  6  1  1
  7  8  2  0
 10  9  1  1
 10 11  1  0
 10 12  1  0
 12 14  1  0
 12 13  1  6
 13  7  1  0
 14 15  2  0
 14 23  1  0
 16 17  1  0
 17 18  2  0
 18 19  1  0
 20 21  1  0
 20 19  2  0
 22 21  1  1
 22 24  1  0
 23 22  1  0
 24 25  2  0
 24 28  1  0
 26 20  1  0
 27 26  2  0
 27 17  1  0
M  END
$$$$
