NTY.pdb
     RDKit          3D

 28 28  0  0  1  0  0  0  0  0999 V2000
   18.1081  -18.7472  -14.2071 N   0  0  0  0  0  0  0  0  0  0  0  0
   17.9176  -20.1475  -14.1200 C   0  0  0  0  0  0  0  0  0  0  0  0
   16.7819  -20.6236  -14.3539 O   0  0  0  0  0  0  0  0  0  0  0  0
   19.0586  -21.0215  -13.7580 C   0  0  0  0  0  0  0  0  0  0  0  0
   20.2701  -20.1674  -13.4654 C   0  0  2  0  0  0  0  0  0  0  0  0
   20.6086  -19.2491  -14.4941 N   0  0  0  0  0  0  0  0  0  0  0  0
   21.4049  -21.0306  -13.0234 C   0  0  0  0  0  0  0  0  0  0  0  0
   21.1375  -22.1304  -12.4956 O   0  0  0  0  0  0  0  0  0  0  0  0
   25.2159  -20.4410  -14.7368 C   0  0  0  0  0  0  0  0  0  0  0  0
   24.7043  -21.7411  -14.1573 C   0  0  1  0  0  0  0  0  0  0  0  0
   25.8181  -22.5390  -13.9207 O   0  0  0  0  0  0  0  0  0  0  0  0
   23.9033  -21.4970  -12.8825 C   0  0  2  0  0  0  0  0  0  0  0  0
   22.7501  -20.6446  -13.1832 N   0  0  0  0  0  0  0  0  0  0  0  0
   24.8042  -20.8159  -11.9205 C   0  0  0  0  0  0  0  0  0  0  0  0
   24.9835  -19.5737  -11.9676 O   0  0  0  0  0  0  0  0  0  0  0  0
   29.6863  -18.4970   -5.0798 O   0  0  0  0  0  0  0  0  0  0  0  0
   28.8875  -19.2386   -5.9576 C   0  0  0  0  0  0  0  0  0  0  0  0
   27.5281  -19.3679   -5.8038 C   0  0  0  0  0  0  0  0  0  0  0  0
   26.7443  -20.1021   -6.6741 C   0  0  0  0  0  0  0  0  0  0  0  0
   27.3750  -20.7217   -7.7325 C   0  0  0  0  0  0  0  0  0  0  0  0
   26.5452  -21.5150   -8.6730 C   0  0  0  0  0  0  0  0  0  0  0  0
   26.4701  -20.8543  -10.0323 C   0  0  2  0  0  0  0  0  0  0  0  0
   25.5129  -21.5175  -10.8964 N   0  0  0  0  0  0  0  0  0  0  0  0
   27.7908  -20.8294  -10.6994 C   0  0  0  0  0  0  0  0  0  0  0  0
   28.2338  -21.8836  -11.2076 O   0  0  0  0  0  0  0  0  0  0  0  0
   28.7352  -20.5958   -7.8918 C   0  0  0  0  0  0  0  0  0  0  0  0
   29.5287  -19.8564   -7.0164 C   0  0  0  0  0  0  0  0  0  0  0  0
   28.5799  -19.6926  -10.7960 O   0  0  0  0  0  0  0  0  0  0  0  0
  2  1  1  0
  2  3  2  0
  4  5  1  0
  4  2  1  0
  5  7  1  0
  5  6  1  6
  7  8  2  0
 10  9  1  1
 10 11  1  0
 10 12  1  0
 12 14  1  0
 12 13  1  6
 13  7  1  0
 14 15  2  0
 14 23  1  0
 16 17  1  0
 17 18  2  0
 18 19  1  0
 20 21  1  0
 20 19  2  0
 22 21  1  1
 22 24  1  0
 23 22  1  0
 24 25  2  0
 24 28  1  0
 26 20  1  0
 27 26  2  0
 27 17  1  0
M  END
$$$$
