NTY.pdb
     RDKit          3D

 28 28  0  0  1  0  0  0  0  0999 V2000
   16.7507  -11.8413  -15.6799 N   0  0  0  0  0  0  0  0  0  0  0  0
   17.3604  -11.2895  -14.5274 C   0  0  0  0  0  0  0  0  0  0  0  0
   16.7544  -11.3454  -13.4316 O   0  0  0  0  0  0  0  0  0  0  0  0
   18.6984  -10.6610  -14.6355 C   0  0  0  0  0  0  0  0  0  0  0  0
   19.2075  -10.8081  -16.0504 C   0  0  2  0  0  0  0  0  0  0  0  0
   19.6230  -12.1212  -16.3959 N   0  0  0  0  0  0  0  0  0  0  0  0
   20.2248   -9.7537  -16.3359 C   0  0  0  0  0  0  0  0  0  0  0  0
   21.3998   -9.9524  -15.9624 O   0  0  0  0  0  0  0  0  0  0  0  0
   21.0459   -7.9181  -19.7246 C   0  0  0  0  0  0  0  0  0  0  0  0
   20.6139   -6.9200  -18.6733 C   0  0  1  0  0  0  0  0  0  0  0  0
   19.2702   -6.6498  -18.9070 O   0  0  0  0  0  0  0  0  0  0  0  0
   20.8439   -7.4675  -17.2684 C   0  0  2  0  0  0  0  0  0  0  0  0
   19.9010   -8.5578  -17.0061 N   0  0  0  0  0  0  0  0  0  0  0  0
   20.6116   -6.3522  -16.3181 C   0  0  0  0  0  0  0  0  0  0  0  0
   19.4645   -6.1138  -15.8657 O   0  0  0  0  0  0  0  0  0  0  0  0
   18.5627   -7.9657  -10.4355 O   0  0  0  0  0  0  0  0  0  0  0  0
   19.4118   -7.1604  -11.2030 C   0  0  0  0  0  0  0  0  0  0  0  0
   19.1464   -5.8398  -11.4749 C   0  0  0  0  0  0  0  0  0  0  0  0
   19.9888   -5.0493  -12.2339 C   0  0  0  0  0  0  0  0  0  0  0  0
   21.1368   -5.6322  -12.7284 C   0  0  0  0  0  0  0  0  0  0  0  0
   22.0487   -4.7951  -13.5468 C   0  0  0  0  0  0  0  0  0  0  0  0
   21.4285   -4.4506  -14.8834 C   0  0  2  0  0  0  0  0  0  0  0  0
   21.6601   -5.4931  -15.8643 N   0  0  0  0  0  0  0  0  0  0  0  0
   21.9441   -3.1666  -15.4082 C   0  0  0  0  0  0  0  0  0  0  0  0
   22.8037   -3.1842  -16.3175 O   0  0  0  0  0  0  0  0  0  0  0  0
   21.4080   -6.9534  -12.4595 C   0  0  0  0  0  0  0  0  0  0  0  0
   20.5609   -7.7535  -11.6946 C   0  0  0  0  0  0  0  0  0  0  0  0
   21.5278   -1.9266  -14.9461 O   0  0  0  0  0  0  0  0  0  0  0  0
  2  1  1  0
  2  3  2  0
  4  5  1  0
  4  2  1  0
  5  7  1  0
  5  6  1  1
  7  8  2  0
 10  9  1  6
 10 11  1  0
 10 12  1  0
 12 14  1  0
 12 13  1  1
 13  7  1  0
 14 15  2  0
 14 23  1  0
 16 17  1  0
 17 18  2  0
 18 19  1  0
 20 21  1  0
 20 19  2  0
 22 21  1  1
 22 24  1  0
 23 22  1  0
 24 25  2  0
 24 28  1  0
 26 20  1  0
 27 26  2  0
 27 17  1  0
M  END
$$$$
