NTY.pdb
     RDKit          3D

 28 28  0  0  1  0  0  0  0  0999 V2000
   17.0705  -16.6289  -14.6784 N   0  0  0  0  0  0  0  0  0  0  0  0
   16.6169  -15.3524  -15.0899 C   0  0  0  0  0  0  0  0  0  0  0  0
   15.3945  -15.1815  -15.3087 O   0  0  0  0  0  0  0  0  0  0  0  0
   17.5896  -14.2457  -15.2516 C   0  0  0  0  0  0  0  0  0  0  0  0
   17.4366  -13.6423  -16.6282 C   0  0  2  0  0  0  0  0  0  0  0  0
   17.8207  -14.4974  -17.6948 N   0  0  0  0  0  0  0  0  0  0  0  0
   18.0801  -12.2959  -16.6666 C   0  0  0  0  0  0  0  0  0  0  0  0
   19.2870  -12.2287  -16.9802 O   0  0  0  0  0  0  0  0  0  0  0  0
   16.8276   -9.4505  -18.7547 C   0  0  0  0  0  0  0  0  0  0  0  0
   16.9428   -8.9190  -17.3433 C   0  0  1  0  0  0  0  0  0  0  0  0
   15.6606   -8.9307  -16.8059 O   0  0  0  0  0  0  0  0  0  0  0  0
   17.9095   -9.7606  -16.5165 C   0  0  2  0  0  0  0  0  0  0  0  0
   17.3735  -11.1156  -16.3636 N   0  0  0  0  0  0  0  0  0  0  0  0
   18.0357   -9.1091  -15.1896 C   0  0  0  0  0  0  0  0  0  0  0  0
   17.2482   -9.3888  -14.2521 O   0  0  0  0  0  0  0  0  0  0  0  0
   24.2057   -4.9171  -16.4534 O   0  0  0  0  0  0  0  0  0  0  0  0
   23.3199   -5.6183  -15.6274 C   0  0  0  0  0  0  0  0  0  0  0  0
   23.0744   -6.9633  -15.7652 C   0  0  0  0  0  0  0  0  0  0  0  0
   22.1980   -7.6506  -14.9464 C   0  0  0  0  0  0  0  0  0  0  0  0
   21.5549   -6.9356  -13.9579 C   0  0  0  0  0  0  0  0  0  0  0  0
   20.6096   -7.6610  -13.0733 C   0  0  0  0  0  0  0  0  0  0  0  0
   19.1879   -7.5522  -13.5801 C   0  0  2  0  0  0  0  0  0  0  0  0
   19.0444   -8.1390  -14.8984 N   0  0  0  0  0  0  0  0  0  0  0  0
   18.7310   -6.1453  -13.6224 C   0  0  0  0  0  0  0  0  0  0  0  0
   18.5351   -5.6041  -14.7335 O   0  0  0  0  0  0  0  0  0  0  0  0
   21.7966   -5.5893  -13.8149 C   0  0  0  0  0  0  0  0  0  0  0  0
   22.6795   -4.8930  -14.6386 C   0  0  0  0  0  0  0  0  0  0  0  0
   18.5047   -5.3781  -12.4890 O   0  0  0  0  0  0  0  0  0  0  0  0
  2  1  1  0
  2  3  2  0
  4  5  1  0
  4  2  1  0
  5  7  1  0
  5  6  1  6
  7  8  2  0
 10  9  1  6
 10 11  1  0
 10 12  1  0
 12 14  1  0
 12 13  1  1
 13  7  1  0
 14 15  2  0
 14 23  1  0
 16 17  1  0
 17 18  2  0
 18 19  1  0
 20 21  1  0
 20 19  2  0
 22 21  1  6
 22 24  1  0
 23 22  1  0
 24 25  2  0
 24 28  1  0
 26 20  1  0
 27 26  2  0
 27 17  1  0
M  END
$$$$
