NTY.pdb
     RDKit          3D

 28 28  0  0  1  0  0  0  0  0999 V2000
   18.3834  -11.6656  -18.9101 N   0  0  0  0  0  0  0  0  0  0  0  0
   18.7778  -12.5468  -17.8745 C   0  0  0  0  0  0  0  0  0  0  0  0
   18.9718  -13.7556  -18.1439 O   0  0  0  0  0  0  0  0  0  0  0  0
   18.9560  -12.0272  -16.4979 C   0  0  0  0  0  0  0  0  0  0  0  0
   20.1494  -11.1014  -16.4629 C   0  0  2  0  0  0  0  0  0  0  0  0
   21.3795  -11.7081  -16.8305 N   0  0  0  0  0  0  0  0  0  0  0  0
   20.1939  -10.3797  -15.1570 C   0  0  0  0  0  0  0  0  0  0  0  0
   20.6982  -10.9664  -14.1767 O   0  0  0  0  0  0  0  0  0  0  0  0
   21.6741   -6.8482  -14.5994 C   0  0  0  0  0  0  0  0  0  0  0  0
   20.2410   -6.8639  -14.1156 C   0  0  1  0  0  0  0  0  0  0  0  0
   19.4701   -6.3104  -15.1317 O   0  0  0  0  0  0  0  0  0  0  0  0
   19.7920   -8.2809  -13.7738 C   0  0  2  0  0  0  0  0  0  0  0  0
   19.6905   -9.0732  -15.0021 N   0  0  0  0  0  0  0  0  0  0  0  0
   18.4630   -8.1763  -13.1228 C   0  0  0  0  0  0  0  0  0  0  0  0
   17.4046   -8.2253  -13.7973 O   0  0  0  0  0  0  0  0  0  0  0  0
   11.9492   -7.4704   -7.2637 O   0  0  0  0  0  0  0  0  0  0  0  0
   13.2094   -7.6513   -7.8449 C   0  0  0  0  0  0  0  0  0  0  0  0
   14.2454   -6.7645   -7.6757 C   0  0  0  0  0  0  0  0  0  0  0  0
   15.4880   -6.9484   -8.2526 C   0  0  0  0  0  0  0  0  0  0  0  0
   15.6717   -8.0754   -9.0260 C   0  0  0  0  0  0  0  0  0  0  0  0
   17.0005   -8.2836   -9.6530 C   0  0  0  0  0  0  0  0  0  0  0  0
   17.0024   -7.8387  -11.0993 C   0  0  2  0  0  0  0  0  0  0  0  0
   18.3050   -8.0163  -11.7112 N   0  0  0  0  0  0  0  0  0  0  0  0
   16.5913   -6.4235  -11.2342 C   0  0  0  0  0  0  0  0  0  0  0  0
   15.3765   -6.1546  -11.3679 O   0  0  0  0  0  0  0  0  0  0  0  0
   14.6387   -8.9667   -9.1988 C   0  0  0  0  0  0  0  0  0  0  0  0
   13.3845   -8.7846   -8.6187 C   0  0  0  0  0  0  0  0  0  0  0  0
   17.4835   -5.3613  -11.2228 O   0  0  0  0  0  0  0  0  0  0  0  0
  2  1  1  0
  2  3  2  0
  4  5  1  0
  4  2  1  0
  5  7  1  0
  5  6  1  1
  7  8  2  0
 10  9  1  6
 10 11  1  0
 10 12  1  0
 12 14  1  0
 12 13  1  6
 13  7  1  0
 14 15  2  0
 14 23  1  0
 16 17  1  0
 17 18  2  0
 18 19  1  0
 20 21  1  0
 20 19  2  0
 22 21  1  1
 22 24  1  0
 23 22  1  0
 24 25  2  0
 24 28  1  0
 26 20  1  0
 27 26  2  0
 27 17  1  0
M  END
$$$$
