NTY.pdb
     RDKit          3D

 28 28  0  0  1  0  0  0  0  0999 V2000
   13.7282  -12.8537   -8.6427 N   0  0  0  0  0  0  0  0  0  0  0  0
   13.7667  -12.6085  -10.0366 C   0  0  0  0  0  0  0  0  0  0  0  0
   13.1474  -13.3784  -10.8080 O   0  0  0  0  0  0  0  0  0  0  0  0
   14.5324  -11.4509  -10.5565 C   0  0  0  0  0  0  0  0  0  0  0  0
   13.7733  -10.1774  -10.2655 C   0  0  2  0  0  0  0  0  0  0  0  0
   12.4354  -10.1646  -10.7411 N   0  0  0  0  0  0  0  0  0  0  0  0
   14.5810   -8.9964  -10.6910 C   0  0  0  0  0  0  0  0  0  0  0  0
   14.6721   -8.7545  -11.9128 O   0  0  0  0  0  0  0  0  0  0  0  0
   14.3683   -5.4928   -8.8117 C   0  0  0  0  0  0  0  0  0  0  0  0
   15.8100   -5.9161   -8.9854 C   0  0  1  0  0  0  0  0  0  0  0  0
   16.2218   -6.4422   -7.7661 O   0  0  0  0  0  0  0  0  0  0  0  0
   15.9524   -6.9307  -10.1153 C   0  0  2  0  0  0  0  0  0  0  0  0
   15.2338   -8.1587   -9.7657 N   0  0  0  0  0  0  0  0  0  0  0  0
   17.4002   -7.2138  -10.2724 C   0  0  0  0  0  0  0  0  0  0  0  0
   18.0232   -7.8982   -9.4233 O   0  0  0  0  0  0  0  0  0  0  0  0
   23.3926   -9.6499  -15.8850 O   0  0  0  0  0  0  0  0  0  0  0  0
   22.5231   -9.3821  -14.8216 C   0  0  0  0  0  0  0  0  0  0  0  0
   22.7049   -9.8945  -13.5596 C   0  0  0  0  0  0  0  0  0  0  0  0
   21.8425   -9.6267  -12.5131 C   0  0  0  0  0  0  0  0  0  0  0  0
   20.7618   -8.8094  -12.7704 C   0  0  0  0  0  0  0  0  0  0  0  0
   19.8268   -8.5157  -11.6561 C   0  0  0  0  0  0  0  0  0  0  0  0
   19.5777   -7.0290  -11.5239 C   0  0  2  0  0  0  0  0  0  0  0  0
   18.1651   -6.7347  -11.3809 N   0  0  0  0  0  0  0  0  0  0  0  0
   20.1147   -6.2818  -12.6829 C   0  0  0  0  0  0  0  0  0  0  0  0
   21.3504   -6.1055  -12.7715 O   0  0  0  0  0  0  0  0  0  0  0  0
   20.5746   -8.2934  -14.0314 C   0  0  0  0  0  0  0  0  0  0  0  0
   21.4421   -8.5613  -15.0890 C   0  0  0  0  0  0  0  0  0  0  0  0
   19.3202   -5.7559  -13.6912 O   0  0  0  0  0  0  0  0  0  0  0  0
  2  1  1  0
  2  3  2  0
  4  5  1  0
  4  2  1  0
  5  7  1  0
  5  6  1  6
  7  8  2  0
 10  9  1  1
 10 11  1  0
 10 12  1  0
 12 14  1  0
 12 13  1  1
 13  7  1  0
 14 15  2  0
 14 23  1  0
 16 17  1  0
 17 18  2  0
 18 19  1  0
 20 21  1  0
 20 19  2  0
 22 21  1  6
 22 24  1  0
 23 22  1  0
 24 25  2  0
 24 28  1  0
 26 20  1  0
 27 26  2  0
 27 17  1  0
M  END
$$$$
