NTY.pdb
     RDKit          3D

 28 28  0  0  1  0  0  0  0  0999 V2000
   22.1622  -17.1611  -17.3417 N   0  0  0  0  0  0  0  0  0  0  0  0
   22.1328  -15.8401  -17.8503 C   0  0  0  0  0  0  0  0  0  0  0  0
   21.9773  -15.6647  -19.0817 O   0  0  0  0  0  0  0  0  0  0  0  0
   22.2832  -14.6939  -16.9228 C   0  0  0  0  0  0  0  0  0  0  0  0
   23.1005  -13.6132  -17.5913 C   0  0  2  0  0  0  0  0  0  0  0  0
   24.2326  -14.0851  -18.3067 N   0  0  0  0  0  0  0  0  0  0  0  0
   23.4087  -12.5303  -16.6112 C   0  0  0  0  0  0  0  0  0  0  0  0
   22.5511  -12.2581  -15.7452 O   0  0  0  0  0  0  0  0  0  0  0  0
   27.3209  -10.7851  -16.5837 C   0  0  0  0  0  0  0  0  0  0  0  0
   26.4501  -10.8298  -15.3477 C   0  0  1  0  0  0  0  0  0  0  0  0
   26.8502   -9.7724  -14.5384 O   0  0  0  0  0  0  0  0  0  0  0  0
   24.9723  -10.7337  -15.7130 C   0  0  2  0  0  0  0  0  0  0  0  0
   24.6233  -11.8173  -16.6353 N   0  0  0  0  0  0  0  0  0  0  0  0
   24.7659   -9.4190  -16.3688 C   0  0  0  0  0  0  0  0  0  0  0  0
   25.3173   -9.1467  -17.4639 O   0  0  0  0  0  0  0  0  0  0  0  0
   20.9902   -3.5734  -21.1389 O   0  0  0  0  0  0  0  0  0  0  0  0
   21.4457   -4.6122  -20.3192 C   0  0  0  0  0  0  0  0  0  0  0  0
   22.2016   -4.3988  -19.1917 C   0  0  0  0  0  0  0  0  0  0  0  0
   22.6490   -5.4290  -18.3860 C   0  0  0  0  0  0  0  0  0  0  0  0
   22.3107   -6.7157  -18.7492 C   0  0  0  0  0  0  0  0  0  0  0  0
   22.7867   -7.8313  -17.8941 C   0  0  0  0  0  0  0  0  0  0  0  0
   23.3999   -7.3171  -16.6097 C   0  0  2  0  0  0  0  0  0  0  0  0
   23.9403   -8.3966  -15.8063 N   0  0  0  0  0  0  0  0  0  0  0  0
   22.4190   -6.5563  -15.8044 C   0  0  0  0  0  0  0  0  0  0  0  0
   21.8826   -5.5411  -16.3019 O   0  0  0  0  0  0  0  0  0  0  0  0
   21.5542   -6.9357  -19.8765 C   0  0  0  0  0  0  0  0  0  0  0  0
   21.1014   -5.8994  -20.6912 C   0  0  0  0  0  0  0  0  0  0  0  0
   22.0535   -6.9038  -14.5120 O   0  0  0  0  0  0  0  0  0  0  0  0
  2  1  1  0
  2  3  2  0
  4  5  1  0
  4  2  1  0
  5  7  1  0
  5  6  1  1
  7  8  2  0
 10  9  1  6
 10 11  1  0
 10 12  1  0
 12 14  1  0
 12 13  1  6
 13  7  1  0
 14 15  2  0
 14 23  1  0
 16 17  1  0
 17 18  2  0
 18 19  1  0
 20 21  1  0
 20 19  2  0
 22 21  1  6
 22 24  1  0
 23 22  1  0
 24 25  2  0
 24 28  1  0
 26 20  1  0
 27 26  2  0
 27 17  1  0
M  END
$$$$
