NTY.pdb
     RDKit          3D

 28 28  0  0  1  0  0  0  0  0999 V2000
   21.6824  -23.2856  -17.0944 N   0  0  0  0  0  0  0  0  0  0  0  0
   22.1848  -24.4735  -16.5105 C   0  0  0  0  0  0  0  0  0  0  0  0
   21.6514  -25.5693  -16.8037 O   0  0  0  0  0  0  0  0  0  0  0  0
   23.3278  -24.4015  -15.5698 C   0  0  0  0  0  0  0  0  0  0  0  0
   23.6132  -22.9552  -15.2388 C   0  0  2  0  0  0  0  0  0  0  0  0
   23.5984  -22.0789  -16.3560 N   0  0  0  0  0  0  0  0  0  0  0  0
   24.8491  -22.8590  -14.4071 C   0  0  0  0  0  0  0  0  0  0  0  0
   25.6110  -23.8477  -14.3679 O   0  0  0  0  0  0  0  0  0  0  0  0
   27.6107  -20.3526  -14.8265 C   0  0  0  0  0  0  0  0  0  0  0  0
   27.0976  -20.2154  -13.4102 C   0  0  1  0  0  0  0  0  0  0  0  0
   26.2118  -19.1438  -13.4081 O   0  0  0  0  0  0  0  0  0  0  0  0
   26.4277  -21.5030  -12.9414 C   0  0  2  0  0  0  0  0  0  0  0  0
   25.1753  -21.7002  -13.6759 N   0  0  0  0  0  0  0  0  0  0  0  0
   26.1507  -21.3520  -11.4917 C   0  0  0  0  0  0  0  0  0  0  0  0
   24.9925  -21.1018  -11.0752 O   0  0  0  0  0  0  0  0  0  0  0  0
   27.4519  -19.1192   -3.0890 O   0  0  0  0  0  0  0  0  0  0  0  0
   27.6661  -19.5372   -4.4073 C   0  0  0  0  0  0  0  0  0  0  0  0
   28.2389  -18.7332   -5.3632 C   0  0  0  0  0  0  0  0  0  0  0  0
   28.4476  -19.1515   -6.6640 C   0  0  0  0  0  0  0  0  0  0  0  0
   28.0562  -20.4324   -6.9927 C   0  0  0  0  0  0  0  0  0  0  0  0
   28.2726  -20.8932   -8.3866 C   0  0  0  0  0  0  0  0  0  0  0  0
   26.9615  -21.0373   -9.1284 C   0  0  2  0  0  0  0  0  0  0  0  0
   27.1663  -21.4800  -10.4940 N   0  0  0  0  0  0  0  0  0  0  0  0
   26.1991  -19.7690   -9.1380 C   0  0  0  0  0  0  0  0  0  0  0  0
   26.5514  -18.8552   -9.9170 O   0  0  0  0  0  0  0  0  0  0  0  0
   27.4826  -21.2419   -6.0403 C   0  0  0  0  0  0  0  0  0  0  0  0
   27.2705  -20.8236   -4.7278 C   0  0  0  0  0  0  0  0  0  0  0  0
   25.1026  -19.5272   -8.3234 O   0  0  0  0  0  0  0  0  0  0  0  0
  2  1  1  0
  2  3  2  0
  4  5  1  0
  4  2  1  0
  5  7  1  0
  5  6  1  6
  7  8  2  0
 10  9  1  6
 10 11  1  0
 10 12  1  0
 12 14  1  0
 12 13  1  6
 13  7  1  0
 14 15  2  0
 14 23  1  0
 16 17  1  0
 17 18  2  0
 18 19  1  0
 20 21  1  0
 20 19  2  0
 22 21  1  6
 22 24  1  0
 23 22  1  0
 24 25  2  0
 24 28  1  0
 26 20  1  0
 27 26  2  0
 27 17  1  0
M  END
$$$$
