FLS.pdb
     RDKit          3D

 26 26  0  0  1  0  0  0  0  0999 V2000
   25.7080  -19.8681  -17.6764 N   0  0  0  0  0  0  0  0  0  0  0  0
   25.7163  -19.3052  -16.3676 C   0  0  1  0  0  0  0  0  0  0  0  0
   24.3404  -19.0637  -15.8043 C   0  0  0  0  0  0  0  0  0  0  0  0
   23.5694  -18.1137  -16.6387 C   0  0  0  0  0  0  0  0  0  0  0  0
   22.5020  -18.6217  -17.3514 C   0  0  0  0  0  0  0  0  0  0  0  0
   21.7791  -17.7589  -18.1271 C   0  0  0  0  0  0  0  0  0  0  0  0
   22.1191  -16.4339  -18.1825 C   0  0  0  0  0  0  0  0  0  0  0  0
   23.1861  -15.9449  -17.4655 C   0  0  0  0  0  0  0  0  0  0  0  0
   23.9390  -16.7945  -16.6695 C   0  0  0  0  0  0  0  0  0  0  0  0
   26.3919  -20.2960  -15.4520 C   0  0  0  0  0  0  0  0  0  0  0  0
   26.4401  -21.5199  -15.7537 O   0  0  0  0  0  0  0  0  0  0  0  0
   30.3914  -21.8377  -12.4456 C   0  0  0  0  0  0  0  0  0  0  0  0
   29.5016  -20.8667  -11.5922 C   0  0  1  0  0  0  0  0  0  0  0  0
   30.4478  -20.0627  -10.7680 C   0  0  0  0  0  0  0  0  0  0  0  0
   28.6529  -20.1893  -12.5711 C   0  0  0  0  0  0  0  0  0  0  0  0
   27.6154  -20.8999  -13.3495 C   0  0  2  0  0  0  0  0  0  0  0  0
   26.9866  -19.8811  -14.2362 N   0  0  0  0  0  0  0  0  0  0  0  0
   26.5152  -21.4278  -12.5448 C   0  0  0  0  0  0  0  0  0  0  0  0
   25.9825  -22.5295  -12.7891 O   0  0  0  0  0  0  0  0  0  0  0  0
   25.3369  -19.5149   -9.1728 O   0  0  0  0  0  0  0  0  0  0  0  0
   24.9891  -20.8451   -9.2169 C   0  0  0  0  0  0  0  0  0  0  0  0
   24.9021  -21.2551  -10.6751 C   0  0  2  0  0  0  0  0  0  0  0  0
   26.0010  -20.7079  -11.4449 N   0  0  0  0  0  0  0  0  0  0  0  0
   23.6104  -20.7890  -11.2232 C   0  0  0  0  0  0  0  0  0  0  0  0
   22.4255  -21.2234  -10.6705 O   0  0  0  0  0  0  0  0  0  0  0  0
   23.5858  -19.9970  -12.1923 O   0  0  0  0  0  0  0  0  0  0  0  0
  2  1  1  6
  3  2  1  0
  4  3  1  0
  5  4  2  0
  6  5  1  0
  7  6  2  0
  7  8  1  0
  8  9  2  0
  9  4  1  0
 10  2  1  0
 10 17  1  0
 11 10  2  0
 13 14  1  6
 13 12  1  0
 15 13  1  0
 16 15  1  1
 16 17  1  0
 18 16  1  0
 19 18  2  0
 20 21  1  0
 22 21  1  1
 22 24  1  0
 22 23  1  0
 23 18  1  0
 24 25  1  0
 26 24  2  0
M  END
$$$$
