FLS.pdb
     RDKit          3D

 26 26  0  0  1  0  0  0  0  0999 V2000
   25.2712  -18.7795  -15.4245 N   0  0  0  0  0  0  0  0  0  0  0  0
   26.2264  -19.7599  -15.8199 C   0  0  1  0  0  0  0  0  0  0  0  0
   27.6545  -19.2972  -15.6968 C   0  0  0  0  0  0  0  0  0  0  0  0
   27.9783  -18.2571  -16.6999 C   0  0  0  0  0  0  0  0  0  0  0  0
   27.8877  -18.6130  -18.0304 C   0  0  0  0  0  0  0  0  0  0  0  0
   28.1831  -17.6652  -18.9702 C   0  0  0  0  0  0  0  0  0  0  0  0
   28.5558  -16.4059  -18.5835 C   0  0  0  0  0  0  0  0  0  0  0  0
   28.6408  -16.0685  -17.2529 C   0  0  0  0  0  0  0  0  0  0  0  0
   28.3476  -17.0074  -16.2757 C   0  0  0  0  0  0  0  0  0  0  0  0
   26.0724  -20.9421  -14.8950 C   0  0  0  0  0  0  0  0  0  0  0  0
   26.7527  -21.9895  -15.0727 O   0  0  0  0  0  0  0  0  0  0  0  0
   26.1494  -20.3869   -9.7474 C   0  0  0  0  0  0  0  0  0  0  0  0
   26.3371  -20.6925  -11.2752 C   0  0  1  0  0  0  0  0  0  0  0  0
   27.7779  -21.0305  -11.4510 C   0  0  0  0  0  0  0  0  0  0  0  0
   25.3241  -21.7029  -11.5756 C   0  0  0  0  0  0  0  0  0  0  0  0
   25.0038  -22.1201  -12.9579 C   0  0  2  0  0  0  0  0  0  0  0  0
   25.1654  -20.9078  -13.8087 N   0  0  0  0  0  0  0  0  0  0  0  0
   23.6163  -22.5352  -13.1551 C   0  0  0  0  0  0  0  0  0  0  0  0
   23.0474  -23.3379  -12.3874 O   0  0  0  0  0  0  0  0  0  0  0  0
   20.2954  -19.9406  -12.7513 O   0  0  0  0  0  0  0  0  0  0  0  0
   21.5880  -20.3199  -13.0304 C   0  0  0  0  0  0  0  0  0  0  0  0
   21.5313  -21.4939  -13.9897 C   0  0  2  0  0  0  0  0  0  0  0  0
   22.8503  -22.0422  -14.2333 N   0  0  0  0  0  0  0  0  0  0  0  0
   20.9222  -21.0413  -15.2587 C   0  0  0  0  0  0  0  0  0  0  0  0
   21.6986  -20.8969  -16.3876 O   0  0  0  0  0  0  0  0  0  0  0  0
   19.6979  -20.7868  -15.3148 O   0  0  0  0  0  0  0  0  0  0  0  0
  2  1  1  1
  3  2  1  0
  4  3  1  0
  5  4  2  0
  6  5  1  0
  7  6  2  0
  7  8  1  0
  8  9  2  0
  9  4  1  0
 10  2  1  0
 10 17  1  0
 11 10  2  0
 13 14  1  1
 13 12  1  0
 15 13  1  0
 16 15  1  1
 16 17  1  0
 18 16  1  0
 19 18  2  0
 20 21  1  0
 22 21  1  1
 22 24  1  0
 22 23  1  0
 23 18  1  0
 24 25  1  0
 26 24  2  0
M  END
$$$$
