FLS.pdb
     RDKit          3D

 26 26  0  0  1  0  0  0  0  0999 V2000
   26.8211  -18.1753   -8.0534 N   0  0  0  0  0  0  0  0  0  0  0  0
   27.1305  -19.5224   -8.3991 C   0  0  1  0  0  0  0  0  0  0  0  0
   26.8998  -20.5026   -7.2790 C   0  0  0  0  0  0  0  0  0  0  0  0
   27.7990  -20.2402   -6.1320 C   0  0  0  0  0  0  0  0  0  0  0  0
   27.2117  -20.0770   -4.8936 C   0  0  0  0  0  0  0  0  0  0  0  0
   28.0268  -19.8339   -3.8234 C   0  0  0  0  0  0  0  0  0  0  0  0
   29.3829  -19.7582   -3.9948 C   0  0  0  0  0  0  0  0  0  0  0  0
   29.9513  -19.9235   -5.2364 C   0  0  0  0  0  0  0  0  0  0  0  0
   29.1516  -20.1712   -6.3416 C   0  0  0  0  0  0  0  0  0  0  0  0
   26.2093  -19.9250   -9.5242 C   0  0  0  0  0  0  0  0  0  0  0  0
   24.9939  -19.5872   -9.5112 O   0  0  0  0  0  0  0  0  0  0  0  0
   26.9804  -19.2469  -14.7326 C   0  0  0  0  0  0  0  0  0  0  0  0
   27.0269  -20.7756  -14.3804 C   0  0  1  0  0  0  0  0  0  0  0  0
   28.0700  -21.3678  -15.2648 C   0  0  0  0  0  0  0  0  0  0  0  0
   27.2129  -20.8139  -12.9309 C   0  0  0  0  0  0  0  0  0  0  0  0
   26.1528  -20.4076  -11.9830 C   0  0  2  0  0  0  0  0  0  0  0  0
   26.6814  -20.6885  -10.6187 N   0  0  0  0  0  0  0  0  0  0  0  0
   24.9251  -21.1950  -12.0796 C   0  0  0  0  0  0  0  0  0  0  0  0
   24.8848  -22.4035  -11.7711 O   0  0  0  0  0  0  0  0  0  0  0  0
   21.4271  -19.3663  -12.6689 O   0  0  0  0  0  0  0  0  0  0  0  0
   21.2879  -20.6584  -12.2177 C   0  0  0  0  0  0  0  0  0  0  0  0
   22.5243  -21.4325  -12.6348 C   0  0  2  0  0  0  0  0  0  0  0  0
   23.7184  -20.6181  -12.5308 N   0  0  0  0  0  0  0  0  0  0  0  0
   22.3440  -21.9021  -14.0252 C   0  0  0  0  0  0  0  0  0  0  0  0
   21.3870  -22.8488  -14.3185 O   0  0  0  0  0  0  0  0  0  0  0  0
   23.0597  -21.4426  -14.9436 O   0  0  0  0  0  0  0  0  0  0  0  0
  2  1  1  1
  3  2  1  0
  4  3  1  0
  5  4  2  0
  6  5  1  0
  7  6  2  0
  7  8  1  0
  8  9  2  0
  9  4  1  0
 10  2  1  0
 10 17  1  0
 11 10  2  0
 13 14  1  6
 13 12  1  0
 15 13  1  0
 16 15  1  6
 16 17  1  0
 18 16  1  0
 19 18  2  0
 20 21  1  0
 22 21  1  6
 22 24  1  0
 22 23  1  0
 23 18  1  0
 24 25  1  0
 26 24  2  0
M  END
$$$$
