FLS.pdb
     RDKit          3D

 26 26  0  0  1  0  0  0  0  0999 V2000
   20.9023  -19.8677  -13.6382 N   0  0  0  0  0  0  0  0  0  0  0  0
   21.5134  -20.8434  -12.7988 C   0  0  1  0  0  0  0  0  0  0  0  0
   21.2996  -22.2602  -13.2633 C   0  0  0  0  0  0  0  0  0  0  0  0
   19.8845  -22.6726  -13.1198 C   0  0  0  0  0  0  0  0  0  0  0  0
   19.4047  -22.8474  -11.8375 C   0  0  0  0  0  0  0  0  0  0  0  0
   18.1005  -23.2281  -11.6863 C   0  0  0  0  0  0  0  0  0  0  0  0
   17.3095  -23.4252  -12.7862 C   0  0  0  0  0  0  0  0  0  0  0  0
   17.8044  -23.2464  -14.0570 C   0  0  0  0  0  0  0  0  0  0  0  0
   19.1230  -22.8605  -14.2435 C   0  0  0  0  0  0  0  0  0  0  0  0
   23.0018  -20.5978  -12.8271 C   0  0  0  0  0  0  0  0  0  0  0  0
   23.5117  -19.8427  -13.6996 O   0  0  0  0  0  0  0  0  0  0  0  0
   25.8053  -20.8590   -8.0597 C   0  0  0  0  0  0  0  0  0  0  0  0
   25.0427  -20.3548   -9.3353 C   0  0  1  0  0  0  0  0  0  0  0  0
   25.0066  -18.8687   -9.2299 C   0  0  0  0  0  0  0  0  0  0  0  0
   25.7486  -20.9750  -10.4553 C   0  0  0  0  0  0  0  0  0  0  0  0
   25.3018  -20.8242  -11.8571 C   0  0  2  0  0  0  0  0  0  0  0  0
   23.8616  -21.2049  -11.8804 N   0  0  0  0  0  0  0  0  0  0  0  0
   25.9474  -21.7395  -12.7963 C   0  0  0  0  0  0  0  0  0  0  0  0
   26.4826  -22.8040  -12.4252 O   0  0  0  0  0  0  0  0  0  0  0  0
   24.8458  -22.1451  -16.4658 O   0  0  0  0  0  0  0  0  0  0  0  0
   25.7698  -23.0608  -16.0184 C   0  0  0  0  0  0  0  0  0  0  0  0
   26.7138  -22.3442  -15.0712 C   0  0  2  0  0  0  0  0  0  0  0  0
   25.9952  -21.4574  -14.1785 N   0  0  0  0  0  0  0  0  0  0  0  0
   27.6980  -21.5813  -15.8685 C   0  0  0  0  0  0  0  0  0  0  0  0
   28.6009  -22.2424  -16.6721 O   0  0  0  0  0  0  0  0  0  0  0  0
   27.7164  -20.3307  -15.8181 O   0  0  0  0  0  0  0  0  0  0  0  0
  2  1  1  6
  3  2  1  0
  4  3  1  0
  5  4  2  0
  6  5  1  0
  7  6  2  0
  7  8  1  0
  8  9  2  0
  9  4  1  0
 10  2  1  0
 10 17  1  0
 11 10  2  0
 13 14  1  6
 13 12  1  0
 15 13  1  0
 16 15  1  1
 16 17  1  0
 18 16  1  0
 19 18  2  0
 20 21  1  0
 22 21  1  6
 22 24  1  0
 22 23  1  0
 23 18  1  0
 24 25  1  0
 26 24  2  0
M  END
$$$$
