FLS.pdb
     RDKit          3D

 26 26  0  0  1  0  0  0  0  0999 V2000
   28.1895  -20.6367  -16.8170 N   0  0  0  0  0  0  0  0  0  0  0  0
   28.2227  -19.7666  -15.6893 C   0  0  1  0  0  0  0  0  0  0  0  0
   27.3401  -18.5547  -15.8342 C   0  0  0  0  0  0  0  0  0  0  0  0
   27.8193  -17.6577  -16.9108 C   0  0  0  0  0  0  0  0  0  0  0  0
   29.0336  -17.0310  -16.7167 C   0  0  0  0  0  0  0  0  0  0  0  0
   29.4913  -16.1993  -17.7003 C   0  0  0  0  0  0  0  0  0  0  0  0
   28.7529  -16.0065  -18.8369 C   0  0  0  0  0  0  0  0  0  0  0  0
   27.5446  -16.6394  -19.0136 C   0  0  0  0  0  0  0  0  0  0  0  0
   27.0531  -17.4891  -18.0344 C   0  0  0  0  0  0  0  0  0  0  0  0
   27.7037  -20.5415  -14.5032 C   0  0  0  0  0  0  0  0  0  0  0  0
   26.9207  -21.5170  -14.6661 O   0  0  0  0  0  0  0  0  0  0  0  0
   30.4918  -20.9272   -9.6281 C   0  0  0  0  0  0  0  0  0  0  0  0
   29.8320  -21.3698  -10.9815 C   0  0  1  0  0  0  0  0  0  0  0  0
   30.0204  -22.8458  -11.0653 C   0  0  0  0  0  0  0  0  0  0  0  0
   28.4768  -20.8242  -10.9261 C   0  0  0  0  0  0  0  0  0  0  0  0
   27.5158  -20.9697  -12.0408 C   0  0  2  0  0  0  0  0  0  0  0  0
   28.0796  -20.1965  -13.1827 N   0  0  0  0  0  0  0  0  0  0  0  0
   26.2073  -20.3686  -11.7897 C   0  0  0  0  0  0  0  0  0  0  0  0
   26.0746  -19.1611  -11.5041 O   0  0  0  0  0  0  0  0  0  0  0  0
   22.8865  -21.8591  -13.3905 O   0  0  0  0  0  0  0  0  0  0  0  0
   22.9196  -20.5491  -12.9717 C   0  0  0  0  0  0  0  0  0  0  0  0
   23.7366  -20.4897  -11.6946 C   0  0  2  0  0  0  0  0  0  0  0  0
   25.0237  -21.1346  -11.8595 N   0  0  0  0  0  0  0  0  0  0  0  0
   22.9717  -21.1425  -10.6106 C   0  0  0  0  0  0  0  0  0  0  0  0
   23.5090  -22.2134   -9.9307 O   0  0  0  0  0  0  0  0  0  0  0  0
   21.8316  -20.7259  -10.3045 O   0  0  0  0  0  0  0  0  0  0  0  0
  2  1  1  6
  3  2  1  0
  4  3  1  0
  5  4  2  0
  6  5  1  0
  7  6  2  0
  7  8  1  0
  8  9  2  0
  9  4  1  0
 10  2  1  0
 10 17  1  0
 11 10  2  0
 13 14  1  1
 13 12  1  0
 15 13  1  0
 16 15  1  1
 16 17  1  0
 18 16  1  0
 19 18  2  0
 20 21  1  0
 22 21  1  6
 22 24  1  0
 22 23  1  0
 23 18  1  0
 24 25  1  0
 26 24  2  0
M  END
$$$$
