FLS.pdb
     RDKit          3D

 26 26  0  0  1  0  0  0  0  0999 V2000
   18.8004  -12.2261  -16.5113 N   0  0  0  0  0  0  0  0  0  0  0  0
   19.7796  -11.5061  -17.2548 C   0  0  1  0  0  0  0  0  0  0  0  0
   19.2171  -10.3418  -18.0272 C   0  0  0  0  0  0  0  0  0  0  0  0
   18.3375  -10.7937  -19.1296 C   0  0  0  0  0  0  0  0  0  0  0  0
   17.6419   -9.8224  -19.8210 C   0  0  0  0  0  0  0  0  0  0  0  0
   16.8250  -10.2217  -20.8418 C   0  0  0  0  0  0  0  0  0  0  0  0
   16.7134  -11.5499  -21.1541 C   0  0  0  0  0  0  0  0  0  0  0  0
   17.4141  -12.5045  -20.4544 C   0  0  0  0  0  0  0  0  0  0  0  0
   18.2508  -12.1315  -19.4136 C   0  0  0  0  0  0  0  0  0  0  0  0
   20.7684  -10.9349  -16.2686 C   0  0  0  0  0  0  0  0  0  0  0  0
   20.5038  -10.9097  -15.0354 O   0  0  0  0  0  0  0  0  0  0  0  0
   25.3630  -10.4033  -13.9825 C   0  0  0  0  0  0  0  0  0  0  0  0
   25.4527   -9.6277  -15.3439 C   0  0  1  0  0  0  0  0  0  0  0  0
   26.8189   -9.8934  -15.8769 C   0  0  0  0  0  0  0  0  0  0  0  0
   24.2886  -10.0810  -16.1031 C   0  0  0  0  0  0  0  0  0  0  0  0
   22.9032   -9.7475  -15.7074 C   0  0  2  0  0  0  0  0  0  0  0  0
   22.0129  -10.4149  -16.6982 N   0  0  0  0  0  0  0  0  0  0  0  0
   22.5749   -8.3265  -15.8047 C   0  0  0  0  0  0  0  0  0  0  0  0
   22.9782   -7.4926  -14.9686 O   0  0  0  0  0  0  0  0  0  0  0  0
   20.8650   -4.6510  -18.3498 O   0  0  0  0  0  0  0  0  0  0  0  0
   21.0973   -6.0069  -18.3497 C   0  0  0  0  0  0  0  0  0  0  0  0
   21.4980   -6.4100  -16.9429 C   0  0  2  0  0  0  0  0  0  0  0  0
   21.7790   -7.8291  -16.8591 N   0  0  0  0  0  0  0  0  0  0  0  0
   20.4046   -6.0485  -16.0156 C   0  0  0  0  0  0  0  0  0  0  0  0
   20.4535   -4.8636  -15.3145 O   0  0  0  0  0  0  0  0  0  0  0  0
   19.4283   -6.8168  -15.8623 O   0  0  0  0  0  0  0  0  0  0  0  0
  2  1  1  1
  3  2  1  0
  4  3  1  0
  5  4  2  0
  6  5  1  0
  7  6  2  0
  7  8  1  0
  8  9  2  0
  9  4  1  0
 10  2  1  0
 10 17  1  0
 11 10  2  0
 13 14  1  6
 13 12  1  0
 15 13  1  0
 16 15  1  6
 16 17  1  0
 18 16  1  0
 19 18  2  0
 20 21  1  0
 22 21  1  6
 22 24  1  0
 22 23  1  0
 23 18  1  0
 24 25  1  0
 26 24  2  0
M  END
$$$$
