FLS.pdb
     RDKit          3D

 26 26  0  0  1  0  0  0  0  0999 V2000
   27.6248  -21.4011   -8.6275 N   0  0  0  0  0  0  0  0  0  0  0  0
   26.6251  -20.4290   -8.3352 C   0  0  1  0  0  0  0  0  0  0  0  0
   27.1773  -19.1396   -7.7865 C   0  0  0  0  0  0  0  0  0  0  0  0
   27.9003  -19.3554   -6.5122 C   0  0  0  0  0  0  0  0  0  0  0  0
   27.8645  -20.6255   -5.9732 C   0  0  0  0  0  0  0  0  0  0  0  0
   28.5265  -20.8428   -4.7971 C   0  0  0  0  0  0  0  0  0  0  0  0
   29.1994  -19.8185   -4.1871 C   0  0  0  0  0  0  0  0  0  0  0  0
   29.2246  -18.5587   -4.7385 C   0  0  0  0  0  0  0  0  0  0  0  0
   28.5630  -18.3063   -5.9305 C   0  0  0  0  0  0  0  0  0  0  0  0
   25.9321  -20.0872   -9.6312 C   0  0  0  0  0  0  0  0  0  0  0  0
   25.1989  -19.0642   -9.7170 O   0  0  0  0  0  0  0  0  0  0  0  0
   28.3790  -20.1425  -12.6106 C   0  0  0  0  0  0  0  0  0  0  0  0
   27.3489  -20.3713  -13.7723 C   0  0  1  0  0  0  0  0  0  0  0  0
   28.1097  -21.0335  -14.8694 C   0  0  0  0  0  0  0  0  0  0  0  0
   26.2369  -21.0822  -13.1434 C   0  0  0  0  0  0  0  0  0  0  0  0
   25.4309  -20.4908  -12.0536 C   0  0  2  0  0  0  0  0  0  0  0  0
   26.0853  -20.9007  -10.7795 N   0  0  0  0  0  0  0  0  0  0  0  0
   24.0687  -21.0127  -11.9610 C   0  0  0  0  0  0  0  0  0  0  0  0
   23.8286  -22.1829  -11.6000 O   0  0  0  0  0  0  0  0  0  0  0  0
   20.9583  -18.5472  -12.5253 O   0  0  0  0  0  0  0  0  0  0  0  0
   20.5848  -19.7100  -11.8921 C   0  0  0  0  0  0  0  0  0  0  0  0
   21.6187  -20.7709  -12.2200 C   0  0  2  0  0  0  0  0  0  0  0  0
   22.9530  -20.2088  -12.2793 N   0  0  0  0  0  0  0  0  0  0  0  0
   21.2669  -21.3929  -13.5145 C   0  0  0  0  0  0  0  0  0  0  0  0
   20.1294  -22.1620  -13.6276 O   0  0  0  0  0  0  0  0  0  0  0  0
   22.0002  -21.2244  -14.5148 O   0  0  0  0  0  0  0  0  0  0  0  0
  2  1  1  6
  3  2  1  0
  4  3  1  0
  5  4  2  0
  6  5  1  0
  7  6  2  0
  7  8  1  0
  8  9  2  0
  9  4  1  0
 10  2  1  0
 10 17  1  0
 11 10  2  0
 13 14  1  6
 13 12  1  0
 15 13  1  0
 16 15  1  6
 16 17  1  0
 18 16  1  0
 19 18  2  0
 20 21  1  0
 22 21  1  6
 22 24  1  0
 22 23  1  0
 23 18  1  0
 24 25  1  0
 26 24  2  0
M  END
$$$$
