FLS.pdb
     RDKit          3D

 26 26  0  0  1  0  0  0  0  0999 V2000
   21.5876   -6.7083  -13.0661 N   0  0  0  0  0  0  0  0  0  0  0  0
   21.1306   -6.7699  -14.4142 C   0  0  1  0  0  0  0  0  0  0  0  0
   22.0415   -6.0776  -15.3938 C   0  0  0  0  0  0  0  0  0  0  0  0
   21.9038   -4.6051  -15.3186 C   0  0  0  0  0  0  0  0  0  0  0  0
   22.8780   -3.9142  -14.6267 C   0  0  0  0  0  0  0  0  0  0  0  0
   22.7666   -2.5541  -14.5471 C   0  0  0  0  0  0  0  0  0  0  0  0
   21.7129   -1.9142  -15.1424 C   0  0  0  0  0  0  0  0  0  0  0  0
   20.7510   -2.6186  -15.8281 C   0  0  0  0  0  0  0  0  0  0  0  0
   20.8357   -3.9990  -15.9268 C   0  0  0  0  0  0  0  0  0  0  0  0
   21.0898   -8.2243  -14.8133 C   0  0  0  0  0  0  0  0  0  0  0  0
   21.8863   -9.0548  -14.2963 O   0  0  0  0  0  0  0  0  0  0  0  0
   17.4237  -12.4486  -16.1758 C   0  0  0  0  0  0  0  0  0  0  0  0
   18.7441  -12.1599  -15.3783 C   0  0  1  0  0  0  0  0  0  0  0  0
   19.7674  -13.0926  -15.9295 C   0  0  0  0  0  0  0  0  0  0  0  0
   18.9462  -10.7180  -15.5105 C   0  0  0  0  0  0  0  0  0  0  0  0
   20.1563  -10.1394  -16.1336 C   0  0  2  0  0  0  0  0  0  0  0  0
   20.1617   -8.6937  -15.7736 N   0  0  0  0  0  0  0  0  0  0  0  0
   20.1504  -10.1625  -17.5951 C   0  0  0  0  0  0  0  0  0  0  0  0
   19.2727   -9.5814  -18.2653 O   0  0  0  0  0  0  0  0  0  0  0  0
   22.8705  -12.3979  -19.6162 O   0  0  0  0  0  0  0  0  0  0  0  0
   22.4028  -11.3441  -20.3667 C   0  0  0  0  0  0  0  0  0  0  0  0
   21.0827  -10.8962  -19.7678 C   0  0  2  0  0  0  0  0  0  0  0  0
   21.1468  -10.8502  -18.3209 N   0  0  0  0  0  0  0  0  0  0  0  0
   20.0222  -11.8295  -20.2042 C   0  0  0  0  0  0  0  0  0  0  0  0
   19.5701  -12.8128  -19.3516 O   0  0  0  0  0  0  0  0  0  0  0  0
   19.5291  -11.7318  -21.3506 O   0  0  0  0  0  0  0  0  0  0  0  0
  2  1  1  1
  3  2  1  0
  4  3  1  0
  5  4  2  0
  6  5  1  0
  7  6  2  0
  7  8  1  0
  8  9  2  0
  9  4  1  0
 10  2  1  0
 10 17  1  0
 11 10  2  0
 13 14  1  6
 13 12  1  0
 15 13  1  0
 16 15  1  1
 16 17  1  0
 18 16  1  0
 19 18  2  0
 20 21  1  0
 22 21  1  6
 22 24  1  0
 22 23  1  0
 23 18  1  0
 24 25  1  0
 26 24  2  0
M  END
$$$$
