FLS.pdb
     RDKit          3D

 26 26  0  0  1  0  0  0  0  0999 V2000
   28.5244  -20.4282  -15.4165 N   0  0  0  0  0  0  0  0  0  0  0  0
   27.7091  -19.7054  -14.4984 C   0  0  1  0  0  0  0  0  0  0  0  0
   26.7672  -18.7343  -15.1607 C   0  0  0  0  0  0  0  0  0  0  0  0
   27.4917  -17.5738  -15.7276 C   0  0  0  0  0  0  0  0  0  0  0  0
   27.8692  -17.6511  -17.0530 C   0  0  0  0  0  0  0  0  0  0  0  0
   28.5390  -16.5887  -17.5928 C   0  0  0  0  0  0  0  0  0  0  0  0
   28.8178  -15.4896  -16.8258 C   0  0  0  0  0  0  0  0  0  0  0  0
   28.4339  -15.4295  -15.5064 C   0  0  0  0  0  0  0  0  0  0  0  0
   27.7531  -16.4908  -14.9296 C   0  0  0  0  0  0  0  0  0  0  0  0
   26.8529  -20.7084  -13.7653 C   0  0  0  0  0  0  0  0  0  0  0  0
   26.5269  -21.7968  -14.3134 O   0  0  0  0  0  0  0  0  0  0  0  0
   24.2434  -20.7712   -8.6648 C   0  0  0  0  0  0  0  0  0  0  0  0
   25.4925  -20.2951   -9.4869 C   0  0  1  0  0  0  0  0  0  0  0  0
   26.4970  -19.8460   -8.4818 C   0  0  0  0  0  0  0  0  0  0  0  0
   25.8105  -21.4238  -10.3601 C   0  0  0  0  0  0  0  0  0  0  0  0
   25.4754  -21.4326  -11.8005 C   0  0  2  0  0  0  0  0  0  0  0  0
   26.3947  -20.4563  -12.4498 N   0  0  0  0  0  0  0  0  0  0  0  0
   24.1320  -20.9459  -12.1090 C   0  0  0  0  0  0  0  0  0  0  0  0
   23.8033  -19.7534  -11.9444 O   0  0  0  0  0  0  0  0  0  0  0  0
   21.3072  -23.4299  -13.7579 O   0  0  0  0  0  0  0  0  0  0  0  0
   21.2539  -22.1128  -14.1513 C   0  0  0  0  0  0  0  0  0  0  0  0
   21.8638  -21.2720  -13.0454 C   0  0  2  0  0  0  0  0  0  0  0  0
   23.1367  -21.8115  -12.6115 N   0  0  0  0  0  0  0  0  0  0  0  0
   20.9164  -21.2192  -11.9115 C   0  0  0  0  0  0  0  0  0  0  0  0
   19.6601  -20.6802  -12.0823 O   0  0  0  0  0  0  0  0  0  0  0  0
   21.2502  -21.6638  -10.7899 O   0  0  0  0  0  0  0  0  0  0  0  0
  2  1  1  6
  3  2  1  0
  4  3  1  0
  5  4  2  0
  6  5  1  0
  7  6  2  0
  7  8  1  0
  8  9  2  0
  9  4  1  0
 10  2  1  0
 10 17  1  0
 11 10  2  0
 13 14  1  1
 13 12  1  0
 15 13  1  0
 16 15  1  1
 16 17  1  0
 18 16  1  0
 19 18  2  0
 20 21  1  0
 22 21  1  6
 22 24  1  0
 22 23  1  0
 23 18  1  0
 24 25  1  0
 26 24  2  0
M  END
$$$$
