FLS.pdb
     RDKit          3D

 26 26  0  0  1  0  0  0  0  0999 V2000
   27.1264  -21.0073  -14.2104 N   0  0  0  0  0  0  0  0  0  0  0  0
   26.1477  -20.2587  -13.4951 C   0  0  1  0  0  0  0  0  0  0  0  0
   24.7870  -20.2693  -14.1410 C   0  0  0  0  0  0  0  0  0  0  0  0
   24.8050  -19.5958  -15.4598 C   0  0  0  0  0  0  0  0  0  0  0  0
   25.0136  -18.2315  -15.4692 C   0  0  0  0  0  0  0  0  0  0  0  0
   25.0332  -17.5932  -16.6779 C   0  0  0  0  0  0  0  0  0  0  0  0
   24.8495  -18.3034  -17.8338 C   0  0  0  0  0  0  0  0  0  0  0  0
   24.6427  -19.6629  -17.8058 C   0  0  0  0  0  0  0  0  0  0  0  0
   24.6174  -20.3392  -16.5957 C   0  0  0  0  0  0  0  0  0  0  0  0
   25.9886  -20.8997  -12.1385 C   0  0  0  0  0  0  0  0  0  0  0  0
   26.2450  -22.1237  -11.9725 O   0  0  0  0  0  0  0  0  0  0  0  0
   27.3662  -18.7660   -7.2167 C   0  0  0  0  0  0  0  0  0  0  0  0
   27.2861  -19.8302   -8.3674 C   0  0  1  0  0  0  0  0  0  0  0  0
   28.0101  -21.0318   -7.8647 C   0  0  0  0  0  0  0  0  0  0  0  0
   25.8608  -19.9318   -8.6763 C   0  0  0  0  0  0  0  0  0  0  0  0
   25.3368  -20.8402   -9.7191 C   0  0  2  0  0  0  0  0  0  0  0  0
   25.5497  -20.1489  -11.0216 N   0  0  0  0  0  0  0  0  0  0  0  0
   23.8952  -21.0708   -9.6475 C   0  0  0  0  0  0  0  0  0  0  0  0
   23.3523  -21.5770   -8.6444 O   0  0  0  0  0  0  0  0  0  0  0  0
   20.9592  -18.6945  -10.7827 O   0  0  0  0  0  0  0  0  0  0  0  0
   20.8392  -19.9119  -11.4119 C   0  0  0  0  0  0  0  0  0  0  0  0
   21.6148  -20.9331  -10.6010 C   0  0  2  0  0  0  0  0  0  0  0  0
   23.0443  -20.7280  -10.7204 N   0  0  0  0  0  0  0  0  0  0  0  0
   21.2507  -22.2874  -11.0696 C   0  0  0  0  0  0  0  0  0  0  0  0
   20.3172  -23.0312  -10.3816 O   0  0  0  0  0  0  0  0  0  0  0  0
   21.7883  -22.7658  -12.0938 O   0  0  0  0  0  0  0  0  0  0  0  0
  2  1  1  6
  3  2  1  0
  4  3  1  0
  5  4  2  0
  6  5  1  0
  7  6  2  0
  7  8  1  0
  8  9  2  0
  9  4  1  0
 10  2  1  0
 10 17  1  0
 11 10  2  0
 13 14  1  1
 13 12  1  0
 15 13  1  0
 16 15  1  1
 16 17  1  0
 18 16  1  0
 19 18  2  0
 20 21  1  0
 22 21  1  6
 22 24  1  0
 22 23  1  0
 23 18  1  0
 24 25  1  0
 26 24  2  0
M  END
$$$$
