FLS.pdb
     RDKit          3D

 26 26  0  0  1  0  0  0  0  0999 V2000
   28.0570  -20.3141  -10.1576 N   0  0  0  0  0  0  0  0  0  0  0  0
   26.7946  -20.8526   -9.7752 C   0  0  1  0  0  0  0  0  0  0  0  0
   26.1625  -20.1418   -8.6073 C   0  0  0  0  0  0  0  0  0  0  0  0
   27.1016  -20.0246   -7.4682 C   0  0  0  0  0  0  0  0  0  0  0  0
   27.4707  -18.7518   -7.0826 C   0  0  0  0  0  0  0  0  0  0  0  0
   28.3371  -18.6248   -6.0328 C   0  0  0  0  0  0  0  0  0  0  0  0
   28.8135  -19.7389   -5.3955 C   0  0  0  0  0  0  0  0  0  0  0  0
   28.4349  -20.9999   -5.7932 C   0  0  0  0  0  0  0  0  0  0  0  0
   27.5576  -21.1620   -6.8546 C   0  0  0  0  0  0  0  0  0  0  0  0
   25.8564  -20.6838  -10.9448 C   0  0  0  0  0  0  0  0  0  0  0  0
   25.6971  -19.5538  -11.4824 O   0  0  0  0  0  0  0  0  0  0  0  0
   26.8132  -23.1721  -15.2755 C   0  0  0  0  0  0  0  0  0  0  0  0
   26.2768  -21.9302  -14.4799 C   0  0  1  0  0  0  0  0  0  0  0  0
   26.0937  -20.8470  -15.4870 C   0  0  0  0  0  0  0  0  0  0  0  0
   25.1131  -22.4338  -13.7523 C   0  0  0  0  0  0  0  0  0  0  0  0
   24.3911  -21.6218  -12.7491 C   0  0  2  0  0  0  0  0  0  0  0  0
   25.1337  -21.7830  -11.4675 N   0  0  0  0  0  0  0  0  0  0  0  0
   23.0364  -22.0879  -12.4594 C   0  0  0  0  0  0  0  0  0  0  0  0
   22.7973  -23.2641  -12.1176 O   0  0  0  0  0  0  0  0  0  0  0  0
   19.8875  -19.5243  -11.9601 O   0  0  0  0  0  0  0  0  0  0  0  0
   19.7951  -20.7884  -11.4253 C   0  0  0  0  0  0  0  0  0  0  0  0
   20.5917  -21.7276  -12.3114 C   0  0  2  0  0  0  0  0  0  0  0  0
   21.9271  -21.2202  -12.5545 N   0  0  0  0  0  0  0  0  0  0  0  0
   19.8692  -21.9017  -13.5896 C   0  0  0  0  0  0  0  0  0  0  0  0
   20.4323  -21.4661  -14.7691 O   0  0  0  0  0  0  0  0  0  0  0  0
   18.7420  -22.4458  -13.6076 O   0  0  0  0  0  0  0  0  0  0  0  0
  2  1  1  6
  3  2  1  0
  4  3  1  0
  5  4  2  0
  6  5  1  0
  7  6  2  0
  7  8  1  0
  8  9  2  0
  9  4  1  0
 10  2  1  0
 10 17  1  0
 11 10  2  0
 13 14  1  6
 13 12  1  0
 15 13  1  0
 16 15  1  6
 16 17  1  0
 18 16  1  0
 19 18  2  0
 20 21  1  0
 22 21  1  1
 22 24  1  0
 22 23  1  0
 23 18  1  0
 24 25  1  0
 26 24  2  0
M  END
$$$$
