FLS.pdb
     RDKit          3D

 26 26  0  0  1  0  0  0  0  0999 V2000
   21.0977  -11.1620  -19.8269 N   0  0  0  0  0  0  0  0  0  0  0  0
   21.5418   -9.8172  -19.6712 C   0  0  1  0  0  0  0  0  0  0  0  0
   20.6095   -8.7988  -20.2731 C   0  0  0  0  0  0  0  0  0  0  0  0
   20.6500   -8.8311  -21.7531 C   0  0  0  0  0  0  0  0  0  0  0  0
   19.5902   -9.4332  -22.4008 C   0  0  0  0  0  0  0  0  0  0  0  0
   19.6111   -9.4721  -23.7671 C   0  0  0  0  0  0  0  0  0  0  0  0
   20.6607   -8.9248  -24.4548 C   0  0  0  0  0  0  0  0  0  0  0  0
   21.7087   -8.3286  -23.7930 C   0  0  0  0  0  0  0  0  0  0  0  0
   21.7169   -8.2731  -22.4076 C   0  0  0  0  0  0  0  0  0  0  0  0
   21.6027   -9.5281  -18.1916 C   0  0  0  0  0  0  0  0  0  0  0  0
   20.7489  -10.0219  -17.4050 O   0  0  0  0  0  0  0  0  0  0  0  0
   26.0747  -10.3303  -15.6297 C   0  0  0  0  0  0  0  0  0  0  0  0
   24.5154  -10.3818  -15.7998 C   0  0  1  0  0  0  0  0  0  0  0  0
   24.0150  -11.2765  -14.7181 C   0  0  0  0  0  0  0  0  0  0  0  0
   24.1006   -8.9800  -15.8171 C   0  0  0  0  0  0  0  0  0  0  0  0
   22.7263   -8.5627  -16.1697 C   0  0  2  0  0  0  0  0  0  0  0  0
   22.6142   -8.6995  -17.6490 N   0  0  0  0  0  0  0  0  0  0  0  0
   22.4365   -7.1557  -15.8996 C   0  0  0  0  0  0  0  0  0  0  0  0
   22.9273   -6.2334  -16.5821 O   0  0  0  0  0  0  0  0  0  0  0  0
   19.8458   -3.8340  -13.6165 O   0  0  0  0  0  0  0  0  0  0  0  0
   20.0293   -5.1838  -13.8084 C   0  0  0  0  0  0  0  0  0  0  0  0
   21.3009   -5.3704  -14.6146 C   0  0  2  0  0  0  0  0  0  0  0  0
   21.5806   -6.7735  -14.8443 N   0  0  0  0  0  0  0  0  0  0  0  0
   22.4216   -4.7369  -13.8874 C   0  0  0  0  0  0  0  0  0  0  0  0
   22.7457   -3.4192  -14.1252 O   0  0  0  0  0  0  0  0  0  0  0  0
   23.0823   -5.3941  -13.0515 O   0  0  0  0  0  0  0  0  0  0  0  0
  2  1  1  1
  3  2  1  0
  4  3  1  0
  5  4  2  0
  6  5  1  0
  7  6  2  0
  7  8  1  0
  8  9  2  0
  9  4  1  0
 10  2  1  0
 10 17  1  0
 11 10  2  0
 13 14  1  1
 13 12  1  0
 15 13  1  0
 16 15  1  6
 16 17  1  0
 18 16  1  0
 19 18  2  0
 20 21  1  0
 22 21  1  1
 22 24  1  0
 22 23  1  0
 23 18  1  0
 24 25  1  0
 26 24  2  0
M  END
$$$$
