FLS.pdb
     RDKit          3D

 26 26  0  0  1  0  0  0  0  0999 V2000
   26.8759  -19.3338  -17.7955 N   0  0  0  0  0  0  0  0  0  0  0  0
   26.4263  -18.5703  -16.6798 C   0  0  1  0  0  0  0  0  0  0  0  0
   25.4314  -17.4988  -17.0416 C   0  0  0  0  0  0  0  0  0  0  0  0
   26.0511  -16.4365  -17.8665 C   0  0  0  0  0  0  0  0  0  0  0  0
   25.6674  -16.3603  -19.1901 C   0  0  0  0  0  0  0  0  0  0  0  0
   26.2295  -15.3855  -19.9665 C   0  0  0  0  0  0  0  0  0  0  0  0
   27.1439  -14.5200  -19.4289 C   0  0  0  0  0  0  0  0  0  0  0  0
   27.5147  -14.6105  -18.1076 C   0  0  0  0  0  0  0  0  0  0  0  0
   26.9627  -15.5883  -17.2941 C   0  0  0  0  0  0  0  0  0  0  0  0
   25.7223  -19.5153  -15.7376 C   0  0  0  0  0  0  0  0  0  0  0  0
   25.1772  -20.5670  -16.1713 O   0  0  0  0  0  0  0  0  0  0  0  0
   25.7831  -22.2780  -11.1985 C   0  0  0  0  0  0  0  0  0  0  0  0
   25.2631  -20.8208  -10.9353 C   0  0  1  0  0  0  0  0  0  0  0  0
   25.7975  -20.4305   -9.6000 C   0  0  0  0  0  0  0  0  0  0  0  0
   25.6722  -20.0648  -12.1178 C   0  0  0  0  0  0  0  0  0  0  0  0
   25.0454  -20.2621  -13.4427 C   0  0  2  0  0  0  0  0  0  0  0  0
   25.6549  -19.2487  -14.3490 N   0  0  0  0  0  0  0  0  0  0  0  0
   23.6110  -19.9827  -13.4776 C   0  0  0  0  0  0  0  0  0  0  0  0
   23.1488  -18.8495  -13.2339 O   0  0  0  0  0  0  0  0  0  0  0  0
   21.0514  -22.4819  -15.3408 O   0  0  0  0  0  0  0  0  0  0  0  0
   20.6618  -21.1728  -15.1767 C   0  0  0  0  0  0  0  0  0  0  0  0
   21.2662  -20.6667  -13.8804 C   0  0  2  0  0  0  0  0  0  0  0  0
   22.6755  -20.9920  -13.7913 N   0  0  0  0  0  0  0  0  0  0  0  0
   20.5294  -21.2658  -12.7471 C   0  0  0  0  0  0  0  0  0  0  0  0
   19.2052  -20.9495  -12.5363 O   0  0  0  0  0  0  0  0  0  0  0  0
   21.1044  -22.0638  -11.9727 O   0  0  0  0  0  0  0  0  0  0  0  0
  2  1  1  6
  3  2  1  0
  4  3  1  0
  5  4  2  0
  6  5  1  0
  7  6  2  0
  7  8  1  0
  8  9  2  0
  9  4  1  0
 10  2  1  0
 10 17  1  0
 11 10  2  0
 13 14  1  1
 13 12  1  0
 15 13  1  0
 16 15  1  1
 16 17  1  0
 18 16  1  0
 19 18  2  0
 20 21  1  0
 22 21  1  6
 22 24  1  0
 22 23  1  0
 23 18  1  0
 24 25  1  0
 26 24  2  0
M  END
$$$$
