FLS.pdb
     RDKit          3D

 26 26  0  0  1  0  0  0  0  0999 V2000
   20.1164  -11.8712  -19.6085 N   0  0  0  0  0  0  0  0  0  0  0  0
   20.9701  -10.7451  -19.7907 C   0  0  1  0  0  0  0  0  0  0  0  0
   20.2558   -9.5208  -20.3001 C   0  0  0  0  0  0  0  0  0  0  0  0
   19.7677   -9.7120  -21.6852 C   0  0  0  0  0  0  0  0  0  0  0  0
   18.4470  -10.0802  -21.8440 C   0  0  0  0  0  0  0  0  0  0  0  0
   17.9794  -10.2611  -23.1158 C   0  0  0  0  0  0  0  0  0  0  0  0
   18.8116  -10.0778  -24.1872 C   0  0  0  0  0  0  0  0  0  0  0  0
   20.1253   -9.7107  -24.0104 C   0  0  0  0  0  0  0  0  0  0  0  0
   20.6296   -9.5195  -22.7331 C   0  0  0  0  0  0  0  0  0  0  0  0
   21.5396  -10.3845  -18.4408 C   0  0  0  0  0  0  0  0  0  0  0  0
   20.8619  -10.5574  -17.3909 O   0  0  0  0  0  0  0  0  0  0  0  0
   24.9444  -10.4697  -14.5655 C   0  0  0  0  0  0  0  0  0  0  0  0
   25.6247   -9.7182  -15.7636 C   0  0  1  0  0  0  0  0  0  0  0  0
   27.0342  -10.2009  -15.8021 C   0  0  0  0  0  0  0  0  0  0  0  0
   24.7492   -9.9772  -16.9054 C   0  0  0  0  0  0  0  0  0  0  0  0
   23.3553   -9.4864  -16.9647 C   0  0  2  0  0  0  0  0  0  0  0  0
   22.8426   -9.8454  -18.3167 N   0  0  0  0  0  0  0  0  0  0  0  0
   23.2252   -8.0326  -16.8876 C   0  0  0  0  0  0  0  0  0  0  0  0
   23.7295   -7.2742  -17.7407 O   0  0  0  0  0  0  0  0  0  0  0  0
   20.0568   -6.2712  -15.5004 O   0  0  0  0  0  0  0  0  0  0  0  0
   20.9622   -5.5695  -16.2622 C   0  0  0  0  0  0  0  0  0  0  0  0
   22.3556   -5.9753  -15.8200 C   0  0  2  0  0  0  0  0  0  0  0  0
   22.5167   -7.4153  -15.8342 N   0  0  0  0  0  0  0  0  0  0  0  0
   22.5953   -5.4464  -14.4602 C   0  0  0  0  0  0  0  0  0  0  0  0
   22.5884   -4.0875  -14.2338 O   0  0  0  0  0  0  0  0  0  0  0  0
   22.8057   -6.2301  -13.5070 O   0  0  0  0  0  0  0  0  0  0  0  0
  2  1  1  1
  3  2  1  0
  4  3  1  0
  5  4  2  0
  6  5  1  0
  7  6  2  0
  7  8  1  0
  8  9  2  0
  9  4  1  0
 10  2  1  0
 10 17  1  0
 11 10  2  0
 13 14  1  6
 13 12  1  0
 15 13  1  0
 16 15  1  6
 16 17  1  0
 18 16  1  0
 19 18  2  0
 20 21  1  0
 22 21  1  1
 22 24  1  0
 22 23  1  0
 23 18  1  0
 24 25  1  0
 26 24  2  0
M  END
$$$$
