FLS.pdb
     RDKit          3D

 26 26  0  0  1  0  0  0  0  0999 V2000
   22.2606  -21.2050  -16.6375 N   0  0  0  0  0  0  0  0  0  0  0  0
   22.6165  -20.1241  -15.7803 C   0  0  1  0  0  0  0  0  0  0  0  0
   21.4761  -19.6227  -14.9337 C   0  0  0  0  0  0  0  0  0  0  0  0
   20.5078  -18.8383  -15.7339 C   0  0  0  0  0  0  0  0  0  0  0  0
   19.3295  -19.4631  -16.0891 C   0  0  0  0  0  0  0  0  0  0  0  0
   18.4241  -18.7537  -16.8280 C   0  0  0  0  0  0  0  0  0  0  0  0
   18.6961  -17.4632  -17.1950 C   0  0  0  0  0  0  0  0  0  0  0  0
   19.8757  -16.8561  -16.8321 C   0  0  0  0  0  0  0  0  0  0  0  0
   20.8143  -17.5490  -16.0828 C   0  0  0  0  0  0  0  0  0  0  0  0
   23.6734  -20.6288  -14.8290 C   0  0  0  0  0  0  0  0  0  0  0  0
   23.6051  -21.7952  -14.3533 O   0  0  0  0  0  0  0  0  0  0  0  0
   29.0604  -19.3915  -15.4504 C   0  0  0  0  0  0  0  0  0  0  0  0
   27.7510  -20.2506  -15.3494 C   0  0  1  0  0  0  0  0  0  0  0  0
   28.1822  -21.6711  -15.4814 C   0  0  0  0  0  0  0  0  0  0  0  0
   27.1157  -19.8089  -14.1090 C   0  0  0  0  0  0  0  0  0  0  0  0
   25.8518  -20.3940  -13.6118 C   0  0  2  0  0  0  0  0  0  0  0  0
   24.7641  -19.8114  -14.4467 N   0  0  0  0  0  0  0  0  0  0  0  0
   25.5138  -20.0195  -12.2399 C   0  0  0  0  0  0  0  0  0  0  0  0
   25.3542  -18.8306  -11.8959 O   0  0  0  0  0  0  0  0  0  0  0  0
   22.8623  -21.1789   -9.9595 O   0  0  0  0  0  0  0  0  0  0  0  0
   24.0052  -21.3876   -9.2228 C   0  0  0  0  0  0  0  0  0  0  0  0
   25.1234  -20.5856   -9.8618 C   0  0  2  0  0  0  0  0  0  0  0  0
   25.3515  -20.9952  -11.2329 N   0  0  0  0  0  0  0  0  0  0  0  0
   26.3538  -20.7655   -9.0619 C   0  0  0  0  0  0  0  0  0  0  0  0
   26.3828  -20.3823   -7.7389 O   0  0  0  0  0  0  0  0  0  0  0  0
   27.3761  -21.2668   -9.5820 O   0  0  0  0  0  0  0  0  0  0  0  0
  2  1  1  6
  3  2  1  0
  4  3  1  0
  5  4  2  0
  6  5  1  0
  7  6  2  0
  7  8  1  0
  8  9  2  0
  9  4  1  0
 10  2  1  0
 10 17  1  0
 11 10  2  0
 13 14  1  1
 13 12  1  0
 15 13  1  0
 16 15  1  6
 16 17  1  0
 18 16  1  0
 19 18  2  0
 20 21  1  0
 22 21  1  1
 22 24  1  0
 22 23  1  0
 23 18  1  0
 24 25  1  0
 26 24  2  0
M  END
$$$$
