FLS.pdb
     RDKit          3D

 26 26  0  0  1  0  0  0  0  0999 V2000
   26.9003  -35.6503   -7.2865 N   0  0  0  0  0  0  0  0  0  0  0  0
   27.7348  -34.5822   -6.8476 C   0  0  1  0  0  0  0  0  0  0  0  0
   26.9719  -33.4015   -6.3067 C   0  0  0  0  0  0  0  0  0  0  0  0
   26.2048  -32.7149   -7.3713 C   0  0  0  0  0  0  0  0  0  0  0  0
   26.8927  -32.3528   -8.5118 C   0  0  0  0  0  0  0  0  0  0  0  0
   26.2002  -31.7180   -9.5049 C   0  0  0  0  0  0  0  0  0  0  0  0
   24.8646  -31.4578   -9.3542 C   0  0  0  0  0  0  0  0  0  0  0  0
   24.1950  -31.8258   -8.2106 C   0  0  0  0  0  0  0  0  0  0  0  0
   24.8692  -32.4712   -7.1853 C   0  0  0  0  0  0  0  0  0  0  0  0
   28.5834  -35.1057   -5.7151 C   0  0  0  0  0  0  0  0  0  0  0  0
   28.2872  -36.1874   -5.1375 O   0  0  0  0  0  0  0  0  0  0  0  0
   34.1328  -34.0081   -5.0332 C   0  0  0  0  0  0  0  0  0  0  0  0
   32.9127  -34.9912   -5.1211 C   0  0  1  0  0  0  0  0  0  0  0  0
   33.4444  -36.3364   -4.7622 C   0  0  0  0  0  0  0  0  0  0  0  0
   31.8862  -34.3802   -4.2784 C   0  0  0  0  0  0  0  0  0  0  0  0
   30.5282  -34.9497   -4.1417 C   0  0  2  0  0  0  0  0  0  0  0  0
   29.7286  -34.4010   -5.2727 N   0  0  0  0  0  0  0  0  0  0  0  0
   29.8160  -34.5257   -2.9377 C   0  0  0  0  0  0  0  0  0  0  0  0
   29.2620  -33.4108   -2.8515 O   0  0  0  0  0  0  0  0  0  0  0  0
   26.8089  -34.9716    0.3079 O   0  0  0  0  0  0  0  0  0  0  0  0
   27.5475  -35.5575   -0.6939 C   0  0  0  0  0  0  0  0  0  0  0  0
   28.9377  -34.9505   -0.6626 C   0  0  2  0  0  0  0  0  0  0  0  0
   29.7224  -35.3662   -1.8077 N   0  0  0  0  0  0  0  0  0  0  0  0
   29.6059  -35.3583    0.5917 C   0  0  0  0  0  0  0  0  0  0  0  0
   29.1510  -34.8880    1.8041 O   0  0  0  0  0  0  0  0  0  0  0  0
   30.5884  -36.1332    0.5594 O   0  0  0  0  0  0  0  0  0  0  0  0
  2  1  1  1
  3  2  1  0
  4  3  1  0
  5  4  2  0
  6  5  1  0
  7  6  2  0
  7  8  1  0
  8  9  2  0
  9  4  1  0
 10  2  1  0
 10 17  1  0
 11 10  2  0
 13 14  1  1
 13 12  1  0
 15 13  1  0
 16 15  1  1
 16 17  1  0
 18 16  1  0
 19 18  2  0
 20 21  1  0
 22 21  1  6
 22 24  1  0
 22 23  1  0
 23 18  1  0
 24 25  1  0
 26 24  2  0
M  END
$$$$
