CDE.pdb
     RDKit          3D

 24 23  0  0  1  0  0  0  0  0999 V2000
   27.2505  -20.9145  -10.9362 N   0  0  0  0  0  0  0  0  0  0  0  0
   25.9436  -21.3033  -11.4508 C   0  0  1  0  0  0  0  0  0  0  0  0
   24.9291  -20.8385  -10.4069 C   0  0  0  0  0  0  0  0  0  0  0  0
   25.2857  -21.5444   -8.7887 S   0  0  0  0  0  0  0  0  0  0  0  0
   25.7107  -20.5394  -12.7028 C   0  0  0  0  0  0  0  0  0  0  0  0
   26.3733  -19.4824  -12.9730 O   0  0  0  0  0  0  0  0  0  0  0  0
   24.7522  -20.9114  -13.6842 N   0  0  0  0  0  0  0  0  0  0  0  0
   24.7341  -20.3689  -15.0332 C   0  0  1  0  0  0  0  0  0  0  0  0
   25.9829  -20.7562  -15.7909 C   0  0  0  0  0  0  0  0  0  0  0  0
   26.0576  -20.1651  -17.1214 C   0  0  0  0  0  0  0  0  0  0  0  0
   26.1952  -18.9346  -17.2643 O   0  0  0  0  0  0  0  0  0  0  0  0
   23.5284  -20.8189  -15.7770 C   0  0  0  0  0  0  0  0  0  0  0  0
   23.3163  -22.0179  -16.0784 O   0  0  0  0  0  0  0  0  0  0  0  0
   25.9715  -21.0099  -18.2349 O   0  0  0  0  0  0  0  0  0  0  0  0
   22.5164  -19.8945  -16.2030 N   0  0  0  0  0  0  0  0  0  0  0  0
   21.1294  -19.9734  -15.7663 C   0  0  1  0  0  0  0  0  0  0  0  0
   20.9508  -20.0825  -14.2970 C   0  0  0  0  0  0  0  0  0  0  0  0
   19.5619  -20.1097  -13.7780 C   0  0  0  0  0  0  0  0  0  0  0  0
   19.4277  -20.2475  -12.3230 C   0  0  0  0  0  0  0  0  0  0  0  0
   19.0018  -19.2989  -11.6380 O   0  0  0  0  0  0  0  0  0  0  0  0
   20.3224  -18.9115  -16.4187 C   0  0  0  0  0  0  0  0  0  0  0  0
   19.2050  -19.1633  -16.9483 O   0  0  0  0  0  0  0  0  0  0  0  0
   19.7730  -21.4298  -11.7061 O   0  0  0  0  0  0  0  0  0  0  0  0
   20.7610  -17.5970  -16.4747 O   0  0  0  0  0  0  0  0  0  0  0  0
  2  1  1  1
  3  2  1  0
  4  3  1  0
  5  7  1  0
  5  2  1  0
  6  5  2  0
  8  7  1  0
  8 12  1  0
  8  9  1  6
 10  9  1  0
 11 10  2  0
 12 15  1  0
 13 12  2  0
 14 10  1  0
 15 16  1  0
 16 21  1  0
 16 17  1  1
 18 17  1  0
 19 18  1  0
 20 19  2  0
 21 24  1  0
 22 21  2  0
 23 19  1  0
M  END
$$$$
