CDE.pdb
     RDKit          3D

 24 23  0  0  1  0  0  0  0  0999 V2000
   16.5427  -11.0627  -16.6010 N   0  0  0  0  0  0  0  0  0  0  0  0
   16.4193  -10.5509  -15.2420 C   0  0  1  0  0  0  0  0  0  0  0  0
   16.0805  -11.7594  -14.3703 C   0  0  0  0  0  0  0  0  0  0  0  0
   14.6290  -12.6268  -14.9907 S   0  0  0  0  0  0  0  0  0  0  0  0
   17.7521  -10.0384  -14.8343 C   0  0  0  0  0  0  0  0  0  0  0  0
   17.9936   -9.6899  -13.6303 O   0  0  0  0  0  0  0  0  0  0  0  0
   18.8471   -9.8955  -15.7292 N   0  0  0  0  0  0  0  0  0  0  0  0
   20.1454   -9.3760  -15.3308 C   0  0  1  0  0  0  0  0  0  0  0  0
   21.2611  -10.0768  -16.0709 C   0  0  0  0  0  0  0  0  0  0  0  0
   22.5868   -9.5831  -15.7192 C   0  0  0  0  0  0  0  0  0  0  0  0
   23.1447   -8.7092  -16.4110 O   0  0  0  0  0  0  0  0  0  0  0  0
   20.2292   -7.9091  -15.5561 C   0  0  0  0  0  0  0  0  0  0  0  0
   19.7330   -7.3396  -16.5576 O   0  0  0  0  0  0  0  0  0  0  0  0
   23.2194  -10.1120  -14.5874 O   0  0  0  0  0  0  0  0  0  0  0  0
   20.8936   -7.0401  -14.6269 N   0  0  0  0  0  0  0  0  0  0  0  0
   20.8817   -5.5886  -14.7441 C   0  0  1  0  0  0  0  0  0  0  0  0
   19.5268   -4.9840  -14.7808 C   0  0  0  0  0  0  0  0  0  0  0  0
   19.4385   -3.5039  -14.7565 C   0  0  0  0  0  0  0  0  0  0  0  0
   18.0813   -2.9458  -14.7812 C   0  0  0  0  0  0  0  0  0  0  0  0
   17.5714   -2.4858  -13.7425 O   0  0  0  0  0  0  0  0  0  0  0  0
   21.8112   -4.9842  -13.7565 C   0  0  0  0  0  0  0  0  0  0  0  0
   22.3710   -5.6804  -12.8651 O   0  0  0  0  0  0  0  0  0  0  0  0
   17.3629   -2.9277  -15.9563 O   0  0  0  0  0  0  0  0  0  0  0  0
   22.1047   -3.6289  -13.7703 O   0  0  0  0  0  0  0  0  0  0  0  0
  2  1  1  6
  3  2  1  0
  4  3  1  0
  5  7  1  0
  5  2  1  0
  6  5  2  0
  8  7  1  0
  8 12  1  0
  8  9  1  6
 10  9  1  0
 11 10  2  0
 12 15  1  0
 13 12  2  0
 14 10  1  0
 15 16  1  0
 16 21  1  0
 16 17  1  1
 18 17  1  0
 19 18  1  0
 20 19  2  0
 21 24  1  0
 22 21  2  0
 23 19  1  0
M  END
$$$$
