CDE.pdb
     RDKit          3D

 24 23  0  0  1  0  0  0  0  0999 V2000
   18.5246  -12.6300  -17.7998 N   0  0  0  0  0  0  0  0  0  0  0  0
   18.8614  -12.2852  -16.4245 C   0  0  1  0  0  0  0  0  0  0  0  0
   20.2157  -12.9376  -16.1505 C   0  0  0  0  0  0  0  0  0  0  0  0
   20.0337  -14.6902  -15.7769 S   0  0  0  0  0  0  0  0  0  0  0  0
   19.0305  -10.8112  -16.3615 C   0  0  0  0  0  0  0  0  0  0  0  0
   19.5866  -10.1619  -17.3094 O   0  0  0  0  0  0  0  0  0  0  0  0
   18.5975  -10.0160  -15.2659 N   0  0  0  0  0  0  0  0  0  0  0  0
   18.6193   -8.5621  -15.2724 C   0  0  1  0  0  0  0  0  0  0  0  0
   17.4806   -7.9983  -14.4545 C   0  0  0  0  0  0  0  0  0  0  0  0
   16.1734   -8.2026  -15.0666 C   0  0  0  0  0  0  0  0  0  0  0  0
   16.0336   -8.1423  -16.3037 O   0  0  0  0  0  0  0  0  0  0  0  0
   19.9159   -8.0420  -14.7646 C   0  0  0  0  0  0  0  0  0  0  0  0
   20.4976   -8.5143  -13.7586 O   0  0  0  0  0  0  0  0  0  0  0  0
   15.0789   -8.4680  -14.2345 O   0  0  0  0  0  0  0  0  0  0  0  0
   20.5930   -6.9499  -15.4042 N   0  0  0  0  0  0  0  0  0  0  0  0
   21.9243   -6.5022  -15.0199 C   0  0  1  0  0  0  0  0  0  0  0  0
   22.8650   -6.3207  -16.1534 C   0  0  0  0  0  0  0  0  0  0  0  0
   24.2245   -5.8187  -15.8389 C   0  0  0  0  0  0  0  0  0  0  0  0
   25.1005   -5.5852  -16.9931 C   0  0  0  0  0  0  0  0  0  0  0  0
   26.2554   -5.1499  -16.8282 O   0  0  0  0  0  0  0  0  0  0  0  0
   21.8315   -5.3473  -14.0912 C   0  0  0  0  0  0  0  0  0  0  0  0
   20.9360   -4.4675  -14.2197 O   0  0  0  0  0  0  0  0  0  0  0  0
   24.6486   -5.8470  -18.2677 O   0  0  0  0  0  0  0  0  0  0  0  0
   22.7244   -5.1849  -13.0426 O   0  0  0  0  0  0  0  0  0  0  0  0
  2  1  1  6
  3  2  1  0
  4  3  1  0
  5  7  1  0
  5  2  1  0
  6  5  2  0
  8  7  1  0
  8 12  1  0
  8  9  1  1
 10  9  1  0
 11 10  2  0
 12 15  1  0
 13 12  2  0
 14 10  1  0
 15 16  1  0
 16 21  1  0
 16 17  1  6
 18 17  1  0
 19 18  1  0
 20 19  2  0
 21 24  1  0
 22 21  2  0
 23 19  1  0
M  END
$$$$
