CDE.pdb
     RDKit          3D

 24 23  0  0  1  0  0  0  0  0999 V2000
   16.7873  -11.9003  -14.8938 N   0  0  0  0  0  0  0  0  0  0  0  0
   17.2627  -10.9706  -15.9105 C   0  0  1  0  0  0  0  0  0  0  0  0
   16.2547   -9.8223  -15.9298 C   0  0  0  0  0  0  0  0  0  0  0  0
   14.7419  -10.2944  -16.7857 S   0  0  0  0  0  0  0  0  0  0  0  0
   18.5709  -10.4376  -15.4526 C   0  0  0  0  0  0  0  0  0  0  0  0
   18.7087   -9.9056  -14.3005 O   0  0  0  0  0  0  0  0  0  0  0  0
   19.7538  -10.4736  -16.2398 N   0  0  0  0  0  0  0  0  0  0  0  0
   21.0100   -9.8685  -15.8274 C   0  0  1  0  0  0  0  0  0  0  0  0
   22.1808  -10.5144  -16.5314 C   0  0  0  0  0  0  0  0  0  0  0  0
   23.4744  -10.0716  -16.0258 C   0  0  0  0  0  0  0  0  0  0  0  0
   23.5458   -9.2959  -15.0528 O   0  0  0  0  0  0  0  0  0  0  0  0
   21.0096   -8.4039  -16.0811 C   0  0  0  0  0  0  0  0  0  0  0  0
   20.5871   -7.8924  -17.1457 O   0  0  0  0  0  0  0  0  0  0  0  0
   24.6346  -10.5367  -16.6571 O   0  0  0  0  0  0  0  0  0  0  0  0
   21.5004   -7.4698  -15.1081 N   0  0  0  0  0  0  0  0  0  0  0  0
   21.4342   -6.0258  -15.2847 C   0  0  1  0  0  0  0  0  0  0  0  0
   20.0970   -5.5128  -15.6737 C   0  0  0  0  0  0  0  0  0  0  0  0
   19.4200   -4.5882  -14.7325 C   0  0  0  0  0  0  0  0  0  0  0  0
   18.1206   -4.0679  -15.1740 C   0  0  0  0  0  0  0  0  0  0  0  0
   17.0655   -4.5166  -14.6883 O   0  0  0  0  0  0  0  0  0  0  0  0
   22.0579   -5.3359  -14.1273 C   0  0  0  0  0  0  0  0  0  0  0  0
   22.2190   -4.0843  -14.1135 O   0  0  0  0  0  0  0  0  0  0  0  0
   18.0613   -3.0780  -16.1301 O   0  0  0  0  0  0  0  0  0  0  0  0
   22.4905   -6.0362  -13.0112 O   0  0  0  0  0  0  0  0  0  0  0  0
  2  1  1  1
  3  2  1  0
  4  3  1  0
  5  7  1  0
  5  2  1  0
  6  5  2  0
  8  7  1  0
  8 12  1  0
  8  9  1  6
 10  9  1  0
 11 10  2  0
 12 15  1  0
 13 12  2  0
 14 10  1  0
 15 16  1  0
 16 21  1  0
 16 17  1  1
 18 17  1  0
 19 18  1  0
 20 19  2  0
 21 24  1  0
 22 21  2  0
 23 19  1  0
M  END
$$$$
