CDE.pdb
     RDKit          3D

 24 23  0  0  1  0  0  0  0  0999 V2000
   12.4648  -12.2095  -11.2472 N   0  0  0  0  0  0  0  0  0  0  0  0
   12.7314  -10.9048  -11.8393 C   0  0  1  0  0  0  0  0  0  0  0  0
   12.4197   -9.8804  -10.7491 C   0  0  0  0  0  0  0  0  0  0  0  0
   10.6695   -9.8900  -10.3239 S   0  0  0  0  0  0  0  0  0  0  0  0
   14.1837  -10.8393  -12.1419 C   0  0  0  0  0  0  0  0  0  0  0  0
   15.0415  -11.4703  -11.4380 O   0  0  0  0  0  0  0  0  0  0  0  0
   14.7300  -10.0859  -13.2163 N   0  0  0  0  0  0  0  0  0  0  0  0
   16.1130  -10.1970  -13.6515 C   0  0  1  0  0  0  0  0  0  0  0  0
   16.4491  -11.6196  -14.0345 C   0  0  0  0  0  0  0  0  0  0  0  0
   17.8329  -11.7916  -14.4596 C   0  0  0  0  0  0  0  0  0  0  0  0
   18.7373  -11.0754  -13.9878 O   0  0  0  0  0  0  0  0  0  0  0  0
   16.3924   -9.2844  -14.7911 C   0  0  0  0  0  0  0  0  0  0  0  0
   15.5954   -9.1141  -15.7447 O   0  0  0  0  0  0  0  0  0  0  0  0
   18.1235  -12.7788  -15.4093 O   0  0  0  0  0  0  0  0  0  0  0  0
   17.6107   -8.5299  -14.8720 N   0  0  0  0  0  0  0  0  0  0  0  0
   17.6479   -7.1047  -15.1685 C   0  0  1  0  0  0  0  0  0  0  0  0
   16.7122   -6.2823  -14.3618 C   0  0  0  0  0  0  0  0  0  0  0  0
   16.7362   -4.8148  -14.5734 C   0  0  0  0  0  0  0  0  0  0  0  0
   15.8010   -4.0369  -13.7523 C   0  0  0  0  0  0  0  0  0  0  0  0
   15.0776   -4.6056  -12.9133 O   0  0  0  0  0  0  0  0  0  0  0  0
   19.0508   -6.6190  -15.1895 C   0  0  0  0  0  0  0  0  0  0  0  0
   20.0011   -7.3278  -14.7565 O   0  0  0  0  0  0  0  0  0  0  0  0
   15.7184   -2.6705  -13.9058 O   0  0  0  0  0  0  0  0  0  0  0  0
   19.3784   -5.3661  -15.6854 O   0  0  0  0  0  0  0  0  0  0  0  0
  2  1  1  1
  3  2  1  0
  4  3  1  0
  5  7  1  0
  5  2  1  0
  6  5  2  0
  8  7  1  0
  8 12  1  0
  8  9  1  6
 10  9  1  0
 11 10  2  0
 12 15  1  0
 13 12  2  0
 14 10  1  0
 15 16  1  0
 16 21  1  0
 16 17  1  1
 18 17  1  0
 19 18  1  0
 20 19  2  0
 21 24  1  0
 22 21  2  0
 23 19  1  0
M  END
$$$$
