CDE.pdb
     RDKit          3D

 24 23  0  0  1  0  0  0  0  0999 V2000
   14.2735   -8.8704   -8.4245 N   0  0  0  0  0  0  0  0  0  0  0  0
   14.4504   -7.7164   -9.2968 C   0  0  1  0  0  0  0  0  0  0  0  0
   15.0796   -6.6287   -8.4272 C   0  0  0  0  0  0  0  0  0  0  0  0
   13.8841   -5.9478   -7.2648 S   0  0  0  0  0  0  0  0  0  0  0  0
   15.4261   -8.0969  -10.3495 C   0  0  0  0  0  0  0  0  0  0  0  0
   16.5668   -8.5890  -10.0562 O   0  0  0  0  0  0  0  0  0  0  0  0
   15.1789   -7.9491  -11.7414 N   0  0  0  0  0  0  0  0  0  0  0  0
   16.1227   -8.3542  -12.7707 C   0  0  1  0  0  0  0  0  0  0  0  0
   15.4431   -9.1869  -13.8330 C   0  0  0  0  0  0  0  0  0  0  0  0
   15.0019  -10.4900  -13.3510 C   0  0  0  0  0  0  0  0  0  0  0  0
   15.7451  -11.1884  -12.6344 O   0  0  0  0  0  0  0  0  0  0  0  0
   16.7788   -7.1743  -13.3925 C   0  0  0  0  0  0  0  0  0  0  0  0
   16.1860   -6.0875  -13.5951 O   0  0  0  0  0  0  0  0  0  0  0  0
   13.7254  -10.9395  -13.7105 O   0  0  0  0  0  0  0  0  0  0  0  0
   18.1529   -7.2061  -13.8059 N   0  0  0  0  0  0  0  0  0  0  0  0
   18.8314   -6.0664  -14.4071 C   0  0  1  0  0  0  0  0  0  0  0  0
   20.2923   -6.0130  -14.1509 C   0  0  0  0  0  0  0  0  0  0  0  0
   20.7326   -5.7545  -12.7587 C   0  0  0  0  0  0  0  0  0  0  0  0
   22.1830   -5.6551  -12.5569 C   0  0  0  0  0  0  0  0  0  0  0  0
   22.7655   -4.5648  -12.7061 O   0  0  0  0  0  0  0  0  0  0  0  0
   18.4394   -5.9263  -15.8323 C   0  0  0  0  0  0  0  0  0  0  0  0
   18.2584   -6.9347  -16.5691 O   0  0  0  0  0  0  0  0  0  0  0  0
   22.9089   -6.7701  -12.2002 O   0  0  0  0  0  0  0  0  0  0  0  0
   18.2551   -4.6819  -16.4160 O   0  0  0  0  0  0  0  0  0  0  0  0
  2  1  1  1
  3  2  1  0
  4  3  1  0
  5  7  1  0
  5  2  1  0
  6  5  2  0
  8  7  1  0
  8 12  1  0
  8  9  1  6
 10  9  1  0
 11 10  2  0
 12 15  1  0
 13 12  2  0
 14 10  1  0
 15 16  1  0
 16 21  1  0
 16 17  1  6
 18 17  1  0
 19 18  1  0
 20 19  2  0
 21 24  1  0
 22 21  2  0
 23 19  1  0
M  END
$$$$
