CDE.pdb
     RDKit          3D

 24 23  0  0  1  0  0  0  0  0999 V2000
   23.5178  -11.4044  -17.8765 N   0  0  0  0  0  0  0  0  0  0  0  0
   22.5672  -10.8544  -18.8345 C   0  0  1  0  0  0  0  0  0  0  0  0
   21.7353  -12.0391  -19.3239 C   0  0  0  0  0  0  0  0  0  0  0  0
   22.7526  -13.5107  -19.5323 S   0  0  0  0  0  0  0  0  0  0  0  0
   21.6728   -9.9277  -18.0952 C   0  0  0  0  0  0  0  0  0  0  0  0
   20.7500   -9.2751  -18.6886 O   0  0  0  0  0  0  0  0  0  0  0  0
   21.7656   -9.6938  -16.6963 N   0  0  0  0  0  0  0  0  0  0  0  0
   20.8738   -8.8029  -15.9715 C   0  0  1  0  0  0  0  0  0  0  0  0
   20.1385   -9.5425  -14.8779 C   0  0  0  0  0  0  0  0  0  0  0  0
   19.1889   -8.7068  -14.1533 C   0  0  0  0  0  0  0  0  0  0  0  0
   19.5045   -8.1775  -13.0698 O   0  0  0  0  0  0  0  0  0  0  0  0
   21.6165   -7.6514  -15.3955 C   0  0  0  0  0  0  0  0  0  0  0  0
   22.8085   -7.7266  -15.0123 O   0  0  0  0  0  0  0  0  0  0  0  0
   17.9150   -8.5118  -14.7010 O   0  0  0  0  0  0  0  0  0  0  0  0
   21.0058   -6.3618  -15.2399 N   0  0  0  0  0  0  0  0  0  0  0  0
   21.7580   -5.1566  -14.9204 C   0  0  1  0  0  0  0  0  0  0  0  0
   22.1725   -4.3574  -16.1003 C   0  0  0  0  0  0  0  0  0  0  0  0
   22.9697   -3.1324  -15.8496 C   0  0  0  0  0  0  0  0  0  0  0  0
   23.3637   -2.3730  -17.0422 C   0  0  0  0  0  0  0  0  0  0  0  0
   22.6921   -1.3926  -17.4138 O   0  0  0  0  0  0  0  0  0  0  0  0
   21.0700   -4.3875  -13.8528 C   0  0  0  0  0  0  0  0  0  0  0  0
   19.8137   -4.4024  -13.7338 O   0  0  0  0  0  0  0  0  0  0  0  0
   24.4812   -2.7418  -17.7581 O   0  0  0  0  0  0  0  0  0  0  0  0
   21.7773   -3.6194  -12.9401 O   0  0  0  0  0  0  0  0  0  0  0  0
  2  1  1  1
  3  2  1  0
  4  3  1  0
  5  7  1  0
  5  2  1  0
  6  5  2  0
  8  7  1  0
  8 12  1  0
  8  9  1  1
 10  9  1  0
 11 10  2  0
 12 15  1  0
 13 12  2  0
 14 10  1  0
 15 16  1  0
 16 21  1  0
 16 17  1  6
 18 17  1  0
 19 18  1  0
 20 19  2  0
 21 24  1  0
 22 21  2  0
 23 19  1  0
M  END
$$$$
