CDE.pdb
     RDKit          3D

 24 23  0  0  1  0  0  0  0  0999 V2000
   20.8923  -13.0386  -16.5121 N   0  0  0  0  0  0  0  0  0  0  0  0
   20.3455  -11.8091  -17.0717 C   0  0  1  0  0  0  0  0  0  0  0  0
   19.3777  -11.2668  -16.0209 C   0  0  0  0  0  0  0  0  0  0  0  0
   17.8892  -12.2759  -15.9202 S   0  0  0  0  0  0  0  0  0  0  0  0
   21.4668  -10.8463  -17.2167 C   0  0  0  0  0  0  0  0  0  0  0  0
   22.1474  -10.4575  -16.2093 O   0  0  0  0  0  0  0  0  0  0  0  0
   21.8685  -10.2884  -18.4608 N   0  0  0  0  0  0  0  0  0  0  0  0
   23.0084   -9.3981  -18.6094 C   0  0  1  0  0  0  0  0  0  0  0  0
   23.5682   -9.4619  -20.0116 C   0  0  0  0  0  0  0  0  0  0  0  0
   24.0593  -10.7848  -20.3776 C   0  0  0  0  0  0  0  0  0  0  0  0
   23.4509  -11.4806  -21.2139 O   0  0  0  0  0  0  0  0  0  0  0  0
   22.6436   -7.9973  -18.2712 C   0  0  0  0  0  0  0  0  0  0  0  0
   21.5340   -7.4887  -18.5604 O   0  0  0  0  0  0  0  0  0  0  0  0
   25.2290  -11.2565  -19.7692 O   0  0  0  0  0  0  0  0  0  0  0  0
   23.5530   -7.1264  -17.5822 N   0  0  0  0  0  0  0  0  0  0  0  0
   23.1860   -5.7956  -17.1188 C   0  0  1  0  0  0  0  0  0  0  0  0
   21.9118   -5.7364  -16.3601 C   0  0  0  0  0  0  0  0  0  0  0  0
   21.5320   -4.4329  -15.7636 C   0  0  0  0  0  0  0  0  0  0  0  0
   20.2618   -4.4141  -15.0286 C   0  0  0  0  0  0  0  0  0  0  0  0
   20.2388   -4.6519  -13.8066 O   0  0  0  0  0  0  0  0  0  0  0  0
   24.3426   -5.1445  -16.4533 C   0  0  0  0  0  0  0  0  0  0  0  0
   24.2794   -3.9558  -16.0341 O   0  0  0  0  0  0  0  0  0  0  0  0
   19.0858   -4.1325  -15.6883 O   0  0  0  0  0  0  0  0  0  0  0  0
   25.5424   -5.8135  -16.2633 O   0  0  0  0  0  0  0  0  0  0  0  0
  2  1  1  1
  3  2  1  0
  4  3  1  0
  5  7  1  0
  5  2  1  0
  6  5  2  0
  8  7  1  0
  8 12  1  0
  8  9  1  6
 10  9  1  0
 11 10  2  0
 12 15  1  0
 13 12  2  0
 14 10  1  0
 15 16  1  0
 16 21  1  0
 16 17  1  1
 18 17  1  0
 19 18  1  0
 20 19  2  0
 21 24  1  0
 22 21  2  0
 23 19  1  0
M  END
$$$$
