CDE.pdb
     RDKit          3D

 24 23  0  0  1  0  0  0  0  0999 V2000
   14.0717  -11.3162  -10.5018 N   0  0  0  0  0  0  0  0  0  0  0  0
   15.2923  -10.7035   -9.9931 C   0  0  1  0  0  0  0  0  0  0  0  0
   16.4078  -11.1493  -10.9376 C   0  0  0  0  0  0  0  0  0  0  0  0
   16.8122  -12.8879  -10.6972 S   0  0  0  0  0  0  0  0  0  0  0  0
   15.1375   -9.2315  -10.1133 C   0  0  0  0  0  0  0  0  0  0  0  0
   14.5512   -8.7014  -11.1156 O   0  0  0  0  0  0  0  0  0  0  0  0
   15.6178   -8.3085   -9.1449 N   0  0  0  0  0  0  0  0  0  0  0  0
   15.5316   -6.8655   -9.3008 C   0  0  1  0  0  0  0  0  0  0  0  0
   15.0623   -6.2084   -8.0235 C   0  0  0  0  0  0  0  0  0  0  0  0
   14.8603   -4.7706   -8.1541 C   0  0  0  0  0  0  0  0  0  0  0  0
   15.1109   -4.1876   -9.2270 O   0  0  0  0  0  0  0  0  0  0  0  0
   16.8377   -6.2911   -9.7175 C   0  0  0  0  0  0  0  0  0  0  0  0
   17.9055   -6.4887   -9.0894 O   0  0  0  0  0  0  0  0  0  0  0  0
   14.3787   -4.0592   -7.0484 O   0  0  0  0  0  0  0  0  0  0  0  0
   16.9598   -5.4620  -10.8828 N   0  0  0  0  0  0  0  0  0  0  0  0
   18.2232   -5.2332  -11.5699 C   0  0  1  0  0  0  0  0  0  0  0  0
   19.0061   -6.4632  -11.8469 C   0  0  0  0  0  0  0  0  0  0  0  0
   20.2863   -6.3075  -12.5790 C   0  0  0  0  0  0  0  0  0  0  0  0
   21.0799   -7.5312  -12.7427 C   0  0  0  0  0  0  0  0  0  0  0  0
   21.7811   -7.9560  -11.8055 O   0  0  0  0  0  0  0  0  0  0  0  0
   18.0192   -4.3430  -12.7406 C   0  0  0  0  0  0  0  0  0  0  0  0
   16.9133   -4.2924  -13.3465 O   0  0  0  0  0  0  0  0  0  0  0  0
   21.0531   -8.2176  -13.9366 O   0  0  0  0  0  0  0  0  0  0  0  0
   19.0345   -3.5286  -13.2195 O   0  0  0  0  0  0  0  0  0  0  0  0
  2  1  1  6
  3  2  1  0
  4  3  1  0
  5  7  1  0
  5  2  1  0
  6  5  2  0
  8  7  1  0
  8 12  1  0
  8  9  1  1
 10  9  1  0
 11 10  2  0
 12 15  1  0
 13 12  2  0
 14 10  1  0
 15 16  1  0
 16 21  1  0
 16 17  1  6
 18 17  1  0
 19 18  1  0
 20 19  2  0
 21 24  1  0
 22 21  2  0
 23 19  1  0
M  END
$$$$
