CDE.pdb
     RDKit          3D

 24 23  0  0  1  0  0  0  0  0999 V2000
   19.3567   -8.8752  -13.9066 N   0  0  0  0  0  0  0  0  0  0  0  0
   19.4548   -8.7573  -12.4573 C   0  0  1  0  0  0  0  0  0  0  0  0
   20.4628   -7.6386  -12.1971 C   0  0  0  0  0  0  0  0  0  0  0  0
   22.1391   -8.1630  -12.5959 S   0  0  0  0  0  0  0  0  0  0  0  0
   18.1285   -8.3190  -11.9535 C   0  0  0  0  0  0  0  0  0  0  0  0
   17.3905   -7.5209  -12.6227 O   0  0  0  0  0  0  0  0  0  0  0  0
   17.5802   -8.7410  -10.7119 N   0  0  0  0  0  0  0  0  0  0  0  0
   16.2632   -8.3437  -10.2407 C   0  0  1  0  0  0  0  0  0  0  0  0
   15.6324   -9.4354   -9.4078 C   0  0  0  0  0  0  0  0  0  0  0  0
   14.2372   -9.1747   -9.0750 C   0  0  0  0  0  0  0  0  0  0  0  0
   13.7215   -8.0662   -9.3178 O   0  0  0  0  0  0  0  0  0  0  0  0
   16.3309   -7.0821   -9.4576 C   0  0  0  0  0  0  0  0  0  0  0  0
   17.3742   -6.6853   -8.8852 O   0  0  0  0  0  0  0  0  0  0  0  0
   13.4896  -10.1965   -8.4768 O   0  0  0  0  0  0  0  0  0  0  0  0
   15.1885   -6.2265   -9.3057 N   0  0  0  0  0  0  0  0  0  0  0  0
   15.2887   -4.8186   -8.9471 C   0  0  1  0  0  0  0  0  0  0  0  0
   16.2604   -4.0434   -9.7580 C   0  0  0  0  0  0  0  0  0  0  0  0
   16.3476   -2.5842   -9.5084 C   0  0  0  0  0  0  0  0  0  0  0  0
   17.3944   -1.8720  -10.2507 C   0  0  0  0  0  0  0  0  0  0  0  0
   18.1302   -2.4860  -11.0456 O   0  0  0  0  0  0  0  0  0  0  0  0
   13.9359   -4.2155   -8.8442 C   0  0  0  0  0  0  0  0  0  0  0  0
   13.0016   -4.5539   -9.6222 O   0  0  0  0  0  0  0  0  0  0  0  0
   17.5685   -0.5174  -10.0716 O   0  0  0  0  0  0  0  0  0  0  0  0
   13.6398   -3.2543   -7.8894 O   0  0  0  0  0  0  0  0  0  0  0  0
  2  1  1  6
  3  2  1  0
  4  3  1  0
  5  7  1  0
  5  2  1  0
  6  5  2  0
  8  7  1  0
  8 12  1  0
  8  9  1  1
 10  9  1  0
 11 10  2  0
 12 15  1  0
 13 12  2  0
 14 10  1  0
 15 16  1  0
 16 21  1  0
 16 17  1  6
 18 17  1  0
 19 18  1  0
 20 19  2  0
 21 24  1  0
 22 21  2  0
 23 19  1  0
M  END
$$$$
