CDE.pdb
     RDKit          3D

 24 23  0  0  1  0  0  0  0  0999 V2000
   20.9321  -14.1209  -16.3985 N   0  0  0  0  0  0  0  0  0  0  0  0
   20.6651  -12.9730  -17.2559 C   0  0  1  0  0  0  0  0  0  0  0  0
   19.3888  -13.3140  -18.0239 C   0  0  0  0  0  0  0  0  0  0  0  0
   18.8179  -11.9114  -18.9990 S   0  0  0  0  0  0  0  0  0  0  0  0
   20.3847  -11.8117  -16.3739 C   0  0  0  0  0  0  0  0  0  0  0  0
   19.5180  -11.8771  -15.4391 O   0  0  0  0  0  0  0  0  0  0  0  0
   21.0422  -10.5571  -16.4927 N   0  0  0  0  0  0  0  0  0  0  0  0
   20.7413   -9.4113  -15.6496 C   0  0  1  0  0  0  0  0  0  0  0  0
   21.8948   -8.4353  -15.6280 C   0  0  0  0  0  0  0  0  0  0  0  0
   21.7065   -7.3396  -14.6850 C   0  0  0  0  0  0  0  0  0  0  0  0
   22.4813   -6.3632  -14.6810 O   0  0  0  0  0  0  0  0  0  0  0  0
   19.5025   -8.7240  -16.0993 C   0  0  0  0  0  0  0  0  0  0  0  0
   19.2678   -8.4499  -17.3008 O   0  0  0  0  0  0  0  0  0  0  0  0
   20.6367   -7.4083  -13.7842 O   0  0  0  0  0  0  0  0  0  0  0  0
   18.4821   -8.3252  -15.1720 N   0  0  0  0  0  0  0  0  0  0  0  0
   17.2046   -7.7617  -15.5857 C   0  0  1  0  0  0  0  0  0  0  0  0
   16.0157   -8.4838  -15.0684 C   0  0  0  0  0  0  0  0  0  0  0  0
   14.6819   -8.0029  -15.5030 C   0  0  0  0  0  0  0  0  0  0  0  0
   13.5325   -8.7454  -14.9724 C   0  0  0  0  0  0  0  0  0  0  0  0
   13.7049   -9.6829  -14.1713 O   0  0  0  0  0  0  0  0  0  0  0  0
   17.1925   -6.2938  -15.3630 C   0  0  0  0  0  0  0  0  0  0  0  0
   17.9243   -5.7529  -14.4886 O   0  0  0  0  0  0  0  0  0  0  0  0
   12.2541   -8.4081  -15.3586 O   0  0  0  0  0  0  0  0  0  0  0  0
   16.3769   -5.4532  -16.1055 O   0  0  0  0  0  0  0  0  0  0  0  0
  2  1  1  1
  3  2  1  0
  4  3  1  0
  5  7  1  0
  5  2  1  0
  6  5  2  0
  8  7  1  0
  8 12  1  0
  8  9  1  6
 10  9  1  0
 11 10  2  0
 12 15  1  0
 13 12  2  0
 14 10  1  0
 15 16  1  0
 16 21  1  0
 16 17  1  1
 18 17  1  0
 19 18  1  0
 20 19  2  0
 21 24  1  0
 22 21  2  0
 23 19  1  0
M  END
$$$$
