CDE.pdb
     RDKit          3D

 24 23  0  0  1  0  0  0  0  0999 V2000
   13.9584  -13.1137  -11.6295 N   0  0  0  0  0  0  0  0  0  0  0  0
   13.5422  -11.7759  -12.0305 C   0  0  1  0  0  0  0  0  0  0  0  0
   12.2565  -11.4893  -11.2559 C   0  0  0  0  0  0  0  0  0  0  0  0
   10.8961  -12.5120  -11.8453 S   0  0  0  0  0  0  0  0  0  0  0  0
   14.5871  -10.8259  -11.5713 C   0  0  0  0  0  0  0  0  0  0  0  0
   15.1316  -10.9367  -10.4222 O   0  0  0  0  0  0  0  0  0  0  0  0
   15.0591   -9.7374  -12.3541 N   0  0  0  0  0  0  0  0  0  0  0  0
   16.1767   -8.8936  -11.9625 C   0  0  1  0  0  0  0  0  0  0  0  0
   17.0412   -8.5502  -13.1535 C   0  0  0  0  0  0  0  0  0  0  0  0
   17.8449   -9.6709  -13.6260 C   0  0  0  0  0  0  0  0  0  0  0  0
   18.3678  -10.4639  -12.8190 O   0  0  0  0  0  0  0  0  0  0  0  0
   15.7043   -7.6487  -11.3017 C   0  0  0  0  0  0  0  0  0  0  0  0
   14.8329   -6.8962  -11.7997 O   0  0  0  0  0  0  0  0  0  0  0  0
   18.0164   -9.8367  -15.0058 O   0  0  0  0  0  0  0  0  0  0  0  0
   16.2242   -7.2242  -10.0331 N   0  0  0  0  0  0  0  0  0  0  0  0
   15.8170   -5.9895   -9.3771 C   0  0  1  0  0  0  0  0  0  0  0  0
   14.6350   -6.1235   -8.4896 C   0  0  0  0  0  0  0  0  0  0  0  0
   14.1902   -4.9133   -7.7571 C   0  0  0  0  0  0  0  0  0  0  0  0
   12.9678   -5.0645   -6.9590 C   0  0  0  0  0  0  0  0  0  0  0  0
   12.3557   -6.1488   -6.9455 O   0  0  0  0  0  0  0  0  0  0  0  0
   16.9912   -5.3218   -8.7607 C   0  0  0  0  0  0  0  0  0  0  0  0
   18.0652   -5.9468   -8.5401 O   0  0  0  0  0  0  0  0  0  0  0  0
   12.4904   -4.0054   -6.2189 O   0  0  0  0  0  0  0  0  0  0  0  0
   16.9593   -3.9830   -8.4004 O   0  0  0  0  0  0  0  0  0  0  0  0
  2  1  1  1
  3  2  1  0
  4  3  1  0
  5  7  1  0
  5  2  1  0
  6  5  2  0
  8  7  1  0
  8 12  1  0
  8  9  1  6
 10  9  1  0
 11 10  2  0
 12 15  1  0
 13 12  2  0
 14 10  1  0
 15 16  1  0
 16 21  1  0
 16 17  1  1
 18 17  1  0
 19 18  1  0
 20 19  2  0
 21 24  1  0
 22 21  2  0
 23 19  1  0
M  END
$$$$
