CDE.pdb
     RDKit          3D

 24 23  0  0  1  0  0  0  0  0999 V2000
   17.9184  -11.0923  -15.8471 N   0  0  0  0  0  0  0  0  0  0  0  0
   18.1856  -10.0710  -16.8517 C   0  0  1  0  0  0  0  0  0  0  0  0
   16.8170   -9.5942  -17.3362 C   0  0  0  0  0  0  0  0  0  0  0  0
   15.9821  -10.8698  -18.2953 S   0  0  0  0  0  0  0  0  0  0  0  0
   18.8614   -8.9383  -16.1694 C   0  0  0  0  0  0  0  0  0  0  0  0
   18.4395   -8.4833  -15.0539 O   0  0  0  0  0  0  0  0  0  0  0  0
   20.0091   -8.2795  -16.6881 N   0  0  0  0  0  0  0  0  0  0  0  0
   20.6465   -7.1469  -16.0360 C   0  0  1  0  0  0  0  0  0  0  0  0
   22.1363   -7.1425  -16.2891 C   0  0  0  0  0  0  0  0  0  0  0  0
   22.8271   -8.2781  -15.6903 C   0  0  0  0  0  0  0  0  0  0  0  0
   22.6151   -8.5988  -14.5047 O   0  0  0  0  0  0  0  0  0  0  0  0
   20.0507   -5.8621  -16.4874 C   0  0  0  0  0  0  0  0  0  0  0  0
   19.1460   -5.7925  -17.3537 O   0  0  0  0  0  0  0  0  0  0  0  0
   23.7336   -9.0001  -16.4762 O   0  0  0  0  0  0  0  0  0  0  0  0
   20.4804   -4.6019  -15.9514 N   0  0  0  0  0  0  0  0  0  0  0  0
   19.7717   -3.3517  -16.1871 C   0  0  1  0  0  0  0  0  0  0  0  0
   18.3070   -3.4205  -15.9580 C   0  0  0  0  0  0  0  0  0  0  0  0
   17.5358   -2.1603  -16.0856 C   0  0  0  0  0  0  0  0  0  0  0  0
   16.1256   -2.2327  -15.6853 C   0  0  0  0  0  0  0  0  0  0  0  0
   15.6496   -1.3882  -14.9037 O   0  0  0  0  0  0  0  0  0  0  0  0
   20.4616   -2.2308  -15.5000 C   0  0  0  0  0  0  0  0  0  0  0  0
   21.2244   -2.4301  -14.5146 O   0  0  0  0  0  0  0  0  0  0  0  0
   15.3195   -3.2373  -16.1733 O   0  0  0  0  0  0  0  0  0  0  0  0
   20.2981   -0.9163  -15.9107 O   0  0  0  0  0  0  0  0  0  0  0  0
  2  1  1  1
  3  2  1  0
  4  3  1  0
  5  7  1  0
  5  2  1  0
  6  5  2  0
  8  7  1  0
  8 12  1  0
  8  9  1  6
 10  9  1  0
 11 10  2  0
 12 15  1  0
 13 12  2  0
 14 10  1  0
 15 16  1  0
 16 21  1  0
 16 17  1  1
 18 17  1  0
 19 18  1  0
 20 19  2  0
 21 24  1  0
 22 21  2  0
 23 19  1  0
M  END
$$$$
