SRC.pdb
     RDKit          3D

 24 23  0  0  1  0  0  0  0  0999 V2000
    5.9164  -16.0470   20.3033 O   0  0  0  0  0  0  0  0  0  0  0  0
    6.3023  -17.3971   20.2230 C   0  0  0  0  0  0  0  0  0  0  0  0
    5.4558  -18.2279   21.1761 C   0  0  2  0  0  0  0  0  0  0  0  0
    4.0758  -18.1464   20.7202 N   0  0  0  0  0  0  0  0  0  0  0  0
    5.5873  -17.7370   22.5737 C   0  0  0  0  0  0  0  0  0  0  0  0
    4.6651  -17.0267   23.0733 O   0  0  0  0  0  0  0  0  0  0  0  0
   10.1254  -18.4986   29.9946 N   0  0  0  0  0  0  0  0  0  0  0  0
    9.6449  -19.7105   29.4079 C   0  0  0  0  0  0  0  0  0  0  0  0
    9.4905  -20.7613   30.1328 N   0  0  0  0  0  0  0  0  0  0  0  0
    9.3232  -19.8104   28.0351 N   0  0  0  0  0  0  0  0  0  0  0  0
    9.5416  -18.7160   27.1532 C   0  0  0  0  0  0  0  0  0  0  0  0
    8.3357  -17.9324   26.7605 C   0  0  0  0  0  0  0  0  0  0  0  0
    7.9192  -18.3383   25.3742 C   0  0  0  0  0  0  0  0  0  0  0  0
    6.7806  -17.5457   24.7946 C   0  0  2  0  0  0  0  0  0  0  0  0
    6.6920  -18.0183   23.3885 N   0  0  0  0  0  0  0  0  0  0  0  0
    7.1866  -16.1203   24.7415 C   0  0  0  0  0  0  0  0  0  0  0  0
    7.4032  -15.5757   23.6310 O   0  0  0  0  0  0  0  0  0  0  0  0
    9.1418  -21.6545   29.7166 N   0  0  0  0  0  0  0  0  0  0  0  0
    7.3540  -15.2997   25.8850 C   0  0  2  0  0  0  0  0  0  0  0  0
    7.5956  -13.8802   25.8277 C   0  0  0  0  0  0  0  0  0  0  0  0
    6.2407  -13.1888   25.6225 S   0  0  0  0  0  0  0  0  0  0  0  0
    6.4481  -11.3817   25.7360 C   0  0  0  0  0  0  0  0  0  0  0  0
    8.2593  -13.3505   27.0305 O   0  0  0  0  0  0  0  0  0  0  0  0
    8.6399  -12.1670   27.0608 O   0  0  0  0  0  0  0  0  0  0  0  0
  1  2  1  0
  3  4  1  6
  3  2  1  0
  5  3  1  0
  6  5  2  0
  7  8  1  0
  8  9  2  0
  8 10  1  0
 10 11  1  0
 11 12  1  0
 14 13  1  1
 13 12  1  0
 14 15  1  0
 15  5  1  0
 16 14  1  0
 16 18  1  0
 17 16  2  0
 19 18  1  0
 19 20  1  1
 20 21  1  0
 22 19  1  0
 22 24  1  0
 23 22  2  0
M  END
$$$$
