SRC.pdb
     RDKit          3D

 24 23  0  0  1  0  0  0  0  0999 V2000
    4.6663  -19.6524   24.8675 O   0  0  0  0  0  0  0  0  0  0  0  0
    4.8863  -20.6247   23.8754 C   0  0  0  0  0  0  0  0  0  0  0  0
    5.1145  -19.9434   22.5341 C   0  0  2  0  0  0  0  0  0  0  0  0
    5.4358  -20.9810   21.5652 N   0  0  0  0  0  0  0  0  0  0  0  0
    6.2074  -18.9389   22.6243 C   0  0  0  0  0  0  0  0  0  0  0  0
    7.3662  -19.3098   22.9767 O   0  0  0  0  0  0  0  0  0  0  0  0
    8.1708  -12.9220   17.4130 N   0  0  0  0  0  0  0  0  0  0  0  0
    9.2745  -13.1360   18.2962 C   0  0  0  0  0  0  0  0  0  0  0  0
   10.4751  -12.9100   17.8950 N   0  0  0  0  0  0  0  0  0  0  0  0
    9.1039  -13.5953   19.6221 N   0  0  0  0  0  0  0  0  0  0  0  0
    7.8038  -13.7761   20.1699 C   0  0  0  0  0  0  0  0  0  0  0  0
    7.7400  -14.3280   21.5532 C   0  0  0  0  0  0  0  0  0  0  0  0
    6.7672  -15.4739   21.5779 C   0  0  0  0  0  0  0  0  0  0  0  0
    7.1100  -16.5786   22.5384 C   0  0  2  0  0  0  0  0  0  0  0  0
    6.0298  -17.5790   22.3369 N   0  0  0  0  0  0  0  0  0  0  0  0
    6.9580  -16.0577   23.9186 C   0  0  0  0  0  0  0  0  0  0  0  0
    6.0263  -15.2587   24.1834 O   0  0  0  0  0  0  0  0  0  0  0  0
   11.2901  -13.0474   18.5349 N   0  0  0  0  0  0  0  0  0  0  0  0
    7.8113  -16.4043   24.9960 C   0  0  1  0  0  0  0  0  0  0  0  0
    8.3267  -15.4557   25.9507 C   0  0  0  0  0  0  0  0  0  0  0  0
    7.2852  -15.3138   27.0693 S   0  0  0  0  0  0  0  0  0  0  0  0
    5.9595  -14.1825   26.5363 C   0  0  0  0  0  0  0  0  0  0  0  0
    9.6297  -15.8436   26.5160 O   0  0  0  0  0  0  0  0  0  0  0  0
   10.1845  -16.8908   26.1389 O   0  0  0  0  0  0  0  0  0  0  0  0
  1  2  1  0
  3  4  1  6
  3  2  1  0
  5  3  1  0
  6  5  2  0
  7  8  1  0
  8  9  2  0
  8 10  1  0
 10 11  1  0
 11 12  1  0
 14 13  1  6
 13 12  1  0
 14 15  1  0
 15  5  1  0
 16 14  1  0
 16 18  1  0
 17 16  2  0
 19 18  1  0
 19 20  1  1
 20 21  1  0
 22 19  1  0
 22 24  1  0
 23 22  2  0
M  END
$$$$
