SRC.pdb
     RDKit          3D

 24 23  0  0  1  0  0  0  0  0999 V2000
    8.6023  -19.9469   21.2011 O   0  0  0  0  0  0  0  0  0  0  0  0
    7.9802  -19.3458   20.0921 C   0  0  0  0  0  0  0  0  0  0  0  0
    8.2728  -20.1586   18.8396 C   0  0  2  0  0  0  0  0  0  0  0  0
    7.8006  -21.5147   19.0776 N   0  0  0  0  0  0  0  0  0  0  0  0
    9.7255  -20.1461   18.5219 C   0  0  0  0  0  0  0  0  0  0  0  0
   10.4767  -21.0427   19.0082 O   0  0  0  0  0  0  0  0  0  0  0  0
   16.1680  -17.1067   12.5337 N   0  0  0  0  0  0  0  0  0  0  0  0
   15.4660  -16.7638   13.7310 C   0  0  0  0  0  0  0  0  0  0  0  0
   16.1077  -16.3040   14.7460 N   0  0  0  0  0  0  0  0  0  0  0  0
   14.0654  -16.9095   13.8544 N   0  0  0  0  0  0  0  0  0  0  0  0
   13.4102  -16.6438   15.0886 C   0  0  0  0  0  0  0  0  0  0  0  0
   13.3980  -17.7542   16.0832 C   0  0  0  0  0  0  0  0  0  0  0  0
   11.9724  -18.1135   16.3972 C   0  0  0  0  0  0  0  0  0  0  0  0
   11.7981  -19.1137   17.5061 C   0  0  2  0  0  0  0  0  0  0  0  0
   10.3263  -19.1832   17.7001 N   0  0  0  0  0  0  0  0  0  0  0  0
   12.3658  -18.5343   18.7476 C   0  0  0  0  0  0  0  0  0  0  0  0
   11.8496  -17.5042   19.2466 O   0  0  0  0  0  0  0  0  0  0  0  0
   15.6590  -16.2569   15.6889 N   0  0  0  0  0  0  0  0  0  0  0  0
   13.4822  -19.0719   19.4358 C   0  0  2  0  0  0  0  0  0  0  0  0
   14.0388  -18.5001   20.6358 C   0  0  0  0  0  0  0  0  0  0  0  0
   13.8477  -19.5212   21.7658 S   0  0  0  0  0  0  0  0  0  0  0  0
   14.4763  -18.8318   23.3314 C   0  0  0  0  0  0  0  0  0  0  0  0
   15.4615  -18.1433   20.5087 O   0  0  0  0  0  0  0  0  0  0  0  0
   16.0288  -17.5140   21.4190 O   0  0  0  0  0  0  0  0  0  0  0  0
  1  2  1  0
  3  4  1  1
  3  2  1  0
  5  3  1  0
  6  5  2  0
  7  8  1  0
  8  9  2  0
  8 10  1  0
 10 11  1  0
 11 12  1  0
 14 13  1  6
 13 12  1  0
 14 15  1  0
 15  5  1  0
 16 14  1  0
 16 18  1  0
 17 16  2  0
 19 18  1  0
 19 20  1  6
 20 21  1  0
 22 19  1  0
 22 24  1  0
 23 22  2  0
M  END
$$$$
