SRC.pdb
     RDKit          3D

 24 23  0  0  1  0  0  0  0  0999 V2000
    7.7063  -21.0076   25.6385 O   0  0  0  0  0  0  0  0  0  0  0  0
    6.4251  -20.5058   25.3473 C   0  0  0  0  0  0  0  0  0  0  0  0
    6.1931  -20.5385   23.8439 C   0  0  2  0  0  0  0  0  0  0  0  0
    6.4097  -21.9069   23.3974 N   0  0  0  0  0  0  0  0  0  0  0  0
    7.1047  -19.5963   23.1420 C   0  0  0  0  0  0  0  0  0  0  0  0
    8.1722  -20.0353   22.6202 O   0  0  0  0  0  0  0  0  0  0  0  0
    8.2955  -14.0324   18.3917 N   0  0  0  0  0  0  0  0  0  0  0  0
    8.1541  -12.8583   19.1952 C   0  0  0  0  0  0  0  0  0  0  0  0
    8.8713  -11.8193   18.9513 N   0  0  0  0  0  0  0  0  0  0  0  0
    7.2404  -12.7840   20.2711 N   0  0  0  0  0  0  0  0  0  0  0  0
    6.6996  -13.9645   20.8518 C   0  0  0  0  0  0  0  0  0  0  0  0
    7.6836  -14.9831   21.3173 C   0  0  0  0  0  0  0  0  0  0  0  0
    6.9404  -16.1306   21.9425 C   0  0  0  0  0  0  0  0  0  0  0  0
    7.7971  -17.2980   22.3471 C   0  0  2  0  0  0  0  0  0  0  0  0
    6.8492  -18.2240   23.0200 N   0  0  0  0  0  0  0  0  0  0  0  0
    8.7518  -16.8363   23.3837 C   0  0  0  0  0  0  0  0  0  0  0  0
    8.3182  -16.3592   24.4612 O   0  0  0  0  0  0  0  0  0  0  0  0
    8.7313  -10.9323   19.4863 N   0  0  0  0  0  0  0  0  0  0  0  0
   10.1614  -16.8944   23.2466 C   0  0  1  0  0  0  0  0  0  0  0  0
   11.0849  -16.6559   24.3269 C   0  0  0  0  0  0  0  0  0  0  0  0
   10.8276  -17.7238   25.3990 S   0  0  0  0  0  0  0  0  0  0  0  0
   11.4827  -17.1569   27.0024 C   0  0  0  0  0  0  0  0  0  0  0  0
   12.4960  -16.6863   23.9079 O   0  0  0  0  0  0  0  0  0  0  0  0
   12.7974  -17.0733   22.7651 O   0  0  0  0  0  0  0  0  0  0  0  0
  1  2  1  0
  3  4  1  6
  3  2  1  0
  5  3  1  0
  6  5  2  0
  7  8  1  0
  8  9  2  0
  8 10  1  0
 10 11  1  0
 11 12  1  0
 14 13  1  1
 13 12  1  0
 14 15  1  0
 15  5  1  0
 16 14  1  0
 16 18  1  0
 17 16  2  0
 19 18  1  0
 19 20  1  6
 20 21  1  0
 22 19  1  0
 22 24  1  0
 23 22  2  0
M  END
$$$$
