SRC.pdb
     RDKit          3D

 24 23  0  0  1  0  0  0  0  0999 V2000
   10.2405  -12.9765   20.6884 O   0  0  0  0  0  0  0  0  0  0  0  0
    9.3170  -12.6612   19.6755 C   0  0  0  0  0  0  0  0  0  0  0  0
    8.3794  -13.8390   19.4544 C   0  0  2  0  0  0  0  0  0  0  0  0
    7.5143  -13.5050   18.3324 N   0  0  0  0  0  0  0  0  0  0  0  0
    7.5830  -14.1247   20.6773 C   0  0  0  0  0  0  0  0  0  0  0  0
    6.5453  -13.4394   20.9186 O   0  0  0  0  0  0  0  0  0  0  0  0
    8.7793  -20.5507   23.3565 N   0  0  0  0  0  0  0  0  0  0  0  0
    8.4788  -20.1772   24.7034 C   0  0  0  0  0  0  0  0  0  0  0  0
    9.3401  -20.3796   25.6365 N   0  0  0  0  0  0  0  0  0  0  0  0
    7.2498  -19.5808   25.0665 N   0  0  0  0  0  0  0  0  0  0  0  0
    6.4421  -18.9256   24.0962 C   0  0  0  0  0  0  0  0  0  0  0  0
    6.4208  -17.4359   24.1504 C   0  0  0  0  0  0  0  0  0  0  0  0
    7.0716  -16.8924   22.9090 C   0  0  0  0  0  0  0  0  0  0  0  0
    7.1018  -15.3923   22.8115 C   0  0  2  0  0  0  0  0  0  0  0  0
    7.9174  -15.1268   21.5979 N   0  0  0  0  0  0  0  0  0  0  0  0
    7.8704  -14.8673   23.9661 C   0  0  0  0  0  0  0  0  0  0  0  0
    9.1114  -15.0498   24.0226 O   0  0  0  0  0  0  0  0  0  0  0  0
    9.1256  -20.1305   26.6288 N   0  0  0  0  0  0  0  0  0  0  0  0
    7.2925  -14.1525   25.0450 C   0  0  2  0  0  0  0  0  0  0  0  0
    8.0292  -13.7064   26.2004 C   0  0  0  0  0  0  0  0  0  0  0  0
    7.0975  -12.8053   27.0227 S   0  0  0  0  0  0  0  0  0  0  0  0
    6.4297  -11.4807   25.9640 C   0  0  0  0  0  0  0  0  0  0  0  0
    8.5348  -14.8097   27.0339 O   0  0  0  0  0  0  0  0  0  0  0  0
    8.2070  -15.9820   26.7798 O   0  0  0  0  0  0  0  0  0  0  0  0
  1  2  1  0
  3  4  1  6
  3  2  1  0
  5  3  1  0
  6  5  2  0
  7  8  1  0
  8  9  2  0
  8 10  1  0
 10 11  1  0
 11 12  1  0
 14 13  1  1
 13 12  1  0
 14 15  1  0
 15  5  1  0
 16 14  1  0
 16 18  1  0
 17 16  2  0
 19 18  1  0
 19 20  1  6
 20 21  1  0
 22 19  1  0
 22 24  1  0
 23 22  2  0
M  END
$$$$
