SRC.pdb
     RDKit          3D

 24 23  0  0  1  0  0  0  0  0999 V2000
    9.4238  -11.8760   18.5103 O   0  0  0  0  0  0  0  0  0  0  0  0
    8.6370  -12.4459   19.5273 C   0  0  0  0  0  0  0  0  0  0  0  0
    8.5114  -13.9446   19.2968 C   0  0  2  0  0  0  0  0  0  0  0  0
    7.6634  -14.1383   18.1296 N   0  0  0  0  0  0  0  0  0  0  0  0
    7.9407  -14.6228   20.4909 C   0  0  0  0  0  0  0  0  0  0  0  0
    6.6860  -14.6246   20.6654 O   0  0  0  0  0  0  0  0  0  0  0  0
    6.9782  -21.9371   21.0605 N   0  0  0  0  0  0  0  0  0  0  0  0
    7.8569  -20.8299   20.8459 C   0  0  0  0  0  0  0  0  0  0  0  0
    7.5556  -19.9248   19.9836 N   0  0  0  0  0  0  0  0  0  0  0  0
    9.0706  -20.6794   21.5546 N   0  0  0  0  0  0  0  0  0  0  0  0
    9.3240  -19.5129   22.3281 C   0  0  0  0  0  0  0  0  0  0  0  0
    8.3904  -18.3687   22.1241 C   0  0  0  0  0  0  0  0  0  0  0  0
    8.9286  -17.1644   22.8453 C   0  0  0  0  0  0  0  0  0  0  0  0
    8.1294  -15.9040   22.6625 C   0  0  2  0  0  0  0  0  0  0  0  0
    8.7225  -15.2736   21.4545 N   0  0  0  0  0  0  0  0  0  0  0  0
    8.4198  -15.0006   23.8022 C   0  0  0  0  0  0  0  0  0  0  0  0
    9.6005  -14.6332   24.0202 O   0  0  0  0  0  0  0  0  0  0  0  0
    8.2675  -19.2295   19.6637 N   0  0  0  0  0  0  0  0  0  0  0  0
    7.4347  -14.5045   24.6925 C   0  0  2  0  0  0  0  0  0  0  0  0
    7.7232  -13.6460   25.8135 C   0  0  0  0  0  0  0  0  0  0  0  0
    6.4489  -12.8491   26.1250 S   0  0  0  0  0  0  0  0  0  0  0  0
    6.7194  -11.8049   27.5940 C   0  0  0  0  0  0  0  0  0  0  0  0
    8.1705  -14.3772   27.0106 O   0  0  0  0  0  0  0  0  0  0  0  0
    7.7905  -15.5454   27.2042 O   0  0  0  0  0  0  0  0  0  0  0  0
  1  2  1  0
  3  4  1  6
  3  2  1  0
  5  3  1  0
  6  5  2  0
  7  8  1  0
  8  9  2  0
  8 10  1  0
 10 11  1  0
 11 12  1  0
 14 13  1  1
 13 12  1  0
 14 15  1  0
 15  5  1  0
 16 14  1  0
 16 18  1  0
 17 16  2  0
 19 18  1  0
 19 20  1  6
 20 21  1  0
 22 19  1  0
 22 24  1  0
 23 22  2  0
M  END
$$$$
