SRC.pdb
     RDKit          3D

 24 23  0  0  1  0  0  0  0  0999 V2000
   16.2395  -18.2500   19.1735 O   0  0  0  0  0  0  0  0  0  0  0  0
   15.3851  -18.1722   18.0591 C   0  0  0  0  0  0  0  0  0  0  0  0
   15.3220  -16.7352   17.5630 C   0  0  2  0  0  0  0  0  0  0  0  0
   16.6872  -16.2343   17.4981 N   0  0  0  0  0  0  0  0  0  0  0  0
   14.4865  -15.8958   18.4624 C   0  0  0  0  0  0  0  0  0  0  0  0
   15.0439  -15.2136   19.3727 O   0  0  0  0  0  0  0  0  0  0  0  0
    7.4777  -13.7552   21.2777 N   0  0  0  0  0  0  0  0  0  0  0  0
    7.6376  -12.6671   20.3642 C   0  0  0  0  0  0  0  0  0  0  0  0
    7.6552  -11.4571   20.7989 N   0  0  0  0  0  0  0  0  0  0  0  0
    7.7811  -12.8637   18.9718 N   0  0  0  0  0  0  0  0  0  0  0  0
    8.7964  -13.7160   18.4562 C   0  0  0  0  0  0  0  0  0  0  0  0
    9.9983  -13.9086   19.3170 C   0  0  0  0  0  0  0  0  0  0  0  0
   10.9892  -14.7717   18.5868 C   0  0  0  0  0  0  0  0  0  0  0  0
   12.2732  -15.0298   19.3252 C   0  0  2  0  0  0  0  0  0  0  0  0
   13.0915  -15.8116   18.3620 N   0  0  0  0  0  0  0  0  0  0  0  0
   11.9798  -15.9306   20.4663 C   0  0  0  0  0  0  0  0  0  0  0  0
   11.6353  -17.1183   20.2492 O   0  0  0  0  0  0  0  0  0  0  0  0
    7.7700  -10.6521   20.1421 N   0  0  0  0  0  0  0  0  0  0  0  0
   12.0612  -15.5405   21.8265 C   0  0  2  0  0  0  0  0  0  0  0  0
   11.7094  -16.3967   22.9310 C   0  0  0  0  0  0  0  0  0  0  0  0
   11.4792  -15.5002   24.1554 S   0  0  0  0  0  0  0  0  0  0  0  0
   11.0249  -16.5250   25.5923 C   0  0  0  0  0  0  0  0  0  0  0  0
   10.5178  -17.2226   22.6748 O   0  0  0  0  0  0  0  0  0  0  0  0
    9.5367  -16.7338   22.0876 O   0  0  0  0  0  0  0  0  0  0  0  0
  1  2  1  0
  3  4  1  1
  3  2  1  0
  5  3  1  0
  6  5  2  0
  7  8  1  0
  8  9  2  0
  8 10  1  0
 10 11  1  0
 11 12  1  0
 14 13  1  6
 13 12  1  0
 14 15  1  0
 15  5  1  0
 16 14  1  0
 16 18  1  0
 17 16  2  0
 19 18  1  0
 19 20  1  1
 20 21  1  0
 22 19  1  0
 22 24  1  0
 23 22  2  0
M  END
$$$$
