SRC.pdb
     RDKit          3D

 24 23  0  0  1  0  0  0  0  0999 V2000
    6.5606  -15.0999   17.8804 O   0  0  0  0  0  0  0  0  0  0  0  0
    7.7312  -14.3217   17.9261 C   0  0  0  0  0  0  0  0  0  0  0  0
    7.7566  -13.5122   19.2142 C   0  0  2  0  0  0  0  0  0  0  0  0
    8.9311  -12.6536   19.1685 N   0  0  0  0  0  0  0  0  0  0  0  0
    7.7914  -14.4031   20.4044 C   0  0  0  0  0  0  0  0  0  0  0  0
    6.7438  -15.0290   20.7444 O   0  0  0  0  0  0  0  0  0  0  0  0
   12.1191  -20.0474   18.7269 N   0  0  0  0  0  0  0  0  0  0  0  0
   11.8334  -20.3418   20.0965 C   0  0  0  0  0  0  0  0  0  0  0  0
   11.8500  -21.5586   20.5119 N   0  0  0  0  0  0  0  0  0  0  0  0
   11.5267  -19.3336   21.0385 N   0  0  0  0  0  0  0  0  0  0  0  0
   11.4846  -17.9647   20.6544 C   0  0  0  0  0  0  0  0  0  0  0  0
   10.1733  -17.2736   20.8123 C   0  0  0  0  0  0  0  0  0  0  0  0
   10.2345  -16.3791   22.0191 C   0  0  0  0  0  0  0  0  0  0  0  0
    8.9827  -15.5920   22.2914 C   0  0  2  0  0  0  0  0  0  0  0  0
    8.9362  -14.5967   21.1889 N   0  0  0  0  0  0  0  0  0  0  0  0
    9.1779  -14.8290   23.5480 C   0  0  0  0  0  0  0  0  0  0  0  0
    9.8694  -13.7809   23.5388 O   0  0  0  0  0  0  0  0  0  0  0  0
   11.6059  -21.7918   21.5011 N   0  0  0  0  0  0  0  0  0  0  0  0
    8.6259  -15.2045   24.7983 C   0  0  2  0  0  0  0  0  0  0  0  0
    8.8317  -14.4703   26.0212 C   0  0  0  0  0  0  0  0  0  0  0  0
    7.6212  -13.5466   26.2146 S   0  0  0  0  0  0  0  0  0  0  0  0
    7.8275  -12.5729   27.7414 C   0  0  0  0  0  0  0  0  0  0  0  0
    9.0049  -15.3345   27.2005 O   0  0  0  0  0  0  0  0  0  0  0  0
    8.6573  -16.5277   27.1539 O   0  0  0  0  0  0  0  0  0  0  0  0
  1  2  1  0
  3  4  1  6
  3  2  1  0
  5  3  1  0
  6  5  2  0
  7  8  1  0
  8  9  2  0
  8 10  1  0
 10 11  1  0
 11 12  1  0
 14 13  1  6
 13 12  1  0
 14 15  1  0
 15  5  1  0
 16 14  1  0
 16 18  1  0
 17 16  2  0
 19 18  1  0
 19 20  1  1
 20 21  1  0
 22 19  1  0
 22 24  1  0
 23 22  2  0
M  END
$$$$
