SRC.pdb
     RDKit          3D

 24 23  0  0  1  0  0  0  0  0999 V2000
    8.9488  -11.6196   18.4458 O   0  0  0  0  0  0  0  0  0  0  0  0
    8.4869  -12.3202   19.5745 C   0  0  0  0  0  0  0  0  0  0  0  0
    8.4132  -13.8067   19.2581 C   0  0  2  0  0  0  0  0  0  0  0  0
    7.3183  -14.0003   18.3186 N   0  0  0  0  0  0  0  0  0  0  0  0
    8.2047  -14.6063   20.4944 C   0  0  0  0  0  0  0  0  0  0  0  0
    7.0276  -14.9201   20.8417 O   0  0  0  0  0  0  0  0  0  0  0  0
   12.8721  -18.7475   19.1500 N   0  0  0  0  0  0  0  0  0  0  0  0
   11.9296  -19.8220   19.1820 C   0  0  0  0  0  0  0  0  0  0  0  0
   11.9031  -20.6856   18.2297 N   0  0  0  0  0  0  0  0  0  0  0  0
   11.0032  -19.9840   20.2373 N   0  0  0  0  0  0  0  0  0  0  0  0
   10.9766  -19.0746   21.3307 C   0  0  0  0  0  0  0  0  0  0  0  0
    9.7940  -18.1704   21.4100 C   0  0  0  0  0  0  0  0  0  0  0  0
   10.1322  -16.9996   22.2903 C   0  0  0  0  0  0  0  0  0  0  0  0
    9.0353  -15.9831   22.4458 C   0  0  2  0  0  0  0  0  0  0  0  0
    9.2528  -15.0431   21.3155 N   0  0  0  0  0  0  0  0  0  0  0  0
    9.2842  -15.2182   23.6917 C   0  0  0  0  0  0  0  0  0  0  0  0
   10.3246  -14.5235   23.7983 O   0  0  0  0  0  0  0  0  0  0  0  0
   11.2495  -21.5006   18.2617 N   0  0  0  0  0  0  0  0  0  0  0  0
    8.4091  -15.2112   24.8067 C   0  0  1  0  0  0  0  0  0  0  0  0
    8.6630  -14.4820   26.0235 C   0  0  0  0  0  0  0  0  0  0  0  0
    7.4595  -13.5617   26.2702 S   0  0  0  0  0  0  0  0  0  0  0  0
    7.6979  -12.6395   27.8240 C   0  0  0  0  0  0  0  0  0  0  0  0
    8.8857  -15.3510   27.1909 O   0  0  0  0  0  0  0  0  0  0  0  0
    8.5343  -16.5434   27.1549 O   0  0  0  0  0  0  0  0  0  0  0  0
  1  2  1  0
  3  4  1  6
  3  2  1  0
  5  3  1  0
  6  5  2  0
  7  8  1  0
  8  9  2  0
  8 10  1  0
 10 11  1  0
 11 12  1  0
 14 13  1  6
 13 12  1  0
 14 15  1  0
 15  5  1  0
 16 14  1  0
 16 18  1  0
 17 16  2  0
 19 18  1  0
 19 20  1  1
 20 21  1  0
 22 19  1  0
 22 24  1  0
 23 22  2  0
M  END
$$$$
