SRC.pdb
     RDKit          3D

 24 23  0  0  1  0  0  0  0  0999 V2000
    8.3350  -16.1877   18.9649 O   0  0  0  0  0  0  0  0  0  0  0  0
    8.5325  -15.1126   18.0799 C   0  0  0  0  0  0  0  0  0  0  0  0
    9.5808  -15.4900   17.0436 C   0  0  2  0  0  0  0  0  0  0  0  0
    9.0705  -16.6334   16.3012 N   0  0  0  0  0  0  0  0  0  0  0  0
   10.8810  -15.8096   17.6908 C   0  0  0  0  0  0  0  0  0  0  0  0
   11.1384  -17.0075   18.0124 O   0  0  0  0  0  0  0  0  0  0  0  0
   18.1588  -11.2595   16.7140 N   0  0  0  0  0  0  0  0  0  0  0  0
   18.6330  -12.3466   17.5123 C   0  0  0  0  0  0  0  0  0  0  0  0
   19.8871  -12.4551   17.7750 N   0  0  0  0  0  0  0  0  0  0  0  0
   17.7671  -13.3315   18.0396 N   0  0  0  0  0  0  0  0  0  0  0  0
   16.3658  -13.2734   17.8026 C   0  0  0  0  0  0  0  0  0  0  0  0
   15.5317  -14.2802   18.5188 C   0  0  0  0  0  0  0  0  0  0  0  0
   14.1017  -14.1319   18.0792 C   0  0  0  0  0  0  0  0  0  0  0  0
   13.1690  -15.2004   18.5780 C   0  0  2  0  0  0  0  0  0  0  0  0
   11.8591  -14.8464   17.9720 N   0  0  0  0  0  0  0  0  0  0  0  0
   13.0191  -15.0385   20.0445 C   0  0  0  0  0  0  0  0  0  0  0  0
   12.5188  -13.9836   20.5064 O   0  0  0  0  0  0  0  0  0  0  0  0
   20.2570  -13.2817   18.2970 N   0  0  0  0  0  0  0  0  0  0  0  0
   13.4100  -16.0149   20.9947 C   0  0  2  0  0  0  0  0  0  0  0  0
   13.3567  -15.8156   22.4210 C   0  0  0  0  0  0  0  0  0  0  0  0
   12.2143  -16.6837   22.9664 S   0  0  0  0  0  0  0  0  0  0  0  0
   12.2038  -16.6143   24.7875 C   0  0  0  0  0  0  0  0  0  0  0  0
   14.6175  -16.1462   23.1056 O   0  0  0  0  0  0  0  0  0  0  0  0
   15.4781  -16.8326   22.5271 O   0  0  0  0  0  0  0  0  0  0  0  0
  1  2  1  0
  3  4  1  1
  3  2  1  0
  5  3  1  0
  6  5  2  0
  7  8  1  0
  8  9  2  0
  8 10  1  0
 10 11  1  0
 11 12  1  0
 14 13  1  6
 13 12  1  0
 14 15  1  0
 15  5  1  0
 16 14  1  0
 16 18  1  0
 17 16  2  0
 19 18  1  0
 19 20  1  6
 20 21  1  0
 22 19  1  0
 22 24  1  0
 23 22  2  0
M  END
$$$$
