SRC.pdb
     RDKit          3D

 24 23  0  0  1  0  0  0  0  0999 V2000
    9.4255  -21.2161   21.9820 O   0  0  0  0  0  0  0  0  0  0  0  0
    8.1956  -21.2318   21.2999 C   0  0  0  0  0  0  0  0  0  0  0  0
    7.3715  -20.0183   21.7044 C   0  0  2  0  0  0  0  0  0  0  0  0
    6.0808  -20.1246   21.0399 N   0  0  0  0  0  0  0  0  0  0  0  0
    8.0624  -18.7552   21.3320 C   0  0  0  0  0  0  0  0  0  0  0  0
    9.0484  -18.7958   20.5377 O   0  0  0  0  0  0  0  0  0  0  0  0
    7.4856  -12.4880   17.0247 N   0  0  0  0  0  0  0  0  0  0  0  0
    8.0817  -13.7240   17.4261 C   0  0  0  0  0  0  0  0  0  0  0  0
    8.5131  -14.5500   16.5401 N   0  0  0  0  0  0  0  0  0  0  0  0
    8.2231  -14.0893   18.7842 N   0  0  0  0  0  0  0  0  0  0  0  0
    7.5656  -13.3547   19.8096 C   0  0  0  0  0  0  0  0  0  0  0  0
    7.8229  -13.7980   21.2095 C   0  0  0  0  0  0  0  0  0  0  0  0
    7.3309  -15.2091   21.3734 C   0  0  0  0  0  0  0  0  0  0  0  0
    8.4095  -16.2535   21.4522 C   0  0  2  0  0  0  0  0  0  0  0  0
    7.6810  -17.4967   21.8159 N   0  0  0  0  0  0  0  0  0  0  0  0
    9.2917  -15.9246   22.5980 C   0  0  0  0  0  0  0  0  0  0  0  0
    8.7923  -15.4792   23.6604 O   0  0  0  0  0  0  0  0  0  0  0  0
    8.9562  -15.4545   16.8196 N   0  0  0  0  0  0  0  0  0  0  0  0
   10.7006  -16.0796   22.5848 C   0  0  2  0  0  0  0  0  0  0  0  0
   11.5113  -16.1645   23.7732 C   0  0  0  0  0  0  0  0  0  0  0  0
   10.9770  -17.3318   24.6146 S   0  0  0  0  0  0  0  0  0  0  0  0
   11.4130  -17.0786   26.3660 C   0  0  0  0  0  0  0  0  0  0  0  0
   12.9439  -16.3550   23.4919 O   0  0  0  0  0  0  0  0  0  0  0  0
   13.3028  -16.9024   22.4346 O   0  0  0  0  0  0  0  0  0  0  0  0
  1  2  1  0
  3  4  1  6
  3  2  1  0
  5  3  1  0
  6  5  2  0
  7  8  1  0
  8  9  2  0
  8 10  1  0
 10 11  1  0
 11 12  1  0
 14 13  1  1
 13 12  1  0
 14 15  1  0
 15  5  1  0
 16 14  1  0
 16 18  1  0
 17 16  2  0
 19 18  1  0
 19 20  1  1
 20 21  1  0
 22 19  1  0
 22 24  1  0
 23 22  2  0
M  END
$$$$
