SRC.pdb
     RDKit          3D

 24 23  0  0  1  0  0  0  0  0999 V2000
    9.8147  -21.9591   20.5275 O   0  0  0  0  0  0  0  0  0  0  0  0
    8.5100  -22.1964   20.0589 C   0  0  0  0  0  0  0  0  0  0  0  0
    8.1567  -21.1722   18.9907 C   0  0  2  0  0  0  0  0  0  0  0  0
    8.5270  -21.7385   17.7019 N   0  0  0  0  0  0  0  0  0  0  0  0
    8.8609  -19.8847   19.2313 C   0  0  0  0  0  0  0  0  0  0  0  0
   10.0486  -19.7377   18.8160 O   0  0  0  0  0  0  0  0  0  0  0  0
    8.5985  -12.7554   18.8451 N   0  0  0  0  0  0  0  0  0  0  0  0
    8.2808  -12.2568   20.1469 C   0  0  0  0  0  0  0  0  0  0  0  0
    8.8747  -11.2099   20.5994 N   0  0  0  0  0  0  0  0  0  0  0  0
    7.3210  -12.8753   20.9800 N   0  0  0  0  0  0  0  0  0  0  0  0
    7.1072  -14.2806   20.9282 C   0  0  0  0  0  0  0  0  0  0  0  0
    8.3071  -15.1225   20.6568 C   0  0  0  0  0  0  0  0  0  0  0  0
    7.8639  -16.5343   20.3916 C   0  0  0  0  0  0  0  0  0  0  0  0
    8.9689  -17.4934   20.0458 C   0  0  2  0  0  0  0  0  0  0  0  0
    8.2785  -18.8016   19.9030 N   0  0  0  0  0  0  0  0  0  0  0  0
    9.8670  -17.6102   21.2201 C   0  0  0  0  0  0  0  0  0  0  0  0
    9.4604  -18.1844   22.2601 O   0  0  0  0  0  0  0  0  0  0  0  0
    8.6181  -10.8063   21.5288 N   0  0  0  0  0  0  0  0  0  0  0  0
   11.1915  -17.1070   21.2593 C   0  0  2  0  0  0  0  0  0  0  0  0
   12.0465  -17.1826   22.4169 C   0  0  0  0  0  0  0  0  0  0  0  0
   13.2726  -16.3005   22.1440 S   0  0  0  0  0  0  0  0  0  0  0  0
   14.4617  -16.4574   23.5162 C   0  0  0  0  0  0  0  0  0  0  0  0
   11.3841  -16.7607   23.6622 O   0  0  0  0  0  0  0  0  0  0  0  0
   11.5793  -17.3924   24.7155 O   0  0  0  0  0  0  0  0  0  0  0  0
  1  2  1  0
  3  4  1  6
  3  2  1  0
  5  3  1  0
  6  5  2  0
  7  8  1  0
  8  9  2  0
  8 10  1  0
 10 11  1  0
 11 12  1  0
 14 13  1  1
 13 12  1  0
 14 15  1  0
 15  5  1  0
 16 14  1  0
 16 18  1  0
 17 16  2  0
 19 18  1  0
 19 20  1  6
 20 21  1  0
 22 19  1  0
 22 24  1  0
 23 22  2  0
M  END
$$$$
