SRC.pdb
     RDKit          3D

 24 23  0  0  1  0  0  0  0  0999 V2000
    9.2818  -12.3065   19.8043 O   0  0  0  0  0  0  0  0  0  0  0  0
    9.5432  -13.6716   19.5893 C   0  0  0  0  0  0  0  0  0  0  0  0
    8.2332  -14.4146   19.3725 C   0  0  2  0  0  0  0  0  0  0  0  0
    7.3951  -13.5844   18.5197 N   0  0  0  0  0  0  0  0  0  0  0  0
    7.5607  -14.7008   20.6676 C   0  0  0  0  0  0  0  0  0  0  0  0
    6.5330  -14.0368   20.9955 O   0  0  0  0  0  0  0  0  0  0  0  0
    8.4552  -18.1433   27.3776 N   0  0  0  0  0  0  0  0  0  0  0  0
    7.9195  -19.4535   27.1770 C   0  0  0  0  0  0  0  0  0  0  0  0
    8.0368  -20.3460   28.0952 N   0  0  0  0  0  0  0  0  0  0  0  0
    7.2503  -19.8230   25.9880 N   0  0  0  0  0  0  0  0  0  0  0  0
    7.5955  -19.2298   24.7421 C   0  0  0  0  0  0  0  0  0  0  0  0
    7.2543  -17.7878   24.5791 C   0  0  0  0  0  0  0  0  0  0  0  0
    7.6698  -17.3395   23.2057 C   0  0  0  0  0  0  0  0  0  0  0  0
    7.3457  -15.9082   22.8788 C   0  0  2  0  0  0  0  0  0  0  0  0
    8.0036  -15.6809   21.5658 N   0  0  0  0  0  0  0  0  0  0  0  0
    8.0392  -15.0392   23.8603 C   0  0  0  0  0  0  0  0  0  0  0  0
    8.9856  -14.3055   23.4826 O   0  0  0  0  0  0  0  0  0  0  0  0
    7.6981  -21.3228   27.9412 N   0  0  0  0  0  0  0  0  0  0  0  0
    7.7044  -14.9714   25.2359 C   0  0  2  0  0  0  0  0  0  0  0  0
    7.8058  -13.7732   26.0301 C   0  0  0  0  0  0  0  0  0  0  0  0
    6.6383  -12.8578   25.6363 S   0  0  0  0  0  0  0  0  0  0  0  0
    6.6326  -11.3761   26.6975 C   0  0  0  0  0  0  0  0  0  0  0  0
    7.7845  -14.0285   27.4799 O   0  0  0  0  0  0  0  0  0  0  0  0
    7.3996  -15.1292   27.9121 O   0  0  0  0  0  0  0  0  0  0  0  0
  1  2  1  0
  3  4  1  6
  3  2  1  0
  5  3  1  0
  6  5  2  0
  7  8  1  0
  8  9  2  0
  8 10  1  0
 10 11  1  0
 11 12  1  0
 14 13  1  1
 13 12  1  0
 14 15  1  0
 15  5  1  0
 16 14  1  0
 16 18  1  0
 17 16  2  0
 19 18  1  0
 19 20  1  6
 20 21  1  0
 22 19  1  0
 22 24  1  0
 23 22  2  0
M  END
$$$$
