DMP.pdb
     RDKit          3D

 24 24  0  0  1  0  0  0  0  0999 V2000
    5.0214  -19.8130   23.6740 N   0  0  0  0  0  0  0  0  0  0  0  0
    6.3035  -19.2347   24.1338 C   0  0  1  0  0  0  0  0  0  0  0  0
    7.3816  -19.9838   23.4018 C   0  0  0  0  0  0  0  0  0  0  0  0
    7.8773  -21.1841   24.0631 C   0  0  0  0  0  0  0  0  0  0  0  0
    8.2547  -21.1641   25.2526 O   0  0  0  0  0  0  0  0  0  0  0  0
    6.2752  -17.8258   23.6919 C   0  0  0  0  0  0  0  0  0  0  0  0
    5.7733  -17.4897   22.5997 O   0  0  0  0  0  0  0  0  0  0  0  0
    7.9421  -22.3854   23.3825 O   0  0  0  0  0  0  0  0  0  0  0  0
    6.0344  -11.9656   27.3635 C   0  0  0  0  0  0  0  0  0  0  0  0
    7.6869  -12.5413   26.8600 S   0  0  0  0  0  0  0  0  0  0  0  0
    7.6203  -13.2392   25.1657 C   0  0  0  0  0  0  0  0  0  0  0  0
    7.2285  -14.6452   25.2777 C   0  0  0  0  0  0  0  0  0  0  0  0
    6.9751  -15.4058   23.9903 C   0  0  2  0  0  0  0  0  0  0  0  0
    6.8215  -16.8051   24.5022 N   0  0  0  0  0  0  0  0  0  0  0  0
    8.0881  -15.4020   23.0476 C   0  0  0  0  0  0  0  0  0  0  0  0
    9.0534  -16.2165   23.2975 O   0  0  0  0  0  0  0  0  0  0  0  0
    8.2388  -14.6116   21.8803 N   0  0  0  0  0  0  0  0  0  0  0  0
    7.3664  -13.4373   21.6576 C   0  0  0  0  0  0  0  0  0  0  0  0
    8.0234  -12.6299   20.5849 C   0  0  0  0  0  0  0  0  0  0  0  0
    8.6546  -13.7118   19.7504 C   0  0  0  0  0  0  0  0  0  0  0  0
    9.1665  -14.6886   20.7940 C   0  0  1  0  0  0  0  0  0  0  0  0
   10.5143  -14.1369   21.1922 C   0  0  0  0  0  0  0  0  0  0  0  0
   11.4724  -14.1619   20.3806 O   0  0  0  0  0  0  0  0  0  0  0  0
   10.7521  -13.5897   22.4428 O   0  0  0  0  0  0  0  0  0  0  0  0
  2  1  1  6
  2  3  1  0
  3  4  1  0
  4  8  1  0
  5  4  2  0
  6  2  1  0
  7  6  2  0
  9 10  1  0
 10 11  1  0
 11 12  1  0
 13 12  1  1
 13 15  1  0
 13 14  1  0
 14  6  1  0
 15 17  1  0
 16 15  2  0
 17 18  1  0
 17 21  1  0
 19 18  1  0
 20 19  1  0
 20 21  1  0
 21 22  1  1
 22 23  2  0
 22 24  1  0
M  END
$$$$
