DMP.pdb
     RDKit          3D

 24 24  0  0  1  0  0  0  0  0999 V2000
    7.8842  -14.3449   19.3752 N   0  0  0  0  0  0  0  0  0  0  0  0
    7.4865  -15.4407   20.2867 C   0  0  1  0  0  0  0  0  0  0  0  0
    8.0723  -16.6966   19.7045 C   0  0  0  0  0  0  0  0  0  0  0  0
    7.4259  -17.1941   18.4969 C   0  0  0  0  0  0  0  0  0  0  0  0
    7.8936  -16.9600   17.3636 O   0  0  0  0  0  0  0  0  0  0  0  0
    8.1356  -15.1287   21.5761 C   0  0  0  0  0  0  0  0  0  0  0  0
    9.3213  -14.7440   21.6388 O   0  0  0  0  0  0  0  0  0  0  0  0
    6.2681  -17.9447   18.5779 O   0  0  0  0  0  0  0  0  0  0  0  0
    7.4440  -10.9573   26.8170 C   0  0  0  0  0  0  0  0  0  0  0  0
    6.1937  -12.1611   26.2665 S   0  0  0  0  0  0  0  0  0  0  0  0
    6.6846  -12.8849   24.6549 C   0  0  0  0  0  0  0  0  0  0  0  0
    6.9214  -14.3146   24.8618 C   0  0  0  0  0  0  0  0  0  0  0  0
    8.0725  -14.9500   24.1059 C   0  0  2  0  0  0  0  0  0  0  0  0
    7.4249  -15.2577   22.7907 N   0  0  0  0  0  0  0  0  0  0  0  0
    8.5519  -16.2088   24.6653 C   0  0  0  0  0  0  0  0  0  0  0  0
    7.7004  -17.1730   24.7188 O   0  0  0  0  0  0  0  0  0  0  0  0
    9.8480  -16.5068   25.1565 N   0  0  0  0  0  0  0  0  0  0  0  0
   10.9009  -15.4670   25.1599 C   0  0  0  0  0  0  0  0  0  0  0  0
   11.9757  -15.9680   26.0699 C   0  0  0  0  0  0  0  0  0  0  0  0
   11.8888  -17.4521   25.8350 C   0  0  0  0  0  0  0  0  0  0  0  0
   10.3925  -17.6928   25.7423 C   0  0  1  0  0  0  0  0  0  0  0  0
    9.9489  -17.8412   27.1779 C   0  0  0  0  0  0  0  0  0  0  0  0
    9.3747  -16.8902   27.7636 O   0  0  0  0  0  0  0  0  0  0  0  0
   10.1497  -19.0067   27.8999 O   0  0  0  0  0  0  0  0  0  0  0  0
  2  1  1  6
  2  3  1  0
  3  4  1  0
  4  8  1  0
  5  4  2  0
  6  2  1  0
  7  6  2  0
  9 10  1  0
 10 11  1  0
 11 12  1  0
 13 12  1  1
 13 15  1  0
 13 14  1  0
 14  6  1  0
 15 17  1  0
 16 15  2  0
 17 18  1  0
 17 21  1  0
 19 18  1  0
 20 19  1  0
 20 21  1  0
 21 22  1  1
 22 23  2  0
 22 24  1  0
M  END
$$$$
