DMP.pdb
     RDKit          3D

 24 24  0  0  1  0  0  0  0  0999 V2000
    8.6118  -15.0839   19.9367 N   0  0  0  0  0  0  0  0  0  0  0  0
    7.9721  -15.8842   21.0044 C   0  0  1  0  0  0  0  0  0  0  0  0
    8.5202  -17.2766   20.8627 C   0  0  0  0  0  0  0  0  0  0  0  0
    9.9486  -17.3683   20.5891 C   0  0  0  0  0  0  0  0  0  0  0  0
   10.4174  -17.0808   19.4686 O   0  0  0  0  0  0  0  0  0  0  0  0
    8.4355  -15.2833   22.2714 C   0  0  0  0  0  0  0  0  0  0  0  0
    9.5064  -14.6464   22.3435 O   0  0  0  0  0  0  0  0  0  0  0  0
   10.8276  -17.7798   21.5733 O   0  0  0  0  0  0  0  0  0  0  0  0
    7.0723  -11.0471   27.1315 C   0  0  0  0  0  0  0  0  0  0  0  0
    5.8787  -12.3937   26.8528 S   0  0  0  0  0  0  0  0  0  0  0  0
    6.7555  -14.0014   26.7582 C   0  0  0  0  0  0  0  0  0  0  0  0
    6.7594  -14.4253   25.3571 C   0  0  0  0  0  0  0  0  0  0  0  0
    8.0995  -14.7598   24.7308 C   0  0  2  0  0  0  0  0  0  0  0  0
    7.6708  -15.4127   23.4527 N   0  0  0  0  0  0  0  0  0  0  0  0
    8.8978  -15.7287   25.4735 C   0  0  0  0  0  0  0  0  0  0  0  0
    8.7046  -16.9692   25.1879 O   0  0  0  0  0  0  0  0  0  0  0  0
    9.8695  -15.4735   26.4738 N   0  0  0  0  0  0  0  0  0  0  0  0
   10.0138  -14.1153   27.0433 C   0  0  0  0  0  0  0  0  0  0  0  0
   10.8120  -14.2739   28.2970 C   0  0  0  0  0  0  0  0  0  0  0  0
   11.7163  -15.4179   27.9247 C   0  0  0  0  0  0  0  0  0  0  0  0
   10.7950  -16.3361   27.1413 C   0  0  1  0  0  0  0  0  0  0  0  0
   10.1016  -17.1601   28.1995 C   0  0  0  0  0  0  0  0  0  0  0  0
   10.7166  -18.0866   28.7830 O   0  0  0  0  0  0  0  0  0  0  0  0
    8.7845  -16.9380   28.5681 O   0  0  0  0  0  0  0  0  0  0  0  0
  2  1  1  6
  2  3  1  0
  3  4  1  0
  4  8  1  0
  5  4  2  0
  6  2  1  0
  7  6  2  0
  9 10  1  0
 10 11  1  0
 11 12  1  0
 13 12  1  1
 13 15  1  0
 13 14  1  0
 14  6  1  0
 15 17  1  0
 16 15  2  0
 17 18  1  0
 17 21  1  0
 19 18  1  0
 20 19  1  0
 20 21  1  0
 21 22  1  1
 22 23  2  0
 22 24  1  0
M  END
$$$$
