DMP.pdb
     RDKit          3D

 24 24  0  0  1  0  0  0  0  0999 V2000
    9.9900  -16.0838   20.0906 N   0  0  0  0  0  0  0  0  0  0  0  0
   10.3149  -16.8670   21.3033 C   0  0  1  0  0  0  0  0  0  0  0  0
   11.7874  -17.1582   21.2258 C   0  0  0  0  0  0  0  0  0  0  0  0
   12.1776  -18.1927   20.2763 C   0  0  0  0  0  0  0  0  0  0  0  0
   11.4343  -19.1644   20.0293 O   0  0  0  0  0  0  0  0  0  0  0  0
   10.0358  -15.9622   22.4367 C   0  0  0  0  0  0  0  0  0  0  0  0
   10.5542  -14.8298   22.5165 O   0  0  0  0  0  0  0  0  0  0  0  0
   13.3920  -18.1223   19.6200 O   0  0  0  0  0  0  0  0  0  0  0  0
    6.1640  -12.1562   27.0396 C   0  0  0  0  0  0  0  0  0  0  0  0
    6.8943  -13.0152   25.6098 S   0  0  0  0  0  0  0  0  0  0  0  0
    6.7017  -14.8288   25.8004 C   0  0  0  0  0  0  0  0  0  0  0  0
    7.3644  -15.4695   24.6633 C   0  0  0  0  0  0  0  0  0  0  0  0
    8.8808  -15.4540   24.6374 C   0  0  2  0  0  0  0  0  0  0  0  0
    9.1632  -16.3566   23.4759 N   0  0  0  0  0  0  0  0  0  0  0  0
    9.5192  -16.0363   25.8125 C   0  0  0  0  0  0  0  0  0  0  0  0
    9.5955  -17.3212   25.8454 O   0  0  0  0  0  0  0  0  0  0  0  0
   10.0741  -15.3599   26.9280 N   0  0  0  0  0  0  0  0  0  0  0  0
    9.7692  -13.9306   27.1602 C   0  0  0  0  0  0  0  0  0  0  0  0
   10.1676  -13.6456   28.5724 C   0  0  0  0  0  0  0  0  0  0  0  0
   11.3492  -14.5638   28.7335 C   0  0  0  0  0  0  0  0  0  0  0  0
   10.9068  -15.8163   27.9980 C   0  0  1  0  0  0  0  0  0  0  0  0
   10.1038  -16.5850   29.0197 C   0  0  0  0  0  0  0  0  0  0  0  0
   10.6853  -17.2064   29.9433 O   0  0  0  0  0  0  0  0  0  0  0  0
    8.7197  -16.6397   28.9873 O   0  0  0  0  0  0  0  0  0  0  0  0
  2  1  1  6
  2  3  1  0
  3  4  1  0
  4  8  1  0
  5  4  2  0
  6  2  1  0
  7  6  2  0
  9 10  1  0
 10 11  1  0
 11 12  1  0
 13 12  1  1
 13 15  1  0
 13 14  1  0
 14  6  1  0
 15 17  1  0
 16 15  2  0
 17 18  1  0
 17 21  1  0
 19 18  1  0
 20 19  1  0
 20 21  1  0
 21 22  1  1
 22 23  2  0
 22 24  1  0
M  END
$$$$
