DMP.pdb
     RDKit          3D

 24 24  0  0  1  0  0  0  0  0999 V2000
    5.4040  -19.6202   23.8816 N   0  0  0  0  0  0  0  0  0  0  0  0
    5.4578  -19.0618   22.5124 C   0  0  1  0  0  0  0  0  0  0  0  0
    4.1184  -19.3507   21.8945 C   0  0  0  0  0  0  0  0  0  0  0  0
    3.6724  -20.7359   21.9726 C   0  0  0  0  0  0  0  0  0  0  0  0
    4.4411  -21.6838   21.7112 O   0  0  0  0  0  0  0  0  0  0  0  0
    5.6297  -17.6060   22.6927 C   0  0  0  0  0  0  0  0  0  0  0  0
    5.0573  -16.7802   21.9524 O   0  0  0  0  0  0  0  0  0  0  0  0
    2.3746  -21.0365   22.3415 O   0  0  0  0  0  0  0  0  0  0  0  0
    6.9131  -11.7013   26.9900 C   0  0  0  0  0  0  0  0  0  0  0  0
    6.3968  -13.3246   26.3465 S   0  0  0  0  0  0  0  0  0  0  0  0
    7.8211  -14.1715   25.5614 C   0  0  0  0  0  0  0  0  0  0  0  0
    7.3757  -15.5036   25.1491 C   0  0  0  0  0  0  0  0  0  0  0  0
    6.9236  -15.6766   23.7118 C   0  0  2  0  0  0  0  0  0  0  0  0
    6.4564  -17.0997   23.7208 N   0  0  0  0  0  0  0  0  0  0  0  0
    7.9861  -15.5687   22.7183 C   0  0  0  0  0  0  0  0  0  0  0  0
    8.8478  -16.5251   22.6951 O   0  0  0  0  0  0  0  0  0  0  0  0
    8.1874  -14.5381   21.7659 N   0  0  0  0  0  0  0  0  0  0  0  0
    7.3647  -13.3089   21.8128 C   0  0  0  0  0  0  0  0  0  0  0  0
    8.0709  -12.3044   20.9604 C   0  0  0  0  0  0  0  0  0  0  0  0
    8.6747  -13.1905   19.9042 C   0  0  0  0  0  0  0  0  0  0  0  0
    9.1304  -14.4014   20.6988 C   0  0  1  0  0  0  0  0  0  0  0  0
   10.4912  -14.0123   21.2245 C   0  0  0  0  0  0  0  0  0  0  0  0
   10.6205  -13.6091   22.4069 O   0  0  0  0  0  0  0  0  0  0  0  0
   11.6349  -14.0801   20.4453 O   0  0  0  0  0  0  0  0  0  0  0  0
  2  1  1  1
  2  3  1  0
  3  4  1  0
  4  8  1  0
  5  4  2  0
  6  2  1  0
  7  6  2  0
  9 10  1  0
 10 11  1  0
 11 12  1  0
 13 12  1  1
 13 15  1  0
 13 14  1  0
 14  6  1  0
 15 17  1  0
 16 15  2  0
 17 18  1  0
 17 21  1  0
 19 18  1  0
 20 19  1  0
 20 21  1  0
 21 22  1  1
 22 23  2  0
 22 24  1  0
M  END
$$$$
