DMP.pdb
     RDKit          3D

 24 24  0  0  1  0  0  0  0  0999 V2000
    9.9951  -15.5931   20.2076 N   0  0  0  0  0  0  0  0  0  0  0  0
    9.9582  -16.5675   21.3206 C   0  0  1  0  0  0  0  0  0  0  0  0
   11.2842  -17.2749   21.2957 C   0  0  0  0  0  0  0  0  0  0  0  0
   11.4218  -18.3237   20.2933 C   0  0  0  0  0  0  0  0  0  0  0  0
   10.5330  -19.1835   20.1233 O   0  0  0  0  0  0  0  0  0  0  0  0
    9.8411  -15.7528   22.5469 C   0  0  0  0  0  0  0  0  0  0  0  0
   10.5430  -14.7373   22.7306 O   0  0  0  0  0  0  0  0  0  0  0  0
   12.5507  -18.3927   19.4987 O   0  0  0  0  0  0  0  0  0  0  0  0
    5.7005  -11.8749   26.0676 C   0  0  0  0  0  0  0  0  0  0  0  0
    7.1663  -12.9290   26.3043 S   0  0  0  0  0  0  0  0  0  0  0  0
    6.6971  -14.6968   26.1735 C   0  0  0  0  0  0  0  0  0  0  0  0
    7.2496  -15.2132   24.9202 C   0  0  0  0  0  0  0  0  0  0  0  0
    8.7598  -15.2615   24.7885 C   0  0  2  0  0  0  0  0  0  0  0  0
    8.9199  -16.1029   23.5597 N   0  0  0  0  0  0  0  0  0  0  0  0
    9.4482  -15.9415   25.8800 C   0  0  0  0  0  0  0  0  0  0  0  0
    9.5515  -17.2211   25.7832 O   0  0  0  0  0  0  0  0  0  0  0  0
   10.0257  -15.3652   27.0395 N   0  0  0  0  0  0  0  0  0  0  0  0
    9.7005  -13.9728   27.4206 C   0  0  0  0  0  0  0  0  0  0  0  0
   10.1389  -13.8184   28.8412 C   0  0  0  0  0  0  0  0  0  0  0  0
   11.3428  -14.7210   28.8751 C   0  0  0  0  0  0  0  0  0  0  0  0
   10.9014  -15.9052   28.0334 C   0  0  1  0  0  0  0  0  0  0  0  0
   10.1471  -16.7882   28.9983 C   0  0  0  0  0  0  0  0  0  0  0  0
    8.8932  -16.8441   28.9562 O   0  0  0  0  0  0  0  0  0  0  0  0
   10.7881  -17.5606   29.9536 O   0  0  0  0  0  0  0  0  0  0  0  0
  2  1  1  6
  2  3  1  0
  3  4  1  0
  4  8  1  0
  5  4  2  0
  6  2  1  0
  7  6  2  0
  9 10  1  0
 10 11  1  0
 11 12  1  0
 13 12  1  1
 13 15  1  0
 13 14  1  0
 14  6  1  0
 15 17  1  0
 16 15  2  0
 17 18  1  0
 17 21  1  0
 19 18  1  0
 20 19  1  0
 20 21  1  0
 21 22  1  1
 22 23  2  0
 22 24  1  0
M  END
$$$$
