DMP.pdb
     RDKit          3D

 24 24  0  0  1  0  0  0  0  0999 V2000
   10.4330  -15.9102   20.1652 N   0  0  0  0  0  0  0  0  0  0  0  0
   10.3373  -16.8337   21.3174 C   0  0  1  0  0  0  0  0  0  0  0  0
   11.6700  -17.5228   21.4075 C   0  0  0  0  0  0  0  0  0  0  0  0
   11.8899  -18.6001   20.4510 C   0  0  0  0  0  0  0  0  0  0  0  0
   12.9591  -19.2436   20.4286 O   0  0  0  0  0  0  0  0  0  0  0  0
   10.1344  -15.9661   22.4953 C   0  0  0  0  0  0  0  0  0  0  0  0
   10.8620  -14.9762   22.7153 O   0  0  0  0  0  0  0  0  0  0  0  0
   10.9104  -18.9386   19.5364 O   0  0  0  0  0  0  0  0  0  0  0  0
    6.1544  -11.9002   26.8695 C   0  0  0  0  0  0  0  0  0  0  0  0
    6.8949  -12.8119   25.4781 S   0  0  0  0  0  0  0  0  0  0  0  0
    6.6684  -14.6158   25.7169 C   0  0  0  0  0  0  0  0  0  0  0  0
    7.3184  -15.2989   24.5972 C   0  0  0  0  0  0  0  0  0  0  0  0
    8.8348  -15.3218   24.5765 C   0  0  2  0  0  0  0  0  0  0  0  0
    9.0982  -16.2340   23.4180 N   0  0  0  0  0  0  0  0  0  0  0  0
    9.4544  -15.9173   25.7550 C   0  0  0  0  0  0  0  0  0  0  0  0
    9.5446  -17.2016   25.7676 O   0  0  0  0  0  0  0  0  0  0  0  0
    9.9773  -15.2542   26.8938 N   0  0  0  0  0  0  0  0  0  0  0  0
    9.6778  -13.8238   27.1262 C   0  0  0  0  0  0  0  0  0  0  0  0
   10.0307  -13.5527   28.5532 C   0  0  0  0  0  0  0  0  0  0  0  0
   11.1976  -14.4831   28.7472 C   0  0  0  0  0  0  0  0  0  0  0  0
   10.7690  -15.7261   27.9878 C   0  0  1  0  0  0  0  0  0  0  0  0
    9.9248  -16.4945   28.9760 C   0  0  0  0  0  0  0  0  0  0  0  0
   10.4696  -17.1380   29.9068 O   0  0  0  0  0  0  0  0  0  0  0  0
    8.5415  -16.5252   28.9041 O   0  0  0  0  0  0  0  0  0  0  0  0
  2  1  1  6
  2  3  1  0
  3  4  1  0
  4  8  1  0
  5  4  2  0
  6  2  1  0
  7  6  2  0
  9 10  1  0
 10 11  1  0
 11 12  1  0
 13 12  1  1
 13 15  1  0
 13 14  1  0
 14  6  1  0
 15 17  1  0
 16 15  2  0
 17 18  1  0
 17 21  1  0
 19 18  1  0
 20 19  1  0
 20 21  1  0
 21 22  1  1
 22 23  2  0
 22 24  1  0
M  END
$$$$
