DMP.pdb
     RDKit          3D

 24 24  0  0  1  0  0  0  0  0999 V2000
    6.7392  -19.5313   24.6922 N   0  0  0  0  0  0  0  0  0  0  0  0
    6.2994  -19.2822   23.3015 C   0  0  1  0  0  0  0  0  0  0  0  0
    4.9278  -19.8862   23.1866 C   0  0  0  0  0  0  0  0  0  0  0  0
    4.8816  -21.3415   23.1265 C   0  0  0  0  0  0  0  0  0  0  0  0
    4.3435  -22.0144   24.0295 O   0  0  0  0  0  0  0  0  0  0  0  0
    6.2186  -17.8128   23.1765 C   0  0  0  0  0  0  0  0  0  0  0  0
    5.5842  -17.2660   22.2512 O   0  0  0  0  0  0  0  0  0  0  0  0
    5.4380  -22.0187   22.0576 O   0  0  0  0  0  0  0  0  0  0  0  0
    5.9701  -11.6239   26.7505 C   0  0  0  0  0  0  0  0  0  0  0  0
    7.1414  -13.0007   26.9700 S   0  0  0  0  0  0  0  0  0  0  0  0
    7.7491  -13.5753   25.3381 C   0  0  0  0  0  0  0  0  0  0  0  0
    7.4190  -14.9960   25.2145 C   0  0  0  0  0  0  0  0  0  0  0  0
    7.0763  -15.5172   23.8320 C   0  0  2  0  0  0  0  0  0  0  0  0
    6.8641  -16.9732   24.1121 N   0  0  0  0  0  0  0  0  0  0  0  0
    8.1522  -15.4098   22.8530 C   0  0  0  0  0  0  0  0  0  0  0  0
    9.1071  -16.2674   22.9548 O   0  0  0  0  0  0  0  0  0  0  0  0
    8.2765  -14.4759   21.7936 N   0  0  0  0  0  0  0  0  0  0  0  0
    7.3971  -13.2869   21.7412 C   0  0  0  0  0  0  0  0  0  0  0  0
    8.0296  -12.3459   20.7672 C   0  0  0  0  0  0  0  0  0  0  0  0
    8.6453  -13.3090   19.7882 C   0  0  0  0  0  0  0  0  0  0  0  0
    9.1812  -14.4088   20.6875 C   0  0  1  0  0  0  0  0  0  0  0  0
   10.5360  -13.9061   21.1250 C   0  0  0  0  0  0  0  0  0  0  0  0
   10.6868  -13.4096   22.2687 O   0  0  0  0  0  0  0  0  0  0  0  0
   11.6507  -13.9674   20.3044 O   0  0  0  0  0  0  0  0  0  0  0  0
  2  1  1  1
  2  3  1  0
  3  4  1  0
  4  8  1  0
  5  4  2  0
  6  2  1  0
  7  6  2  0
  9 10  1  0
 10 11  1  0
 11 12  1  0
 13 12  1  1
 13 15  1  0
 13 14  1  0
 14  6  1  0
 15 17  1  0
 16 15  2  0
 17 18  1  0
 17 21  1  0
 19 18  1  0
 20 19  1  0
 20 21  1  0
 21 22  1  1
 22 23  2  0
 22 24  1  0
M  END
$$$$
