DMP.pdb
     RDKit          3D

 24 24  0  0  1  0  0  0  0  0999 V2000
    9.9468  -15.6438   20.4150 N   0  0  0  0  0  0  0  0  0  0  0  0
    9.4421  -16.5638   21.4584 C   0  0  1  0  0  0  0  0  0  0  0  0
   10.4485  -17.6763   21.5515 C   0  0  0  0  0  0  0  0  0  0  0  0
   11.6776  -17.4812   20.7931 C   0  0  0  0  0  0  0  0  0  0  0  0
   11.6556  -17.2060   19.5759 O   0  0  0  0  0  0  0  0  0  0  0  0
    9.4423  -15.7740   22.7063 C   0  0  0  0  0  0  0  0  0  0  0  0
   10.2622  -14.8534   22.9011 O   0  0  0  0  0  0  0  0  0  0  0  0
   12.9094  -17.5973   21.4092 O   0  0  0  0  0  0  0  0  0  0  0  0
    5.9293  -11.2826   26.3162 C   0  0  0  0  0  0  0  0  0  0  0  0
    6.8396  -12.8505   26.4855 S   0  0  0  0  0  0  0  0  0  0  0  0
    6.3098  -14.0286   25.1841 C   0  0  0  0  0  0  0  0  0  0  0  0
    7.0508  -15.2753   25.3829 C   0  0  0  0  0  0  0  0  0  0  0  0
    8.5230  -15.2802   25.0186 C   0  0  2  0  0  0  0  0  0  0  0  0
    8.5030  -16.0401   23.7280 N   0  0  0  0  0  0  0  0  0  0  0  0
    9.3808  -16.0099   25.9455 C   0  0  0  0  0  0  0  0  0  0  0  0
    9.4956  -17.2763   25.7437 O   0  0  0  0  0  0  0  0  0  0  0  0
   10.1125  -15.4950   27.0452 N   0  0  0  0  0  0  0  0  0  0  0  0
    9.9255  -14.0907   27.4728 C   0  0  0  0  0  0  0  0  0  0  0  0
   10.5166  -13.9919   28.8422 C   0  0  0  0  0  0  0  0  0  0  0  0
   11.6520  -14.9747   28.7418 C   0  0  0  0  0  0  0  0  0  0  0  0
   11.0456  -16.1109   27.9376 C   0  0  1  0  0  0  0  0  0  0  0  0
   10.3345  -16.9577   28.9657 C   0  0  0  0  0  0  0  0  0  0  0  0
   10.9905  -17.7083   29.7295 O   0  0  0  0  0  0  0  0  0  0  0  0
    8.9567  -16.9468   29.1114 O   0  0  0  0  0  0  0  0  0  0  0  0
  2  1  1  6
  2  3  1  0
  3  4  1  0
  4  8  1  0
  5  4  2  0
  6  2  1  0
  7  6  2  0
  9 10  1  0
 10 11  1  0
 11 12  1  0
 13 12  1  1
 13 15  1  0
 13 14  1  0
 14  6  1  0
 15 17  1  0
 16 15  2  0
 17 18  1  0
 17 21  1  0
 19 18  1  0
 20 19  1  0
 20 21  1  0
 21 22  1  1
 22 23  2  0
 22 24  1  0
M  END
$$$$
