DMP.pdb
     RDKit          3D

 24 24  0  0  1  0  0  0  0  0999 V2000
   10.0004  -15.8698   20.0357 N   0  0  0  0  0  0  0  0  0  0  0  0
   10.1785  -16.7363   21.2219 C   0  0  1  0  0  0  0  0  0  0  0  0
   11.5942  -17.2377   21.1595 C   0  0  0  0  0  0  0  0  0  0  0  0
   11.8065  -18.4310   20.3503 C   0  0  0  0  0  0  0  0  0  0  0  0
   12.0712  -18.3544   19.1330 O   0  0  0  0  0  0  0  0  0  0  0  0
   10.0079  -15.8428   22.3854 C   0  0  0  0  0  0  0  0  0  0  0  0
   10.6926  -14.8088   22.5257 O   0  0  0  0  0  0  0  0  0  0  0  0
   11.7190  -19.6888   20.9168 O   0  0  0  0  0  0  0  0  0  0  0  0
    6.2633  -11.7729   26.9644 C   0  0  0  0  0  0  0  0  0  0  0  0
    6.9033  -12.6840   25.5236 S   0  0  0  0  0  0  0  0  0  0  0  0
    6.7711  -14.4900   25.8124 C   0  0  0  0  0  0  0  0  0  0  0  0
    7.3528  -15.1704   24.6542 C   0  0  0  0  0  0  0  0  0  0  0  0
    8.8656  -15.2351   24.5674 C   0  0  2  0  0  0  0  0  0  0  0  0
    9.0530  -16.1354   23.3850 N   0  0  0  0  0  0  0  0  0  0  0  0
    9.5180  -15.8666   25.7089 C   0  0  0  0  0  0  0  0  0  0  0  0
    9.6522  -17.1459   25.6564 O   0  0  0  0  0  0  0  0  0  0  0  0
   10.0304  -15.2431   26.8746 N   0  0  0  0  0  0  0  0  0  0  0  0
    9.6983  -13.8321   27.1723 C   0  0  0  0  0  0  0  0  0  0  0  0
   10.0513  -13.6171   28.6088 C   0  0  0  0  0  0  0  0  0  0  0  0
   11.2406  -14.5275   28.7567 C   0  0  0  0  0  0  0  0  0  0  0  0
   10.8379  -15.7448   27.9435 C   0  0  1  0  0  0  0  0  0  0  0  0
   10.0165  -16.5767   28.8990 C   0  0  0  0  0  0  0  0  0  0  0  0
    8.7638  -16.5883   28.8109 O   0  0  0  0  0  0  0  0  0  0  0  0
   10.5929  -17.3485   29.8950 O   0  0  0  0  0  0  0  0  0  0  0  0
  2  1  1  6
  2  3  1  0
  3  4  1  0
  4  8  1  0
  5  4  2  0
  6  2  1  0
  7  6  2  0
  9 10  1  0
 10 11  1  0
 11 12  1  0
 13 12  1  1
 13 15  1  0
 13 14  1  0
 14  6  1  0
 15 17  1  0
 16 15  2  0
 17 18  1  0
 17 21  1  0
 19 18  1  0
 20 19  1  0
 20 21  1  0
 21 22  1  1
 22 23  2  0
 22 24  1  0
M  END
$$$$
