DPN.pdb
     RDKit          3D

 24 24  0  0  1  0  0  0  0  0999 V2000
   25.8960  -22.1873  -12.2589 N   0  0  0  0  0  0  0  0  0  0  0  0
   25.9754  -21.4774  -13.4498 C   0  0  1  0  0  0  0  0  0  0  0  0
   25.4386  -22.4035  -14.5560 C   0  0  0  0  0  0  0  0  0  0  0  0
   26.5174  -23.3522  -14.8958 C   0  0  0  0  0  0  0  0  0  0  0  0
   26.4241  -24.5480  -14.5186 O   0  0  0  0  0  0  0  0  0  0  0  0
   25.2677  -20.1849  -13.5492 C   0  0  0  0  0  0  0  0  0  0  0  0
   24.3505  -20.0412  -12.6412 O   0  0  0  0  0  0  0  0  0  0  0  0
   27.6359  -22.9849  -15.6157 O   0  0  0  0  0  0  0  0  0  0  0  0
   25.4912  -19.1649  -14.4849 N   0  0  0  0  0  0  0  0  0  0  0  0
   26.3881  -19.0947  -15.5856 C   0  0  0  0  0  0  0  0  0  0  0  0
   27.1079  -17.7735  -15.2568 C   0  0  0  0  0  0  0  0  0  0  0  0
   25.9291  -16.9388  -14.8011 C   0  0  0  0  0  0  0  0  0  0  0  0
   24.7979  -17.8983  -14.5112 C   0  0  1  0  0  0  0  0  0  0  0  0
   23.8175  -17.7930  -15.6125 C   0  0  0  0  0  0  0  0  0  0  0  0
   23.9687  -18.2682  -16.7652 O   0  0  0  0  0  0  0  0  0  0  0  0
   18.5821  -19.1935  -15.2858 N   0  0  0  0  0  0  0  0  0  0  0  0
   18.9317  -17.8354  -15.0263 C   0  0  0  0  0  0  0  0  0  0  0  0
   18.0253  -16.9948  -15.1053 O   0  0  0  0  0  0  0  0  0  0  0  0
   20.3147  -17.5411  -14.6909 C   0  0  0  0  0  0  0  0  0  0  0  0
   21.2988  -17.6165  -15.8335 C   0  0  2  0  0  0  0  0  0  0  0  0
   22.6092  -17.1015  -15.3505 N   0  0  0  0  0  0  0  0  0  0  0  0
   20.8852  -16.8122  -17.0004 C   0  0  0  0  0  0  0  0  0  0  0  0
   19.9114  -17.2980  -17.8661 O   0  0  0  0  0  0  0  0  0  0  0  0
   21.3633  -15.6987  -17.2670 O   0  0  0  0  0  0  0  0  0  0  0  0
  2  1  1  1
  2  3  1  0
  3  4  1  0
  4  5  2  0
  6  2  1  0
  7  6  2  0
  8  4  1  0
  9 10  1  0
  9  6  1  0
 11 10  1  0
 12 11  1  0
 13 12  1  0
 13  9  1  0
 13 14  1  6
 15 14  2  0
 17 16  1  0
 18 17  2  0
 19 17  1  0
 20 21  1  0
 20 19  1  1
 21 14  1  0
 22 20  1  0
 23 22  1  0
 24 22  2  0
M  END
$$$$
