DPN.pdb
     RDKit          3D

 24 24  0  0  1  0  0  0  0  0999 V2000
   26.8926  -22.1793  -16.8842 N   0  0  0  0  0  0  0  0  0  0  0  0
   26.7617  -21.3404  -15.7853 C   0  0  1  0  0  0  0  0  0  0  0  0
   26.4019  -19.9464  -16.3304 C   0  0  0  0  0  0  0  0  0  0  0  0
   27.4759  -19.5490  -17.2619 C   0  0  0  0  0  0  0  0  0  0  0  0
   27.1852  -19.2827  -18.4559 O   0  0  0  0  0  0  0  0  0  0  0  0
   25.7782  -21.6933  -14.7415 C   0  0  0  0  0  0  0  0  0  0  0  0
   24.9210  -22.5848  -15.1373 O   0  0  0  0  0  0  0  0  0  0  0  0
   28.7987  -19.4548  -16.8803 O   0  0  0  0  0  0  0  0  0  0  0  0
   25.6996  -21.1768  -13.4403 N   0  0  0  0  0  0  0  0  0  0  0  0
   26.4909  -20.1972  -12.7807 C   0  0  0  0  0  0  0  0  0  0  0  0
   26.8924  -20.9861  -11.5203 C   0  0  0  0  0  0  0  0  0  0  0  0
   25.5760  -21.6659  -11.2059 C   0  0  0  0  0  0  0  0  0  0  0  0
   24.7241  -21.5696  -12.4506 C   0  0  1  0  0  0  0  0  0  0  0  0
   23.6869  -20.5432  -12.2147 C   0  0  0  0  0  0  0  0  0  0  0  0
   23.2821  -20.1679  -11.0866 O   0  0  0  0  0  0  0  0  0  0  0  0
   22.1933  -17.9675  -15.4117 N   0  0  0  0  0  0  0  0  0  0  0  0
   21.7193  -19.1898  -15.9733 C   0  0  0  0  0  0  0  0  0  0  0  0
   21.5948  -19.2335  -17.2050 O   0  0  0  0  0  0  0  0  0  0  0  0
   21.4200  -20.2845  -15.0657 C   0  0  0  0  0  0  0  0  0  0  0  0
   21.6343  -19.9996  -13.5985 C   0  0  2  0  0  0  0  0  0  0  0  0
   23.1002  -19.9312  -13.3496 N   0  0  0  0  0  0  0  0  0  0  0  0
   21.0625  -21.0414  -12.7227 C   0  0  0  0  0  0  0  0  0  0  0  0
   19.9793  -20.7401  -11.9043 O   0  0  0  0  0  0  0  0  0  0  0  0
   21.4977  -22.2021  -12.6672 O   0  0  0  0  0  0  0  0  0  0  0  0
  2  1  1  6
  2  3  1  0
  3  4  1  0
  4  5  2  0
  6  2  1  0
  7  6  2  0
  8  4  1  0
  9 10  1  0
  9  6  1  0
 11 10  1  0
 12 11  1  0
 13 12  1  0
 13  9  1  0
 13 14  1  1
 15 14  2  0
 17 16  1  0
 18 17  2  0
 19 17  1  0
 20 21  1  0
 20 19  1  6
 21 14  1  0
 22 20  1  0
 23 22  1  0
 24 22  2  0
M  END
$$$$
