DPN.pdb
     RDKit          3D

 24 24  0  0  1  0  0  0  0  0999 V2000
   24.6742  -15.8978  -15.1745 N   0  0  0  0  0  0  0  0  0  0  0  0
   24.7889  -14.7654  -15.9701 C   0  0  1  0  0  0  0  0  0  0  0  0
   23.7864  -14.9310  -17.1264 C   0  0  0  0  0  0  0  0  0  0  0  0
   24.0896  -16.2146  -17.7895 C   0  0  0  0  0  0  0  0  0  0  0  0
   25.1921  -16.3563  -18.3771 O   0  0  0  0  0  0  0  0  0  0  0  0
   24.5631  -13.4431  -15.3521 C   0  0  0  0  0  0  0  0  0  0  0  0
   23.8142  -13.5030  -14.2929 O   0  0  0  0  0  0  0  0  0  0  0  0
   23.2105  -17.2783  -17.7953 O   0  0  0  0  0  0  0  0  0  0  0  0
   25.0598  -12.2066  -15.7883 N   0  0  0  0  0  0  0  0  0  0  0  0
   25.8813  -11.8760  -16.9004 C   0  0  0  0  0  0  0  0  0  0  0  0
   27.0012  -11.1010  -16.1812 C   0  0  0  0  0  0  0  0  0  0  0  0
   26.1744  -10.2930  -15.2026 C   0  0  0  0  0  0  0  0  0  0  0  0
   24.8094  -10.9390  -15.1433 C   0  0  1  0  0  0  0  0  0  0  0  0
   23.8661  -10.0808  -15.8909 C   0  0  0  0  0  0  0  0  0  0  0  0
   23.8832   -9.8958  -17.1330 O   0  0  0  0  0  0  0  0  0  0  0  0
   19.3920   -7.4604  -16.6420 N   0  0  0  0  0  0  0  0  0  0  0  0
   19.2404   -8.6095  -15.8109 C   0  0  0  0  0  0  0  0  0  0  0  0
   18.0839   -8.9617  -15.5412 O   0  0  0  0  0  0  0  0  0  0  0  0
   20.4449   -9.2765  -15.3459 C   0  0  0  0  0  0  0  0  0  0  0  0
   21.7496   -8.6879  -15.8264 C   0  0  2  0  0  0  0  0  0  0  0  0
   22.8607   -9.4118  -15.1504 N   0  0  0  0  0  0  0  0  0  0  0  0
   21.8774   -7.2496  -15.5191 C   0  0  0  0  0  0  0  0  0  0  0  0
   21.5028   -6.3032  -16.4665 O   0  0  0  0  0  0  0  0  0  0  0  0
   22.3097   -6.8172  -14.4393 O   0  0  0  0  0  0  0  0  0  0  0  0
  2  1  1  1
  2  3  1  0
  3  4  1  0
  4  5  2  0
  6  2  1  0
  7  6  2  0
  8  4  1  0
  9 10  1  0
  9  6  1  0
 11 10  1  0
 12 11  1  0
 13 12  1  0
 13  9  1  0
 13 14  1  6
 15 14  2  0
 17 16  1  0
 18 17  2  0
 19 17  1  0
 20 21  1  0
 20 19  1  1
 21 14  1  0
 22 20  1  0
 23 22  1  0
 24 22  2  0
M  END
$$$$
