DPN.pdb
     RDKit          3D

 24 24  0  0  1  0  0  0  0  0999 V2000
   16.4149  -13.6622  -14.1894 N   0  0  0  0  0  0  0  0  0  0  0  0
   15.6873  -12.4894  -14.3430 C   0  0  1  0  0  0  0  0  0  0  0  0
   14.3665  -12.6820  -13.5763 C   0  0  0  0  0  0  0  0  0  0  0  0
   13.6823  -13.8490  -14.1671 C   0  0  0  0  0  0  0  0  0  0  0  0
   13.1355  -14.6889  -13.4078 O   0  0  0  0  0  0  0  0  0  0  0  0
   16.2952  -11.2187  -13.8990 C   0  0  0  0  0  0  0  0  0  0  0  0
   17.2489  -11.3911  -13.0346 O   0  0  0  0  0  0  0  0  0  0  0  0
   13.6136  -14.0644  -15.5284 O   0  0  0  0  0  0  0  0  0  0  0  0
   15.9484   -9.9234  -14.3087 N   0  0  0  0  0  0  0  0  0  0  0  0
   14.9312   -9.4700  -15.1923 C   0  0  0  0  0  0  0  0  0  0  0  0
   15.7788   -8.6216  -16.1586 C   0  0  0  0  0  0  0  0  0  0  0  0
   16.6991   -7.9375  -15.1690 C   0  0  0  0  0  0  0  0  0  0  0  0
   16.6066   -8.7133  -13.8752 C   0  0  1  0  0  0  0  0  0  0  0  0
   15.8000   -7.9193  -12.9244 C   0  0  0  0  0  0  0  0  0  0  0  0
   14.5493   -7.8086  -12.9512 O   0  0  0  0  0  0  0  0  0  0  0  0
   14.7434   -5.3858   -8.4840 N   0  0  0  0  0  0  0  0  0  0  0  0
   15.5929   -6.5183   -8.3111 C   0  0  0  0  0  0  0  0  0  0  0  0
   15.8391   -6.8662   -7.1481 O   0  0  0  0  0  0  0  0  0  0  0  0
   16.1024   -7.1749   -9.5033 C   0  0  0  0  0  0  0  0  0  0  0  0
   15.7587   -6.5130  -10.8162 C   0  0  2  0  0  0  0  0  0  0  0  0
   16.4895   -7.2262  -11.8992 N   0  0  0  0  0  0  0  0  0  0  0  0
   16.1420   -5.0879  -10.8575 C   0  0  0  0  0  0  0  0  0  0  0  0
   15.2448   -4.1168  -10.4266 O   0  0  0  0  0  0  0  0  0  0  0  0
   17.2444   -4.6882  -11.2632 O   0  0  0  0  0  0  0  0  0  0  0  0
  2  1  1  1
  2  3  1  0
  3  4  1  0
  4  5  2  0
  6  2  1  0
  7  6  2  0
  8  4  1  0
  9 10  1  0
  9  6  1  0
 11 10  1  0
 12 11  1  0
 13 12  1  0
 13  9  1  0
 13 14  1  1
 15 14  2  0
 17 16  1  0
 18 17  2  0
 19 17  1  0
 20 21  1  0
 20 19  1  1
 21 14  1  0
 22 20  1  0
 23 22  1  0
 24 22  2  0
M  END
$$$$
