DPN.pdb
     RDKit          3D

 24 24  0  0  1  0  0  0  0  0999 V2000
   18.6010  -12.3912  -16.7893 N   0  0  0  0  0  0  0  0  0  0  0  0
   19.8814  -11.8887  -16.9806 C   0  0  1  0  0  0  0  0  0  0  0  0
   19.8616  -11.1165  -18.3121 C   0  0  0  0  0  0  0  0  0  0  0  0
   19.5942  -12.0961  -19.3835 C   0  0  0  0  0  0  0  0  0  0  0  0
   20.5107  -12.8785  -19.7423 O   0  0  0  0  0  0  0  0  0  0  0  0
   20.4545  -11.0049  -15.9454 C   0  0  0  0  0  0  0  0  0  0  0  0
   19.5499  -10.4679  -15.1839 O   0  0  0  0  0  0  0  0  0  0  0  0
   18.3723  -12.1950  -20.0172 O   0  0  0  0  0  0  0  0  0  0  0  0
   21.8097  -10.7165  -15.7312 N   0  0  0  0  0  0  0  0  0  0  0  0
   22.9782  -11.2250  -16.3614 C   0  0  0  0  0  0  0  0  0  0  0  0
   23.7670  -11.6881  -15.1223 C   0  0  0  0  0  0  0  0  0  0  0  0
   23.4918  -10.5285  -14.1876 C   0  0  0  0  0  0  0  0  0  0  0  0
   22.3128   -9.7748  -14.7588 C   0  0  1  0  0  0  0  0  0  0  0  0
   22.8206   -8.5259  -15.3650 C   0  0  0  0  0  0  0  0  0  0  0  0
   23.2688   -8.4175  -16.5332 O   0  0  0  0  0  0  0  0  0  0  0  0
   21.3278   -3.6933  -16.1395 N   0  0  0  0  0  0  0  0  0  0  0  0
   20.5880   -4.8925  -16.3600 C   0  0  0  0  0  0  0  0  0  0  0  0
   19.5161   -4.7893  -16.9723 O   0  0  0  0  0  0  0  0  0  0  0  0
   21.1426   -6.1368  -15.8540 C   0  0  0  0  0  0  0  0  0  0  0  0
   22.4725   -6.0248  -15.1479 C   0  0  2  0  0  0  0  0  0  0  0  0
   22.8018   -7.3553  -14.5674 N   0  0  0  0  0  0  0  0  0  0  0  0
   22.4599   -5.0317  -14.0557 C   0  0  0  0  0  0  0  0  0  0  0  0
   21.9329   -5.3736  -12.8151 O   0  0  0  0  0  0  0  0  0  0  0  0
   22.9015   -3.8783  -14.1755 O   0  0  0  0  0  0  0  0  0  0  0  0
  2  1  1  1
  2  3  1  0
  3  4  1  0
  4  5  2  0
  6  2  1  0
  7  6  2  0
  8  4  1  0
  9 10  1  0
  9  6  1  0
 11 10  1  0
 12 11  1  0
 13 12  1  0
 13  9  1  0
 13 14  1  6
 15 14  2  0
 17 16  1  0
 18 17  2  0
 19 17  1  0
 20 21  1  0
 20 19  1  1
 21 14  1  0
 22 20  1  0
 23 22  1  0
 24 22  2  0
M  END
$$$$
