DPN.pdb
     RDKit          3D

 24 24  0  0  1  0  0  0  0  0999 V2000
   16.3700  -14.5519    5.5529 N   0  0  0  0  0  0  0  0  0  0  0  0
   17.0051  -13.5629    6.2926 C   0  0  1  0  0  0  0  0  0  0  0  0
   16.3844  -13.5935    7.7009 C   0  0  0  0  0  0  0  0  0  0  0  0
   14.9394  -13.3328    7.5494 C   0  0  0  0  0  0  0  0  0  0  0  0
   14.5595  -12.2129    7.1220 O   0  0  0  0  0  0  0  0  0  0  0  0
   18.4738  -13.6228    6.4364 C   0  0  0  0  0  0  0  0  0  0  0  0
   18.9946  -14.6639    5.8607 O   0  0  0  0  0  0  0  0  0  0  0  0
   13.9749  -14.2702    7.8578 O   0  0  0  0  0  0  0  0  0  0  0  0
   19.2994  -12.7054    7.1017 N   0  0  0  0  0  0  0  0  0  0  0  0
   18.9802  -11.5260    7.8283 C   0  0  0  0  0  0  0  0  0  0  0  0
   19.8930  -10.5161    7.1080 C   0  0  0  0  0  0  0  0  0  0  0  0
   21.1444  -11.3557    6.9557 C   0  0  0  0  0  0  0  0  0  0  0  0
   20.7385  -12.7936    7.1834 C   0  0  1  0  0  0  0  0  0  0  0  0
   21.2229  -13.1976    8.5203 C   0  0  0  0  0  0  0  0  0  0  0  0
   20.6526  -12.9342    9.6078 O   0  0  0  0  0  0  0  0  0  0  0  0
   23.6190  -16.4012   11.8403 N   0  0  0  0  0  0  0  0  0  0  0  0
   24.0742  -16.7178   10.5263 C   0  0  0  0  0  0  0  0  0  0  0  0
   24.7961  -17.7171   10.4051 O   0  0  0  0  0  0  0  0  0  0  0  0
   23.6603  -15.8512    9.4357 C   0  0  0  0  0  0  0  0  0  0  0  0
   22.8397  -14.6462    9.8285 C   0  0  2  0  0  0  0  0  0  0  0  0
   22.4266  -13.9419    8.5840 N   0  0  0  0  0  0  0  0  0  0  0  0
   23.5871  -13.6946   10.6744 C   0  0  0  0  0  0  0  0  0  0  0  0
   23.4390  -13.7327   12.0566 O   0  0  0  0  0  0  0  0  0  0  0  0
   24.3614  -12.8381   10.2197 O   0  0  0  0  0  0  0  0  0  0  0  0
  2  1  1  6
  2  3  1  0
  3  4  1  0
  4  5  2  0
  6  2  1  0
  7  6  2  0
  8  4  1  0
  9 10  1  0
  9  6  1  0
 11 10  1  0
 12 11  1  0
 13 12  1  0
 13  9  1  0
 13 14  1  1
 15 14  2  0
 17 16  1  0
 18 17  2  0
 19 17  1  0
 20 21  1  0
 20 19  1  6
 21 14  1  0
 22 20  1  0
 23 22  1  0
 24 22  2  0
M  END
$$$$
