DPN.pdb
     RDKit          3D

 24 24  0  0  1  0  0  0  0  0999 V2000
   17.1043  -11.6568  -17.2223 N   0  0  0  0  0  0  0  0  0  0  0  0
   16.8813  -10.5481  -16.4162 C   0  0  1  0  0  0  0  0  0  0  0  0
   16.9330  -11.0406  -14.9587 C   0  0  0  0  0  0  0  0  0  0  0  0
   15.9022  -12.0871  -14.8123 C   0  0  0  0  0  0  0  0  0  0  0  0
   16.2131  -13.1850  -14.2842 O   0  0  0  0  0  0  0  0  0  0  0  0
   17.7892   -9.3901  -16.5423 C   0  0  0  0  0  0  0  0  0  0  0  0
   18.8605   -9.6614  -17.2243 O   0  0  0  0  0  0  0  0  0  0  0  0
   14.5989  -11.9159  -15.2324 O   0  0  0  0  0  0  0  0  0  0  0  0
   17.6008   -8.1032  -16.0186 N   0  0  0  0  0  0  0  0  0  0  0  0
   16.6006   -7.5926  -15.1469 C   0  0  0  0  0  0  0  0  0  0  0  0
   16.1117   -6.3925  -15.9792 C   0  0  0  0  0  0  0  0  0  0  0  0
   17.4386   -5.8665  -16.4858 C   0  0  0  0  0  0  0  0  0  0  0  0
   18.4534   -6.9680  -16.2833 C   0  0  1  0  0  0  0  0  0  0  0  0
   19.3048   -6.5975  -15.1330 C   0  0  0  0  0  0  0  0  0  0  0  0
   18.9894   -6.7325  -13.9249 O   0  0  0  0  0  0  0  0  0  0  0  0
   21.6946   -8.8168  -14.3015 N   0  0  0  0  0  0  0  0  0  0  0  0
   22.8218   -8.2008  -14.9212 C   0  0  0  0  0  0  0  0  0  0  0  0
   23.6958   -8.9519  -15.3758 O   0  0  0  0  0  0  0  0  0  0  0  0
   22.8609   -6.7490  -14.9728 C   0  0  0  0  0  0  0  0  0  0  0  0
   21.6628   -6.0379  -14.3911 C   0  0  2  0  0  0  0  0  0  0  0  0
   20.5794   -6.0458  -15.4117 N   0  0  0  0  0  0  0  0  0  0  0  0
   21.9487   -4.6358  -14.0280 C   0  0  0  0  0  0  0  0  0  0  0  0
   22.5586   -4.3460  -12.8123 O   0  0  0  0  0  0  0  0  0  0  0  0
   21.6726   -3.6709  -14.7576 O   0  0  0  0  0  0  0  0  0  0  0  0
  2  1  1  6
  2  3  1  0
  3  4  1  0
  4  5  2  0
  6  2  1  0
  7  6  2  0
  8  4  1  0
  9 10  1  0
  9  6  1  0
 11 10  1  0
 12 11  1  0
 13 12  1  0
 13  9  1  0
 13 14  1  1
 15 14  2  0
 17 16  1  0
 18 17  2  0
 19 17  1  0
 20 21  1  0
 20 19  1  6
 21 14  1  0
 22 20  1  0
 23 22  1  0
 24 22  2  0
M  END
$$$$
