DPN.pdb
     RDKit          3D

 24 24  0  0  1  0  0  0  0  0999 V2000
   22.0767  -18.9704  -17.0949 N   0  0  0  0  0  0  0  0  0  0  0  0
   23.0325  -19.1347  -16.1010 C   0  0  1  0  0  0  0  0  0  0  0  0
   22.4522  -20.1376  -15.0876 C   0  0  0  0  0  0  0  0  0  0  0  0
   21.1870  -19.5689  -14.5827 C   0  0  0  0  0  0  0  0  0  0  0  0
   21.1415  -18.3506  -14.2752 O   0  0  0  0  0  0  0  0  0  0  0  0
   24.3798  -19.6000  -16.4878 C   0  0  0  0  0  0  0  0  0  0  0  0
   24.3881  -20.2339  -17.6212 O   0  0  0  0  0  0  0  0  0  0  0  0
   20.0389  -20.3192  -14.4306 O   0  0  0  0  0  0  0  0  0  0  0  0
   25.5750  -19.4243  -15.7761 N   0  0  0  0  0  0  0  0  0  0  0  0
   25.8242  -18.8172  -14.5150 C   0  0  0  0  0  0  0  0  0  0  0  0
   26.9205  -17.8129  -14.9168 C   0  0  0  0  0  0  0  0  0  0  0  0
   27.7396  -18.6786  -15.8515 C   0  0  0  0  0  0  0  0  0  0  0  0
   26.8768  -19.8630  -16.2217 C   0  0  1  0  0  0  0  0  0  0  0  0
   27.3792  -21.0412  -15.4838 C   0  0  0  0  0  0  0  0  0  0  0  0
   26.9590  -21.4292  -14.3656 O   0  0  0  0  0  0  0  0  0  0  0  0
   26.1841  -24.7821  -15.3925 N   0  0  0  0  0  0  0  0  0  0  0  0
   25.8519  -24.0557  -16.5741 C   0  0  0  0  0  0  0  0  0  0  0  0
   24.6755  -24.1110  -16.9580 O   0  0  0  0  0  0  0  0  0  0  0  0
   26.9103  -23.3103  -17.2345 C   0  0  0  0  0  0  0  0  0  0  0  0
   28.2158  -23.2155  -16.4820 C   0  0  2  0  0  0  0  0  0  0  0  0
   28.4177  -21.7958  -16.0827 N   0  0  0  0  0  0  0  0  0  0  0  0
   29.3758  -23.6400  -17.2906 C   0  0  0  0  0  0  0  0  0  0  0  0
   30.1371  -24.7322  -16.8891 O   0  0  0  0  0  0  0  0  0  0  0  0
   29.7261  -23.0696  -18.3354 O   0  0  0  0  0  0  0  0  0  0  0  0
  2  1  1  6
  2  3  1  0
  3  4  1  0
  4  5  2  0
  6  2  1  0
  7  6  2  0
  8  4  1  0
  9 10  1  0
  9  6  1  0
 11 10  1  0
 12 11  1  0
 13 12  1  0
 13  9  1  0
 13 14  1  1
 15 14  2  0
 17 16  1  0
 18 17  2  0
 19 17  1  0
 20 21  1  0
 20 19  1  6
 21 14  1  0
 22 20  1  0
 23 22  1  0
 24 22  2  0
M  END
$$$$
