DPN.pdb
     RDKit          3D

 24 24  0  0  1  0  0  0  0  0999 V2000
   16.6745  -14.2834  -16.0643 N   0  0  0  0  0  0  0  0  0  0  0  0
   16.2148  -12.9731  -16.0841 C   0  0  1  0  0  0  0  0  0  0  0  0
   15.7559  -12.6412  -14.6528 C   0  0  0  0  0  0  0  0  0  0  0  0
   14.6428  -13.5541  -14.3261 C   0  0  0  0  0  0  0  0  0  0  0  0
   13.5555  -13.4429  -14.9478 O   0  0  0  0  0  0  0  0  0  0  0  0
   17.1368  -11.9086  -16.5294 C   0  0  0  0  0  0  0  0  0  0  0  0
   18.3715  -12.3058  -16.5942 O   0  0  0  0  0  0  0  0  0  0  0  0
   14.7399  -14.5347  -13.3602 O   0  0  0  0  0  0  0  0  0  0  0  0
   16.8084  -10.5878  -16.8664 N   0  0  0  0  0  0  0  0  0  0  0  0
   15.5641   -9.9015  -16.8273 C   0  0  0  0  0  0  0  0  0  0  0  0
   15.5062   -9.3757  -18.2738 C   0  0  0  0  0  0  0  0  0  0  0  0
   16.9460   -8.9411  -18.4528 C   0  0  0  0  0  0  0  0  0  0  0  0
   17.7434   -9.5994  -17.3505 C   0  0  1  0  0  0  0  0  0  0  0  0
   18.0716   -8.5659  -16.3458 C   0  0  0  0  0  0  0  0  0  0  0  0
   17.2819   -8.1265  -15.4737 O   0  0  0  0  0  0  0  0  0  0  0  0
   20.4417   -8.7706  -13.0772 N   0  0  0  0  0  0  0  0  0  0  0  0
   21.5601   -8.3893  -13.8759 C   0  0  0  0  0  0  0  0  0  0  0  0
   22.6659   -8.8435  -13.5512 O   0  0  0  0  0  0  0  0  0  0  0  0
   21.3210   -7.5032  -15.0026 C   0  0  0  0  0  0  0  0  0  0  0  0
   19.8767   -7.1511  -15.2672 C   0  0  2  0  0  0  0  0  0  0  0  0
   19.3809   -8.0255  -16.3650 N   0  0  0  0  0  0  0  0  0  0  0  0
   19.6953   -5.7442  -15.6760 C   0  0  0  0  0  0  0  0  0  0  0  0
   19.5142   -4.7603  -14.7101 O   0  0  0  0  0  0  0  0  0  0  0  0
   19.6937   -5.3710  -16.8594 O   0  0  0  0  0  0  0  0  0  0  0  0
  2  1  1  1
  2  3  1  0
  3  4  1  0
  4  5  2  0
  6  2  1  0
  7  6  2  0
  8  4  1  0
  9 10  1  0
  9  6  1  0
 11 10  1  0
 12 11  1  0
 13 12  1  0
 13  9  1  0
 13 14  1  1
 15 14  2  0
 17 16  1  0
 18 17  2  0
 19 17  1  0
 20 21  1  0
 20 19  1  6
 21 14  1  0
 22 20  1  0
 23 22  1  0
 24 22  2  0
M  END
$$$$
