DPN.pdb
     RDKit          3D

 24 24  0  0  1  0  0  0  0  0999 V2000
   23.6196  -20.0417  -14.8321 N   0  0  0  0  0  0  0  0  0  0  0  0
   24.1725  -19.0663  -15.6516 C   0  0  1  0  0  0  0  0  0  0  0  0
   23.6761  -19.3524  -17.0803 C   0  0  0  0  0  0  0  0  0  0  0  0
   24.1865  -20.6834  -17.4639 C   0  0  0  0  0  0  0  0  0  0  0  0
   25.4031  -20.8139  -17.7533 O   0  0  0  0  0  0  0  0  0  0  0  0
   23.8971  -17.6481  -15.3449 C   0  0  0  0  0  0  0  0  0  0  0  0
   22.8481  -17.4887  -14.5963 O   0  0  0  0  0  0  0  0  0  0  0  0
   23.3828  -21.8037  -17.5205 O   0  0  0  0  0  0  0  0  0  0  0  0
   24.6296  -16.5304  -15.7694 N   0  0  0  0  0  0  0  0  0  0  0  0
   25.8455  -16.4400  -16.5005 C   0  0  0  0  0  0  0  0  0  0  0  0
   26.6578  -15.5379  -15.5526 C   0  0  0  0  0  0  0  0  0  0  0  0
   25.5876  -14.5418  -15.1572 C   0  0  0  0  0  0  0  0  0  0  0  0
   24.2576  -15.1559  -15.5289 C   0  0  1  0  0  0  0  0  0  0  0  0
   23.7594  -14.4666  -16.7379 C   0  0  0  0  0  0  0  0  0  0  0  0
   23.8159  -14.9221  -17.9070 O   0  0  0  0  0  0  0  0  0  0  0  0
   19.2247  -12.5494  -18.0267 N   0  0  0  0  0  0  0  0  0  0  0  0
   19.4680  -13.6242  -17.1213 C   0  0  0  0  0  0  0  0  0  0  0  0
   18.4922  -14.3077  -16.7823 O   0  0  0  0  0  0  0  0  0  0  0  0
   20.8322  -13.8357  -16.6673 C   0  0  0  0  0  0  0  0  0  0  0  0
   21.8562  -12.8526  -17.1815 C   0  0  2  0  0  0  0  0  0  0  0  0
   23.1700  -13.1896  -16.5684 N   0  0  0  0  0  0  0  0  0  0  0  0
   21.5297  -11.4537  -16.8406 C   0  0  0  0  0  0  0  0  0  0  0  0
   21.2082  -10.5522  -17.8494 O   0  0  0  0  0  0  0  0  0  0  0  0
   21.5231  -11.0170  -15.6792 O   0  0  0  0  0  0  0  0  0  0  0  0
  2  1  1  1
  2  3  1  0
  3  4  1  0
  4  5  2  0
  6  2  1  0
  7  6  2  0
  8  4  1  0
  9 10  1  0
  9  6  1  0
 11 10  1  0
 12 11  1  0
 13 12  1  0
 13  9  1  0
 13 14  1  6
 15 14  2  0
 17 16  1  0
 18 17  2  0
 19 17  1  0
 20 21  1  0
 20 19  1  1
 21 14  1  0
 22 20  1  0
 23 22  1  0
 24 22  2  0
M  END
$$$$
