DPN.pdb
     RDKit          3D

 24 24  0  0  1  0  0  0  0  0999 V2000
   17.2557  -14.2518  -14.6763 N   0  0  0  0  0  0  0  0  0  0  0  0
   16.7372  -12.9838  -14.9035 C   0  0  1  0  0  0  0  0  0  0  0  0
   15.2164  -13.0798  -14.6855 C   0  0  0  0  0  0  0  0  0  0  0  0
   14.7031  -14.1022  -15.6185 C   0  0  0  0  0  0  0  0  0  0  0  0
   14.7352  -13.8759  -16.8549 O   0  0  0  0  0  0  0  0  0  0  0  0
   17.2469  -11.8578  -14.0949 C   0  0  0  0  0  0  0  0  0  0  0  0
   17.7643  -12.2407  -12.9671 O   0  0  0  0  0  0  0  0  0  0  0  0
   14.1840  -15.3080  -15.1934 O   0  0  0  0  0  0  0  0  0  0  0  0
   17.2194  -10.4954  -14.4249 N   0  0  0  0  0  0  0  0  0  0  0  0
   16.7209   -9.8289  -15.5775 C   0  0  0  0  0  0  0  0  0  0  0  0
   17.9689   -9.0187  -15.9752 C   0  0  0  0  0  0  0  0  0  0  0  0
   18.4304   -8.5596  -14.6076 C   0  0  0  0  0  0  0  0  0  0  0  0
   17.7278   -9.4308  -13.5920 C   0  0  1  0  0  0  0  0  0  0  0  0
   16.6616   -8.6250  -12.9602 C   0  0  0  0  0  0  0  0  0  0  0  0
   15.5441   -8.3713  -13.4742 O   0  0  0  0  0  0  0  0  0  0  0  0
   14.2264   -6.1255   -9.0357 N   0  0  0  0  0  0  0  0  0  0  0  0
   14.9133   -7.2912   -8.5847 C   0  0  0  0  0  0  0  0  0  0  0  0
   14.6897   -7.6640   -7.4247 O   0  0  0  0  0  0  0  0  0  0  0  0
   15.8172   -7.9499   -9.5124 C   0  0  0  0  0  0  0  0  0  0  0  0
   15.8649   -7.3716  -10.9064 C   0  0  2  0  0  0  0  0  0  0  0  0
   16.9171   -8.0948  -11.6717 N   0  0  0  0  0  0  0  0  0  0  0  0
   16.1887   -5.9313  -10.9188 C   0  0  0  0  0  0  0  0  0  0  0  0
   15.1676   -4.9914  -10.8314 O   0  0  0  0  0  0  0  0  0  0  0  0
   17.3458   -5.4916  -11.0047 O   0  0  0  0  0  0  0  0  0  0  0  0
  2  1  1  1
  2  3  1  0
  3  4  1  0
  4  5  2  0
  6  2  1  0
  7  6  2  0
  8  4  1  0
  9 10  1  0
  9  6  1  0
 11 10  1  0
 12 11  1  0
 13 12  1  0
 13  9  1  0
 13 14  1  6
 15 14  2  0
 17 16  1  0
 18 17  2  0
 19 17  1  0
 20 21  1  0
 20 19  1  1
 21 14  1  0
 22 20  1  0
 23 22  1  0
 24 22  2  0
M  END
$$$$
