DPN.pdb
     RDKit          3D

 24 24  0  0  1  0  0  0  0  0999 V2000
   27.8833   -9.7597  -20.1343 N   0  0  0  0  0  0  0  0  0  0  0  0
   27.8859  -10.0172  -18.7697 C   0  0  1  0  0  0  0  0  0  0  0  0
   28.7652   -8.9366  -18.1150 C   0  0  0  0  0  0  0  0  0  0  0  0
   30.1040   -9.0284  -18.7300 C   0  0  0  0  0  0  0  0  0  0  0  0
   30.7933   -7.9846  -18.8578 O   0  0  0  0  0  0  0  0  0  0  0  0
   26.5934  -10.0524  -18.0559 C   0  0  0  0  0  0  0  0  0  0  0  0
   25.6065   -9.6159  -18.7784 O   0  0  0  0  0  0  0  0  0  0  0  0
   30.6410  -10.2187  -19.1763 O   0  0  0  0  0  0  0  0  0  0  0  0
   26.3598  -10.4907  -16.7447 N   0  0  0  0  0  0  0  0  0  0  0  0
   27.2643  -10.9022  -15.7281 C   0  0  0  0  0  0  0  0  0  0  0  0
   26.6627  -12.2763  -15.3788 C   0  0  0  0  0  0  0  0  0  0  0  0
   25.1882  -11.9308  -15.4028 C   0  0  0  0  0  0  0  0  0  0  0  0
   25.0579  -10.6132  -16.1316 C   0  0  1  0  0  0  0  0  0  0  0  0
   24.7847   -9.5625  -15.1284 C   0  0  0  0  0  0  0  0  0  0  0  0
   25.6489   -9.0107  -14.4032 O   0  0  0  0  0  0  0  0  0  0  0  0
   22.6989   -4.9791  -14.4960 N   0  0  0  0  0  0  0  0  0  0  0  0
   23.6116   -5.4146  -15.5017 C   0  0  0  0  0  0  0  0  0  0  0  0
   24.1510   -4.5383  -16.1914 O   0  0  0  0  0  0  0  0  0  0  0  0
   23.8392   -6.8431  -15.6414 C   0  0  0  0  0  0  0  0  0  0  0  0
   23.1023   -7.7251  -14.6623 C   0  0  2  0  0  0  0  0  0  0  0  0
   23.4415   -9.1416  -14.9694 N   0  0  0  0  0  0  0  0  0  0  0  0
   21.6362   -7.5707  -14.7426 C   0  0  0  0  0  0  0  0  0  0  0  0
   20.9207   -7.1622  -13.6224 O   0  0  0  0  0  0  0  0  0  0  0  0
   20.9815   -7.7878  -15.7741 O   0  0  0  0  0  0  0  0  0  0  0  0
  2  1  1  6
  2  3  1  0
  3  4  1  0
  4  5  2  0
  6  2  1  0
  7  6  2  0
  8  4  1  0
  9 10  1  0
  9  6  1  0
 11 10  1  0
 12 11  1  0
 13 12  1  0
 13  9  1  0
 13 14  1  1
 15 14  2  0
 17 16  1  0
 18 17  2  0
 19 17  1  0
 20 21  1  0
 20 19  1  6
 21 14  1  0
 22 20  1  0
 23 22  1  0
 24 22  2  0
M  END
$$$$
