MFG.pdb
     RDKit          3D

 24 24  0  0  1  0  0  0  0  0999 V2000
    8.7135  -11.9147   19.2624 C   0  0  0  0  0  0  0  0  0  0  0  0
    7.6726  -13.1124   18.3505 S   0  0  0  0  0  0  0  0  0  0  0  0
    7.5796  -14.6338   19.3418 C   0  0  0  0  0  0  0  0  0  0  0  0
    7.2241  -14.2953   20.7956 C   0  0  0  0  0  0  0  0  0  0  0  0
    7.2451  -15.6014   21.5523 C   0  0  2  0  0  0  0  0  0  0  0  0
    6.1484  -16.3913   21.0571 N   0  0  0  0  0  0  0  0  0  0  0  0
    7.1372  -15.4270   23.0052 C   0  0  0  0  0  0  0  0  0  0  0  0
    6.2953  -14.6509   23.5356 O   0  0  0  0  0  0  0  0  0  0  0  0
    7.9963  -16.1435   23.8643 N   0  0  0  0  0  0  0  0  0  0  0  0
    8.8137  -15.5694   24.8898 C   0  0  1  0  0  0  0  0  0  0  0  0
    8.1402  -15.3056   26.1824 C   0  0  0  0  0  0  0  0  0  0  0  0
    7.5657  -14.0032   26.4252 C   0  0  0  0  0  0  0  0  0  0  0  0
    8.2332  -12.8746   26.8224 C   0  0  0  0  0  0  0  0  0  0  0  0
    7.6148  -11.6598   27.0277 C   0  0  0  0  0  0  0  0  0  0  0  0
    6.2449  -11.5467   26.8286 C   0  0  0  0  0  0  0  0  0  0  0  0
    5.5584  -12.6712   26.4293 C   0  0  0  0  0  0  0  0  0  0  0  0
    6.1955  -13.8666   26.2321 C   0  0  0  0  0  0  0  0  0  0  0  0
   10.1839  -16.1293   25.0033 C   0  0  0  0  0  0  0  0  0  0  0  0
   10.4756  -16.7009   26.0804 O   0  0  0  0  0  0  0  0  0  0  0  0
   11.1820  -16.0722   24.0109 N   0  0  0  0  0  0  0  0  0  0  0  0
   12.5245  -16.6264   24.2266 C   0  0  0  0  0  0  0  0  0  0  0  0
   13.3665  -16.5212   23.0376 C   0  0  0  0  0  0  0  0  0  0  0  0
   14.5773  -16.8348   23.0930 O   0  0  0  0  0  0  0  0  0  0  0  0
   12.8610  -16.0788   21.8311 O   0  0  0  0  0  0  0  0  0  0  0  0
  2  1  1  0
  3  2  1  0
  4  3  1  0
  5  7  1  0
  5  4  1  0
  5  6  1  6
  7  8  2  0
  9  7  1  0
  9 10  1  0
 10 11  1  1
 11 12  1  0
 12 17  2  0
 13 12  1  0
 13 14  2  0
 14 15  1  0
 15 16  2  0
 17 16  1  0
 18 20  1  0
 18 10  1  0
 19 18  2  0
 21 20  1  0
 22 24  1  0
 22 21  1  0
 23 22  2  0
M  END
$$$$
