MFG.pdb
     RDKit          3D

 24 24  0  0  1  0  0  0  0  0999 V2000
    8.4665  -11.3366   19.8473 C   0  0  0  0  0  0  0  0  0  0  0  0
    7.5532  -12.6126   18.9054 S   0  0  0  0  0  0  0  0  0  0  0  0
    7.9950  -14.2350   19.5973 C   0  0  0  0  0  0  0  0  0  0  0  0
    8.0947  -14.1471   21.1259 C   0  0  0  0  0  0  0  0  0  0  0  0
    8.4845  -15.5246   21.6051 C   0  0  2  0  0  0  0  0  0  0  0  0
    7.2775  -16.3067   21.6617 N   0  0  0  0  0  0  0  0  0  0  0  0
    9.1501  -15.5124   22.9128 C   0  0  0  0  0  0  0  0  0  0  0  0
   10.3161  -15.0586   23.0774 O   0  0  0  0  0  0  0  0  0  0  0  0
    8.4819  -16.0218   24.0457 N   0  0  0  0  0  0  0  0  0  0  0  0
    8.9812  -15.9940   25.3871 C   0  0  1  0  0  0  0  0  0  0  0  0
    8.0564  -15.4547   26.4107 C   0  0  0  0  0  0  0  0  0  0  0  0
    7.6255  -14.0797   26.3172 C   0  0  0  0  0  0  0  0  0  0  0  0
    8.4244  -12.9671   26.3461 C   0  0  0  0  0  0  0  0  0  0  0  0
    7.9388  -11.6810   26.2435 C   0  0  0  0  0  0  0  0  0  0  0  0
    6.5725  -11.4745   26.1027 C   0  0  0  0  0  0  0  0  0  0  0  0
    5.7548  -12.5817   26.0717 C   0  0  0  0  0  0  0  0  0  0  0  0
    6.2617  -13.8490   26.1756 C   0  0  0  0  0  0  0  0  0  0  0  0
    9.7477  -17.1934   25.8087 C   0  0  0  0  0  0  0  0  0  0  0  0
   10.1239  -17.2346   27.0040 O   0  0  0  0  0  0  0  0  0  0  0  0
   10.0900  -18.2838   24.9853 N   0  0  0  0  0  0  0  0  0  0  0  0
   10.7850  -19.4658   25.5105 C   0  0  0  0  0  0  0  0  0  0  0  0
   12.2204  -19.4313   25.2418 C   0  0  0  0  0  0  0  0  0  0  0  0
   12.6826  -19.9776   24.2145 O   0  0  0  0  0  0  0  0  0  0  0  0
   13.1013  -18.8037   26.1002 O   0  0  0  0  0  0  0  0  0  0  0  0
  2  1  1  0
  3  2  1  0
  4  3  1  0
  5  7  1  0
  5  4  1  0
  5  6  1  1
  7  8  2  0
  9  7  1  0
  9 10  1  0
 10 11  1  1
 11 12  1  0
 12 17  2  0
 13 12  1  0
 13 14  2  0
 14 15  1  0
 15 16  2  0
 17 16  1  0
 18 20  1  0
 18 10  1  0
 19 18  2  0
 21 20  1  0
 22 24  1  0
 22 21  1  0
 23 22  2  0
M  END
$$$$
