MFG.pdb
     RDKit          3D

 24 24  0  0  1  0  0  0  0  0999 V2000
    7.9004  -11.3055   19.9343 C   0  0  0  0  0  0  0  0  0  0  0  0
    7.2416  -12.6608   18.8956 S   0  0  0  0  0  0  0  0  0  0  0  0
    7.6673  -14.2342   19.7013 C   0  0  0  0  0  0  0  0  0  0  0  0
    8.2474  -13.9719   21.0974 C   0  0  0  0  0  0  0  0  0  0  0  0
    8.6157  -15.3219   21.6638 C   0  0  2  0  0  0  0  0  0  0  0  0
    7.3962  -16.0788   21.7723 N   0  0  0  0  0  0  0  0  0  0  0  0
    9.2846  -15.2366   22.9671 C   0  0  0  0  0  0  0  0  0  0  0  0
   10.4008  -14.6686   23.1219 O   0  0  0  0  0  0  0  0  0  0  0  0
    8.6769  -15.8033   24.1068 N   0  0  0  0  0  0  0  0  0  0  0  0
    9.2346  -15.8177   25.4252 C   0  0  1  0  0  0  0  0  0  0  0  0
    8.3144  -15.4356   26.5213 C   0  0  0  0  0  0  0  0  0  0  0  0
    7.7106  -14.1240   26.5100 C   0  0  0  0  0  0  0  0  0  0  0  0
    8.3588  -12.9227   26.6278 C   0  0  0  0  0  0  0  0  0  0  0  0
    7.7123  -11.7055   26.6004 C   0  0  0  0  0  0  0  0  0  0  0  0
    6.3324  -11.6667   26.4465 C   0  0  0  0  0  0  0  0  0  0  0  0
    5.6650  -12.8648   26.3266 C   0  0  0  0  0  0  0  0  0  0  0  0
    6.3301  -14.0608   26.3568 C   0  0  0  0  0  0  0  0  0  0  0  0
   10.1250  -16.9657   25.7300 C   0  0  0  0  0  0  0  0  0  0  0  0
   10.5875  -17.0315   26.8934 O   0  0  0  0  0  0  0  0  0  0  0  0
   10.4963  -17.9824   24.8284 N   0  0  0  0  0  0  0  0  0  0  0  0
   11.2468  -19.1680   25.2607 C   0  0  0  0  0  0  0  0  0  0  0  0
   12.6568  -19.1004   24.8850 C   0  0  0  0  0  0  0  0  0  0  0  0
   13.4193  -20.0645   25.1229 O   0  0  0  0  0  0  0  0  0  0  0  0
   13.1865  -17.9865   24.2642 O   0  0  0  0  0  0  0  0  0  0  0  0
  2  1  1  0
  3  2  1  0
  4  3  1  0
  5  7  1  0
  5  4  1  0
  5  6  1  1
  7  8  2  0
  9  7  1  0
  9 10  1  0
 10 11  1  1
 11 12  1  0
 12 17  2  0
 13 12  1  0
 13 14  2  0
 14 15  1  0
 15 16  2  0
 17 16  1  0
 18 20  1  0
 18 10  1  0
 19 18  2  0
 21 20  1  0
 22 24  1  0
 22 21  1  0
 23 22  2  0
M  END
$$$$
