MFG.pdb
     RDKit          3D

 24 24  0  0  1  0  0  0  0  0999 V2000
    8.2598  -11.6475   20.6311 C   0  0  0  0  0  0  0  0  0  0  0  0
    6.9283  -12.8240   20.1926 S   0  0  0  0  0  0  0  0  0  0  0  0
    7.2903  -14.4037   21.0170 C   0  0  0  0  0  0  0  0  0  0  0  0
    8.7263  -14.8449   20.7044 C   0  0  0  0  0  0  0  0  0  0  0  0
    9.0004  -16.0454   21.5777 C   0  0  2  0  0  0  0  0  0  0  0  0
    7.7696  -16.7856   21.6724 N   0  0  0  0  0  0  0  0  0  0  0  0
    9.4874  -15.6860   22.9144 C   0  0  0  0  0  0  0  0  0  0  0  0
   10.5252  -14.9910   23.0952 O   0  0  0  0  0  0  0  0  0  0  0  0
    8.7862  -16.1216   24.0580 N   0  0  0  0  0  0  0  0  0  0  0  0
    9.1602  -15.8546   25.4138 C   0  0  1  0  0  0  0  0  0  0  0  0
    8.0639  -15.4347   26.3170 C   0  0  0  0  0  0  0  0  0  0  0  0
    7.6047  -14.0662   26.2797 C   0  0  0  0  0  0  0  0  0  0  0  0
    8.3346  -12.9485   26.5880 C   0  0  0  0  0  0  0  0  0  0  0  0
    7.8274  -11.6684   26.5212 C   0  0  0  0  0  0  0  0  0  0  0  0
    6.5109  -11.4737   26.1238 C   0  0  0  0  0  0  0  0  0  0  0  0
    5.7628  -12.5861   25.8101 C   0  0  0  0  0  0  0  0  0  0  0  0
    6.2897  -13.8473   25.8844 C   0  0  0  0  0  0  0  0  0  0  0  0
   10.1280  -16.8096   26.0096 C   0  0  0  0  0  0  0  0  0  0  0  0
   10.6296  -16.4937   27.1144 O   0  0  0  0  0  0  0  0  0  0  0  0
   10.5324  -18.0342   25.4428 N   0  0  0  0  0  0  0  0  0  0  0  0
   11.4575  -18.9418   26.1328 C   0  0  0  0  0  0  0  0  0  0  0  0
   10.8251  -19.6333   27.2534 C   0  0  0  0  0  0  0  0  0  0  0  0
    9.6314  -19.3964   27.5474 O   0  0  0  0  0  0  0  0  0  0  0  0
   11.5139  -20.5575   28.0137 O   0  0  0  0  0  0  0  0  0  0  0  0
  2  1  1  0
  3  2  1  0
  4  3  1  0
  5  7  1  0
  5  4  1  0
  5  6  1  1
  7  8  2  0
  9  7  1  0
  9 10  1  0
 10 11  1  1
 11 12  1  0
 12 17  2  0
 13 12  1  0
 13 14  2  0
 14 15  1  0
 15 16  2  0
 17 16  1  0
 18 20  1  0
 18 10  1  0
 19 18  2  0
 21 20  1  0
 22 24  1  0
 22 21  1  0
 23 22  2  0
M  END
$$$$
