MFG.pdb
     RDKit          3D

 24 24  0  0  1  0  0  0  0  0999 V2000
    8.0769  -11.7385   19.4886 C   0  0  0  0  0  0  0  0  0  0  0  0
    7.0848  -13.1784   18.9482 S   0  0  0  0  0  0  0  0  0  0  0  0
    7.7493  -14.6530   19.7789 C   0  0  0  0  0  0  0  0  0  0  0  0
    8.3195  -14.2730   21.1518 C   0  0  0  0  0  0  0  0  0  0  0  0
    8.8080  -15.5568   21.7780 C   0  0  2  0  0  0  0  0  0  0  0  0
    7.6677  -16.4274   21.8950 N   0  0  0  0  0  0  0  0  0  0  0  0
    9.4368  -15.3556   23.0884 C   0  0  0  0  0  0  0  0  0  0  0  0
   10.5300  -14.7412   23.2302 O   0  0  0  0  0  0  0  0  0  0  0  0
    8.8152  -15.8584   24.2503 N   0  0  0  0  0  0  0  0  0  0  0  0
    9.3059  -15.7077   25.5867 C   0  0  1  0  0  0  0  0  0  0  0  0
    8.3093  -15.2868   26.5984 C   0  0  0  0  0  0  0  0  0  0  0  0
    7.6911  -13.9871   26.4810 C   0  0  0  0  0  0  0  0  0  0  0  0
    8.2825  -12.7742   26.7178 C   0  0  0  0  0  0  0  0  0  0  0  0
    7.6272  -11.5696   26.5766 C   0  0  0  0  0  0  0  0  0  0  0  0
    6.2978  -11.5567   26.1746 C   0  0  0  0  0  0  0  0  0  0  0  0
    5.6877  -12.7668   25.9323 C   0  0  0  0  0  0  0  0  0  0  0  0
    6.3603  -13.9498   26.0797 C   0  0  0  0  0  0  0  0  0  0  0  0
   10.2522  -16.7568   26.0422 C   0  0  0  0  0  0  0  0  0  0  0  0
   10.7398  -16.6215   27.1893 O   0  0  0  0  0  0  0  0  0  0  0  0
   10.6507  -17.8855   25.2995 N   0  0  0  0  0  0  0  0  0  0  0  0
   11.5682  -18.8921   25.8481 C   0  0  0  0  0  0  0  0  0  0  0  0
   10.8609  -20.0304   26.4293 C   0  0  0  0  0  0  0  0  0  0  0  0
   10.3691  -19.9473   27.5776 O   0  0  0  0  0  0  0  0  0  0  0  0
   10.7141  -21.2181   25.7403 O   0  0  0  0  0  0  0  0  0  0  0  0
  2  1  1  0
  3  2  1  0
  4  3  1  0
  5  7  1  0
  5  4  1  0
  5  6  1  1
  7  8  2  0
  9  7  1  0
  9 10  1  0
 10 11  1  1
 11 12  1  0
 12 17  2  0
 13 12  1  0
 13 14  2  0
 14 15  1  0
 15 16  2  0
 17 16  1  0
 18 20  1  0
 18 10  1  0
 19 18  2  0
 21 20  1  0
 22 24  1  0
 22 21  1  0
 23 22  2  0
M  END
$$$$
