MFG.pdb
     RDKit          3D

 24 24  0  0  1  0  0  0  0  0999 V2000
    8.0659  -11.3997   20.2384 C   0  0  0  0  0  0  0  0  0  0  0  0
    7.6123  -12.7968   19.1465 S   0  0  0  0  0  0  0  0  0  0  0  0
    7.3364  -14.2549   20.1971 C   0  0  0  0  0  0  0  0  0  0  0  0
    7.9855  -14.0451   21.5716 C   0  0  0  0  0  0  0  0  0  0  0  0
    8.2943  -15.4217   22.1090 C   0  0  2  0  0  0  0  0  0  0  0  0
    7.0366  -16.1050   22.2611 N   0  0  0  0  0  0  0  0  0  0  0  0
    9.0202  -15.3926   23.3839 C   0  0  0  0  0  0  0  0  0  0  0  0
   10.1256  -14.7997   23.5229 O   0  0  0  0  0  0  0  0  0  0  0  0
    8.4828  -16.0449   24.5131 N   0  0  0  0  0  0  0  0  0  0  0  0
    9.1190  -16.1535   25.7909 C   0  0  1  0  0  0  0  0  0  0  0  0
    8.4153  -15.5047   26.9214 C   0  0  0  0  0  0  0  0  0  0  0  0
    7.6927  -14.2760   26.6902 C   0  0  0  0  0  0  0  0  0  0  0  0
    6.3571  -14.1511   26.4122 C   0  0  0  0  0  0  0  0  0  0  0  0
    5.7340  -12.9381   26.2101 C   0  0  0  0  0  0  0  0  0  0  0  0
    6.4760  -11.7664   26.2865 C   0  0  0  0  0  0  0  0  0  0  0  0
    7.8199  -11.8736   26.5651 C   0  0  0  0  0  0  0  0  0  0  0  0
    8.4154  -13.0903   26.7619 C   0  0  0  0  0  0  0  0  0  0  0  0
    9.7070  -17.4807   26.1014 C   0  0  0  0  0  0  0  0  0  0  0  0
    9.5999  -17.8862   27.2829 O   0  0  0  0  0  0  0  0  0  0  0  0
   10.3747  -18.3200   25.1881 N   0  0  0  0  0  0  0  0  0  0  0  0
   11.8338  -18.4826   25.2060 C   0  0  0  0  0  0  0  0  0  0  0  0
   12.3091  -19.3528   24.1333 C   0  0  0  0  0  0  0  0  0  0  0  0
   13.5004  -19.7371   24.1146 O   0  0  0  0  0  0  0  0  0  0  0  0
   11.4712  -19.7736   23.1196 O   0  0  0  0  0  0  0  0  0  0  0  0
  2  1  1  0
  3  2  1  0
  4  3  1  0
  5  7  1  0
  5  4  1  0
  5  6  1  1
  7  8  2  0
  9  7  1  0
  9 10  1  0
 10 11  1  1
 11 12  1  0
 12 17  2  0
 13 12  1  0
 13 14  2  0
 14 15  1  0
 15 16  2  0
 17 16  1  0
 18 20  1  0
 18 10  1  0
 19 18  2  0
 21 20  1  0
 22 24  1  0
 22 21  1  0
 23 22  2  0
M  END
$$$$
