MFG.pdb
     RDKit          3D

 24 24  0  0  1  0  0  0  0  0999 V2000
    8.2708  -11.5950   19.6560 C   0  0  0  0  0  0  0  0  0  0  0  0
    7.0709  -12.8094   18.9963 S   0  0  0  0  0  0  0  0  0  0  0  0
    7.3076  -14.3696   19.8994 C   0  0  0  0  0  0  0  0  0  0  0  0
    8.1980  -14.1385   21.1275 C   0  0  0  0  0  0  0  0  0  0  0  0
    8.3524  -15.4822   21.7980 C   0  0  2  0  0  0  0  0  0  0  0  0
    7.0268  -15.9595   22.0923 N   0  0  0  0  0  0  0  0  0  0  0  0
    9.1611  -15.4259   23.0211 C   0  0  0  0  0  0  0  0  0  0  0  0
   10.3263  -14.9419   23.0434 O   0  0  0  0  0  0  0  0  0  0  0  0
    8.6384  -15.9252   24.2322 N   0  0  0  0  0  0  0  0  0  0  0  0
    9.2866  -15.8591   25.5069 C   0  0  1  0  0  0  0  0  0  0  0  0
    8.4774  -15.3041   26.6165 C   0  0  0  0  0  0  0  0  0  0  0  0
    7.6938  -14.1125   26.3902 C   0  0  0  0  0  0  0  0  0  0  0  0
    6.3713  -14.0564   26.0371 C   0  0  0  0  0  0  0  0  0  0  0  0
    5.6863  -12.8756   25.8451 C   0  0  0  0  0  0  0  0  0  0  0  0
    6.3477  -11.6657   26.0118 C   0  0  0  0  0  0  0  0  0  0  0  0
    7.6773  -11.7035   26.3667 C   0  0  0  0  0  0  0  0  0  0  0  0
    8.3354  -12.8895   26.5515 C   0  0  0  0  0  0  0  0  0  0  0  0
   10.1116  -17.0397   25.8664 C   0  0  0  0  0  0  0  0  0  0  0  0
   10.8259  -16.9414   26.8921 O   0  0  0  0  0  0  0  0  0  0  0  0
   10.1635  -18.2554   25.1567 N   0  0  0  0  0  0  0  0  0  0  0  0
   11.1201  -18.4774   24.0651 C   0  0  0  0  0  0  0  0  0  0  0  0
   12.4085  -18.9691   24.5468 C   0  0  0  0  0  0  0  0  0  0  0  0
   12.4964  -20.1071   25.0613 O   0  0  0  0  0  0  0  0  0  0  0  0
   13.5548  -18.2051   24.4515 O   0  0  0  0  0  0  0  0  0  0  0  0
  2  1  1  0
  3  2  1  0
  4  3  1  0
  5  7  1  0
  5  4  1  0
  5  6  1  1
  7  8  2  0
  9  7  1  0
  9 10  1  0
 10 11  1  1
 11 12  1  0
 12 17  2  0
 13 12  1  0
 13 14  2  0
 14 15  1  0
 15 16  2  0
 17 16  1  0
 18 20  1  0
 18 10  1  0
 19 18  2  0
 21 20  1  0
 22 24  1  0
 22 21  1  0
 23 22  2  0
M  END
$$$$
