MFG.pdb
     RDKit          3D

 24 24  0  0  1  0  0  0  0  0999 V2000
    8.3873  -11.5800   19.8074 C   0  0  0  0  0  0  0  0  0  0  0  0
    7.3000  -12.9111   19.1786 S   0  0  0  0  0  0  0  0  0  0  0  0
    7.4722  -14.3395   20.2903 C   0  0  0  0  0  0  0  0  0  0  0  0
    8.9495  -14.5587   20.6426 C   0  0  0  0  0  0  0  0  0  0  0  0
    9.0047  -15.8179   21.4735 C   0  0  2  0  0  0  0  0  0  0  0  0
    7.6774  -16.3745   21.4812 N   0  0  0  0  0  0  0  0  0  0  0  0
    9.4709  -15.5830   22.8448 C   0  0  0  0  0  0  0  0  0  0  0  0
   10.5636  -15.0061   23.1014 O   0  0  0  0  0  0  0  0  0  0  0  0
    8.6855  -16.0086   23.9362 N   0  0  0  0  0  0  0  0  0  0  0  0
    9.0362  -15.8684   25.3171 C   0  0  1  0  0  0  0  0  0  0  0  0
    7.9282  -15.5118   26.2332 C   0  0  0  0  0  0  0  0  0  0  0  0
    7.5634  -14.1237   26.3918 C   0  0  0  0  0  0  0  0  0  0  0  0
    8.3939  -13.0940   26.7481 C   0  0  0  0  0  0  0  0  0  0  0  0
    7.9726  -11.7873   26.8726 C   0  0  0  0  0  0  0  0  0  0  0  0
    6.6422  -11.4711   26.6298 C   0  0  0  0  0  0  0  0  0  0  0  0
    5.7935  -12.4938   26.2706 C   0  0  0  0  0  0  0  0  0  0  0  0
    6.2363  -13.7838   26.1537 C   0  0  0  0  0  0  0  0  0  0  0  0
    9.9777  -16.8879   25.8441 C   0  0  0  0  0  0  0  0  0  0  0  0
   10.1447  -16.9173   27.0863 O   0  0  0  0  0  0  0  0  0  0  0  0
   10.6992  -17.8199   25.0726 N   0  0  0  0  0  0  0  0  0  0  0  0
   11.5089  -18.8780   25.6897 C   0  0  0  0  0  0  0  0  0  0  0  0
   12.2309  -19.6736   24.7000 C   0  0  0  0  0  0  0  0  0  0  0  0
   12.1705  -19.3751   23.4857 O   0  0  0  0  0  0  0  0  0  0  0  0
   12.9927  -20.7654   25.0670 O   0  0  0  0  0  0  0  0  0  0  0  0
  2  1  1  0
  3  2  1  0
  4  3  1  0
  5  7  1  0
  5  4  1  0
  5  6  1  1
  7  8  2  0
  9  7  1  0
  9 10  1  0
 10 11  1  1
 11 12  1  0
 12 17  2  0
 13 12  1  0
 13 14  2  0
 14 15  1  0
 15 16  2  0
 17 16  1  0
 18 20  1  0
 18 10  1  0
 19 18  2  0
 21 20  1  0
 22 24  1  0
 22 21  1  0
 23 22  2  0
M  END
$$$$
