MFG.pdb
     RDKit          3D

 24 24  0  0  1  0  0  0  0  0999 V2000
    8.2950  -11.3985   19.8876 C   0  0  0  0  0  0  0  0  0  0  0  0
    7.3074  -12.6519   18.9916 S   0  0  0  0  0  0  0  0  0  0  0  0
    7.5523  -14.2498   19.8240 C   0  0  0  0  0  0  0  0  0  0  0  0
    8.3302  -14.0497   21.1314 C   0  0  0  0  0  0  0  0  0  0  0  0
    8.5629  -15.4281   21.7013 C   0  0  2  0  0  0  0  0  0  0  0  0
    7.2727  -16.0537   21.8273 N   0  0  0  0  0  0  0  0  0  0  0  0
    9.2518  -15.4068   22.9968 C   0  0  0  0  0  0  0  0  0  0  0  0
   10.4260  -14.9655   23.1345 O   0  0  0  0  0  0  0  0  0  0  0  0
    8.5977  -15.8926   24.1481 N   0  0  0  0  0  0  0  0  0  0  0  0
    9.1323  -15.8776   25.4760 C   0  0  1  0  0  0  0  0  0  0  0  0
    8.1935  -15.4709   26.5470 C   0  0  0  0  0  0  0  0  0  0  0  0
    7.5545  -14.1782   26.4712 C   0  0  0  0  0  0  0  0  0  0  0  0
    6.2448  -13.9290   26.1556 C   0  0  0  0  0  0  0  0  0  0  0  0
    5.7027  -12.6623   26.1104 C   0  0  0  0  0  0  0  0  0  0  0  0
    6.5041  -11.5643   26.3953 C   0  0  0  0  0  0  0  0  0  0  0  0
    7.8230  -11.7965   26.7145 C   0  0  0  0  0  0  0  0  0  0  0  0
    8.3377  -13.0643   26.7526 C   0  0  0  0  0  0  0  0  0  0  0  0
   10.0167  -17.0186   25.8218 C   0  0  0  0  0  0  0  0  0  0  0  0
   10.4160  -17.0874   27.0083 O   0  0  0  0  0  0  0  0  0  0  0  0
   10.4470  -18.0256   24.9357 N   0  0  0  0  0  0  0  0  0  0  0  0
   11.2183  -19.1873   25.3955 C   0  0  0  0  0  0  0  0  0  0  0  0
   12.6388  -19.0732   25.0745 C   0  0  0  0  0  0  0  0  0  0  0  0
   13.0672  -18.0713   24.4581 O   0  0  0  0  0  0  0  0  0  0  0  0
   13.5421  -20.0534   25.4355 O   0  0  0  0  0  0  0  0  0  0  0  0
  2  1  1  0
  3  2  1  0
  4  3  1  0
  5  7  1  0
  5  4  1  0
  5  6  1  1
  7  8  2  0
  9  7  1  0
  9 10  1  0
 10 11  1  1
 11 12  1  0
 12 17  2  0
 13 12  1  0
 13 14  2  0
 14 15  1  0
 15 16  2  0
 17 16  1  0
 18 20  1  0
 18 10  1  0
 19 18  2  0
 21 20  1  0
 22 24  1  0
 22 21  1  0
 23 22  2  0
M  END
$$$$
