MFG.pdb
     RDKit          3D

 24 24  0  0  1  0  0  0  0  0999 V2000
    7.9142  -11.5216   19.5227 C   0  0  0  0  0  0  0  0  0  0  0  0
    7.6658  -13.0148   18.4940 S   0  0  0  0  0  0  0  0  0  0  0  0
    7.4809  -14.4353   19.6138 C   0  0  0  0  0  0  0  0  0  0  0  0
    8.0721  -14.1026   20.9900 C   0  0  0  0  0  0  0  0  0  0  0  0
    8.4359  -15.4228   21.6255 C   0  0  2  0  0  0  0  0  0  0  0  0
    7.2086  -16.1514   21.8120 N   0  0  0  0  0  0  0  0  0  0  0  0
    9.1425  -15.2719   22.9027 C   0  0  0  0  0  0  0  0  0  0  0  0
   10.2735  -14.7192   22.9921 O   0  0  0  0  0  0  0  0  0  0  0  0
    8.5560  -15.7547   24.0911 N   0  0  0  0  0  0  0  0  0  0  0  0
    9.1588  -15.7192   25.3890 C   0  0  1  0  0  0  0  0  0  0  0  0
    8.2518  -15.3986   26.5153 C   0  0  0  0  0  0  0  0  0  0  0  0
    7.5354  -14.1449   26.5088 C   0  0  0  0  0  0  0  0  0  0  0  0
    6.1943  -13.9689   26.2913 C   0  0  0  0  0  0  0  0  0  0  0  0
    5.5780  -12.7358   26.3080 C   0  0  0  0  0  0  0  0  0  0  0  0
    6.3329  -11.5966   26.5558 C   0  0  0  0  0  0  0  0  0  0  0  0
    7.6825  -11.7553   26.7765 C   0  0  0  0  0  0  0  0  0  0  0  0
    8.2711  -12.9909   26.7547 C   0  0  0  0  0  0  0  0  0  0  0  0
   10.1417  -16.7965   25.6669 C   0  0  0  0  0  0  0  0  0  0  0  0
   10.6622  -16.8090   26.8074 O   0  0  0  0  0  0  0  0  0  0  0  0
   10.5409  -17.8006   24.7632 N   0  0  0  0  0  0  0  0  0  0  0  0
   11.4574  -18.8787   25.1550 C   0  0  0  0  0  0  0  0  0  0  0  0
   12.7945  -18.7026   24.5939 C   0  0  0  0  0  0  0  0  0  0  0  0
   13.6889  -19.5493   24.8187 O   0  0  0  0  0  0  0  0  0  0  0  0
   13.1106  -17.6116   23.8086 O   0  0  0  0  0  0  0  0  0  0  0  0
  2  1  1  0
  3  2  1  0
  4  3  1  0
  5  7  1  0
  5  4  1  0
  5  6  1  1
  7  8  2  0
  9  7  1  0
  9 10  1  0
 10 11  1  1
 11 12  1  0
 12 17  2  0
 13 12  1  0
 13 14  2  0
 14 15  1  0
 15 16  2  0
 17 16  1  0
 18 20  1  0
 18 10  1  0
 19 18  2  0
 21 20  1  0
 22 24  1  0
 22 21  1  0
 23 22  2  0
M  END
$$$$
