ELC.pdb
     RDKit          3D

 24 23  0  0  1  0  0  0  0  0999 V2000
    7.5700  -17.3714   21.6381 N   0  0  0  0  0  0  0  0  0  0  0  0
    8.9925  -17.0634   21.6073 C   0  0  1  0  0  0  0  0  0  0  0  0
    9.3826  -16.3969   20.3267 C   0  0  0  0  0  0  0  0  0  0  0  0
    9.7577  -17.4383   19.3128 C   0  0  0  0  0  0  0  0  0  0  0  0
   10.9105  -17.0675   18.4679 C   0  0  0  0  0  0  0  0  0  0  0  0
   11.2525  -17.8713   17.5305 O   0  0  0  0  0  0  0  0  0  0  0  0
    9.2921  -16.2291   22.7987 C   0  0  0  0  0  0  0  0  0  0  0  0
   10.4331  -15.7285   22.9007 O   0  0  0  0  0  0  0  0  0  0  0  0
   11.6649  -15.9336   18.5821 O   0  0  0  0  0  0  0  0  0  0  0  0
    7.3899  -12.3419   24.8237 C   0  0  0  0  0  0  0  0  0  0  0  0
    6.5344  -13.5823   25.1389 C   0  0  2  0  0  0  0  0  0  0  0  0
    5.3323  -13.1999   25.8777 C   0  0  0  0  0  0  0  0  0  0  0  0
    7.3615  -14.7172   25.5233 C   0  0  0  0  0  0  0  0  0  0  0  0
    8.6727  -15.0050   24.9404 C   0  0  2  0  0  0  0  0  0  0  0  0
    8.3600  -15.9692   23.8223 N   0  0  0  0  0  0  0  0  0  0  0  0
    9.5570  -15.7549   25.8311 C   0  0  0  0  0  0  0  0  0  0  0  0
    9.7086  -17.0240   25.7130 O   0  0  0  0  0  0  0  0  0  0  0  0
   10.3334  -15.1905   26.8874 N   0  0  0  0  0  0  0  0  0  0  0  0
   11.2059  -15.9931   27.6915 C   0  0  1  0  0  0  0  0  0  0  0  0
   11.7586  -15.0430   28.7730 C   0  0  0  0  0  0  0  0  0  0  0  0
   10.4300  -14.0855   29.5385 S   0  0  0  0  0  0  0  0  0  0  0  0
   10.5099  -17.0911   28.3650 C   0  0  0  0  0  0  0  0  0  0  0  0
   11.1364  -18.0687   29.1170 O   0  0  0  0  0  0  0  0  0  0  0  0
    9.2376  -17.2189   28.2970 O   0  0  0  0  0  0  0  0  0  0  0  0
  2  1  1  6
  3  2  1  0
  4  3  1  0
  5  4  1  0
  5  6  2  0
  7  8  2  0
  7  2  1  0
  9  5  1  0
 11 10  1  1
 11 12  1  0
 11 13  1  0
 14 13  1  1
 14 15  1  0
 15  7  1  0
 16 14  1  0
 17 16  2  0
 18 16  1  0
 19 20  1  1
 19 18  1  0
 20 21  1  0
 22 19  1  0
 23 22  1  0
 24 22  2  0
M  END
$$$$
