ELC.pdb
     RDKit          3D

 24 23  0  0  1  0  0  0  0  0999 V2000
   11.4615  -18.3694   19.1966 N   0  0  0  0  0  0  0  0  0  0  0  0
   10.6359  -18.4916   20.3894 C   0  0  1  0  0  0  0  0  0  0  0  0
   11.2592  -19.4029   21.3980 C   0  0  0  0  0  0  0  0  0  0  0  0
   11.9554  -20.5306   20.6930 C   0  0  0  0  0  0  0  0  0  0  0  0
   12.5131  -21.5538   21.5998 C   0  0  0  0  0  0  0  0  0  0  0  0
   11.6997  -22.3753   22.1524 O   0  0  0  0  0  0  0  0  0  0  0  0
   10.4145  -17.1218   20.9184 C   0  0  0  0  0  0  0  0  0  0  0  0
   11.4092  -16.4602   21.2869 O   0  0  0  0  0  0  0  0  0  0  0  0
   13.8320  -21.7210   21.9165 O   0  0  0  0  0  0  0  0  0  0  0  0
    8.4383  -12.3150   20.7700 C   0  0  0  0  0  0  0  0  0  0  0  0
    7.5951  -13.4674   20.1948 C   0  0  2  0  0  0  0  0  0  0  0  0
    6.3059  -12.9693   19.7187 C   0  0  0  0  0  0  0  0  0  0  0  0
    7.7189  -14.6732   21.0013 C   0  0  0  0  0  0  0  0  0  0  0  0
    8.9767  -15.1344   21.5906 C   0  0  2  0  0  0  0  0  0  0  0  0
    9.1434  -16.5248   21.0279 N   0  0  0  0  0  0  0  0  0  0  0  0
    8.9067  -15.3332   23.0374 C   0  0  0  0  0  0  0  0  0  0  0  0
    8.8992  -14.3407   23.8513 O   0  0  0  0  0  0  0  0  0  0  0  0
    8.8310  -16.5993   23.6920 N   0  0  0  0  0  0  0  0  0  0  0  0
    8.7793  -16.7063   25.1195 C   0  0  1  0  0  0  0  0  0  0  0  0
    7.2793  -16.7445   25.4751 C   0  0  0  0  0  0  0  0  0  0  0  0
    6.5173  -18.2856   24.9163 S   0  0  0  0  0  0  0  0  0  0  0  0
    9.3959  -17.9358   25.6212 C   0  0  0  0  0  0  0  0  0  0  0  0
   10.0104  -18.8837   24.8228 O   0  0  0  0  0  0  0  0  0  0  0  0
    9.4043  -18.2191   26.8699 O   0  0  0  0  0  0  0  0  0  0  0  0
  2  1  1  6
  3  2  1  0
  4  3  1  0
  5  4  1  0
  5  6  2  0
  7  8  2  0
  7  2  1  0
  9  5  1  0
 11 10  1  1
 11 12  1  0
 11 13  1  0
 14 13  1  6
 14 15  1  0
 15  7  1  0
 16 14  1  0
 17 16  2  0
 18 16  1  0
 19 20  1  6
 19 18  1  0
 20 21  1  0
 22 19  1  0
 23 22  1  0
 24 22  2  0
M  END
$$$$
