ELC.pdb
     RDKit          3D

 24 23  0  0  1  0  0  0  0  0999 V2000
    9.6056  -17.5365   20.9003 N   0  0  0  0  0  0  0  0  0  0  0  0
    9.2985  -17.7448   22.3080 C   0  0  1  0  0  0  0  0  0  0  0  0
   10.1659  -18.8046   22.9085 C   0  0  0  0  0  0  0  0  0  0  0  0
    9.3050  -19.8558   23.5465 C   0  0  0  0  0  0  0  0  0  0  0  0
    9.9809  -20.6204   24.6138 C   0  0  0  0  0  0  0  0  0  0  0  0
   11.1134  -21.1560   24.3450 O   0  0  0  0  0  0  0  0  0  0  0  0
    9.4422  -16.4346   22.9923 C   0  0  0  0  0  0  0  0  0  0  0  0
   10.4266  -15.7198   22.7044 O   0  0  0  0  0  0  0  0  0  0  0  0
    9.5168  -20.8191   25.8838 O   0  0  0  0  0  0  0  0  0  0  0  0
    5.6464  -13.1373   26.4634 C   0  0  0  0  0  0  0  0  0  0  0  0
    7.0686  -13.0832   25.8767 C   0  0  2  0  0  0  0  0  0  0  0  0
    7.3638  -11.7424   25.3746 C   0  0  0  0  0  0  0  0  0  0  0  0
    7.3804  -14.2882   25.1213 C   0  0  0  0  0  0  0  0  0  0  0  0
    8.7086  -14.5963   24.5895 C   0  0  2  0  0  0  0  0  0  0  0  0
    8.5289  -15.9512   23.9494 N   0  0  0  0  0  0  0  0  0  0  0  0
    9.7174  -14.8139   25.6251 C   0  0  0  0  0  0  0  0  0  0  0  0
   10.7329  -14.0380   25.7459 O   0  0  0  0  0  0  0  0  0  0  0  0
    9.6920  -15.8634   26.5921 N   0  0  0  0  0  0  0  0  0  0  0  0
   10.6568  -15.9367   27.6483 C   0  0  1  0  0  0  0  0  0  0  0  0
   10.0546  -15.1249   28.8127 C   0  0  0  0  0  0  0  0  0  0  0  0
   10.3605  -13.3561   28.5994 S   0  0  0  0  0  0  0  0  0  0  0  0
   10.8836  -17.3046   28.1185 C   0  0  0  0  0  0  0  0  0  0  0  0
   11.7366  -17.6437   29.1533 O   0  0  0  0  0  0  0  0  0  0  0  0
   10.2875  -18.3037   27.5835 O   0  0  0  0  0  0  0  0  0  0  0  0
  2  1  1  6
  3  2  1  0
  4  3  1  0
  5  4  1  0
  5  6  2  0
  7  8  2  0
  7  2  1  0
  9  5  1  0
 11 10  1  6
 11 12  1  0
 11 13  1  0
 14 13  1  1
 14 15  1  0
 15  7  1  0
 16 14  1  0
 17 16  2  0
 18 16  1  0
 19 20  1  1
 19 18  1  0
 20 21  1  0
 22 19  1  0
 23 22  1  0
 24 22  2  0
M  END
$$$$
