ELC.pdb
     RDKit          3D

 24 23  0  0  1  0  0  0  0  0999 V2000
    8.0006  -18.1320   22.4474 N   0  0  0  0  0  0  0  0  0  0  0  0
    9.1192  -17.4342   21.8299 C   0  0  1  0  0  0  0  0  0  0  0  0
    8.9062  -17.2459   20.3617 C   0  0  0  0  0  0  0  0  0  0  0  0
    9.2029  -18.5298   19.6428 C   0  0  0  0  0  0  0  0  0  0  0  0
    9.8667  -18.3481   18.3364 C   0  0  0  0  0  0  0  0  0  0  0  0
   11.1284  -18.5606   18.2680 O   0  0  0  0  0  0  0  0  0  0  0  0
    9.2921  -16.1473   22.5506 C   0  0  0  0  0  0  0  0  0  0  0  0
   10.2641  -15.4226   22.2457 O   0  0  0  0  0  0  0  0  0  0  0  0
    9.2642  -17.9711   17.1690 O   0  0  0  0  0  0  0  0  0  0  0  0
    5.8704  -13.0992   26.6171 C   0  0  0  0  0  0  0  0  0  0  0  0
    7.2487  -13.0378   25.9341 C   0  0  2  0  0  0  0  0  0  0  0  0
    7.5604  -11.6667   25.5343 C   0  0  0  0  0  0  0  0  0  0  0  0
    7.4584  -14.1772   25.0523 C   0  0  0  0  0  0  0  0  0  0  0  0
    8.7127  -14.4415   24.3460 C   0  0  2  0  0  0  0  0  0  0  0  0
    8.4199  -15.6966   23.5606 N   0  0  0  0  0  0  0  0  0  0  0  0
    9.8151  -14.8148   25.2309 C   0  0  0  0  0  0  0  0  0  0  0  0
   11.0056  -14.3738   25.0420 O   0  0  0  0  0  0  0  0  0  0  0  0
    9.7046  -15.6692   26.3688 N   0  0  0  0  0  0  0  0  0  0  0  0
   10.8455  -16.0172   27.1619 C   0  0  1  0  0  0  0  0  0  0  0  0
   11.1763  -14.7545   27.9830 C   0  0  0  0  0  0  0  0  0  0  0  0
    9.7335  -14.1861   28.9120 S   0  0  0  0  0  0  0  0  0  0  0  0
   10.5763  -17.1097   28.0986 C   0  0  0  0  0  0  0  0  0  0  0  0
   11.5075  -17.6324   28.9779 O   0  0  0  0  0  0  0  0  0  0  0  0
    9.4253  -17.6674   28.1634 O   0  0  0  0  0  0  0  0  0  0  0  0
  2  1  1  1
  3  2  1  0
  4  3  1  0
  5  4  1  0
  5  6  2  0
  7  8  2  0
  7  2  1  0
  9  5  1  0
 11 10  1  6
 11 12  1  0
 11 13  1  0
 14 13  1  1
 14 15  1  0
 15  7  1  0
 16 14  1  0
 17 16  2  0
 18 16  1  0
 19 20  1  1
 19 18  1  0
 20 21  1  0
 22 19  1  0
 23 22  1  0
 24 22  2  0
M  END
$$$$
