ELC.pdb
     RDKit          3D

 24 23  0  0  1  0  0  0  0  0999 V2000
    7.8820  -16.8951   20.9019 N   0  0  0  0  0  0  0  0  0  0  0  0
    8.5730  -17.1622   22.1551 C   0  0  1  0  0  0  0  0  0  0  0  0
    9.8415  -17.9221   21.9318 C   0  0  0  0  0  0  0  0  0  0  0  0
    9.7216  -19.2889   22.5407 C   0  0  0  0  0  0  0  0  0  0  0  0
   11.0135  -19.9786   22.7296 C   0  0  0  0  0  0  0  0  0  0  0  0
   11.2375  -21.0355   22.0407 O   0  0  0  0  0  0  0  0  0  0  0  0
    8.8009  -15.8559   22.8236 C   0  0  0  0  0  0  0  0  0  0  0  0
    9.5192  -15.0113   22.2461 O   0  0  0  0  0  0  0  0  0  0  0  0
   12.0158  -19.5993   23.5777 O   0  0  0  0  0  0  0  0  0  0  0  0
    5.6078  -12.9144   27.0171 C   0  0  0  0  0  0  0  0  0  0  0  0
    6.9414  -12.7718   26.2615 C   0  0  2  0  0  0  0  0  0  0  0  0
    7.1534  -11.3834   25.8561 C   0  0  0  0  0  0  0  0  0  0  0  0
    7.1668  -13.8933   25.3608 C   0  0  0  0  0  0  0  0  0  0  0  0
    8.4275  -14.1335   24.6574 C   0  0  2  0  0  0  0  0  0  0  0  0
    8.2512  -15.5145   24.0747 N   0  0  0  0  0  0  0  0  0  0  0  0
    9.5799  -14.2589   25.5484 C   0  0  0  0  0  0  0  0  0  0  0  0
   10.2732  -13.2361   25.8963 O   0  0  0  0  0  0  0  0  0  0  0  0
   10.0478  -15.4787   26.1231 N   0  0  0  0  0  0  0  0  0  0  0  0
   11.2583  -15.5348   26.8869 C   0  0  1  0  0  0  0  0  0  0  0  0
   10.9515  -14.7862   28.1996 C   0  0  0  0  0  0  0  0  0  0  0  0
    9.6194  -15.5962   29.1145 S   0  0  0  0  0  0  0  0  0  0  0  0
   11.6544  -16.9027   27.2267 C   0  0  0  0  0  0  0  0  0  0  0  0
   12.7977  -17.2327   27.9321 O   0  0  0  0  0  0  0  0  0  0  0  0
   10.9444  -17.9107   26.8805 O   0  0  0  0  0  0  0  0  0  0  0  0
  2  1  1  6
  3  2  1  0
  4  3  1  0
  5  4  1  0
  5  6  2  0
  7  8  2  0
  7  2  1  0
  9  5  1  0
 11 10  1  6
 11 12  1  0
 11 13  1  0
 14 13  1  1
 14 15  1  0
 15  7  1  0
 16 14  1  0
 17 16  2  0
 18 16  1  0
 19 20  1  1
 19 18  1  0
 20 21  1  0
 22 19  1  0
 23 22  1  0
 24 22  2  0
M  END
$$$$
