ELC.pdb
     RDKit          3D

 24 23  0  0  1  0  0  0  0  0999 V2000
    7.5950  -17.5270   22.5634 N   0  0  0  0  0  0  0  0  0  0  0  0
    8.8409  -17.0015   22.0241 C   0  0  1  0  0  0  0  0  0  0  0  0
    8.6900  -16.5888   20.5947 C   0  0  0  0  0  0  0  0  0  0  0  0
    8.0530  -17.7024   19.8154 C   0  0  0  0  0  0  0  0  0  0  0  0
    8.1361  -17.5356   18.3506 C   0  0  0  0  0  0  0  0  0  0  0  0
    7.1483  -16.9816   17.7513 O   0  0  0  0  0  0  0  0  0  0  0  0
    9.2655  -15.8796   22.8997 C   0  0  0  0  0  0  0  0  0  0  0  0
   10.2978  -15.2450   22.5923 O   0  0  0  0  0  0  0  0  0  0  0  0
    9.1775  -17.9160   17.5515 O   0  0  0  0  0  0  0  0  0  0  0  0
    7.6523  -11.6351   25.1384 C   0  0  0  0  0  0  0  0  0  0  0  0
    6.9290  -12.9505   25.4796 C   0  0  2  0  0  0  0  0  0  0  0  0
    5.7740  -12.6913   26.3372 C   0  0  0  0  0  0  0  0  0  0  0  0
    7.8741  -14.0262   25.7434 C   0  0  0  0  0  0  0  0  0  0  0  0
    9.0304  -14.3216   24.8963 C   0  0  2  0  0  0  0  0  0  0  0  0
    8.5681  -15.4896   24.0596 N   0  0  0  0  0  0  0  0  0  0  0  0
   10.1813  -14.8369   25.6362 C   0  0  0  0  0  0  0  0  0  0  0  0
   11.2513  -14.1427   25.7807 O   0  0  0  0  0  0  0  0  0  0  0  0
   10.2487  -16.1144   26.2690 N   0  0  0  0  0  0  0  0  0  0  0  0
   11.4322  -16.5588   26.9425 C   0  0  1  0  0  0  0  0  0  0  0  0
   11.5898  -15.6230   28.1579 C   0  0  0  0  0  0  0  0  0  0  0  0
   10.3209  -15.9534   29.4024 S   0  0  0  0  0  0  0  0  0  0  0  0
   11.3236  -17.9321   27.4385 C   0  0  0  0  0  0  0  0  0  0  0  0
   12.3186  -18.5912   28.1379 O   0  0  0  0  0  0  0  0  0  0  0  0
   10.2672  -18.6306   27.2489 O   0  0  0  0  0  0  0  0  0  0  0  0
  2  1  1  1
  3  2  1  0
  4  3  1  0
  5  4  1  0
  5  6  2  0
  7  8  2  0
  7  2  1  0
  9  5  1  0
 11 10  1  1
 11 12  1  0
 11 13  1  0
 14 13  1  1
 14 15  1  0
 15  7  1  0
 16 14  1  0
 17 16  2  0
 18 16  1  0
 19 20  1  1
 19 18  1  0
 20 21  1  0
 22 19  1  0
 23 22  1  0
 24 22  2  0
M  END
$$$$
