ELC.pdb
     RDKit          3D

 24 23  0  0  1  0  0  0  0  0999 V2000
    9.2273  -15.2837   20.8109 N   0  0  0  0  0  0  0  0  0  0  0  0
    8.5919  -16.0543   21.8700 C   0  0  1  0  0  0  0  0  0  0  0  0
    8.9502  -17.5037   21.7855 C   0  0  0  0  0  0  0  0  0  0  0  0
    8.4328  -18.0743   20.4971 C   0  0  0  0  0  0  0  0  0  0  0  0
    8.5593  -19.5419   20.3955 C   0  0  0  0  0  0  0  0  0  0  0  0
    8.1198  -20.1116   19.3353 O   0  0  0  0  0  0  0  0  0  0  0  0
    8.9897  -15.4430   23.1637 C   0  0  0  0  0  0  0  0  0  0  0  0
   10.1840  -15.1077   23.3190 O   0  0  0  0  0  0  0  0  0  0  0  0
    9.1084  -20.3726   21.3316 O   0  0  0  0  0  0  0  0  0  0  0  0
    7.7420  -11.6726   25.6220 C   0  0  0  0  0  0  0  0  0  0  0  0
    6.7108  -12.8135   25.6926 C   0  0  2  0  0  0  0  0  0  0  0  0
    5.4525  -12.3309   26.2588 C   0  0  0  0  0  0  0  0  0  0  0  0
    7.3275  -14.0650   26.1087 C   0  0  0  0  0  0  0  0  0  0  0  0
    8.5575  -14.6017   25.5246 C   0  0  2  0  0  0  0  0  0  0  0  0
    8.0944  -15.2191   24.2277 N   0  0  0  0  0  0  0  0  0  0  0  0
    9.1237  -15.7194   26.2781 C   0  0  0  0  0  0  0  0  0  0  0  0
    8.5698  -16.8774   26.2780 O   0  0  0  0  0  0  0  0  0  0  0  0
   10.3146  -15.6645   27.0628 N   0  0  0  0  0  0  0  0  0  0  0  0
   10.7667  -16.7906   27.8239 C   0  0  1  0  0  0  0  0  0  0  0  0
   12.1683  -17.1231   27.2738 C   0  0  0  0  0  0  0  0  0  0  0  0
   12.9530  -18.4332   28.2410 S   0  0  0  0  0  0  0  0  0  0  0  0
   10.8979  -16.4970   29.2522 C   0  0  0  0  0  0  0  0  0  0  0  0
   11.0279  -17.4579   30.2387 O   0  0  0  0  0  0  0  0  0  0  0  0
   10.9000  -15.2938   29.6908 O   0  0  0  0  0  0  0  0  0  0  0  0
  2  1  1  6
  3  2  1  0
  4  3  1  0
  5  4  1  0
  5  6  2  0
  7  8  2  0
  7  2  1  0
  9  5  1  0
 11 10  1  1
 11 12  1  0
 11 13  1  0
 14 13  1  1
 14 15  1  0
 15  7  1  0
 16 14  1  0
 17 16  2  0
 18 16  1  0
 19 20  1  6
 19 18  1  0
 20 21  1  0
 22 19  1  0
 23 22  1  0
 24 22  2  0
M  END
$$$$
