ELC.pdb
     RDKit          3D

 24 23  0  0  1  0  0  0  0  0999 V2000
    8.7240  -15.3459   20.5633 N   0  0  0  0  0  0  0  0  0  0  0  0
    8.1602  -16.0608   21.6992 C   0  0  1  0  0  0  0  0  0  0  0  0
    8.4399  -17.5276   21.6189 C   0  0  0  0  0  0  0  0  0  0  0  0
    7.6929  -18.1182   20.4585 C   0  0  0  0  0  0  0  0  0  0  0  0
    7.9100  -19.5676   20.2785 C   0  0  0  0  0  0  0  0  0  0  0  0
    8.6354  -19.9494   19.2937 O   0  0  0  0  0  0  0  0  0  0  0  0
    8.7116  -15.4417   22.9314 C   0  0  0  0  0  0  0  0  0  0  0  0
    9.9118  -15.0922   22.9337 O   0  0  0  0  0  0  0  0  0  0  0  0
    7.4099  -20.5642   21.0687 O   0  0  0  0  0  0  0  0  0  0  0  0
    8.0063  -11.6266   25.5854 C   0  0  0  0  0  0  0  0  0  0  0  0
    6.8956  -12.6880   25.6842 C   0  0  2  0  0  0  0  0  0  0  0  0
    5.7158  -12.1331   26.3453 C   0  0  0  0  0  0  0  0  0  0  0  0
    7.4371  -13.9974   26.0187 C   0  0  0  0  0  0  0  0  0  0  0  0
    8.5748  -14.6092   25.3308 C   0  0  2  0  0  0  0  0  0  0  0  0
    7.9557  -15.2255   24.1001 N   0  0  0  0  0  0  0  0  0  0  0  0
    9.1549  -15.7410   26.0520 C   0  0  0  0  0  0  0  0  0  0  0  0
    8.4855  -16.8157   26.2636 O   0  0  0  0  0  0  0  0  0  0  0  0
   10.4813  -15.7908   26.5767 N   0  0  0  0  0  0  0  0  0  0  0  0
   10.9652  -16.9340   27.2913 C   0  0  1  0  0  0  0  0  0  0  0  0
   12.4947  -16.9245   27.0953 C   0  0  0  0  0  0  0  0  0  0  0  0
   13.2786  -18.2596   28.0285 S   0  0  0  0  0  0  0  0  0  0  0  0
   10.6915  -16.8655   28.7279 C   0  0  0  0  0  0  0  0  0  0  0  0
   10.6246  -17.9657   29.5639 O   0  0  0  0  0  0  0  0  0  0  0  0
   10.4901  -15.7472   29.3183 O   0  0  0  0  0  0  0  0  0  0  0  0
  2  1  1  6
  3  2  1  0
  4  3  1  0
  5  4  1  0
  5  6  2  0
  7  8  2  0
  7  2  1  0
  9  5  1  0
 11 10  1  1
 11 12  1  0
 11 13  1  0
 14 13  1  1
 14 15  1  0
 15  7  1  0
 16 14  1  0
 17 16  2  0
 18 16  1  0
 19 20  1  1
 19 18  1  0
 20 21  1  0
 22 19  1  0
 23 22  1  0
 24 22  2  0
M  END
$$$$
