ELC.pdb
     RDKit          3D

 24 23  0  0  1  0  0  0  0  0999 V2000
    9.3287  -18.3139   19.2935 N   0  0  0  0  0  0  0  0  0  0  0  0
   10.5912  -17.6094   19.1228 C   0  0  1  0  0  0  0  0  0  0  0  0
   10.8693  -17.3216   17.6820 C   0  0  0  0  0  0  0  0  0  0  0  0
   10.5662  -18.5400   16.8592 C   0  0  0  0  0  0  0  0  0  0  0  0
   10.7869  -18.3577   15.4106 C   0  0  0  0  0  0  0  0  0  0  0  0
   10.3036  -19.2365   14.6132 O   0  0  0  0  0  0  0  0  0  0  0  0
   10.5269  -16.3767   19.9485 C   0  0  0  0  0  0  0  0  0  0  0  0
   11.5343  -15.6377   19.9906 O   0  0  0  0  0  0  0  0  0  0  0  0
   11.4644  -17.3285   14.8193 O   0  0  0  0  0  0  0  0  0  0  0  0
    8.6474  -12.4618   19.6180 C   0  0  0  0  0  0  0  0  0  0  0  0
    7.6312  -13.5292   20.0629 C   0  0  2  0  0  0  0  0  0  0  0  0
    6.2651  -13.0562   19.8462 C   0  0  0  0  0  0  0  0  0  0  0  0
    8.0475  -14.1809   21.2964 C   0  0  0  0  0  0  0  0  0  0  0  0
    9.3857  -14.7311   21.5165 C   0  0  2  0  0  0  0  0  0  0  0  0
    9.3913  -15.9926   20.6880 N   0  0  0  0  0  0  0  0  0  0  0  0
    9.6104  -15.1936   22.8851 C   0  0  0  0  0  0  0  0  0  0  0  0
    9.1256  -14.5647   23.8937 O   0  0  0  0  0  0  0  0  0  0  0  0
   10.3546  -16.3556   23.2501 N   0  0  0  0  0  0  0  0  0  0  0  0
   10.4117  -16.8175   24.6048 C   0  0  1  0  0  0  0  0  0  0  0  0
    8.9506  -17.1098   25.0017 C   0  0  0  0  0  0  0  0  0  0  0  0
    8.8579  -17.8321   26.6563 S   0  0  0  0  0  0  0  0  0  0  0  0
   11.1783  -18.0561   24.7523 C   0  0  0  0  0  0  0  0  0  0  0  0
   11.8312  -18.4377   25.9106 O   0  0  0  0  0  0  0  0  0  0  0  0
   11.2960  -18.8894   23.7871 O   0  0  0  0  0  0  0  0  0  0  0  0
  2  1  1  6
  3  2  1  0
  4  3  1  0
  5  4  1  0
  5  6  2  0
  7  8  2  0
  7  2  1  0
  9  5  1  0
 11 10  1  1
 11 12  1  0
 11 13  1  0
 14 13  1  1
 14 15  1  0
 15  7  1  0
 16 14  1  0
 17 16  2  0
 18 16  1  0
 19 20  1  6
 19 18  1  0
 20 21  1  0
 22 19  1  0
 23 22  1  0
 24 22  2  0
M  END
$$$$
