PPA.pdb
     RDKit          3D

 20 21  0  0  1  0  0  0  0  0999 V2000
   34.0353   -9.2839  -16.0726 N   0  0  0  0  0  0  0  0  0  0  0  0
   34.0335   -8.6934  -17.3841 C   0  0  0  0  0  0  0  0  0  0  0  0
   35.2142   -9.3328  -18.0855 C   0  0  0  0  0  0  0  0  0  0  0  0
   36.2350   -9.3685  -16.9398 C   0  0  0  0  0  0  0  0  0  0  0  0
   35.3432   -9.7667  -15.7863 C   0  0  1  0  0  0  0  0  0  0  0  0
   35.9012   -9.3762  -14.4858 C   0  0  0  0  0  0  0  0  0  0  0  0
   35.4759   -8.3450  -13.9202 O   0  0  0  0  0  0  0  0  0  0  0  0
   36.9281  -10.1479  -13.8404 N   0  0  0  0  0  0  0  0  0  0  0  0
   37.3343  -11.4537  -14.3019 C   0  0  0  0  0  0  0  0  0  0  0  0
   38.3352  -11.9941  -13.2977 C   0  0  0  0  0  0  0  0  0  0  0  0
   38.8615  -10.7549  -12.6589 C   0  0  0  0  0  0  0  0  0  0  0  0
   37.6997   -9.8089  -12.6924 C   0  0  1  0  0  0  0  0  0  0  0  0
   38.1739   -8.3955  -12.6704 C   0  0  0  0  0  0  0  0  0  0  0  0
   38.4108   -7.8311  -13.7543 O   0  0  0  0  0  0  0  0  0  0  0  0
   38.6049   -5.6936  -10.0436 C   0  0  0  0  0  0  0  0  0  0  0  0
   38.8868   -6.3453  -11.3779 C   0  0  2  0  0  0  0  0  0  0  0  0
   38.3616   -7.6803  -11.4610 N   0  0  0  0  0  0  0  0  0  0  0  0
   40.3233   -6.2824  -11.7420 C   0  0  0  0  0  0  0  0  0  0  0  0
   41.0619   -7.4504  -11.6718 O   0  0  0  0  0  0  0  0  0  0  0  0
   40.8986   -5.2345  -12.1071 O   0  0  0  0  0  0  0  0  0  0  0  0
  2  1  1  0
  3  2  1  0
  4  3  1  0
  4  5  1  0
  5  1  1  0
  5  6  1  1
  7  6  2  0
  8  6  1  0
  8  9  1  0
 10  9  1  0
 11 12  1  0
 11 10  1  0
 12  8  1  0
 12 13  1  6
 13 17  1  0
 14 13  2  0
 16 18  1  0
 16 15  1  1
 17 16  1  0
 18 19  1  0
 20 18  2  0
M  END
$$$$
