PPA.pdb
     RDKit          3D

 20 21  0  0  1  0  0  0  0  0999 V2000
   23.3633  -14.6331  -17.5520 N   0  0  0  0  0  0  0  0  0  0  0  0
   22.8382  -15.0356  -18.8291 C   0  0  0  0  0  0  0  0  0  0  0  0
   23.7079  -14.3130  -19.8374 C   0  0  0  0  0  0  0  0  0  0  0  0
   23.8770  -12.9562  -19.1401 C   0  0  0  0  0  0  0  0  0  0  0  0
   24.0598  -13.4016  -17.7074 C   0  0  1  0  0  0  0  0  0  0  0  0
   23.7207  -12.3465  -16.7448 C   0  0  0  0  0  0  0  0  0  0  0  0
   22.5614  -12.2903  -16.2789 O   0  0  0  0  0  0  0  0  0  0  0  0
   24.6867  -11.3701  -16.3205 N   0  0  0  0  0  0  0  0  0  0  0  0
   26.1039  -11.5179  -16.5509 C   0  0  0  0  0  0  0  0  0  0  0  0
   26.7960  -10.3634  -15.8508 C   0  0  0  0  0  0  0  0  0  0  0  0
   25.7181   -9.3382  -15.7637 C   0  0  0  0  0  0  0  0  0  0  0  0
   24.4616  -10.1443  -15.6315 C   0  0  1  0  0  0  0  0  0  0  0  0
   23.2879   -9.3707  -16.1284 C   0  0  0  0  0  0  0  0  0  0  0  0
   23.1040   -9.2931  -17.3570 O   0  0  0  0  0  0  0  0  0  0  0  0
   19.9974   -8.2964  -14.8664 C   0  0  0  0  0  0  0  0  0  0  0  0
   21.2334   -7.9726  -15.6740 C   0  0  2  0  0  0  0  0  0  0  0  0
   22.3815   -8.7256  -15.2499 N   0  0  0  0  0  0  0  0  0  0  0  0
   21.5046   -6.5154  -15.7267 C   0  0  0  0  0  0  0  0  0  0  0  0
   22.7074   -6.0606  -15.2159 O   0  0  0  0  0  0  0  0  0  0  0  0
   20.7071   -5.6807  -16.2063 O   0  0  0  0  0  0  0  0  0  0  0  0
  2  1  1  0
  3  2  1  0
  4  3  1  0
  4  5  1  0
  5  1  1  0
  5  6  1  1
  7  6  2  0
  8  6  1  0
  8  9  1  0
 10  9  1  0
 11 12  1  0
 11 10  1  0
 12  8  1  0
 12 13  1  6
 13 17  1  0
 14 13  2  0
 16 18  1  0
 16 15  1  1
 17 16  1  0
 18 19  1  0
 20 18  2  0
M  END
$$$$
