PPA.pdb
     RDKit          3D

 20 21  0  0  1  0  0  0  0  0999 V2000
   18.9368  -12.4529  -17.3837 N   0  0  0  0  0  0  0  0  0  0  0  0
   18.5158  -12.3450  -18.7548 C   0  0  0  0  0  0  0  0  0  0  0  0
   19.8075  -12.2104  -19.5348 C   0  0  0  0  0  0  0  0  0  0  0  0
   20.6079  -11.2971  -18.5961 C   0  0  0  0  0  0  0  0  0  0  0  0
   20.2349  -11.8838  -17.2540 C   0  0  1  0  0  0  0  0  0  0  0  0
   20.4090  -10.9256  -16.1555 C   0  0  0  0  0  0  0  0  0  0  0  0
   19.4602  -10.1741  -15.8407 O   0  0  0  0  0  0  0  0  0  0  0  0
   21.6447  -10.8246  -15.4281 N   0  0  0  0  0  0  0  0  0  0  0  0
   22.6744  -11.8343  -15.4878 C   0  0  0  0  0  0  0  0  0  0  0  0
   23.7515  -11.4371  -14.4956 C   0  0  0  0  0  0  0  0  0  0  0  0
   23.5511   -9.9664  -14.3643 C   0  0  0  0  0  0  0  0  0  0  0  0
   22.0763   -9.7832  -14.5578 C   0  0  1  0  0  0  0  0  0  0  0  0
   21.7796   -8.4092  -15.0548 C   0  0  0  0  0  0  0  0  0  0  0  0
   21.9733   -8.1577  -16.2584 O   0  0  0  0  0  0  0  0  0  0  0  0
   19.7319   -5.4921  -14.2551 C   0  0  0  0  0  0  0  0  0  0  0  0
   21.1074   -6.0175  -14.5968 C   0  0  2  0  0  0  0  0  0  0  0  0
   21.2869   -7.3881  -14.2040 N   0  0  0  0  0  0  0  0  0  0  0  0
   22.1877   -5.1396  -14.0848 C   0  0  0  0  0  0  0  0  0  0  0  0
   22.5309   -4.0287  -14.8348 O   0  0  0  0  0  0  0  0  0  0  0  0
   22.8012   -5.3500  -13.0162 O   0  0  0  0  0  0  0  0  0  0  0  0
  2  1  1  0
  3  2  1  0
  4  3  1  0
  4  5  1  0
  5  1  1  0
  5  6  1  1
  7  6  2  0
  8  6  1  0
  8  9  1  0
 10  9  1  0
 11 12  1  0
 11 10  1  0
 12  8  1  0
 12 13  1  6
 13 17  1  0
 14 13  2  0
 16 18  1  0
 16 15  1  1
 17 16  1  0
 18 19  1  0
 20 18  2  0
M  END
$$$$
