PPA.pdb
     RDKit          3D

 20 21  0  0  1  0  0  0  0  0999 V2000
   26.0578  -18.5563  -16.4190 N   0  0  0  0  0  0  0  0  0  0  0  0
   25.3047  -17.3353  -16.5237 C   0  0  0  0  0  0  0  0  0  0  0  0
   25.9029  -16.4331  -15.4638 C   0  0  0  0  0  0  0  0  0  0  0  0
   26.1319  -17.4442  -14.3320 C   0  0  0  0  0  0  0  0  0  0  0  0
   26.6329  -18.6331  -15.1194 C   0  0  1  0  0  0  0  0  0  0  0  0
   26.4383  -19.9008  -14.4052 C   0  0  0  0  0  0  0  0  0  0  0  0
   25.4508  -20.6162  -14.6827 O   0  0  0  0  0  0  0  0  0  0  0  0
   27.3538  -20.3458  -13.3901 N   0  0  0  0  0  0  0  0  0  0  0  0
   28.5980  -19.6715  -13.1063 C   0  0  0  0  0  0  0  0  0  0  0  0
   29.3367  -20.5056  -12.0763 C   0  0  0  0  0  0  0  0  0  0  0  0
   28.2373  -21.2715  -11.4241 C   0  0  0  0  0  0  0  0  0  0  0  0
   27.2324  -21.4657  -12.5189 C   0  0  1  0  0  0  0  0  0  0  0  0
   25.8669  -21.6522  -11.9499 C   0  0  0  0  0  0  0  0  0  0  0  0
   25.5520  -22.7756  -11.5161 O   0  0  0  0  0  0  0  0  0  0  0  0
   23.5519  -19.9761   -9.9519 C   0  0  0  0  0  0  0  0  0  0  0  0
   23.6264  -20.6978  -11.2779 C   0  0  2  0  0  0  0  0  0  0  0  0
   24.9234  -20.5961  -11.8884 N   0  0  0  0  0  0  0  0  0  0  0  0
   22.5375  -20.2934  -12.2001 C   0  0  0  0  0  0  0  0  0  0  0  0
   21.2343  -20.5681  -11.8249 O   0  0  0  0  0  0  0  0  0  0  0  0
   22.7347  -19.7201  -13.2933 O   0  0  0  0  0  0  0  0  0  0  0  0
  2  1  1  0
  3  2  1  0
  4  3  1  0
  4  5  1  0
  5  1  1  0
  5  6  1  1
  7  6  2  0
  8  6  1  0
  8  9  1  0
 10  9  1  0
 11 12  1  0
 11 10  1  0
 12  8  1  0
 12 13  1  1
 13 17  1  0
 14 13  2  0
 16 18  1  0
 16 15  1  1
 17 16  1  0
 18 19  1  0
 20 18  2  0
M  END
$$$$
