PPA.pdb
     RDKit          3D

 20 21  0  0  1  0  0  0  0  0999 V2000
   27.9983  -20.0392  -15.4476 N   0  0  0  0  0  0  0  0  0  0  0  0
   28.0402  -18.8484  -16.2532 C   0  0  0  0  0  0  0  0  0  0  0  0
   27.9462  -17.7147  -15.2527 C   0  0  0  0  0  0  0  0  0  0  0  0
   26.9207  -18.2938  -14.2685 C   0  0  0  0  0  0  0  0  0  0  0  0
   27.3812  -19.7319  -14.2024 C   0  0  1  0  0  0  0  0  0  0  0  0
   26.3135  -20.6432  -13.7729 C   0  0  0  0  0  0  0  0  0  0  0  0
   25.7421  -21.3623  -14.6216 O   0  0  0  0  0  0  0  0  0  0  0  0
   25.9027  -20.7330  -12.3982 N   0  0  0  0  0  0  0  0  0  0  0  0
   26.7539  -20.3461  -11.2987 C   0  0  0  0  0  0  0  0  0  0  0  0
   26.0249  -20.7060  -10.0176 C   0  0  0  0  0  0  0  0  0  0  0  0
   24.5987  -20.7357  -10.4483 C   0  0  0  0  0  0  0  0  0  0  0  0
   24.6607  -21.1924  -11.8744 C   0  0  1  0  0  0  0  0  0  0  0  0
   23.4659  -20.7173  -12.6292 C   0  0  0  0  0  0  0  0  0  0  0  0
   23.3927  -19.5112  -12.9284 O   0  0  0  0  0  0  0  0  0  0  0  0
   20.7706  -22.2806  -14.6946 C   0  0  0  0  0  0  0  0  0  0  0  0
   21.2606  -21.1933  -13.7661 C   0  0  2  0  0  0  0  0  0  0  0  0
   22.4185  -21.5915  -13.0138 N   0  0  0  0  0  0  0  0  0  0  0  0
   20.1798  -20.6661  -12.8979 C   0  0  0  0  0  0  0  0  0  0  0  0
   19.1882  -19.9026  -13.4880 O   0  0  0  0  0  0  0  0  0  0  0  0
   20.1184  -20.8745  -11.6669 O   0  0  0  0  0  0  0  0  0  0  0  0
  2  1  1  0
  3  2  1  0
  4  3  1  0
  4  5  1  0
  5  1  1  0
  5  6  1  6
  7  6  2  0
  8  6  1  0
  8  9  1  0
 10  9  1  0
 11 12  1  0
 11 10  1  0
 12  8  1  0
 12 13  1  6
 13 17  1  0
 14 13  2  0
 16 18  1  0
 16 15  1  1
 17 16  1  0
 18 19  1  0
 20 18  2  0
M  END
$$$$
