PPA.pdb
     RDKit          3D

 20 21  0  0  1  0  0  0  0  0999 V2000
   27.9671  -20.4335  -15.0748 N   0  0  0  0  0  0  0  0  0  0  0  0
   28.0907  -19.3179  -15.9742 C   0  0  0  0  0  0  0  0  0  0  0  0
   28.0521  -18.1018  -15.0717 C   0  0  0  0  0  0  0  0  0  0  0  0
   26.9810  -18.5363  -14.0618 C   0  0  0  0  0  0  0  0  0  0  0  0
   27.3536  -19.9885  -13.8702 C   0  0  1  0  0  0  0  0  0  0  0  0
   26.2276  -20.7969  -13.3866 C   0  0  0  0  0  0  0  0  0  0  0  0
   25.6161  -21.5383  -14.1868 O   0  0  0  0  0  0  0  0  0  0  0  0
   25.8044  -20.7602  -12.0132 N   0  0  0  0  0  0  0  0  0  0  0  0
   26.6657  -20.3279  -10.9387 C   0  0  0  0  0  0  0  0  0  0  0  0
   25.9128  -20.5530   -9.6407 C   0  0  0  0  0  0  0  0  0  0  0  0
   24.4895  -20.5511  -10.0820 C   0  0  0  0  0  0  0  0  0  0  0  0
   24.5392  -21.1201  -11.4675 C   0  0  1  0  0  0  0  0  0  0  0  0
   23.3725  -20.6513  -12.2688 C   0  0  0  0  0  0  0  0  0  0  0  0
   23.4051  -19.5044  -12.7515 O   0  0  0  0  0  0  0  0  0  0  0  0
   21.0361  -21.6991  -14.6226 C   0  0  0  0  0  0  0  0  0  0  0  0
   21.0822  -21.0628  -13.2523 C   0  0  2  0  0  0  0  0  0  0  0  0
   22.2353  -21.4666  -12.4958 N   0  0  0  0  0  0  0  0  0  0  0  0
   19.8192  -21.2574  -12.4994 C   0  0  0  0  0  0  0  0  0  0  0  0
   18.6809  -20.6257  -12.9679 O   0  0  0  0  0  0  0  0  0  0  0  0
   19.7301  -21.9590  -11.4687 O   0  0  0  0  0  0  0  0  0  0  0  0
  2  1  1  0
  3  2  1  0
  4  3  1  0
  4  5  1  0
  5  1  1  0
  5  6  1  6
  7  6  2  0
  8  6  1  0
  8  9  1  0
 10  9  1  0
 11 12  1  0
 11 10  1  0
 12  8  1  0
 12 13  1  6
 13 17  1  0
 14 13  2  0
 16 18  1  0
 16 15  1  6
 17 16  1  0
 18 19  1  0
 20 18  2  0
M  END
$$$$
