PPA.pdb
     RDKit          3D

 20 21  0  0  1  0  0  0  0  0999 V2000
   25.4712  -19.5352  -10.3641 N   0  0  0  0  0  0  0  0  0  0  0  0
   24.6380  -20.2742   -9.4540 C   0  0  0  0  0  0  0  0  0  0  0  0
   25.0379  -21.7196   -9.6679 C   0  0  0  0  0  0  0  0  0  0  0  0
   25.2198  -21.7374  -11.1919 C   0  0  0  0  0  0  0  0  0  0  0  0
   25.9011  -20.4052  -11.4053 C   0  0  1  0  0  0  0  0  0  0  0  0
   25.7312  -19.9016  -12.7738 C   0  0  0  0  0  0  0  0  0  0  0  0
   24.7696  -19.1457  -13.0345 O   0  0  0  0  0  0  0  0  0  0  0  0
   26.6419  -20.2546  -13.8286 N   0  0  0  0  0  0  0  0  0  0  0  0
   27.8652  -20.9846  -13.5966 C   0  0  0  0  0  0  0  0  0  0  0  0
   28.6083  -21.0481  -14.9180 C   0  0  0  0  0  0  0  0  0  0  0  0
   27.5180  -20.8650  -15.9172 C   0  0  0  0  0  0  0  0  0  0  0  0
   26.5345  -19.9742  -15.2207 C   0  0  1  0  0  0  0  0  0  0  0  0
   25.1656  -20.1673  -15.7791 C   0  0  0  0  0  0  0  0  0  0  0  0
   24.8961  -19.6572  -16.8821 O   0  0  0  0  0  0  0  0  0  0  0  0
   22.3700  -22.5681  -15.2617 C   0  0  0  0  0  0  0  0  0  0  0  0
   22.8578  -21.1824  -15.6176 C   0  0  2  0  0  0  0  0  0  0  0  0
   24.1689  -20.9091  -15.0966 N   0  0  0  0  0  0  0  0  0  0  0  0
   21.8775  -20.1306  -15.2536 C   0  0  0  0  0  0  0  0  0  0  0  0
   22.3034  -19.1046  -14.4287 O   0  0  0  0  0  0  0  0  0  0  0  0
   20.6924  -20.1228  -15.6512 O   0  0  0  0  0  0  0  0  0  0  0  0
  2  1  1  0
  3  2  1  0
  4  3  1  0
  4  5  1  0
  5  1  1  0
  5  6  1  6
  7  6  2  0
  8  6  1  0
  8  9  1  0
 10  9  1  0
 11 12  1  0
 11 10  1  0
 12  8  1  0
 12 13  1  6
 13 17  1  0
 14 13  2  0
 16 18  1  0
 16 15  1  1
 17 16  1  0
 18 19  1  0
 20 18  2  0
M  END
$$$$
