PPA.pdb
     RDKit          3D

 20 21  0  0  1  0  0  0  0  0999 V2000
   19.3468  -13.8229  -17.0036 N   0  0  0  0  0  0  0  0  0  0  0  0
   18.8323  -14.0773  -18.3225 C   0  0  0  0  0  0  0  0  0  0  0  0
   19.9470  -13.6414  -19.2511 C   0  0  0  0  0  0  0  0  0  0  0  0
   20.4356  -12.3783  -18.5287 C   0  0  0  0  0  0  0  0  0  0  0  0
   20.3718  -12.8392  -17.0906 C   0  0  1  0  0  0  0  0  0  0  0  0
   20.2684  -11.7193  -16.1472 C   0  0  0  0  0  0  0  0  0  0  0  0
   19.1501  -11.2059  -15.9243 O   0  0  0  0  0  0  0  0  0  0  0  0
   21.4212  -11.1921  -15.4692 N   0  0  0  0  0  0  0  0  0  0  0  0
   22.6856  -11.8862  -15.4170 C   0  0  0  0  0  0  0  0  0  0  0  0
   23.6022  -11.0833  -14.5128 C   0  0  0  0  0  0  0  0  0  0  0  0
   23.0111   -9.7168  -14.5756 C   0  0  0  0  0  0  0  0  0  0  0  0
   21.5442   -9.9649  -14.7571 C   0  0  1  0  0  0  0  0  0  0  0  0
   20.8950   -8.8019  -15.4271 C   0  0  0  0  0  0  0  0  0  0  0  0
   21.0208   -8.6795  -16.6594 O   0  0  0  0  0  0  0  0  0  0  0  0
   18.3449   -6.1858  -14.4898 C   0  0  0  0  0  0  0  0  0  0  0  0
   19.5195   -6.6868  -15.2986 C   0  0  2  0  0  0  0  0  0  0  0  0
   20.1441   -7.8384  -14.7080 N   0  0  0  0  0  0  0  0  0  0  0  0
   20.4947   -5.6105  -15.5997 C   0  0  0  0  0  0  0  0  0  0  0  0
   21.6176   -5.5098  -14.7976 O   0  0  0  0  0  0  0  0  0  0  0  0
   20.3556   -4.7938  -16.5357 O   0  0  0  0  0  0  0  0  0  0  0  0
  2  1  1  0
  3  2  1  0
  4  3  1  0
  4  5  1  0
  5  1  1  0
  5  6  1  1
  7  6  2  0
  8  6  1  0
  8  9  1  0
 10  9  1  0
 11 12  1  0
 11 10  1  0
 12  8  1  0
 12 13  1  6
 13 17  1  0
 14 13  2  0
 16 18  1  0
 16 15  1  1
 17 16  1  0
 18 19  1  0
 20 18  2  0
M  END
$$$$
