PPA.pdb
     RDKit          3D

 20 21  0  0  1  0  0  0  0  0999 V2000
   21.4651  -33.9705  -10.3117 N   0  0  0  0  0  0  0  0  0  0  0  0
   20.3223  -33.0980  -10.2739 C   0  0  0  0  0  0  0  0  0  0  0  0
   20.9039  -31.7098  -10.4464 C   0  0  0  0  0  0  0  0  0  0  0  0
   22.1747  -31.8305   -9.5941 C   0  0  0  0  0  0  0  0  0  0  0  0
   22.6266  -33.2241   -9.9662 C   0  0  1  0  0  0  0  0  0  0  0  0
   23.4945  -33.8232   -8.9449 C   0  0  0  0  0  0  0  0  0  0  0  0
   23.0313  -34.7012   -8.1843 O   0  0  0  0  0  0  0  0  0  0  0  0
   24.8680  -33.4275   -8.7921 N   0  0  0  0  0  0  0  0  0  0  0  0
   25.5123  -32.4779   -9.6675 C   0  0  0  0  0  0  0  0  0  0  0  0
   26.9757  -32.4216   -9.2706 C   0  0  0  0  0  0  0  0  0  0  0  0
   26.9508  -32.8902   -7.8562 C   0  0  0  0  0  0  0  0  0  0  0  0
   25.8104  -33.8618   -7.8168 C   0  0  1  0  0  0  0  0  0  0  0  0
   25.2574  -33.9652   -6.4361 C   0  0  0  0  0  0  0  0  0  0  0  0
   25.9608  -34.4870   -5.5515 O   0  0  0  0  0  0  0  0  0  0  0  0
   22.2067  -32.6042   -4.6392 C   0  0  0  0  0  0  0  0  0  0  0  0
   23.4027  -33.5177   -4.7801 C   0  0  2  0  0  0  0  0  0  0  0  0
   23.9640  -33.4904   -6.1028 N   0  0  0  0  0  0  0  0  0  0  0  0
   23.1133  -34.8978   -4.3204 C   0  0  0  0  0  0  0  0  0  0  0  0
   23.1125  -35.1409   -2.9582 O   0  0  0  0  0  0  0  0  0  0  0  0
   22.8712  -35.8481   -5.0955 O   0  0  0  0  0  0  0  0  0  0  0  0
  2  1  1  0
  3  2  1  0
  4  3  1  0
  4  5  1  0
  5  1  1  0
  5  6  1  1
  7  6  2  0
  8  6  1  0
  8  9  1  0
 10  9  1  0
 11 12  1  0
 11 10  1  0
 12  8  1  0
 12 13  1  1
 13 17  1  0
 14 13  2  0
 16 18  1  0
 16 15  1  6
 17 16  1  0
 18 19  1  0
 20 18  2  0
M  END
$$$$
