PPA.pdb
     RDKit          3D

 20 21  0  0  1  0  0  0  0  0999 V2000
   13.7670  -23.9808    0.5023 N   0  0  0  0  0  0  0  0  0  0  0  0
   12.7537  -23.9910   -0.5184 C   0  0  0  0  0  0  0  0  0  0  0  0
   13.2386  -22.9822   -1.5392 C   0  0  0  0  0  0  0  0  0  0  0  0
   13.8003  -21.8945   -0.6133 C   0  0  0  0  0  0  0  0  0  0  0  0
   14.4725  -22.7463    0.4390 C   0  0  1  0  0  0  0  0  0  0  0  0
   14.6388  -22.0359    1.7128 C   0  0  0  0  0  0  0  0  0  0  0  0
   13.7427  -22.1157    2.5815 O   0  0  0  0  0  0  0  0  0  0  0  0
   15.8072  -21.2463    1.9921 N   0  0  0  0  0  0  0  0  0  0  0  0
   16.9575  -21.2130    1.1210 C   0  0  0  0  0  0  0  0  0  0  0  0
   18.0215  -20.3814    1.8129 C   0  0  0  0  0  0  0  0  0  0  0  0
   17.2228  -19.5323    2.7412 C   0  0  0  0  0  0  0  0  0  0  0  0
   16.0547  -20.3968    3.1080 C   0  0  1  0  0  0  0  0  0  0  0  0
   14.8883  -19.5591    3.5090 C   0  0  0  0  0  0  0  0  0  0  0  0
   14.0966  -19.1808    2.6260 O   0  0  0  0  0  0  0  0  0  0  0  0
   13.5036  -18.2061    6.7881 C   0  0  0  0  0  0  0  0  0  0  0  0
   13.6159  -18.2878    5.2829 C   0  0  2  0  0  0  0  0  0  0  0  0
   14.6554  -19.1835    4.8558 N   0  0  0  0  0  0  0  0  0  0  0  0
   13.7334  -16.9495    4.6545 C   0  0  0  0  0  0  0  0  0  0  0  0
   12.6003  -16.1573    4.5990 O   0  0  0  0  0  0  0  0  0  0  0  0
   14.7974  -16.5021    4.1748 O   0  0  0  0  0  0  0  0  0  0  0  0
  2  1  1  0
  3  2  1  0
  4  3  1  0
  4  5  1  0
  5  1  1  0
  5  6  1  1
  7  6  2  0
  8  6  1  0
  8  9  1  0
 10  9  1  0
 11 12  1  0
 11 10  1  0
 12  8  1  0
 12 13  1  6
 13 17  1  0
 14 13  2  0
 16 18  1  0
 16 15  1  1
 17 16  1  0
 18 19  1  0
 20 18  2  0
M  END
$$$$
