PPA.pdb
     RDKit          3D

 20 21  0  0  1  0  0  0  0  0999 V2000
   20.5345  -12.5786  -17.4793 N   0  0  0  0  0  0  0  0  0  0  0  0
   19.1661  -13.0207  -17.4530 C   0  0  0  0  0  0  0  0  0  0  0  0
   18.4763  -12.1697  -18.4994 C   0  0  0  0  0  0  0  0  0  0  0  0
   19.1586  -10.8168  -18.2545 C   0  0  0  0  0  0  0  0  0  0  0  0
   20.5836  -11.2633  -18.0207 C   0  0  1  0  0  0  0  0  0  0  0  0
   21.3598  -10.2817  -17.2533 C   0  0  0  0  0  0  0  0  0  0  0  0
   21.2578  -10.2577  -16.0071 O   0  0  0  0  0  0  0  0  0  0  0  0
   22.2375   -9.3417  -17.8956 N   0  0  0  0  0  0  0  0  0  0  0  0
   22.6053   -9.4377  -19.2880 C   0  0  0  0  0  0  0  0  0  0  0  0
   23.6352   -8.3562  -19.5565 C   0  0  0  0  0  0  0  0  0  0  0  0
   23.3614   -7.3664  -18.4767 C   0  0  0  0  0  0  0  0  0  0  0  0
   22.8820   -8.2045  -17.3304 C   0  0  1  0  0  0  0  0  0  0  0  0
   22.0167   -7.4013  -16.4199 C   0  0  0  0  0  0  0  0  0  0  0  0
   20.8179   -7.2501  -16.7192 O   0  0  0  0  0  0  0  0  0  0  0  0
   22.0674   -6.2872  -12.8777 C   0  0  0  0  0  0  0  0  0  0  0  0
   21.7286   -6.0177  -14.3259 C   0  0  2  0  0  0  0  0  0  0  0  0
   22.5144   -6.8091  -15.2321 N   0  0  0  0  0  0  0  0  0  0  0  0
   21.7764   -4.5723  -14.6549 C   0  0  0  0  0  0  0  0  0  0  0  0
   20.8233   -3.7458  -14.0864 O   0  0  0  0  0  0  0  0  0  0  0  0
   22.6287   -4.0643  -15.4152 O   0  0  0  0  0  0  0  0  0  0  0  0
  2  1  1  0
  3  2  1  0
  4  3  1  0
  4  5  1  0
  5  1  1  0
  5  6  1  1
  7  6  2  0
  8  6  1  0
  8  9  1  0
 10  9  1  0
 11 12  1  0
 11 10  1  0
 12  8  1  0
 12 13  1  6
 13 17  1  0
 14 13  2  0
 16 18  1  0
 16 15  1  1
 17 16  1  0
 18 19  1  0
 20 18  2  0
M  END
$$$$
