PPA.pdb
     RDKit          3D

 20 21  0  0  1  0  0  0  0  0999 V2000
   18.5148  -12.3813  -17.2273 N   0  0  0  0  0  0  0  0  0  0  0  0
   17.0985  -12.4962  -17.0043 C   0  0  0  0  0  0  0  0  0  0  0  0
   16.4841  -11.5085  -17.9748 C   0  0  0  0  0  0  0  0  0  0  0  0
   17.4842  -10.3494  -17.8657 C   0  0  0  0  0  0  0  0  0  0  0  0
   18.7879  -11.1123  -17.8111 C   0  0  1  0  0  0  0  0  0  0  0  0
   19.8656  -10.3364  -17.1854 C   0  0  0  0  0  0  0  0  0  0  0  0
   20.0066  -10.3729  -15.9433 O   0  0  0  0  0  0  0  0  0  0  0  0
   20.7676   -9.5308  -17.9624 N   0  0  0  0  0  0  0  0  0  0  0  0
   20.8626   -9.6244  -19.3996 C   0  0  0  0  0  0  0  0  0  0  0  0
   22.0025   -8.7223  -19.8346 C   0  0  0  0  0  0  0  0  0  0  0  0
   22.1002   -7.7505  -18.7091 C   0  0  0  0  0  0  0  0  0  0  0  0
   21.6904   -8.5463  -17.5071 C   0  0  1  0  0  0  0  0  0  0  0  0
   21.1527   -7.6501  -16.4437 C   0  0  0  0  0  0  0  0  0  0  0  0
   19.9660   -7.2823  -16.5203 O   0  0  0  0  0  0  0  0  0  0  0  0
   22.1156   -6.6923  -12.9640 C   0  0  0  0  0  0  0  0  0  0  0  0
   21.4730   -6.3650  -14.2924 C   0  0  2  0  0  0  0  0  0  0  0  0
   21.9465   -7.2076  -15.3559 N   0  0  0  0  0  0  0  0  0  0  0  0
   21.5775   -4.9240  -14.6277 C   0  0  0  0  0  0  0  0  0  0  0  0
   22.3324   -4.5679  -15.7312 O   0  0  0  0  0  0  0  0  0  0  0  0
   21.0218   -4.0189  -13.9684 O   0  0  0  0  0  0  0  0  0  0  0  0
  2  1  1  0
  3  2  1  0
  4  3  1  0
  4  5  1  0
  5  1  1  0
  5  6  1  1
  7  6  2  0
  8  6  1  0
  8  9  1  0
 10  9  1  0
 11 12  1  0
 11 10  1  0
 12  8  1  0
 12 13  1  1
 13 17  1  0
 14 13  2  0
 16 18  1  0
 16 15  1  1
 17 16  1  0
 18 19  1  0
 20 18  2  0
M  END
$$$$
