PPA.pdb
     RDKit          3D

 20 21  0  0  1  0  0  0  0  0999 V2000
   27.9234  -20.1531  -16.2727 N   0  0  0  0  0  0  0  0  0  0  0  0
   28.0785  -18.9208  -16.9980 C   0  0  0  0  0  0  0  0  0  0  0  0
   28.3558  -17.8866  -15.9262 C   0  0  0  0  0  0  0  0  0  0  0  0
   27.3926  -18.3565  -14.8275 C   0  0  0  0  0  0  0  0  0  0  0  0
   27.5678  -19.8545  -14.9273 C   0  0  1  0  0  0  0  0  0  0  0  0
   26.4174  -20.5904  -14.3888 C   0  0  0  0  0  0  0  0  0  0  0  0
   25.5477  -21.0289  -15.1733 O   0  0  0  0  0  0  0  0  0  0  0  0
   26.2600  -20.8223  -12.9789 N   0  0  0  0  0  0  0  0  0  0  0  0
   27.3541  -20.7295  -12.0421 C   0  0  0  0  0  0  0  0  0  0  0  0
   26.8252  -21.1658  -10.6885 C   0  0  0  0  0  0  0  0  0  0  0  0
   25.3601  -20.9249  -10.8150 C   0  0  0  0  0  0  0  0  0  0  0  0
   25.0769  -21.1696  -12.2662 C   0  0  1  0  0  0  0  0  0  0  0  0
   23.8619  -20.4204  -12.6968 C   0  0  0  0  0  0  0  0  0  0  0  0
   23.9182  -19.1781  -12.7522 O   0  0  0  0  0  0  0  0  0  0  0  0
   20.9639  -20.8350  -14.8041 C   0  0  0  0  0  0  0  0  0  0  0  0
   21.4471  -20.4024  -13.4388 C   0  0  2  0  0  0  0  0  0  0  0  0
   22.6534  -21.0755  -13.0424 N   0  0  0  0  0  0  0  0  0  0  0  0
   20.3841  -20.5003  -12.4091 C   0  0  0  0  0  0  0  0  0  0  0  0
   20.5133  -21.4734  -11.4340 O   0  0  0  0  0  0  0  0  0  0  0  0
   19.3825  -19.7532  -12.3765 O   0  0  0  0  0  0  0  0  0  0  0  0
  2  1  1  0
  3  2  1  0
  4  3  1  0
  4  5  1  0
  5  1  1  0
  5  6  1  6
  7  6  2  0
  8  6  1  0
  8  9  1  0
 10  9  1  0
 11 12  1  0
 11 10  1  0
 12  8  1  0
 12 13  1  6
 13 17  1  0
 14 13  2  0
 16 18  1  0
 16 15  1  6
 17 16  1  0
 18 19  1  0
 20 18  2  0
M  END
$$$$
