PPA.pdb
     RDKit          3D

 20 21  0  0  1  0  0  0  0  0999 V2000
   19.6931  -10.2574  -15.6380 N   0  0  0  0  0  0  0  0  0  0  0  0
   18.7685  -10.4733  -16.7184 C   0  0  0  0  0  0  0  0  0  0  0  0
   18.6547   -9.1207  -17.3912 C   0  0  0  0  0  0  0  0  0  0  0  0
   18.6565   -8.1970  -16.1654 C   0  0  0  0  0  0  0  0  0  0  0  0
   19.7046   -8.8722  -15.3110 C   0  0  1  0  0  0  0  0  0  0  0  0
   19.5607   -8.5477  -13.8866 C   0  0  0  0  0  0  0  0  0  0  0  0
   18.8146   -9.2499  -13.1695 O   0  0  0  0  0  0  0  0  0  0  0  0
   20.2552   -7.4400  -13.2888 N   0  0  0  0  0  0  0  0  0  0  0  0
   21.3454   -6.7544  -13.9405 C   0  0  0  0  0  0  0  0  0  0  0  0
   21.8958   -5.7435  -12.9519 C   0  0  0  0  0  0  0  0  0  0  0  0
   20.7418   -5.5170  -12.0368 C   0  0  0  0  0  0  0  0  0  0  0  0
   20.0293   -6.8354  -12.0194 C   0  0  1  0  0  0  0  0  0  0  0  0
   18.5898   -6.6486  -11.6790 C   0  0  0  0  0  0  0  0  0  0  0  0
   17.8200   -6.2270  -12.5617 O   0  0  0  0  0  0  0  0  0  0  0  0
   16.3066   -7.5000   -8.7869 C   0  0  0  0  0  0  0  0  0  0  0  0
   16.7275   -6.6615   -9.9719 C   0  0  2  0  0  0  0  0  0  0  0  0
   18.0751   -6.9350  -10.3897 N   0  0  0  0  0  0  0  0  0  0  0  0
   16.4905   -5.2144   -9.7492 C   0  0  0  0  0  0  0  0  0  0  0  0
   15.1824   -4.7633   -9.7532 O   0  0  0  0  0  0  0  0  0  0  0  0
   17.4063   -4.3852   -9.5591 O   0  0  0  0  0  0  0  0  0  0  0  0
  2  1  1  0
  3  2  1  0
  4  3  1  0
  4  5  1  0
  5  1  1  0
  5  6  1  1
  7  6  2  0
  8  6  1  0
  8  9  1  0
 10  9  1  0
 11 12  1  0
 11 10  1  0
 12  8  1  0
 12 13  1  6
 13 17  1  0
 14 13  2  0
 16 18  1  0
 16 15  1  1
 17 16  1  0
 18 19  1  0
 20 18  2  0
M  END
$$$$
