PPA.pdb
     RDKit          3D

 20 21  0  0  1  0  0  0  0  0999 V2000
   18.8453  -12.8691  -16.4549 N   0  0  0  0  0  0  0  0  0  0  0  0
   18.2101  -13.3840  -17.6381 C   0  0  0  0  0  0  0  0  0  0  0  0
   19.0682  -12.8734  -18.7775 C   0  0  0  0  0  0  0  0  0  0  0  0
   19.3875  -11.4585  -18.2755 C   0  0  0  0  0  0  0  0  0  0  0  0
   19.6252  -11.7321  -16.8081 C   0  0  1  0  0  0  0  0  0  0  0  0
   19.4320  -10.5377  -15.9768 C   0  0  0  0  0  0  0  0  0  0  0  0
   18.2772  -10.2221  -15.6150 O   0  0  0  0  0  0  0  0  0  0  0  0
   20.5369   -9.7153  -15.5651 N   0  0  0  0  0  0  0  0  0  0  0  0
   21.9137  -10.1257  -15.7030 C   0  0  0  0  0  0  0  0  0  0  0  0
   22.7689   -9.0592  -15.0445 C   0  0  0  0  0  0  0  0  0  0  0  0
   21.8883   -7.8579  -15.0896 C   0  0  0  0  0  0  0  0  0  0  0  0
   20.5036   -8.4195  -14.9753 C   0  0  1  0  0  0  0  0  0  0  0  0
   19.5101   -7.4935  -15.5904 C   0  0  0  0  0  0  0  0  0  0  0  0
   19.2912   -7.5829  -16.8125 O   0  0  0  0  0  0  0  0  0  0  0  0
   16.6263   -5.4176  -14.6904 C   0  0  0  0  0  0  0  0  0  0  0  0
   17.9627   -5.5065  -15.3910 C   0  0  2  0  0  0  0  0  0  0  0  0
   18.8121   -6.5213  -14.8308 N   0  0  0  0  0  0  0  0  0  0  0  0
   18.6408   -4.1902  -15.4773 C   0  0  0  0  0  0  0  0  0  0  0  0
   18.0450   -3.2026  -16.2415 O   0  0  0  0  0  0  0  0  0  0  0  0
   19.7172   -3.9279  -14.8984 O   0  0  0  0  0  0  0  0  0  0  0  0
  2  1  1  0
  3  2  1  0
  4  3  1  0
  4  5  1  0
  5  1  1  0
  5  6  1  1
  7  6  2  0
  8  6  1  0
  8  9  1  0
 10  9  1  0
 11 12  1  0
 11 10  1  0
 12  8  1  0
 12 13  1  6
 13 17  1  0
 14 13  2  0
 16 18  1  0
 16 15  1  1
 17 16  1  0
 18 19  1  0
 20 18  2  0
M  END
$$$$
