DVT.pdb
     RDKit          3D

 23 22  0  0  1  0  0  0  0  0999 V2000
    9.0905  -15.4392   20.9266 N   0  0  0  0  0  0  0  0  0  0  0  0
    8.3466  -15.9301   22.0599 C   0  0  1  0  0  0  0  0  0  0  0  0
    8.5594  -17.4324   22.1214 C   0  0  0  0  0  0  0  0  0  0  0  0
    7.9273  -18.0099   20.9188 C   0  0  0  0  0  0  0  0  0  0  0  0
    6.7033  -17.8986   20.6936 O   0  0  0  0  0  0  0  0  0  0  0  0
    8.7589  -15.2655   23.3178 C   0  0  0  0  0  0  0  0  0  0  0  0
   10.0038  -15.0372   23.4585 O   0  0  0  0  0  0  0  0  0  0  0  0
    8.6973  -18.7010   19.9985 O   0  0  0  0  0  0  0  0  0  0  0  0
    6.8263  -12.3144   25.0642 C   0  0  0  0  0  0  0  0  0  0  0  0
    7.2265  -13.3375   26.0820 C   0  0  2  0  0  0  0  0  0  0  0  0
    7.7123  -12.6391   27.3344 C   0  0  0  0  0  0  0  0  0  0  0  0
    8.3273  -14.2440   25.5202 C   0  0  2  0  0  0  0  0  0  0  0  0
    7.8223  -14.8992   24.3203 N   0  0  0  0  0  0  0  0  0  0  0  0
    8.7128  -15.2013   26.5793 C   0  0  0  0  0  0  0  0  0  0  0  0
    7.8320  -15.9529   27.0726 O   0  0  0  0  0  0  0  0  0  0  0  0
   10.9029  -17.9986   26.4518 C   0  0  0  0  0  0  0  0  0  0  0  0
   11.4087  -17.2244   27.6540 C   0  0  1  0  0  0  0  0  0  0  0  0
   12.4450  -16.3995   27.2285 O   0  0  0  0  0  0  0  0  0  0  0  0
   10.2979  -16.2779   28.1233 C   0  0  2  0  0  0  0  0  0  0  0  0
   10.0575  -15.3037   27.0601 N   0  0  0  0  0  0  0  0  0  0  0  0
   10.6354  -15.5761   29.3533 C   0  0  0  0  0  0  0  0  0  0  0  0
   10.7276  -14.3125   29.3945 O   0  0  0  0  0  0  0  0  0  0  0  0
   10.8798  -16.2217   30.5576 O   0  0  0  0  0  0  0  0  0  0  0  0
  2  1  1  6
  2  3  1  0
  3  4  1  0
  4  8  1  0
  5  4  2  0
  6  2  1  0
  6 13  1  0
  7  6  2  0
 10  9  1  6
 10 12  1  0
 11 10  1  0
 12 13  1  6
 12 14  1  0
 14 15  2  0
 17 16  1  6
 17 19  1  0
 17 18  1  0
 19 21  1  0
 20 14  1  0
 19 20  1  6
 21 23  1  0
 22 21  2  0
M  END
$$$$
