DVT.pdb
     RDKit          3D

 23 22  0  0  1  0  0  0  0  0999 V2000
    9.2930  -17.5409   16.2490 N   0  0  0  0  0  0  0  0  0  0  0  0
    8.3458  -17.4437   17.3315 C   0  0  1  0  0  0  0  0  0  0  0  0
    8.0743  -18.8556   17.8200 C   0  0  0  0  0  0  0  0  0  0  0  0
    7.3189  -19.5454   16.7556 C   0  0  0  0  0  0  0  0  0  0  0  0
    6.4016  -18.9824   16.1208 O   0  0  0  0  0  0  0  0  0  0  0  0
    8.8437  -16.5725   18.4210 C   0  0  0  0  0  0  0  0  0  0  0  0
   10.0870  -16.6478   18.6861 O   0  0  0  0  0  0  0  0  0  0  0  0
    7.6202  -20.8584   16.4350 O   0  0  0  0  0  0  0  0  0  0  0  0
    7.3773  -12.9063   19.3266 C   0  0  0  0  0  0  0  0  0  0  0  0
    7.6104  -13.7503   20.5415 C   0  0  2  0  0  0  0  0  0  0  0  0
    8.1846  -12.8920   21.6487 C   0  0  0  0  0  0  0  0  0  0  0  0
    8.5674  -14.9017   20.2135 C   0  0  2  0  0  0  0  0  0  0  0  0
    7.9868  -15.6964   19.1384 N   0  0  0  0  0  0  0  0  0  0  0  0
    8.7837  -15.6803   21.4519 C   0  0  0  0  0  0  0  0  0  0  0  0
    7.7841  -16.0795   22.1042 O   0  0  0  0  0  0  0  0  0  0  0  0
   10.1952  -18.8850   21.8488 C   0  0  0  0  0  0  0  0  0  0  0  0
   10.9683  -18.0583   22.8586 C   0  0  1  0  0  0  0  0  0  0  0  0
   12.1404  -17.6224   22.2492 O   0  0  0  0  0  0  0  0  0  0  0  0
   10.1661  -16.7874   23.1604 C   0  0  2  0  0  0  0  0  0  0  0  0
   10.0946  -15.9979   21.9321 N   0  0  0  0  0  0  0  0  0  0  0  0
   10.7597  -15.9819   24.2176 C   0  0  0  0  0  0  0  0  0  0  0  0
   11.2884  -14.8549   23.9783 O   0  0  0  0  0  0  0  0  0  0  0  0
   10.7951  -16.3757   25.5483 O   0  0  0  0  0  0  0  0  0  0  0  0
  2  1  1  6
  2  3  1  0
  3  4  1  0
  4  8  1  0
  5  4  2  0
  6  2  1  0
  6 13  1  0
  7  6  2  0
 10  9  1  6
 10 12  1  0
 11 10  1  0
 12 13  1  6
 12 14  1  0
 14 15  2  0
 17 16  1  6
 17 19  1  0
 17 18  1  0
 19 21  1  0
 20 14  1  0
 19 20  1  6
 21 23  1  0
 22 21  2  0
M  END
$$$$
