DVT.pdb
     RDKit          3D

 23 22  0  0  1  0  0  0  0  0999 V2000
    8.7444  -15.1365   20.8782 N   0  0  0  0  0  0  0  0  0  0  0  0
    8.0115  -15.6248   22.0196 C   0  0  1  0  0  0  0  0  0  0  0  0
    8.1370  -17.1380   22.0213 C   0  0  0  0  0  0  0  0  0  0  0  0
    7.5861  -17.6207   20.7396 C   0  0  0  0  0  0  0  0  0  0  0  0
    7.0172  -16.8561   19.9314 O   0  0  0  0  0  0  0  0  0  0  0  0
    8.5047  -15.0319   23.2843 C   0  0  0  0  0  0  0  0  0  0  0  0
    9.7581  -14.8208   23.3624 O   0  0  0  0  0  0  0  0  0  0  0  0
    7.6922  -18.9597   20.4030 O   0  0  0  0  0  0  0  0  0  0  0  0
    6.7218  -12.1539   25.2795 C   0  0  0  0  0  0  0  0  0  0  0  0
    7.1617  -13.2300   26.2236 C   0  0  2  0  0  0  0  0  0  0  0  0
    7.7278  -12.5993   27.4781 C   0  0  0  0  0  0  0  0  0  0  0  0
    8.2146  -14.1232   25.5582 C   0  0  2  0  0  0  0  0  0  0  0  0
    7.6330  -14.7128   24.3589 N   0  0  0  0  0  0  0  0  0  0  0  0
    8.6429  -15.1357   26.5472 C   0  0  0  0  0  0  0  0  0  0  0  0
    7.7721  -15.8627   27.0925 O   0  0  0  0  0  0  0  0  0  0  0  0
   10.8567  -17.9354   25.9910 C   0  0  0  0  0  0  0  0  0  0  0  0
   11.4087  -17.2728   27.2388 C   0  0  1  0  0  0  0  0  0  0  0  0
   12.4138  -16.3935   26.8492 O   0  0  0  0  0  0  0  0  0  0  0  0
   10.3096  -16.3949   27.8480 C   0  0  2  0  0  0  0  0  0  0  0  0
   10.0177  -15.3185   26.9029 N   0  0  0  0  0  0  0  0  0  0  0  0
   10.6905  -15.8207   29.1303 C   0  0  0  0  0  0  0  0  0  0  0  0
   10.8084  -14.5688   29.2901 O   0  0  0  0  0  0  0  0  0  0  0  0
   10.9516  -16.5835   30.2604 O   0  0  0  0  0  0  0  0  0  0  0  0
  2  1  1  6
  2  3  1  0
  3  4  1  0
  4  8  1  0
  5  4  2  0
  6  2  1  0
  6 13  1  0
  7  6  2  0
 10  9  1  6
 10 12  1  0
 11 10  1  0
 12 13  1  6
 12 14  1  0
 14 15  2  0
 17 16  1  6
 17 19  1  0
 17 18  1  0
 19 21  1  0
 20 14  1  0
 19 20  1  6
 21 23  1  0
 22 21  2  0
M  END
$$$$
