DVT.pdb
     RDKit          3D

 23 22  0  0  1  0  0  0  0  0999 V2000
    9.0049  -17.4296   15.9905 N   0  0  0  0  0  0  0  0  0  0  0  0
    8.1489  -17.4544   17.1504 C   0  0  1  0  0  0  0  0  0  0  0  0
    7.9772  -18.9087   17.5520 C   0  0  0  0  0  0  0  0  0  0  0  0
    7.2439  -19.5772   16.4589 C   0  0  0  0  0  0  0  0  0  0  0  0
    6.0999  -19.2164   16.1090 O   0  0  0  0  0  0  0  0  0  0  0  0
    8.7007  -16.6408   18.2583 C   0  0  0  0  0  0  0  0  0  0  0  0
    9.9682  -16.6335   18.3818 O   0  0  0  0  0  0  0  0  0  0  0  0
    7.8241  -20.6400   15.7871 O   0  0  0  0  0  0  0  0  0  0  0  0
    7.1333  -13.1550   19.4498 C   0  0  0  0  0  0  0  0  0  0  0  0
    7.5299  -14.0053   20.6171 C   0  0  2  0  0  0  0  0  0  0  0  0
    8.1645  -13.1356   21.6815 C   0  0  0  0  0  0  0  0  0  0  0  0
    8.5094  -15.0967   20.1714 C   0  0  2  0  0  0  0  0  0  0  0  0
    7.8678  -15.9047   19.1419 N   0  0  0  0  0  0  0  0  0  0  0  0
    8.8893  -15.8821   21.3653 C   0  0  0  0  0  0  0  0  0  0  0  0
    7.9831  -16.3240   22.1188 O   0  0  0  0  0  0  0  0  0  0  0  0
   10.5799  -19.0531   21.4776 C   0  0  0  0  0  0  0  0  0  0  0  0
   11.3750  -18.1775   22.4271 C   0  0  1  0  0  0  0  0  0  0  0  0
   12.4224  -17.6077   21.7105 O   0  0  0  0  0  0  0  0  0  0  0  0
   10.4892  -17.0040   22.8610 C   0  0  2  0  0  0  0  0  0  0  0  0
   10.2557  -16.1595   21.6908 N   0  0  0  0  0  0  0  0  0  0  0  0
   11.0880  -16.2053   23.9205 C   0  0  0  0  0  0  0  0  0  0  0  0
   11.5236  -15.0344   23.7058 O   0  0  0  0  0  0  0  0  0  0  0  0
   11.2287  -16.6531   25.2269 O   0  0  0  0  0  0  0  0  0  0  0  0
  2  1  1  6
  2  3  1  0
  3  4  1  0
  4  8  1  0
  5  4  2  0
  6  2  1  0
  6 13  1  0
  7  6  2  0
 10  9  1  6
 10 12  1  0
 11 10  1  0
 12 13  1  6
 12 14  1  0
 14 15  2  0
 17 16  1  6
 17 19  1  0
 17 18  1  0
 19 21  1  0
 20 14  1  0
 19 20  1  6
 21 23  1  0
 22 21  2  0
M  END
$$$$
