DVT.pdb
     RDKit          3D

 23 22  0  0  1  0  0  0  0  0999 V2000
    7.5751  -14.5009   20.7995 N   0  0  0  0  0  0  0  0  0  0  0  0
    7.1588  -15.0687   22.0576 C   0  0  1  0  0  0  0  0  0  0  0  0
    7.3221  -16.5744   21.9478 C   0  0  0  0  0  0  0  0  0  0  0  0
    6.9383  -16.9535   20.5736 C   0  0  0  0  0  0  0  0  0  0  0  0
    7.5393  -17.8463   19.9387 O   0  0  0  0  0  0  0  0  0  0  0  0
    7.9314  -14.5144   23.1933 C   0  0  0  0  0  0  0  0  0  0  0  0
    9.1604  -14.2619   22.9756 O   0  0  0  0  0  0  0  0  0  0  0  0
    5.8818  -16.3115   19.9499 O   0  0  0  0  0  0  0  0  0  0  0  0
    6.1273  -13.0984   26.7145 C   0  0  0  0  0  0  0  0  0  0  0  0
    7.4879  -12.6586   26.2694 C   0  0  2  0  0  0  0  0  0  0  0  0
    7.3562  -11.4556   25.3596 C   0  0  0  0  0  0  0  0  0  0  0  0
    8.2028  -13.8001   25.5379 C   0  0  2  0  0  0  0  0  0  0  0  0
    7.3411  -14.2744   24.4623 N   0  0  0  0  0  0  0  0  0  0  0  0
    8.5155  -14.8510   26.5301 C   0  0  0  0  0  0  0  0  0  0  0  0
    7.5697  -15.4868   27.0642 O   0  0  0  0  0  0  0  0  0  0  0  0
   10.3546  -17.8534   25.9458 C   0  0  0  0  0  0  0  0  0  0  0  0
   11.0023  -17.2874   27.1951 C   0  0  1  0  0  0  0  0  0  0  0  0
   12.1076  -16.5386   26.8041 O   0  0  0  0  0  0  0  0  0  0  0  0
   10.0330  -16.2853   27.8322 C   0  0  2  0  0  0  0  0  0  0  0  0
    9.8607  -15.1715   26.9012 N   0  0  0  0  0  0  0  0  0  0  0  0
   10.5062  -15.7760   29.1112 C   0  0  0  0  0  0  0  0  0  0  0  0
   10.7268  -14.5414   29.2953 O   0  0  0  0  0  0  0  0  0  0  0  0
   10.7504  -16.5859   30.2118 O   0  0  0  0  0  0  0  0  0  0  0  0
  2  1  1  6
  2  3  1  0
  3  4  1  0
  4  8  1  0
  5  4  2  0
  6  2  1  0
  6 13  1  0
  7  6  2  0
 10  9  1  6
 10 12  1  0
 11 10  1  0
 12 13  1  6
 12 14  1  0
 14 15  2  0
 17 16  1  6
 17 19  1  0
 17 18  1  0
 19 21  1  0
 20 14  1  0
 19 20  1  6
 21 23  1  0
 22 21  2  0
M  END
$$$$
