DVT.pdb
     RDKit          3D

 23 22  0  0  1  0  0  0  0  0999 V2000
    7.7509  -17.1645   16.5726 N   0  0  0  0  0  0  0  0  0  0  0  0
    9.1666  -17.1149   16.8410 C   0  0  1  0  0  0  0  0  0  0  0  0
    9.8462  -16.6094   15.5807 C   0  0  0  0  0  0  0  0  0  0  0  0
   10.0380  -17.7741   14.6940 C   0  0  0  0  0  0  0  0  0  0  0  0
    9.5775  -18.9022   14.9707 O   0  0  0  0  0  0  0  0  0  0  0  0
    9.4746  -16.2603   18.0110 C   0  0  0  0  0  0  0  0  0  0  0  0
   10.7020  -16.1621   18.3359 O   0  0  0  0  0  0  0  0  0  0  0  0
   10.7481  -17.6335   13.5136 O   0  0  0  0  0  0  0  0  0  0  0  0
    7.6833  -12.8215   18.9159 C   0  0  0  0  0  0  0  0  0  0  0  0
    7.8067  -13.6982   20.1238 C   0  0  2  0  0  0  0  0  0  0  0  0
    8.1814  -12.8537   21.3232 C   0  0  0  0  0  0  0  0  0  0  0  0
    8.8641  -14.7824   19.8881 C   0  0  2  0  0  0  0  0  0  0  0  0
    8.4609  -15.5827   18.7387 N   0  0  0  0  0  0  0  0  0  0  0  0
    8.9846  -15.5777   21.1289 C   0  0  0  0  0  0  0  0  0  0  0  0
    7.9480  -16.0838   21.6324 O   0  0  0  0  0  0  0  0  0  0  0  0
   10.3852  -18.6448   21.4516 C   0  0  0  0  0  0  0  0  0  0  0  0
   11.0629  -17.9195   22.5985 C   0  0  1  0  0  0  0  0  0  0  0  0
   12.2852  -17.4388   22.1401 O   0  0  0  0  0  0  0  0  0  0  0  0
   10.2357  -16.6753   22.9415 C   0  0  2  0  0  0  0  0  0  0  0  0
   10.2438  -15.7939   21.7752 N   0  0  0  0  0  0  0  0  0  0  0  0
   10.7523  -15.9534   24.0952 C   0  0  0  0  0  0  0  0  0  0  0  0
   11.3000  -14.8162   23.9780 O   0  0  0  0  0  0  0  0  0  0  0  0
   10.6890  -16.4430   25.3926 O   0  0  0  0  0  0  0  0  0  0  0  0
  2  1  1  6
  2  3  1  0
  3  4  1  0
  4  8  1  0
  5  4  2  0
  6  2  1  0
  6 13  1  0
  7  6  2  0
 10  9  1  6
 10 12  1  0
 11 10  1  0
 12 13  1  6
 12 14  1  0
 14 15  2  0
 17 16  1  6
 17 19  1  0
 17 18  1  0
 19 21  1  0
 20 14  1  0
 19 20  1  6
 21 23  1  0
 22 21  2  0
M  END
$$$$
