DVT.pdb
     RDKit          3D

 23 22  0  0  1  0  0  0  0  0999 V2000
    9.7747  -17.3172   15.9344 N   0  0  0  0  0  0  0  0  0  0  0  0
    8.8125  -17.3189   17.0080 C   0  0  1  0  0  0  0  0  0  0  0  0
    8.6653  -18.7552   17.4782 C   0  0  0  0  0  0  0  0  0  0  0  0
    8.0865  -19.5217   16.3571 C   0  0  0  0  0  0  0  0  0  0  0  0
    8.3463  -20.7303   16.1750 O   0  0  0  0  0  0  0  0  0  0  0  0
    9.2193  -16.4191   18.1121 C   0  0  0  0  0  0  0  0  0  0  0  0
   10.4600  -16.3953   18.3984 O   0  0  0  0  0  0  0  0  0  0  0  0
    7.2264  -18.9005   15.4673 O   0  0  0  0  0  0  0  0  0  0  0  0
    7.5274  -12.8600   19.1320 C   0  0  0  0  0  0  0  0  0  0  0  0
    7.7244  -13.7776   20.2991 C   0  0  2  0  0  0  0  0  0  0  0  0
    8.1745  -12.9746   21.5011 C   0  0  0  0  0  0  0  0  0  0  0  0
    8.7634  -14.8524   19.9610 C   0  0  2  0  0  0  0  0  0  0  0  0
    8.2820  -15.6216   18.8204 N   0  0  0  0  0  0  0  0  0  0  0  0
    8.9697  -15.6815   21.1679 C   0  0  0  0  0  0  0  0  0  0  0  0
    7.9745  -16.2306   21.7085 O   0  0  0  0  0  0  0  0  0  0  0  0
   11.0007  -18.6561   21.3478 C   0  0  0  0  0  0  0  0  0  0  0  0
   11.4393  -17.8416   22.5499 C   0  0  1  0  0  0  0  0  0  0  0  0
   12.5542  -17.0964   22.1799 O   0  0  0  0  0  0  0  0  0  0  0  0
   10.3458  -16.8144   22.8645 C   0  0  2  0  0  0  0  0  0  0  0  0
   10.2664  -15.8829   21.7406 N   0  0  0  0  0  0  0  0  0  0  0  0
   10.6038  -16.0713   24.0895 C   0  0  0  0  0  0  0  0  0  0  0  0
   10.9111  -14.8417   24.0696 O   0  0  0  0  0  0  0  0  0  0  0  0
   10.5364  -16.6387   25.3546 O   0  0  0  0  0  0  0  0  0  0  0  0
  2  1  1  6
  2  3  1  0
  3  4  1  0
  4  8  1  0
  5  4  2  0
  6  2  1  0
  6 13  1  0
  7  6  2  0
 10  9  1  6
 10 12  1  0
 11 10  1  0
 12 13  1  6
 12 14  1  0
 14 15  2  0
 17 16  1  6
 17 19  1  0
 17 18  1  0
 19 21  1  0
 20 14  1  0
 19 20  1  6
 21 23  1  0
 22 21  2  0
M  END
$$$$
