DVT.pdb
     RDKit          3D

 23 22  0  0  1  0  0  0  0  0999 V2000
    8.4172  -17.4099   16.7214 N   0  0  0  0  0  0  0  0  0  0  0  0
    7.8497  -17.4099   18.0467 C   0  0  1  0  0  0  0  0  0  0  0  0
    7.8082  -18.8526   18.5184 C   0  0  0  0  0  0  0  0  0  0  0  0
    6.8079  -19.5522   17.6880 C   0  0  0  0  0  0  0  0  0  0  0  0
    5.7579  -18.9950   17.3031 O   0  0  0  0  0  0  0  0  0  0  0  0
    8.6209  -16.5511   18.9749 C   0  0  0  0  0  0  0  0  0  0  0  0
    9.8844  -16.5335   18.8162 O   0  0  0  0  0  0  0  0  0  0  0  0
    7.0207  -20.8681   17.3130 O   0  0  0  0  0  0  0  0  0  0  0  0
    6.7755  -13.8896   21.6902 C   0  0  0  0  0  0  0  0  0  0  0  0
    8.1652  -13.6713   21.1764 C   0  0  2  0  0  0  0  0  0  0  0  0
    8.1106  -12.8352   19.9154 C   0  0  0  0  0  0  0  0  0  0  0  0
    8.8440  -15.0156   20.8915 C   0  0  2  0  0  0  0  0  0  0  0  0
    7.9931  -15.7845   19.9921 N   0  0  0  0  0  0  0  0  0  0  0  0
    9.0729  -15.6930   22.1859 C   0  0  0  0  0  0  0  0  0  0  0  0
    8.0824  -15.9858   22.9050 O   0  0  0  0  0  0  0  0  0  0  0  0
   10.2499  -18.9452   22.8356 C   0  0  0  0  0  0  0  0  0  0  0  0
   11.1642  -18.0780   23.6797 C   0  0  1  0  0  0  0  0  0  0  0  0
   12.2922  -17.7792   22.9223 O   0  0  0  0  0  0  0  0  0  0  0  0
   10.4677  -16.7347   23.9251 C   0  0  2  0  0  0  0  0  0  0  0  0
   10.3859  -16.0299   22.6470 N   0  0  0  0  0  0  0  0  0  0  0  0
   11.1697  -15.9020   24.8910 C   0  0  0  0  0  0  0  0  0  0  0  0
   11.6935  -14.7962   24.5599 O   0  0  0  0  0  0  0  0  0  0  0  0
   11.3204  -16.2456   26.2276 O   0  0  0  0  0  0  0  0  0  0  0  0
  2  1  1  6
  2  3  1  0
  3  4  1  0
  4  8  1  0
  5  4  2  0
  6  2  1  0
  6 13  1  0
  7  6  2  0
 10  9  1  6
 10 12  1  0
 11 10  1  0
 12 13  1  6
 12 14  1  0
 14 15  2  0
 17 16  1  6
 17 19  1  0
 17 18  1  0
 19 21  1  0
 20 14  1  0
 19 20  1  6
 21 23  1  0
 22 21  2  0
M  END
$$$$
