DVT.pdb
     RDKit          3D

 23 22  0  0  1  0  0  0  0  0999 V2000
    9.0388  -17.5590   16.2217 N   0  0  0  0  0  0  0  0  0  0  0  0
    8.1229  -17.4601   17.3308 C   0  0  1  0  0  0  0  0  0  0  0  0
    7.8434  -18.8732   17.8111 C   0  0  0  0  0  0  0  0  0  0  0  0
    7.0487  -19.5395   16.7604 C   0  0  0  0  0  0  0  0  0  0  0  0
    5.8364  -19.2911   16.5870 O   0  0  0  0  0  0  0  0  0  0  0  0
    8.6634  -16.6087   18.4157 C   0  0  0  0  0  0  0  0  0  0  0  0
    9.9203  -16.6672   18.6118 O   0  0  0  0  0  0  0  0  0  0  0  0
    7.6462  -20.4728   15.9302 O   0  0  0  0  0  0  0  0  0  0  0  0
    7.2806  -12.9284   19.4716 C   0  0  0  0  0  0  0  0  0  0  0  0
    7.5058  -13.8385   20.6394 C   0  0  2  0  0  0  0  0  0  0  0  0
    8.0813  -13.0447   21.7931 C   0  0  0  0  0  0  0  0  0  0  0  0
    8.4578  -14.9754   20.2517 C   0  0  2  0  0  0  0  0  0  0  0  0
    7.8311  -15.7685   19.2017 N   0  0  0  0  0  0  0  0  0  0  0  0
    8.7481  -15.7612   21.4702 C   0  0  0  0  0  0  0  0  0  0  0  0
    7.7886  -16.1938   22.1604 O   0  0  0  0  0  0  0  0  0  0  0  0
   10.0835  -18.9188   21.8321 C   0  0  0  0  0  0  0  0  0  0  0  0
   10.9538  -18.1248   22.7874 C   0  0  1  0  0  0  0  0  0  0  0  0
   12.1070  -17.7489   22.1061 O   0  0  0  0  0  0  0  0  0  0  0  0
   10.2325  -16.8153   23.1259 C   0  0  2  0  0  0  0  0  0  0  0  0
   10.0865  -16.0492   21.8895 N   0  0  0  0  0  0  0  0  0  0  0  0
   10.9474  -16.0137   24.1085 C   0  0  0  0  0  0  0  0  0  0  0  0
   11.0774  -16.3946   25.3105 O   0  0  0  0  0  0  0  0  0  0  0  0
   11.5326  -14.7897   23.8145 O   0  0  0  0  0  0  0  0  0  0  0  0
  2  1  1  6
  2  3  1  0
  3  4  1  0
  4  8  1  0
  5  4  2  0
  6  2  1  0
  6 13  1  0
  7  6  2  0
 10  9  1  6
 10 12  1  0
 11 10  1  0
 12 13  1  6
 12 14  1  0
 14 15  2  0
 17 16  1  6
 17 19  1  0
 17 18  1  0
 19 21  1  0
 20 14  1  0
 19 20  1  6
 21 23  1  0
 22 21  2  0
M  END
$$$$
