DVT.pdb
     RDKit          3D

 23 22  0  0  1  0  0  0  0  0999 V2000
    7.8218  -18.5479   19.6752 N   0  0  0  0  0  0  0  0  0  0  0  0
    9.0963  -18.0198   19.2563 C   0  0  1  0  0  0  0  0  0  0  0  0
    9.1002  -18.0048   17.7379 C   0  0  0  0  0  0  0  0  0  0  0  0
   10.4861  -18.2714   17.3048 C   0  0  0  0  0  0  0  0  0  0  0  0
   11.1641  -19.2045   17.7853 O   0  0  0  0  0  0  0  0  0  0  0  0
    9.3447  -16.6723   19.8190 C   0  0  0  0  0  0  0  0  0  0  0  0
   10.5408  -16.2401   19.7528 O   0  0  0  0  0  0  0  0  0  0  0  0
   11.0724  -17.4736   16.3367 O   0  0  0  0  0  0  0  0  0  0  0  0
    7.5415  -13.3686   19.2506 C   0  0  0  0  0  0  0  0  0  0  0  0
    7.6149  -13.5918   20.7297 C   0  0  2  0  0  0  0  0  0  0  0  0
    7.9433  -12.2854   21.4208 C   0  0  0  0  0  0  0  0  0  0  0  0
    8.6788  -14.6458   21.0561 C   0  0  2  0  0  0  0  0  0  0  0  0
    8.3097  -15.8960   20.4042 N   0  0  0  0  0  0  0  0  0  0  0  0
    8.7624  -14.7672   22.5274 C   0  0  0  0  0  0  0  0  0  0  0  0
    9.1142  -13.7655   23.2034 O   0  0  0  0  0  0  0  0  0  0  0  0
    6.4445  -14.9496   25.1714 C   0  0  0  0  0  0  0  0  0  0  0  0
    7.2601  -16.2215   25.3045 C   0  0  1  0  0  0  0  0  0  0  0  0
    6.6500  -17.2055   24.5334 O   0  0  0  0  0  0  0  0  0  0  0  0
    8.6313  -15.9876   24.6603 C   0  0  2  0  0  0  0  0  0  0  0  0
    8.4529  -15.9875   23.2093 N   0  0  0  0  0  0  0  0  0  0  0  0
    9.6084  -17.0028   25.0261 C   0  0  0  0  0  0  0  0  0  0  0  0
   10.1705  -17.7304   24.1534 O   0  0  0  0  0  0  0  0  0  0  0  0
    9.9956  -17.2524   26.3356 O   0  0  0  0  0  0  0  0  0  0  0  0
  2  1  1  6
  2  3  1  0
  3  4  1  0
  4  8  1  0
  5  4  2  0
  6  2  1  0
  6 13  1  0
  7  6  2  0
 10  9  1  6
 10 12  1  0
 11 10  1  0
 12 13  1  6
 12 14  1  0
 14 15  2  0
 17 16  1  6
 17 19  1  0
 17 18  1  0
 19 21  1  0
 20 14  1  0
 19 20  1  6
 21 23  1  0
 22 21  2  0
M  END
$$$$
