DVT.pdb
     RDKit          3D

 23 22  0  0  1  0  0  0  0  0999 V2000
    9.4379  -15.9124   14.8419 N   0  0  0  0  0  0  0  0  0  0  0  0
    8.9398  -16.6217   15.9940 C   0  0  1  0  0  0  0  0  0  0  0  0
    9.4492  -18.0490   15.8986 C   0  0  0  0  0  0  0  0  0  0  0  0
    8.4157  -18.8324   15.1931 C   0  0  0  0  0  0  0  0  0  0  0  0
    7.4224  -19.3062   15.7848 O   0  0  0  0  0  0  0  0  0  0  0  0
    9.3551  -15.9744   17.2599 C   0  0  0  0  0  0  0  0  0  0  0  0
   10.6072  -15.8250   17.4381 O   0  0  0  0  0  0  0  0  0  0  0  0
    8.5319  -19.0613   13.8324 O   0  0  0  0  0  0  0  0  0  0  0  0
    7.5877  -12.7894   18.8477 C   0  0  0  0  0  0  0  0  0  0  0  0
    7.8280  -13.8523   19.8750 C   0  0  2  0  0  0  0  0  0  0  0  0
    8.2425  -13.2070   21.1804 C   0  0  0  0  0  0  0  0  0  0  0  0
    8.9147  -14.8204   19.3942 C   0  0  2  0  0  0  0  0  0  0  0  0
    8.4135  -15.5404   18.2302 N   0  0  0  0  0  0  0  0  0  0  0  0
    9.2574  -15.7153   20.5203 C   0  0  0  0  0  0  0  0  0  0  0  0
    8.3520  -16.4209   21.0365 O   0  0  0  0  0  0  0  0  0  0  0  0
   11.2395  -18.5859   20.5786 C   0  0  0  0  0  0  0  0  0  0  0  0
   11.8246  -17.7767   21.7203 C   0  0  1  0  0  0  0  0  0  0  0  0
   12.9007  -17.0486   21.2231 O   0  0  0  0  0  0  0  0  0  0  0  0
   10.7895  -16.7330   22.1551 C   0  0  2  0  0  0  0  0  0  0  0  0
   10.5878  -15.8078   21.0414 N   0  0  0  0  0  0  0  0  0  0  0  0
   11.2013  -15.9855   23.3345 C   0  0  0  0  0  0  0  0  0  0  0  0
   11.5016  -14.7556   23.2715 O   0  0  0  0  0  0  0  0  0  0  0  0
   11.2976  -16.5488   24.5996 O   0  0  0  0  0  0  0  0  0  0  0  0
  2  1  1  6
  2  3  1  0
  3  4  1  0
  4  8  1  0
  5  4  2  0
  6  2  1  0
  6 13  1  0
  7  6  2  0
 10  9  1  6
 10 12  1  0
 11 10  1  0
 12 13  1  6
 12 14  1  0
 14 15  2  0
 17 16  1  6
 17 19  1  0
 17 18  1  0
 19 21  1  0
 20 14  1  0
 19 20  1  6
 21 23  1  0
 22 21  2  0
M  END
$$$$
