DVT.pdb
     RDKit          3D

 23 22  0  0  1  0  0  0  0  0999 V2000
    9.3752  -17.4055   16.4436 N   0  0  0  0  0  0  0  0  0  0  0  0
    8.4774  -17.4752   17.5694 C   0  0  1  0  0  0  0  0  0  0  0  0
    8.3948  -18.9320   17.9897 C   0  0  0  0  0  0  0  0  0  0  0  0
    7.0959  -19.4480   17.5142 C   0  0  0  0  0  0  0  0  0  0  0  0
    6.0385  -18.7925   17.6300 O   0  0  0  0  0  0  0  0  0  0  0  0
    8.9242  -16.6072   18.6834 C   0  0  0  0  0  0  0  0  0  0  0  0
   10.1697  -16.6184   18.9486 O   0  0  0  0  0  0  0  0  0  0  0  0
    7.0251  -20.6959   16.9184 O   0  0  0  0  0  0  0  0  0  0  0  0
    7.3938  -12.9613   19.6436 C   0  0  0  0  0  0  0  0  0  0  0  0
    7.5508  -13.8723   20.8218 C   0  0  2  0  0  0  0  0  0  0  0  0
    8.0179  -13.0719   22.0190 C   0  0  0  0  0  0  0  0  0  0  0  0
    8.5561  -14.9847   20.5035 C   0  0  2  0  0  0  0  0  0  0  0  0
    8.0182  -15.8018   19.4231 N   0  0  0  0  0  0  0  0  0  0  0  0
    8.7912  -15.7540   21.7442 C   0  0  0  0  0  0  0  0  0  0  0  0
    7.8053  -16.2416   22.3560 O   0  0  0  0  0  0  0  0  0  0  0  0
   10.4415  -18.8386   22.2748 C   0  0  0  0  0  0  0  0  0  0  0  0
   11.1080  -17.9239   23.2846 C   0  0  1  0  0  0  0  0  0  0  0  0
   12.2610  -17.4083   22.7015 O   0  0  0  0  0  0  0  0  0  0  0  0
   10.1939  -16.7166   23.5223 C   0  0  2  0  0  0  0  0  0  0  0  0
   10.1056  -15.9655   22.2712 N   0  0  0  0  0  0  0  0  0  0  0  0
   10.6788  -15.8395   24.5782 C   0  0  0  0  0  0  0  0  0  0  0  0
   11.1281  -14.6812   24.3270 O   0  0  0  0  0  0  0  0  0  0  0  0
   10.6892  -16.1945   25.9202 O   0  0  0  0  0  0  0  0  0  0  0  0
  2  1  1  6
  2  3  1  0
  3  4  1  0
  4  8  1  0
  5  4  2  0
  6  2  1  0
  6 13  1  0
  7  6  2  0
 10  9  1  6
 10 12  1  0
 11 10  1  0
 12 13  1  6
 12 14  1  0
 14 15  2  0
 17 16  1  6
 17 19  1  0
 17 18  1  0
 19 21  1  0
 20 14  1  0
 19 20  1  6
 21 23  1  0
 22 21  2  0
M  END
$$$$
