QWY.pdb
     RDKit          3D

 36 38  0  0  1  0  0  0  0  0999 V2000
   10.6727  -15.2119   16.8677 N   0  0  0  0  0  0  0  0  0  0  0  0
   10.9187  -16.6011   16.8212 C   0  0  0  0  0  0  0  0  0  0  0  0
   11.0779  -17.1844   15.7327 O   0  0  0  0  0  0  0  0  0  0  0  0
   10.9866  -17.3648   18.0813 C   0  0  0  0  0  0  0  0  0  0  0  0
   10.7424  -16.5060   19.2895 C   0  0  0  0  0  0  0  0  0  0  0  0
   10.9915  -17.3266   20.5353 C   0  0  2  0  0  0  0  0  0  0  0  0
   10.1511  -18.5177   20.4848 N   0  0  0  0  0  0  0  0  0  0  0  0
   10.6168  -16.5827   21.7667 C   0  0  0  0  0  0  0  0  0  0  0  0
   11.2604  -15.5493   22.1550 O   0  0  0  0  0  0  0  0  0  0  0  0
    9.5192  -16.9824   22.5807 N   0  0  0  0  0  0  0  0  0  0  0  0
    9.1765  -16.3676   23.8381 C   0  0  1  0  0  0  0  0  0  0  0  0
    7.7565  -15.9681   23.9238 C   0  0  0  0  0  0  0  0  0  0  0  0
    7.4346  -14.5548   23.9583 C   0  0  0  0  0  0  0  0  0  0  0  0
    7.2446  -13.6787   22.8953 C   0  0  0  0  0  0  0  0  0  0  0  0
    6.9802  -12.4547   23.3827 N   0  0  0  0  0  0  0  0  0  0  0  0
    6.9910  -12.5034   24.7186 C   0  0  0  0  0  0  0  0  0  0  0  0
    6.7695  -11.5071   25.6593 C   0  0  0  0  0  0  0  0  0  0  0  0
    6.8191  -11.7684   27.0019 C   0  0  0  0  0  0  0  0  0  0  0  0
    7.0941  -13.0452   27.4122 C   0  0  0  0  0  0  0  0  0  0  0  0
    7.3120  -14.0234   26.4646 C   0  0  0  0  0  0  0  0  0  0  0  0
    7.2733  -13.8093   25.1024 C   0  0  0  0  0  0  0  0  0  0  0  0
    9.6789  -17.1408   24.9952 C   0  0  0  0  0  0  0  0  0  0  0  0
   10.1654  -18.2798   24.7893 O   0  0  0  0  0  0  0  0  0  0  0  0
   14.8038  -20.3295   23.6366 O   0  0  0  0  0  0  0  0  0  0  0  0
   14.1169  -19.4044   24.4144 C   0  0  0  0  0  0  0  0  0  0  0  0
   13.8845  -19.5976   25.7646 C   0  0  0  0  0  0  0  0  0  0  0  0
   13.1987  -18.6711   26.5347 C   0  0  0  0  0  0  0  0  0  0  0  0
   12.7259  -17.5192   25.9628 C   0  0  0  0  0  0  0  0  0  0  0  0
   11.9867  -16.4784   26.6914 C   0  0  0  0  0  0  0  0  0  0  0  0
   10.6942  -16.9640   27.3001 C   0  0  2  0  0  0  0  0  0  0  0  0
    9.6496  -16.6805   26.3355 N   0  0  0  0  0  0  0  0  0  0  0  0
   10.4007  -16.4092   28.6211 C   0  0  0  0  0  0  0  0  0  0  0  0
    9.3650  -15.4983   28.7625 O   0  0  0  0  0  0  0  0  0  0  0  0
   12.9581  -17.3206   24.6019 C   0  0  0  0  0  0  0  0  0  0  0  0
   13.6382  -18.2387   23.8367 C   0  0  0  0  0  0  0  0  0  0  0  0
   11.0479  -16.7197   29.6498 O   0  0  0  0  0  0  0  0  0  0  0  0
  2  1  1  0
  3  2  2  0
  4  2  1  0
  5  4  1  0
  6  5  1  0
  6  7  1  6
  8  6  1  0
  8  9  2  0
 10  8  1  0
 11 10  1  0
 11 12  1  1
 12 13  1  0
 13 14  2  0
 13 21  1  0
 14 15  1  0
 15 16  1  0
 16 17  2  0
 17 18  1  0
 19 18  2  0
 20 19  1  0
 21 20  2  0
 21 16  1  0
 22 11  1  0
 23 22  2  0
 25 24  1  0
 25 35  2  0
 26 25  1  0
 27 26  2  0
 27 28  1  0
 28 34  2  0
 29 28  1  0
 30 29  1  6
 30 31  1  0
 31 22  1  0
 32 33  1  0
 32 30  1  0
 34 35  1  0
 36 32  2  0
M  END
$$$$
