QWY.pdb
     RDKit          3D

 36 38  0  0  1  0  0  0  0  0999 V2000
   13.6425  -20.9721   18.0878 N   0  0  0  0  0  0  0  0  0  0  0  0
   12.9288  -20.1820   17.1611 C   0  0  0  0  0  0  0  0  0  0  0  0
   13.4459  -19.8435   16.0802 O   0  0  0  0  0  0  0  0  0  0  0  0
   11.5540  -19.7556   17.4837 C   0  0  0  0  0  0  0  0  0  0  0  0
   11.5094  -18.4099   18.1500 C   0  0  0  0  0  0  0  0  0  0  0  0
   10.0812  -18.1008   18.5400 C   0  0  2  0  0  0  0  0  0  0  0  0
    9.3713  -17.6142   17.3624 N   0  0  0  0  0  0  0  0  0  0  0  0
   10.0123  -17.0250   19.5638 C   0  0  0  0  0  0  0  0  0  0  0  0
   10.7426  -15.9786   19.4956 O   0  0  0  0  0  0  0  0  0  0  0  0
    9.1276  -17.1029   20.6765 N   0  0  0  0  0  0  0  0  0  0  0  0
    9.0354  -16.1031   21.7102 C   0  0  1  0  0  0  0  0  0  0  0  0
    7.7654  -15.3485   21.6795 C   0  0  0  0  0  0  0  0  0  0  0  0
    7.6461  -14.1581   22.4988 C   0  0  0  0  0  0  0  0  0  0  0  0
    8.1014  -12.8708   22.2357 C   0  0  0  0  0  0  0  0  0  0  0  0
    7.7909  -12.0788   23.2760 N   0  0  0  0  0  0  0  0  0  0  0  0
    7.1525  -12.8018   24.2016 C   0  0  0  0  0  0  0  0  0  0  0  0
    6.6329  -12.4323   25.4346 C   0  0  0  0  0  0  0  0  0  0  0  0
    5.9983  -13.3366   26.2426 C   0  0  0  0  0  0  0  0  0  0  0  0
    5.8803  -14.6309   25.8127 C   0  0  0  0  0  0  0  0  0  0  0  0
    6.4022  -14.9817   24.5852 C   0  0  0  0  0  0  0  0  0  0  0  0
    7.0498  -14.1078   23.7368 C   0  0  0  0  0  0  0  0  0  0  0  0
    9.4150  -16.6335   23.0382 C   0  0  0  0  0  0  0  0  0  0  0  0
    8.9740  -17.7573   23.3832 O   0  0  0  0  0  0  0  0  0  0  0  0
   11.2184  -16.0062   31.6700 O   0  0  0  0  0  0  0  0  0  0  0  0
   11.0797  -15.7456   30.3115 C   0  0  0  0  0  0  0  0  0  0  0  0
   10.3793  -14.6523   29.8337 C   0  0  0  0  0  0  0  0  0  0  0  0
   10.2446  -14.3981   28.4776 C   0  0  0  0  0  0  0  0  0  0  0  0
   10.8146  -15.2425   27.5613 C   0  0  0  0  0  0  0  0  0  0  0  0
   10.7272  -15.0618   26.1052 C   0  0  0  0  0  0  0  0  0  0  0  0
   10.3630  -16.3208   25.3573 C   0  0  2  0  0  0  0  0  0  0  0  0
   10.2519  -15.9545   23.9589 N   0  0  0  0  0  0  0  0  0  0  0  0
    9.1649  -16.9960   25.8552 C   0  0  0  0  0  0  0  0  0  0  0  0
    9.2982  -18.1528   26.6076 O   0  0  0  0  0  0  0  0  0  0  0  0
   11.5215  -16.3460   28.0389 C   0  0  0  0  0  0  0  0  0  0  0  0
   11.6560  -16.5995   29.3838 C   0  0  0  0  0  0  0  0  0  0  0  0
    8.0040  -16.5758   25.6332 O   0  0  0  0  0  0  0  0  0  0  0  0
  2  1  1  0
  3  2  2  0
  4  2  1  0
  5  4  1  0
  6  5  1  0
  6  7  1  6
  8  6  1  0
  8  9  2  0
 10  8  1  0
 11 10  1  0
 11 12  1  1
 12 13  1  0
 13 14  2  0
 13 21  1  0
 14 15  1  0
 15 16  1  0
 16 17  2  0
 17 18  1  0
 19 18  2  0
 20 19  1  0
 21 20  2  0
 21 16  1  0
 22 11  1  0
 23 22  2  0
 25 24  1  0
 25 35  2  0
 26 25  1  0
 27 26  2  0
 27 28  1  0
 28 34  2  0
 29 28  1  0
 30 29  1  1
 30 31  1  0
 31 22  1  0
 32 33  1  0
 32 30  1  0
 34 35  1  0
 36 32  2  0
M  END
$$$$
