QWY.pdb
     RDKit          3D

 36 38  0  0  1  0  0  0  0  0999 V2000
    7.7884  -12.7930   16.6458 N   0  0  0  0  0  0  0  0  0  0  0  0
    8.0808  -14.0916   16.1763 C   0  0  0  0  0  0  0  0  0  0  0  0
    7.9270  -14.3853   14.9760 O   0  0  0  0  0  0  0  0  0  0  0  0
    8.5741  -15.1082   17.1244 C   0  0  0  0  0  0  0  0  0  0  0  0
    8.6658  -14.5881   18.5308 C   0  0  0  0  0  0  0  0  0  0  0  0
    9.3761  -15.6112   19.3888 C   0  0  2  0  0  0  0  0  0  0  0  0
    8.6405  -16.8689   19.3198 N   0  0  0  0  0  0  0  0  0  0  0  0
    9.4058  -15.2035   20.8181 C   0  0  0  0  0  0  0  0  0  0  0  0
    9.9972  -14.1390   21.2057 O   0  0  0  0  0  0  0  0  0  0  0  0
    8.7763  -15.9781   21.8332 N   0  0  0  0  0  0  0  0  0  0  0  0
    8.7582  -15.6231   23.2297 C   0  0  1  0  0  0  0  0  0  0  0  0
    7.5798  -16.1492   23.9496 C   0  0  0  0  0  0  0  0  0  0  0  0
    6.8270  -15.2474   24.7996 C   0  0  0  0  0  0  0  0  0  0  0  0
    5.6881  -15.5086   25.5534 C   0  0  0  0  0  0  0  0  0  0  0  0
    5.3114  -14.3797   26.1774 N   0  0  0  0  0  0  0  0  0  0  0  0
    6.1611  -13.3983   25.8581 C   0  0  0  0  0  0  0  0  0  0  0  0
    6.1926  -12.0682   26.2535 C   0  0  0  0  0  0  0  0  0  0  0  0
    7.1672  -11.2145   25.8123 C   0  0  0  0  0  0  0  0  0  0  0  0
    8.1262  -11.6964   24.9626 C   0  0  0  0  0  0  0  0  0  0  0  0
    8.0805  -13.0205   24.5793 C   0  0  0  0  0  0  0  0  0  0  0  0
    7.1196  -13.9183   24.9959 C   0  0  0  0  0  0  0  0  0  0  0  0
   10.0580  -15.8771   23.8893 C   0  0  0  0  0  0  0  0  0  0  0  0
   10.7741  -16.8155   23.4614 O   0  0  0  0  0  0  0  0  0  0  0  0
   12.2080  -17.5066   32.1412 O   0  0  0  0  0  0  0  0  0  0  0  0
   11.9000  -16.8435   30.9587 C   0  0  0  0  0  0  0  0  0  0  0  0
   10.6438  -16.3215   30.7066 C   0  0  0  0  0  0  0  0  0  0  0  0
   10.3430  -15.6613   29.5254 C   0  0  0  0  0  0  0  0  0  0  0  0
   11.3044  -15.5084   28.5610 C   0  0  0  0  0  0  0  0  0  0  0  0
   11.0851  -14.8278   27.2768 C   0  0  0  0  0  0  0  0  0  0  0  0
   11.3120  -15.7109   26.0744 C   0  0  2  0  0  0  0  0  0  0  0  0
   10.5577  -15.1264   24.9828 N   0  0  0  0  0  0  0  0  0  0  0  0
   10.9852  -17.1204   26.2878 C   0  0  0  0  0  0  0  0  0  0  0  0
   12.0101  -18.0408   26.4456 O   0  0  0  0  0  0  0  0  0  0  0  0
   12.5721  -16.0333   28.8112 C   0  0  0  0  0  0  0  0  0  0  0  0
   12.8720  -16.6884   29.9825 C   0  0  0  0  0  0  0  0  0  0  0  0
    9.8066  -17.5469   26.3364 O   0  0  0  0  0  0  0  0  0  0  0  0
  2  1  1  0
  3  2  2  0
  4  2  1  0
  5  4  1  0
  6  5  1  0
  6  7  1  1
  8  6  1  0
  8  9  2  0
 10  8  1  0
 11 10  1  0
 11 12  1  1
 12 13  1  0
 13 14  2  0
 13 21  1  0
 14 15  1  0
 15 16  1  0
 16 17  2  0
 17 18  1  0
 19 18  2  0
 20 19  1  0
 21 20  2  0
 21 16  1  0
 22 11  1  0
 23 22  2  0
 25 24  1  0
 25 35  2  0
 26 25  1  0
 27 26  2  0
 27 28  1  0
 28 34  2  0
 29 28  1  0
 30 29  1  1
 30 31  1  0
 31 22  1  0
 32 33  1  0
 32 30  1  0
 34 35  1  0
 36 32  2  0
M  END
$$$$
