QWY.pdb
     RDKit          3D

 36 38  0  0  1  0  0  0  0  0999 V2000
    7.6696  -12.5774   17.4293 N   0  0  0  0  0  0  0  0  0  0  0  0
    7.3070  -13.9113   17.1437 C   0  0  0  0  0  0  0  0  0  0  0  0
    6.6148  -14.1842   16.1453 O   0  0  0  0  0  0  0  0  0  0  0  0
    7.7570  -14.9902   18.0434 C   0  0  0  0  0  0  0  0  0  0  0  0
    8.5034  -14.4699   19.2388 C   0  0  0  0  0  0  0  0  0  0  0  0
    9.0508  -15.6402   20.0250 C   0  0  2  0  0  0  0  0  0  0  0  0
    8.0028  -16.6465   20.1537 N   0  0  0  0  0  0  0  0  0  0  0  0
    9.4413  -15.2414   21.4029 C   0  0  0  0  0  0  0  0  0  0  0  0
   10.3025  -14.3232   21.6229 O   0  0  0  0  0  0  0  0  0  0  0  0
    8.8761  -15.8618   22.5528 N   0  0  0  0  0  0  0  0  0  0  0  0
    9.1864  -15.4892   23.9098 C   0  0  1  0  0  0  0  0  0  0  0  0
    8.2726  -16.0911   24.9029 C   0  0  0  0  0  0  0  0  0  0  0  0
    7.1564  -15.3016   25.3860 C   0  0  0  0  0  0  0  0  0  0  0  0
    5.8931  -15.7293   25.7795 C   0  0  0  0  0  0  0  0  0  0  0  0
    5.1646  -14.6592   26.1400 N   0  0  0  0  0  0  0  0  0  0  0  0
    5.9059  -13.5561   25.9961 C   0  0  0  0  0  0  0  0  0  0  0  0
    5.6000  -12.2250   26.2439 C   0  0  0  0  0  0  0  0  0  0  0  0
    6.5169  -11.2304   26.0357 C   0  0  0  0  0  0  0  0  0  0  0  0
    7.7597  -11.5700   25.5728 C   0  0  0  0  0  0  0  0  0  0  0  0
    8.0474  -12.8971   25.3314 C   0  0  0  0  0  0  0  0  0  0  0  0
    7.1581  -13.9337   25.5251 C   0  0  0  0  0  0  0  0  0  0  0  0
   10.6264  -15.6364   24.2161 C   0  0  0  0  0  0  0  0  0  0  0  0
   11.1708  -14.7851   24.9612 O   0  0  0  0  0  0  0  0  0  0  0  0
   10.9197  -15.1274   30.4386 O   0  0  0  0  0  0  0  0  0  0  0  0
   11.0865  -15.8246   29.2475 C   0  0  0  0  0  0  0  0  0  0  0  0
   11.7451  -15.2839   28.1575 C   0  0  0  0  0  0  0  0  0  0  0  0
   11.9081  -15.9844   26.9725 C   0  0  0  0  0  0  0  0  0  0  0  0
   11.4094  -17.2551   26.8525 C   0  0  0  0  0  0  0  0  0  0  0  0
   11.5278  -18.0778   25.6402 C   0  0  0  0  0  0  0  0  0  0  0  0
   12.3587  -17.4420   24.5529 C   0  0  2  0  0  0  0  0  0  0  0  0
   11.4439  -16.6836   23.7222 N   0  0  0  0  0  0  0  0  0  0  0  0
   13.1666  -18.3840   23.7788 C   0  0  0  0  0  0  0  0  0  0  0  0
   12.5700  -19.1229   22.7686 O   0  0  0  0  0  0  0  0  0  0  0  0
   10.7446  -17.8038   27.9490 C   0  0  0  0  0  0  0  0  0  0  0  0
   10.5821  -17.1101   29.1252 C   0  0  0  0  0  0  0  0  0  0  0  0
   14.3912  -18.5610   23.9848 O   0  0  0  0  0  0  0  0  0  0  0  0
  2  1  1  0
  3  2  2  0
  4  2  1  0
  5  4  1  0
  6  5  1  0
  6  7  1  1
  8  6  1  0
  8  9  2  0
 10  8  1  0
 11 10  1  0
 11 12  1  1
 12 13  1  0
 13 14  2  0
 13 21  1  0
 14 15  1  0
 15 16  1  0
 16 17  2  0
 17 18  1  0
 19 18  2  0
 20 19  1  0
 21 20  2  0
 21 16  1  0
 22 11  1  0
 23 22  2  0
 25 24  1  0
 25 35  2  0
 26 25  1  0
 27 26  2  0
 27 28  1  0
 28 34  2  0
 29 28  1  0
 30 29  1  1
 30 31  1  0
 31 22  1  0
 32 33  1  0
 32 30  1  0
 34 35  1  0
 36 32  2  0
M  END
$$$$
