QWY.pdb
     RDKit          3D

 36 38  0  0  1  0  0  0  0  0999 V2000
    7.7061  -12.6631   16.5615 N   0  0  0  0  0  0  0  0  0  0  0  0
    7.8661  -14.0354   16.2727 C   0  0  0  0  0  0  0  0  0  0  0  0
    7.9698  -14.4317   15.0968 O   0  0  0  0  0  0  0  0  0  0  0  0
    7.9102  -15.0064   17.3822 C   0  0  0  0  0  0  0  0  0  0  0  0
    8.7440  -14.5258   18.5358 C   0  0  0  0  0  0  0  0  0  0  0  0
    9.2240  -15.7214   19.3280 C   0  0  2  0  0  0  0  0  0  0  0  0
    8.2064  -16.7642   19.2609 N   0  0  0  0  0  0  0  0  0  0  0  0
    9.4108  -15.3888   20.7649 C   0  0  0  0  0  0  0  0  0  0  0  0
   10.2061  -14.4646   21.1474 O   0  0  0  0  0  0  0  0  0  0  0  0
    8.7126  -16.0829   21.7932 N   0  0  0  0  0  0  0  0  0  0  0  0
    8.6968  -15.6799   23.1767 C   0  0  1  0  0  0  0  0  0  0  0  0
    7.5256  -16.1905   23.9191 C   0  0  0  0  0  0  0  0  0  0  0  0
    6.8258  -15.2899   24.8145 C   0  0  0  0  0  0  0  0  0  0  0  0
    5.7850  -15.5702   25.6930 C   0  0  0  0  0  0  0  0  0  0  0  0
    5.4250  -14.4356   26.3165 N   0  0  0  0  0  0  0  0  0  0  0  0
    6.1914  -13.4322   25.8772 C   0  0  0  0  0  0  0  0  0  0  0  0
    6.2038  -12.0882   26.2238 C   0  0  0  0  0  0  0  0  0  0  0  0
    7.0873  -11.2116   25.6542 C   0  0  0  0  0  0  0  0  0  0  0  0
    7.9731  -11.6844   24.7237 C   0  0  0  0  0  0  0  0  0  0  0  0
    7.9474  -13.0226   24.3905 C   0  0  0  0  0  0  0  0  0  0  0  0
    7.0770  -13.9435   24.9356 C   0  0  0  0  0  0  0  0  0  0  0  0
   10.0012  -15.9002   23.8394 C   0  0  0  0  0  0  0  0  0  0  0  0
   10.7606  -16.7917   23.3866 O   0  0  0  0  0  0  0  0  0  0  0  0
   12.3493  -17.7122   32.0636 O   0  0  0  0  0  0  0  0  0  0  0  0
   12.0198  -17.0472   30.8881 C   0  0  0  0  0  0  0  0  0  0  0  0
   12.9688  -16.4240   30.0974 C   0  0  0  0  0  0  0  0  0  0  0  0
   12.6337  -15.7625   28.9262 C   0  0  0  0  0  0  0  0  0  0  0  0
   11.3268  -15.7105   28.5175 C   0  0  0  0  0  0  0  0  0  0  0  0
   10.8698  -15.0336   27.2954 C   0  0  0  0  0  0  0  0  0  0  0  0
   11.2578  -15.7475   26.0239 C   0  0  2  0  0  0  0  0  0  0  0  0
   10.4593  -15.1666   24.9623 N   0  0  0  0  0  0  0  0  0  0  0  0
   11.1330  -17.2035   26.0845 C   0  0  0  0  0  0  0  0  0  0  0  0
    9.8731  -17.7812   26.0469 O   0  0  0  0  0  0  0  0  0  0  0  0
   10.3669  -16.3375   29.3118 C   0  0  0  0  0  0  0  0  0  0  0  0
   10.6978  -16.9941   30.4739 C   0  0  0  0  0  0  0  0  0  0  0  0
   12.1227  -17.9693   26.1701 O   0  0  0  0  0  0  0  0  0  0  0  0
  2  1  1  0
  3  2  2  0
  4  2  1  0
  5  4  1  0
  6  5  1  0
  6  7  1  1
  8  6  1  0
  8  9  2  0
 10  8  1  0
 11 10  1  0
 11 12  1  1
 12 13  1  0
 13 14  2  0
 13 21  1  0
 14 15  1  0
 15 16  1  0
 16 17  2  0
 17 18  1  0
 19 18  2  0
 20 19  1  0
 21 20  2  0
 21 16  1  0
 22 11  1  0
 23 22  2  0
 25 24  1  0
 25 35  2  0
 26 25  1  0
 27 26  2  0
 27 28  1  0
 28 34  2  0
 29 28  1  0
 30 29  1  1
 30 31  1  0
 31 22  1  0
 32 33  1  0
 32 30  1  0
 34 35  1  0
 36 32  2  0
M  END
$$$$
