QWY.pdb
     RDKit          3D

 36 38  0  0  1  0  0  0  0  0999 V2000
   12.3332  -21.3710   18.3015 N   0  0  0  0  0  0  0  0  0  0  0  0
   12.2018  -20.4540   17.2365 C   0  0  0  0  0  0  0  0  0  0  0  0
   12.9300  -20.5371   16.2299 O   0  0  0  0  0  0  0  0  0  0  0  0
   11.1873  -19.3867   17.3238 C   0  0  0  0  0  0  0  0  0  0  0  0
   10.7122  -19.1570   18.7303 C   0  0  0  0  0  0  0  0  0  0  0  0
    9.6232  -18.1076   18.7169 C   0  0  2  0  0  0  0  0  0  0  0  0
    9.7863  -17.2818   17.5256 N   0  0  0  0  0  0  0  0  0  0  0  0
    9.7204  -17.2004   19.8906 C   0  0  0  0  0  0  0  0  0  0  0  0
   10.7052  -16.4014   20.0483 O   0  0  0  0  0  0  0  0  0  0  0  0
    8.7202  -17.1731   20.9034 N   0  0  0  0  0  0  0  0  0  0  0  0
    8.8734  -16.5149   22.1762 C   0  0  1  0  0  0  0  0  0  0  0  0
    7.6116  -15.9459   22.6936 C   0  0  0  0  0  0  0  0  0  0  0  0
    7.6086  -14.5713   23.1552 C   0  0  0  0  0  0  0  0  0  0  0  0
    8.0712  -13.4332   22.5039 C   0  0  0  0  0  0  0  0  0  0  0  0
    7.8890  -12.3697   23.3048 N   0  0  0  0  0  0  0  0  0  0  0  0
    7.3267  -12.7738   24.4483 C   0  0  0  0  0  0  0  0  0  0  0  0
    6.9440  -12.0513   25.5700 C   0  0  0  0  0  0  0  0  0  0  0  0
    6.3686  -12.6621   26.6513 C   0  0  0  0  0  0  0  0  0  0  0  0
    6.1717  -14.0163   26.6122 C   0  0  0  0  0  0  0  0  0  0  0  0
    6.5578  -14.7194   25.4902 C   0  0  0  0  0  0  0  0  0  0  0  0
    7.1412  -14.1497   24.3776 C   0  0  0  0  0  0  0  0  0  0  0  0
    9.6313  -17.3374   23.1448 C   0  0  0  0  0  0  0  0  0  0  0  0
    9.1378  -18.4296   23.5191 O   0  0  0  0  0  0  0  0  0  0  0  0
   10.5354  -14.6433   31.0643 O   0  0  0  0  0  0  0  0  0  0  0  0
   10.5347  -14.8017   29.6831 C   0  0  0  0  0  0  0  0  0  0  0  0
   10.2638  -13.7574   28.8169 C   0  0  0  0  0  0  0  0  0  0  0  0
   10.2646  -13.9219   27.4405 C   0  0  0  0  0  0  0  0  0  0  0  0
   10.5395  -15.1491   26.8964 C   0  0  0  0  0  0  0  0  0  0  0  0
   10.5627  -15.4263   25.4531 C   0  0  0  0  0  0  0  0  0  0  0  0
   11.1245  -16.7824   25.1035 C   0  0  2  0  0  0  0  0  0  0  0  0
   10.8902  -16.9751   23.6858 N   0  0  0  0  0  0  0  0  0  0  0  0
   10.5988  -17.8824   25.9115 C   0  0  0  0  0  0  0  0  0  0  0  0
   11.4300  -18.5156   26.8229 O   0  0  0  0  0  0  0  0  0  0  0  0
   10.8130  -16.2046   27.7662 C   0  0  0  0  0  0  0  0  0  0  0  0
   10.8126  -16.0429   29.1318 C   0  0  0  0  0  0  0  0  0  0  0  0
    9.4157  -18.2893   25.8213 O   0  0  0  0  0  0  0  0  0  0  0  0
  2  1  1  0
  3  2  2  0
  4  2  1  0
  5  4  1  0
  6  5  1  0
  6  7  1  6
  8  6  1  0
  8  9  2  0
 10  8  1  0
 11 10  1  0
 11 12  1  1
 12 13  1  0
 13 14  2  0
 13 21  1  0
 14 15  1  0
 15 16  1  0
 16 17  2  0
 17 18  1  0
 19 18  2  0
 20 19  1  0
 21 20  2  0
 21 16  1  0
 22 11  1  0
 23 22  2  0
 25 24  1  0
 25 35  2  0
 26 25  1  0
 27 26  2  0
 27 28  1  0
 28 34  2  0
 29 28  1  0
 30 29  1  1
 30 31  1  0
 31 22  1  0
 32 33  1  0
 32 30  1  0
 34 35  1  0
 36 32  2  0
M  END
$$$$
