QWY.pdb
     RDKit          3D

 36 38  0  0  1  0  0  0  0  0999 V2000
    8.4007  -12.2904   18.1764 N   0  0  0  0  0  0  0  0  0  0  0  0
    8.1207  -13.4605   17.4383 C   0  0  0  0  0  0  0  0  0  0  0  0
    8.0310  -13.4251   16.1969 O   0  0  0  0  0  0  0  0  0  0  0  0
    7.9331  -14.7373   18.1528 C   0  0  0  0  0  0  0  0  0  0  0  0
    8.0931  -14.5944   19.6397 C   0  0  0  0  0  0  0  0  0  0  0  0
    8.5801  -15.9074   20.2108 C   0  0  2  0  0  0  0  0  0  0  0  0
    7.4254  -16.7605   20.4687 N   0  0  0  0  0  0  0  0  0  0  0  0
    9.2774  -15.7162   21.5098 C   0  0  0  0  0  0  0  0  0  0  0  0
   10.3766  -15.0704   21.5988 O   0  0  0  0  0  0  0  0  0  0  0  0
    8.7574  -16.2429   22.7259 N   0  0  0  0  0  0  0  0  0  0  0  0
    9.3128  -15.9750   24.0283 C   0  0  1  0  0  0  0  0  0  0  0  0
    8.3486  -16.1868   25.1279 C   0  0  0  0  0  0  0  0  0  0  0  0
    7.2822  -15.2214   25.3106 C   0  0  0  0  0  0  0  0  0  0  0  0
    5.9086  -15.4117   25.2090 C   0  0  0  0  0  0  0  0  0  0  0  0
    5.2893  -14.2417   25.4399 N   0  0  0  0  0  0  0  0  0  0  0  0
    6.2071  -13.3018   25.6875 C   0  0  0  0  0  0  0  0  0  0  0  0
    6.0604  -11.9540   25.9849 C   0  0  0  0  0  0  0  0  0  0  0  0
    7.1445  -11.1513   26.2166 C   0  0  0  0  0  0  0  0  0  0  0  0
    8.3956  -11.7031   26.1506 C   0  0  0  0  0  0  0  0  0  0  0  0
    8.5240  -13.0439   25.8538 C   0  0  0  0  0  0  0  0  0  0  0  0
    7.4634  -13.8922   25.6123 C   0  0  0  0  0  0  0  0  0  0  0  0
   10.6301  -16.6209   24.2194 C   0  0  0  0  0  0  0  0  0  0  0  0
   10.8990  -17.6450   23.5447 O   0  0  0  0  0  0  0  0  0  0  0  0
   19.2534  -17.4837   26.1720 O   0  0  0  0  0  0  0  0  0  0  0  0
   17.9517  -17.0592   25.9310 C   0  0  0  0  0  0  0  0  0  0  0  0
   17.3343  -17.2202   24.7034 C   0  0  0  0  0  0  0  0  0  0  0  0
   16.0359  -16.7947   24.4695 C   0  0  0  0  0  0  0  0  0  0  0  0
   15.3205  -16.1922   25.4709 C   0  0  0  0  0  0  0  0  0  0  0  0
   13.9417  -15.7050   25.3229 C   0  0  0  0  0  0  0  0  0  0  0  0
   12.9086  -16.8044   25.2914 C   0  0  2  0  0  0  0  0  0  0  0  0
   11.6216  -16.1590   25.1208 N   0  0  0  0  0  0  0  0  0  0  0  0
   12.9375  -17.6962   26.4503 C   0  0  0  0  0  0  0  0  0  0  0  0
   13.8877  -18.7040   26.5105 O   0  0  0  0  0  0  0  0  0  0  0  0
   15.9393  -16.0279   26.7100 C   0  0  0  0  0  0  0  0  0  0  0  0
   17.2272  -16.4496   26.9436 C   0  0  0  0  0  0  0  0  0  0  0  0
   12.1342  -17.5948   27.4083 O   0  0  0  0  0  0  0  0  0  0  0  0
  2  1  1  0
  3  2  2  0
  4  2  1  0
  5  4  1  0
  6  5  1  0
  6  7  1  1
  8  6  1  0
  8  9  2  0
 10  8  1  0
 11 10  1  0
 11 12  1  1
 12 13  1  0
 13 14  2  0
 13 21  1  0
 14 15  1  0
 15 16  1  0
 16 17  2  0
 17 18  1  0
 19 18  2  0
 20 19  1  0
 21 20  2  0
 21 16  1  0
 22 11  1  0
 23 22  2  0
 25 24  1  0
 25 35  2  0
 26 25  1  0
 27 26  2  0
 27 28  1  0
 28 34  2  0
 29 28  1  0
 30 29  1  1
 30 31  1  0
 31 22  1  0
 32 33  1  0
 32 30  1  0
 34 35  1  0
 36 32  2  0
M  END
$$$$
