QWY.pdb
     RDKit          3D

 36 38  0  0  1  0  0  0  0  0999 V2000
   13.0307  -16.7060   17.4050 N   0  0  0  0  0  0  0  0  0  0  0  0
   11.7724  -16.1719   17.7568 C   0  0  0  0  0  0  0  0  0  0  0  0
   11.4192  -15.0499   17.3486 O   0  0  0  0  0  0  0  0  0  0  0  0
   10.8699  -16.9581   18.6190 C   0  0  0  0  0  0  0  0  0  0  0  0
   11.0929  -16.6922   20.0807 C   0  0  0  0  0  0  0  0  0  0  0  0
   10.1283  -17.5332   20.8867 C   0  0  2  0  0  0  0  0  0  0  0  0
    8.8118  -17.4592   20.2632 N   0  0  0  0  0  0  0  0  0  0  0  0
    9.9807  -17.0211   22.2746 C   0  0  0  0  0  0  0  0  0  0  0  0
   10.9148  -16.3745   22.8599 O   0  0  0  0  0  0  0  0  0  0  0  0
    8.7893  -17.2237   23.0271 N   0  0  0  0  0  0  0  0  0  0  0  0
    8.6781  -16.9962   24.4457 C   0  0  1  0  0  0  0  0  0  0  0  0
    7.2813  -16.9940   24.9278 C   0  0  0  0  0  0  0  0  0  0  0  0
    6.6676  -15.7255   25.2695 C   0  0  0  0  0  0  0  0  0  0  0  0
    5.3578  -15.4688   25.6592 C   0  0  0  0  0  0  0  0  0  0  0  0
    5.2154  -14.1481   25.8620 N   0  0  0  0  0  0  0  0  0  0  0  0
    6.3807  -13.5396   25.6194 C   0  0  0  0  0  0  0  0  0  0  0  0
    6.7315  -12.1988   25.6966 C   0  0  0  0  0  0  0  0  0  0  0  0
    8.0009  -11.7747   25.4101 C   0  0  0  0  0  0  0  0  0  0  0  0
    8.9356  -12.7042   25.0407 C   0  0  0  0  0  0  0  0  0  0  0  0
    8.5707  -14.0323   24.9687 C   0  0  0  0  0  0  0  0  0  0  0  0
    7.3060  -14.5078   25.2468 C   0  0  0  0  0  0  0  0  0  0  0  0
    9.6063  -17.8457   25.2240 C   0  0  0  0  0  0  0  0  0  0  0  0
   10.2441  -18.7442   24.6220 O   0  0  0  0  0  0  0  0  0  0  0  0
   16.0612  -17.7542   22.9939 O   0  0  0  0  0  0  0  0  0  0  0  0
   15.0117  -17.4389   23.8494 C   0  0  0  0  0  0  0  0  0  0  0  0
   14.6490  -18.2511   24.9091 C   0  0  0  0  0  0  0  0  0  0  0  0
   13.6013  -17.9311   25.7586 C   0  0  0  0  0  0  0  0  0  0  0  0
   12.8868  -16.7784   25.5626 C   0  0  0  0  0  0  0  0  0  0  0  0
   11.7598  -16.3520   26.4044 C   0  0  0  0  0  0  0  0  0  0  0  0
   11.1356  -17.4734   27.1981 C   0  0  2  0  0  0  0  0  0  0  0  0
    9.8291  -17.7147   26.6176 N   0  0  0  0  0  0  0  0  0  0  0  0
   11.0711  -17.2325   28.6393 C   0  0  0  0  0  0  0  0  0  0  0  0
   12.1394  -17.6052   29.4405 O   0  0  0  0  0  0  0  0  0  0  0  0
   13.2491  -15.9568   24.4954 C   0  0  0  0  0  0  0  0  0  0  0  0
   14.2882  -16.2730   23.6518 C   0  0  0  0  0  0  0  0  0  0  0  0
   10.0832  -16.6974   29.1971 O   0  0  0  0  0  0  0  0  0  0  0  0
  2  1  1  0
  3  2  2  0
  4  2  1  0
  5  4  1  0
  6  5  1  0
  6  7  1  6
  8  6  1  0
  8  9  2  0
 10  8  1  0
 11 10  1  0
 11 12  1  1
 12 13  1  0
 13 14  2  0
 13 21  1  0
 14 15  1  0
 15 16  1  0
 16 17  2  0
 17 18  1  0
 19 18  2  0
 20 19  1  0
 21 20  2  0
 21 16  1  0
 22 11  1  0
 23 22  2  0
 25 24  1  0
 25 35  2  0
 26 25  1  0
 27 26  2  0
 27 28  1  0
 28 34  2  0
 29 28  1  0
 30 29  1  6
 30 31  1  0
 31 22  1  0
 32 33  1  0
 32 30  1  0
 34 35  1  0
 36 32  2  0
M  END
$$$$
