QWY.pdb
     RDKit          3D

 36 38  0  0  1  0  0  0  0  0999 V2000
    7.7031  -12.2133   17.5657 N   0  0  0  0  0  0  0  0  0  0  0  0
    7.5717  -13.4088   16.8269 C   0  0  0  0  0  0  0  0  0  0  0  0
    7.4891  -13.3849   15.5847 O   0  0  0  0  0  0  0  0  0  0  0  0
    7.5326  -14.6986   17.5416 C   0  0  0  0  0  0  0  0  0  0  0  0
    7.5592  -14.5313   19.0343 C   0  0  0  0  0  0  0  0  0  0  0  0
    8.2340  -15.7353   19.6527 C   0  0  2  0  0  0  0  0  0  0  0  0
    7.2111  -16.7145   20.0027 N   0  0  0  0  0  0  0  0  0  0  0  0
    8.9443  -15.3812   20.9098 C   0  0  0  0  0  0  0  0  0  0  0  0
    9.8679  -14.4985   20.9392 O   0  0  0  0  0  0  0  0  0  0  0  0
    8.6332  -16.0072   22.1500 N   0  0  0  0  0  0  0  0  0  0  0  0
    9.4871  -15.9761   23.3103 C   0  0  1  0  0  0  0  0  0  0  0  0
    8.8111  -16.4289   24.5438 C   0  0  0  0  0  0  0  0  0  0  0  0
    7.6397  -15.7051   24.9981 C   0  0  0  0  0  0  0  0  0  0  0  0
    6.3774  -16.1987   25.3086 C   0  0  0  0  0  0  0  0  0  0  0  0
    5.5871  -15.1743   25.6716 N   0  0  0  0  0  0  0  0  0  0  0  0
    6.2875  -14.0373   25.6088 C   0  0  0  0  0  0  0  0  0  0  0  0
    5.9136  -12.7308   25.8912 C   0  0  0  0  0  0  0  0  0  0  0  0
    6.7970  -11.6925   25.7693 C   0  0  0  0  0  0  0  0  0  0  0  0
    8.0748  -11.9629   25.3589 C   0  0  0  0  0  0  0  0  0  0  0  0
    8.4301  -13.2665   25.0821 C   0  0  0  0  0  0  0  0  0  0  0  0
    7.5766  -14.3449   25.1894 C   0  0  0  0  0  0  0  0  0  0  0  0
   10.8036  -16.6008   23.0541 C   0  0  0  0  0  0  0  0  0  0  0  0
   10.8707  -17.5370   22.2201 O   0  0  0  0  0  0  0  0  0  0  0  0
   10.8593  -16.5967   31.4192 O   0  0  0  0  0  0  0  0  0  0  0  0
   11.0013  -16.3683   30.0553 C   0  0  0  0  0  0  0  0  0  0  0  0
   11.6669  -17.2488   29.2211 C   0  0  0  0  0  0  0  0  0  0  0  0
   11.8051  -17.0152   27.8617 C   0  0  0  0  0  0  0  0  0  0  0  0
   11.2741  -15.8824   27.3028 C   0  0  0  0  0  0  0  0  0  0  0  0
   11.3685  -15.5431   25.8757 C   0  0  0  0  0  0  0  0  0  0  0  0
   12.2841  -16.4528   25.0939 C   0  0  2  0  0  0  0  0  0  0  0  0
   12.0086  -16.2119   23.6911 N   0  0  0  0  0  0  0  0  0  0  0  0
   12.1796  -17.8678   25.4491 C   0  0  0  0  0  0  0  0  0  0  0  0
   13.2790  -18.5173   25.9893 O   0  0  0  0  0  0  0  0  0  0  0  0
   10.6023  -14.9921   28.1403 C   0  0  0  0  0  0  0  0  0  0  0  0
   10.4644  -15.2224   29.4889 C   0  0  0  0  0  0  0  0  0  0  0  0
   11.1298  -18.5352   25.2877 O   0  0  0  0  0  0  0  0  0  0  0  0
  2  1  1  0
  3  2  2  0
  4  2  1  0
  5  4  1  0
  6  5  1  0
  6  7  1  1
  8  6  1  0
  8  9  2  0
 10  8  1  0
 11 10  1  0
 11 12  1  1
 12 13  1  0
 13 14  2  0
 13 21  1  0
 14 15  1  0
 15 16  1  0
 16 17  2  0
 17 18  1  0
 19 18  2  0
 20 19  1  0
 21 20  2  0
 21 16  1  0
 22 11  1  0
 23 22  2  0
 25 24  1  0
 25 35  2  0
 26 25  1  0
 27 26  2  0
 27 28  1  0
 28 34  2  0
 29 28  1  0
 30 29  1  1
 30 31  1  0
 31 22  1  0
 32 33  1  0
 32 30  1  0
 34 35  1  0
 36 32  2  0
M  END
$$$$
