QWY.pdb
     RDKit          3D

 36 38  0  0  1  0  0  0  0  0999 V2000
    8.3799  -13.5939   15.5964 N   0  0  0  0  0  0  0  0  0  0  0  0
    7.8678  -14.8843   15.8508 C   0  0  0  0  0  0  0  0  0  0  0  0
    6.9373  -15.3477   15.1653 O   0  0  0  0  0  0  0  0  0  0  0  0
    8.4467  -15.6883   16.9437 C   0  0  0  0  0  0  0  0  0  0  0  0
    9.5408  -14.9636   17.6750 C   0  0  0  0  0  0  0  0  0  0  0  0
    9.9721  -15.7935   18.8635 C   0  0  2  0  0  0  0  0  0  0  0  0
    9.1857  -17.0219   18.8843 N   0  0  0  0  0  0  0  0  0  0  0  0
    9.7127  -15.0903   20.1474 C   0  0  0  0  0  0  0  0  0  0  0  0
   10.3169  -14.0085   20.4601 O   0  0  0  0  0  0  0  0  0  0  0  0
    8.7761  -15.5848   21.0986 N   0  0  0  0  0  0  0  0  0  0  0  0
    8.5190  -14.9719   22.3772 C   0  0  1  0  0  0  0  0  0  0  0  0
    7.1891  -15.3070   22.9273 C   0  0  0  0  0  0  0  0  0  0  0  0
    6.8410  -14.8173   24.2469 C   0  0  0  0  0  0  0  0  0  0  0  0
    6.3895  -15.5330   25.3502 C   0  0  0  0  0  0  0  0  0  0  0  0
    6.1715  -14.6780   26.3637 N   0  0  0  0  0  0  0  0  0  0  0  0
    6.4643  -13.4374   25.9607 C   0  0  0  0  0  0  0  0  0  0  0  0
    6.4066  -12.2301   26.6431 C   0  0  0  0  0  0  0  0  0  0  0  0
    6.7626  -11.0525   26.0432 C   0  0  0  0  0  0  0  0  0  0  0  0
    7.1834  -11.0806   24.7407 C   0  0  0  0  0  0  0  0  0  0  0  0
    7.2347  -12.2885   24.0769 C   0  0  0  0  0  0  0  0  0  0  0  0
    6.8863  -13.4997   24.6376 C   0  0  0  0  0  0  0  0  0  0  0  0
    9.6466  -15.1462   23.3191 C   0  0  0  0  0  0  0  0  0  0  0  0
   10.2688  -14.1260   23.7044 O   0  0  0  0  0  0  0  0  0  0  0  0
   11.3276  -16.5195   31.5402 O   0  0  0  0  0  0  0  0  0  0  0  0
   10.9164  -16.4496   30.2141 C   0  0  0  0  0  0  0  0  0  0  0  0
   10.5943  -17.5753   29.4770 C   0  0  0  0  0  0  0  0  0  0  0  0
   10.1849  -17.4988   28.1548 C   0  0  0  0  0  0  0  0  0  0  0  0
   10.0885  -16.2801   27.5359 C   0  0  0  0  0  0  0  0  0  0  0  0
    9.6672  -16.0935   26.1401 C   0  0  0  0  0  0  0  0  0  0  0  0
   10.6833  -16.5674   25.1301 C   0  0  2  0  0  0  0  0  0  0  0  0
   10.0785  -16.3984   23.8233 N   0  0  0  0  0  0  0  0  0  0  0  0
   11.1663  -17.9302   25.3505 C   0  0  0  0  0  0  0  0  0  0  0  0
   12.4242  -18.1264   25.8996 O   0  0  0  0  0  0  0  0  0  0  0  0
   10.4123  -15.1427   28.2754 C   0  0  0  0  0  0  0  0  0  0  0  0
   10.8186  -15.2170   29.5871 C   0  0  0  0  0  0  0  0  0  0  0  0
   10.4906  -18.9474   25.0639 O   0  0  0  0  0  0  0  0  0  0  0  0
  2  1  1  0
  3  2  2  0
  4  2  1  0
  5  4  1  0
  6  5  1  0
  6  7  1  1
  8  6  1  0
  8  9  2  0
 10  8  1  0
 11 10  1  0
 11 12  1  1
 12 13  1  0
 13 14  2  0
 13 21  1  0
 14 15  1  0
 15 16  1  0
 16 17  2  0
 17 18  1  0
 19 18  2  0
 20 19  1  0
 21 20  2  0
 21 16  1  0
 22 11  1  0
 23 22  2  0
 25 24  1  0
 25 35  2  0
 26 25  1  0
 27 26  2  0
 27 28  1  0
 28 34  2  0
 29 28  1  0
 30 29  1  1
 30 31  1  0
 31 22  1  0
 32 33  1  0
 32 30  1  0
 34 35  1  0
 36 32  2  0
M  END
$$$$
