YNC.pdb
     RDKit          3D

 27 27  0  0  1  0  0  0  0  0999 V2000
   25.1435  -11.9893  -16.1666 O   0  0  0  0  0  0  0  0  0  0  0  0
   24.1284  -11.1068  -15.7919 C   0  0  0  0  0  0  0  0  0  0  0  0
   23.9367  -10.7744  -14.4732 C   0  0  0  0  0  0  0  0  0  0  0  0
   22.9264   -9.9000  -14.1309 C   0  0  0  0  0  0  0  0  0  0  0  0
   22.0898   -9.3379  -15.0675 C   0  0  0  0  0  0  0  0  0  0  0  0
   21.0036   -8.3999  -14.7235 C   0  0  0  0  0  0  0  0  0  0  0  0
   19.9561   -9.1608  -13.9385 C   0  0  2  0  0  0  0  0  0  0  0  0
   19.3885  -10.1741  -14.8062 N   0  0  0  0  0  0  0  0  0  0  0  0
   18.8507   -8.2739  -13.4993 C   0  0  0  0  0  0  0  0  0  0  0  0
   17.8108   -8.1125  -14.2234 O   0  0  0  0  0  0  0  0  0  0  0  0
   22.2832   -9.6712  -16.3825 C   0  0  0  0  0  0  0  0  0  0  0  0
   23.3044  -10.5558  -16.7339 C   0  0  0  0  0  0  0  0  0  0  0  0
   15.7628   -5.2401  -10.3833 N   0  0  0  0  0  0  0  0  0  0  0  0
   16.7081   -6.0197   -9.6651 C   0  0  0  0  0  0  0  0  0  0  0  0
   16.6459   -6.0074   -8.4199 O   0  0  0  0  0  0  0  0  0  0  0  0
   17.7062   -6.7985  -10.3701 C   0  0  0  0  0  0  0  0  0  0  0  0
   17.7699   -6.6766  -11.8475 C   0  0  2  0  0  0  0  0  0  0  0  0
   18.8591   -7.5607  -12.2865 N   0  0  0  0  0  0  0  0  0  0  0  0
   18.0324   -5.3617  -12.4048 C   0  0  0  0  0  0  0  0  0  0  0  0
   19.1338   -4.7946  -12.2498 O   0  0  0  0  0  0  0  0  0  0  0  0
   17.0587   -4.6337  -13.1611 N   0  0  0  0  0  0  0  0  0  0  0  0
   17.3109   -3.3103  -13.6695 C   0  0  1  0  0  0  0  0  0  0  0  0
   17.1806   -3.3581  -15.1783 C   0  0  0  0  0  0  0  0  0  0  0  0
   18.4568   -4.4211  -15.9129 S   0  0  0  0  0  0  0  0  0  0  0  0
   16.4229   -2.2921  -13.0831 C   0  0  0  0  0  0  0  0  0  0  0  0
   15.4008   -2.5976  -12.4310 O   0  0  0  0  0  0  0  0  0  0  0  0
   16.7225   -0.9559  -13.2546 O   0  0  0  0  0  0  0  0  0  0  0  0
  1  2  1  0
  2 12  2  0
  3  4  2  0
  3  2  1  0
  4  5  1  0
  5  6  1  0
  5 11  2  0
  6  7  1  0
  7  8  1  6
  7  9  1  0
  9 10  2  0
 12 11  1  0
 13 14  1  0
 14 15  2  0
 16 14  1  0
 17 16  1  1
 17 19  1  0
 18  9  1  0
 18 17  1  0
 19 21  1  0
 20 19  2  0
 21 22  1  0
 22 25  1  0
 23 24  1  0
 22 23  1  6
 25 26  2  0
 25 27  1  0
M  END
$$$$
