YNC.pdb
     RDKit          3D

 27 27  0  0  1  0  0  0  0  0999 V2000
   28.3005  -19.3501   -4.2902 O   0  0  0  0  0  0  0  0  0  0  0  0
   28.2461  -19.6236   -5.6584 C   0  0  0  0  0  0  0  0  0  0  0  0
   29.1775  -20.4417   -6.2497 C   0  0  0  0  0  0  0  0  0  0  0  0
   29.1001  -20.6951   -7.6033 C   0  0  0  0  0  0  0  0  0  0  0  0
   28.1155  -20.1557   -8.3987 C   0  0  0  0  0  0  0  0  0  0  0  0
   28.0136  -20.4142   -9.8482 C   0  0  0  0  0  0  0  0  0  0  0  0
   26.5750  -20.1930  -10.2653 C   0  0  2  0  0  0  0  0  0  0  0  0
   25.7897  -21.3167   -9.7936 N   0  0  0  0  0  0  0  0  0  0  0  0
   26.4366  -20.1352  -11.7414 C   0  0  0  0  0  0  0  0  0  0  0  0
   27.2844  -19.5013  -12.4564 O   0  0  0  0  0  0  0  0  0  0  0  0
   27.1876  -19.3399   -7.8062 C   0  0  0  0  0  0  0  0  0  0  0  0
   27.2616  -19.0803   -6.4366 C   0  0  0  0  0  0  0  0  0  0  0  0
   26.8889  -22.7197  -15.2186 N   0  0  0  0  0  0  0  0  0  0  0  0
   25.5402  -23.0345  -14.9038 C   0  0  0  0  0  0  0  0  0  0  0  0
   25.1351  -24.1843  -15.1652 O   0  0  0  0  0  0  0  0  0  0  0  0
   24.6754  -22.0415  -14.2989 C   0  0  0  0  0  0  0  0  0  0  0  0
   25.2718  -20.7381  -13.9157 C   0  0  2  0  0  0  0  0  0  0  0  0
   25.3918  -20.7554  -12.4508 N   0  0  0  0  0  0  0  0  0  0  0  0
   24.5450  -19.5329  -14.2733 C   0  0  0  0  0  0  0  0  0  0  0  0
   23.4565  -19.2428  -13.7351 O   0  0  0  0  0  0  0  0  0  0  0  0
   25.0202  -18.6057  -15.2553 N   0  0  0  0  0  0  0  0  0  0  0  0
   24.3562  -17.3554  -15.5188 C   0  0  1  0  0  0  0  0  0  0  0  0
   25.4206  -16.3011  -15.7450 C   0  0  0  0  0  0  0  0  0  0  0  0
   27.0534  -16.8941  -15.2153 S   0  0  0  0  0  0  0  0  0  0  0  0
   23.4214  -17.4311  -16.6544 C   0  0  0  0  0  0  0  0  0  0  0  0
   23.4643  -18.3603  -17.4899 O   0  0  0  0  0  0  0  0  0  0  0  0
   22.4647  -16.4482  -16.8076 O   0  0  0  0  0  0  0  0  0  0  0  0
  1  2  1  0
  2 12  2  0
  3  4  2  0
  3  2  1  0
  4  5  1  0
  5  6  1  0
  5 11  2  0
  6  7  1  0
  7  8  1  6
  7  9  1  0
  9 10  2  0
 12 11  1  0
 13 14  1  0
 14 15  2  0
 16 14  1  0
 17 16  1  1
 17 19  1  0
 18  9  1  0
 18 17  1  0
 19 21  1  0
 20 19  2  0
 21 22  1  0
 22 25  1  0
 23 24  1  0
 22 23  1  6
 25 26  2  0
 25 27  1  0
M  END
$$$$
