YNC.pdb
     RDKit          3D

 27 27  0  0  1  0  0  0  0  0999 V2000
   24.4645  -14.5345  -21.1915 O   0  0  0  0  0  0  0  0  0  0  0  0
   23.8849  -13.6594  -20.2707 C   0  0  0  0  0  0  0  0  0  0  0  0
   23.9096  -12.3021  -20.4785 C   0  0  0  0  0  0  0  0  0  0  0  0
   23.3293  -11.4605  -19.5526 C   0  0  0  0  0  0  0  0  0  0  0  0
   22.7175  -11.9289  -18.4127 C   0  0  0  0  0  0  0  0  0  0  0  0
   22.0899  -11.0466  -17.4097 C   0  0  0  0  0  0  0  0  0  0  0  0
   23.1835  -10.2363  -16.7463 C   0  0  2  0  0  0  0  0  0  0  0  0
   24.0076  -11.1405  -15.9686 N   0  0  0  0  0  0  0  0  0  0  0  0
   22.6257   -9.2234  -15.8166 C   0  0  0  0  0  0  0  0  0  0  0  0
   22.2620   -9.5458  -14.6352 O   0  0  0  0  0  0  0  0  0  0  0  0
   22.6943  -13.2836  -18.2078 C   0  0  0  0  0  0  0  0  0  0  0  0
   23.2803  -14.1395  -19.1420 C   0  0  0  0  0  0  0  0  0  0  0  0
   22.3771   -3.2794  -14.9090 N   0  0  0  0  0  0  0  0  0  0  0  0
   22.3758   -4.5951  -14.3742 C   0  0  0  0  0  0  0  0  0  0  0  0
   22.0421   -4.7376  -13.1813 O   0  0  0  0  0  0  0  0  0  0  0  0
   22.7523   -5.7248  -15.1998 C   0  0  0  0  0  0  0  0  0  0  0  0
   21.8210   -6.8777  -15.2706 C   0  0  2  0  0  0  0  0  0  0  0  0
   22.4577   -7.8673  -16.1516 N   0  0  0  0  0  0  0  0  0  0  0  0
   20.4866   -6.6357  -15.7894 C   0  0  0  0  0  0  0  0  0  0  0  0
   20.2903   -6.3890  -16.9974 O   0  0  0  0  0  0  0  0  0  0  0  0
   19.3183   -6.6629  -14.9621 N   0  0  0  0  0  0  0  0  0  0  0  0
   18.0195   -6.2787  -15.4511 C   0  0  1  0  0  0  0  0  0  0  0  0
   17.0470   -7.3906  -15.1138 C   0  0  0  0  0  0  0  0  0  0  0  0
   17.4250   -8.8988  -16.0522 S   0  0  0  0  0  0  0  0  0  0  0  0
   17.5656   -4.9838  -14.9159 C   0  0  0  0  0  0  0  0  0  0  0  0
   16.4409   -4.5098  -15.1873 O   0  0  0  0  0  0  0  0  0  0  0  0
   18.4033   -4.2649  -14.0876 O   0  0  0  0  0  0  0  0  0  0  0  0
  1  2  1  0
  2 12  2  0
  3  4  2  0
  3  2  1  0
  4  5  1  0
  5  6  1  0
  5 11  2  0
  6  7  1  0
  7  8  1  1
  7  9  1  0
  9 10  2  0
 12 11  1  0
 13 14  1  0
 14 15  2  0
 16 14  1  0
 17 16  1  6
 17 19  1  0
 18  9  1  0
 18 17  1  0
 19 21  1  0
 20 19  2  0
 21 22  1  0
 22 25  1  0
 23 24  1  0
 22 23  1  1
 25 26  2  0
 25 27  1  0
M  END
$$$$
