YNC.pdb
     RDKit          3D

 27 27  0  0  1  0  0  0  0  0999 V2000
   20.7185  -18.9378  -25.5995 O   0  0  0  0  0  0  0  0  0  0  0  0
   20.3273  -17.6902  -25.1094 C   0  0  0  0  0  0  0  0  0  0  0  0
   20.6459  -16.5377  -25.7850 C   0  0  0  0  0  0  0  0  0  0  0  0
   20.2469  -15.3185  -25.2782 C   0  0  0  0  0  0  0  0  0  0  0  0
   19.5327  -15.2052  -24.1077 C   0  0  0  0  0  0  0  0  0  0  0  0
   19.0951  -13.9115  -23.5483 C   0  0  0  0  0  0  0  0  0  0  0  0
   20.2176  -13.3661  -22.6910 C   0  0  2  0  0  0  0  0  0  0  0  0
   20.3049  -14.1760  -21.4916 N   0  0  0  0  0  0  0  0  0  0  0  0
   19.9550  -11.9674  -22.2714 C   0  0  0  0  0  0  0  0  0  0  0  0
   19.9511  -11.6418  -21.0362 O   0  0  0  0  0  0  0  0  0  0  0  0
   19.2161  -16.3567  -23.4356 C   0  0  0  0  0  0  0  0  0  0  0  0
   19.6177  -17.5930  -23.9444 C   0  0  0  0  0  0  0  0  0  0  0  0
   19.2910   -7.3428  -20.9193 N   0  0  0  0  0  0  0  0  0  0  0  0
   20.5585   -7.8979  -21.2391 C   0  0  0  0  0  0  0  0  0  0  0  0
   21.5666   -7.3879  -20.7116 O   0  0  0  0  0  0  0  0  0  0  0  0
   20.6611   -9.0200  -22.1503 C   0  0  0  0  0  0  0  0  0  0  0  0
   19.4126   -9.5361  -22.7639 C   0  0  2  0  0  0  0  0  0  0  0  0
   19.6968  -10.9190  -23.1734 N   0  0  0  0  0  0  0  0  0  0  0  0
   18.8963   -8.8402  -23.9290 C   0  0  0  0  0  0  0  0  0  0  0  0
   19.6348   -8.5359  -24.8885 O   0  0  0  0  0  0  0  0  0  0  0  0
   17.5219   -8.4596  -24.0567 N   0  0  0  0  0  0  0  0  0  0  0  0
   17.0311   -7.7144  -25.1868 C   0  0  1  0  0  0  0  0  0  0  0  0
   16.2064   -8.6546  -26.0423 C   0  0  0  0  0  0  0  0  0  0  0  0
   15.2511   -7.7400  -27.2870 S   0  0  0  0  0  0  0  0  0  0  0  0
   16.2588   -6.5228  -24.7960 C   0  0  0  0  0  0  0  0  0  0  0  0
   15.4630   -6.5332  -23.8317 O   0  0  0  0  0  0  0  0  0  0  0  0
   16.4135   -5.3535  -25.5126 O   0  0  0  0  0  0  0  0  0  0  0  0
  1  2  1  0
  2 12  2  0
  3  4  2  0
  3  2  1  0
  4  5  1  0
  5  6  1  0
  5 11  2  0
  6  7  1  0
  7  8  1  1
  7  9  1  0
  9 10  2  0
 12 11  1  0
 13 14  1  0
 14 15  2  0
 16 14  1  0
 17 16  1  6
 17 19  1  0
 18  9  1  0
 18 17  1  0
 19 21  1  0
 20 19  2  0
 21 22  1  0
 22 25  1  0
 23 24  1  0
 22 23  1  1
 25 26  2  0
 25 27  1  0
M  END
$$$$
