YNC.pdb
     RDKit          3D

 27 27  0  0  1  0  0  0  0  0999 V2000
   29.3151  -19.7433   -3.9439 O   0  0  0  0  0  0  0  0  0  0  0  0
   28.9089  -19.7463   -5.2798 C   0  0  0  0  0  0  0  0  0  0  0  0
   29.6062  -20.4575   -6.2254 C   0  0  0  0  0  0  0  0  0  0  0  0
   29.1828  -20.4430   -7.5380 C   0  0  0  0  0  0  0  0  0  0  0  0
   28.0755  -19.7363   -7.9473 C   0  0  0  0  0  0  0  0  0  0  0  0
   27.6047  -19.7077   -9.3457 C   0  0  0  0  0  0  0  0  0  0  0  0
   26.4559  -20.6854   -9.4752 C   0  0  2  0  0  0  0  0  0  0  0  0
   27.0001  -22.0289   -9.4453 N   0  0  0  0  0  0  0  0  0  0  0  0
   25.7389  -20.5189  -10.7635 C   0  0  0  0  0  0  0  0  0  0  0  0
   25.1883  -19.4077  -11.0700 O   0  0  0  0  0  0  0  0  0  0  0  0
   27.3816  -19.0275   -7.0018 C   0  0  0  0  0  0  0  0  0  0  0  0
   27.8061  -19.0390   -5.6720 C   0  0  0  0  0  0  0  0  0  0  0  0
   26.1502  -21.2444  -16.3508 N   0  0  0  0  0  0  0  0  0  0  0  0
   25.4462  -22.0413  -15.4093 C   0  0  0  0  0  0  0  0  0  0  0  0
   24.4845  -22.7180  -15.8237 O   0  0  0  0  0  0  0  0  0  0  0  0
   25.8441  -22.0571  -14.0160 C   0  0  0  0  0  0  0  0  0  0  0  0
   24.9767  -21.3592  -13.0352 C   0  0  2  0  0  0  0  0  0  0  0  0
   25.6117  -21.5409  -11.7220 N   0  0  0  0  0  0  0  0  0  0  0  0
   23.6009  -21.8073  -12.9131 C   0  0  0  0  0  0  0  0  0  0  0  0
   23.3138  -22.8948  -12.3712 O   0  0  0  0  0  0  0  0  0  0  0  0
   22.4923  -21.0427  -13.3995 N   0  0  0  0  0  0  0  0  0  0  0  0
   21.1357  -21.5192  -13.3229 C   0  0  1  0  0  0  0  0  0  0  0  0
   20.5701  -21.1013  -11.9808 C   0  0  0  0  0  0  0  0  0  0  0  0
   18.9480  -21.8635  -11.6872 S   0  0  0  0  0  0  0  0  0  0  0  0
   20.2965  -21.0409  -14.4348 C   0  0  0  0  0  0  0  0  0  0  0  0
   20.5443  -19.9782  -15.0452 O   0  0  0  0  0  0  0  0  0  0  0  0
   19.1998  -21.7845  -14.8208 O   0  0  0  0  0  0  0  0  0  0  0  0
  1  2  1  0
  2 12  2  0
  3  4  2  0
  3  2  1  0
  4  5  1  0
  5  6  1  0
  5 11  2  0
  6  7  1  0
  7  8  1  6
  7  9  1  0
  9 10  2  0
 12 11  1  0
 13 14  1  0
 14 15  2  0
 16 14  1  0
 17 16  1  6
 17 19  1  0
 18  9  1  0
 18 17  1  0
 19 21  1  0
 20 19  2  0
 21 22  1  0
 22 25  1  0
 23 24  1  0
 22 23  1  1
 25 26  2  0
 25 27  1  0
M  END
$$$$
