YNC.pdb
     RDKit          3D

 27 27  0  0  1  0  0  0  0  0999 V2000
   18.2423  -14.7082  -24.0304 O   0  0  0  0  0  0  0  0  0  0  0  0
   18.1316  -13.8869  -22.9067 C   0  0  0  0  0  0  0  0  0  0  0  0
   18.9566  -12.8009  -22.7452 C   0  0  0  0  0  0  0  0  0  0  0  0
   18.8256  -12.0063  -21.6255 C   0  0  0  0  0  0  0  0  0  0  0  0
   17.8900  -12.2582  -20.6486 C   0  0  0  0  0  0  0  0  0  0  0  0
   17.7321  -11.4209  -19.4436 C   0  0  0  0  0  0  0  0  0  0  0  0
   18.8360  -11.7818  -18.4722 C   0  0  2  0  0  0  0  0  0  0  0  0
   18.5633  -13.1065  -17.9500 N   0  0  0  0  0  0  0  0  0  0  0  0
   18.8803  -10.8451  -17.3224 C   0  0  0  0  0  0  0  0  0  0  0  0
   18.0817  -10.9795  -16.3345 O   0  0  0  0  0  0  0  0  0  0  0  0
   17.0680  -13.3424  -20.8122 C   0  0  0  0  0  0  0  0  0  0  0  0
   17.1968  -14.1497  -21.9437 C   0  0  0  0  0  0  0  0  0  0  0  0
   20.4158   -7.3564  -13.7142 N   0  0  0  0  0  0  0  0  0  0  0  0
   21.4047   -8.2177  -14.2594 C   0  0  0  0  0  0  0  0  0  0  0  0
   22.5117   -8.2675  -13.6879 O   0  0  0  0  0  0  0  0  0  0  0  0
   21.1217   -9.0067  -15.4414 C   0  0  0  0  0  0  0  0  0  0  0  0
   19.8096   -8.8180  -16.1079 C   0  0  2  0  0  0  0  0  0  0  0  0
   19.7785   -9.7661  -17.2308 N   0  0  0  0  0  0  0  0  0  0  0  0
   19.5100   -7.5034  -16.6469 C   0  0  0  0  0  0  0  0  0  0  0  0
   20.1163   -7.0509  -17.6400 O   0  0  0  0  0  0  0  0  0  0  0  0
   18.5112   -6.6458  -16.0838 N   0  0  0  0  0  0  0  0  0  0  0  0
   18.1935   -5.3597  -16.6483 C   0  0  1  0  0  0  0  0  0  0  0  0
   16.6850   -5.2190  -16.6672 C   0  0  0  0  0  0  0  0  0  0  0  0
   15.9196   -6.5058  -17.6952 S   0  0  0  0  0  0  0  0  0  0  0  0
   18.8306   -4.2443  -15.9279 C   0  0  0  0  0  0  0  0  0  0  0  0
   19.5537   -4.4277  -14.9245 O   0  0  0  0  0  0  0  0  0  0  0  0
   18.6275   -2.9524  -16.3689 O   0  0  0  0  0  0  0  0  0  0  0  0
  1  2  1  0
  2 12  2  0
  3  4  2  0
  3  2  1  0
  4  5  1  0
  5  6  1  0
  5 11  2  0
  6  7  1  0
  7  8  1  1
  7  9  1  0
  9 10  2  0
 12 11  1  0
 13 14  1  0
 14 15  2  0
 16 14  1  0
 17 16  1  6
 17 19  1  0
 18  9  1  0
 18 17  1  0
 19 21  1  0
 20 19  2  0
 21 22  1  0
 22 25  1  0
 23 24  1  0
 22 23  1  1
 25 26  2  0
 25 27  1  0
M  END
$$$$
