YNC.pdb
     RDKit          3D

 27 27  0  0  1  0  0  0  0  0999 V2000
   32.4882  -35.8085  -23.6481 O   0  0  0  0  0  0  0  0  0  0  0  0
   32.1271  -34.8135  -22.7374 C   0  0  0  0  0  0  0  0  0  0  0  0
   32.3155  -33.4860  -23.0348 C   0  0  0  0  0  0  0  0  0  0  0  0
   31.9498  -32.5237  -22.1167 C   0  0  0  0  0  0  0  0  0  0  0  0
   31.3960  -32.8410  -20.8978 C   0  0  0  0  0  0  0  0  0  0  0  0
   30.9968  -31.8278  -19.9017 C   0  0  0  0  0  0  0  0  0  0  0  0
   32.2366  -31.3959  -19.1474 C   0  0  2  0  0  0  0  0  0  0  0  0
   32.3202  -32.1782  -17.9296 N   0  0  0  0  0  0  0  0  0  0  0  0
   32.1700  -29.9653  -18.7597 C   0  0  0  0  0  0  0  0  0  0  0  0
   31.7138  -29.6143  -17.6192 O   0  0  0  0  0  0  0  0  0  0  0  0
   31.2092  -34.1662  -20.6037 C   0  0  0  0  0  0  0  0  0  0  0  0
   31.5777  -35.1439  -21.5294 C   0  0  0  0  0  0  0  0  0  0  0  0
   34.8151  -24.7740  -19.6432 N   0  0  0  0  0  0  0  0  0  0  0  0
   34.2209  -25.6777  -18.7226 C   0  0  0  0  0  0  0  0  0  0  0  0
   33.9330  -25.2471  -17.5884 O   0  0  0  0  0  0  0  0  0  0  0  0
   33.9638  -27.0520  -19.1033 C   0  0  0  0  0  0  0  0  0  0  0  0
   32.5513  -27.4947  -19.2050 C   0  0  2  0  0  0  0  0  0  0  0  0
   32.5913  -28.9122  -19.5921 N   0  0  0  0  0  0  0  0  0  0  0  0
   31.6979  -26.8119  -20.1610 C   0  0  0  0  0  0  0  0  0  0  0  0
   31.7230  -27.0940  -21.3770 O   0  0  0  0  0  0  0  0  0  0  0  0
   30.7801  -25.7810  -19.7804 N   0  0  0  0  0  0  0  0  0  0  0  0
   30.0394  -25.0137  -20.7480 C   0  0  1  0  0  0  0  0  0  0  0  0
   30.1142  -23.5557  -20.3426 C   0  0  0  0  0  0  0  0  0  0  0  0
   29.1893  -22.5055  -21.5002 S   0  0  0  0  0  0  0  0  0  0  0  0
   30.5167  -25.2159  -22.1265 C   0  0  0  0  0  0  0  0  0  0  0  0
   29.7376  -25.4833  -23.0672 O   0  0  0  0  0  0  0  0  0  0  0  0
   31.8659  -25.1081  -22.3963 O   0  0  0  0  0  0  0  0  0  0  0  0
  1  2  1  0
  2 12  2  0
  3  4  2  0
  3  2  1  0
  4  5  1  0
  5  6  1  0
  5 11  2  0
  6  7  1  0
  7  8  1  1
  7  9  1  0
  9 10  2  0
 12 11  1  0
 13 14  1  0
 14 15  2  0
 16 14  1  0
 17 16  1  6
 17 19  1  0
 18  9  1  0
 18 17  1  0
 19 21  1  0
 20 19  2  0
 21 22  1  0
 22 25  1  0
 23 24  1  0
 22 23  1  1
 25 26  2  0
 25 27  1  0
M  END
$$$$
