YNC.pdb
     RDKit          3D

 27 27  0  0  1  0  0  0  0  0999 V2000
   19.0158  -15.1423  -19.3658 O   0  0  0  0  0  0  0  0  0  0  0  0
   19.7268  -15.9541  -18.4796 C   0  0  0  0  0  0  0  0  0  0  0  0
   21.0717  -15.7642  -18.2765 C   0  0  0  0  0  0  0  0  0  0  0  0
   21.7495  -16.5805  -17.3953 C   0  0  0  0  0  0  0  0  0  0  0  0
   21.1273  -17.5921  -16.7005 C   0  0  0  0  0  0  0  0  0  0  0  0
   21.8329  -18.4763  -15.7526 C   0  0  0  0  0  0  0  0  0  0  0  0
   22.7558  -19.3762  -16.5470 C   0  0  2  0  0  0  0  0  0  0  0  0
   21.9429  -20.3472  -17.2529 N   0  0  0  0  0  0  0  0  0  0  0  0
   23.6841  -20.1238  -15.6634 C   0  0  0  0  0  0  0  0  0  0  0  0
   23.3425  -21.2411  -15.1467 O   0  0  0  0  0  0  0  0  0  0  0  0
   19.7854  -17.7794  -16.9051 C   0  0  0  0  0  0  0  0  0  0  0  0
   19.0949  -16.9558  -17.7959 C   0  0  0  0  0  0  0  0  0  0  0  0
   28.1283  -20.1887  -17.2770 N   0  0  0  0  0  0  0  0  0  0  0  0
   27.7457  -20.8622  -16.0865 C   0  0  0  0  0  0  0  0  0  0  0  0
   27.8393  -22.1053  -16.0659 O   0  0  0  0  0  0  0  0  0  0  0  0
   27.2644  -20.1156  -14.9417 C   0  0  0  0  0  0  0  0  0  0  0  0
   25.8954  -20.4035  -14.4470 C   0  0  2  0  0  0  0  0  0  0  0  0
   24.9762  -19.6755  -15.3335 N   0  0  0  0  0  0  0  0  0  0  0  0
   25.5755  -20.0164  -13.0846 C   0  0  0  0  0  0  0  0  0  0  0  0
   24.8782  -19.0107  -12.8380 O   0  0  0  0  0  0  0  0  0  0  0  0
   26.0319  -20.7519  -11.9440 N   0  0  0  0  0  0  0  0  0  0  0  0
   25.5989  -20.4442  -10.6057 C   0  0  1  0  0  0  0  0  0  0  0  0
   24.0893  -20.5681  -10.5643 C   0  0  0  0  0  0  0  0  0  0  0  0
   23.4636  -20.3905   -8.8686 S   0  0  0  0  0  0  0  0  0  0  0  0
   26.2383  -21.2938   -9.5867 C   0  0  0  0  0  0  0  0  0  0  0  0
   26.4039  -22.5218   -9.7537 O   0  0  0  0  0  0  0  0  0  0  0  0
   26.6714  -20.7230   -8.4071 O   0  0  0  0  0  0  0  0  0  0  0  0
  1  2  1  0
  2 12  2  0
  3  4  2  0
  3  2  1  0
  4  5  1  0
  5  6  1  0
  5 11  2  0
  6  7  1  0
  7  8  1  1
  7  9  1  0
  9 10  2  0
 12 11  1  0
 13 14  1  0
 14 15  2  0
 16 14  1  0
 17 16  1  6
 17 19  1  0
 18  9  1  0
 18 17  1  0
 19 21  1  0
 20 19  2  0
 21 22  1  0
 22 25  1  0
 23 24  1  0
 22 23  1  6
 25 26  2  0
 25 27  1  0
M  END
$$$$
