YNC.pdb
     RDKit          3D

 27 27  0  0  1  0  0  0  0  0999 V2000
   25.0692  -20.9908   -7.5838 O   0  0  0  0  0  0  0  0  0  0  0  0
   25.1383  -20.7291   -8.9535 C   0  0  0  0  0  0  0  0  0  0  0  0
   26.3506  -20.6495   -9.5941 C   0  0  0  0  0  0  0  0  0  0  0  0
   26.3898  -20.3898  -10.9482 C   0  0  0  0  0  0  0  0  0  0  0  0
   25.2500  -20.2043  -11.6961 C   0  0  0  0  0  0  0  0  0  0  0  0
   25.2690  -19.9264  -13.1455 C   0  0  0  0  0  0  0  0  0  0  0  0
   24.6202  -21.0949  -13.8569 C   0  0  2  0  0  0  0  0  0  0  0  0
   25.5456  -22.2105  -13.8306 N   0  0  0  0  0  0  0  0  0  0  0  0
   24.3356  -20.7796  -15.2786 C   0  0  0  0  0  0  0  0  0  0  0  0
   25.2609  -20.8204  -16.1584 O   0  0  0  0  0  0  0  0  0  0  0  0
   24.0418  -20.2843  -11.0546 C   0  0  0  0  0  0  0  0  0  0  0  0
   23.9968  -20.5469   -9.6843 C   0  0  0  0  0  0  0  0  0  0  0  0
   24.8699  -21.7578  -18.4381 N   0  0  0  0  0  0  0  0  0  0  0  0
   23.6254  -22.4201  -18.2659 C   0  0  0  0  0  0  0  0  0  0  0  0
   23.5314  -23.5958  -18.6702 O   0  0  0  0  0  0  0  0  0  0  0  0
   22.5105  -21.7388  -17.6392 C   0  0  0  0  0  0  0  0  0  0  0  0
   22.7144  -20.3417  -17.1832 C   0  0  2  0  0  0  0  0  0  0  0  0
   23.0621  -20.4210  -15.7572 N   0  0  0  0  0  0  0  0  0  0  0  0
   21.5959  -19.4235  -17.3025 C   0  0  0  0  0  0  0  0  0  0  0  0
   20.6111  -19.4910  -16.5381 O   0  0  0  0  0  0  0  0  0  0  0  0
   21.5455  -18.3902  -18.2925 N   0  0  0  0  0  0  0  0  0  0  0  0
   20.4342  -17.4809  -18.4003 C   0  0  1  0  0  0  0  0  0  0  0  0
   20.8835  -16.2919  -19.2252 C   0  0  0  0  0  0  0  0  0  0  0  0
   22.1677  -15.3423  -18.3607 S   0  0  0  0  0  0  0  0  0  0  0  0
   19.2316  -18.1106  -18.9715 C   0  0  0  0  0  0  0  0  0  0  0  0
   19.2952  -19.1205  -19.7059 O   0  0  0  0  0  0  0  0  0  0  0  0
   17.9912  -17.5742  -18.6913 O   0  0  0  0  0  0  0  0  0  0  0  0
  1  2  1  0
  2 12  2  0
  3  4  2  0
  3  2  1  0
  4  5  1  0
  5  6  1  0
  5 11  2  0
  6  7  1  0
  7  8  1  6
  7  9  1  0
  9 10  2  0
 12 11  1  0
 13 14  1  0
 14 15  2  0
 16 14  1  0
 17 16  1  1
 17 19  1  0
 18  9  1  0
 18 17  1  0
 19 21  1  0
 20 19  2  0
 21 22  1  0
 22 25  1  0
 23 24  1  0
 22 23  1  6
 25 26  2  0
 25 27  1  0
M  END
$$$$
