YNC.pdb
     RDKit          3D

 27 27  0  0  1  0  0  0  0  0999 V2000
   30.2722  -12.2504  -17.0696 O   0  0  0  0  0  0  0  0  0  0  0  0
   29.1443  -11.4558  -16.8555 C   0  0  0  0  0  0  0  0  0  0  0  0
   28.9743  -10.2768  -17.5392 C   0  0  0  0  0  0  0  0  0  0  0  0
   27.8505   -9.5113  -17.3082 C   0  0  0  0  0  0  0  0  0  0  0  0
   26.8777   -9.8831  -16.4091 C   0  0  0  0  0  0  0  0  0  0  0  0
   25.6676   -9.0799  -16.1474 C   0  0  0  0  0  0  0  0  0  0  0  0
   24.4930   -9.7702  -16.8081 C   0  0  2  0  0  0  0  0  0  0  0  0
   24.7588   -9.8521  -18.2310 N   0  0  0  0  0  0  0  0  0  0  0  0
   23.2362   -9.0024  -16.6285 C   0  0  0  0  0  0  0  0  0  0  0  0
   22.8800   -8.1173  -17.4780 O   0  0  0  0  0  0  0  0  0  0  0  0
   27.0497  -11.0598  -15.7283 C   0  0  0  0  0  0  0  0  0  0  0  0
   28.1855  -11.8381  -15.9585 C   0  0  0  0  0  0  0  0  0  0  0  0
   18.3580   -7.7217  -14.8926 N   0  0  0  0  0  0  0  0  0  0  0  0
   18.7405   -9.0725  -14.6777 C   0  0  0  0  0  0  0  0  0  0  0  0
   17.8697   -9.8655  -14.2686 O   0  0  0  0  0  0  0  0  0  0  0  0
   20.1019   -9.5001  -14.9299 C   0  0  0  0  0  0  0  0  0  0  0  0
   21.0765   -8.4839  -15.3977 C   0  0  2  0  0  0  0  0  0  0  0  0
   22.3621   -9.1822  -15.5408 N   0  0  0  0  0  0  0  0  0  0  0  0
   21.3068   -7.3291  -14.5480 C   0  0  0  0  0  0  0  0  0  0  0  0
   22.1082   -7.3714  -13.5917 O   0  0  0  0  0  0  0  0  0  0  0  0
   20.6392   -6.0780  -14.7456 N   0  0  0  0  0  0  0  0  0  0  0  0
   20.9890   -4.8934  -14.0054 C   0  0  1  0  0  0  0  0  0  0  0  0
   22.4272   -4.5470  -14.3328 C   0  0  0  0  0  0  0  0  0  0  0  0
   22.5873   -3.9640  -16.0453 S   0  0  0  0  0  0  0  0  0  0  0  0
   20.0863   -3.7614  -14.2754 C   0  0  0  0  0  0  0  0  0  0  0  0
   19.1979   -3.8145  -15.1537 O   0  0  0  0  0  0  0  0  0  0  0  0
   20.2194   -2.6016  -13.5393 O   0  0  0  0  0  0  0  0  0  0  0  0
  1  2  1  0
  2 12  2  0
  3  4  2  0
  3  2  1  0
  4  5  1  0
  5  6  1  0
  5 11  2  0
  6  7  1  0
  7  8  1  6
  7  9  1  0
  9 10  2  0
 12 11  1  0
 13 14  1  0
 14 15  2  0
 16 14  1  0
 17 16  1  1
 17 19  1  0
 18  9  1  0
 18 17  1  0
 19 21  1  0
 20 19  2  0
 21 22  1  0
 22 25  1  0
 23 24  1  0
 22 23  1  6
 25 26  2  0
 25 27  1  0
M  END
$$$$
