YNC.pdb
     RDKit          3D

 27 27  0  0  1  0  0  0  0  0999 V2000
   20.2816  -28.6136  -19.1908 O   0  0  0  0  0  0  0  0  0  0  0  0
   20.0642  -28.2850  -17.8513 C   0  0  0  0  0  0  0  0  0  0  0  0
   19.8123  -26.9877  -17.4773 C   0  0  0  0  0  0  0  0  0  0  0  0
   19.6011  -26.6910  -16.1470 C   0  0  0  0  0  0  0  0  0  0  0  0
   19.6321  -27.6528  -15.1636 C   0  0  0  0  0  0  0  0  0  0  0  0
   19.4081  -27.3576  -13.7350 C   0  0  0  0  0  0  0  0  0  0  0  0
   20.6227  -26.6210  -13.2110 C   0  0  2  0  0  0  0  0  0  0  0  0
   21.6985  -27.5796  -13.0509 N   0  0  0  0  0  0  0  0  0  0  0  0
   20.3617  -26.0116  -11.8836 C   0  0  0  0  0  0  0  0  0  0  0  0
   20.8116  -26.5476  -10.8148 O   0  0  0  0  0  0  0  0  0  0  0  0
   19.8836  -28.9464  -15.5395 C   0  0  0  0  0  0  0  0  0  0  0  0
   20.0981  -29.2517  -16.8846 C   0  0  0  0  0  0  0  0  0  0  0  0
   16.8750  -22.9757  -10.0975 N   0  0  0  0  0  0  0  0  0  0  0  0
   17.9260  -22.1756  -10.6195 C   0  0  0  0  0  0  0  0  0  0  0  0
   17.6496  -21.0135  -10.9771 O   0  0  0  0  0  0  0  0  0  0  0  0
   19.2701  -22.7061  -10.7269 C   0  0  0  0  0  0  0  0  0  0  0  0
   19.4810  -24.1403  -10.4104 C   0  0  2  0  0  0  0  0  0  0  0  0
   19.6200  -24.8301  -11.7010 N   0  0  0  0  0  0  0  0  0  0  0  0
   18.4401  -24.8266   -9.6661 C   0  0  0  0  0  0  0  0  0  0  0  0
   17.4353  -25.3016  -10.2350 O   0  0  0  0  0  0  0  0  0  0  0  0
   18.4932  -25.0039   -8.2463 N   0  0  0  0  0  0  0  0  0  0  0  0
   17.4345  -25.6449   -7.5103 C   0  0  1  0  0  0  0  0  0  0  0  0
   17.9735  -26.0116   -6.1426 C   0  0  0  0  0  0  0  0  0  0  0  0
   16.6890  -26.7850   -5.1178 S   0  0  0  0  0  0  0  0  0  0  0  0
   16.2229  -24.8138   -7.4079 C   0  0  0  0  0  0  0  0  0  0  0  0
   16.2719  -23.5644   -7.4074 O   0  0  0  0  0  0  0  0  0  0  0  0
   14.9904  -25.4268   -7.3091 O   0  0  0  0  0  0  0  0  0  0  0  0
  1  2  1  0
  2 12  2  0
  3  4  2  0
  3  2  1  0
  4  5  1  0
  5  6  1  0
  5 11  2  0
  6  7  1  0
  7  8  1  1
  7  9  1  0
  9 10  2  0
 12 11  1  0
 13 14  1  0
 14 15  2  0
 16 14  1  0
 17 16  1  6
 17 19  1  0
 18  9  1  0
 18 17  1  0
 19 21  1  0
 20 19  2  0
 21 22  1  0
 22 25  1  0
 23 24  1  0
 22 23  1  1
 25 26  2  0
 25 27  1  0
M  END
$$$$
