YNC.pdb
     RDKit          3D

 27 27  0  0  1  0  0  0  0  0999 V2000
   30.9519  -16.1056  -19.3558 O   0  0  0  0  0  0  0  0  0  0  0  0
   30.0123  -16.7959  -18.5875 C   0  0  0  0  0  0  0  0  0  0  0  0
   30.1592  -16.9035  -17.2263 C   0  0  0  0  0  0  0  0  0  0  0  0
   29.2160  -17.5912  -16.4915 C   0  0  0  0  0  0  0  0  0  0  0  0
   28.1177  -18.1828  -17.0720 C   0  0  0  0  0  0  0  0  0  0  0  0
   27.0964  -18.9222  -16.3049 C   0  0  0  0  0  0  0  0  0  0  0  0
   27.7408  -20.1747  -15.7493 C   0  0  2  0  0  0  0  0  0  0  0  0
   27.9196  -21.1130  -16.8400 N   0  0  0  0  0  0  0  0  0  0  0  0
   26.8806  -20.8266  -14.7313 C   0  0  0  0  0  0  0  0  0  0  0  0
   26.0612  -21.7506  -15.0580 O   0  0  0  0  0  0  0  0  0  0  0  0
   27.9736  -18.0740  -18.4303 C   0  0  0  0  0  0  0  0  0  0  0  0
   28.9255  -17.3790  -19.1783 C   0  0  0  0  0  0  0  0  0  0  0  0
   25.1341  -21.8846   -9.3981 N   0  0  0  0  0  0  0  0  0  0  0  0
   25.4715  -20.6158   -9.9398 C   0  0  0  0  0  0  0  0  0  0  0  0
   24.9557  -19.6062   -9.4210 O   0  0  0  0  0  0  0  0  0  0  0  0
   26.3865  -20.5139  -11.0588 C   0  0  0  0  0  0  0  0  0  0  0  0
   25.9196  -20.9844  -12.3863 C   0  0  2  0  0  0  0  0  0  0  0  0
   26.8977  -20.4894  -13.3655 N   0  0  0  0  0  0  0  0  0  0  0  0
   24.6075  -20.5506  -12.8322 C   0  0  0  0  0  0  0  0  0  0  0  0
   24.3655  -19.3511  -13.0801 O   0  0  0  0  0  0  0  0  0  0  0  0
   23.5143  -21.4568  -13.0160 N   0  0  0  0  0  0  0  0  0  0  0  0
   22.1959  -21.0084  -13.3824 C   0  0  1  0  0  0  0  0  0  0  0  0
   21.6398  -21.9808  -14.4027 C   0  0  0  0  0  0  0  0  0  0  0  0
   21.6889  -23.6854  -13.7779 S   0  0  0  0  0  0  0  0  0  0  0  0
   21.2962  -20.8673  -12.2249 C   0  0  0  0  0  0  0  0  0  0  0  0
   21.5962  -21.3045  -11.0926 O   0  0  0  0  0  0  0  0  0  0  0  0
   20.0813  -20.2332  -12.3878 O   0  0  0  0  0  0  0  0  0  0  0  0
  1  2  1  0
  2 12  2  0
  3  4  2  0
  3  2  1  0
  4  5  1  0
  5  6  1  0
  5 11  2  0
  6  7  1  0
  7  8  1  6
  7  9  1  0
  9 10  2  0
 12 11  1  0
 13 14  1  0
 14 15  2  0
 16 14  1  0
 17 16  1  1
 17 19  1  0
 18  9  1  0
 18 17  1  0
 19 21  1  0
 20 19  2  0
 21 22  1  0
 22 25  1  0
 23 24  1  0
 22 23  1  6
 25 26  2  0
 25 27  1  0
M  END
$$$$
