YNC.pdb
     RDKit          3D

 27 27  0  0  1  0  0  0  0  0999 V2000
   27.6406  -19.5855   -5.0423 O   0  0  0  0  0  0  0  0  0  0  0  0
   27.2015  -19.5479   -6.3672 C   0  0  0  0  0  0  0  0  0  0  0  0
   27.6802  -18.6018   -7.2402 C   0  0  0  0  0  0  0  0  0  0  0  0
   27.2293  -18.5876   -8.5436 C   0  0  0  0  0  0  0  0  0  0  0  0
   26.3071  -19.4937   -9.0142 C   0  0  0  0  0  0  0  0  0  0  0  0
   25.8120  -19.4970  -10.4046 C   0  0  0  0  0  0  0  0  0  0  0  0
   25.7938  -20.9297  -10.8938 C   0  0  2  0  0  0  0  0  0  0  0  0
   27.1657  -21.3693  -11.0565 N   0  0  0  0  0  0  0  0  0  0  0  0
   25.1237  -21.0486  -12.2123 C   0  0  0  0  0  0  0  0  0  0  0  0
   25.7751  -20.8783  -13.2979 O   0  0  0  0  0  0  0  0  0  0  0  0
   25.8312  -20.4365   -8.1411 C   0  0  0  0  0  0  0  0  0  0  0  0
   26.2844  -20.4551   -6.8209 C   0  0  0  0  0  0  0  0  0  0  0  0
   19.7729  -22.7988  -14.4682 N   0  0  0  0  0  0  0  0  0  0  0  0
   21.1796  -22.7526  -14.6583 C   0  0  0  0  0  0  0  0  0  0  0  0
   21.6164  -22.9255  -15.8133 O   0  0  0  0  0  0  0  0  0  0  0  0
   22.0655  -22.5114  -13.5373 C   0  0  0  0  0  0  0  0  0  0  0  0
   23.0810  -21.4377  -13.6696 C   0  0  2  0  0  0  0  0  0  0  0  0
   23.7582  -21.3494  -12.3679 N   0  0  0  0  0  0  0  0  0  0  0  0
   22.6128  -20.1040  -14.0020 C   0  0  0  0  0  0  0  0  0  0  0  0
   22.0049  -19.3990  -13.1700 O   0  0  0  0  0  0  0  0  0  0  0  0
   22.8132  -19.5126  -15.2905 N   0  0  0  0  0  0  0  0  0  0  0  0
   22.1984  -18.2670  -15.6699 C   0  0  1  0  0  0  0  0  0  0  0  0
   22.9493  -17.7227  -16.8681 C   0  0  0  0  0  0  0  0  0  0  0  0
   24.5106  -16.9435  -16.3642 S   0  0  0  0  0  0  0  0  0  0  0  0
   20.7587  -18.4005  -15.9503 C   0  0  0  0  0  0  0  0  0  0  0  0
   20.2911  -19.3763  -16.5768 O   0  0  0  0  0  0  0  0  0  0  0  0
   19.8918  -17.4208  -15.5104 O   0  0  0  0  0  0  0  0  0  0  0  0
  1  2  1  0
  2 12  2  0
  3  4  2  0
  3  2  1  0
  4  5  1  0
  5  6  1  0
  5 11  2  0
  6  7  1  0
  7  8  1  6
  7  9  1  0
  9 10  2  0
 12 11  1  0
 13 14  1  0
 14 15  2  0
 16 14  1  0
 17 16  1  1
 17 19  1  0
 18  9  1  0
 18 17  1  0
 19 21  1  0
 20 19  2  0
 21 22  1  0
 22 25  1  0
 23 24  1  0
 22 23  1  6
 25 26  2  0
 25 27  1  0
M  END
$$$$
