CVQ.pdb
     RDKit          3D

 23 22  0  0  1  0  0  0  0  0999 V2000
    8.5936  -17.8704   16.4942 N   0  0  0  0  0  0  0  0  0  0  0  0
    7.7569  -17.6294   17.6376 C   0  0  1  0  0  0  0  0  0  0  0  0
    7.4873  -18.9267   18.3336 C   0  0  0  0  0  0  0  0  0  0  0  0
    6.4562  -18.6227   19.8100 S   0  0  0  0  0  0  0  0  0  0  0  0
    8.4846  -16.7301   18.5852 C   0  0  0  0  0  0  0  0  0  0  0  0
    9.7112  -16.8412   18.6642 O   0  0  0  0  0  0  0  0  0  0  0  0
    7.3379  -12.8843   19.1972 C   0  0  0  0  0  0  0  0  0  0  0  0
    7.3183  -13.6925   20.4831 C   0  0  2  0  0  0  0  0  0  0  0  0
    7.8611  -12.7600   21.5459 C   0  0  0  0  0  0  0  0  0  0  0  0
    8.3128  -14.8296   20.2984 C   0  0  2  0  0  0  0  0  0  0  0  0
    7.7893  -15.8057   19.3442 N   0  0  0  0  0  0  0  0  0  0  0  0
    8.7315  -15.5042   21.5250 C   0  0  0  0  0  0  0  0  0  0  0  0
    7.8905  -16.3293   22.0744 O   0  0  0  0  0  0  0  0  0  0  0  0
   10.8499  -20.3892   20.9006 N   0  0  0  0  0  0  0  0  0  0  0  0
   11.3184  -20.1691   22.2237 C   0  0  0  0  0  0  0  0  0  0  0  0
   11.8084  -21.1709   22.8000 O   0  0  0  0  0  0  0  0  0  0  0  0
   11.2612  -18.8881   22.9150 C   0  0  0  0  0  0  0  0  0  0  0  0
   10.6486  -17.7538   22.1832 C   0  0  0  0  0  0  0  0  0  0  0  0
   10.5184  -16.5180   22.9935 C   0  0  2  0  0  0  0  0  0  0  0  0
    9.9350  -15.4072   22.2309 N   0  0  0  0  0  0  0  0  0  0  0  0
   11.7458  -16.1385   23.7111 C   0  0  0  0  0  0  0  0  0  0  0  0
   12.6386  -15.2596   23.1410 O   0  0  0  0  0  0  0  0  0  0  0  0
   11.9841  -16.6088   24.8357 O   0  0  0  0  0  0  0  0  0  0  0  0
  2  5  1  0
  2  3  1  0
  2  1  1  6
  3  4  1  0
  5  6  2  0
  8  7  1  6
  8 10  1  0
  9  8  1  0
 10 12  1  0
 10 11  1  6
 11  5  1  0
 12 13  2  0
 12 20  1  0
 15 14  1  0
 16 15  2  0
 17 15  1  0
 18 17  1  0
 19 18  1  6
 20 19  1  0
 21 22  1  0
 21 19  1  0
 23 21  2  0
M  END
$$$$
