CVQ.pdb
     RDKit          3D

 23 22  0  0  1  0  0  0  0  0999 V2000
   10.0665  -17.0841   16.4562 N   0  0  0  0  0  0  0  0  0  0  0  0
    9.1120  -17.2726   17.5140 C   0  0  1  0  0  0  0  0  0  0  0  0
    9.1789  -18.6894   17.9917 C   0  0  0  0  0  0  0  0  0  0  0  0
    8.4276  -19.7892   16.7422 S   0  0  0  0  0  0  0  0  0  0  0  0
    9.4735  -16.3747   18.6538 C   0  0  0  0  0  0  0  0  0  0  0  0
   10.6644  -16.0955   18.8172 O   0  0  0  0  0  0  0  0  0  0  0  0
    7.0524  -13.3102   19.8400 C   0  0  0  0  0  0  0  0  0  0  0  0
    7.3046  -14.3146   20.9512 C   0  0  2  0  0  0  0  0  0  0  0  0
    7.4788  -13.4833   22.2051 C   0  0  0  0  0  0  0  0  0  0  0  0
    8.6348  -14.9850   20.6392 C   0  0  2  0  0  0  0  0  0  0  0  0
    8.4904  -15.8794   19.4918 N   0  0  0  0  0  0  0  0  0  0  0  0
    9.2567  -15.6971   21.7532 C   0  0  0  0  0  0  0  0  0  0  0  0
    8.6983  -16.8033   22.1463 O   0  0  0  0  0  0  0  0  0  0  0  0
   14.6926  -17.7807   21.8772 N   0  0  0  0  0  0  0  0  0  0  0  0
   14.3960  -16.6761   22.7201 C   0  0  0  0  0  0  0  0  0  0  0  0
   15.2990  -16.3534   23.5303 O   0  0  0  0  0  0  0  0  0  0  0  0
   13.1457  -15.9293   22.6894 C   0  0  0  0  0  0  0  0  0  0  0  0
   12.3103  -15.9623   23.9135 C   0  0  0  0  0  0  0  0  0  0  0  0
   10.8636  -16.1537   23.6470 C   0  0  2  0  0  0  0  0  0  0  0  0
   10.3989  -15.3740   22.4928 N   0  0  0  0  0  0  0  0  0  0  0  0
   10.0078  -15.9884   24.8326 C   0  0  0  0  0  0  0  0  0  0  0  0
   10.0825  -16.8874   25.8723 O   0  0  0  0  0  0  0  0  0  0  0  0
    9.2126  -15.0369   24.9029 O   0  0  0  0  0  0  0  0  0  0  0  0
  2  5  1  0
  2  3  1  0
  2  1  1  6
  3  4  1  0
  5  6  2  0
  8  7  1  6
  8 10  1  0
  9  8  1  0
 10 12  1  0
 10 11  1  6
 11  5  1  0
 12 13  2  0
 12 20  1  0
 15 14  1  0
 16 15  2  0
 17 15  1  0
 18 17  1  0
 19 18  1  1
 20 19  1  0
 21 22  1  0
 21 19  1  0
 23 21  2  0
M  END
$$$$
