CVQ.pdb
     RDKit          3D

 23 22  0  0  1  0  0  0  0  0999 V2000
    7.4037  -14.4066   20.2971 N   0  0  0  0  0  0  0  0  0  0  0  0
    6.9003  -14.9698   21.5198 C   0  0  1  0  0  0  0  0  0  0  0  0
    7.0753  -16.4559   21.4868 C   0  0  0  0  0  0  0  0  0  0  0  0
    5.6951  -17.2108   20.5593 S   0  0  0  0  0  0  0  0  0  0  0  0
    7.6975  -14.4279   22.6630 C   0  0  0  0  0  0  0  0  0  0  0  0
    8.9064  -14.2470   22.4931 O   0  0  0  0  0  0  0  0  0  0  0  0
    6.3346  -11.7291   25.3329 C   0  0  0  0  0  0  0  0  0  0  0  0
    6.6733  -13.0429   26.0159 C   0  0  2  0  0  0  0  0  0  0  0  0
    7.3546  -12.6524   27.3110 C   0  0  0  0  0  0  0  0  0  0  0  0
    7.6982  -13.7412   25.1338 C   0  0  2  0  0  0  0  0  0  0  0  0
    7.0835  -14.1426   23.8695 N   0  0  0  0  0  0  0  0  0  0  0  0
    8.3794  -14.8813   25.7430 C   0  0  0  0  0  0  0  0  0  0  0  0
    7.6625  -15.9274   26.0286 O   0  0  0  0  0  0  0  0  0  0  0  0
   12.2679  -16.1664   29.7887 N   0  0  0  0  0  0  0  0  0  0  0  0
   12.5595  -17.3028   28.9875 C   0  0  0  0  0  0  0  0  0  0  0  0
   13.0657  -18.2790   29.5932 O   0  0  0  0  0  0  0  0  0  0  0  0
   12.3080  -17.3869   27.5551 C   0  0  0  0  0  0  0  0  0  0  0  0
   11.7349  -16.1871   26.8997 C   0  0  0  0  0  0  0  0  0  0  0  0
   10.2595  -16.2318   26.7522 C   0  0  2  0  0  0  0  0  0  0  0  0
    9.7275  -15.0400   26.0795 N   0  0  0  0  0  0  0  0  0  0  0  0
    9.5416  -16.5571   27.9950 C   0  0  0  0  0  0  0  0  0  0  0  0
    9.2365  -17.8648   28.2973 O   0  0  0  0  0  0  0  0  0  0  0  0
    9.2063  -15.6540   28.7789 O   0  0  0  0  0  0  0  0  0  0  0  0
  2  5  1  0
  2  3  1  0
  2  1  1  6
  3  4  1  0
  5  6  2  0
  8  7  1  6
  8 10  1  0
  9  8  1  0
 10 12  1  0
 10 11  1  6
 11  5  1  0
 12 13  2  0
 12 20  1  0
 15 14  1  0
 16 15  2  0
 17 15  1  0
 18 17  1  0
 19 18  1  1
 20 19  1  0
 21 22  1  0
 21 19  1  0
 23 21  2  0
M  END
$$$$
