CVQ.pdb
     RDKit          3D

 23 22  0  0  1  0  0  0  0  0999 V2000
    6.8563  -17.5229   18.2884 N   0  0  0  0  0  0  0  0  0  0  0  0
    8.1238  -17.3068   17.6462 C   0  0  1  0  0  0  0  0  0  0  0  0
    7.9015  -16.6194   16.3354 C   0  0  0  0  0  0  0  0  0  0  0  0
    9.3364  -16.9113   15.2441 S   0  0  0  0  0  0  0  0  0  0  0  0
    8.9547  -16.4132   18.5106 C   0  0  0  0  0  0  0  0  0  0  0  0
   10.1768  -16.4130   18.3393 O   0  0  0  0  0  0  0  0  0  0  0  0
    6.7982  -14.0607   21.2811 C   0  0  0  0  0  0  0  0  0  0  0  0
    8.0857  -13.5128   20.6901 C   0  0  2  0  0  0  0  0  0  0  0  0
    7.6881  -12.9201   19.3543 C   0  0  0  0  0  0  0  0  0  0  0  0
    8.9885  -14.7095   20.4271 C   0  0  2  0  0  0  0  0  0  0  0  0
    8.3562  -15.6158   19.4698 N   0  0  0  0  0  0  0  0  0  0  0  0
    9.4116  -15.4507   21.6131 C   0  0  0  0  0  0  0  0  0  0  0  0
    8.5727  -16.3051   22.1191 O   0  0  0  0  0  0  0  0  0  0  0  0
   11.5181  -21.2344   21.9087 N   0  0  0  0  0  0  0  0  0  0  0  0
   12.0411  -20.0211   21.3865 C   0  0  0  0  0  0  0  0  0  0  0  0
   12.3327  -20.0363   20.1655 O   0  0  0  0  0  0  0  0  0  0  0  0
   12.2453  -18.8087   22.1678 C   0  0  0  0  0  0  0  0  0  0  0  0
   11.5287  -17.5902   21.7215 C   0  0  0  0  0  0  0  0  0  0  0  0
   11.3373  -16.5814   22.7922 C   0  0  2  0  0  0  0  0  0  0  0  0
   10.6175  -15.3923   22.3190 N   0  0  0  0  0  0  0  0  0  0  0  0
   12.5655  -16.2513   23.5325 C   0  0  0  0  0  0  0  0  0  0  0  0
   13.2412  -15.0816   23.2681 O   0  0  0  0  0  0  0  0  0  0  0  0
   13.0003  -17.0259   24.4006 O   0  0  0  0  0  0  0  0  0  0  0  0
  2  5  1  0
  2  3  1  0
  2  1  1  1
  3  4  1  0
  5  6  2  0
  8  7  1  6
  8 10  1  0
  9  8  1  0
 10 12  1  0
 10 11  1  6
 11  5  1  0
 12 13  2  0
 12 20  1  0
 15 14  1  0
 16 15  2  0
 17 15  1  0
 18 17  1  0
 19 18  1  6
 20 19  1  0
 21 22  1  0
 21 19  1  0
 23 21  2  0
M  END
$$$$
