CVQ.pdb
     RDKit          3D

 23 22  0  0  1  0  0  0  0  0999 V2000
    7.8609  -15.1973   20.8434 N   0  0  0  0  0  0  0  0  0  0  0  0
    7.1958  -15.4898   22.0835 C   0  0  1  0  0  0  0  0  0  0  0  0
    7.1768  -16.9713   22.2952 C   0  0  0  0  0  0  0  0  0  0  0  0
    5.9950  -17.7372   21.1323 S   0  0  0  0  0  0  0  0  0  0  0  0
    7.9670  -14.8650   23.2019 C   0  0  0  0  0  0  0  0  0  0  0  0
    9.1901  -14.7604   23.0758 O   0  0  0  0  0  0  0  0  0  0  0  0
    6.4681  -11.8201   25.3227 C   0  0  0  0  0  0  0  0  0  0  0  0
    6.8201  -12.9731   26.2466 C   0  0  2  0  0  0  0  0  0  0  0  0
    7.4605  -12.3289   27.4585 C   0  0  0  0  0  0  0  0  0  0  0  0
    7.8818  -13.7961   25.5315 C   0  0  2  0  0  0  0  0  0  0  0  0
    7.3141  -14.4221   24.3385 N   0  0  0  0  0  0  0  0  0  0  0  0
    8.5561  -14.8008   26.3507 C   0  0  0  0  0  0  0  0  0  0  0  0
    7.8279  -15.7516   26.8562 O   0  0  0  0  0  0  0  0  0  0  0  0
   14.3101  -17.0223   25.2396 N   0  0  0  0  0  0  0  0  0  0  0  0
   13.0641  -16.4407   24.8819 C   0  0  0  0  0  0  0  0  0  0  0  0
   13.0952  -15.6434   23.9128 O   0  0  0  0  0  0  0  0  0  0  0  0
   11.8031  -16.7155   25.5575 C   0  0  0  0  0  0  0  0  0  0  0  0
   11.7594  -16.4892   27.0218 C   0  0  0  0  0  0  0  0  0  0  0  0
   10.4470  -16.0039   27.5144 C   0  0  2  0  0  0  0  0  0  0  0  0
    9.9078  -14.9142   26.6911 N   0  0  0  0  0  0  0  0  0  0  0  0
   10.4207  -15.7014   28.9544 C   0  0  0  0  0  0  0  0  0  0  0  0
   10.0141  -14.4626   29.3953 O   0  0  0  0  0  0  0  0  0  0  0  0
   10.7653  -16.5620   29.7810 O   0  0  0  0  0  0  0  0  0  0  0  0
  2  5  1  0
  2  3  1  0
  2  1  1  6
  3  4  1  0
  5  6  2  0
  8  7  1  6
  8 10  1  0
  9  8  1  0
 10 12  1  0
 10 11  1  6
 11  5  1  0
 12 13  2  0
 12 20  1  0
 15 14  1  0
 16 15  2  0
 17 15  1  0
 18 17  1  0
 19 18  1  6
 20 19  1  0
 21 22  1  0
 21 19  1  0
 23 21  2  0
M  END
$$$$
