CVQ.pdb
     RDKit          3D

 23 22  0  0  1  0  0  0  0  0999 V2000
    9.4322  -17.0903   15.9483 N   0  0  0  0  0  0  0  0  0  0  0  0
    8.4029  -16.9576   16.9425 C   0  0  1  0  0  0  0  0  0  0  0  0
    7.9191  -18.3182   17.3360 C   0  0  0  0  0  0  0  0  0  0  0  0
    7.1028  -19.1106   15.9073 S   0  0  0  0  0  0  0  0  0  0  0  0
    8.9844  -16.2976   18.1518 C   0  0  0  0  0  0  0  0  0  0  0  0
   10.2012  -16.3912   18.3351 O   0  0  0  0  0  0  0  0  0  0  0  0
    7.1600  -12.8960   19.7046 C   0  0  0  0  0  0  0  0  0  0  0  0
    7.3641  -14.0181   20.7078 C   0  0  2  0  0  0  0  0  0  0  0  0
    7.7708  -13.3305   21.9945 C   0  0  0  0  0  0  0  0  0  0  0  0
    8.5489  -14.8350   20.2128 C   0  0  2  0  0  0  0  0  0  0  0  0
    8.1693  -15.6061   19.0301 N   0  0  0  0  0  0  0  0  0  0  0  0
    9.1661  -15.7125   21.2049 C   0  0  0  0  0  0  0  0  0  0  0  0
    8.5099  -16.7784   21.5557 O   0  0  0  0  0  0  0  0  0  0  0  0
   13.7554  -20.4174   22.9423 N   0  0  0  0  0  0  0  0  0  0  0  0
   13.7658  -19.0252   22.6593 C   0  0  0  0  0  0  0  0  0  0  0  0
   14.5961  -18.6530   21.7945 O   0  0  0  0  0  0  0  0  0  0  0  0
   12.8933  -18.0487   23.2976 C   0  0  0  0  0  0  0  0  0  0  0  0
   12.3340  -16.9797   22.4362 C   0  0  0  0  0  0  0  0  0  0  0  0
   10.9341  -16.6157   22.7654 C   0  0  2  0  0  0  0  0  0  0  0  0
   10.3946  -15.5915   21.8622 N   0  0  0  0  0  0  0  0  0  0  0  0
   10.7138  -16.3010   24.1860 C   0  0  0  0  0  0  0  0  0  0  0  0
   10.6715  -17.3101   25.1211 O   0  0  0  0  0  0  0  0  0  0  0  0
   10.5647  -15.1230   24.5503 O   0  0  0  0  0  0  0  0  0  0  0  0
  2  5  1  0
  2  3  1  0
  2  1  1  6
  3  4  1  0
  5  6  2  0
  8  7  1  6
  8 10  1  0
  9  8  1  0
 10 12  1  0
 10 11  1  6
 11  5  1  0
 12 13  2  0
 12 20  1  0
 15 14  1  0
 16 15  2  0
 17 15  1  0
 18 17  1  0
 19 18  1  1
 20 19  1  0
 21 22  1  0
 21 19  1  0
 23 21  2  0
M  END
$$$$
