CVQ.pdb
     RDKit          3D

 23 22  0  0  1  0  0  0  0  0999 V2000
    7.1065  -15.5953   20.9995 N   0  0  0  0  0  0  0  0  0  0  0  0
    6.7101  -15.9121   22.3442 C   0  0  1  0  0  0  0  0  0  0  0  0
    6.8397  -17.3872   22.5619 C   0  0  0  0  0  0  0  0  0  0  0  0
    5.2322  -18.1931   22.2427 S   0  0  0  0  0  0  0  0  0  0  0  0
    7.6304  -15.2142   23.2940 C   0  0  0  0  0  0  0  0  0  0  0  0
    8.8200  -15.1140   22.9811 O   0  0  0  0  0  0  0  0  0  0  0  0
    6.3532  -12.1332   25.5517 C   0  0  0  0  0  0  0  0  0  0  0  0
    6.9276  -13.2324   26.4286 C   0  0  2  0  0  0  0  0  0  0  0  0
    7.7423  -12.5131   27.4835 C   0  0  0  0  0  0  0  0  0  0  0  0
    7.8842  -14.0314   25.5552 C   0  0  2  0  0  0  0  0  0  0  0  0
    7.1475  -14.7013   24.4847 N   0  0  0  0  0  0  0  0  0  0  0  0
    8.7254  -14.9946   26.2621 C   0  0  0  0  0  0  0  0  0  0  0  0
    8.1488  -16.0536   26.7478 O   0  0  0  0  0  0  0  0  0  0  0  0
   12.9404  -16.5935   23.1486 N   0  0  0  0  0  0  0  0  0  0  0  0
   13.2846  -16.5627   24.5267 C   0  0  0  0  0  0  0  0  0  0  0  0
   14.4105  -16.0762   24.7945 O   0  0  0  0  0  0  0  0  0  0  0  0
   12.4277  -17.0474   25.6005 C   0  0  0  0  0  0  0  0  0  0  0  0
   12.2340  -16.1510   26.7652 C   0  0  0  0  0  0  0  0  0  0  0  0
   10.8222  -16.0381   27.2063 C   0  0  2  0  0  0  0  0  0  0  0  0
   10.1017  -14.9654   26.5091 N   0  0  0  0  0  0  0  0  0  0  0  0
   10.6520  -15.9876   28.6672 C   0  0  0  0  0  0  0  0  0  0  0  0
   11.0384  -17.0537   29.4474 O   0  0  0  0  0  0  0  0  0  0  0  0
   10.1586  -14.9829   29.2055 O   0  0  0  0  0  0  0  0  0  0  0  0
  2  5  1  0
  2  3  1  0
  2  1  1  6
  3  4  1  0
  5  6  2  0
  8  7  1  6
  8 10  1  0
  9  8  1  0
 10 12  1  0
 10 11  1  6
 11  5  1  0
 12 13  2  0
 12 20  1  0
 15 14  1  0
 16 15  2  0
 17 15  1  0
 18 17  1  0
 19 18  1  1
 20 19  1  0
 21 22  1  0
 21 19  1  0
 23 21  2  0
M  END
$$$$
