CVQ.pdb
     RDKit          3D

 23 22  0  0  1  0  0  0  0  0999 V2000
    9.1423  -17.8284   16.8922 N   0  0  0  0  0  0  0  0  0  0  0  0
    8.1966  -17.5898   17.9479 C   0  0  1  0  0  0  0  0  0  0  0  0
    7.9037  -18.8797   18.6482 C   0  0  0  0  0  0  0  0  0  0  0  0
    6.5933  -18.6131   19.8920 S   0  0  0  0  0  0  0  0  0  0  0  0
    8.8061  -16.6467   18.9355 C   0  0  0  0  0  0  0  0  0  0  0  0
   10.0106  -16.7599   19.1786 O   0  0  0  0  0  0  0  0  0  0  0  0
    7.5450  -12.7988   19.3731 C   0  0  0  0  0  0  0  0  0  0  0  0
    7.3989  -13.5936   20.6593 C   0  0  2  0  0  0  0  0  0  0  0  0
    7.8263  -12.6467   21.7613 C   0  0  0  0  0  0  0  0  0  0  0  0
    8.4127  -14.7265   20.5890 C   0  0  2  0  0  0  0  0  0  0  0  0
    8.0292  -15.6810   19.5502 N   0  0  0  0  0  0  0  0  0  0  0  0
    8.6594  -15.4283   21.8466 C   0  0  0  0  0  0  0  0  0  0  0  0
    7.6918  -16.1465   22.3341 O   0  0  0  0  0  0  0  0  0  0  0  0
   10.4673  -20.6157   22.9046 N   0  0  0  0  0  0  0  0  0  0  0  0
   11.4608  -19.6351   22.6404 C   0  0  0  0  0  0  0  0  0  0  0  0
   12.5189  -20.0614   22.1163 O   0  0  0  0  0  0  0  0  0  0  0  0
   11.3158  -18.2158   22.9350 C   0  0  0  0  0  0  0  0  0  0  0  0
   10.0018  -17.7655   23.4526 C   0  0  0  0  0  0  0  0  0  0  0  0
    9.9611  -16.3275   23.8149 C   0  0  2  0  0  0  0  0  0  0  0  0
    9.8099  -15.4583   22.6412 N   0  0  0  0  0  0  0  0  0  0  0  0
   11.0516  -15.9021   24.7068 C   0  0  0  0  0  0  0  0  0  0  0  0
   11.1686  -16.4446   25.9664 O   0  0  0  0  0  0  0  0  0  0  0  0
   11.8733  -15.0508   24.3288 O   0  0  0  0  0  0  0  0  0  0  0  0
  2  5  1  0
  2  3  1  0
  2  1  1  6
  3  4  1  0
  5  6  2  0
  8  7  1  6
  8 10  1  0
  9  8  1  0
 10 12  1  0
 10 11  1  6
 11  5  1  0
 12 13  2  0
 12 20  1  0
 15 14  1  0
 16 15  2  0
 17 15  1  0
 18 17  1  0
 19 18  1  6
 20 19  1  0
 21 22  1  0
 21 19  1  0
 23 21  2  0
M  END
$$$$
