CVQ.pdb
     RDKit          3D

 23 22  0  0  1  0  0  0  0  0999 V2000
    6.0684  -16.7465   23.0198 N   0  0  0  0  0  0  0  0  0  0  0  0
    6.9969  -16.0313   22.1879 C   0  0  1  0  0  0  0  0  0  0  0  0
    6.2467  -15.3423   21.0913 C   0  0  0  0  0  0  0  0  0  0  0  0
    7.4314  -14.5742   19.9328 S   0  0  0  0  0  0  0  0  0  0  0  0
    7.6810  -14.9905   23.0154 C   0  0  0  0  0  0  0  0  0  0  0  0
    8.6914  -14.4536   22.5531 O   0  0  0  0  0  0  0  0  0  0  0  0
    5.5416  -12.7394   25.7765 C   0  0  0  0  0  0  0  0  0  0  0  0
    6.7279  -13.4851   26.3630 C   0  0  2  0  0  0  0  0  0  0  0  0
    7.3464  -12.5258   27.3584 C   0  0  0  0  0  0  0  0  0  0  0  0
    7.7184  -13.6913   25.2261 C   0  0  2  0  0  0  0  0  0  0  0  0
    7.1836  -14.6502   24.2607 N   0  0  0  0  0  0  0  0  0  0  0  0
    9.0657  -14.0870   25.6300 C   0  0  0  0  0  0  0  0  0  0  0  0
    9.7547  -13.2403   26.3358 O   0  0  0  0  0  0  0  0  0  0  0  0
   10.4908  -17.5787   30.6916 N   0  0  0  0  0  0  0  0  0  0  0  0
   11.0148  -16.4352   30.0309 C   0  0  0  0  0  0  0  0  0  0  0  0
   11.1702  -15.4170   30.7485 O   0  0  0  0  0  0  0  0  0  0  0  0
   11.3676  -16.3901   28.6182 C   0  0  0  0  0  0  0  0  0  0  0  0
   10.3632  -15.8176   27.6904 C   0  0  0  0  0  0  0  0  0  0  0  0
   10.7915  -15.8158   26.2701 C   0  0  2  0  0  0  0  0  0  0  0  0
    9.7618  -15.2730   25.3753 N   0  0  0  0  0  0  0  0  0  0  0  0
   11.3349  -17.1021   25.8054 C   0  0  0  0  0  0  0  0  0  0  0  0
   12.5633  -17.5366   26.2490 O   0  0  0  0  0  0  0  0  0  0  0  0
   10.6887  -17.8037   25.0099 O   0  0  0  0  0  0  0  0  0  0  0  0
  2  5  1  0
  2  3  1  0
  2  1  1  1
  3  4  1  0
  5  6  2  0
  8  7  1  6
  8 10  1  0
  9  8  1  0
 10 12  1  0
 10 11  1  6
 11  5  1  0
 12 13  2  0
 12 20  1  0
 15 14  1  0
 16 15  2  0
 17 15  1  0
 18 17  1  0
 19 18  1  1
 20 19  1  0
 21 22  1  0
 21 19  1  0
 23 21  2  0
M  END
$$$$
