CVQ.pdb
     RDKit          3D

 23 22  0  0  1  0  0  0  0  0999 V2000
    7.6677  -14.3519   20.3817 N   0  0  0  0  0  0  0  0  0  0  0  0
    7.0014  -14.8599   21.5495 C   0  0  1  0  0  0  0  0  0  0  0  0
    6.9158  -16.3514   21.4585 C   0  0  0  0  0  0  0  0  0  0  0  0
    6.0269  -17.0000   22.9160 S   0  0  0  0  0  0  0  0  0  0  0  0
    7.8112  -14.5083   22.7564 C   0  0  0  0  0  0  0  0  0  0  0  0
    9.0409  -14.5473   22.6615 O   0  0  0  0  0  0  0  0  0  0  0  0
    6.5942  -11.7325   25.4466 C   0  0  0  0  0  0  0  0  0  0  0  0
    6.8010  -13.0854   26.1056 C   0  0  2  0  0  0  0  0  0  0  0  0
    7.4748  -12.7834   27.4279 C   0  0  0  0  0  0  0  0  0  0  0  0
    7.7886  -13.8481   25.2344 C   0  0  2  0  0  0  0  0  0  0  0  0
    7.1854  -14.1518   23.9377 N   0  0  0  0  0  0  0  0  0  0  0  0
    8.3403  -15.0647   25.8265 C   0  0  0  0  0  0  0  0  0  0  0  0
    7.5167  -16.0391   26.0753 O   0  0  0  0  0  0  0  0  0  0  0  0
   11.9728  -19.0222   22.9936 N   0  0  0  0  0  0  0  0  0  0  0  0
   12.1397  -17.9522   23.9131 C   0  0  0  0  0  0  0  0  0  0  0  0
   13.3168  -17.5414   24.0606 O   0  0  0  0  0  0  0  0  0  0  0  0
   11.0542  -17.3327   24.6615 C   0  0  0  0  0  0  0  0  0  0  0  0
   11.1979  -17.2764   26.1358 C   0  0  0  0  0  0  0  0  0  0  0  0
   10.0575  -16.6241   26.8247 C   0  0  2  0  0  0  0  0  0  0  0  0
    9.6593  -15.3662   26.1805 N   0  0  0  0  0  0  0  0  0  0  0  0
   10.2309  -16.4930   28.2802 C   0  0  0  0  0  0  0  0  0  0  0  0
   10.4751  -17.6061   29.0523 O   0  0  0  0  0  0  0  0  0  0  0  0
   10.1580  -15.3774   28.8213 O   0  0  0  0  0  0  0  0  0  0  0  0
  2  5  1  0
  2  3  1  0
  2  1  1  6
  3  4  1  0
  5  6  2  0
  8  7  1  6
  8 10  1  0
  9  8  1  0
 10 12  1  0
 10 11  1  6
 11  5  1  0
 12 13  2  0
 12 20  1  0
 15 14  1  0
 16 15  2  0
 17 15  1  0
 18 17  1  0
 19 18  1  6
 20 19  1  0
 21 22  1  0
 21 19  1  0
 23 21  2  0
M  END
$$$$
