CVQ.pdb
     RDKit          3D

 23 22  0  0  1  0  0  0  0  0999 V2000
    7.6869  -14.9267   20.4889 N   0  0  0  0  0  0  0  0  0  0  0  0
    6.8881  -15.1214   21.6677 C   0  0  1  0  0  0  0  0  0  0  0  0
    6.5448  -16.5725   21.7965 C   0  0  0  0  0  0  0  0  0  0  0  0
    5.3230  -17.0248   20.5167 S   0  0  0  0  0  0  0  0  0  0  0  0
    7.6904  -14.7202   22.8642 C   0  0  0  0  0  0  0  0  0  0  0  0
    8.9138  -14.8761   22.8211 O   0  0  0  0  0  0  0  0  0  0  0  0
    6.6993  -11.5842   25.1974 C   0  0  0  0  0  0  0  0  0  0  0  0
    6.7330  -12.8674   26.0094 C   0  0  2  0  0  0  0  0  0  0  0  0
    7.3998  -12.4922   27.3165 C   0  0  0  0  0  0  0  0  0  0  0  0
    7.6515  -13.8282   25.2682 C   0  0  2  0  0  0  0  0  0  0  0  0
    7.0650  -14.1912   23.9791 N   0  0  0  0  0  0  0  0  0  0  0  0
    8.0265  -15.0335   26.0042 C   0  0  0  0  0  0  0  0  0  0  0  0
    7.2062  -16.0412   25.9653 O   0  0  0  0  0  0  0  0  0  0  0  0
   13.4194  -18.5232   25.7968 N   0  0  0  0  0  0  0  0  0  0  0  0
   12.1197  -18.3736   25.2429 C   0  0  0  0  0  0  0  0  0  0  0  0
   11.7374  -19.3064   24.4948 O   0  0  0  0  0  0  0  0  0  0  0  0
   11.2440  -17.2365   25.4928 C   0  0  0  0  0  0  0  0  0  0  0  0
    9.9153  -17.5257   26.0829 C   0  0  0  0  0  0  0  0  0  0  0  0
    9.5560  -16.6370   27.2151 C   0  0  2  0  0  0  0  0  0  0  0  0
    9.1674  -15.2927   26.7704 N   0  0  0  0  0  0  0  0  0  0  0  0
   10.5489  -16.6170   28.3011 C   0  0  0  0  0  0  0  0  0  0  0  0
   10.8258  -17.7648   29.0084 O   0  0  0  0  0  0  0  0  0  0  0  0
   11.1433  -15.5644   28.5863 O   0  0  0  0  0  0  0  0  0  0  0  0
  2  5  1  0
  2  3  1  0
  2  1  1  6
  3  4  1  0
  5  6  2  0
  8  7  1  6
  8 10  1  0
  9  8  1  0
 10 12  1  0
 10 11  1  6
 11  5  1  0
 12 13  2  0
 12 20  1  0
 15 14  1  0
 16 15  2  0
 17 15  1  0
 18 17  1  0
 19 18  1  6
 20 19  1  0
 21 22  1  0
 21 19  1  0
 23 21  2  0
M  END
$$$$
