CVQ.pdb
     RDKit          3D

 23 22  0  0  1  0  0  0  0  0999 V2000
    5.0603  -18.9537   19.9334 N   0  0  0  0  0  0  0  0  0  0  0  0
    4.8146  -17.6286   20.4326 C   0  0  1  0  0  0  0  0  0  0  0  0
    4.0367  -17.7187   21.7081 C   0  0  0  0  0  0  0  0  0  0  0  0
    4.5957  -19.1733   22.6605 S   0  0  0  0  0  0  0  0  0  0  0  0
    6.1267  -16.9748   20.7275 C   0  0  0  0  0  0  0  0  0  0  0  0
    7.1037  -17.7006   20.9319 O   0  0  0  0  0  0  0  0  0  0  0  0
    6.9076  -13.1862   19.2769 C   0  0  0  0  0  0  0  0  0  0  0  0
    7.0963  -13.3089   20.7791 C   0  0  2  0  0  0  0  0  0  0  0  0
    8.3401  -12.5025   21.0897 C   0  0  0  0  0  0  0  0  0  0  0  0
    7.3989  -14.7733   21.0621 C   0  0  2  0  0  0  0  0  0  0  0  0
    6.2266  -15.5954   20.7666 N   0  0  0  0  0  0  0  0  0  0  0  0
    7.8884  -15.0657   22.4074 C   0  0  0  0  0  0  0  0  0  0  0  0
    7.0113  -15.1353   23.3644 O   0  0  0  0  0  0  0  0  0  0  0  0
    8.1948  -19.8840   25.3822 N   0  0  0  0  0  0  0  0  0  0  0  0
    7.7905  -18.6990   26.0537 C   0  0  0  0  0  0  0  0  0  0  0  0
    7.0911  -18.8693   27.0822 O   0  0  0  0  0  0  0  0  0  0  0  0
    8.1362  -17.3505   25.6244 C   0  0  0  0  0  0  0  0  0  0  0  0
    8.8612  -17.2175   24.3384 C   0  0  0  0  0  0  0  0  0  0  0  0
    9.5136  -15.8983   24.1517 C   0  0  2  0  0  0  0  0  0  0  0  0
    9.1945  -15.2947   22.8518 N   0  0  0  0  0  0  0  0  0  0  0  0
   10.9552  -15.8942   24.4474 C   0  0  0  0  0  0  0  0  0  0  0  0
   11.4004  -16.1202   25.7301 O   0  0  0  0  0  0  0  0  0  0  0  0
   11.7793  -15.6869   23.5417 O   0  0  0  0  0  0  0  0  0  0  0  0
  2  5  1  0
  2  3  1  0
  2  1  1  1
  3  4  1  0
  5  6  2  0
  8  7  1  6
  8 10  1  0
  9  8  1  0
 10 12  1  0
 10 11  1  1
 11  5  1  0
 12 13  2  0
 12 20  1  0
 15 14  1  0
 16 15  2  0
 17 15  1  0
 18 17  1  0
 19 18  1  6
 20 19  1  0
 21 22  1  0
 21 19  1  0
 23 21  2  0
M  END
$$$$
