CVQ.pdb
     RDKit          3D

 23 22  0  0  1  0  0  0  0  0999 V2000
    5.0503  -13.3336   26.1637 N   0  0  0  0  0  0  0  0  0  0  0  0
    6.3303  -12.9403   25.6418 C   0  0  1  0  0  0  0  0  0  0  0  0
    7.2640  -12.6679   26.7794 C   0  0  0  0  0  0  0  0  0  0  0  0
    8.8363  -12.0029   26.1306 S   0  0  0  0  0  0  0  0  0  0  0  0
    6.8886  -14.0692   24.8355 C   0  0  0  0  0  0  0  0  0  0  0  0
    6.8118  -15.2090   25.3023 O   0  0  0  0  0  0  0  0  0  0  0  0
    6.7121  -13.8142   20.8578 C   0  0  0  0  0  0  0  0  0  0  0  0
    8.1307  -14.1643   21.2727 C   0  0  2  0  0  0  0  0  0  0  0  0
    8.5738  -15.2392   20.3022 C   0  0  0  0  0  0  0  0  0  0  0  0
    8.0384  -14.7867   22.6585 C   0  0  2  0  0  0  0  0  0  0  0  0
    7.4709  -13.8270   23.6042 N   0  0  0  0  0  0  0  0  0  0  0  0
    9.2867  -15.3316   23.1874 C   0  0  0  0  0  0  0  0  0  0  0  0
   10.2285  -14.4893   23.4933 O   0  0  0  0  0  0  0  0  0  0  0  0
   10.7002  -20.0530   27.0926 N   0  0  0  0  0  0  0  0  0  0  0  0
   10.0841  -18.7737   27.1415 C   0  0  0  0  0  0  0  0  0  0  0  0
    9.3950  -18.5415   28.1648 O   0  0  0  0  0  0  0  0  0  0  0  0
   10.2102  -17.7588   26.1040 C   0  0  0  0  0  0  0  0  0  0  0  0
   10.9675  -18.1311   24.8853 C   0  0  0  0  0  0  0  0  0  0  0  0
   10.9949  -17.0698   23.8491 C   0  0  2  0  0  0  0  0  0  0  0  0
    9.6482  -16.6605   23.4310 N   0  0  0  0  0  0  0  0  0  0  0  0
   11.8837  -17.3625   22.7134 C   0  0  0  0  0  0  0  0  0  0  0  0
   13.2444  -17.1959   22.8371 O   0  0  0  0  0  0  0  0  0  0  0  0
   11.4119  -17.7617   21.6360 O   0  0  0  0  0  0  0  0  0  0  0  0
  2  5  1  0
  2  3  1  0
  2  1  1  1
  3  4  1  0
  5  6  2  0
  8  7  1  6
  8 10  1  0
  9  8  1  0
 10 12  1  0
 10 11  1  1
 11  5  1  0
 12 13  2  0
 12 20  1  0
 15 14  1  0
 16 15  2  0
 17 15  1  0
 18 17  1  0
 19 18  1  1
 20 19  1  0
 21 22  1  0
 21 19  1  0
 23 21  2  0
M  END
$$$$
