CVQ.pdb
     RDKit          3D

 23 22  0  0  1  0  0  0  0  0999 V2000
    8.9728  -17.4238   15.8973 N   0  0  0  0  0  0  0  0  0  0  0  0
    8.0193  -17.1700   16.9424 C   0  0  1  0  0  0  0  0  0  0  0  0
    7.5067  -18.4738   17.4693 C   0  0  0  0  0  0  0  0  0  0  0  0
    6.3946  -19.2336   16.2360 S   0  0  0  0  0  0  0  0  0  0  0  0
    8.7083  -16.4506   18.0577 C   0  0  0  0  0  0  0  0  0  0  0  0
    9.9245  -16.6133   18.1892 O   0  0  0  0  0  0  0  0  0  0  0  0
    7.1937  -12.8682   19.3206 C   0  0  0  0  0  0  0  0  0  0  0  0
    7.4017  -13.8401   20.4692 C   0  0  2  0  0  0  0  0  0  0  0  0
    7.9650  -13.0038   21.5992 C   0  0  0  0  0  0  0  0  0  0  0  0
    8.4783  -14.8188   20.0226 C   0  0  2  0  0  0  0  0  0  0  0  0
    7.9897  -15.6303   18.9089 N   0  0  0  0  0  0  0  0  0  0  0  0
    9.0179  -15.6816   21.0711 C   0  0  0  0  0  0  0  0  0  0  0  0
    8.3431  -16.7497   21.3772 O   0  0  0  0  0  0  0  0  0  0  0  0
    9.6093  -20.2485   22.3706 N   0  0  0  0  0  0  0  0  0  0  0  0
   10.9253  -19.9770   22.8322 C   0  0  0  0  0  0  0  0  0  0  0  0
   11.3298  -20.6997   23.7756 O   0  0  0  0  0  0  0  0  0  0  0  0
   11.7932  -18.9432   22.2843 C   0  0  0  0  0  0  0  0  0  0  0  0
   11.1355  -17.7963   21.6138 C   0  0  0  0  0  0  0  0  0  0  0  0
   10.8380  -16.6615   22.5217 C   0  0  2  0  0  0  0  0  0  0  0  0
   10.1868  -15.5440   21.8265 N   0  0  0  0  0  0  0  0  0  0  0  0
   11.9807  -16.2363   23.3456 C   0  0  0  0  0  0  0  0  0  0  0  0
   12.4541  -14.9466   23.2618 O   0  0  0  0  0  0  0  0  0  0  0  0
   12.5254  -17.0384   24.1220 O   0  0  0  0  0  0  0  0  0  0  0  0
  2  5  1  0
  2  3  1  0
  2  1  1  6
  3  4  1  0
  5  6  2  0
  8  7  1  6
  8 10  1  0
  9  8  1  0
 10 12  1  0
 10 11  1  6
 11  5  1  0
 12 13  2  0
 12 20  1  0
 15 14  1  0
 16 15  2  0
 17 15  1  0
 18 17  1  0
 19 18  1  6
 20 19  1  0
 21 22  1  0
 21 19  1  0
 23 21  2  0
M  END
$$$$
