TSA.pdb
     RDKit          3D

 19 18  0  0  1  0  0  0  0  0999 V2000
   24.1777   -8.8531  -18.1272 C   0  0  0  0  0  0  0  0  0  0  0  0
   23.4688  -10.1637  -18.3667 C   0  0  1  0  0  0  0  0  0  0  0  0
   24.3382  -11.1910  -18.6683 O   0  0  0  0  0  0  0  0  0  0  0  0
   22.7370  -10.5304  -17.0880 C   0  0  2  0  0  0  0  0  0  0  0  0
   22.1819  -11.8909  -17.2001 N   0  0  0  0  0  0  0  0  0  0  0  0
   21.6147   -9.6411  -16.7754 C   0  0  0  0  0  0  0  0  0  0  0  0
   20.5944   -9.5397  -17.5442 O   0  0  0  0  0  0  0  0  0  0  0  0
   19.3905   -9.2642  -13.6680 O   0  0  0  0  0  0  0  0  0  0  0  0
   20.0778   -8.0907  -13.8937 C   0  0  0  0  0  0  0  0  0  0  0  0
   20.4252   -7.8925  -15.3768 C   0  0  2  0  0  0  0  0  0  0  0  0
   21.5297   -8.8157  -15.6225 N   0  0  0  0  0  0  0  0  0  0  0  0
   20.8362   -6.5132  -15.6456 C   0  0  0  0  0  0  0  0  0  0  0  0
   21.9147   -6.0860  -15.1766 O   0  0  0  0  0  0  0  0  0  0  0  0
   19.4143   -3.7118  -17.7264 C   0  0  0  0  0  0  0  0  0  0  0  0
   20.4063   -4.3003  -16.7386 C   0  0  2  0  0  0  0  0  0  0  0  0
   20.0397   -5.6435  -16.4280 N   0  0  0  0  0  0  0  0  0  0  0  0
   20.4676   -3.5074  -15.4922 C   0  0  0  0  0  0  0  0  0  0  0  0
   19.8454   -3.8829  -14.3077 O   0  0  0  0  0  0  0  0  0  0  0  0
   21.1107   -2.4368  -15.4859 O   0  0  0  0  0  0  0  0  0  0  0  0
  2  3  1  0
  2  1  1  1
  4  2  1  0
  4  5  1  6
  6 11  1  0
  6  4  1  0
  7  6  2  0
  9  8  1  0
 10  9  1  1
 10 11  1  0
 10 12  1  0
 12 16  1  0
 13 12  2  0
 15 14  1  6
 15 17  1  0
 16 15  1  0
 17 19  2  0
 17 18  1  0
M  END
$$$$
