TSA.pdb
     RDKit          3D

 19 18  0  0  1  0  0  0  0  0999 V2000
   19.5871   -7.5717  -18.8758 C   0  0  0  0  0  0  0  0  0  0  0  0
   19.0278   -8.7657  -18.1416 C   0  0  1  0  0  0  0  0  0  0  0  0
   19.0214   -9.9090  -18.9131 O   0  0  0  0  0  0  0  0  0  0  0  0
   19.9145   -9.0200  -16.9357 C   0  0  2  0  0  0  0  0  0  0  0  0
   19.4686  -10.2357  -16.2325 N   0  0  0  0  0  0  0  0  0  0  0  0
   19.8978   -7.9333  -15.9523 C   0  0  0  0  0  0  0  0  0  0  0  0
   18.8453   -7.6401  -15.2825 O   0  0  0  0  0  0  0  0  0  0  0  0
   22.4855   -4.8446  -13.2241 O   0  0  0  0  0  0  0  0  0  0  0  0
   22.3538   -5.8988  -14.1025 C   0  0  0  0  0  0  0  0  0  0  0  0
   20.9390   -5.9945  -14.6931 C   0  0  2  0  0  0  0  0  0  0  0  0
   21.0089   -7.1064  -15.6372 N   0  0  0  0  0  0  0  0  0  0  0  0
   20.5661   -4.7567  -15.3804 C   0  0  0  0  0  0  0  0  0  0  0  0
   21.1275   -4.4530  -16.4566 O   0  0  0  0  0  0  0  0  0  0  0  0
   17.7728   -2.2990  -14.9915 C   0  0  0  0  0  0  0  0  0  0  0  0
   19.1412   -2.7005  -15.5136 C   0  0  2  0  0  0  0  0  0  0  0  0
   19.5798   -3.8879  -14.8558 N   0  0  0  0  0  0  0  0  0  0  0  0
   20.1378   -1.6281  -15.3071 C   0  0  0  0  0  0  0  0  0  0  0  0
   21.2469   -1.7547  -14.4796 O   0  0  0  0  0  0  0  0  0  0  0  0
   19.9898   -0.5402  -15.9026 O   0  0  0  0  0  0  0  0  0  0  0  0
  2  3  1  0
  2  1  1  6
  4  2  1  0
  4  5  1  1
  6 11  1  0
  6  4  1  0
  7  6  2  0
  9  8  1  0
 10  9  1  6
 10 11  1  0
 10 12  1  0
 12 16  1  0
 13 12  2  0
 15 14  1  1
 15 17  1  0
 16 15  1  0
 17 19  2  0
 17 18  1  0
M  END
$$$$
