TSA.pdb
     RDKit          3D

 19 18  0  0  1  0  0  0  0  0999 V2000
   16.4164   -7.9000  -16.8779 C   0  0  0  0  0  0  0  0  0  0  0  0
   15.8566   -8.7037  -15.7297 C   0  0  1  0  0  0  0  0  0  0  0  0
   14.6464   -9.2919  -16.0328 O   0  0  0  0  0  0  0  0  0  0  0  0
   16.8487   -9.8095  -15.4164 C   0  0  2  0  0  0  0  0  0  0  0  0
   16.3146  -10.6756  -14.3505 N   0  0  0  0  0  0  0  0  0  0  0  0
   18.1492   -9.3199  -14.9505 C   0  0  0  0  0  0  0  0  0  0  0  0
   18.2893   -8.7389  -13.8168 O   0  0  0  0  0  0  0  0  0  0  0  0
   22.9754   -9.1576  -15.7997 O   0  0  0  0  0  0  0  0  0  0  0  0
   21.6930   -9.5570  -16.1095 C   0  0  0  0  0  0  0  0  0  0  0  0
   20.6444   -8.9310  -15.1778 C   0  0  2  0  0  0  0  0  0  0  0  0
   19.3653   -9.4288  -15.6764 N   0  0  0  0  0  0  0  0  0  0  0  0
   20.6875   -7.4688  -15.2370 C   0  0  0  0  0  0  0  0  0  0  0  0
   20.1181   -6.8702  -16.1768 O   0  0  0  0  0  0  0  0  0  0  0  0
   22.0259   -4.7860  -12.9590 C   0  0  0  0  0  0  0  0  0  0  0  0
   21.4377   -5.2839  -14.2675 C   0  0  2  0  0  0  0  0  0  0  0  0
   21.3612   -6.7083  -14.2518 N   0  0  0  0  0  0  0  0  0  0  0  0
   22.2450   -4.8484  -15.4270 C   0  0  0  0  0  0  0  0  0  0  0  0
   23.1922   -5.6502  -16.0523 O   0  0  0  0  0  0  0  0  0  0  0  0
   22.0791   -3.6976  -15.8832 O   0  0  0  0  0  0  0  0  0  0  0  0
  2  3  1  0
  2  1  1  6
  4  2  1  0
  4  5  1  1
  6 11  1  0
  6  4  1  0
  7  6  2  0
  9  8  1  0
 10  9  1  6
 10 11  1  0
 10 12  1  0
 12 16  1  0
 13 12  2  0
 15 14  1  1
 15 17  1  0
 16 15  1  0
 17 19  2  0
 17 18  1  0
M  END
$$$$
