TSA.pdb
     RDKit          3D

 19 18  0  0  1  0  0  0  0  0999 V2000
   20.1560   -9.6647  -19.6055 C   0  0  0  0  0  0  0  0  0  0  0  0
   19.3888  -10.9036  -19.2130 C   0  0  1  0  0  0  0  0  0  0  0  0
   19.6193  -11.9638  -20.0646 O   0  0  0  0  0  0  0  0  0  0  0  0
   19.8510  -11.3095  -17.8250 C   0  0  2  0  0  0  0  0  0  0  0  0
   19.1739  -12.5521  -17.4141 N   0  0  0  0  0  0  0  0  0  0  0  0
   19.5627  -10.3103  -16.7921 C   0  0  0  0  0  0  0  0  0  0  0  0
   18.3638  -10.0175  -16.4468 O   0  0  0  0  0  0  0  0  0  0  0  0
   19.6139  -10.1506  -13.2778 O   0  0  0  0  0  0  0  0  0  0  0  0
   20.5999   -9.2963  -13.7231 C   0  0  0  0  0  0  0  0  0  0  0  0
   20.2203   -8.6007  -15.0390 C   0  0  2  0  0  0  0  0  0  0  0  0
   20.5454   -9.5749  -16.0772 N   0  0  0  0  0  0  0  0  0  0  0  0
   20.9885   -7.3688  -15.2286 C   0  0  0  0  0  0  0  0  0  0  0  0
   22.1665   -7.4318  -15.6459 O   0  0  0  0  0  0  0  0  0  0  0  0
   20.1264   -3.7092  -15.0336 C   0  0  0  0  0  0  0  0  0  0  0  0
   21.0913   -4.8656  -15.2281 C   0  0  2  0  0  0  0  0  0  0  0  0
   20.4298   -6.0987  -14.9505 N   0  0  0  0  0  0  0  0  0  0  0  0
   22.2770   -4.7370  -14.3544 C   0  0  0  0  0  0  0  0  0  0  0  0
   23.4352   -4.0621  -14.7203 O   0  0  0  0  0  0  0  0  0  0  0  0
   22.2532   -5.2586  -13.2197 O   0  0  0  0  0  0  0  0  0  0  0  0
  2  3  1  0
  2  1  1  6
  4  2  1  0
  4  5  1  1
  6 11  1  0
  6  4  1  0
  7  6  2  0
  9  8  1  0
 10  9  1  1
 10 11  1  0
 10 12  1  0
 12 16  1  0
 13 12  2  0
 15 14  1  1
 15 17  1  0
 16 15  1  0
 17 19  2  0
 17 18  1  0
M  END
$$$$
