TSA.pdb
     RDKit          3D

 19 18  0  0  1  0  0  0  0  0999 V2000
   17.9558  -11.5703  -19.2921 C   0  0  0  0  0  0  0  0  0  0  0  0
   18.1768  -10.4255  -18.3339 C   0  0  1  0  0  0  0  0  0  0  0  0
   17.0216   -9.7174  -18.0761 O   0  0  0  0  0  0  0  0  0  0  0  0
   18.6681  -11.0125  -17.0227 C   0  0  2  0  0  0  0  0  0  0  0  0
   17.6688  -11.9548  -16.4891 N   0  0  0  0  0  0  0  0  0  0  0  0
   18.9026  -10.0101  -15.9793 C   0  0  0  0  0  0  0  0  0  0  0  0
   17.9525   -9.5552  -15.2495 O   0  0  0  0  0  0  0  0  0  0  0  0
   22.5977   -9.3484  -14.3807 O   0  0  0  0  0  0  0  0  0  0  0  0
   21.4360   -9.0482  -13.7022 C   0  0  0  0  0  0  0  0  0  0  0  0
   20.3621   -8.4448  -14.6199 C   0  0  2  0  0  0  0  0  0  0  0  0
   20.1675   -9.4452  -15.6658 N   0  0  0  0  0  0  0  0  0  0  0  0
   20.8092   -7.1756  -15.1967 C   0  0  0  0  0  0  0  0  0  0  0  0
   21.4499   -7.1756  -16.2715 O   0  0  0  0  0  0  0  0  0  0  0  0
   19.9959   -3.5905  -14.6300 C   0  0  0  0  0  0  0  0  0  0  0  0
   20.9560   -4.6773  -15.0809 C   0  0  2  0  0  0  0  0  0  0  0  0
   20.5339   -5.9389  -14.5661 N   0  0  0  0  0  0  0  0  0  0  0  0
   22.3378   -4.4018  -14.6331 C   0  0  0  0  0  0  0  0  0  0  0  0
   23.2624   -3.6833  -15.3813 O   0  0  0  0  0  0  0  0  0  0  0  0
   22.7120   -4.8320  -13.5218 O   0  0  0  0  0  0  0  0  0  0  0  0
  2  3  1  0
  2  1  1  6
  4  2  1  0
  4  5  1  1
  6 11  1  0
  6  4  1  0
  7  6  2  0
  9  8  1  0
 10  9  1  1
 10 11  1  0
 10 12  1  0
 12 16  1  0
 13 12  2  0
 15 14  1  1
 15 17  1  0
 16 15  1  0
 17 19  2  0
 17 18  1  0
M  END
$$$$
