TSA.pdb
     RDKit          3D

 19 18  0  0  1  0  0  0  0  0999 V2000
   19.1553  -11.0391  -19.3413 C   0  0  0  0  0  0  0  0  0  0  0  0
   19.0717  -10.2189  -18.0773 C   0  0  1  0  0  0  0  0  0  0  0  0
   19.4885  -10.9161  -16.9626 O   0  0  0  0  0  0  0  0  0  0  0  0
   19.9860   -9.0188  -18.2474 C   0  0  2  0  0  0  0  0  0  0  0  0
   21.3910   -9.4608  -18.2927 N   0  0  0  0  0  0  0  0  0  0  0  0
   19.8856   -8.0424  -17.1588 C   0  0  0  0  0  0  0  0  0  0  0  0
   18.7730   -7.4910  -16.8421 O   0  0  0  0  0  0  0  0  0  0  0  0
   22.0553   -5.9445  -13.3248 O   0  0  0  0  0  0  0  0  0  0  0  0
   22.0451   -6.8133  -14.3949 C   0  0  0  0  0  0  0  0  0  0  0  0
   20.8509   -6.5741  -15.3310 C   0  0  2  0  0  0  0  0  0  0  0  0
   20.9732   -7.6082  -16.3549 N   0  0  0  0  0  0  0  0  0  0  0  0
   20.9083   -5.2413  -15.9343 C   0  0  0  0  0  0  0  0  0  0  0  0
   21.6790   -5.0303  -16.8971 O   0  0  0  0  0  0  0  0  0  0  0  0
   18.8069   -2.1543  -15.6022 C   0  0  0  0  0  0  0  0  0  0  0  0
   20.0493   -2.8918  -16.0698 C   0  0  2  0  0  0  0  0  0  0  0  0
   20.1088   -4.1770  -15.4536 N   0  0  0  0  0  0  0  0  0  0  0  0
   21.2808   -2.1377  -15.7523 C   0  0  0  0  0  0  0  0  0  0  0  0
   21.7521   -1.0746  -16.5131 O   0  0  0  0  0  0  0  0  0  0  0  0
   21.9474   -2.4611  -14.7469 O   0  0  0  0  0  0  0  0  0  0  0  0
  2  3  1  0
  2  1  1  6
  4  2  1  0
  4  5  1  1
  6 11  1  0
  6  4  1  0
  7  6  2  0
  9  8  1  0
 10  9  1  1
 10 11  1  0
 10 12  1  0
 12 16  1  0
 13 12  2  0
 15 14  1  1
 15 17  1  0
 16 15  1  0
 17 19  2  0
 17 18  1  0
M  END
$$$$
