TSA.pdb
     RDKit          3D

 19 18  0  0  1  0  0  0  0  0999 V2000
   44.0016   -9.6702   -9.4492 C   0  0  0  0  0  0  0  0  0  0  0  0
   43.9564  -11.0172  -10.1282 C   0  0  1  0  0  0  0  0  0  0  0  0
   45.1568  -11.6921  -10.0507 O   0  0  0  0  0  0  0  0  0  0  0  0
   42.9037  -11.8525   -9.4217 C   0  0  2  0  0  0  0  0  0  0  0  0
   42.8206  -13.1858  -10.0436 N   0  0  0  0  0  0  0  0  0  0  0  0
   41.5576  -11.2755   -9.4787 C   0  0  0  0  0  0  0  0  0  0  0  0
   40.8428  -11.3239  -10.5413 O   0  0  0  0  0  0  0  0  0  0  0  0
   37.8487   -9.2635   -7.0140 O   0  0  0  0  0  0  0  0  0  0  0  0
   39.0776   -9.8840   -7.0851 C   0  0  0  0  0  0  0  0  0  0  0  0
   39.6117   -9.9604   -8.5233 C   0  0  2  0  0  0  0  0  0  0  0  0
   40.9098  -10.6179   -8.3991 N   0  0  0  0  0  0  0  0  0  0  0  0
   39.7631   -8.6253   -9.1047 C   0  0  0  0  0  0  0  0  0  0  0  0
   40.7406   -7.9154   -8.7790 O   0  0  0  0  0  0  0  0  0  0  0  0
   37.9949   -6.7250  -11.8197 C   0  0  0  0  0  0  0  0  0  0  0  0
   38.9242   -6.8170  -10.6222 C   0  0  2  0  0  0  0  0  0  0  0  0
   38.8258   -8.1123  -10.0327 N   0  0  0  0  0  0  0  0  0  0  0  0
   38.6059   -5.7903   -9.6071 C   0  0  0  0  0  0  0  0  0  0  0  0
   37.8449   -6.0384   -8.4711 O   0  0  0  0  0  0  0  0  0  0  0  0
   39.0375   -4.6287   -9.7638 O   0  0  0  0  0  0  0  0  0  0  0  0
  2  3  1  0
  2  1  1  1
  4  2  1  0
  4  5  1  6
  6 11  1  0
  6  4  1  0
  7  6  2  0
  9  8  1  0
 10  9  1  1
 10 11  1  0
 10 12  1  0
 12 16  1  0
 13 12  2  0
 15 14  1  6
 15 17  1  0
 16 15  1  0
 17 19  2  0
 17 18  1  0
M  END
$$$$
