TSA.pdb
     RDKit          3D

 19 18  0  0  1  0  0  0  0  0999 V2000
   18.7575  -12.4225  -19.7304 C   0  0  0  0  0  0  0  0  0  0  0  0
   18.3749  -11.2348  -18.8814 C   0  0  1  0  0  0  0  0  0  0  0  0
   17.4244  -11.5447  -17.9312 O   0  0  0  0  0  0  0  0  0  0  0  0
   19.6245  -10.7663  -18.1575 C   0  0  2  0  0  0  0  0  0  0  0  0
   20.1044  -11.8230  -17.2496 N   0  0  0  0  0  0  0  0  0  0  0  0
   19.4172   -9.5684  -17.3388 C   0  0  0  0  0  0  0  0  0  0  0  0
   19.0358   -8.4559  -17.8479 O   0  0  0  0  0  0  0  0  0  0  0  0
   18.7242   -7.8187  -12.8498 O   0  0  0  0  0  0  0  0  0  0  0  0
   18.9834   -8.8341  -13.7454 C   0  0  0  0  0  0  0  0  0  0  0  0
   19.3418   -8.3045  -15.1421 C   0  0  2  0  0  0  0  0  0  0  0  0
   19.6080   -9.5030  -15.9328 N   0  0  0  0  0  0  0  0  0  0  0  0
   20.5250   -7.4436  -15.0955 C   0  0  0  0  0  0  0  0  0  0  0  0
   21.6607   -7.9575  -14.9862 O   0  0  0  0  0  0  0  0  0  0  0  0
   21.0859   -3.8154  -15.8333 C   0  0  0  0  0  0  0  0  0  0  0  0
   21.5392   -5.1615  -15.2960 C   0  0  2  0  0  0  0  0  0  0  0  0
   20.4178   -6.0345  -15.1716 N   0  0  0  0  0  0  0  0  0  0  0  0
   22.2041   -5.0264  -13.9824 C   0  0  0  0  0  0  0  0  0  0  0  0
   23.4828   -4.5089  -13.8147 O   0  0  0  0  0  0  0  0  0  0  0  0
   21.5964   -5.3933  -12.9548 O   0  0  0  0  0  0  0  0  0  0  0  0
  2  3  1  0
  2  1  1  1
  4  2  1  0
  4  5  1  1
  6 11  1  0
  6  4  1  0
  7  6  2  0
  9  8  1  0
 10  9  1  1
 10 11  1  0
 10 12  1  0
 12 16  1  0
 13 12  2  0
 15 14  1  1
 15 17  1  0
 16 15  1  0
 17 19  2  0
 17 18  1  0
M  END
$$$$
