TSA.pdb
     RDKit          3D

 19 18  0  0  1  0  0  0  0  0999 V2000
   13.9269   -8.4028  -13.9047 C   0  0  0  0  0  0  0  0  0  0  0  0
   13.6149   -9.8102  -13.4583 C   0  0  1  0  0  0  0  0  0  0  0  0
   12.2633  -10.0270  -13.2893 O   0  0  0  0  0  0  0  0  0  0  0  0
   14.1086  -10.7549  -14.5394 C   0  0  2  0  0  0  0  0  0  0  0  0
   13.8599  -12.1508  -14.1379 N   0  0  0  0  0  0  0  0  0  0  0  0
   15.5449  -10.6429  -14.8093 C   0  0  0  0  0  0  0  0  0  0  0  0
   16.4172  -11.2749  -14.1150 O   0  0  0  0  0  0  0  0  0  0  0  0
   17.0655   -8.0994  -17.7615 O   0  0  0  0  0  0  0  0  0  0  0  0
   17.6399   -9.3397  -17.5832 C   0  0  0  0  0  0  0  0  0  0  0  0
   17.5491   -9.8225  -16.1278 C   0  0  2  0  0  0  0  0  0  0  0  0
   16.1182   -9.8477  -15.8372 N   0  0  0  0  0  0  0  0  0  0  0  0
   18.2438   -8.9068  -15.2208 C   0  0  0  0  0  0  0  0  0  0  0  0
   17.6245   -7.9401  -14.7232 O   0  0  0  0  0  0  0  0  0  0  0  0
   21.7089   -8.7851  -13.7484 C   0  0  0  0  0  0  0  0  0  0  0  0
   20.3438   -8.1947  -14.0551 C   0  0  2  0  0  0  0  0  0  0  0  0
   19.6077   -9.0875  -14.8893 N   0  0  0  0  0  0  0  0  0  0  0  0
   20.4576   -6.8804  -14.7226 C   0  0  0  0  0  0  0  0  0  0  0  0
   20.6565   -5.6847  -14.0431 O   0  0  0  0  0  0  0  0  0  0  0  0
   20.3725   -6.8234  -15.9674 O   0  0  0  0  0  0  0  0  0  0  0  0
  2  3  1  0
  2  1  1  6
  4  2  1  0
  4  5  1  1
  6 11  1  0
  6  4  1  0
  7  6  2  0
  9  8  1  0
 10  9  1  6
 10 11  1  0
 10 12  1  0
 12 16  1  0
 13 12  2  0
 15 14  1  6
 15 17  1  0
 16 15  1  0
 17 19  2  0
 17 18  1  0
M  END
$$$$
