TSA.pdb
     RDKit          3D

 19 18  0  0  1  0  0  0  0  0999 V2000
   33.8098  -38.1349   -1.8604 C   0  0  0  0  0  0  0  0  0  0  0  0
   34.7700  -37.1205   -1.2890 C   0  0  1  0  0  0  0  0  0  0  0  0
   35.8621  -37.7050   -0.6823 O   0  0  0  0  0  0  0  0  0  0  0  0
   35.2747  -36.2673   -2.4390 C   0  0  2  0  0  0  0  0  0  0  0  0
   36.2189  -35.2542   -1.9354 N   0  0  0  0  0  0  0  0  0  0  0  0
   34.2143  -35.5421   -3.1446 C   0  0  0  0  0  0  0  0  0  0  0  0
   33.6479  -34.5087   -2.6411 O   0  0  0  0  0  0  0  0  0  0  0  0
   31.5291  -35.2368   -7.2449 O   0  0  0  0  0  0  0  0  0  0  0  0
   32.4668  -35.8552   -6.4459 C   0  0  0  0  0  0  0  0  0  0  0  0
   32.6452  -35.1440   -5.0960 C   0  0  2  0  0  0  0  0  0  0  0  0
   33.7078  -35.8884   -4.4257 N   0  0  0  0  0  0  0  0  0  0  0  0
   31.4116  -35.1833   -4.3085 C   0  0  0  0  0  0  0  0  0  0  0  0
   31.2314  -36.1091   -3.4862 O   0  0  0  0  0  0  0  0  0  0  0  0
   28.4268  -32.9000   -4.0055 C   0  0  0  0  0  0  0  0  0  0  0  0
   29.2332  -34.1364   -3.6491 C   0  0  2  0  0  0  0  0  0  0  0  0
   30.4098  -34.1943   -4.4536 N   0  0  0  0  0  0  0  0  0  0  0  0
   28.4458  -35.3729   -3.8412 C   0  0  0  0  0  0  0  0  0  0  0  0
   27.4792  -35.8185   -2.9478 O   0  0  0  0  0  0  0  0  0  0  0  0
   28.6481  -36.0684   -4.8587 O   0  0  0  0  0  0  0  0  0  0  0  0
  2  3  1  0
  2  1  1  6
  4  2  1  0
  4  5  1  1
  6 11  1  0
  6  4  1  0
  7  6  2  0
  9  8  1  0
 10  9  1  6
 10 11  1  0
 10 12  1  0
 12 16  1  0
 13 12  2  0
 15 14  1  6
 15 17  1  0
 16 15  1  0
 17 19  2  0
 17 18  1  0
M  END
$$$$
