DET.pdb
     RDKit          3D

 25 24  0  0  1  0  0  0  0  0999 V2000
   15.3280  -11.1069  -16.6811 N   0  0  0  0  0  0  0  0  0  0  0  0
   15.7692  -10.6131  -15.3515 C   0  0  1  0  0  0  0  0  0  0  0  0
   16.4445  -11.8029  -14.7223 C   0  0  0  0  0  0  0  0  0  0  0  0
   15.5964  -12.8351  -14.1616 C   0  0  0  0  0  0  0  0  0  0  0  0
   14.5874  -12.7317  -13.4440 O   0  0  0  0  0  0  0  0  0  0  0  0
   16.7408   -9.5318  -15.6568 C   0  0  0  0  0  0  0  0  0  0  0  0
   17.5002   -9.6709  -16.6562 O   0  0  0  0  0  0  0  0  0  0  0  0
   15.9558  -14.1718  -14.4668 O   0  0  0  0  0  0  0  0  0  0  0  0
   16.8836   -8.3424  -14.9120 N   0  0  0  0  0  0  0  0  0  0  0  0
   17.7309   -7.2340  -15.4338 C   0  0  1  0  0  0  0  0  0  0  0  0
   16.9167   -5.9848  -15.3255 C   0  0  0  0  0  0  0  0  0  0  0  0
   17.5615   -4.7094  -15.7103 C   0  0  0  0  0  0  0  0  0  0  0  0
   16.5566   -3.6174  -15.5303 C   0  0  0  0  0  0  0  0  0  0  0  0
   15.5941   -3.5335  -16.3206 O   0  0  0  0  0  0  0  0  0  0  0  0
   18.9089   -7.1606  -14.5523 C   0  0  0  0  0  0  0  0  0  0  0  0
   18.7205   -7.2268  -13.3111 O   0  0  0  0  0  0  0  0  0  0  0  0
   16.6863   -2.7141  -14.5087 O   0  0  0  0  0  0  0  0  0  0  0  0
   21.9831   -9.4164  -14.3725 C   0  0  0  0  0  0  0  0  0  0  0  0
   22.4193   -7.9850  -14.3900 C   0  0  1  0  0  0  0  0  0  0  0  0
   22.8773   -7.6748  -15.6580 O   0  0  0  0  0  0  0  0  0  0  0  0
   21.3170   -7.0131  -14.0463 C   0  0  2  0  0  0  0  0  0  0  0  0
   20.2477   -7.0248  -15.0087 N   0  0  0  0  0  0  0  0  0  0  0  0
   21.8120   -5.6489  -13.8157 C   0  0  0  0  0  0  0  0  0  0  0  0
   21.4649   -4.7277  -14.5930 O   0  0  0  0  0  0  0  0  0  0  0  0
   22.6564   -5.2972  -12.7750 O   0  0  0  0  0  0  0  0  0  0  0  0
  2  1  1  6
  2  3  1  0
  3  4  1  0
  4  5  2  0
  6  2  1  0
  7  6  2  0
  8  4  1  0
  9  6  1  0
 10  9  1  0
 10 11  1  1
 11 12  1  0
 12 13  1  0
 13 17  1  0
 14 13  2  0
 15 10  1  0
 16 15  2  0
 19 18  1  6
 19 21  1  0
 19 20  1  0
 21 22  1  6
 22 15  1  0
 23 21  1  0
 23 25  1  0
 24 23  2  0
M  END
$$$$
