DET.pdb
     RDKit          3D

 25 24  0  0  1  0  0  0  0  0999 V2000
   16.5916  -20.9831  -14.5430 N   0  0  0  0  0  0  0  0  0  0  0  0
   16.4545  -20.7299  -13.0858 C   0  0  1  0  0  0  0  0  0  0  0  0
   15.0567  -20.1904  -12.9357 C   0  0  0  0  0  0  0  0  0  0  0  0
   14.8178  -18.8242  -13.3548 C   0  0  0  0  0  0  0  0  0  0  0  0
   13.9805  -18.3730  -14.1542 O   0  0  0  0  0  0  0  0  0  0  0  0
   16.5936  -22.0689  -12.4580 C   0  0  0  0  0  0  0  0  0  0  0  0
   15.7014  -22.9339  -12.6835 O   0  0  0  0  0  0  0  0  0  0  0  0
   15.6562  -17.8386  -12.7762 O   0  0  0  0  0  0  0  0  0  0  0  0
   17.6593  -22.4599  -11.6208 N   0  0  0  0  0  0  0  0  0  0  0  0
   17.7386  -23.8609  -11.1212 C   0  0  1  0  0  0  0  0  0  0  0  0
   18.9884  -24.4497  -11.6929 C   0  0  0  0  0  0  0  0  0  0  0  0
   18.8450  -25.5753  -12.6429 C   0  0  0  0  0  0  0  0  0  0  0  0
   20.2175  -26.0244  -13.0292 C   0  0  0  0  0  0  0  0  0  0  0  0
   20.5641  -27.2017  -12.8016 O   0  0  0  0  0  0  0  0  0  0  0  0
   17.8331  -23.7745   -9.6536 C   0  0  0  0  0  0  0  0  0  0  0  0
   18.4323  -22.7859   -9.1594 O   0  0  0  0  0  0  0  0  0  0  0  0
   21.0910  -25.1555  -13.6279 O   0  0  0  0  0  0  0  0  0  0  0  0
   16.2410  -24.5858   -5.1142 C   0  0  0  0  0  0  0  0  0  0  0  0
   16.1466  -24.8405   -6.5858 C   0  0  1  0  0  0  0  0  0  0  0  0
   15.1278  -24.0635   -7.1075 O   0  0  0  0  0  0  0  0  0  0  0  0
   17.4120  -24.5097   -7.3388 C   0  0  2  0  0  0  0  0  0  0  0  0
   17.2883  -24.7308   -8.7549 N   0  0  0  0  0  0  0  0  0  0  0  0
   18.5938  -25.1921   -6.7937 C   0  0  0  0  0  0  0  0  0  0  0  0
   18.9821  -26.2642   -7.3163 O   0  0  0  0  0  0  0  0  0  0  0  0
   19.3294  -24.7251   -5.7164 O   0  0  0  0  0  0  0  0  0  0  0  0
  2  1  1  6
  2  3  1  0
  3  4  1  0
  4  5  2  0
  6  2  1  0
  7  6  2  0
  8  4  1  0
  9  6  1  0
 10  9  1  0
 10 11  1  6
 11 12  1  0
 12 13  1  0
 13 17  1  0
 14 13  2  0
 15 10  1  0
 16 15  2  0
 19 18  1  1
 19 21  1  0
 19 20  1  0
 21 22  1  6
 22 15  1  0
 23 21  1  0
 23 25  1  0
 24 23  2  0
M  END
$$$$
