DET.pdb
     RDKit          3D

 25 24  0  0  1  0  0  0  0  0999 V2000
   17.6795   -2.7551  -15.6093 N   0  0  0  0  0  0  0  0  0  0  0  0
   18.4752   -3.6115  -16.5257 C   0  0  1  0  0  0  0  0  0  0  0  0
   19.8153   -2.9287  -16.5971 C   0  0  0  0  0  0  0  0  0  0  0  0
   19.9374   -1.7840  -17.4768 C   0  0  0  0  0  0  0  0  0  0  0  0
   19.0992   -1.2752  -18.2399 O   0  0  0  0  0  0  0  0  0  0  0  0
   18.5656   -4.9211  -15.8306 C   0  0  0  0  0  0  0  0  0  0  0  0
   18.5553   -4.9331  -14.5678 O   0  0  0  0  0  0  0  0  0  0  0  0
   21.1962   -1.1325  -17.4818 O   0  0  0  0  0  0  0  0  0  0  0  0
   18.6599   -6.1717  -16.4763 N   0  0  0  0  0  0  0  0  0  0  0  0
   18.5948   -7.4283  -15.6792 C   0  0  1  0  0  0  0  0  0  0  0  0
   17.2918   -8.0807  -16.0134 C   0  0  0  0  0  0  0  0  0  0  0  0
   17.0378   -9.4299  -15.4608 C   0  0  0  0  0  0  0  0  0  0  0  0
   15.7084   -9.8882  -15.9681 C   0  0  0  0  0  0  0  0  0  0  0  0
   15.6527  -10.5732  -17.0100 O   0  0  0  0  0  0  0  0  0  0  0  0
   19.7212   -8.2647  -16.1286 C   0  0  0  0  0  0  0  0  0  0  0  0
   19.9812   -8.2909  -17.3583 O   0  0  0  0  0  0  0  0  0  0  0  0
   14.5583   -9.5620  -15.2992 O   0  0  0  0  0  0  0  0  0  0  0  0
   23.4786   -8.2614  -15.3289 C   0  0  0  0  0  0  0  0  0  0  0  0
   22.9174   -9.6365  -15.1455 C   0  0  1  0  0  0  0  0  0  0  0  0
   22.7338   -9.8656  -13.7936 O   0  0  0  0  0  0  0  0  0  0  0  0
   21.5904   -9.8444  -15.8338 C   0  0  2  0  0  0  0  0  0  0  0  0
   20.5398   -9.0423  -15.2659 N   0  0  0  0  0  0  0  0  0  0  0  0
   21.2016  -11.2597  -15.9053 C   0  0  0  0  0  0  0  0  0  0  0  0
   20.1334  -11.6334  -15.3644 O   0  0  0  0  0  0  0  0  0  0  0  0
   21.9487  -12.2367  -16.5433 O   0  0  0  0  0  0  0  0  0  0  0  0
  2  1  1  1
  2  3  1  0
  3  4  1  0
  4  5  2  0
  6  2  1  0
  7  6  2  0
  8  4  1  0
  9  6  1  0
 10  9  1  0
 10 11  1  6
 11 12  1  0
 12 13  1  0
 13 17  1  0
 14 13  2  0
 15 10  1  0
 16 15  2  0
 19 18  1  1
 19 21  1  0
 19 20  1  0
 21 22  1  1
 22 15  1  0
 23 21  1  0
 23 25  1  0
 24 23  2  0
M  END
$$$$
