DET.pdb
     RDKit          3D

 25 24  0  0  1  0  0  0  0  0999 V2000
   16.4373  -11.2200  -14.1801 N   0  0  0  0  0  0  0  0  0  0  0  0
   17.4955  -11.3040  -15.2192 C   0  0  1  0  0  0  0  0  0  0  0  0
   16.8157  -11.9744  -16.3836 C   0  0  0  0  0  0  0  0  0  0  0  0
   16.4180  -13.3580  -16.2206 C   0  0  0  0  0  0  0  0  0  0  0  0
   16.8144  -14.2082  -15.4059 O   0  0  0  0  0  0  0  0  0  0  0  0
   17.8342   -9.8903  -15.5243 C   0  0  0  0  0  0  0  0  0  0  0  0
   18.5026   -9.6442  -16.5672 O   0  0  0  0  0  0  0  0  0  0  0  0
   15.4276  -13.8321  -17.1170 O   0  0  0  0  0  0  0  0  0  0  0  0
   17.4611   -8.7833  -14.7338 N   0  0  0  0  0  0  0  0  0  0  0  0
   17.8125   -7.4035  -15.1713 C   0  0  1  0  0  0  0  0  0  0  0  0
   16.6316   -6.5413  -14.8591 C   0  0  0  0  0  0  0  0  0  0  0  0
   15.4322   -6.6837  -15.7143 C   0  0  0  0  0  0  0  0  0  0  0  0
   14.2483   -6.8482  -14.8165 C   0  0  0  0  0  0  0  0  0  0  0  0
   14.4111   -6.8378  -13.5790 O   0  0  0  0  0  0  0  0  0  0  0  0
   18.9767   -6.9956  -14.3661 C   0  0  0  0  0  0  0  0  0  0  0  0
   18.9610   -7.2531  -13.1356 O   0  0  0  0  0  0  0  0  0  0  0  0
   12.9936   -7.0093  -15.3421 O   0  0  0  0  0  0  0  0  0  0  0  0
   22.1586   -8.4347  -14.0629 C   0  0  0  0  0  0  0  0  0  0  0  0
   22.4206   -6.9852  -14.3270 C   0  0  1  0  0  0  0  0  0  0  0  0
   22.7334   -6.8261  -15.6651 O   0  0  0  0  0  0  0  0  0  0  0  0
   21.2437   -6.0923  -14.0181 C   0  0  2  0  0  0  0  0  0  0  0  0
   20.1218   -6.3339  -14.8856 N   0  0  0  0  0  0  0  0  0  0  0  0
   21.6013   -4.6672  -13.9931 C   0  0  0  0  0  0  0  0  0  0  0  0
   22.4763   -4.2653  -13.1894 O   0  0  0  0  0  0  0  0  0  0  0  0
   21.0270   -3.7103  -14.8143 O   0  0  0  0  0  0  0  0  0  0  0  0
  2  1  1  1
  2  3  1  0
  3  4  1  0
  4  5  2  0
  6  2  1  0
  7  6  2  0
  8  4  1  0
  9  6  1  0
 10  9  1  0
 10 11  1  1
 11 12  1  0
 12 13  1  0
 13 17  1  0
 14 13  2  0
 15 10  1  0
 16 15  2  0
 19 18  1  6
 19 21  1  0
 19 20  1  0
 21 22  1  6
 22 15  1  0
 23 21  1  0
 23 25  1  0
 24 23  2  0
M  END
$$$$
