DET.pdb
     RDKit          3D

 25 24  0  0  1  0  0  0  0  0999 V2000
   17.6878  -12.5013  -15.3820 N   0  0  0  0  0  0  0  0  0  0  0  0
   17.5226  -11.0862  -15.8024 C   0  0  1  0  0  0  0  0  0  0  0  0
   16.3724  -10.5863  -14.9691 C   0  0  0  0  0  0  0  0  0  0  0  0
   15.0374  -10.9937  -15.3580 C   0  0  0  0  0  0  0  0  0  0  0  0
   14.4937  -10.9724  -16.4749 O   0  0  0  0  0  0  0  0  0  0  0  0
   18.7995  -10.4303  -15.4204 C   0  0  0  0  0  0  0  0  0  0  0  0
   19.3392  -10.7573  -14.3264 O   0  0  0  0  0  0  0  0  0  0  0  0
   14.2114  -11.4951  -14.3210 O   0  0  0  0  0  0  0  0  0  0  0  0
   19.4702   -9.4600  -16.1938 N   0  0  0  0  0  0  0  0  0  0  0  0
   20.8059   -8.9589  -15.7651 C   0  0  1  0  0  0  0  0  0  0  0  0
   21.7348   -9.1764  -16.9162 C   0  0  0  0  0  0  0  0  0  0  0  0
   23.0991   -8.6121  -16.8137 C   0  0  0  0  0  0  0  0  0  0  0  0
   23.8262   -8.9432  -18.0772 C   0  0  0  0  0  0  0  0  0  0  0  0
   24.3856  -10.0532  -18.1897 O   0  0  0  0  0  0  0  0  0  0  0  0
   20.6437   -7.5193  -15.4974 C   0  0  0  0  0  0  0  0  0  0  0  0
   20.2428   -6.7871  -16.4375 O   0  0  0  0  0  0  0  0  0  0  0  0
   23.8810   -8.0398  -19.1055 O   0  0  0  0  0  0  0  0  0  0  0  0
   18.2537   -5.5502  -13.8785 C   0  0  0  0  0  0  0  0  0  0  0  0
   19.5532   -5.0819  -13.3026 C   0  0  1  0  0  0  0  0  0  0  0  0
   19.7056   -5.6322  -12.0426 O   0  0  0  0  0  0  0  0  0  0  0  0
   20.7555   -5.4737  -14.1265 C   0  0  2  0  0  0  0  0  0  0  0  0
   20.9049   -6.8996  -14.2458 N   0  0  0  0  0  0  0  0  0  0  0  0
   21.9975   -4.8448  -13.6562 C   0  0  0  0  0  0  0  0  0  0  0  0
   22.9502   -5.5682  -13.2791 O   0  0  0  0  0  0  0  0  0  0  0  0
   22.1978   -3.4750  -13.5975 O   0  0  0  0  0  0  0  0  0  0  0  0
  2  1  1  1
  2  3  1  0
  3  4  1  0
  4  5  2  0
  6  2  1  0
  7  6  2  0
  8  4  1  0
  9  6  1  0
 10  9  1  0
 10 11  1  6
 11 12  1  0
 12 13  1  0
 13 17  1  0
 14 13  2  0
 15 10  1  0
 16 15  2  0
 19 18  1  6
 19 21  1  0
 19 20  1  0
 21 22  1  1
 22 15  1  0
 23 21  1  0
 23 25  1  0
 24 23  2  0
M  END
$$$$
