DET.pdb
     RDKit          3D

 25 24  0  0  1  0  0  0  0  0999 V2000
   21.1695   -9.6589  -19.4617 N   0  0  0  0  0  0  0  0  0  0  0  0
   21.3707  -10.1662  -18.0801 C   0  0  1  0  0  0  0  0  0  0  0  0
   22.3349  -11.3110  -18.2450 C   0  0  0  0  0  0  0  0  0  0  0  0
   21.8539  -12.4994  -18.9201 C   0  0  0  0  0  0  0  0  0  0  0  0
   21.4382  -12.6397  -20.0824 O   0  0  0  0  0  0  0  0  0  0  0  0
   21.9907   -9.0305  -17.3505 C   0  0  0  0  0  0  0  0  0  0  0  0
   22.4997   -9.2514  -16.2160 O   0  0  0  0  0  0  0  0  0  0  0  0
   21.8494  -13.6926  -18.1551 O   0  0  0  0  0  0  0  0  0  0  0  0
   22.0613   -7.7062  -17.8308 N   0  0  0  0  0  0  0  0  0  0  0  0
   22.6989   -6.6460  -17.0011 C   0  0  1  0  0  0  0  0  0  0  0  0
   22.8695   -5.4535  -17.8867 C   0  0  0  0  0  0  0  0  0  0  0  0
   23.3718   -4.2059  -17.2691 C   0  0  0  0  0  0  0  0  0  0  0  0
   23.4512   -3.1662  -18.3403 C   0  0  0  0  0  0  0  0  0  0  0  0
   24.4864   -3.0762  -19.0318 O   0  0  0  0  0  0  0  0  0  0  0  0
   21.7550   -6.3479  -15.9100 C   0  0  0  0  0  0  0  0  0  0  0  0
   20.6028   -5.9519  -16.2199 O   0  0  0  0  0  0  0  0  0  0  0  0
   22.4000   -2.3172  -18.5650 O   0  0  0  0  0  0  0  0  0  0  0  0
   19.9402   -8.4084  -13.7647 C   0  0  0  0  0  0  0  0  0  0  0  0
   20.5111   -7.3763  -12.8436 C   0  0  1  0  0  0  0  0  0  0  0  0
   21.5553   -7.9419  -12.1340 O   0  0  0  0  0  0  0  0  0  0  0  0
   21.0439   -6.1579  -13.5574 C   0  0  2  0  0  0  0  0  0  0  0  0
   22.0555   -6.4820  -14.5277 N   0  0  0  0  0  0  0  0  0  0  0  0
   21.5067   -5.1134  -12.6331 C   0  0  0  0  0  0  0  0  0  0  0  0
   20.7029   -4.6238  -11.8040 O   0  0  0  0  0  0  0  0  0  0  0  0
   22.8002   -4.6173  -12.6104 O   0  0  0  0  0  0  0  0  0  0  0  0
  2  1  1  6
  2  3  1  0
  3  4  1  0
  4  5  2  0
  6  2  1  0
  7  6  2  0
  8  4  1  0
  9  6  1  0
 10  9  1  0
 10 11  1  6
 11 12  1  0
 12 13  1  0
 13 17  1  0
 14 13  2  0
 15 10  1  0
 16 15  2  0
 19 18  1  6
 19 21  1  0
 19 20  1  0
 21 22  1  6
 22 15  1  0
 23 21  1  0
 23 25  1  0
 24 23  2  0
M  END
$$$$
