DET.pdb
     RDKit          3D

 25 24  0  0  1  0  0  0  0  0999 V2000
   18.9442  -11.3859  -15.6933 N   0  0  0  0  0  0  0  0  0  0  0  0
   18.5066  -10.1968  -16.4686 C   0  0  1  0  0  0  0  0  0  0  0  0
   17.0029  -10.2653  -16.4305 C   0  0  0  0  0  0  0  0  0  0  0  0
   16.3559  -11.2475  -17.2766 C   0  0  0  0  0  0  0  0  0  0  0  0
   16.5042  -11.4726  -18.4894 O   0  0  0  0  0  0  0  0  0  0  0  0
   19.0203   -9.0363  -15.6966 C   0  0  0  0  0  0  0  0  0  0  0  0
   18.7210   -8.9488  -14.4728 O   0  0  0  0  0  0  0  0  0  0  0  0
   15.4067  -12.0882  -16.6431 O   0  0  0  0  0  0  0  0  0  0  0  0
   19.8306   -8.0106  -16.2266 N   0  0  0  0  0  0  0  0  0  0  0  0
   20.3048   -6.9062  -15.3466 C   0  0  1  0  0  0  0  0  0  0  0  0
   21.7854   -6.8155  -15.5329 C   0  0  0  0  0  0  0  0  0  0  0  0
   22.4968   -5.7111  -14.8514 C   0  0  0  0  0  0  0  0  0  0  0  0
   23.9364   -5.7817  -15.2483 C   0  0  0  0  0  0  0  0  0  0  0  0
   24.5787   -4.7248  -15.4158 O   0  0  0  0  0  0  0  0  0  0  0  0
   19.6477   -5.6790  -15.8287 C   0  0  0  0  0  0  0  0  0  0  0  0
   19.8718   -5.3169  -17.0116 O   0  0  0  0  0  0  0  0  0  0  0  0
   24.5499   -6.9933  -15.4278 O   0  0  0  0  0  0  0  0  0  0  0  0
   16.1409   -4.7201  -16.6046 C   0  0  0  0  0  0  0  0  0  0  0  0
   16.7056   -3.7035  -15.6626 C   0  0  1  0  0  0  0  0  0  0  0  0
   16.2569   -3.9836  -14.3843 O   0  0  0  0  0  0  0  0  0  0  0  0
   18.2144   -3.6835  -15.6288 C   0  0  2  0  0  0  0  0  0  0  0  0
   18.7717   -4.8764  -15.0492 N   0  0  0  0  0  0  0  0  0  0  0  0
   18.7536   -2.4766  -14.9869 C   0  0  0  0  0  0  0  0  0  0  0  0
   19.5162   -2.5929  -13.9980 O   0  0  0  0  0  0  0  0  0  0  0  0
   18.4732   -1.1859  -15.4056 O   0  0  0  0  0  0  0  0  0  0  0  0
  2  1  1  1
  2  3  1  0
  3  4  1  0
  4  5  2  0
  6  2  1  0
  7  6  2  0
  8  4  1  0
  9  6  1  0
 10  9  1  0
 10 11  1  6
 11 12  1  0
 12 13  1  0
 13 17  1  0
 14 13  2  0
 15 10  1  0
 16 15  2  0
 19 18  1  6
 19 21  1  0
 19 20  1  0
 21 22  1  1
 22 15  1  0
 23 21  1  0
 23 25  1  0
 24 23  2  0
M  END
$$$$
