DET.pdb
     RDKit          3D

 25 24  0  0  1  0  0  0  0  0999 V2000
   16.1752  -12.6049  -16.9317 N   0  0  0  0  0  0  0  0  0  0  0  0
   16.4565  -12.0109  -15.5996 C   0  0  1  0  0  0  0  0  0  0  0  0
   17.4030  -12.9875  -14.9533 C   0  0  0  0  0  0  0  0  0  0  0  0
   16.8330  -14.1824  -14.3645 C   0  0  0  0  0  0  0  0  0  0  0  0
   15.7468  -14.3411  -13.7827 O   0  0  0  0  0  0  0  0  0  0  0  0
   17.1253  -10.7188  -15.8993 C   0  0  0  0  0  0  0  0  0  0  0  0
   17.8536  -10.6436  -16.9283 O   0  0  0  0  0  0  0  0  0  0  0  0
   17.6186  -15.3586  -14.4562 O   0  0  0  0  0  0  0  0  0  0  0  0
   17.0082   -9.5502  -15.1180 N   0  0  0  0  0  0  0  0  0  0  0  0
   17.6507   -8.2846  -15.5700 C   0  0  1  0  0  0  0  0  0  0  0  0
   16.6777   -7.1853  -15.2869 C   0  0  0  0  0  0  0  0  0  0  0  0
   17.1158   -5.7962  -15.5491 C   0  0  0  0  0  0  0  0  0  0  0  0
   15.9963   -4.8839  -15.1629 C   0  0  0  0  0  0  0  0  0  0  0  0
   16.2568   -3.7395  -14.7382 O   0  0  0  0  0  0  0  0  0  0  0  0
   18.8663   -8.1209  -14.7541 C   0  0  0  0  0  0  0  0  0  0  0  0
   18.7813   -8.3430  -13.5196 O   0  0  0  0  0  0  0  0  0  0  0  0
   14.6943   -5.2953  -15.2721 O   0  0  0  0  0  0  0  0  0  0  0  0
   22.0775  -10.0010  -14.7227 C   0  0  0  0  0  0  0  0  0  0  0  0
   22.4000   -8.5411  -14.7886 C   0  0  1  0  0  0  0  0  0  0  0  0
   22.7355   -8.2178  -16.0911 O   0  0  0  0  0  0  0  0  0  0  0  0
   21.2555   -7.6501  -14.3713 C   0  0  2  0  0  0  0  0  0  0  0  0
   20.1332   -7.7330  -15.2675 N   0  0  0  0  0  0  0  0  0  0  0  0
   21.6674   -6.2554  -14.1602 C   0  0  0  0  0  0  0  0  0  0  0  0
   21.2114   -5.3581  -14.9085 O   0  0  0  0  0  0  0  0  0  0  0  0
   22.5460   -5.8491  -13.1688 O   0  0  0  0  0  0  0  0  0  0  0  0
  2  1  1  6
  2  3  1  0
  3  4  1  0
  4  5  2  0
  6  2  1  0
  7  6  2  0
  8  4  1  0
  9  6  1  0
 10  9  1  0
 10 11  1  1
 11 12  1  0
 12 13  1  0
 13 17  1  0
 14 13  2  0
 15 10  1  0
 16 15  2  0
 19 18  1  6
 19 21  1  0
 19 20  1  0
 21 22  1  6
 22 15  1  0
 23 21  1  0
 23 25  1  0
 24 23  2  0
M  END
$$$$
