DET.pdb
     RDKit          3D

 25 24  0  0  1  0  0  0  0  0999 V2000
   18.9325  -12.4307  -17.7966 N   0  0  0  0  0  0  0  0  0  0  0  0
   18.9122  -11.0725  -18.3976 C   0  0  1  0  0  0  0  0  0  0  0  0
   17.4973  -10.6001  -18.1923 C   0  0  0  0  0  0  0  0  0  0  0  0
   16.4782  -11.1363  -19.0716 C   0  0  0  0  0  0  0  0  0  0  0  0
   16.2181  -12.3165  -19.3600 O   0  0  0  0  0  0  0  0  0  0  0  0
   19.8741  -10.2875  -17.5822 C   0  0  0  0  0  0  0  0  0  0  0  0
   19.7246  -10.2699  -16.3283 O   0  0  0  0  0  0  0  0  0  0  0  0
   15.6411  -10.1862  -19.7086 O   0  0  0  0  0  0  0  0  0  0  0  0
   20.9594   -9.5519  -18.1023 N   0  0  0  0  0  0  0  0  0  0  0  0
   21.8701   -8.8162  -17.1813 C   0  0  1  0  0  0  0  0  0  0  0  0
   23.2120   -8.7853  -17.8397 C   0  0  0  0  0  0  0  0  0  0  0  0
   24.2651   -7.9552  -17.2136 C   0  0  0  0  0  0  0  0  0  0  0  0
   25.4579   -7.9749  -18.1146 C   0  0  0  0  0  0  0  0  0  0  0  0
   25.4302   -8.6664  -19.1533 O   0  0  0  0  0  0  0  0  0  0  0  0
   21.3243   -7.4534  -17.0575 C   0  0  0  0  0  0  0  0  0  0  0  0
   21.1088   -6.8073  -18.1142 O   0  0  0  0  0  0  0  0  0  0  0  0
   26.5738   -7.2423  -17.8076 O   0  0  0  0  0  0  0  0  0  0  0  0
   18.1730   -6.1534  -16.5090 C   0  0  0  0  0  0  0  0  0  0  0  0
   19.0255   -5.4200  -15.5217 C   0  0  1  0  0  0  0  0  0  0  0  0
   18.8382   -5.9790  -14.2702 O   0  0  0  0  0  0  0  0  0  0  0  0
   20.5003   -5.4766  -15.8371 C   0  0  2  0  0  0  0  0  0  0  0  0
   21.0189   -6.8184  -15.8236 N   0  0  0  0  0  0  0  0  0  0  0  0
   21.2998   -4.5873  -14.9831 C   0  0  0  0  0  0  0  0  0  0  0  0
   21.1029   -3.3493  -15.0274 O   0  0  0  0  0  0  0  0  0  0  0  0
   22.2808   -5.0285  -14.1097 O   0  0  0  0  0  0  0  0  0  0  0  0
  2  1  1  1
  2  3  1  0
  3  4  1  0
  4  5  2  0
  6  2  1  0
  7  6  2  0
  8  4  1  0
  9  6  1  0
 10  9  1  0
 10 11  1  6
 11 12  1  0
 12 13  1  0
 13 17  1  0
 14 13  2  0
 15 10  1  0
 16 15  2  0
 19 18  1  6
 19 21  1  0
 19 20  1  0
 21 22  1  1
 22 15  1  0
 23 21  1  0
 23 25  1  0
 24 23  2  0
M  END
$$$$
