DET.pdb
     RDKit          3D

 25 24  0  0  1  0  0  0  0  0999 V2000
   18.2847  -12.4389  -16.6431 N   0  0  0  0  0  0  0  0  0  0  0  0
   17.8419  -11.0590  -16.9691 C   0  0  1  0  0  0  0  0  0  0  0  0
   16.8358  -10.7323  -15.8975 C   0  0  0  0  0  0  0  0  0  0  0  0
   15.5266  -11.3445  -15.9995 C   0  0  0  0  0  0  0  0  0  0  0  0
   14.7815  -11.4676  -16.9860 O   0  0  0  0  0  0  0  0  0  0  0  0
   19.0682  -10.2311  -16.8378 C   0  0  0  0  0  0  0  0  0  0  0  0
   19.8307  -10.4386  -15.8526 O   0  0  0  0  0  0  0  0  0  0  0  0
   14.9989  -11.8915  -14.8031 O   0  0  0  0  0  0  0  0  0  0  0  0
   19.4581   -9.2192  -17.7397 N   0  0  0  0  0  0  0  0  0  0  0  0
   20.7716   -8.5371  -17.5716 C   0  0  1  0  0  0  0  0  0  0  0  0
   21.0673   -7.8514  -18.8668 C   0  0  0  0  0  0  0  0  0  0  0  0
   22.3097   -7.0518  -18.9524 C   0  0  0  0  0  0  0  0  0  0  0  0
   22.3615   -6.4330  -20.3123 C   0  0  0  0  0  0  0  0  0  0  0  0
   22.2023   -5.2008  -20.4316 O   0  0  0  0  0  0  0  0  0  0  0  0
   20.5922   -7.5491  -16.4936 C   0  0  0  0  0  0  0  0  0  0  0  0
   19.5200   -6.8933  -16.4684 O   0  0  0  0  0  0  0  0  0  0  0  0
   22.5815   -7.2070  -21.4209 O   0  0  0  0  0  0  0  0  0  0  0  0
   21.8764   -8.0779  -12.6266 C   0  0  0  0  0  0  0  0  0  0  0  0
   20.8001   -7.1738  -13.1400 C   0  0  1  0  0  0  0  0  0  0  0  0
   20.4932   -6.2463  -12.1605 O   0  0  0  0  0  0  0  0  0  0  0  0
   21.1897   -6.4176  -14.3867 C   0  0  2  0  0  0  0  0  0  0  0  0
   21.5474   -7.2886  -15.4744 N   0  0  0  0  0  0  0  0  0  0  0  0
   22.2351   -5.4145  -14.1409 C   0  0  0  0  0  0  0  0  0  0  0  0
   22.0781   -4.5725  -13.2246 O   0  0  0  0  0  0  0  0  0  0  0  0
   23.4122   -5.3291  -14.8667 O   0  0  0  0  0  0  0  0  0  0  0  0
  2  1  1  1
  2  3  1  0
  3  4  1  0
  4  5  2  0
  6  2  1  0
  7  6  2  0
  8  4  1  0
  9  6  1  0
 10  9  1  0
 10 11  1  6
 11 12  1  0
 12 13  1  0
 13 17  1  0
 14 13  2  0
 15 10  1  0
 16 15  2  0
 19 18  1  1
 19 21  1  0
 19 20  1  0
 21 22  1  6
 22 15  1  0
 23 21  1  0
 23 25  1  0
 24 23  2  0
M  END
$$$$
