DET.pdb
     RDKit          3D

 25 24  0  0  1  0  0  0  0  0999 V2000
   26.7150  -20.2504   -9.8775 N   0  0  0  0  0  0  0  0  0  0  0  0
   25.6397  -21.0064  -10.5694 C   0  0  1  0  0  0  0  0  0  0  0  0
   24.3737  -20.5426   -9.8991 C   0  0  0  0  0  0  0  0  0  0  0  0
   24.1745  -20.9157   -8.5133 C   0  0  0  0  0  0  0  0  0  0  0  0
   24.9818  -21.3816   -7.6918 O   0  0  0  0  0  0  0  0  0  0  0  0
   25.7093  -20.5497  -11.9811 C   0  0  0  0  0  0  0  0  0  0  0  0
   25.9291  -19.3267  -12.2069 O   0  0  0  0  0  0  0  0  0  0  0  0
   22.8672  -20.7281   -7.9985 O   0  0  0  0  0  0  0  0  0  0  0  0
   25.5511  -21.3844  -13.1071 N   0  0  0  0  0  0  0  0  0  0  0  0
   25.7208  -20.8263  -14.4777 C   0  0  1  0  0  0  0  0  0  0  0  0
   26.5953  -21.7819  -15.2243 C   0  0  0  0  0  0  0  0  0  0  0  0
   26.7820  -21.5525  -16.6744 C   0  0  0  0  0  0  0  0  0  0  0  0
   27.7195  -22.5989  -17.1852 C   0  0  0  0  0  0  0  0  0  0  0  0
   27.4650  -23.1773  -18.2615 O   0  0  0  0  0  0  0  0  0  0  0  0
   24.3761  -20.7804  -15.0776 C   0  0  0  0  0  0  0  0  0  0  0  0
   23.5970  -21.7406  -14.8504 O   0  0  0  0  0  0  0  0  0  0  0  0
   28.8493  -22.9237  -16.4820 O   0  0  0  0  0  0  0  0  0  0  0  0
   22.6906  -17.6258  -17.6799 C   0  0  0  0  0  0  0  0  0  0  0  0
   21.9749  -18.3624  -16.5915 C   0  0  1  0  0  0  0  0  0  0  0  0
   20.6442  -18.4962  -16.9452 O   0  0  0  0  0  0  0  0  0  0  0  0
   22.5256  -19.7437  -16.3334 C   0  0  2  0  0  0  0  0  0  0  0  0
   23.8951  -19.7212  -15.8934 N   0  0  0  0  0  0  0  0  0  0  0  0
   22.3474  -20.6504  -17.4761 C   0  0  0  0  0  0  0  0  0  0  0  0
   23.3559  -21.0739  -18.0899 O   0  0  0  0  0  0  0  0  0  0  0  0
   21.1141  -21.0825  -17.9367 O   0  0  0  0  0  0  0  0  0  0  0  0
  2  1  1  1
  2  3  1  0
  3  4  1  0
  4  5  2  0
  6  2  1  0
  7  6  2  0
  8  4  1  0
  9  6  1  0
 10  9  1  0
 10 11  1  6
 11 12  1  0
 12 13  1  0
 13 17  1  0
 14 13  2  0
 15 10  1  0
 16 15  2  0
 19 18  1  6
 19 21  1  0
 19 20  1  0
 21 22  1  6
 22 15  1  0
 23 21  1  0
 23 25  1  0
 24 23  2  0
M  END
$$$$
