DET.pdb
     RDKit          3D

 25 24  0  0  1  0  0  0  0  0999 V2000
   16.5605  -11.2119  -17.2622 N   0  0  0  0  0  0  0  0  0  0  0  0
   16.7759  -10.6826  -15.8911 C   0  0  1  0  0  0  0  0  0  0  0  0
   17.5803  -11.7546  -15.2048 C   0  0  0  0  0  0  0  0  0  0  0  0
   16.8628  -12.9025  -14.6880 C   0  0  0  0  0  0  0  0  0  0  0  0
   17.2971  -13.9359  -14.1524 O   0  0  0  0  0  0  0  0  0  0  0  0
   17.5720   -9.4441  -16.0882 C   0  0  0  0  0  0  0  0  0  0  0  0
   18.4793   -9.4465  -16.9667 O   0  0  0  0  0  0  0  0  0  0  0  0
   15.4506  -12.8583  -14.8017 O   0  0  0  0  0  0  0  0  0  0  0  0
   17.3916   -8.2463  -15.3655 N   0  0  0  0  0  0  0  0  0  0  0  0
   18.1395   -7.0195  -15.7585 C   0  0  1  0  0  0  0  0  0  0  0  0
   17.2042   -5.8685  -15.5696 C   0  0  0  0  0  0  0  0  0  0  0  0
   17.7280   -4.5086  -15.8274 C   0  0  0  0  0  0  0  0  0  0  0  0
   16.6120   -3.5395  -15.6036 C   0  0  0  0  0  0  0  0  0  0  0  0
   16.1367   -3.4058  -14.4572 O   0  0  0  0  0  0  0  0  0  0  0  0
   19.2812   -6.9142  -14.8335 C   0  0  0  0  0  0  0  0  0  0  0  0
   19.0765   -7.1521  -13.6161 O   0  0  0  0  0  0  0  0  0  0  0  0
   16.1117   -2.8022  -16.6440 O   0  0  0  0  0  0  0  0  0  0  0  0
   22.6068   -8.7531  -14.4295 C   0  0  0  0  0  0  0  0  0  0  0  0
   22.8439   -7.2785  -14.5233 C   0  0  1  0  0  0  0  0  0  0  0  0
   23.2482   -6.9737  -15.8107 O   0  0  0  0  0  0  0  0  0  0  0  0
   21.6214   -6.4491  -14.2142 C   0  0  2  0  0  0  0  0  0  0  0  0
   20.6025   -6.5662  -15.2232 N   0  0  0  0  0  0  0  0  0  0  0  0
   21.9425   -5.0413  -13.9415 C   0  0  0  0  0  0  0  0  0  0  0  0
   21.5275   -4.1520  -14.7226 O   0  0  0  0  0  0  0  0  0  0  0  0
   22.6899   -4.6138  -12.8559 O   0  0  0  0  0  0  0  0  0  0  0  0
  2  1  1  6
  2  3  1  0
  3  4  1  0
  4  5  2  0
  6  2  1  0
  7  6  2  0
  8  4  1  0
  9  6  1  0
 10  9  1  0
 10 11  1  1
 11 12  1  0
 12 13  1  0
 13 17  1  0
 14 13  2  0
 15 10  1  0
 16 15  2  0
 19 18  1  6
 19 21  1  0
 19 20  1  0
 21 22  1  6
 22 15  1  0
 23 21  1  0
 23 25  1  0
 24 23  2  0
M  END
$$$$
