DET.pdb
     RDKit          3D

 25 24  0  0  1  0  0  0  0  0999 V2000
   16.1231  -12.4873  -15.7241 N   0  0  0  0  0  0  0  0  0  0  0  0
   15.8325  -11.0315  -15.7779 C   0  0  1  0  0  0  0  0  0  0  0  0
   15.2733  -10.7171  -14.4157 C   0  0  0  0  0  0  0  0  0  0  0  0
   13.8667  -10.9829  -14.1918 C   0  0  0  0  0  0  0  0  0  0  0  0
   12.8841  -10.7139  -14.9029 O   0  0  0  0  0  0  0  0  0  0  0  0
   17.1573  -10.3924  -15.9855 C   0  0  0  0  0  0  0  0  0  0  0  0
   18.1690  -10.9157  -15.4399 O   0  0  0  0  0  0  0  0  0  0  0  0
   13.5426  -11.6504  -12.9841 O   0  0  0  0  0  0  0  0  0  0  0  0
   17.3810   -9.2331  -16.7572 N   0  0  0  0  0  0  0  0  0  0  0  0
   18.7724   -8.7751  -17.0272 C   0  0  1  0  0  0  0  0  0  0  0  0
   18.7392   -8.0518  -18.3353 C   0  0  0  0  0  0  0  0  0  0  0  0
   19.9930   -7.4190  -18.8020 C   0  0  0  0  0  0  0  0  0  0  0  0
   19.7281   -6.8164  -20.1442 C   0  0  0  0  0  0  0  0  0  0  0  0
   19.9248   -7.4972  -21.1716 O   0  0  0  0  0  0  0  0  0  0  0  0
   19.1255   -7.8514  -15.9353 C   0  0  0  0  0  0  0  0  0  0  0  0
   18.2052   -7.1628  -15.4259 O   0  0  0  0  0  0  0  0  0  0  0  0
   19.2732   -5.5287  -20.2511 O   0  0  0  0  0  0  0  0  0  0  0  0
   22.1206   -5.9534  -12.4938 C   0  0  0  0  0  0  0  0  0  0  0  0
   21.7881   -7.0371  -13.4708 C   0  0  1  0  0  0  0  0  0  0  0  0
   21.3976   -8.1639  -12.7697 O   0  0  0  0  0  0  0  0  0  0  0  0
   20.6723   -6.6736  -14.4199 C   0  0  2  0  0  0  0  0  0  0  0  0
   20.4366   -7.6877  -15.4128 N   0  0  0  0  0  0  0  0  0  0  0  0
   20.8588   -5.3541  -15.0392 C   0  0  0  0  0  0  0  0  0  0  0  0
   20.2144   -4.3711  -14.6013 O   0  0  0  0  0  0  0  0  0  0  0  0
   21.7171   -5.1106  -16.0994 O   0  0  0  0  0  0  0  0  0  0  0  0
  2  1  1  1
  2  3  1  0
  3  4  1  0
  4  5  2  0
  6  2  1  0
  7  6  2  0
  8  4  1  0
  9  6  1  0
 10  9  1  0
 10 11  1  6
 11 12  1  0
 12 13  1  0
 13 17  1  0
 14 13  2  0
 15 10  1  0
 16 15  2  0
 19 18  1  1
 19 21  1  0
 19 20  1  0
 21 22  1  6
 22 15  1  0
 23 21  1  0
 23 25  1  0
 24 23  2  0
M  END
$$$$
