DET.pdb
     RDKit          3D

 25 24  0  0  1  0  0  0  0  0999 V2000
   14.3780   -8.9313  -14.8602 N   0  0  0  0  0  0  0  0  0  0  0  0
   15.0700   -7.8023  -15.5333 C   0  0  1  0  0  0  0  0  0  0  0  0
   14.6104   -6.5847  -14.7760 C   0  0  0  0  0  0  0  0  0  0  0  0
   13.5999   -5.7522  -15.3967 C   0  0  0  0  0  0  0  0  0  0  0  0
   12.5635   -6.0769  -16.0001 O   0  0  0  0  0  0  0  0  0  0  0  0
   16.5156   -8.0666  -15.3174 C   0  0  0  0  0  0  0  0  0  0  0  0
   16.8879   -8.4814  -14.1841 O   0  0  0  0  0  0  0  0  0  0  0  0
   13.8075   -4.3525  -15.3134 O   0  0  0  0  0  0  0  0  0  0  0  0
   17.5212   -7.8927  -16.2912 N   0  0  0  0  0  0  0  0  0  0  0  0
   18.9314   -8.2569  -15.9790 C   0  0  1  0  0  0  0  0  0  0  0  0
   19.4214   -9.0899  -17.1197 C   0  0  0  0  0  0  0  0  0  0  0  0
   20.8516   -9.4701  -17.1275 C   0  0  0  0  0  0  0  0  0  0  0  0
   20.9914  -10.7374  -16.3468 C   0  0  0  0  0  0  0  0  0  0  0  0
   21.0531  -11.8269  -16.9525 O   0  0  0  0  0  0  0  0  0  0  0  0
   19.6812   -6.9910  -15.9046 C   0  0  0  0  0  0  0  0  0  0  0  0
   19.4041   -6.0926  -16.7394 O   0  0  0  0  0  0  0  0  0  0  0  0
   21.0516  -10.7085  -14.9786 O   0  0  0  0  0  0  0  0  0  0  0  0
   19.3275   -4.7179  -13.2208 C   0  0  0  0  0  0  0  0  0  0  0  0
   20.0642   -4.3873  -14.4809 C   0  0  1  0  0  0  0  0  0  0  0  0
   20.6304   -3.1320  -14.3490 O   0  0  0  0  0  0  0  0  0  0  0  0
   21.1700   -5.3611  -14.8075 C   0  0  2  0  0  0  0  0  0  0  0  0
   20.6952   -6.7118  -14.9493 N   0  0  0  0  0  0  0  0  0  0  0  0
   22.2920   -5.2868  -13.8616 C   0  0  0  0  0  0  0  0  0  0  0  0
   22.5649   -6.2827  -13.1496 O   0  0  0  0  0  0  0  0  0  0  0  0
   23.0911   -4.1673  -13.6947 O   0  0  0  0  0  0  0  0  0  0  0  0
  2  1  1  1
  2  3  1  0
  3  4  1  0
  4  5  2  0
  6  2  1  0
  7  6  2  0
  8  4  1  0
  9  6  1  0
 10  9  1  0
 10 11  1  6
 11 12  1  0
 12 13  1  0
 13 17  1  0
 14 13  2  0
 15 10  1  0
 16 15  2  0
 19 18  1  1
 19 21  1  0
 19 20  1  0
 21 22  1  1
 22 15  1  0
 23 21  1  0
 23 25  1  0
 24 23  2  0
M  END
$$$$
