DET.pdb
     RDKit          3D

 25 24  0  0  1  0  0  0  0  0999 V2000
   16.0463  -11.2112  -16.8743 N   0  0  0  0  0  0  0  0  0  0  0  0
   16.4599  -10.7817  -15.5138 C   0  0  1  0  0  0  0  0  0  0  0  0
   17.3533  -11.8940  -15.0322 C   0  0  0  0  0  0  0  0  0  0  0  0
   16.7182  -13.1190  -14.5902 C   0  0  0  0  0  0  0  0  0  0  0  0
   15.7730  -13.2841  -13.8009 O   0  0  0  0  0  0  0  0  0  0  0  0
   17.2214   -9.5252  -15.7328 C   0  0  0  0  0  0  0  0  0  0  0  0
   17.9685   -9.4446  -16.7478 O   0  0  0  0  0  0  0  0  0  0  0  0
   17.2402  -14.3217  -15.1288 O   0  0  0  0  0  0  0  0  0  0  0  0
   17.1743   -8.3964  -14.8882 N   0  0  0  0  0  0  0  0  0  0  0  0
   17.8403   -7.1295  -15.3005 C   0  0  1  0  0  0  0  0  0  0  0  0
   16.8940   -6.0204  -14.9690 C   0  0  0  0  0  0  0  0  0  0  0  0
   17.3577   -4.6327  -15.1916 C   0  0  0  0  0  0  0  0  0  0  0  0
   16.2260   -3.7144  -14.8589 C   0  0  0  0  0  0  0  0  0  0  0  0
   15.0667   -4.0188  -15.2071 O   0  0  0  0  0  0  0  0  0  0  0  0
   19.0662   -7.0215  -14.4908 C   0  0  0  0  0  0  0  0  0  0  0  0
   18.9771   -7.2384  -13.2556 O   0  0  0  0  0  0  0  0  0  0  0  0
   16.4538   -2.5478  -14.1780 O   0  0  0  0  0  0  0  0  0  0  0  0
   22.3469   -8.9906  -14.6601 C   0  0  0  0  0  0  0  0  0  0  0  0
   22.6284   -7.5209  -14.6480 C   0  0  1  0  0  0  0  0  0  0  0  0
   22.8960   -7.1084  -15.9410 O   0  0  0  0  0  0  0  0  0  0  0  0
   21.4815   -6.6902  -14.1259 C   0  0  2  0  0  0  0  0  0  0  0  0
   20.3472   -6.6931  -15.0107 N   0  0  0  0  0  0  0  0  0  0  0  0
   21.8829   -5.3201  -13.7779 C   0  0  0  0  0  0  0  0  0  0  0  0
   21.4526   -4.3597  -14.4602 O   0  0  0  0  0  0  0  0  0  0  0  0
   22.7243   -5.0040  -12.7234 O   0  0  0  0  0  0  0  0  0  0  0  0
  2  1  1  6
  2  3  1  0
  3  4  1  0
  4  5  2  0
  6  2  1  0
  7  6  2  0
  8  4  1  0
  9  6  1  0
 10  9  1  0
 10 11  1  1
 11 12  1  0
 12 13  1  0
 13 17  1  0
 14 13  2  0
 15 10  1  0
 16 15  2  0
 19 18  1  6
 19 21  1  0
 19 20  1  0
 21 22  1  6
 22 15  1  0
 23 21  1  0
 23 25  1  0
 24 23  2  0
M  END
$$$$
