DET.pdb
     RDKit          3D

 25 24  0  0  1  0  0  0  0  0999 V2000
   20.6935   -8.8385  -14.2831 N   0  0  0  0  0  0  0  0  0  0  0  0
   20.5030   -8.8703  -12.8103 C   0  0  1  0  0  0  0  0  0  0  0  0
   21.2201   -7.6405  -12.3196 C   0  0  0  0  0  0  0  0  0  0  0  0
   20.7674   -6.3578  -12.8185 C   0  0  0  0  0  0  0  0  0  0  0  0
   19.8337   -6.0911  -13.5936 O   0  0  0  0  0  0  0  0  0  0  0  0
   19.0341   -8.7586  -12.6200 C   0  0  0  0  0  0  0  0  0  0  0  0
   18.3632   -8.1231  -13.4808 O   0  0  0  0  0  0  0  0  0  0  0  0
   21.4859   -5.2233  -12.3650 O   0  0  0  0  0  0  0  0  0  0  0  0
   18.3163   -9.3163  -11.5414 N   0  0  0  0  0  0  0  0  0  0  0  0
   16.8272   -9.2804  -11.5397 C   0  0  1  0  0  0  0  0  0  0  0  0
   16.3644  -10.7003  -11.4680 C   0  0  0  0  0  0  0  0  0  0  0  0
   14.9069  -10.9441  -11.3879 C   0  0  0  0  0  0  0  0  0  0  0  0
   14.6950  -12.4218  -11.3089 C   0  0  0  0  0  0  0  0  0  0  0  0
   14.2582  -13.0327  -12.3059 O   0  0  0  0  0  0  0  0  0  0  0  0
   16.4302   -8.5461  -10.3259 C   0  0  0  0  0  0  0  0  0  0  0  0
   16.9904   -8.8523   -9.2428 O   0  0  0  0  0  0  0  0  0  0  0  0
   14.9762  -13.1043  -10.1549 O   0  0  0  0  0  0  0  0  0  0  0  0
   17.0117   -5.5646   -8.4085 C   0  0  0  0  0  0  0  0  0  0  0  0
   15.5569   -5.5992   -8.7577 C   0  0  1  0  0  0  0  0  0  0  0  0
   15.3553   -4.8450   -9.8998 O   0  0  0  0  0  0  0  0  0  0  0  0
   15.0320   -6.9891   -9.0231 C   0  0  2  0  0  0  0  0  0  0  0  0
   15.4590   -7.5094  -10.2946 N   0  0  0  0  0  0  0  0  0  0  0  0
   13.5738   -7.0860   -8.8698 C   0  0  0  0  0  0  0  0  0  0  0  0
   13.0538   -6.8434   -7.7544 O   0  0  0  0  0  0  0  0  0  0  0  0
   12.7089   -7.4350   -9.8945 O   0  0  0  0  0  0  0  0  0  0  0  0
  2  1  1  6
  2  3  1  0
  3  4  1  0
  4  5  2  0
  6  2  1  0
  7  6  2  0
  8  4  1  0
  9  6  1  0
 10  9  1  0
 10 11  1  1
 11 12  1  0
 12 13  1  0
 13 17  1  0
 14 13  2  0
 15 10  1  0
 16 15  2  0
 19 18  1  6
 19 21  1  0
 19 20  1  0
 21 22  1  6
 22 15  1  0
 23 21  1  0
 23 25  1  0
 24 23  2  0
M  END
$$$$
