VDQ.pdb
     RDKit          3D

 25 24  0  0  1  0  0  0  0  0999 V2000
    7.6967  -13.2091   21.4699 C   0  0  0  0  0  0  0  0  0  0  0  0
    8.4663  -13.6176   20.2323 C   0  0  2  0  0  0  0  0  0  0  0  0
    8.0596  -12.9032   18.9963 C   0  0  0  0  0  0  0  0  0  0  0  0
    8.4011  -15.1362   20.0491 C   0  0  2  0  0  0  0  0  0  0  0  0
    6.9605  -15.4084   19.8809 N   0  0  0  0  0  0  0  0  0  0  0  0
    8.8067  -15.7480   21.3439 C   0  0  0  0  0  0  0  0  0  0  0  0
    7.9460  -15.8357   22.2620 O   0  0  0  0  0  0  0  0  0  0  0  0
   10.0888  -16.2439   21.6198 N   0  0  0  0  0  0  0  0  0  0  0  0
   10.3416  -16.9130   22.8927 C   0  0  1  0  0  0  0  0  0  0  0  0
   11.6780  -17.6207   22.8355 C   0  0  0  0  0  0  0  0  0  0  0  0
   11.7057  -18.5938   21.7395 C   0  0  0  0  0  0  0  0  0  0  0  0
   10.8630  -19.4855   21.4907 O   0  0  0  0  0  0  0  0  0  0  0  0
   10.3159  -15.9107   23.9930 C   0  0  0  0  0  0  0  0  0  0  0  0
   11.1220  -14.9313   24.0660 O   0  0  0  0  0  0  0  0  0  0  0  0
   12.7876  -18.5836   20.8093 O   0  0  0  0  0  0  0  0  0  0  0  0
    5.4343  -13.1394   26.1414 N   0  0  0  0  0  0  0  0  0  0  0  0
    6.4407  -12.5543   26.9749 C   0  0  0  0  0  0  0  0  0  0  0  0
    6.0891  -11.5498   27.6406 O   0  0  0  0  0  0  0  0  0  0  0  0
    7.8184  -13.1080   27.0441 C   0  0  0  0  0  0  0  0  0  0  0  0
    7.9194  -14.2225   26.0292 C   0  0  0  0  0  0  0  0  0  0  0  0
    9.2677  -14.9014   26.0644 C   0  0  2  0  0  0  0  0  0  0  0  0
    9.3808  -15.9447   25.0797 N   0  0  0  0  0  0  0  0  0  0  0  0
    9.6321  -15.3739   27.4058 C   0  0  0  0  0  0  0  0  0  0  0  0
    9.7766  -14.5972   28.3887 O   0  0  0  0  0  0  0  0  0  0  0  0
    9.8385  -16.7221   27.6609 O   0  0  0  0  0  0  0  0  0  0  0  0
  2  1  1  1
  2  3  1  0
  4  5  1  1
  4  6  1  0
  4  2  1  0
  6  8  1  0
  7  6  2  0
  8  9  1  0
  9 10  1  6
 10 11  1  0
 11 15  1  0
 11 12  2  0
 13 14  2  0
 13  9  1  0
 16 17  1  0
 17 19  1  0
 18 17  2  0
 19 20  1  0
 21 22  1  0
 21 20  1  1
 22 13  1  0
 23 21  1  0
 24 23  2  0
 25 23  1  0
M  END
$$$$
