VDQ.pdb
     RDKit          3D

 25 24  0  0  1  0  0  0  0  0999 V2000
    7.1079  -12.7742   19.8660 C   0  0  0  0  0  0  0  0  0  0  0  0
    8.2986  -13.2638   19.0700 C   0  0  2  0  0  0  0  0  0  0  0  0
    8.1033  -14.5897   18.4317 C   0  0  0  0  0  0  0  0  0  0  0  0
    9.5587  -13.2405   19.9393 C   0  0  2  0  0  0  0  0  0  0  0  0
   10.6503  -13.5083   18.9832 N   0  0  0  0  0  0  0  0  0  0  0  0
    9.4824  -14.4177   20.8468 C   0  0  0  0  0  0  0  0  0  0  0  0
    8.5014  -14.5052   21.6352 O   0  0  0  0  0  0  0  0  0  0  0  0
   10.4294  -15.4510   20.8871 N   0  0  0  0  0  0  0  0  0  0  0  0
   10.2524  -16.5510   21.8307 C   0  0  1  0  0  0  0  0  0  0  0  0
   11.3108  -17.6042   21.5841 C   0  0  0  0  0  0  0  0  0  0  0  0
   10.9291  -18.4748   20.4682 C   0  0  0  0  0  0  0  0  0  0  0  0
    9.7740  -18.8218   20.1330 O   0  0  0  0  0  0  0  0  0  0  0  0
   10.3348  -16.0282   23.2222 C   0  0  0  0  0  0  0  0  0  0  0  0
   11.3242  -15.3637   23.6623 O   0  0  0  0  0  0  0  0  0  0  0  0
   11.9372  -19.0280   19.6234 O   0  0  0  0  0  0  0  0  0  0  0  0
    5.8989  -12.9422   25.7398 N   0  0  0  0  0  0  0  0  0  0  0  0
    6.9157  -12.8158   26.7398 C   0  0  0  0  0  0  0  0  0  0  0  0
    6.7615  -11.8850   27.5678 O   0  0  0  0  0  0  0  0  0  0  0  0
    8.0824  -13.7354   26.7898 C   0  0  0  0  0  0  0  0  0  0  0  0
    8.0841  -14.5484   25.5166 C   0  0  0  0  0  0  0  0  0  0  0  0
    9.2576  -15.4965   25.4504 C   0  0  2  0  0  0  0  0  0  0  0  0
    9.3089  -16.2177   24.2061 N   0  0  0  0  0  0  0  0  0  0  0  0
    9.3274  -16.3973   26.6076 C   0  0  0  0  0  0  0  0  0  0  0  0
    8.8559  -17.5669   26.5933 O   0  0  0  0  0  0  0  0  0  0  0  0
    9.9265  -15.9979   27.7936 O   0  0  0  0  0  0  0  0  0  0  0  0
  2  1  1  1
  2  3  1  0
  4  5  1  6
  4  6  1  0
  4  2  1  0
  6  8  1  0
  7  6  2  0
  8  9  1  0
  9 10  1  1
 10 11  1  0
 11 15  1  0
 11 12  2  0
 13 14  2  0
 13  9  1  0
 16 17  1  0
 17 19  1  0
 18 17  2  0
 19 20  1  0
 21 22  1  0
 21 20  1  1
 22 13  1  0
 23 21  1  0
 24 23  2  0
 25 23  1  0
M  END
$$$$
