VDQ.pdb
     RDKit          3D

 25 24  0  0  1  0  0  0  0  0999 V2000
    7.2460  -12.6820   19.5183 C   0  0  0  0  0  0  0  0  0  0  0  0
    7.3630  -13.6401   20.6842 C   0  0  2  0  0  0  0  0  0  0  0  0
    8.6846  -13.6217   21.3598 C   0  0  0  0  0  0  0  0  0  0  0  0
    6.9783  -15.0550   20.2436 C   0  0  2  0  0  0  0  0  0  0  0  0
    5.6204  -14.8935   19.6892 N   0  0  0  0  0  0  0  0  0  0  0  0
    6.8445  -15.8736   21.4794 C   0  0  0  0  0  0  0  0  0  0  0  0
    6.0370  -15.4893   22.3693 O   0  0  0  0  0  0  0  0  0  0  0  0
    7.5546  -17.0567   21.7281 N   0  0  0  0  0  0  0  0  0  0  0  0
    7.4471  -17.6976   23.0357 C   0  0  1  0  0  0  0  0  0  0  0  0
    6.6880  -18.9997   22.8998 C   0  0  0  0  0  0  0  0  0  0  0  0
    6.6594  -19.7213   24.1755 C   0  0  0  0  0  0  0  0  0  0  0  0
    6.5460  -19.2353   25.3236 O   0  0  0  0  0  0  0  0  0  0  0  0
    8.8102  -17.9303   23.5869 C   0  0  0  0  0  0  0  0  0  0  0  0
    9.6503  -18.7263   23.0625 O   0  0  0  0  0  0  0  0  0  0  0  0
    6.7686  -21.1439   24.1882 O   0  0  0  0  0  0  0  0  0  0  0  0
   12.8573  -16.1360   22.7139 N   0  0  0  0  0  0  0  0  0  0  0  0
   13.6068  -16.3555   23.9138 C   0  0  0  0  0  0  0  0  0  0  0  0
   14.8438  -16.5134   23.7696 O   0  0  0  0  0  0  0  0  0  0  0  0
   12.9537  -16.3930   25.2485 C   0  0  0  0  0  0  0  0  0  0  0  0
   11.4752  -16.1585   25.0455 C   0  0  0  0  0  0  0  0  0  0  0  0
   10.6699  -17.4228   25.2277 C   0  0  2  0  0  0  0  0  0  0  0  0
    9.3158  -17.2811   24.7614 N   0  0  0  0  0  0  0  0  0  0  0  0
   10.7238  -17.9389   26.6011 C   0  0  0  0  0  0  0  0  0  0  0  0
    9.7340  -17.9101   27.3819 O   0  0  0  0  0  0  0  0  0  0  0  0
   11.8874  -18.4932   27.1148 O   0  0  0  0  0  0  0  0  0  0  0  0
  2  1  1  6
  2  3  1  0
  4  5  1  1
  4  6  1  0
  4  2  1  0
  6  8  1  0
  7  6  2  0
  8  9  1  0
  9 10  1  6
 10 11  1  0
 11 15  1  0
 11 12  2  0
 13 14  2  0
 13  9  1  0
 16 17  1  0
 17 19  1  0
 18 17  2  0
 19 20  1  0
 21 22  1  0
 21 20  1  1
 22 13  1  0
 23 21  1  0
 24 23  2  0
 25 23  1  0
M  END
$$$$
