VDQ.pdb
     RDKit          3D

 25 24  0  0  1  0  0  0  0  0999 V2000
    8.1801  -12.9015   26.4891 C   0  0  0  0  0  0  0  0  0  0  0  0
    7.2558  -12.5191   25.3531 C   0  0  2  0  0  0  0  0  0  0  0  0
    6.3663  -11.3685   25.6501 C   0  0  0  0  0  0  0  0  0  0  0  0
    6.4568  -13.7405   24.8906 C   0  0  2  0  0  0  0  0  0  0  0  0
    5.7651  -14.1917   26.1135 N   0  0  0  0  0  0  0  0  0  0  0  0
    7.4437  -14.7977   24.5390 C   0  0  0  0  0  0  0  0  0  0  0  0
    7.6891  -15.6964   25.3897 O   0  0  0  0  0  0  0  0  0  0  0  0
    8.1251  -14.8716   23.3159 N   0  0  0  0  0  0  0  0  0  0  0  0
    8.9834  -16.0201   23.0402 C   0  0  1  0  0  0  0  0  0  0  0  0
    9.3899  -16.0095   21.5825 C   0  0  0  0  0  0  0  0  0  0  0  0
    8.2489  -16.3343   20.7213 C   0  0  0  0  0  0  0  0  0  0  0  0
    7.4261  -17.2666   20.8660 O   0  0  0  0  0  0  0  0  0  0  0  0
   10.1782  -15.9700   23.9269 C   0  0  0  0  0  0  0  0  0  0  0  0
   10.8725  -14.9212   24.1063 O   0  0  0  0  0  0  0  0  0  0  0  0
    7.9835  -15.5400   19.5661 O   0  0  0  0  0  0  0  0  0  0  0  0
    9.4407  -14.4236   28.6594 N   0  0  0  0  0  0  0  0  0  0  0  0
   10.6730  -15.0206   29.0775 C   0  0  0  0  0  0  0  0  0  0  0  0
   11.0529  -14.7426   30.2412 O   0  0  0  0  0  0  0  0  0  0  0  0
   11.4518  -15.9160   28.1826 C   0  0  0  0  0  0  0  0  0  0  0  0
   10.6838  -16.0577   26.8894 C   0  0  0  0  0  0  0  0  0  0  0  0
   11.3790  -16.9777   25.9145 C   0  0  2  0  0  0  0  0  0  0  0  0
   10.6664  -17.0953   24.6697 N   0  0  0  0  0  0  0  0  0  0  0  0
   11.6888  -18.2910   26.4932 C   0  0  0  0  0  0  0  0  0  0  0  0
   10.9532  -19.3019   26.3278 O   0  0  0  0  0  0  0  0  0  0  0  0
   12.8262  -18.4862   27.2634 O   0  0  0  0  0  0  0  0  0  0  0  0
  2  1  1  1
  2  3  1  0
  4  5  1  1
  4  6  1  0
  4  2  1  0
  6  8  1  0
  7  6  2  0
  8  9  1  0
  9 10  1  6
 10 11  1  0
 11 15  1  0
 11 12  2  0
 13 14  2  0
 13  9  1  0
 16 17  1  0
 17 19  1  0
 18 17  2  0
 19 20  1  0
 21 22  1  0
 21 20  1  1
 22 13  1  0
 23 21  1  0
 24 23  2  0
 25 23  1  0
M  END
$$$$
