VDQ.pdb
     RDKit          3D

 25 24  0  0  1  0  0  0  0  0999 V2000
    7.1810  -13.4531   21.4777 C   0  0  0  0  0  0  0  0  0  0  0  0
    8.1336  -13.4602   20.3015 C   0  0  2  0  0  0  0  0  0  0  0  0
    7.7520  -12.5404   19.2007 C   0  0  0  0  0  0  0  0  0  0  0  0
    8.3320  -14.8907   19.7932 C   0  0  2  0  0  0  0  0  0  0  0  0
    6.9732  -15.3184   19.4081 N   0  0  0  0  0  0  0  0  0  0  0  0
    8.7277  -15.7176   20.9658 C   0  0  0  0  0  0  0  0  0  0  0  0
    7.8193  -16.1693   21.7157 O   0  0  0  0  0  0  0  0  0  0  0  0
   10.0510  -16.0389   21.2995 N   0  0  0  0  0  0  0  0  0  0  0  0
   10.3189  -16.8177   22.5052 C   0  0  1  0  0  0  0  0  0  0  0  0
   11.6595  -17.5074   22.3745 C   0  0  0  0  0  0  0  0  0  0  0  0
   11.6699  -18.4112   21.2203 C   0  0  0  0  0  0  0  0  0  0  0  0
   10.8865  -19.3596   20.9880 O   0  0  0  0  0  0  0  0  0  0  0  0
   10.2956  -15.9184   23.6913 C   0  0  0  0  0  0  0  0  0  0  0  0
   11.1141  -14.9613   23.8596 O   0  0  0  0  0  0  0  0  0  0  0  0
   12.6585  -18.2519   20.2038 O   0  0  0  0  0  0  0  0  0  0  0  0
    5.7305  -12.9139   26.0829 N   0  0  0  0  0  0  0  0  0  0  0  0
    6.7567  -12.5903   27.0274 C   0  0  0  0  0  0  0  0  0  0  0  0
    6.5054  -11.6419   27.8105 O   0  0  0  0  0  0  0  0  0  0  0  0
    8.0412  -13.3367   27.0736 C   0  0  0  0  0  0  0  0  0  0  0  0
    8.0487  -14.3141   25.9217 C   0  0  0  0  0  0  0  0  0  0  0  0
    9.3094  -15.1447   25.8906 C   0  0  2  0  0  0  0  0  0  0  0  0
    9.3491  -16.0369   24.7621 N   0  0  0  0  0  0  0  0  0  0  0  0
    9.5575  -15.8501   27.1541 C   0  0  0  0  0  0  0  0  0  0  0  0
    9.4791  -17.1039   27.2642 O   0  0  0  0  0  0  0  0  0  0  0  0
    9.8964  -15.1584   28.3082 O   0  0  0  0  0  0  0  0  0  0  0  0
  2  1  1  1
  2  3  1  0
  4  5  1  1
  4  6  1  0
  4  2  1  0
  6  8  1  0
  7  6  2  0
  8  9  1  0
  9 10  1  6
 10 11  1  0
 11 15  1  0
 11 12  2  0
 13 14  2  0
 13  9  1  0
 16 17  1  0
 17 19  1  0
 18 17  2  0
 19 20  1  0
 21 22  1  0
 21 20  1  1
 22 13  1  0
 23 21  1  0
 24 23  2  0
 25 23  1  0
M  END
$$$$
