VDQ.pdb
     RDKit          3D

 25 24  0  0  1  0  0  0  0  0999 V2000
    7.5429  -12.5070   18.5558 C   0  0  0  0  0  0  0  0  0  0  0  0
    8.0456  -13.4284   19.6464 C   0  0  2  0  0  0  0  0  0  0  0  0
    8.9935  -12.7920   20.5951 C   0  0  0  0  0  0  0  0  0  0  0  0
    8.6371  -14.6993   19.0309 C   0  0  2  0  0  0  0  0  0  0  0  0
    7.4905  -15.3231   18.3427 N   0  0  0  0  0  0  0  0  0  0  0  0
    9.0037  -15.5985   20.1588 C   0  0  0  0  0  0  0  0  0  0  0  0
    8.0763  -16.1528   20.8103 O   0  0  0  0  0  0  0  0  0  0  0  0
   10.3193  -15.8818   20.5522 N   0  0  0  0  0  0  0  0  0  0  0  0
   10.5539  -16.7547   21.6989 C   0  0  1  0  0  0  0  0  0  0  0  0
   11.9236  -17.3873   21.5812 C   0  0  0  0  0  0  0  0  0  0  0  0
   11.9626  -18.3420   20.4694 C   0  0  0  0  0  0  0  0  0  0  0  0
   11.0838  -19.1736   20.1480 O   0  0  0  0  0  0  0  0  0  0  0  0
   10.4381  -15.9643   22.9551 C   0  0  0  0  0  0  0  0  0  0  0  0
   11.1648  -14.9554   23.2162 O   0  0  0  0  0  0  0  0  0  0  0  0
   13.1022  -18.3860   19.6122 O   0  0  0  0  0  0  0  0  0  0  0  0
    6.1943  -11.9061   26.8396 N   0  0  0  0  0  0  0  0  0  0  0  0
    6.4585  -13.1779   26.2375 C   0  0  0  0  0  0  0  0  0  0  0  0
    5.5061  -13.6966   25.6053 O   0  0  0  0  0  0  0  0  0  0  0  0
    7.7839  -13.8399   26.3570 C   0  0  0  0  0  0  0  0  0  0  0  0
    7.9813  -14.7021   25.1324 C   0  0  0  0  0  0  0  0  0  0  0  0
    9.3072  -15.4242   25.1546 C   0  0  2  0  0  0  0  0  0  0  0  0
    9.4963  -16.2570   23.9962 N   0  0  0  0  0  0  0  0  0  0  0  0
    9.5313  -16.1646   26.4025 C   0  0  0  0  0  0  0  0  0  0  0  0
    9.5499  -17.4244   26.4563 O   0  0  0  0  0  0  0  0  0  0  0  0
    9.7372  -15.5016   27.6038 O   0  0  0  0  0  0  0  0  0  0  0  0
  2  1  1  6
  2  3  1  0
  4  5  1  6
  4  6  1  0
  4  2  1  0
  6  8  1  0
  7  6  2  0
  8  9  1  0
  9 10  1  6
 10 11  1  0
 11 15  1  0
 11 12  2  0
 13 14  2  0
 13  9  1  0
 16 17  1  0
 17 19  1  0
 18 17  2  0
 19 20  1  0
 21 22  1  0
 21 20  1  1
 22 13  1  0
 23 21  1  0
 24 23  2  0
 25 23  1  0
M  END
$$$$
