VDQ.pdb
     RDKit          3D

 25 24  0  0  1  0  0  0  0  0999 V2000
    8.7705  -13.9662   20.6631 C   0  0  0  0  0  0  0  0  0  0  0  0
    9.1092  -13.0230   19.5287 C   0  0  2  0  0  0  0  0  0  0  0  0
    8.0051  -12.1084   19.1443 C   0  0  0  0  0  0  0  0  0  0  0  0
    9.6277  -13.8131   18.3241 C   0  0  2  0  0  0  0  0  0  0  0  0
    8.4740  -14.6417   17.9243 N   0  0  0  0  0  0  0  0  0  0  0  0
   10.6716  -14.7445   18.8320 C   0  0  0  0  0  0  0  0  0  0  0  0
   10.3225  -15.9068   19.1769 O   0  0  0  0  0  0  0  0  0  0  0  0
   12.0310  -14.4230   18.9522 N   0  0  0  0  0  0  0  0  0  0  0  0
   12.9480  -15.3906   19.5478 C   0  0  1  0  0  0  0  0  0  0  0  0
   14.3737  -15.0079   19.2145 C   0  0  0  0  0  0  0  0  0  0  0  0
   14.6100  -15.0870   17.7699 C   0  0  0  0  0  0  0  0  0  0  0  0
   15.1394  -14.2221   17.0359 O   0  0  0  0  0  0  0  0  0  0  0  0
   12.7375  -15.4310   21.0210 C   0  0  0  0  0  0  0  0  0  0  0  0
   13.2460  -14.5874   21.8235 O   0  0  0  0  0  0  0  0  0  0  0  0
   14.2173  -16.2546   17.0500 O   0  0  0  0  0  0  0  0  0  0  0  0
    6.8685  -15.2860   23.1433 N   0  0  0  0  0  0  0  0  0  0  0  0
    7.9440  -16.2300   23.0995 C   0  0  0  0  0  0  0  0  0  0  0  0
    7.6494  -17.4148   23.3918 O   0  0  0  0  0  0  0  0  0  0  0  0
    9.3254  -15.8256   22.7289 C   0  0  0  0  0  0  0  0  0  0  0  0
   10.2846  -16.7320   23.4642 C   0  0  0  0  0  0  0  0  0  0  0  0
   11.7234  -16.4446   23.1072 C   0  0  2  0  0  0  0  0  0  0  0  0
   11.9401  -16.4210   21.6847 N   0  0  0  0  0  0  0  0  0  0  0  0
   12.6683  -17.3376   23.7893 C   0  0  0  0  0  0  0  0  0  0  0  0
   12.7859  -17.3791   25.0442 O   0  0  0  0  0  0  0  0  0  0  0  0
   13.4917  -18.1943   23.0729 O   0  0  0  0  0  0  0  0  0  0  0  0
  2  1  1  1
  2  3  1  0
  4  5  1  1
  4  6  1  0
  4  2  1  0
  6  8  1  0
  7  6  2  0
  8  9  1  0
  9 10  1  1
 10 11  1  0
 11 15  1  0
 11 12  2  0
 13 14  2  0
 13  9  1  0
 16 17  1  0
 17 19  1  0
 18 17  2  0
 19 20  1  0
 21 22  1  0
 21 20  1  6
 22 13  1  0
 23 21  1  0
 24 23  2  0
 25 23  1  0
M  END
$$$$
