VDQ.pdb
     RDKit          3D

 25 24  0  0  1  0  0  0  0  0999 V2000
    7.4678  -14.8980   18.8009 C   0  0  0  0  0  0  0  0  0  0  0  0
    7.6363  -13.5403   19.4483 C   0  0  2  0  0  0  0  0  0  0  0  0
    7.5395  -12.3977   18.5057 C   0  0  0  0  0  0  0  0  0  0  0  0
    8.9403  -13.4972   20.2495 C   0  0  2  0  0  0  0  0  0  0  0  0
    9.9705  -13.8803   19.2650 N   0  0  0  0  0  0  0  0  0  0  0  0
    8.8716  -14.5961   21.2509 C   0  0  0  0  0  0  0  0  0  0  0  0
    7.8803  -14.6369   22.0302 O   0  0  0  0  0  0  0  0  0  0  0  0
    9.8366  -15.6037   21.3904 N   0  0  0  0  0  0  0  0  0  0  0  0
    9.6877  -16.5994   22.4480 C   0  0  1  0  0  0  0  0  0  0  0  0
   10.6626  -17.7334   22.2159 C   0  0  0  0  0  0  0  0  0  0  0  0
    9.9611  -18.9393   21.7657 C   0  0  0  0  0  0  0  0  0  0  0  0
   10.3315  -19.7544   20.8907 O   0  0  0  0  0  0  0  0  0  0  0  0
    9.9226  -15.9568   23.7701 C   0  0  0  0  0  0  0  0  0  0  0  0
   10.9723  -15.2984   24.0512 O   0  0  0  0  0  0  0  0  0  0  0  0
    8.7053  -19.2878   22.3466 O   0  0  0  0  0  0  0  0  0  0  0  0
    6.8340  -11.0198   27.0208 N   0  0  0  0  0  0  0  0  0  0  0  0
    6.9262  -12.4388   26.8539 C   0  0  0  0  0  0  0  0  0  0  0  0
    5.8689  -13.0864   27.0502 O   0  0  0  0  0  0  0  0  0  0  0  0
    8.2009  -13.1003   26.4707 C   0  0  0  0  0  0  0  0  0  0  0  0
    8.0017  -14.5927   26.5942 C   0  0  0  0  0  0  0  0  0  0  0  0
    9.2108  -15.3671   26.1267 C   0  0  2  0  0  0  0  0  0  0  0  0
    8.9911  -16.0118   24.8590 N   0  0  0  0  0  0  0  0  0  0  0  0
    9.7111  -16.3063   27.1382 C   0  0  0  0  0  0  0  0  0  0  0  0
    9.6427  -17.5582   27.0023 O   0  0  0  0  0  0  0  0  0  0  0  0
   10.2938  -15.8533   28.3131 O   0  0  0  0  0  0  0  0  0  0  0  0
  2  1  1  6
  2  3  1  0
  4  5  1  6
  4  6  1  0
  4  2  1  0
  6  8  1  0
  7  6  2  0
  8  9  1  0
  9 10  1  6
 10 11  1  0
 11 15  1  0
 11 12  2  0
 13 14  2  0
 13  9  1  0
 16 17  1  0
 17 19  1  0
 18 17  2  0
 19 20  1  0
 21 22  1  0
 21 20  1  1
 22 13  1  0
 23 21  1  0
 24 23  2  0
 25 23  1  0
M  END
$$$$
