VDQ.pdb
     RDKit          3D

 25 24  0  0  1  0  0  0  0  0999 V2000
   10.6404  -23.1932   22.0547 C   0  0  0  0  0  0  0  0  0  0  0  0
    9.2937  -22.5534   22.3156 C   0  0  2  0  0  0  0  0  0  0  0  0
    8.6983  -21.8797   21.1345 C   0  0  0  0  0  0  0  0  0  0  0  0
    9.3844  -21.6058   23.5147 C   0  0  2  0  0  0  0  0  0  0  0  0
   10.2250  -20.4969   23.0237 N   0  0  0  0  0  0  0  0  0  0  0  0
   10.1696  -22.3089   24.5657 C   0  0  0  0  0  0  0  0  0  0  0  0
    9.6725  -23.3390   25.0979 O   0  0  0  0  0  0  0  0  0  0  0  0
   11.4378  -21.9084   25.0095 N   0  0  0  0  0  0  0  0  0  0  0  0
   12.0713  -22.6235   26.1138 C   0  0  1  0  0  0  0  0  0  0  0  0
   13.5758  -22.5401   25.9735 C   0  0  0  0  0  0  0  0  0  0  0  0
   14.0045  -21.1518   25.7788 C   0  0  0  0  0  0  0  0  0  0  0  0
   13.5975  -20.3426   24.9148 O   0  0  0  0  0  0  0  0  0  0  0  0
   11.6231  -22.0363   27.4063 C   0  0  0  0  0  0  0  0  0  0  0  0
   11.4308  -20.7924   27.5801 O   0  0  0  0  0  0  0  0  0  0  0  0
   14.9975  -20.5896   26.6353 O   0  0  0  0  0  0  0  0  0  0  0  0
    8.5297  -24.7914   31.8780 N   0  0  0  0  0  0  0  0  0  0  0  0
    8.8436  -23.5714   32.5585 C   0  0  0  0  0  0  0  0  0  0  0  0
    8.1666  -23.3241   33.5863 O   0  0  0  0  0  0  0  0  0  0  0  0
    9.9090  -22.6562   32.0724 C   0  0  0  0  0  0  0  0  0  0  0  0
   10.5232  -23.2765   30.8394 C   0  0  0  0  0  0  0  0  0  0  0  0
   10.9772  -22.2340   29.8458 C   0  0  2  0  0  0  0  0  0  0  0  0
   11.3606  -22.8107   28.5843 N   0  0  0  0  0  0  0  0  0  0  0  0
   12.0205  -21.3518   30.3833 C   0  0  0  0  0  0  0  0  0  0  0  0
   13.2306  -21.4344   30.0380 O   0  0  0  0  0  0  0  0  0  0  0  0
   11.7196  -20.3672   31.3134 O   0  0  0  0  0  0  0  0  0  0  0  0
  2  1  1  6
  2  3  1  0
  4  5  1  6
  4  6  1  0
  4  2  1  0
  6  8  1  0
  7  6  2  0
  8  9  1  0
  9 10  1  6
 10 11  1  0
 11 15  1  0
 11 12  2  0
 13 14  2  0
 13  9  1  0
 16 17  1  0
 17 19  1  0
 18 17  2  0
 19 20  1  0
 21 22  1  0
 21 20  1  1
 22 13  1  0
 23 21  1  0
 24 23  2  0
 25 23  1  0
M  END
$$$$
