VDQ.pdb
     RDKit          3D

 25 24  0  0  1  0  0  0  0  0999 V2000
    7.7300  -13.7089   22.3036 C   0  0  0  0  0  0  0  0  0  0  0  0
    8.1774  -13.5287   20.8689 C   0  0  2  0  0  0  0  0  0  0  0  0
    7.3335  -12.5982   20.0780 C   0  0  0  0  0  0  0  0  0  0  0  0
    8.3047  -14.8911   20.1820 C   0  0  2  0  0  0  0  0  0  0  0  0
    6.9246  -15.4135   20.1789 N   0  0  0  0  0  0  0  0  0  0  0  0
    9.0938  -15.7648   21.0927 C   0  0  0  0  0  0  0  0  0  0  0  0
    8.4972  -16.7004   21.6930 O   0  0  0  0  0  0  0  0  0  0  0  0
   10.4684  -15.6258   21.3314 N   0  0  0  0  0  0  0  0  0  0  0  0
   11.2144  -16.7425   21.9047 C   0  0  1  0  0  0  0  0  0  0  0  0
   12.6288  -16.7352   21.3666 C   0  0  0  0  0  0  0  0  0  0  0  0
   13.4211  -17.8108   21.9700 C   0  0  0  0  0  0  0  0  0  0  0  0
   14.4110  -17.6952   22.7275 O   0  0  0  0  0  0  0  0  0  0  0  0
   11.2084  -16.6322   23.3893 C   0  0  0  0  0  0  0  0  0  0  0  0
   11.8150  -17.4459   24.1535 O   0  0  0  0  0  0  0  0  0  0  0  0
   13.0840  -19.1724   21.7083 O   0  0  0  0  0  0  0  0  0  0  0  0
    8.7552  -12.8930   27.0927 N   0  0  0  0  0  0  0  0  0  0  0  0
    8.8739  -14.0629   27.9096 C   0  0  0  0  0  0  0  0  0  0  0  0
    9.2151  -13.8698   29.1021 O   0  0  0  0  0  0  0  0  0  0  0  0
    8.6074  -15.4228   27.3721 C   0  0  0  0  0  0  0  0  0  0  0  0
    8.8434  -15.3839   25.8804 C   0  0  0  0  0  0  0  0  0  0  0  0
   10.2896  -15.6375   25.5280 C   0  0  2  0  0  0  0  0  0  0  0  0
   10.5218  -15.5987   24.1083 N   0  0  0  0  0  0  0  0  0  0  0  0
   10.8161  -16.8664   26.1347 C   0  0  0  0  0  0  0  0  0  0  0  0
   11.8125  -16.8750   26.9078 O   0  0  0  0  0  0  0  0  0  0  0  0
   10.2321  -18.0994   25.8821 O   0  0  0  0  0  0  0  0  0  0  0  0
  2  1  1  1
  2  3  1  0
  4  5  1  1
  4  6  1  0
  4  2  1  0
  6  8  1  0
  7  6  2  0
  8  9  1  0
  9 10  1  6
 10 11  1  0
 11 15  1  0
 11 12  2  0
 13 14  2  0
 13  9  1  0
 16 17  1  0
 17 19  1  0
 18 17  2  0
 19 20  1  0
 21 22  1  0
 21 20  1  6
 22 13  1  0
 23 21  1  0
 24 23  2  0
 25 23  1  0
M  END
$$$$
