VDQ.pdb
     RDKit          3D

 25 24  0  0  1  0  0  0  0  0999 V2000
    6.9382  -14.5979   19.7617 C   0  0  0  0  0  0  0  0  0  0  0  0
    7.5588  -13.2798   20.1720 C   0  0  2  0  0  0  0  0  0  0  0  0
    7.4846  -12.2205   19.1347 C   0  0  0  0  0  0  0  0  0  0  0  0
    8.9977  -13.5002   20.6461 C   0  0  2  0  0  0  0  0  0  0  0  0
    9.6730  -14.0729   19.4657 N   0  0  0  0  0  0  0  0  0  0  0  0
    8.9556  -14.5704   21.6797 C   0  0  0  0  0  0  0  0  0  0  0  0
    8.2881  -14.3643   22.7302 O   0  0  0  0  0  0  0  0  0  0  0  0
    9.6071  -15.8069   21.5682 N   0  0  0  0  0  0  0  0  0  0  0  0
    9.5639  -16.7449   22.6864 C   0  0  1  0  0  0  0  0  0  0  0  0
   10.3163  -18.0053   22.3187 C   0  0  0  0  0  0  0  0  0  0  0  0
   10.3226  -18.9531   23.4370 C   0  0  0  0  0  0  0  0  0  0  0  0
   11.2800  -19.2327   24.1935 O   0  0  0  0  0  0  0  0  0  0  0  0
   10.1549  -16.1044   23.8934 C   0  0  0  0  0  0  0  0  0  0  0  0
   11.0350  -15.1896   23.8397 O   0  0  0  0  0  0  0  0  0  0  0  0
    9.1363  -19.6775   23.7593 O   0  0  0  0  0  0  0  0  0  0  0  0
    6.2558  -12.9990   25.8182 N   0  0  0  0  0  0  0  0  0  0  0  0
    7.2197  -12.6241   26.8082 C   0  0  0  0  0  0  0  0  0  0  0  0
    7.0183  -11.5279   27.3859 O   0  0  0  0  0  0  0  0  0  0  0  0
    8.3875  -13.4859   27.1291 C   0  0  0  0  0  0  0  0  0  0  0  0
    8.4834  -14.5496   26.0607 C   0  0  0  0  0  0  0  0  0  0  0  0
    9.6452  -15.4854   26.2944 C   0  0  2  0  0  0  0  0  0  0  0  0
    9.7920  -16.4503   25.2369 N   0  0  0  0  0  0  0  0  0  0  0  0
    9.6043  -16.1243   27.6157 C   0  0  0  0  0  0  0  0  0  0  0  0
    9.6086  -15.4686   28.6929 O   0  0  0  0  0  0  0  0  0  0  0  0
    9.5580  -17.5051   27.7446 O   0  0  0  0  0  0  0  0  0  0  0  0
  2  1  1  6
  2  3  1  0
  4  5  1  6
  4  6  1  0
  4  2  1  0
  6  8  1  0
  7  6  2  0
  8  9  1  0
  9 10  1  6
 10 11  1  0
 11 15  1  0
 11 12  2  0
 13 14  2  0
 13  9  1  0
 16 17  1  0
 17 19  1  0
 18 17  2  0
 19 20  1  0
 21 22  1  0
 21 20  1  6
 22 13  1  0
 23 21  1  0
 24 23  2  0
 25 23  1  0
M  END
$$$$
