VDQ.pdb
     RDKit          3D

 25 24  0  0  1  0  0  0  0  0999 V2000
    7.4213  -12.6786   19.1498 C   0  0  0  0  0  0  0  0  0  0  0  0
    8.1479  -13.6819   20.0195 C   0  0  2  0  0  0  0  0  0  0  0  0
    9.2032  -13.0925   20.8811 C   0  0  0  0  0  0  0  0  0  0  0  0
    8.6987  -14.8227   19.1596 C   0  0  2  0  0  0  0  0  0  0  0  0
    7.4953  -15.4035   18.5336 N   0  0  0  0  0  0  0  0  0  0  0  0
    9.2370  -15.8495   20.0929 C   0  0  0  0  0  0  0  0  0  0  0  0
    8.4195  -16.5535   20.7469 O   0  0  0  0  0  0  0  0  0  0  0  0
   10.6016  -16.0980   20.2977 N   0  0  0  0  0  0  0  0  0  0  0  0
   11.0088  -17.1671   21.2049 C   0  0  1  0  0  0  0  0  0  0  0  0
   12.4008  -17.6364   20.8412 C   0  0  0  0  0  0  0  0  0  0  0  0
   12.4042  -18.2881   19.5281 C   0  0  0  0  0  0  0  0  0  0  0  0
   11.5562  -19.0883   19.0724 O   0  0  0  0  0  0  0  0  0  0  0  0
   10.9632  -16.6707   22.6077 C   0  0  0  0  0  0  0  0  0  0  0  0
   11.7662  -15.8004   23.0680 O   0  0  0  0  0  0  0  0  0  0  0  0
   13.4654  -18.0285   18.6103 O   0  0  0  0  0  0  0  0  0  0  0  0
    6.0269  -15.8192   26.1143 N   0  0  0  0  0  0  0  0  0  0  0  0
    6.5381  -15.1136   24.9782 C   0  0  0  0  0  0  0  0  0  0  0  0
    5.7353  -14.3374   24.4048 O   0  0  0  0  0  0  0  0  0  0  0  0
    7.9374  -15.2932   24.5104 C   0  0  0  0  0  0  0  0  0  0  0  0
    8.5987  -16.3091   25.4119 C   0  0  0  0  0  0  0  0  0  0  0  0
    9.9908  -16.6613   24.9448 C   0  0  2  0  0  0  0  0  0  0  0  0
   10.0106  -17.1199   23.5808 N   0  0  0  0  0  0  0  0  0  0  0  0
   10.6737  -17.5976   25.8462 C   0  0  0  0  0  0  0  0  0  0  0  0
   11.0247  -18.7557   25.4914 O   0  0  0  0  0  0  0  0  0  0  0  0
   10.9712  -17.2465   27.1552 O   0  0  0  0  0  0  0  0  0  0  0  0
  2  1  1  6
  2  3  1  0
  4  5  1  1
  4  6  1  0
  4  2  1  0
  6  8  1  0
  7  6  2  0
  8  9  1  0
  9 10  1  6
 10 11  1  0
 11 15  1  0
 11 12  2  0
 13 14  2  0
 13  9  1  0
 16 17  1  0
 17 19  1  0
 18 17  2  0
 19 20  1  0
 21 22  1  0
 21 20  1  1
 22 13  1  0
 23 21  1  0
 24 23  2  0
 25 23  1  0
M  END
$$$$
