MLY.pdb
     RDKit          3D

 29 29  0  0  1  0  0  0  0  0999 V2000
   12.0758  -18.3751   15.2725 C   0  0  0  0  0  0  0  0  0  0  0  0
   10.6138  -19.4326   15.2422 S   0  0  0  0  0  0  0  0  0  0  0  0
   10.0498  -19.6540   16.9595 C   0  0  0  0  0  0  0  0  0  0  0  0
   10.2631  -18.3970   17.7533 C   0  0  0  0  0  0  0  0  0  0  0  0
    9.8370  -18.5252   19.1678 C   0  0  2  0  0  0  0  0  0  0  0  0
    8.4028  -18.8413   19.2479 N   0  0  0  0  0  0  0  0  0  0  0  0
   10.0732  -17.3073   20.0062 C   0  0  0  0  0  0  0  0  0  0  0  0
   11.2435  -16.8861   20.1850 O   0  0  0  0  0  0  0  0  0  0  0  0
    8.7459  -13.1629   19.1898 C   0  0  0  0  0  0  0  0  0  0  0  0
    7.6558  -13.8493   19.9576 C   0  0  2  0  0  0  0  0  0  0  0  0
    6.3645  -13.1154   19.8869 C   0  0  0  0  0  0  0  0  0  0  0  0
    8.0059  -14.4639   21.2365 C   0  0  0  0  0  0  0  0  0  0  0  0
    9.1500  -15.3653   21.3954 C   0  0  2  0  0  0  0  0  0  0  0  0
    9.0063  -16.6025   20.6142 N   0  0  0  0  0  0  0  0  0  0  0  0
    9.5199  -15.6389   22.7797 C   0  0  0  0  0  0  0  0  0  0  0  0
    8.8976  -16.4723   23.4657 O   0  0  0  0  0  0  0  0  0  0  0  0
   10.2118  -15.4609   31.2497 O   0  0  0  0  0  0  0  0  0  0  0  0
   10.0539  -15.3996   29.8687 C   0  0  0  0  0  0  0  0  0  0  0  0
   10.1147  -14.1843   29.2433 C   0  0  0  0  0  0  0  0  0  0  0  0
    9.9602  -14.1150   27.8827 C   0  0  0  0  0  0  0  0  0  0  0  0
    9.7394  -15.2304   27.0721 C   0  0  0  0  0  0  0  0  0  0  0  0
    9.5623  -15.1051   25.6217 C   0  0  0  0  0  0  0  0  0  0  0  0
   10.8441  -15.2099   24.8515 C   0  0  2  0  0  0  0  0  0  0  0  0
   10.6146  -14.9720   23.4389 N   0  0  0  0  0  0  0  0  0  0  0  0
   11.4909  -16.5153   25.0784 C   0  0  0  0  0  0  0  0  0  0  0  0
   12.6303  -16.5649   25.6532 O   0  0  0  0  0  0  0  0  0  0  0  0
    9.6868  -16.4366   27.7586 C   0  0  0  0  0  0  0  0  0  0  0  0
    9.8381  -16.5376   29.1215 C   0  0  0  0  0  0  0  0  0  0  0  0
   10.9463  -17.7289   24.7093 O   0  0  0  0  0  0  0  0  0  0  0  0
  2  1  1  0
  3  2  1  0
  4  3  1  0
  5  4  1  0
  5  6  1  6
  7  8  2  0
  7  5  1  0
 10 11  1  1
 10  9  1  0
 12 10  1  0
 13 12  1  1
 13 14  1  0
 14  7  1  0
 15 13  1  0
 15 16  2  0
 18 17  1  0
 19 18  2  0
 20 19  1  0
 21 20  2  0
 21 27  1  0
 22 21  1  0
 23 22  1  1
 23 24  1  0
 24 15  1  0
 25 23  1  0
 26 25  2  0
 27 28  2  0
 28 18  1  0
 29 25  1  0
M  END
$$$$
