MLY.pdb
     RDKit          3D

 29 29  0  0  1  0  0  0  0  0999 V2000
    4.5653  -21.2674   24.3641 C   0  0  0  0  0  0  0  0  0  0  0  0
    5.7838  -20.0463   23.8339 S   0  0  0  0  0  0  0  0  0  0  0  0
    7.0478  -20.9110   22.8487 C   0  0  0  0  0  0  0  0  0  0  0  0
    8.0821  -19.9440   22.3480 C   0  0  0  0  0  0  0  0  0  0  0  0
    7.5942  -19.1002   21.2305 C   0  0  2  0  0  0  0  0  0  0  0  0
    7.4935  -19.8899   19.9938 N   0  0  0  0  0  0  0  0  0  0  0  0
    8.4453  -17.9057   20.9293 C   0  0  0  0  0  0  0  0  0  0  0  0
    9.4189  -18.0116   20.1420 O   0  0  0  0  0  0  0  0  0  0  0  0
    6.9924  -12.3158   20.2345 C   0  0  0  0  0  0  0  0  0  0  0  0
    7.8403  -13.5468   20.1131 C   0  0  2  0  0  0  0  0  0  0  0  0
    7.4135  -14.4200   18.9878 C   0  0  0  0  0  0  0  0  0  0  0  0
    8.2655  -14.2057   21.3462 C   0  0  0  0  0  0  0  0  0  0  0  0
    9.0370  -15.4513   21.3535 C   0  0  2  0  0  0  0  0  0  0  0  0
    8.1868  -16.6406   21.5103 N   0  0  0  0  0  0  0  0  0  0  0  0
   10.1618  -15.4637   22.2823 C   0  0  0  0  0  0  0  0  0  0  0  0
   10.9361  -14.4922   22.3775 O   0  0  0  0  0  0  0  0  0  0  0  0
   10.3439  -14.8848   30.7956 O   0  0  0  0  0  0  0  0  0  0  0  0
   10.1783  -15.0771   29.4276 C   0  0  0  0  0  0  0  0  0  0  0  0
   10.3568  -14.0193   28.5784 C   0  0  0  0  0  0  0  0  0  0  0  0
   10.1955  -14.2002   27.2290 C   0  0  0  0  0  0  0  0  0  0  0  0
    9.8525  -15.4232   26.6486 C   0  0  0  0  0  0  0  0  0  0  0  0
    9.6735  -15.5646   25.2000 C   0  0  0  0  0  0  0  0  0  0  0  0
   10.7647  -16.3498   24.5364 C   0  0  2  0  0  0  0  0  0  0  0  0
   10.4503  -16.5856   23.1399 N   0  0  0  0  0  0  0  0  0  0  0  0
   11.0148  -17.6145   25.2520 C   0  0  0  0  0  0  0  0  0  0  0  0
   11.5721  -17.5911   26.4010 O   0  0  0  0  0  0  0  0  0  0  0  0
    9.6837  -16.4611   27.5560 C   0  0  0  0  0  0  0  0  0  0  0  0
    9.8386  -16.3103   28.9139 C   0  0  0  0  0  0  0  0  0  0  0  0
   10.6832  -18.8632   24.7657 O   0  0  0  0  0  0  0  0  0  0  0  0
  2  1  1  0
  3  2  1  0
  4  3  1  0
  5  4  1  0
  5  6  1  6
  7  8  2  0
  7  5  1  0
 10 11  1  6
 10  9  1  0
 12 10  1  0
 13 12  1  1
 13 14  1  0
 14  7  1  0
 15 13  1  0
 15 16  2  0
 18 17  1  0
 19 18  2  0
 20 19  1  0
 21 20  2  0
 21 27  1  0
 22 21  1  0
 23 22  1  1
 23 24  1  0
 24 15  1  0
 25 23  1  0
 26 25  2  0
 27 28  2  0
 28 18  1  0
 29 25  1  0
M  END
$$$$
