MLY.pdb
     RDKit          3D

 29 29  0  0  1  0  0  0  0  0999 V2000
   10.2920  -15.9399   14.2239 C   0  0  0  0  0  0  0  0  0  0  0  0
   10.4757  -17.7337   14.1528 S   0  0  0  0  0  0  0  0  0  0  0  0
   10.2073  -18.3890   15.8304 C   0  0  0  0  0  0  0  0  0  0  0  0
   10.4480  -17.3227   16.8603 C   0  0  0  0  0  0  0  0  0  0  0  0
   10.3657  -17.8307   18.2511 C   0  0  2  0  0  0  0  0  0  0  0  0
    9.0852  -18.5190   18.4738 N   0  0  0  0  0  0  0  0  0  0  0  0
   10.4984  -16.7809   19.3105 C   0  0  0  0  0  0  0  0  0  0  0  0
   11.6224  -16.2751   19.5552 O   0  0  0  0  0  0  0  0  0  0  0  0
    8.4957  -12.7221   19.7492 C   0  0  0  0  0  0  0  0  0  0  0  0
    7.6055  -13.7695   20.3486 C   0  0  2  0  0  0  0  0  0  0  0  0
    6.2243  -13.2719   20.5845 C   0  0  0  0  0  0  0  0  0  0  0  0
    8.1793  -14.6535   21.3611 C   0  0  0  0  0  0  0  0  0  0  0  0
    9.4445  -15.3660   21.1656 C   0  0  2  0  0  0  0  0  0  0  0  0
    9.3833  -16.3311   20.0581 N   0  0  0  0  0  0  0  0  0  0  0  0
    9.9978  -15.9646   22.3753 C   0  0  0  0  0  0  0  0  0  0  0  0
    9.4720  -16.9621   22.9054 O   0  0  0  0  0  0  0  0  0  0  0  0
   10.3084  -14.9226   30.7990 O   0  0  0  0  0  0  0  0  0  0  0  0
   10.2294  -14.9686   29.4107 C   0  0  0  0  0  0  0  0  0  0  0  0
   10.9063  -14.0367   28.6723 C   0  0  0  0  0  0  0  0  0  0  0  0
   10.8338  -14.0750   27.3037 C   0  0  0  0  0  0  0  0  0  0  0  0
   10.0964  -15.0259   26.5950 C   0  0  0  0  0  0  0  0  0  0  0  0
   10.0343  -15.0164   25.1299 C   0  0  0  0  0  0  0  0  0  0  0  0
   11.2778  -15.5383   24.4752 C   0  0  2  0  0  0  0  0  0  0  0  0
   11.1733  -15.4490   23.0310 N   0  0  0  0  0  0  0  0  0  0  0  0
   11.5631  -16.9184   24.9090 C   0  0  0  0  0  0  0  0  0  0  0  0
   12.5861  -17.1537   25.6365 O   0  0  0  0  0  0  0  0  0  0  0  0
    9.4300  -15.9462   27.3938 C   0  0  0  0  0  0  0  0  0  0  0  0
    9.4837  -15.9332   28.7676 C   0  0  0  0  0  0  0  0  0  0  0  0
   10.7876  -18.0131   24.5834 O   0  0  0  0  0  0  0  0  0  0  0  0
  2  1  1  0
  3  2  1  0
  4  3  1  0
  5  4  1  0
  5  6  1  6
  7  8  2  0
  7  5  1  0
 10 11  1  1
 10  9  1  0
 12 10  1  0
 13 12  1  1
 13 14  1  0
 14  7  1  0
 15 13  1  0
 15 16  2  0
 18 17  1  0
 19 18  2  0
 20 19  1  0
 21 20  2  0
 21 27  1  0
 22 21  1  0
 23 22  1  1
 23 24  1  0
 24 15  1  0
 25 23  1  0
 26 25  2  0
 27 28  2  0
 28 18  1  0
 29 25  1  0
M  END
$$$$
