MLY.pdb
     RDKit          3D

 29 29  0  0  1  0  0  0  0  0999 V2000
    6.0939  -20.1616   25.2914 C   0  0  0  0  0  0  0  0  0  0  0  0
    5.3651  -21.1932   24.0024 S   0  0  0  0  0  0  0  0  0  0  0  0
    5.7579  -20.4362   22.3934 C   0  0  0  0  0  0  0  0  0  0  0  0
    6.9322  -19.5082   22.5173 C   0  0  0  0  0  0  0  0  0  0  0  0
    7.2501  -18.8032   21.2520 C   0  0  2  0  0  0  0  0  0  0  0  0
    7.7771  -19.7467   20.2543 N   0  0  0  0  0  0  0  0  0  0  0  0
    8.2458  -17.6931   21.3863 C   0  0  0  0  0  0  0  0  0  0  0  0
    9.4596  -17.9059   21.1403 O   0  0  0  0  0  0  0  0  0  0  0  0
    8.7499  -13.8968   19.2448 C   0  0  0  0  0  0  0  0  0  0  0  0
    7.7956  -13.6313   20.3708 C   0  0  2  0  0  0  0  0  0  0  0  0
    7.0572  -12.3522   20.1980 C   0  0  0  0  0  0  0  0  0  0  0  0
    8.2251  -13.9774   21.7241 C   0  0  0  0  0  0  0  0  0  0  0  0
    8.7894  -15.2855   22.0660 C   0  0  2  0  0  0  0  0  0  0  0  0
    7.8609  -16.3909   21.7873 N   0  0  0  0  0  0  0  0  0  0  0  0
    9.3477  -15.3735   23.4108 C   0  0  0  0  0  0  0  0  0  0  0  0
   10.2746  -14.6268   23.7794 O   0  0  0  0  0  0  0  0  0  0  0  0
    6.3526  -10.8519   26.5810 O   0  0  0  0  0  0  0  0  0  0  0  0
    6.8507  -12.1501   26.6289 C   0  0  0  0  0  0  0  0  0  0  0  0
    8.1852  -12.3449   26.8592 C   0  0  0  0  0  0  0  0  0  0  0  0
    8.6842  -13.6210   26.9079 C   0  0  0  0  0  0  0  0  0  0  0  0
    7.9014  -14.7642   26.7338 C   0  0  0  0  0  0  0  0  0  0  0  0
    8.4833  -16.1096   26.7768 C   0  0  0  0  0  0  0  0  0  0  0  0
    9.4960  -16.3579   25.6996 C   0  0  2  0  0  0  0  0  0  0  0  0
    8.8723  -16.3179   24.3903 N   0  0  0  0  0  0  0  0  0  0  0  0
   10.1995  -17.6347   25.9210 C   0  0  0  0  0  0  0  0  0  0  0  0
   10.1341  -18.5540   25.0368 O   0  0  0  0  0  0  0  0  0  0  0  0
    6.5559  -14.5081   26.5033 C   0  0  0  0  0  0  0  0  0  0  0  0
    6.0266  -13.2403   26.4490 C   0  0  0  0  0  0  0  0  0  0  0  0
   10.9494  -17.9264   27.0427 O   0  0  0  0  0  0  0  0  0  0  0  0
  2  1  1  0
  3  2  1  0
  4  3  1  0
  5  4  1  0
  5  6  1  6
  7  8  2  0
  7  5  1  0
 10 11  1  1
 10  9  1  0
 12 10  1  0
 13 12  1  1
 13 14  1  0
 14  7  1  0
 15 13  1  0
 15 16  2  0
 18 17  1  0
 19 18  2  0
 20 19  1  0
 21 20  2  0
 21 27  1  0
 22 21  1  0
 23 22  1  1
 23 24  1  0
 24 15  1  0
 25 23  1  0
 26 25  2  0
 27 28  2  0
 28 18  1  0
 29 25  1  0
M  END
$$$$
