MLY.pdb
     RDKit          3D

 29 29  0  0  1  0  0  0  0  0999 V2000
    5.5726  -12.0275   26.9601 C   0  0  0  0  0  0  0  0  0  0  0  0
    7.0728  -12.8371   26.3681 S   0  0  0  0  0  0  0  0  0  0  0  0
    6.6027  -13.9634   25.0167 C   0  0  0  0  0  0  0  0  0  0  0  0
    6.3495  -15.3467   25.5439 C   0  0  0  0  0  0  0  0  0  0  0  0
    7.0975  -16.3940   24.8072 C   0  0  2  0  0  0  0  0  0  0  0  0
    8.5205  -16.3688   25.1782 N   0  0  0  0  0  0  0  0  0  0  0  0
    7.0230  -16.2852   23.3157 C   0  0  0  0  0  0  0  0  0  0  0  0
    5.9792  -15.8474   22.7700 O   0  0  0  0  0  0  0  0  0  0  0  0
    7.4683  -14.5688   19.7252 C   0  0  0  0  0  0  0  0  0  0  0  0
    7.6505  -13.8477   21.0274 C   0  0  2  0  0  0  0  0  0  0  0  0
    7.5371  -12.3725   20.8788 C   0  0  0  0  0  0  0  0  0  0  0  0
    8.6680  -14.3503   21.9482 C   0  0  0  0  0  0  0  0  0  0  0  0
    9.1180  -15.7446   21.9473 C   0  0  2  0  0  0  0  0  0  0  0  0
    8.1055  -16.6647   22.4856 N   0  0  0  0  0  0  0  0  0  0  0  0
   10.4253  -15.9612   22.5572 C   0  0  0  0  0  0  0  0  0  0  0  0
   11.4228  -15.3018   22.2070 O   0  0  0  0  0  0  0  0  0  0  0  0
   10.0541  -15.1910   30.1936 O   0  0  0  0  0  0  0  0  0  0  0  0
   10.5903  -15.3147   28.9158 C   0  0  0  0  0  0  0  0  0  0  0  0
   10.2165  -14.4247   27.9461 C   0  0  0  0  0  0  0  0  0  0  0  0
   10.7402  -14.5395   26.6841 C   0  0  0  0  0  0  0  0  0  0  0  0
   11.6528  -15.5292   26.3131 C   0  0  0  0  0  0  0  0  0  0  0  0
   12.1727  -15.6232   24.9451 C   0  0  0  0  0  0  0  0  0  0  0  0
   11.9159  -16.9507   24.2976 C   0  0  2  0  0  0  0  0  0  0  0  0
   10.6487  -16.9402   23.5913 N   0  0  0  0  0  0  0  0  0  0  0  0
   11.9694  -18.0406   25.2893 C   0  0  0  0  0  0  0  0  0  0  0  0
   10.9303  -18.7514   25.5040 O   0  0  0  0  0  0  0  0  0  0  0  0
   11.9967  -16.4043   27.3354 C   0  0  0  0  0  0  0  0  0  0  0  0
   11.4886  -16.3144   28.6098 C   0  0  0  0  0  0  0  0  0  0  0  0
   13.0890  -18.3671   26.0279 O   0  0  0  0  0  0  0  0  0  0  0  0
  2  1  1  0
  3  2  1  0
  4  3  1  0
  5  4  1  0
  5  6  1  1
  7  8  2  0
  7  5  1  0
 10 11  1  6
 10  9  1  0
 12 10  1  0
 13 12  1  1
 13 14  1  0
 14  7  1  0
 15 13  1  0
 15 16  2  0
 18 17  1  0
 19 18  2  0
 20 19  1  0
 21 20  2  0
 21 27  1  0
 22 21  1  0
 23 22  1  1
 23 24  1  0
 24 15  1  0
 25 23  1  0
 26 25  2  0
 27 28  2  0
 28 18  1  0
 29 25  1  0
M  END
$$$$
