MLY.pdb
     RDKit          3D

 29 29  0  0  1  0  0  0  0  0999 V2000
    8.4697  -17.4594   14.7253 C   0  0  0  0  0  0  0  0  0  0  0  0
    8.3609  -19.2217   15.0985 S   0  0  0  0  0  0  0  0  0  0  0  0
    8.9971  -19.4749   16.7858 C   0  0  0  0  0  0  0  0  0  0  0  0
    9.2414  -18.1569   17.4631 C   0  0  0  0  0  0  0  0  0  0  0  0
    9.7005  -18.3020   18.8657 C   0  0  2  0  0  0  0  0  0  0  0  0
    8.6531  -18.9245   19.6894 N   0  0  0  0  0  0  0  0  0  0  0  0
   10.0903  -17.0197   19.5332 C   0  0  0  0  0  0  0  0  0  0  0  0
   11.1575  -16.4419   19.2073 O   0  0  0  0  0  0  0  0  0  0  0  0
    7.8639  -13.0889   19.7981 C   0  0  0  0  0  0  0  0  0  0  0  0
    7.4145  -13.9343   20.9524 C   0  0  2  0  0  0  0  0  0  0  0  0
    6.2056  -13.3839   21.6209 C   0  0  0  0  0  0  0  0  0  0  0  0
    8.4432  -14.5207   21.8089 C   0  0  0  0  0  0  0  0  0  0  0  0
    9.6253  -15.2017   21.2747 C   0  0  2  0  0  0  0  0  0  0  0  0
    9.2850  -16.4260   20.5351 N   0  0  0  0  0  0  0  0  0  0  0  0
   10.6844  -15.4353   22.2502 C   0  0  0  0  0  0  0  0  0  0  0  0
   11.6077  -14.6151   22.4154 O   0  0  0  0  0  0  0  0  0  0  0  0
   10.2299  -15.2395   30.7556 O   0  0  0  0  0  0  0  0  0  0  0  0
   10.1205  -15.3294   29.3715 C   0  0  0  0  0  0  0  0  0  0  0  0
    9.8134  -16.5355   28.8033 C   0  0  0  0  0  0  0  0  0  0  0  0
    9.7037  -16.6329   27.4400 C   0  0  0  0  0  0  0  0  0  0  0  0
    9.8891  -15.5558   26.5708 C   0  0  0  0  0  0  0  0  0  0  0  0
    9.7788  -15.7120   25.1169 C   0  0  0  0  0  0  0  0  0  0  0  0
   10.9192  -16.4716   24.5087 C   0  0  2  0  0  0  0  0  0  0  0  0
   10.7344  -16.6149   23.0769 N   0  0  0  0  0  0  0  0  0  0  0  0
   11.0885  -17.7823   25.1626 C   0  0  0  0  0  0  0  0  0  0  0  0
   10.3532  -18.7648   24.8090 O   0  0  0  0  0  0  0  0  0  0  0  0
   10.1986  -14.3573   27.2009 C   0  0  0  0  0  0  0  0  0  0  0  0
   10.3153  -14.2288   28.5649 C   0  0  0  0  0  0  0  0  0  0  0  0
   12.0089  -18.0428   26.1580 O   0  0  0  0  0  0  0  0  0  0  0  0
  2  1  1  0
  3  2  1  0
  4  3  1  0
  5  4  1  0
  5  6  1  1
  7  8  2  0
  7  5  1  0
 10 11  1  1
 10  9  1  0
 12 10  1  0
 13 12  1  1
 13 14  1  0
 14  7  1  0
 15 13  1  0
 15 16  2  0
 18 17  1  0
 19 18  2  0
 20 19  1  0
 21 20  2  0
 21 27  1  0
 22 21  1  0
 23 22  1  1
 23 24  1  0
 24 15  1  0
 25 23  1  0
 26 25  2  0
 27 28  2  0
 28 18  1  0
 29 25  1  0
M  END
$$$$
