MLY.pdb
     RDKit          3D

 29 29  0  0  1  0  0  0  0  0999 V2000
    7.2515  -20.2673   25.4140 C   0  0  0  0  0  0  0  0  0  0  0  0
    5.6345  -20.6888   24.7324 S   0  0  0  0  0  0  0  0  0  0  0  0
    5.6184  -20.1853   22.9825 C   0  0  0  0  0  0  0  0  0  0  0  0
    6.8305  -19.3603   22.6575 C   0  0  0  0  0  0  0  0  0  0  0  0
    6.8675  -18.9162   21.2432 C   0  0  2  0  0  0  0  0  0  0  0  0
    6.9304  -20.0754   20.3401 N   0  0  0  0  0  0  0  0  0  0  0  0
    8.0152  -18.0187   20.8980 C   0  0  0  0  0  0  0  0  0  0  0  0
    9.0945  -18.5114   20.4841 O   0  0  0  0  0  0  0  0  0  0  0  0
    6.2714  -14.1902   19.6502 C   0  0  0  0  0  0  0  0  0  0  0  0
    7.4333  -13.7502   20.4900 C   0  0  2  0  0  0  0  0  0  0  0  0
    7.4622  -12.2771   20.6902 C   0  0  0  0  0  0  0  0  0  0  0  0
    8.7150  -14.4221   20.2857 C   0  0  0  0  0  0  0  0  0  0  0  0
    9.0626  -15.6831   20.9456 C   0  0  2  0  0  0  0  0  0  0  0  0
    7.9250  -16.6113   21.0240 N   0  0  0  0  0  0  0  0  0  0  0  0
    9.7267  -15.5307   22.2354 C   0  0  0  0  0  0  0  0  0  0  0  0
   10.8272  -14.9551   22.3353 O   0  0  0  0  0  0  0  0  0  0  0  0
   11.2352  -14.7049   30.9117 O   0  0  0  0  0  0  0  0  0  0  0  0
   10.6625  -14.9059   29.6598 C   0  0  0  0  0  0  0  0  0  0  0  0
   10.3600  -13.8214   28.8823 C   0  0  0  0  0  0  0  0  0  0  0  0
    9.7954  -14.0107   27.6473 C   0  0  0  0  0  0  0  0  0  0  0  0
    9.5010  -15.2683   27.1165 C   0  0  0  0  0  0  0  0  0  0  0  0
    8.8801  -15.4208   25.7967 C   0  0  0  0  0  0  0  0  0  0  0  0
    9.8543  -15.7808   24.7156 C   0  0  2  0  0  0  0  0  0  0  0  0
    9.1631  -16.0299   23.4646 N   0  0  0  0  0  0  0  0  0  0  0  0
   10.6800  -16.9361   25.1126 C   0  0  0  0  0  0  0  0  0  0  0  0
   11.5881  -16.7894   25.9986 O   0  0  0  0  0  0  0  0  0  0  0  0
    9.8283  -16.3322   27.9473 C   0  0  0  0  0  0  0  0  0  0  0  0
   10.3950  -16.1738   29.1900 C   0  0  0  0  0  0  0  0  0  0  0  0
   10.5459  -18.2061   24.5883 O   0  0  0  0  0  0  0  0  0  0  0  0
  2  1  1  0
  3  2  1  0
  4  3  1  0
  5  4  1  0
  5  6  1  6
  7  8  2  0
  7  5  1  0
 10 11  1  6
 10  9  1  0
 12 10  1  0
 13 12  1  1
 13 14  1  0
 14  7  1  0
 15 13  1  0
 15 16  2  0
 18 17  1  0
 19 18  2  0
 20 19  1  0
 21 20  2  0
 21 27  1  0
 22 21  1  0
 23 22  1  1
 23 24  1  0
 24 15  1  0
 25 23  1  0
 26 25  2  0
 27 28  2  0
 28 18  1  0
 29 25  1  0
M  END
$$$$
