MLY.pdb
     RDKit          3D

 29 29  0  0  1  0  0  0  0  0999 V2000
    7.7880  -12.6362   16.9564 C   0  0  0  0  0  0  0  0  0  0  0  0
    7.6273  -14.2841   16.2387 S   0  0  0  0  0  0  0  0  0  0  0  0
    7.6862  -15.4932   17.5990 C   0  0  0  0  0  0  0  0  0  0  0  0
    8.2071  -14.8535   18.8541 C   0  0  0  0  0  0  0  0  0  0  0  0
    8.2588  -15.7891   20.0034 C   0  0  2  0  0  0  0  0  0  0  0  0
    6.9451  -16.4142   20.2191 N   0  0  0  0  0  0  0  0  0  0  0  0
    8.6752  -15.1665   21.2999 C   0  0  0  0  0  0  0  0  0  0  0  0
    9.8673  -14.8069   21.4689 O   0  0  0  0  0  0  0  0  0  0  0  0
    5.7374  -13.5622   26.6732 C   0  0  0  0  0  0  0  0  0  0  0  0
    6.9063  -13.4195   25.7446 C   0  0  2  0  0  0  0  0  0  0  0  0
    7.3611  -12.0095   25.6187 C   0  0  0  0  0  0  0  0  0  0  0  0
    6.9174  -14.2360   24.5326 C   0  0  0  0  0  0  0  0  0  0  0  0
    8.0726  -14.3044   23.6339 C   0  0  2  0  0  0  0  0  0  0  0  0
    7.7573  -14.9656   22.3591 N   0  0  0  0  0  0  0  0  0  0  0  0
    9.2828  -14.8475   24.2407 C   0  0  0  0  0  0  0  0  0  0  0  0
   10.3102  -14.1551   24.3728 O   0  0  0  0  0  0  0  0  0  0  0  0
   12.2281  -16.6266   32.0180 O   0  0  0  0  0  0  0  0  0  0  0  0
   11.5541  -16.4516   30.8134 C   0  0  0  0  0  0  0  0  0  0  0  0
   11.5531  -15.2176   30.2225 C   0  0  0  0  0  0  0  0  0  0  0  0
   10.8913  -15.0364   29.0354 C   0  0  0  0  0  0  0  0  0  0  0  0
   10.2009  -16.0532   28.3724 C   0  0  0  0  0  0  0  0  0  0  0  0
    9.4922  -15.8076   27.1122 C   0  0  0  0  0  0  0  0  0  0  0  0
   10.1225  -16.4813   25.9305 C   0  0  2  0  0  0  0  0  0  0  0  0
    9.3712  -16.2037   24.7209 N   0  0  0  0  0  0  0  0  0  0  0  0
   10.2559  -17.9318   26.1593 C   0  0  0  0  0  0  0  0  0  0  0  0
    9.2643  -18.7023   25.9265 O   0  0  0  0  0  0  0  0  0  0  0  0
   10.2347  -17.2834   29.0163 C   0  0  0  0  0  0  0  0  0  0  0  0
   10.8895  -17.4955   30.2065 C   0  0  0  0  0  0  0  0  0  0  0  0
   11.4042  -18.5454   26.6184 O   0  0  0  0  0  0  0  0  0  0  0  0
  2  1  1  0
  3  2  1  0
  4  3  1  0
  5  4  1  0
  5  6  1  1
  7  8  2  0
  7  5  1  0
 10 11  1  6
 10  9  1  0
 12 10  1  0
 13 12  1  1
 13 14  1  0
 14  7  1  0
 15 13  1  0
 15 16  2  0
 18 17  1  0
 19 18  2  0
 20 19  1  0
 21 20  2  0
 21 27  1  0
 22 21  1  0
 23 22  1  1
 23 24  1  0
 24 15  1  0
 25 23  1  0
 26 25  2  0
 27 28  2  0
 28 18  1  0
 29 25  1  0
M  END
$$$$
