MLY.pdb
     RDKit          3D

 29 29  0  0  1  0  0  0  0  0999 V2000
    6.1426  -19.7913   21.2758 C   0  0  0  0  0  0  0  0  0  0  0  0
    7.5742  -19.5481   20.2043 S   0  0  0  0  0  0  0  0  0  0  0  0
    7.2737  -18.0581   19.2015 C   0  0  0  0  0  0  0  0  0  0  0  0
    7.9366  -16.8608   19.8200 C   0  0  0  0  0  0  0  0  0  0  0  0
    7.8043  -16.8229   21.2965 C   0  0  2  0  0  0  0  0  0  0  0  0
    6.3902  -16.7102   21.6849 N   0  0  0  0  0  0  0  0  0  0  0  0
    8.5409  -15.7027   21.9631 C   0  0  0  0  0  0  0  0  0  0  0  0
    9.7764  -15.5663   21.7780 O   0  0  0  0  0  0  0  0  0  0  0  0
    5.3123  -13.2789   24.7660 C   0  0  0  0  0  0  0  0  0  0  0  0
    6.6856  -12.7385   25.0326 C   0  0  2  0  0  0  0  0  0  0  0  0
    6.6761  -11.6325   26.0264 C   0  0  0  0  0  0  0  0  0  0  0  0
    7.5996  -12.6108   23.8995 C   0  0  0  0  0  0  0  0  0  0  0  0
    8.5393  -13.6678   23.5165 C   0  0  2  0  0  0  0  0  0  0  0  0
    7.8831  -14.7767   22.8085 N   0  0  0  0  0  0  0  0  0  0  0  0
    9.3905  -14.1456   24.6005 C   0  0  0  0  0  0  0  0  0  0  0  0
   10.1577  -13.3768   25.2110 O   0  0  0  0  0  0  0  0  0  0  0  0
   12.4696  -17.9619   31.8026 O   0  0  0  0  0  0  0  0  0  0  0  0
   11.7188  -17.5025   30.7251 C   0  0  0  0  0  0  0  0  0  0  0  0
   11.1833  -18.4080   29.8503 C   0  0  0  0  0  0  0  0  0  0  0  0
   10.4421  -17.9638   28.7858 C   0  0  0  0  0  0  0  0  0  0  0  0
   10.1909  -16.6145   28.5283 C   0  0  0  0  0  0  0  0  0  0  0  0
    9.4064  -16.1856   27.3659 C   0  0  0  0  0  0  0  0  0  0  0  0
   10.2402  -15.9068   26.1516 C   0  0  2  0  0  0  0  0  0  0  0  0
    9.4024  -15.5209   25.0318 N   0  0  0  0  0  0  0  0  0  0  0  0
   11.0865  -17.0664   25.8150 C   0  0  0  0  0  0  0  0  0  0  0  0
   12.1766  -17.2594   26.4518 O   0  0  0  0  0  0  0  0  0  0  0  0
   10.7578  -15.7403   29.4468 C   0  0  0  0  0  0  0  0  0  0  0  0
   11.5053  -16.1557   30.5234 C   0  0  0  0  0  0  0  0  0  0  0  0
   10.7855  -17.9922   24.8362 O   0  0  0  0  0  0  0  0  0  0  0  0
  2  1  1  0
  3  2  1  0
  4  3  1  0
  5  4  1  0
  5  6  1  6
  7  8  2  0
  7  5  1  0
 10 11  1  6
 10  9  1  0
 12 10  1  0
 13 12  1  1
 13 14  1  0
 14  7  1  0
 15 13  1  0
 15 16  2  0
 18 17  1  0
 19 18  2  0
 20 19  1  0
 21 20  2  0
 21 27  1  0
 22 21  1  0
 23 22  1  1
 23 24  1  0
 24 15  1  0
 25 23  1  0
 26 25  2  0
 27 28  2  0
 28 18  1  0
 29 25  1  0
M  END
$$$$
