MLY.pdb
     RDKit          3D

 29 29  0  0  1  0  0  0  0  0999 V2000
    6.7914  -11.3209   26.9491 C   0  0  0  0  0  0  0  0  0  0  0  0
    6.0428  -12.4505   25.7574 S   0  0  0  0  0  0  0  0  0  0  0  0
    5.6066  -13.9829   26.6392 C   0  0  0  0  0  0  0  0  0  0  0  0
    5.6882  -15.1659   25.7176 C   0  0  0  0  0  0  0  0  0  0  0  0
    7.0639  -15.7028   25.5834 C   0  0  2  0  0  0  0  0  0  0  0  0
    8.0458  -14.7425   26.1097 N   0  0  0  0  0  0  0  0  0  0  0  0
    7.4725  -16.0362   24.1821 C   0  0  0  0  0  0  0  0  0  0  0  0
    7.0066  -17.0586   23.6192 O   0  0  0  0  0  0  0  0  0  0  0  0
    6.7908  -14.6925   20.1584 C   0  0  0  0  0  0  0  0  0  0  0  0
    7.8809  -13.8402   20.7365 C   0  0  2  0  0  0  0  0  0  0  0  0
    8.0724  -12.5747   19.9796 C   0  0  0  0  0  0  0  0  0  0  0  0
    9.0813  -14.5115   21.2306 C   0  0  0  0  0  0  0  0  0  0  0  0
    9.0329  -15.6113   22.1975 C   0  0  2  0  0  0  0  0  0  0  0  0
    8.3802  -15.2264   23.4575 N   0  0  0  0  0  0  0  0  0  0  0  0
   10.3123  -16.2721   22.4303 C   0  0  0  0  0  0  0  0  0  0  0  0
   11.2389  -16.2044   21.6001 O   0  0  0  0  0  0  0  0  0  0  0  0
    9.5132  -15.4057   29.7678 O   0  0  0  0  0  0  0  0  0  0  0  0
   10.1938  -15.5166   28.5594 C   0  0  0  0  0  0  0  0  0  0  0  0
   11.0148  -16.5913   28.3519 C   0  0  0  0  0  0  0  0  0  0  0  0
   11.6892  -16.7081   27.1638 C   0  0  0  0  0  0  0  0  0  0  0  0
   11.5916  -15.7800   26.1251 C   0  0  0  0  0  0  0  0  0  0  0  0
   12.3466  -15.9381   24.8779 C   0  0  0  0  0  0  0  0  0  0  0  0
   11.9543  -17.1525   24.0912 C   0  0  2  0  0  0  0  0  0  0  0  0
   10.5870  -17.0386   23.6197 N   0  0  0  0  0  0  0  0  0  0  0  0
   12.1487  -18.3803   24.8842 C   0  0  0  0  0  0  0  0  0  0  0  0
   11.1554  -19.1506   25.1105 O   0  0  0  0  0  0  0  0  0  0  0  0
   10.7458  -14.7105   26.3895 C   0  0  0  0  0  0  0  0  0  0  0  0
   10.0566  -14.5662   27.5705 C   0  0  0  0  0  0  0  0  0  0  0  0
   13.3576  -18.7791   25.4183 O   0  0  0  0  0  0  0  0  0  0  0  0
  2  1  1  0
  3  2  1  0
  4  3  1  0
  5  4  1  0
  5  6  1  6
  7  8  2  0
  7  5  1  0
 10 11  1  6
 10  9  1  0
 12 10  1  0
 13 12  1  6
 13 14  1  0
 14  7  1  0
 15 13  1  0
 15 16  2  0
 18 17  1  0
 19 18  2  0
 20 19  1  0
 21 20  2  0
 21 27  1  0
 22 21  1  0
 23 22  1  1
 23 24  1  0
 24 15  1  0
 25 23  1  0
 26 25  2  0
 27 28  2  0
 28 18  1  0
 29 25  1  0
M  END
$$$$
