QVV.pdb
     RDKit          3D

 24 23  0  0  1  0  0  0  0  0999 V2000
   12.0056  -21.4617   22.8188 N   0  0  0  0  0  0  0  0  0  0  0  0
   12.8234  -20.5256   22.1756 C   0  0  0  0  0  0  0  0  0  0  0  0
   14.0283  -20.4460   22.5166 O   0  0  0  0  0  0  0  0  0  0  0  0
   12.3307  -19.6206   21.1148 C   0  0  0  0  0  0  0  0  0  0  0  0
   10.9037  -19.1698   21.4807 C   0  0  0  0  0  0  0  0  0  0  0  0
   10.6573  -17.7941   20.9408 C   0  0  2  0  0  0  0  0  0  0  0  0
   11.7063  -17.4899   19.9791 N   0  0  0  0  0  0  0  0  0  0  0  0
   10.4931  -16.7512   21.9640 C   0  0  0  0  0  0  0  0  0  0  0  0
   11.4026  -15.9900   22.3338 O   0  0  0  0  0  0  0  0  0  0  0  0
    7.2499  -14.5499   21.8643 C   0  0  0  0  0  0  0  0  0  0  0  0
    7.4874  -15.0306   23.2999 C   0  0  2  0  0  0  0  0  0  0  0  0
    7.1719  -13.8959   24.2709 C   0  0  0  0  0  0  0  0  0  0  0  0
    8.8715  -15.5701   23.4641 C   0  0  2  0  0  0  0  0  0  0  0  0
    9.1918  -16.6332   22.5536 N   0  0  0  0  0  0  0  0  0  0  0  0
    9.1549  -16.0181   24.8911 C   0  0  0  0  0  0  0  0  0  0  0  0
    8.9319  -17.2049   25.1985 O   0  0  0  0  0  0  0  0  0  0  0  0
   10.2328  -14.2662   29.4206 C   0  0  0  0  0  0  0  0  0  0  0  0
    9.5483  -14.1156   28.0620 C   0  0  1  0  0  0  0  0  0  0  0  0
    9.9089  -12.8073   27.4701 C   0  0  0  0  0  0  0  0  0  0  0  0
    9.9785  -15.2933   27.2151 C   0  0  2  0  0  0  0  0  0  0  0  0
    9.6431  -15.1176   25.8463 N   0  0  0  0  0  0  0  0  0  0  0  0
    9.5923  -16.5580   27.8637 C   0  0  0  0  0  0  0  0  0  0  0  0
   10.5281  -17.2812   28.5896 O   0  0  0  0  0  0  0  0  0  0  0  0
    8.4449  -17.0584   27.7799 O   0  0  0  0  0  0  0  0  0  0  0  0
  2  1  1  0
  2  3  2  0
  4  5  1  0
  4  2  1  0
  6  5  1  0
  6  7  1  6
  8 14  1  0
  8  6  1  0
  9  8  2  0
 11 10  1  6
 11 13  1  0
 11 12  1  0
 13 14  1  6
 15 13  1  0
 16 15  2  0
 18 20  1  0
 18 17  1  1
 19 18  1  0
 20 22  1  0
 20 21  1  6
 21 15  1  0
 22 23  1  0
 24 22  2  0
M  END
$$$$
