QVV.pdb
     RDKit          3D

 24 23  0  0  1  0  0  0  0  0999 V2000
   13.8191  -14.4520   20.3790 N   0  0  0  0  0  0  0  0  0  0  0  0
   13.3800  -14.7284   19.0792 C   0  0  0  0  0  0  0  0  0  0  0  0
   14.2079  -14.6610   18.1386 O   0  0  0  0  0  0  0  0  0  0  0  0
   11.9820  -15.0914   18.7618 C   0  0  0  0  0  0  0  0  0  0  0  0
   11.1801  -15.1437   20.0763 C   0  0  0  0  0  0  0  0  0  0  0  0
    9.7713  -15.5648   19.7890 C   0  0  2  0  0  0  0  0  0  0  0  0
    9.3733  -14.9792   18.5177 N   0  0  0  0  0  0  0  0  0  0  0  0
    8.8148  -15.2953   20.8725 C   0  0  0  0  0  0  0  0  0  0  0  0
    7.9854  -14.3706   20.8544 O   0  0  0  0  0  0  0  0  0  0  0  0
    6.4831  -17.9035   22.0084 C   0  0  0  0  0  0  0  0  0  0  0  0
    7.1820  -17.4162   23.2821 C   0  0  2  0  0  0  0  0  0  0  0  0
    6.1669  -17.3479   24.4202 C   0  0  0  0  0  0  0  0  0  0  0  0
    7.8826  -16.1170   23.0476 C   0  0  2  0  0  0  0  0  0  0  0  0
    8.8704  -16.1702   22.0068 N   0  0  0  0  0  0  0  0  0  0  0  0
    8.5088  -15.5571   24.3170 C   0  0  0  0  0  0  0  0  0  0  0  0
    9.6526  -15.9362   24.6345 O   0  0  0  0  0  0  0  0  0  0  0  0
    6.6031  -12.2347   25.7732 C   0  0  0  0  0  0  0  0  0  0  0  0
    7.0381  -13.1739   26.8983 C   0  0  1  0  0  0  0  0  0  0  0  0
    5.8739  -13.9635   27.3598 C   0  0  0  0  0  0  0  0  0  0  0  0
    8.1616  -14.0287   26.3536 C   0  0  2  0  0  0  0  0  0  0  0  0
    7.8145  -14.6456   25.1224 N   0  0  0  0  0  0  0  0  0  0  0  0
    8.7198  -14.8791   27.4188 C   0  0  0  0  0  0  0  0  0  0  0  0
    9.6211  -14.3490   28.3310 O   0  0  0  0  0  0  0  0  0  0  0  0
    8.4497  -16.0976   27.5466 O   0  0  0  0  0  0  0  0  0  0  0  0
  2  1  1  0
  2  3  2  0
  4  5  1  0
  4  2  1  0
  6  5  1  0
  6  7  1  6
  8 14  1  0
  8  6  1  0
  9  8  2  0
 11 10  1  6
 11 13  1  0
 11 12  1  0
 13 14  1  6
 15 13  1  0
 16 15  2  0
 18 20  1  0
 18 17  1  6
 19 18  1  0
 20 22  1  0
 20 21  1  6
 21 15  1  0
 22 23  1  0
 24 22  2  0
M  END
$$$$
