QVV.pdb
     RDKit          3D

 24 23  0  0  1  0  0  0  0  0999 V2000
    9.3736  -20.1262   20.5758 N   0  0  0  0  0  0  0  0  0  0  0  0
   10.6186  -20.5693   20.1148 C   0  0  0  0  0  0  0  0  0  0  0  0
   10.6495  -21.4465   19.2181 O   0  0  0  0  0  0  0  0  0  0  0  0
   11.9014  -20.0546   20.6406 C   0  0  0  0  0  0  0  0  0  0  0  0
   11.5986  -19.0148   21.7363 C   0  0  0  0  0  0  0  0  0  0  0  0
   11.0871  -17.7554   21.1063 C   0  0  2  0  0  0  0  0  0  0  0  0
   12.0250  -17.3544   20.0684 N   0  0  0  0  0  0  0  0  0  0  0  0
   10.7785  -16.6741   22.0535 C   0  0  0  0  0  0  0  0  0  0  0  0
   11.5933  -15.8058   22.4077 O   0  0  0  0  0  0  0  0  0  0  0  0
    7.4059  -14.6287   21.8447 C   0  0  0  0  0  0  0  0  0  0  0  0
    7.5995  -15.1810   23.2609 C   0  0  2  0  0  0  0  0  0  0  0  0
    7.1319  -14.1416   24.2764 C   0  0  0  0  0  0  0  0  0  0  0  0
    9.0127  -15.6151   23.4802 C   0  0  2  0  0  0  0  0  0  0  0  0
    9.4473  -16.6501   22.5849 N   0  0  0  0  0  0  0  0  0  0  0  0
    9.2729  -16.0421   24.9180 C   0  0  0  0  0  0  0  0  0  0  0  0
    9.1480  -17.2461   25.2140 O   0  0  0  0  0  0  0  0  0  0  0  0
   10.1835  -14.1948   29.4569 C   0  0  0  0  0  0  0  0  0  0  0  0
    9.4680  -14.1078   28.1087 C   0  0  1  0  0  0  0  0  0  0  0  0
    9.7255  -12.7840   27.4978 C   0  0  0  0  0  0  0  0  0  0  0  0
    9.9664  -15.2616   27.2663 C   0  0  2  0  0  0  0  0  0  0  0  0
    9.6322  -15.1049   25.8949 N   0  0  0  0  0  0  0  0  0  0  0  0
    9.6431  -16.5446   27.9134 C   0  0  0  0  0  0  0  0  0  0  0  0
   10.6218  -17.2366   28.6127 O   0  0  0  0  0  0  0  0  0  0  0  0
    8.5139  -17.0877   27.8514 O   0  0  0  0  0  0  0  0  0  0  0  0
  2  1  1  0
  2  3  2  0
  4  5  1  0
  4  2  1  0
  6  5  1  0
  6  7  1  6
  8 14  1  0
  8  6  1  0
  9  8  2  0
 11 10  1  6
 11 13  1  0
 11 12  1  0
 13 14  1  6
 15 13  1  0
 16 15  2  0
 18 20  1  0
 18 17  1  1
 19 18  1  0
 20 22  1  0
 20 21  1  6
 21 15  1  0
 22 23  1  0
 24 22  2  0
M  END
$$$$
