QVV.pdb
     RDKit          3D

 24 23  0  0  1  0  0  0  0  0999 V2000
   11.7912  -17.7774   19.6248 N   0  0  0  0  0  0  0  0  0  0  0  0
   10.4746  -18.0761   19.2557 C   0  0  0  0  0  0  0  0  0  0  0  0
   10.2829  -18.8085   18.2551 O   0  0  0  0  0  0  0  0  0  0  0  0
    9.2970  -17.5629   19.9884 C   0  0  0  0  0  0  0  0  0  0  0  0
    9.7914  -16.7506   21.2006 C   0  0  0  0  0  0  0  0  0  0  0  0
    8.6158  -16.2280   21.9684 C   0  0  2  0  0  0  0  0  0  0  0  0
    7.6836  -15.6343   21.0217 N   0  0  0  0  0  0  0  0  0  0  0  0
    8.9570  -15.3303   23.0816 C   0  0  0  0  0  0  0  0  0  0  0  0
   10.0551  -14.7628   23.2063 O   0  0  0  0  0  0  0  0  0  0  0  0
    6.8648  -12.3604   24.5577 C   0  0  0  0  0  0  0  0  0  0  0  0
    7.0742  -13.4342   25.6308 C   0  0  2  0  0  0  0  0  0  0  0  0
    7.2856  -12.7607   26.9843 C   0  0  0  0  0  0  0  0  0  0  0  0
    8.1899  -14.3563   25.2583 C   0  0  2  0  0  0  0  0  0  0  0  0
    7.9387  -15.1198   24.0685 N   0  0  0  0  0  0  0  0  0  0  0  0
    8.5728  -15.2939   26.3947 C   0  0  0  0  0  0  0  0  0  0  0  0
    7.7208  -16.1009   26.8141 O   0  0  0  0  0  0  0  0  0  0  0  0
   12.3877  -17.5413   28.4558 C   0  0  0  0  0  0  0  0  0  0  0  0
   11.8735  -16.5067   27.4546 C   0  0  1  0  0  0  0  0  0  0  0  0
   11.8987  -17.0842   26.0915 C   0  0  0  0  0  0  0  0  0  0  0  0
   10.4873  -16.1023   27.9065 C   0  0  2  0  0  0  0  0  0  0  0  0
    9.8488  -15.2466   26.9699 N   0  0  0  0  0  0  0  0  0  0  0  0
   10.5112  -15.6847   29.3187 C   0  0  0  0  0  0  0  0  0  0  0  0
   10.4645  -16.6376   30.3264 O   0  0  0  0  0  0  0  0  0  0  0  0
   10.5439  -14.4858   29.6871 O   0  0  0  0  0  0  0  0  0  0  0  0
  2  1  1  0
  2  3  2  0
  4  5  1  0
  4  2  1  0
  6  5  1  0
  6  7  1  6
  8 14  1  0
  8  6  1  0
  9  8  2  0
 11 10  1  6
 11 13  1  0
 11 12  1  0
 13 14  1  6
 15 13  1  0
 16 15  2  0
 18 20  1  0
 18 17  1  1
 19 18  1  0
 20 22  1  0
 20 21  1  6
 21 15  1  0
 22 23  1  0
 24 22  2  0
M  END
$$$$
