QVV.pdb
     RDKit          3D

 24 23  0  0  1  0  0  0  0  0999 V2000
   13.0740  -20.2040   21.9169 N   0  0  0  0  0  0  0  0  0  0  0  0
   12.7434  -20.5289   20.5964 C   0  0  0  0  0  0  0  0  0  0  0  0
   13.3401  -21.4856   20.0459 O   0  0  0  0  0  0  0  0  0  0  0  0
   11.7255  -19.7920   19.8168 C   0  0  0  0  0  0  0  0  0  0  0  0
   11.0538  -18.7597   20.7424 C   0  0  0  0  0  0  0  0  0  0  0  0
   10.4639  -17.6556   19.9192 C   0  0  2  0  0  0  0  0  0  0  0  0
   11.2877  -17.4856   18.7317 N   0  0  0  0  0  0  0  0  0  0  0  0
   10.2357  -16.3988   20.6473 C   0  0  0  0  0  0  0  0  0  0  0  0
   11.0857  -15.5010   20.7689 O   0  0  0  0  0  0  0  0  0  0  0  0
    7.3373  -14.0149   20.0962 C   0  0  0  0  0  0  0  0  0  0  0  0
    7.3057  -14.4309   21.5708 C   0  0  2  0  0  0  0  0  0  0  0  0
    6.9208  -13.2270   22.4268 C   0  0  0  0  0  0  0  0  0  0  0  0
    8.6029  -15.0481   21.9832 C   0  0  2  0  0  0  0  0  0  0  0  0
    8.9432  -16.2314   21.2444 N   0  0  0  0  0  0  0  0  0  0  0  0
    8.6566  -15.3453   23.4751 C   0  0  0  0  0  0  0  0  0  0  0  0
    8.3919  -16.4997   23.8627 O   0  0  0  0  0  0  0  0  0  0  0  0
    7.3927  -12.6171   26.2127 C   0  0  0  0  0  0  0  0  0  0  0  0
    8.8610  -12.9905   26.4174 C   0  0  1  0  0  0  0  0  0  0  0  0
    9.1889  -12.9305   27.8599 C   0  0  0  0  0  0  0  0  0  0  0  0
    9.0574  -14.3653   25.8168 C   0  0  2  0  0  0  0  0  0  0  0  0
    8.9826  -14.3442   24.3987 N   0  0  0  0  0  0  0  0  0  0  0  0
    8.2426  -15.3591   26.5364 C   0  0  0  0  0  0  0  0  0  0  0  0
    8.8064  -16.1143   27.5549 O   0  0  0  0  0  0  0  0  0  0  0  0
    7.0412  -15.5984   26.2654 O   0  0  0  0  0  0  0  0  0  0  0  0
  2  1  1  0
  2  3  2  0
  4  5  1  0
  4  2  1  0
  6  5  1  0
  6  7  1  6
  8 14  1  0
  8  6  1  0
  9  8  2  0
 11 10  1  6
 11 13  1  0
 11 12  1  0
 13 14  1  6
 15 13  1  0
 16 15  2  0
 18 20  1  0
 18 17  1  1
 19 18  1  0
 20 22  1  0
 20 21  1  6
 21 15  1  0
 22 23  1  0
 24 22  2  0
M  END
$$$$
