QVV.pdb
     RDKit          3D

 24 23  0  0  1  0  0  0  0  0999 V2000
   11.2325  -21.4129   22.7530 N   0  0  0  0  0  0  0  0  0  0  0  0
   12.3179  -20.7760   22.1406 C   0  0  0  0  0  0  0  0  0  0  0  0
   13.4333  -21.3508   22.1470 O   0  0  0  0  0  0  0  0  0  0  0  0
   12.2121  -19.4522   21.4900 C   0  0  0  0  0  0  0  0  0  0  0  0
   10.7315  -19.0261   21.4869 C   0  0  0  0  0  0  0  0  0  0  0  0
   10.6016  -17.6654   20.8733 C   0  0  2  0  0  0  0  0  0  0  0  0
   11.7315  -17.4614   19.9793 N   0  0  0  0  0  0  0  0  0  0  0  0
   10.4238  -16.5696   21.8372 C   0  0  0  0  0  0  0  0  0  0  0  0
   11.3441  -15.8347   22.2326 O   0  0  0  0  0  0  0  0  0  0  0  0
    7.1651  -14.1761   21.9003 C   0  0  0  0  0  0  0  0  0  0  0  0
    7.4264  -14.8220   23.2652 C   0  0  2  0  0  0  0  0  0  0  0  0
    7.1330  -13.8079   24.3679 C   0  0  0  0  0  0  0  0  0  0  0  0
    8.8111  -15.3797   23.3399 C   0  0  2  0  0  0  0  0  0  0  0  0
    9.0949  -16.3644   22.3342 N   0  0  0  0  0  0  0  0  0  0  0  0
    9.1357  -15.9465   24.7148 C   0  0  0  0  0  0  0  0  0  0  0  0
    8.8600  -17.1391   24.9480 O   0  0  0  0  0  0  0  0  0  0  0  0
   10.5702  -14.5038   29.2642 C   0  0  0  0  0  0  0  0  0  0  0  0
    9.8258  -14.2302   27.9572 C   0  0  1  0  0  0  0  0  0  0  0  0
   10.3054  -12.9569   27.3735 C   0  0  0  0  0  0  0  0  0  0  0  0
   10.0559  -15.4242   27.0568 C   0  0  2  0  0  0  0  0  0  0  0  0
    9.7194  -15.1466   25.7053 N   0  0  0  0  0  0  0  0  0  0  0  0
    9.4998  -16.6423   27.6705 C   0  0  0  0  0  0  0  0  0  0  0  0
   10.3424  -17.5586   28.2838 O   0  0  0  0  0  0  0  0  0  0  0  0
    8.2795  -16.9330   27.6527 O   0  0  0  0  0  0  0  0  0  0  0  0
  2  1  1  0
  2  3  2  0
  4  5  1  0
  4  2  1  0
  6  5  1  0
  6  7  1  1
  8 14  1  0
  8  6  1  0
  9  8  2  0
 11 10  1  6
 11 13  1  0
 11 12  1  0
 13 14  1  6
 15 13  1  0
 16 15  2  0
 18 20  1  0
 18 17  1  1
 19 18  1  0
 20 22  1  0
 20 21  1  6
 21 15  1  0
 22 23  1  0
 24 22  2  0
M  END
$$$$
