QVV.pdb
     RDKit          3D

 24 23  0  0  1  0  0  0  0  0999 V2000
   11.2283  -13.8068   20.9833 N   0  0  0  0  0  0  0  0  0  0  0  0
   11.0987  -13.4706   19.6309 C   0  0  0  0  0  0  0  0  0  0  0  0
   12.1031  -13.5775   18.8865 O   0  0  0  0  0  0  0  0  0  0  0  0
    9.8318  -12.9892   19.0390 C   0  0  0  0  0  0  0  0  0  0  0  0
    8.7382  -13.0322   20.1234 C   0  0  0  0  0  0  0  0  0  0  0  0
    8.1681  -14.4151   20.2074 C   0  0  2  0  0  0  0  0  0  0  0  0
    7.2550  -14.5978   19.0892 N   0  0  0  0  0  0  0  0  0  0  0  0
    7.5661  -14.7553   21.5049 C   0  0  0  0  0  0  0  0  0  0  0  0
    6.4822  -14.3023   21.9091 O   0  0  0  0  0  0  0  0  0  0  0  0
    6.2407  -17.7752   22.7265 C   0  0  0  0  0  0  0  0  0  0  0  0
    7.3941  -17.4955   23.6960 C   0  0  2  0  0  0  0  0  0  0  0  0
    6.9866  -17.9257   25.1028 C   0  0  0  0  0  0  0  0  0  0  0  0
    7.8212  -16.0650   23.6249 C   0  0  2  0  0  0  0  0  0  0  0  0
    8.3016  -15.6665   22.3318 N   0  0  0  0  0  0  0  0  0  0  0  0
    8.8569  -15.7146   24.6840 C   0  0  0  0  0  0  0  0  0  0  0  0
    9.9907  -16.2250   24.6007 O   0  0  0  0  0  0  0  0  0  0  0  0
    9.1157  -12.1398   26.2832 C   0  0  0  0  0  0  0  0  0  0  0  0
    8.8877  -13.1286   27.4266 C   0  0  1  0  0  0  0  0  0  0  0  0
    7.4805  -13.0440   27.8790 C   0  0  0  0  0  0  0  0  0  0  0  0
    9.2680  -14.4992   26.9108 C   0  0  2  0  0  0  0  0  0  0  0  0
    8.5447  -14.8486   25.7395 N   0  0  0  0  0  0  0  0  0  0  0  0
    9.3014  -15.4710   28.0171 C   0  0  0  0  0  0  0  0  0  0  0  0
   10.3271  -15.4265   28.9507 O   0  0  0  0  0  0  0  0  0  0  0  0
    8.4541  -16.3845   28.1638 O   0  0  0  0  0  0  0  0  0  0  0  0
  2  1  1  0
  2  3  2  0
  4  5  1  0
  4  2  1  0
  6  5  1  0
  6  7  1  6
  8 14  1  0
  8  6  1  0
  9  8  2  0
 11 10  1  6
 11 13  1  0
 11 12  1  0
 13 14  1  6
 15 13  1  0
 16 15  2  0
 18 20  1  0
 18 17  1  6
 19 18  1  0
 20 22  1  0
 20 21  1  6
 21 15  1  0
 22 23  1  0
 24 22  2  0
M  END
$$$$
