QVV.pdb
     RDKit          3D

 24 23  0  0  1  0  0  0  0  0999 V2000
    7.6022  -16.7442   17.7344 N   0  0  0  0  0  0  0  0  0  0  0  0
    8.9838  -16.5690   17.8733 C   0  0  0  0  0  0  0  0  0  0  0  0
    9.7303  -16.9033   16.9218 O   0  0  0  0  0  0  0  0  0  0  0  0
    9.6059  -16.0122   19.0940 C   0  0  0  0  0  0  0  0  0  0  0  0
    8.4959  -15.7367   20.1262 C   0  0  0  0  0  0  0  0  0  0  0  0
    8.7974  -16.4716   21.3965 C   0  0  2  0  0  0  0  0  0  0  0  0
    7.7128  -17.4091   21.6463 N   0  0  0  0  0  0  0  0  0  0  0  0
    9.0925  -15.6105   22.5511 C   0  0  0  0  0  0  0  0  0  0  0  0
   10.1318  -14.9408   22.6719 O   0  0  0  0  0  0  0  0  0  0  0  0
    6.4305  -13.2353   24.2670 C   0  0  0  0  0  0  0  0  0  0  0  0
    7.0547  -14.1669   25.3115 C   0  0  2  0  0  0  0  0  0  0  0  0
    7.2834  -13.3919   26.6066 C   0  0  0  0  0  0  0  0  0  0  0  0
    8.3001  -14.8051   24.7868 C   0  0  2  0  0  0  0  0  0  0  0  0
    8.1005  -15.5651   23.5850 N   0  0  0  0  0  0  0  0  0  0  0  0
    8.9924  -15.6717   25.8293 C   0  0  0  0  0  0  0  0  0  0  0  0
    8.7572  -16.8955   25.8383 O   0  0  0  0  0  0  0  0  0  0  0  0
   11.4353  -13.4366   28.2579 C   0  0  0  0  0  0  0  0  0  0  0  0
   10.9232  -14.7133   28.9249 C   0  0  1  0  0  0  0  0  0  0  0  0
    9.7461  -14.3936   29.7641 C   0  0  0  0  0  0  0  0  0  0  0  0
   10.6183  -15.7002   27.8193 C   0  0  2  0  0  0  0  0  0  0  0  0
    9.8656  -15.1102   26.7694 N   0  0  0  0  0  0  0  0  0  0  0  0
   10.1340  -16.9703   28.3867 C   0  0  0  0  0  0  0  0  0  0  0  0
   11.0202  -17.8341   29.0143 O   0  0  0  0  0  0  0  0  0  0  0  0
    8.9409  -17.3516   28.3154 O   0  0  0  0  0  0  0  0  0  0  0  0
  2  1  1  0
  2  3  2  0
  4  5  1  0
  4  2  1  0
  6  5  1  0
  6  7  1  1
  8 14  1  0
  8  6  1  0
  9  8  2  0
 11 10  1  6
 11 13  1  0
 11 12  1  0
 13 14  1  6
 15 13  1  0
 16 15  2  0
 18 20  1  0
 18 17  1  6
 19 18  1  0
 20 22  1  0
 20 21  1  6
 21 15  1  0
 22 23  1  0
 24 22  2  0
M  END
$$$$
