QVV.pdb
     RDKit          3D

 24 23  0  0  1  0  0  0  0  0999 V2000
    8.9062  -12.7876   17.5006 N   0  0  0  0  0  0  0  0  0  0  0  0
    8.8041  -14.1824   17.4477 C   0  0  0  0  0  0  0  0  0  0  0  0
    8.4599  -14.7188   16.3669 O   0  0  0  0  0  0  0  0  0  0  0  0
    9.0783  -15.0543   18.6103 C   0  0  0  0  0  0  0  0  0  0  0  0
   10.5318  -14.8205   19.0646 C   0  0  0  0  0  0  0  0  0  0  0  0
   10.7976  -15.5973   20.3178 C   0  0  2  0  0  0  0  0  0  0  0  0
   10.3386  -16.9626   20.1108 N   0  0  0  0  0  0  0  0  0  0  0  0
   10.2628  -14.9890   21.5447 C   0  0  0  0  0  0  0  0  0  0  0  0
   10.6262  -13.8881   21.9911 O   0  0  0  0  0  0  0  0  0  0  0  0
    6.4694  -14.6763   22.3322 C   0  0  0  0  0  0  0  0  0  0  0  0
    7.1577  -15.4337   23.4728 C   0  0  2  0  0  0  0  0  0  0  0  0
    6.5335  -15.0192   24.8028 C   0  0  0  0  0  0  0  0  0  0  0  0
    8.6381  -15.2317   23.4359 C   0  0  2  0  0  0  0  0  0  0  0  0
    9.2635  -15.7394   22.2473 N   0  0  0  0  0  0  0  0  0  0  0  0
    9.3334  -15.8050   24.6627 C   0  0  0  0  0  0  0  0  0  0  0  0
    9.8326  -16.9443   24.5868 O   0  0  0  0  0  0  0  0  0  0  0  0
   10.5233  -14.6175   29.3689 C   0  0  0  0  0  0  0  0  0  0  0  0
    9.5747  -14.4022   28.1895 C   0  0  1  0  0  0  0  0  0  0  0  0
    9.6702  -12.9982   27.7294 C   0  0  0  0  0  0  0  0  0  0  0  0
    9.9555  -15.4070   27.1243 C   0  0  2  0  0  0  0  0  0  0  0  0
    9.4023  -15.0785   25.8581 N   0  0  0  0  0  0  0  0  0  0  0  0
    9.7670  -16.7794   27.6249 C   0  0  0  0  0  0  0  0  0  0  0  0
   10.8535  -17.5033   28.0951 O   0  0  0  0  0  0  0  0  0  0  0  0
    8.6600  -17.3698   27.6305 O   0  0  0  0  0  0  0  0  0  0  0  0
  2  1  1  0
  2  3  2  0
  4  5  1  0
  4  2  1  0
  6  5  1  0
  6  7  1  6
  8 14  1  0
  8  6  1  0
  9  8  2  0
 11 10  1  6
 11 13  1  0
 11 12  1  0
 13 14  1  6
 15 13  1  0
 16 15  2  0
 18 20  1  0
 18 17  1  1
 19 18  1  0
 20 22  1  0
 20 21  1  6
 21 15  1  0
 22 23  1  0
 24 22  2  0
M  END
$$$$
