QVV.pdb
     RDKit          3D

 24 23  0  0  1  0  0  0  0  0999 V2000
   14.8129  -13.5436   18.3530 N   0  0  0  0  0  0  0  0  0  0  0  0
   14.1735  -14.6138   17.7168 C   0  0  0  0  0  0  0  0  0  0  0  0
   14.4262  -14.8311   16.5071 O   0  0  0  0  0  0  0  0  0  0  0  0
   13.2081  -15.4983   18.4042 C   0  0  0  0  0  0  0  0  0  0  0  0
   13.1601  -15.1059   19.8933 C   0  0  0  0  0  0  0  0  0  0  0  0
   12.2552  -16.0447   20.6313 C   0  0  2  0  0  0  0  0  0  0  0  0
   11.4485  -16.7593   19.6536 N   0  0  0  0  0  0  0  0  0  0  0  0
   11.4539  -15.4199   21.6939 C   0  0  0  0  0  0  0  0  0  0  0  0
   11.9166  -14.6526   22.5544 O   0  0  0  0  0  0  0  0  0  0  0  0
    7.5563  -14.4772   20.8048 C   0  0  0  0  0  0  0  0  0  0  0  0
    7.7229  -15.1331   22.1798 C   0  0  2  0  0  0  0  0  0  0  0  0
    6.7745  -14.4685   23.1743 C   0  0  0  0  0  0  0  0  0  0  0  0
    9.1499  -15.0979   22.6229 C   0  0  2  0  0  0  0  0  0  0  0  0
   10.0563  -15.7383   21.7118 N   0  0  0  0  0  0  0  0  0  0  0  0
    9.3390  -15.6733   24.0194 C   0  0  0  0  0  0  0  0  0  0  0  0
    9.5489  -16.8960   24.1367 O   0  0  0  0  0  0  0  0  0  0  0  0
    9.6287  -14.2547   28.8021 C   0  0  0  0  0  0  0  0  0  0  0  0
    9.0614  -13.9704   27.4112 C   0  0  1  0  0  0  0  0  0  0  0  0
    9.5953  -12.6818   26.9144 C   0  0  0  0  0  0  0  0  0  0  0  0
    9.4278  -15.1470   26.5333 C   0  0  2  0  0  0  0  0  0  0  0  0
    9.2664  -14.8540   25.1530 N   0  0  0  0  0  0  0  0  0  0  0  0
    8.8172  -16.3826   27.0528 C   0  0  0  0  0  0  0  0  0  0  0  0
    7.5635  -16.7784   26.6088 O   0  0  0  0  0  0  0  0  0  0  0  0
    9.3574  -17.1124   27.9186 O   0  0  0  0  0  0  0  0  0  0  0  0
  2  1  1  0
  2  3  2  0
  4  5  1  0
  4  2  1  0
  6  5  1  0
  6  7  1  6
  8 14  1  0
  8  6  1  0
  9  8  2  0
 11 10  1  6
 11 13  1  0
 11 12  1  0
 13 14  1  6
 15 13  1  0
 16 15  2  0
 18 20  1  0
 18 17  1  1
 19 18  1  0
 20 22  1  0
 20 21  1  6
 21 15  1  0
 22 23  1  0
 24 22  2  0
M  END
$$$$
