QVV.pdb
     RDKit          3D

 24 23  0  0  1  0  0  0  0  0999 V2000
   15.1196  -16.6252   20.8219 N   0  0  0  0  0  0  0  0  0  0  0  0
   14.7552  -17.8909   20.3486 C   0  0  0  0  0  0  0  0  0  0  0  0
   15.6331  -18.7854   20.2889 O   0  0  0  0  0  0  0  0  0  0  0  0
   13.3822  -18.2216   19.9098 C   0  0  0  0  0  0  0  0  0  0  0  0
   12.4961  -16.9750   20.0953 C   0  0  0  0  0  0  0  0  0  0  0  0
   11.4233  -17.2660   21.0998 C   0  0  2  0  0  0  0  0  0  0  0  0
   10.4997  -18.2246   20.5118 N   0  0  0  0  0  0  0  0  0  0  0  0
   10.7511  -16.0775   21.6449 C   0  0  0  0  0  0  0  0  0  0  0  0
   11.3483  -15.0877   22.0999 O   0  0  0  0  0  0  0  0  0  0  0  0
    7.2977  -14.5832   20.1252 C   0  0  0  0  0  0  0  0  0  0  0  0
    7.1957  -14.8588   21.6291 C   0  0  2  0  0  0  0  0  0  0  0  0
    6.3892  -13.7455   22.2927 C   0  0  0  0  0  0  0  0  0  0  0  0
    8.5497  -15.0384   22.2359 C   0  0  2  0  0  0  0  0  0  0  0  0
    9.3176  -16.0946   21.6389 N   0  0  0  0  0  0  0  0  0  0  0  0
    8.4886  -15.2414   23.7433 C   0  0  0  0  0  0  0  0  0  0  0  0
    8.6339  -16.3934   24.1957 O   0  0  0  0  0  0  0  0  0  0  0  0
    8.3064  -11.6698   25.8846 C   0  0  0  0  0  0  0  0  0  0  0  0
    7.4885  -12.8154   26.4809 C   0  0  1  0  0  0  0  0  0  0  0  0
    6.0750  -12.6836   26.0607 C   0  0  0  0  0  0  0  0  0  0  0  0
    8.1306  -14.1059   26.0208 C   0  0  2  0  0  0  0  0  0  0  0  0
    8.2609  -14.1632   24.6077 N   0  0  0  0  0  0  0  0  0  0  0  0
    7.5147  -15.2560   26.7045 C   0  0  0  0  0  0  0  0  0  0  0  0
    7.9788  -15.6542   27.9501 O   0  0  0  0  0  0  0  0  0  0  0  0
    6.5869  -15.9411   26.2107 O   0  0  0  0  0  0  0  0  0  0  0  0
  2  1  1  0
  2  3  2  0
  4  5  1  0
  4  2  1  0
  6  5  1  0
  6  7  1  6
  8 14  1  0
  8  6  1  0
  9  8  2  0
 11 10  1  6
 11 13  1  0
 11 12  1  0
 13 14  1  6
 15 13  1  0
 16 15  2  0
 18 20  1  0
 18 17  1  6
 19 18  1  0
 20 22  1  0
 20 21  1  6
 21 15  1  0
 22 23  1  0
 24 22  2  0
M  END
$$$$
