QVV.pdb
     RDKit          3D

 24 23  0  0  1  0  0  0  0  0999 V2000
   11.4010  -20.2955   23.7748 N   0  0  0  0  0  0  0  0  0  0  0  0
   12.3730  -19.2907   23.8400 C   0  0  0  0  0  0  0  0  0  0  0  0
   13.1853  -19.3021   24.7963 O   0  0  0  0  0  0  0  0  0  0  0  0
   12.4836  -18.2113   22.8352 C   0  0  0  0  0  0  0  0  0  0  0  0
   11.3732  -18.4055   21.7850 C   0  0  0  0  0  0  0  0  0  0  0  0
   11.3907  -17.2614   20.8179 C   0  0  2  0  0  0  0  0  0  0  0  0
   12.7546  -17.0929   20.3395 N   0  0  0  0  0  0  0  0  0  0  0  0
   10.8003  -16.0151   21.3274 C   0  0  0  0  0  0  0  0  0  0  0  0
   11.4568  -15.0916   21.8368 O   0  0  0  0  0  0  0  0  0  0  0  0
    7.7918  -14.0472   19.5115 C   0  0  0  0  0  0  0  0  0  0  0  0
    7.4497  -14.3888   20.9657 C   0  0  2  0  0  0  0  0  0  0  0  0
    6.6745  -13.2300   21.5875 C   0  0  0  0  0  0  0  0  0  0  0  0
    8.6785  -14.7481   21.7369 C   0  0  2  0  0  0  0  0  0  0  0  0
    9.3764  -15.8902   21.2171 N   0  0  0  0  0  0  0  0  0  0  0  0
    8.3952  -14.9542   23.2183 C   0  0  0  0  0  0  0  0  0  0  0  0
    8.4105  -16.1147   23.6721 O   0  0  0  0  0  0  0  0  0  0  0  0
    6.8227  -12.5269   27.2907 C   0  0  0  0  0  0  0  0  0  0  0  0
    7.0080  -12.5421   25.7732 C   0  0  1  0  0  0  0  0  0  0  0  0
    7.7189  -11.3142   25.3505 C   0  0  0  0  0  0  0  0  0  0  0  0
    7.7545  -13.8127   25.4298 C   0  0  2  0  0  0  0  0  0  0  0  0
    8.1095  -13.8686   24.0558 N   0  0  0  0  0  0  0  0  0  0  0  0
    7.0733  -14.9802   26.0150 C   0  0  0  0  0  0  0  0  0  0  0  0
    7.6091  -15.6119   27.1283 O   0  0  0  0  0  0  0  0  0  0  0  0
    6.0218  -15.4774   25.5449 O   0  0  0  0  0  0  0  0  0  0  0  0
  2  1  1  0
  2  3  2  0
  4  5  1  0
  4  2  1  0
  6  5  1  0
  6  7  1  1
  8 14  1  0
  8  6  1  0
  9  8  2  0
 11 10  1  6
 11 13  1  0
 11 12  1  0
 13 14  1  6
 15 13  1  0
 16 15  2  0
 18 20  1  0
 18 17  1  1
 19 18  1  0
 20 22  1  0
 20 21  1  6
 21 15  1  0
 22 23  1  0
 24 22  2  0
M  END
$$$$
