QVV.pdb
     RDKit          3D

 24 23  0  0  1  0  0  0  0  0999 V2000
   14.9895  -18.7604   20.8863 N   0  0  0  0  0  0  0  0  0  0  0  0
   14.0741  -19.3665   20.0183 C   0  0  0  0  0  0  0  0  0  0  0  0
   14.4954  -20.2227   19.2036 O   0  0  0  0  0  0  0  0  0  0  0  0
   12.6318  -19.0398   20.0133 C   0  0  0  0  0  0  0  0  0  0  0  0
   12.3477  -18.0634   21.1707 C   0  0  0  0  0  0  0  0  0  0  0  0
   11.1380  -17.2405   20.8484 C   0  0  2  0  0  0  0  0  0  0  0  0
   11.3219  -16.6630   19.5253 N   0  0  0  0  0  0  0  0  0  0  0  0
   10.7818  -16.2432   21.8683 C   0  0  0  0  0  0  0  0  0  0  0  0
   11.4123  -15.1905   22.0620 O   0  0  0  0  0  0  0  0  0  0  0  0
    7.4909  -14.5414   22.0896 C   0  0  0  0  0  0  0  0  0  0  0  0
    7.7001  -15.2293   23.4428 C   0  0  2  0  0  0  0  0  0  0  0  0
    7.1565  -14.3342   24.5535 C   0  0  0  0  0  0  0  0  0  0  0  0
    9.1346  -15.5988   23.6420 C   0  0  2  0  0  0  0  0  0  0  0  0
    9.6324  -16.5349   22.6738 N   0  0  0  0  0  0  0  0  0  0  0  0
    9.4106  -16.1208   25.0451 C   0  0  0  0  0  0  0  0  0  0  0  0
    9.2508  -17.3358   25.2710 O   0  0  0  0  0  0  0  0  0  0  0  0
   10.6275  -13.1107   27.6190 C   0  0  0  0  0  0  0  0  0  0  0  0
    9.9695  -14.3085   28.3041 C   0  0  1  0  0  0  0  0  0  0  0  0
    8.5365  -14.0181   28.5366 C   0  0  0  0  0  0  0  0  0  0  0  0
   10.1986  -15.5103   27.4138 C   0  0  2  0  0  0  0  0  0  0  0  0
    9.8226  -15.2572   26.0678 N   0  0  0  0  0  0  0  0  0  0  0  0
    9.6812  -16.7299   28.0575 C   0  0  0  0  0  0  0  0  0  0  0  0
   10.4256  -17.3665   29.0405 O   0  0  0  0  0  0  0  0  0  0  0  0
    8.5902  -17.2673   27.7495 O   0  0  0  0  0  0  0  0  0  0  0  0
  2  1  1  0
  2  3  2  0
  4  5  1  0
  4  2  1  0
  6  5  1  0
  6  7  1  6
  8 14  1  0
  8  6  1  0
  9  8  2  0
 11 10  1  6
 11 13  1  0
 11 12  1  0
 13 14  1  6
 15 13  1  0
 16 15  2  0
 18 20  1  0
 18 17  1  6
 19 18  1  0
 20 22  1  0
 20 21  1  6
 21 15  1  0
 22 23  1  0
 24 22  2  0
M  END
$$$$
