DPI.pdb
     RDKit          3D

 24 24  0  0  1  0  0  0  0  0999 V2000
    9.6628  -18.1555   18.8599 N   0  0  0  0  0  0  0  0  0  0  0  0
    8.5285  -17.3705   19.3401 C   0  0  1  0  0  0  0  0  0  0  0  0
    7.5124  -18.3485   19.8389 C   0  0  0  0  0  0  0  0  0  0  0  0
    6.9103  -19.1555   18.7622 C   0  0  0  0  0  0  0  0  0  0  0  0
    7.5709  -19.9172   17.9971 O   0  0  0  0  0  0  0  0  0  0  0  0
    8.9012  -16.4050   20.3902 C   0  0  0  0  0  0  0  0  0  0  0  0
    9.7599  -16.7717   21.2604 O   0  0  0  0  0  0  0  0  0  0  0  0
    5.5305  -19.0701   18.5813 O   0  0  0  0  0  0  0  0  0  0  0  0
    8.3701  -15.0949   20.4986 N   0  0  0  0  0  0  0  0  0  0  0  0
    7.4726  -14.5004   19.5254 C   0  0  0  0  0  0  0  0  0  0  0  0
    7.9559  -13.0678   19.4734 C   0  0  0  0  0  0  0  0  0  0  0  0
    8.0377  -12.7797   20.9812 C   0  0  0  0  0  0  0  0  0  0  0  0
    8.5799  -14.1096   21.5259 C   0  0  1  0  0  0  0  0  0  0  0  0
    7.8286  -14.4085   22.7651 C   0  0  0  0  0  0  0  0  0  0  0  0
    6.5760  -14.3191   22.8067 O   0  0  0  0  0  0  0  0  0  0  0  0
    6.0538  -11.7116   26.9124 C   0  0  0  0  0  0  0  0  0  0  0  0
    7.3365  -12.4213   26.6213 C   0  0  0  0  0  0  0  0  0  0  0  0
    7.2800  -13.2880   25.3979 C   0  0  2  0  0  0  0  0  0  0  0  0
    6.2549  -14.3634   25.6243 C   0  0  0  0  0  0  0  0  0  0  0  0
    8.5990  -13.9418   25.0723 C   0  0  2  0  0  0  0  0  0  0  0  0
    8.5365  -14.8047   23.9326 N   0  0  0  0  0  0  0  0  0  0  0  0
    8.9955  -14.7437   26.2557 C   0  0  0  0  0  0  0  0  0  0  0  0
    9.1716  -14.1471   27.3490 O   0  0  0  0  0  0  0  0  0  0  0  0
    9.1754  -16.1228   26.1875 O   0  0  0  0  0  0  0  0  0  0  0  0
  2  1  1  1
  2  3  1  0
  3  4  1  0
  4  8  1  0
  5  4  2  0
  6  7  2  0
  6  2  1  0
  9  6  1  0
 10  9  1  0
 11 10  1  0
 12 11  1  0
 12 13  1  0
 13 14  1  1
 13  9  1  0
 14 21  1  0
 15 14  2  0
 17 16  1  0
 18 20  1  0
 18 17  1  0
 18 19  1  1
 20 22  1  0
 20 21  1  6
 22 23  2  0
 22 24  1  0
M  END
$$$$
