DPI.pdb
     RDKit          3D

 24 24  0  0  1  0  0  0  0  0999 V2000
   11.8556  -17.3748   19.5322 N   0  0  0  0  0  0  0  0  0  0  0  0
   10.5562  -17.6457   20.1416 C   0  0  1  0  0  0  0  0  0  0  0  0
   10.7620  -18.7718   21.1047 C   0  0  0  0  0  0  0  0  0  0  0  0
   10.9093  -20.0797   20.4409 C   0  0  0  0  0  0  0  0  0  0  0  0
   11.8011  -20.3385   19.5808 O   0  0  0  0  0  0  0  0  0  0  0  0
    9.9796  -16.4667   20.8136 C   0  0  0  0  0  0  0  0  0  0  0  0
   10.7831  -15.5753   21.2482 O   0  0  0  0  0  0  0  0  0  0  0  0
   10.0095  -21.0873   20.7856 O   0  0  0  0  0  0  0  0  0  0  0  0
    8.5914  -16.2557   21.0095 N   0  0  0  0  0  0  0  0  0  0  0  0
    7.5586  -17.1561   20.5311 C   0  0  0  0  0  0  0  0  0  0  0  0
    6.4778  -16.1978   20.0813 C   0  0  0  0  0  0  0  0  0  0  0  0
    6.4329  -15.2799   21.3136 C   0  0  0  0  0  0  0  0  0  0  0  0
    7.9207  -15.1740   21.6805 C   0  0  1  0  0  0  0  0  0  0  0  0
    8.0113  -15.2730   23.1541 C   0  0  0  0  0  0  0  0  0  0  0  0
    8.5871  -16.2421   23.7090 O   0  0  0  0  0  0  0  0  0  0  0  0
    7.0397  -11.5598   28.1057 C   0  0  0  0  0  0  0  0  0  0  0  0
    7.5584  -12.8023   27.4569 C   0  0  0  0  0  0  0  0  0  0  0  0
    7.1789  -12.9290   26.0109 C   0  0  2  0  0  0  0  0  0  0  0  0
    5.6811  -13.0112   25.9181 C   0  0  0  0  0  0  0  0  0  0  0  0
    7.7694  -14.1470   25.3468 C   0  0  2  0  0  0  0  0  0  0  0  0
    7.4361  -14.2523   23.9593 N   0  0  0  0  0  0  0  0  0  0  0  0
    7.2363  -15.3358   26.0563 C   0  0  0  0  0  0  0  0  0  0  0  0
    6.1868  -15.8722   25.6165 O   0  0  0  0  0  0  0  0  0  0  0  0
    7.8604  -15.8661   27.1823 O   0  0  0  0  0  0  0  0  0  0  0  0
  2  1  1  1
  2  3  1  0
  3  4  1  0
  4  8  1  0
  5  4  2  0
  6  7  2  0
  6  2  1  0
  9  6  1  0
 10  9  1  0
 11 10  1  0
 12 11  1  0
 12 13  1  0
 13 14  1  1
 13  9  1  0
 14 21  1  0
 15 14  2  0
 17 16  1  0
 18 20  1  0
 18 17  1  0
 18 19  1  1
 20 22  1  0
 20 21  1  6
 22 23  2  0
 22 24  1  0
M  END
$$$$
