DPI.pdb
     RDKit          3D

 24 24  0  0  1  0  0  0  0  0999 V2000
    9.3424  -17.4407   19.1189 N   0  0  0  0  0  0  0  0  0  0  0  0
    9.6358  -17.7757   20.5100 C   0  0  1  0  0  0  0  0  0  0  0  0
   11.0847  -17.4725   20.7262 C   0  0  0  0  0  0  0  0  0  0  0  0
   11.9798  -18.3349   19.9338 C   0  0  0  0  0  0  0  0  0  0  0  0
   12.7639  -17.9049   19.0381 O   0  0  0  0  0  0  0  0  0  0  0  0
    8.7879  -17.0437   21.4686 C   0  0  0  0  0  0  0  0  0  0  0  0
    8.5807  -15.8024   21.2551 O   0  0  0  0  0  0  0  0  0  0  0  0
   11.9564  -19.7049   20.1913 O   0  0  0  0  0  0  0  0  0  0  0  0
    8.1860  -17.6260   22.6126 N   0  0  0  0  0  0  0  0  0  0  0  0
    8.3317  -19.0211   22.9845 C   0  0  0  0  0  0  0  0  0  0  0  0
    6.9492  -19.3659   23.4928 C   0  0  0  0  0  0  0  0  0  0  0  0
    6.7192  -18.1613   24.4198 C   0  0  0  0  0  0  0  0  0  0  0  0
    7.3445  -17.0168   23.6081 C   0  0  1  0  0  0  0  0  0  0  0  0
    8.1035  -16.1755   24.5597 C   0  0  0  0  0  0  0  0  0  0  0  0
    9.2580  -16.4965   24.9376 O   0  0  0  0  0  0  0  0  0  0  0  0
    5.9533  -11.3234   27.1442 C   0  0  0  0  0  0  0  0  0  0  0  0
    6.3177  -12.6664   26.5989 C   0  0  0  0  0  0  0  0  0  0  0  0
    7.6896  -12.7175   25.9935 C   0  0  2  0  0  0  0  0  0  0  0  0
    7.6152  -12.1594   24.6001 C   0  0  0  0  0  0  0  0  0  0  0  0
    8.2555  -14.1132   25.9228 C   0  0  2  0  0  0  0  0  0  0  0  0
    7.5164  -14.9801   25.0571 N   0  0  0  0  0  0  0  0  0  0  0  0
    8.2219  -14.6708   27.2971 C   0  0  0  0  0  0  0  0  0  0  0  0
    7.3727  -15.5612   27.5592 O   0  0  0  0  0  0  0  0  0  0  0  0
    9.0955  -14.2390   28.2917 O   0  0  0  0  0  0  0  0  0  0  0  0
  2  1  1  6
  2  3  1  0
  3  4  1  0
  4  8  1  0
  5  4  2  0
  6  7  2  0
  6  2  1  0
  9  6  1  0
 10  9  1  0
 11 10  1  0
 12 11  1  0
 12 13  1  0
 13 14  1  1
 13  9  1  0
 14 21  1  0
 15 14  2  0
 17 16  1  0
 18 20  1  0
 18 17  1  0
 18 19  1  6
 20 22  1  0
 20 21  1  6
 22 23  2  0
 22 24  1  0
M  END
$$$$
