DPI.pdb
     RDKit          3D

 24 24  0  0  1  0  0  0  0  0999 V2000
    7.6561  -17.3778   18.6209 N   0  0  0  0  0  0  0  0  0  0  0  0
    8.5561  -17.4427   19.7695 C   0  0  1  0  0  0  0  0  0  0  0  0
    9.7911  -16.6896   19.3880 C   0  0  0  0  0  0  0  0  0  0  0  0
   10.9947  -17.1553   20.1005 C   0  0  0  0  0  0  0  0  0  0  0  0
   11.0847  -18.2800   20.6738 O   0  0  0  0  0  0  0  0  0  0  0  0
    7.9565  -16.8967   21.0009 C   0  0  0  0  0  0  0  0  0  0  0  0
    7.4288  -15.7360   20.9438 O   0  0  0  0  0  0  0  0  0  0  0  0
   12.0957  -16.3011   20.1414 O   0  0  0  0  0  0  0  0  0  0  0  0
    7.9260  -17.5750   22.2456 N   0  0  0  0  0  0  0  0  0  0  0  0
    8.5148  -18.8819   22.4719 C   0  0  0  0  0  0  0  0  0  0  0  0
    7.5041  -19.5373   23.3871 C   0  0  0  0  0  0  0  0  0  0  0  0
    7.3154  -18.3987   24.4025 C   0  0  0  0  0  0  0  0  0  0  0  0
    7.3438  -17.1603   23.4943 C   0  0  1  0  0  0  0  0  0  0  0  0
    8.1523  -16.1332   24.1877 C   0  0  0  0  0  0  0  0  0  0  0  0
    9.4071  -16.1377   24.1242 O   0  0  0  0  0  0  0  0  0  0  0  0
    5.8848  -11.7238   27.3085 C   0  0  0  0  0  0  0  0  0  0  0  0
    6.2206  -12.9289   26.4907 C   0  0  0  0  0  0  0  0  0  0  0  0
    7.4915  -12.7880   25.7060 C   0  0  2  0  0  0  0  0  0  0  0  0
    7.1479  -12.2901   24.3303 C   0  0  0  0  0  0  0  0  0  0  0  0
    8.2533  -14.0823   25.5726 C   0  0  2  0  0  0  0  0  0  0  0  0
    7.4980  -15.1206   24.9411 N   0  0  0  0  0  0  0  0  0  0  0  0
    8.6151  -14.5221   26.9424 C   0  0  0  0  0  0  0  0  0  0  0  0
    9.4059  -13.8065   27.6095 O   0  0  0  0  0  0  0  0  0  0  0  0
    8.1079  -15.6922   27.5012 O   0  0  0  0  0  0  0  0  0  0  0  0
  2  1  1  6
  2  3  1  0
  3  4  1  0
  4  8  1  0
  5  4  2  0
  6  7  2  0
  6  2  1  0
  9  6  1  0
 10  9  1  0
 11 10  1  0
 12 11  1  0
 12 13  1  0
 13 14  1  1
 13  9  1  0
 14 21  1  0
 15 14  2  0
 17 16  1  0
 18 20  1  0
 18 17  1  0
 18 19  1  6
 20 22  1  0
 20 21  1  1
 22 23  2  0
 22 24  1  0
M  END
$$$$
