DPI.pdb
     RDKit          3D

 24 24  0  0  1  0  0  0  0  0999 V2000
   11.6156  -17.4059   19.0115 N   0  0  0  0  0  0  0  0  0  0  0  0
   11.1804  -17.9005   20.3151 C   0  0  1  0  0  0  0  0  0  0  0  0
   12.4022  -17.9700   21.1756 C   0  0  0  0  0  0  0  0  0  0  0  0
   13.4226  -18.8983   20.6558 C   0  0  0  0  0  0  0  0  0  0  0  0
   13.1937  -20.1090   20.3663 O   0  0  0  0  0  0  0  0  0  0  0  0
   10.1400  -17.0573   20.9317 C   0  0  0  0  0  0  0  0  0  0  0  0
   10.3190  -15.7935   20.9323 O   0  0  0  0  0  0  0  0  0  0  0  0
   14.7147  -18.4070   20.4746 O   0  0  0  0  0  0  0  0  0  0  0  0
    8.9523  -17.5557   21.5244 N   0  0  0  0  0  0  0  0  0  0  0  0
    8.6044  -18.9633   21.5838 C   0  0  0  0  0  0  0  0  0  0  0  0
    7.1118  -18.9376   21.3385 C   0  0  0  0  0  0  0  0  0  0  0  0
    6.7184  -17.8258   22.3245 C   0  0  0  0  0  0  0  0  0  0  0  0
    7.8820  -16.8363   22.1624 C   0  0  1  0  0  0  0  0  0  0  0  0
    8.2406  -16.3637   23.5179 C   0  0  0  0  0  0  0  0  0  0  0  0
    9.1340  -16.9338   24.1928 O   0  0  0  0  0  0  0  0  0  0  0  0
    7.0947  -11.4385   27.2165 C   0  0  0  0  0  0  0  0  0  0  0  0
    7.7559  -12.7425   26.9064 C   0  0  0  0  0  0  0  0  0  0  0  0
    7.3552  -13.3195   25.5806 C   0  0  2  0  0  0  0  0  0  0  0  0
    5.8667  -13.5264   25.5828 C   0  0  0  0  0  0  0  0  0  0  0  0
    8.0234  -14.6374   25.2806 C   0  0  2  0  0  0  0  0  0  0  0  0
    7.5618  -15.2427   24.0690 N   0  0  0  0  0  0  0  0  0  0  0  0
    7.7248  -15.5489   26.4123 C   0  0  0  0  0  0  0  0  0  0  0  0
    6.7330  -16.3165   26.3145 O   0  0  0  0  0  0  0  0  0  0  0  0
    8.5047  -15.5758   27.5654 O   0  0  0  0  0  0  0  0  0  0  0  0
  2  1  1  6
  2  3  1  0
  3  4  1  0
  4  8  1  0
  5  4  2  0
  6  7  2  0
  6  2  1  0
  9  6  1  0
 10  9  1  0
 11 10  1  0
 12 11  1  0
 12 13  1  0
 13 14  1  1
 13  9  1  0
 14 21  1  0
 15 14  2  0
 17 16  1  0
 18 20  1  0
 18 17  1  0
 18 19  1  1
 20 22  1  0
 20 21  1  6
 22 23  2  0
 22 24  1  0
M  END
$$$$
