DPI.pdb
     RDKit          3D

 24 24  0  0  1  0  0  0  0  0999 V2000
   11.9436  -17.4422   20.0979 N   0  0  0  0  0  0  0  0  0  0  0  0
   10.4984  -17.4742   20.3070 C   0  0  1  0  0  0  0  0  0  0  0  0
   10.1722  -18.8374   20.8297 C   0  0  0  0  0  0  0  0  0  0  0  0
   10.7895  -19.9205   20.0429 C   0  0  0  0  0  0  0  0  0  0  0  0
   10.6551  -21.1507   20.3082 O   0  0  0  0  0  0  0  0  0  0  0  0
   10.0274  -16.4226   21.2269 C   0  0  0  0  0  0  0  0  0  0  0  0
   10.8847  -15.8786   22.0003 O   0  0  0  0  0  0  0  0  0  0  0  0
   11.5662  -19.5615   18.9422 O   0  0  0  0  0  0  0  0  0  0  0  0
    8.6850  -15.9739   21.3101 N   0  0  0  0  0  0  0  0  0  0  0  0
    7.5976  -16.5168   20.5172 C   0  0  0  0  0  0  0  0  0  0  0  0
    6.7876  -15.2813   20.1912 C   0  0  0  0  0  0  0  0  0  0  0  0
    6.7125  -14.6576   21.5942 C   0  0  0  0  0  0  0  0  0  0  0  0
    8.1192  -14.9443   22.1407 C   0  0  1  0  0  0  0  0  0  0  0  0
    7.9582  -15.3709   23.5483 C   0  0  0  0  0  0  0  0  0  0  0  0
    7.9674  -16.5862   23.8672 O   0  0  0  0  0  0  0  0  0  0  0  0
    5.8446  -11.6561   27.2638 C   0  0  0  0  0  0  0  0  0  0  0  0
    6.3331  -12.6714   26.2818 C   0  0  0  0  0  0  0  0  0  0  0  0
    7.3497  -13.6172   26.8502 C   0  0  2  0  0  0  0  0  0  0  0  0
    8.6176  -12.8528   27.1087 C   0  0  0  0  0  0  0  0  0  0  0  0
    7.6633  -14.7725   25.9336 C   0  0  2  0  0  0  0  0  0  0  0  0
    7.7896  -14.3877   24.5613 N   0  0  0  0  0  0  0  0  0  0  0  0
    6.5491  -15.7444   26.0552 C   0  0  0  0  0  0  0  0  0  0  0  0
    5.7104  -15.8107   25.1199 O   0  0  0  0  0  0  0  0  0  0  0  0
    6.4099  -16.5744   27.1644 O   0  0  0  0  0  0  0  0  0  0  0  0
  2  1  1  1
  2  3  1  0
  3  4  1  0
  4  8  1  0
  5  4  2  0
  6  7  2  0
  6  2  1  0
  9  6  1  0
 10  9  1  0
 11 10  1  0
 12 11  1  0
 12 13  1  0
 13 14  1  1
 13  9  1  0
 14 21  1  0
 15 14  2  0
 17 16  1  0
 18 20  1  0
 18 17  1  0
 18 19  1  6
 20 22  1  0
 20 21  1  6
 22 23  2  0
 22 24  1  0
M  END
$$$$
