DPI.pdb
     RDKit          3D

 24 24  0  0  1  0  0  0  0  0999 V2000
   11.0556  -17.7128   19.2890 N   0  0  0  0  0  0  0  0  0  0  0  0
    9.6917  -17.3727   19.6858 C   0  0  1  0  0  0  0  0  0  0  0  0
    8.9967  -18.6648   19.9781 C   0  0  0  0  0  0  0  0  0  0  0  0
    8.6742  -19.4348   18.7631 C   0  0  0  0  0  0  0  0  0  0  0  0
    7.9933  -18.9791   17.7984 O   0  0  0  0  0  0  0  0  0  0  0  0
    9.6403  -16.4641   20.8459 C   0  0  0  0  0  0  0  0  0  0  0  0
   10.6671  -16.4026   21.6016 O   0  0  0  0  0  0  0  0  0  0  0  0
    9.1508  -20.7422   18.6779 O   0  0  0  0  0  0  0  0  0  0  0  0
    8.5263  -15.6528   21.1789 N   0  0  0  0  0  0  0  0  0  0  0  0
    7.3049  -15.5915   20.3976 C   0  0  0  0  0  0  0  0  0  0  0  0
    6.9472  -14.1235   20.4723 C   0  0  0  0  0  0  0  0  0  0  0  0
    7.1115  -13.9057   21.9851 C   0  0  0  0  0  0  0  0  0  0  0  0
    8.3524  -14.7576   22.2918 C   0  0  1  0  0  0  0  0  0  0  0  0
    8.0855  -15.4700   23.5609 C   0  0  0  0  0  0  0  0  0  0  0  0
    7.4299  -16.5416   23.5826 O   0  0  0  0  0  0  0  0  0  0  0  0
    9.2951  -12.8672   28.5595 C   0  0  0  0  0  0  0  0  0  0  0  0
    8.5997  -13.5297   27.4144 C   0  0  0  0  0  0  0  0  0  0  0  0
    9.0236  -14.9521   27.1951 C   0  0  2  0  0  0  0  0  0  0  0  0
   10.5068  -14.9742   26.9537 C   0  0  0  0  0  0  0  0  0  0  0  0
    8.3356  -15.6022   26.0215 C   0  0  2  0  0  0  0  0  0  0  0  0
    8.5801  -14.9328   24.7808 N   0  0  0  0  0  0  0  0  0  0  0  0
    6.8783  -15.5766   26.2975 C   0  0  0  0  0  0  0  0  0  0  0  0
    6.4217  -16.3628   27.1669 O   0  0  0  0  0  0  0  0  0  0  0  0
    6.0139  -14.7152   25.6269 O   0  0  0  0  0  0  0  0  0  0  0  0
  2  1  1  1
  2  3  1  0
  3  4  1  0
  4  8  1  0
  5  4  2  0
  6  7  2  0
  6  2  1  0
  9  6  1  0
 10  9  1  0
 11 10  1  0
 12 11  1  0
 12 13  1  0
 13 14  1  1
 13  9  1  0
 14 21  1  0
 15 14  2  0
 17 16  1  0
 18 20  1  0
 18 17  1  0
 18 19  1  6
 20 22  1  0
 20 21  1  6
 22 23  2  0
 22 24  1  0
M  END
$$$$
