DPI.pdb
     RDKit          3D

 24 24  0  0  1  0  0  0  0  0999 V2000
   11.7730  -16.5347   19.3482 N   0  0  0  0  0  0  0  0  0  0  0  0
   10.6656  -17.0169   20.1694 C   0  0  1  0  0  0  0  0  0  0  0  0
   10.9889  -18.4310   20.5353 C   0  0  0  0  0  0  0  0  0  0  0  0
   11.2500  -19.2857   19.3629 C   0  0  0  0  0  0  0  0  0  0  0  0
   10.4919  -19.3472   18.3513 O   0  0  0  0  0  0  0  0  0  0  0  0
   10.4395  -16.1926   21.3707 C   0  0  0  0  0  0  0  0  0  0  0  0
   11.4513  -15.6272   21.9055 O   0  0  0  0  0  0  0  0  0  0  0  0
   12.4023  -20.0704   19.3756 O   0  0  0  0  0  0  0  0  0  0  0  0
    9.1728  -15.9847   21.9726 N   0  0  0  0  0  0  0  0  0  0  0  0
    7.9219  -16.4673   21.4173 C   0  0  0  0  0  0  0  0  0  0  0  0
    6.9753  -15.3247   21.7128 C   0  0  0  0  0  0  0  0  0  0  0  0
    7.3236  -15.0916   23.1919 C   0  0  0  0  0  0  0  0  0  0  0  0
    8.8464  -15.2929   23.1912 C   0  0  1  0  0  0  0  0  0  0  0  0
    9.1798  -16.0784   24.4001 C   0  0  0  0  0  0  0  0  0  0  0  0
    9.1799  -17.3347   24.3828 O   0  0  0  0  0  0  0  0  0  0  0  0
    9.8388  -13.4968   29.5344 C   0  0  0  0  0  0  0  0  0  0  0  0
    9.3979  -14.3975   28.4262 C   0  0  0  0  0  0  0  0  0  0  0  0
   10.5093  -15.2168   27.8391 C   0  0  2  0  0  0  0  0  0  0  0  0
   11.5601  -14.2821   27.3093 C   0  0  0  0  0  0  0  0  0  0  0  0
   10.0551  -16.1154   26.7167 C   0  0  2  0  0  0  0  0  0  0  0  0
    9.5067  -15.3997   25.6057 N   0  0  0  0  0  0  0  0  0  0  0  0
    9.0102  -17.0126   27.2680 C   0  0  0  0  0  0  0  0  0  0  0  0
    7.8197  -16.8382   26.9010 O   0  0  0  0  0  0  0  0  0  0  0  0
    9.3102  -18.0301   28.1699 O   0  0  0  0  0  0  0  0  0  0  0  0
  2  1  1  1
  2  3  1  0
  3  4  1  0
  4  8  1  0
  5  4  2  0
  6  7  2  0
  6  2  1  0
  9  6  1  0
 10  9  1  0
 11 10  1  0
 12 11  1  0
 12 13  1  0
 13 14  1  1
 13  9  1  0
 14 21  1  0
 15 14  2  0
 17 16  1  0
 18 20  1  0
 18 17  1  0
 18 19  1  6
 20 22  1  0
 20 21  1  6
 22 23  2  0
 22 24  1  0
M  END
$$$$
