DPI.pdb
     RDKit          3D

 24 24  0  0  1  0  0  0  0  0999 V2000
   11.7495  -17.6413   19.7239 N   0  0  0  0  0  0  0  0  0  0  0  0
   10.4073  -17.7327   20.2927 C   0  0  1  0  0  0  0  0  0  0  0  0
   10.4574  -18.8029   21.3367 C   0  0  0  0  0  0  0  0  0  0  0  0
   10.7900  -20.1300   20.7878 C   0  0  0  0  0  0  0  0  0  0  0  0
   10.3822  -20.5528   19.6667 O   0  0  0  0  0  0  0  0  0  0  0  0
    9.9348  -16.4559   20.8588 C   0  0  0  0  0  0  0  0  0  0  0  0
   10.8123  -15.6004   21.2157 O   0  0  0  0  0  0  0  0  0  0  0  0
   11.6028  -20.9641   21.5543 O   0  0  0  0  0  0  0  0  0  0  0  0
    8.5701  -16.1134   21.0332 N   0  0  0  0  0  0  0  0  0  0  0  0
    7.4634  -16.9239   20.5596 C   0  0  0  0  0  0  0  0  0  0  0  0
    6.4811  -15.8792   20.0778 C   0  0  0  0  0  0  0  0  0  0  0  0
    6.5083  -14.9361   21.2915 C   0  0  0  0  0  0  0  0  0  0  0  0
    7.9956  -14.9608   21.6748 C   0  0  1  0  0  0  0  0  0  0  0  0
    8.0610  -15.0377   23.1510 C   0  0  0  0  0  0  0  0  0  0  0  0
    8.1473  -16.1420   23.7440 O   0  0  0  0  0  0  0  0  0  0  0  0
    6.7558  -11.6090   28.1370 C   0  0  0  0  0  0  0  0  0  0  0  0
    7.3235  -12.8353   27.4985 C   0  0  0  0  0  0  0  0  0  0  0  0
    7.2017  -12.8460   26.0032 C   0  0  2  0  0  0  0  0  0  0  0  0
    5.7683  -13.1218   25.6451 C   0  0  0  0  0  0  0  0  0  0  0  0
    8.0707  -13.8871   25.3443 C   0  0  2  0  0  0  0  0  0  0  0  0
    8.0258  -13.8392   23.9150 N   0  0  0  0  0  0  0  0  0  0  0  0
    7.5820  -15.2143   25.7920 C   0  0  0  0  0  0  0  0  0  0  0  0
    8.1180  -15.7378   26.8025 O   0  0  0  0  0  0  0  0  0  0  0  0
    6.5578  -15.8866   25.1303 O   0  0  0  0  0  0  0  0  0  0  0  0
  2  1  1  1
  2  3  1  0
  3  4  1  0
  4  8  1  0
  5  4  2  0
  6  7  2  0
  6  2  1  0
  9  6  1  0
 10  9  1  0
 11 10  1  0
 12 11  1  0
 12 13  1  0
 13 14  1  1
 13  9  1  0
 14 21  1  0
 15 14  2  0
 17 16  1  0
 18 20  1  0
 18 17  1  0
 18 19  1  1
 20 22  1  0
 20 21  1  6
 22 23  2  0
 22 24  1  0
M  END
$$$$
