DPI.pdb
     RDKit          3D

 24 24  0  0  1  0  0  0  0  0999 V2000
   11.7099  -17.5098   19.7422 N   0  0  0  0  0  0  0  0  0  0  0  0
   10.2707  -17.3516   19.9344 C   0  0  1  0  0  0  0  0  0  0  0  0
    9.7502  -18.6814   20.3800 C   0  0  0  0  0  0  0  0  0  0  0  0
    9.7858  -19.7014   19.3163 C   0  0  0  0  0  0  0  0  0  0  0  0
    9.3502  -20.8816   19.4550 O   0  0  0  0  0  0  0  0  0  0  0  0
    9.9332  -16.2936   20.9042 C   0  0  0  0  0  0  0  0  0  0  0  0
   10.8689  -15.8450   21.6475 O   0  0  0  0  0  0  0  0  0  0  0  0
   10.3332  -19.3379   18.0867 O   0  0  0  0  0  0  0  0  0  0  0  0
    8.6383  -15.7398   21.0670 N   0  0  0  0  0  0  0  0  0  0  0  0
    7.4880  -16.1176   20.2670 C   0  0  0  0  0  0  0  0  0  0  0  0
    6.7827  -14.7938   20.0701 C   0  0  0  0  0  0  0  0  0  0  0  0
    6.7974  -14.2877   21.5216 C   0  0  0  0  0  0  0  0  0  0  0  0
    8.1862  -14.7398   21.9975 C   0  0  1  0  0  0  0  0  0  0  0  0
    8.0226  -15.2693   23.3694 C   0  0  0  0  0  0  0  0  0  0  0  0
    7.9638  -16.5049   23.5895 O   0  0  0  0  0  0  0  0  0  0  0  0
    5.4752  -12.1243   27.2885 C   0  0  0  0  0  0  0  0  0  0  0  0
    5.9867  -13.1437   26.3226 C   0  0  0  0  0  0  0  0  0  0  0  0
    7.2687  -13.7920   26.7552 C   0  0  2  0  0  0  0  0  0  0  0  0
    8.3244  -12.7284   26.8687 C   0  0  0  0  0  0  0  0  0  0  0  0
    7.7525  -14.8493   25.7953 C   0  0  2  0  0  0  0  0  0  0  0  0
    7.9300  -14.3635   24.4613 N   0  0  0  0  0  0  0  0  0  0  0  0
    6.7328  -15.9266   25.7782 C   0  0  0  0  0  0  0  0  0  0  0  0
    5.9636  -16.0045   24.7859 O   0  0  0  0  0  0  0  0  0  0  0  0
    6.6073  -16.8422   26.8197 O   0  0  0  0  0  0  0  0  0  0  0  0
  2  1  1  1
  2  3  1  0
  3  4  1  0
  4  8  1  0
  5  4  2  0
  6  7  2  0
  6  2  1  0
  9  6  1  0
 10  9  1  0
 11 10  1  0
 12 11  1  0
 12 13  1  0
 13 14  1  1
 13  9  1  0
 14 21  1  0
 15 14  2  0
 17 16  1  0
 18 20  1  0
 18 17  1  0
 18 19  1  6
 20 22  1  0
 20 21  1  6
 22 23  2  0
 22 24  1  0
M  END
$$$$
