DPI.pdb
     RDKit          3D

 24 24  0  0  1  0  0  0  0  0999 V2000
   10.1921  -19.5487   21.0755 N   0  0  0  0  0  0  0  0  0  0  0  0
   10.8489  -18.2578   20.8872 C   0  0  1  0  0  0  0  0  0  0  0  0
   11.1095  -18.1206   19.4205 C   0  0  0  0  0  0  0  0  0  0  0  0
   11.9581  -16.9612   19.0907 C   0  0  0  0  0  0  0  0  0  0  0  0
   11.8361  -16.2748   18.0344 O   0  0  0  0  0  0  0  0  0  0  0  0
   10.0507  -17.1272   21.3960 C   0  0  0  0  0  0  0  0  0  0  0  0
   10.5193  -15.9498   21.2438 O   0  0  0  0  0  0  0  0  0  0  0  0
   12.9522  -16.6049   20.0008 O   0  0  0  0  0  0  0  0  0  0  0  0
    8.7962  -17.2597   22.0431 N   0  0  0  0  0  0  0  0  0  0  0  0
    8.1172  -18.5263   22.2448 C   0  0  0  0  0  0  0  0  0  0  0  0
    6.6692  -18.1577   22.0079 C   0  0  0  0  0  0  0  0  0  0  0  0
    6.5896  -16.8948   22.8808 C   0  0  0  0  0  0  0  0  0  0  0  0
    7.9540  -16.2419   22.6133 C   0  0  1  0  0  0  0  0  0  0  0  0
    8.4587  -15.7455   23.9126 C   0  0  0  0  0  0  0  0  0  0  0  0
    9.4609  -16.2644   24.4649 O   0  0  0  0  0  0  0  0  0  0  0  0
    5.5170  -11.6489   26.7900 C   0  0  0  0  0  0  0  0  0  0  0  0
    6.1428  -12.9212   26.3174 C   0  0  0  0  0  0  0  0  0  0  0  0
    7.6368  -12.8488   26.1991 C   0  0  2  0  0  0  0  0  0  0  0  0
    7.9817  -11.8224   25.1569 C   0  0  0  0  0  0  0  0  0  0  0  0
    8.2655  -14.1620   25.8072 C   0  0  2  0  0  0  0  0  0  0  0  0
    7.7979  -14.6601   24.5500 N   0  0  0  0  0  0  0  0  0  0  0  0
    7.9253  -15.1447   26.8652 C   0  0  0  0  0  0  0  0  0  0  0  0
    7.1080  -16.0602   26.5888 O   0  0  0  0  0  0  0  0  0  0  0  0
    8.4810  -15.0802   28.1403 O   0  0  0  0  0  0  0  0  0  0  0  0
  2  1  1  6
  2  3  1  0
  3  4  1  0
  4  8  1  0
  5  4  2  0
  6  7  2  0
  6  2  1  0
  9  6  1  0
 10  9  1  0
 11 10  1  0
 12 11  1  0
 12 13  1  0
 13 14  1  1
 13  9  1  0
 14 21  1  0
 15 14  2  0
 17 16  1  0
 18 20  1  0
 18 17  1  0
 18 19  1  6
 20 22  1  0
 20 21  1  6
 22 23  2  0
 22 24  1  0
M  END
$$$$
