DPI.pdb
     RDKit          3D

 24 24  0  0  1  0  0  0  0  0999 V2000
   10.2746  -18.1236   19.7641 N   0  0  0  0  0  0  0  0  0  0  0  0
   11.1620  -17.4806   20.7298 C   0  0  1  0  0  0  0  0  0  0  0  0
   12.3505  -16.9958   19.9615 C   0  0  0  0  0  0  0  0  0  0  0  0
   13.4670  -17.9583   19.9567 C   0  0  0  0  0  0  0  0  0  0  0  0
   13.3977  -19.1223   20.4489 O   0  0  0  0  0  0  0  0  0  0  0  0
   10.5125  -16.3775   21.4614 C   0  0  0  0  0  0  0  0  0  0  0  0
   11.2483  -15.6274   22.1860 O   0  0  0  0  0  0  0  0  0  0  0  0
   14.6679  -17.5563   19.3736 O   0  0  0  0  0  0  0  0  0  0  0  0
    9.1244  -16.0930   21.4141 N   0  0  0  0  0  0  0  0  0  0  0  0
    8.1746  -16.8212   20.5934 C   0  0  0  0  0  0  0  0  0  0  0  0
    7.2533  -15.7216   20.1129 C   0  0  0  0  0  0  0  0  0  0  0  0
    6.9945  -15.0132   21.4524 C   0  0  0  0  0  0  0  0  0  0  0  0
    8.3773  -15.0843   22.1173 C   0  0  1  0  0  0  0  0  0  0  0  0
    8.1566  -15.4257   23.5400 C   0  0  0  0  0  0  0  0  0  0  0  0
    8.3336  -16.5944   23.9659 O   0  0  0  0  0  0  0  0  0  0  0  0
    5.6387  -11.6195   26.9950 C   0  0  0  0  0  0  0  0  0  0  0  0
    6.1350  -12.7131   26.1054 C   0  0  0  0  0  0  0  0  0  0  0  0
    7.3123  -13.4560   26.6650 C   0  0  2  0  0  0  0  0  0  0  0  0
    8.4879  -12.5206   26.7074 C   0  0  0  0  0  0  0  0  0  0  0  0
    7.6909  -14.6676   25.8515 C   0  0  2  0  0  0  0  0  0  0  0  0
    7.7360  -14.4125   24.4443 N   0  0  0  0  0  0  0  0  0  0  0  0
    6.6684  -15.7098   26.1140 C   0  0  0  0  0  0  0  0  0  0  0  0
    6.6141  -16.2161   27.2643 O   0  0  0  0  0  0  0  0  0  0  0  0
    5.7786  -16.1365   25.1317 O   0  0  0  0  0  0  0  0  0  0  0  0
  2  1  1  6
  2  3  1  0
  3  4  1  0
  4  8  1  0
  5  4  2  0
  6  7  2  0
  6  2  1  0
  9  6  1  0
 10  9  1  0
 11 10  1  0
 12 11  1  0
 12 13  1  0
 13 14  1  1
 13  9  1  0
 14 21  1  0
 15 14  2  0
 17 16  1  0
 18 20  1  0
 18 17  1  0
 18 19  1  6
 20 22  1  0
 20 21  1  6
 22 23  2  0
 22 24  1  0
M  END
$$$$
