MWC.pdb
     RDKit          3D

 29 30  0  0  1  0  0  0  0  0999 V2000
   19.0683  -15.1478  -22.4049 C   0  0  0  0  0  0  0  0  0  0  0  0
   18.9180  -14.0751  -20.9510 S   0  0  0  0  0  0  0  0  0  0  0  0
   20.0502  -14.6959  -19.6623 C   0  0  0  0  0  0  0  0  0  0  0  0
   19.8424  -13.8638  -18.4014 C   0  0  0  0  0  0  0  0  0  0  0  0
   20.2191  -12.4434  -18.7712 C   0  0  2  0  0  0  0  0  0  0  0  0
   21.5699  -12.3657  -19.2436 N   0  0  0  0  0  0  0  0  0  0  0  0
   20.0045  -11.5467  -17.5869 C   0  0  0  0  0  0  0  0  0  0  0  0
   18.9098  -11.5479  -16.9723 O   0  0  0  0  0  0  0  0  0  0  0  0
   21.0078  -10.6740  -17.1165 N   0  0  0  0  0  0  0  0  0  0  0  0
   20.7468   -9.6907  -16.0425 C   0  0  1  0  0  0  0  0  0  0  0  0
   22.0256   -9.2185  -15.4665 C   0  0  0  0  0  0  0  0  0  0  0  0
   21.8504   -8.1637  -14.4661 C   0  0  0  0  0  0  0  0  0  0  0  0
   21.3571   -8.2609  -13.1662 C   0  0  0  0  0  0  0  0  0  0  0  0
   21.3203   -7.0494  -12.5868 N   0  0  0  0  0  0  0  0  0  0  0  0
   21.7724   -6.1298  -13.4494 C   0  0  0  0  0  0  0  0  0  0  0  0
   21.9160   -4.7654  -13.3013 C   0  0  0  0  0  0  0  0  0  0  0  0
   22.4134   -4.0605  -14.3752 C   0  0  0  0  0  0  0  0  0  0  0  0
   22.7528   -4.6993  -15.5497 C   0  0  0  0  0  0  0  0  0  0  0  0
   22.5974   -6.0662  -15.6664 C   0  0  0  0  0  0  0  0  0  0  0  0
   22.1071   -6.7945  -14.6205 C   0  0  0  0  0  0  0  0  0  0  0  0
   19.8429   -8.6618  -16.5961 C   0  0  0  0  0  0  0  0  0  0  0  0
   20.0670   -8.1687  -17.7676 O   0  0  0  0  0  0  0  0  0  0  0  0
   18.6930   -8.1193  -15.9777 N   0  0  0  0  0  0  0  0  0  0  0  0
   17.9064   -7.1202  -16.6084 C   0  0  1  0  0  0  0  0  0  0  0  0
   16.4495   -7.4835  -16.7649 C   0  0  0  0  0  0  0  0  0  0  0  0
   15.7731   -8.1223  -15.2127 S   0  0  0  0  0  0  0  0  0  0  0  0
   17.9540   -5.8564  -15.8549 C   0  0  0  0  0  0  0  0  0  0  0  0
   18.4967   -5.6987  -14.5984 O   0  0  0  0  0  0  0  0  0  0  0  0
   17.4650   -4.7779  -16.3587 O   0  0  0  0  0  0  0  0  0  0  0  0
  2  1  1  0
  3  2  1  0
  4  3  1  0
  5  4  1  0
  5  6  1  1
  7  8  2  0
  7  5  1  0
  9  7  1  0
 10  9  1  0
 10 11  1  6
 12 11  1  0
 12 20  1  0
 13 14  1  0
 13 12  2  0
 14 15  1  0
 15 16  1  0
 15 20  2  0
 16 17  2  0
 17 18  1  0
 19 18  2  0
 20 19  1  0
 21 10  1  0
 22 21  2  0
 23 21  1  0
 24 23  1  0
 25 26  1  0
 24 25  1  1
 27 24  1  0
 27 28  1  0
 29 27  2  0
M  END
$$$$
