MWC.pdb
     RDKit          3D

 29 30  0  0  1  0  0  0  0  0999 V2000
   27.6805  -36.0700  -23.9553 C   0  0  0  0  0  0  0  0  0  0  0  0
   29.0202  -35.1609  -23.1395 S   0  0  0  0  0  0  0  0  0  0  0  0
   29.2522  -33.5766  -24.0139 C   0  0  0  0  0  0  0  0  0  0  0  0
   30.4367  -32.8514  -23.3843 C   0  0  0  0  0  0  0  0  0  0  0  0
   29.8963  -32.1649  -22.1462 C   0  0  2  0  0  0  0  0  0  0  0  0
   28.9317  -31.1600  -22.4831 N   0  0  0  0  0  0  0  0  0  0  0  0
   31.0359  -31.5838  -21.3612 C   0  0  0  0  0  0  0  0  0  0  0  0
   31.3593  -30.3785  -21.4980 O   0  0  0  0  0  0  0  0  0  0  0  0
   31.7854  -32.3533  -20.4471 N   0  0  0  0  0  0  0  0  0  0  0  0
   32.8570  -31.7577  -19.6193 C   0  0  1  0  0  0  0  0  0  0  0  0
   32.6043  -32.0347  -18.1878 C   0  0  0  0  0  0  0  0  0  0  0  0
   31.3972  -31.3797  -17.6801 C   0  0  0  0  0  0  0  0  0  0  0  0
   30.8538  -30.1461  -18.0343 C   0  0  0  0  0  0  0  0  0  0  0  0
   29.7556  -29.8903  -17.3041 N   0  0  0  0  0  0  0  0  0  0  0  0
   29.5328  -30.9094  -16.4637 C   0  0  0  0  0  0  0  0  0  0  0  0
   28.5331  -31.0906  -15.5300 C   0  0  0  0  0  0  0  0  0  0  0  0
   28.5566  -32.2552  -14.7947 C   0  0  0  0  0  0  0  0  0  0  0  0
   29.5434  -33.1992  -14.9888 C   0  0  0  0  0  0  0  0  0  0  0  0
   30.5300  -32.9883  -15.9312 C   0  0  0  0  0  0  0  0  0  0  0  0
   30.5356  -31.8444  -16.6770 C   0  0  0  0  0  0  0  0  0  0  0  0
   34.1480  -32.2173  -20.1711 C   0  0  0  0  0  0  0  0  0  0  0  0
   34.4076  -33.4797  -20.2400 O   0  0  0  0  0  0  0  0  0  0  0  0
   35.1952  -31.4086  -20.6695 N   0  0  0  0  0  0  0  0  0  0  0  0
   36.3547  -31.9705  -21.2647 C   0  0  1  0  0  0  0  0  0  0  0  0
   36.8960  -31.1841  -22.4342 C   0  0  0  0  0  0  0  0  0  0  0  0
   35.7179  -31.1772  -23.8080 S   0  0  0  0  0  0  0  0  0  0  0  0
   37.4474  -32.0879  -20.2852 C   0  0  0  0  0  0  0  0  0  0  0  0
   38.5782  -32.8591  -20.4426 O   0  0  0  0  0  0  0  0  0  0  0  0
   37.3990  -31.4416  -19.1735 O   0  0  0  0  0  0  0  0  0  0  0  0
  2  1  1  0
  3  2  1  0
  4  3  1  0
  5  4  1  0
  5  6  1  6
  7  8  2  0
  7  5  1  0
  9  7  1  0
 10  9  1  0
 10 11  1  1
 12 11  1  0
 12 20  1  0
 13 14  1  0
 13 12  2  0
 14 15  1  0
 15 16  1  0
 15 20  2  0
 16 17  2  0
 17 18  1  0
 19 18  2  0
 20 19  1  0
 21 10  1  0
 22 21  2  0
 23 21  1  0
 24 23  1  0
 25 26  1  0
 24 25  1  6
 27 24  1  0
 27 28  1  0
 29 27  2  0
M  END
$$$$
