MWC.pdb
     RDKit          3D

 29 30  0  0  1  0  0  0  0  0999 V2000
   18.8470  -18.7167  -18.5480 C   0  0  0  0  0  0  0  0  0  0  0  0
   19.1445  -20.2229  -17.5836 S   0  0  0  0  0  0  0  0  0  0  0  0
   20.8254  -20.1297  -16.8807 C   0  0  0  0  0  0  0  0  0  0  0  0
   21.1283  -18.6707  -16.5564 C   0  0  0  0  0  0  0  0  0  0  0  0
   22.5758  -18.6338  -16.1094 C   0  0  2  0  0  0  0  0  0  0  0  0
   22.7899  -19.4603  -14.9583 N   0  0  0  0  0  0  0  0  0  0  0  0
   22.9783  -17.2130  -15.8414 C   0  0  0  0  0  0  0  0  0  0  0  0
   22.7584  -16.6846  -14.7240 O   0  0  0  0  0  0  0  0  0  0  0  0
   23.6129  -16.4172  -16.8179 N   0  0  0  0  0  0  0  0  0  0  0  0
   24.0281  -15.0246  -16.5413 C   0  0  1  0  0  0  0  0  0  0  0  0
   25.5014  -14.9101  -16.6211 C   0  0  0  0  0  0  0  0  0  0  0  0
   26.1998  -15.8765  -15.7713 C   0  0  0  0  0  0  0  0  0  0  0  0
   26.2537  -15.9432  -14.3802 C   0  0  0  0  0  0  0  0  0  0  0  0
   27.0378  -16.9617  -13.9895 N   0  0  0  0  0  0  0  0  0  0  0  0
   27.5201  -17.5913  -15.0690 C   0  0  0  0  0  0  0  0  0  0  0  0
   28.3601  -18.6821  -15.1617 C   0  0  0  0  0  0  0  0  0  0  0  0
   28.6948  -19.1184  -16.4248 C   0  0  0  0  0  0  0  0  0  0  0  0
   28.2061  -18.4854  -17.5487 C   0  0  0  0  0  0  0  0  0  0  0  0
   27.3673  -17.3961  -17.4224 C   0  0  0  0  0  0  0  0  0  0  0  0
   27.0159  -16.9384  -16.1848 C   0  0  0  0  0  0  0  0  0  0  0  0
   23.2405  -14.1445  -17.4285 C   0  0  0  0  0  0  0  0  0  0  0  0
   23.0372  -14.4822  -18.6575 O   0  0  0  0  0  0  0  0  0  0  0  0
   22.6385  -12.9118  -17.0861 N   0  0  0  0  0  0  0  0  0  0  0  0
   21.9248  -12.1387  -18.0387 C   0  0  1  0  0  0  0  0  0  0  0  0
   21.1284  -11.0019  -17.4451 C   0  0  0  0  0  0  0  0  0  0  0  0
   20.3404  -10.0184  -18.7439 S   0  0  0  0  0  0  0  0  0  0  0  0
   22.8379  -11.5491  -19.0317 C   0  0  0  0  0  0  0  0  0  0  0  0
   22.6050  -11.4852  -20.3881 O   0  0  0  0  0  0  0  0  0  0  0  0
   23.9592  -11.0364  -18.6631 O   0  0  0  0  0  0  0  0  0  0  0  0
  2  1  1  0
  3  2  1  0
  4  3  1  0
  5  4  1  0
  5  6  1  1
  7  8  2  0
  7  5  1  0
  9  7  1  0
 10  9  1  0
 10 11  1  6
 12 11  1  0
 12 20  1  0
 13 14  1  0
 13 12  2  0
 14 15  1  0
 15 16  1  0
 15 20  2  0
 16 17  2  0
 17 18  1  0
 19 18  2  0
 20 19  1  0
 21 10  1  0
 22 21  2  0
 23 21  1  0
 24 23  1  0
 25 26  1  0
 24 25  1  1
 27 24  1  0
 27 28  1  0
 29 27  2  0
M  END
$$$$
