MWC.pdb
     RDKit          3D

 29 30  0  0  1  0  0  0  0  0999 V2000
   22.8685  -24.0356  -15.7306 C   0  0  0  0  0  0  0  0  0  0  0  0
   21.1286  -24.0729  -15.2222 S   0  0  0  0  0  0  0  0  0  0  0  0
   20.6186  -22.3725  -14.8018 C   0  0  0  0  0  0  0  0  0  0  0  0
   21.8748  -21.5266  -14.6223 C   0  0  0  0  0  0  0  0  0  0  0  0
   22.0955  -21.4184  -13.1270 C   0  0  2  0  0  0  0  0  0  0  0  0
   20.9671  -20.8251  -12.4724 N   0  0  0  0  0  0  0  0  0  0  0  0
   23.3498  -20.6373  -12.8639 C   0  0  0  0  0  0  0  0  0  0  0  0
   23.2972  -19.4119  -12.5963 O   0  0  0  0  0  0  0  0  0  0  0  0
   24.6268  -21.2348  -12.9044 N   0  0  0  0  0  0  0  0  0  0  0  0
   25.8596  -20.4617  -12.6379 C   0  0  1  0  0  0  0  0  0  0  0  0
   26.7937  -21.2647  -11.8178 C   0  0  0  0  0  0  0  0  0  0  0  0
   26.7313  -20.9395  -10.3915 C   0  0  0  0  0  0  0  0  0  0  0  0
   25.6378  -20.5242   -9.6336 C   0  0  0  0  0  0  0  0  0  0  0  0
   26.0091  -20.2895   -8.3640 N   0  0  0  0  0  0  0  0  0  0  0  0
   27.3200  -20.5311   -8.2320 C   0  0  0  0  0  0  0  0  0  0  0  0
   28.1367  -20.4283   -7.1245 C   0  0  0  0  0  0  0  0  0  0  0  0
   29.4674  -20.7454   -7.2871 C   0  0  0  0  0  0  0  0  0  0  0  0
   29.9581  -21.1490   -8.5114 C   0  0  0  0  0  0  0  0  0  0  0  0
   29.1149  -21.2418   -9.6007 C   0  0  0  0  0  0  0  0  0  0  0  0
   27.7904  -20.9349   -9.4734 C   0  0  0  0  0  0  0  0  0  0  0  0
   26.3631  -19.9720  -13.9375 C   0  0  0  0  0  0  0  0  0  0  0  0
   26.3097  -20.7330  -14.9785 O   0  0  0  0  0  0  0  0  0  0  0  0
   26.9222  -18.7018  -14.2081 N   0  0  0  0  0  0  0  0  0  0  0  0
   27.1052  -18.2335  -15.5354 C   0  0  1  0  0  0  0  0  0  0  0  0
   27.3605  -16.7493  -15.6408 C   0  0  0  0  0  0  0  0  0  0  0  0
   26.0203  -15.8075  -14.8713 S   0  0  0  0  0  0  0  0  0  0  0  0
   28.2411  -18.9103  -16.1826 C   0  0  0  0  0  0  0  0  0  0  0  0
   29.1061  -19.7843  -15.5613 O   0  0  0  0  0  0  0  0  0  0  0  0
   28.4970  -18.7089  -17.4276 O   0  0  0  0  0  0  0  0  0  0  0  0
  2  1  1  0
  3  2  1  0
  4  3  1  0
  5  4  1  0
  5  6  1  1
  7  8  2  0
  7  5  1  0
  9  7  1  0
 10  9  1  0
 10 11  1  6
 12 11  1  0
 12 20  1  0
 13 14  1  0
 13 12  2  0
 14 15  1  0
 15 16  1  0
 15 20  2  0
 16 17  2  0
 17 18  1  0
 19 18  2  0
 20 19  1  0
 21 10  1  0
 22 21  2  0
 23 21  1  0
 24 23  1  0
 25 26  1  0
 24 25  1  1
 27 24  1  0
 27 28  1  0
 29 27  2  0
M  END
$$$$
