MWC.pdb
     RDKit          3D

 29 30  0  0  1  0  0  0  0  0999 V2000
   29.6922  -23.4428  -16.9206 C   0  0  0  0  0  0  0  0  0  0  0  0
   28.8784  -22.1566  -17.9057 S   0  0  0  0  0  0  0  0  0  0  0  0
   28.5659  -20.7202  -16.8254 C   0  0  0  0  0  0  0  0  0  0  0  0
   28.3628  -21.2272  -15.4017 C   0  0  0  0  0  0  0  0  0  0  0  0
   27.4746  -20.2077  -14.7176 C   0  0  2  0  0  0  0  0  0  0  0  0
   28.1544  -18.9593  -14.5351 N   0  0  0  0  0  0  0  0  0  0  0  0
   26.9958  -20.7630  -13.4080 C   0  0  0  0  0  0  0  0  0  0  0  0
   26.4685  -21.9007  -13.3490 O   0  0  0  0  0  0  0  0  0  0  0  0
   27.1144  -20.0432  -12.2009 N   0  0  0  0  0  0  0  0  0  0  0  0
   26.5691  -20.5601  -10.9266 C   0  0  1  0  0  0  0  0  0  0  0  0
   27.2980  -19.9640   -9.7849 C   0  0  0  0  0  0  0  0  0  0  0  0
   26.7201  -20.3172   -8.4868 C   0  0  0  0  0  0  0  0  0  0  0  0
   25.5381  -21.0020   -8.2100 C   0  0  0  0  0  0  0  0  0  0  0  0
   25.3450  -21.0870   -6.8832 N   0  0  0  0  0  0  0  0  0  0  0  0
   26.3568  -20.4825   -6.2468 C   0  0  0  0  0  0  0  0  0  0  0  0
   26.5873  -20.3185   -4.8962 C   0  0  0  0  0  0  0  0  0  0  0  0
   27.7290  -19.6423   -4.5260 C   0  0  0  0  0  0  0  0  0  0  0  0
   28.6034  -19.1510   -5.4729 C   0  0  0  0  0  0  0  0  0  0  0  0
   28.3444  -19.3316   -6.8169 C   0  0  0  0  0  0  0  0  0  0  0  0
   27.2216  -19.9975   -7.2176 C   0  0  0  0  0  0  0  0  0  0  0  0
   25.1054  -20.3635  -10.9608 C   0  0  0  0  0  0  0  0  0  0  0  0
   24.6167  -19.1781  -11.1081 O   0  0  0  0  0  0  0  0  0  0  0  0
   24.1111  -21.3631  -10.8542 N   0  0  0  0  0  0  0  0  0  0  0  0
   22.7558  -21.1076  -11.1895 C   0  0  1  0  0  0  0  0  0  0  0  0
   22.0122  -22.3063  -11.7273 C   0  0  0  0  0  0  0  0  0  0  0  0
   20.2593  -21.9249  -11.9659 S   0  0  0  0  0  0  0  0  0  0  0  0
   22.0035  -20.6269  -10.0189 C   0  0  0  0  0  0  0  0  0  0  0  0
   21.0289  -19.6534  -10.0439 O   0  0  0  0  0  0  0  0  0  0  0  0
   22.2303  -21.1179   -8.8513 O   0  0  0  0  0  0  0  0  0  0  0  0
  2  1  1  0
  3  2  1  0
  4  3  1  0
  5  4  1  0
  5  6  1  1
  7  8  2  0
  7  5  1  0
  9  7  1  0
 10  9  1  0
 10 11  1  1
 12 11  1  0
 12 20  1  0
 13 14  1  0
 13 12  2  0
 14 15  1  0
 15 16  1  0
 15 20  2  0
 16 17  2  0
 17 18  1  0
 19 18  2  0
 20 19  1  0
 21 10  1  0
 22 21  2  0
 23 21  1  0
 24 23  1  0
 25 26  1  0
 24 25  1  1
 27 24  1  0
 27 28  1  0
 29 27  2  0
M  END
$$$$
