MWC.pdb
     RDKit          3D

 29 30  0  0  1  0  0  0  0  0999 V2000
   29.2825  -16.6491  -17.7985 C   0  0  0  0  0  0  0  0  0  0  0  0
   28.0556  -17.1520  -16.5621 S   0  0  0  0  0  0  0  0  0  0  0  0
   28.4430  -18.8536  -16.0305 C   0  0  0  0  0  0  0  0  0  0  0  0
   27.4606  -19.2474  -14.9326 C   0  0  0  0  0  0  0  0  0  0  0  0
   27.8780  -20.6303  -14.4746 C   0  0  2  0  0  0  0  0  0  0  0  0
   27.6143  -21.6169  -15.4800 N   0  0  0  0  0  0  0  0  0  0  0  0
   27.1773  -20.9621  -13.1896 C   0  0  0  0  0  0  0  0  0  0  0  0
   26.1609  -21.6989  -13.1858 O   0  0  0  0  0  0  0  0  0  0  0  0
   27.6215  -20.4690  -11.9450 N   0  0  0  0  0  0  0  0  0  0  0  0
   26.9053  -20.7682  -10.6857 C   0  0  1  0  0  0  0  0  0  0  0  0
   27.7170  -20.3358   -9.5264 C   0  0  0  0  0  0  0  0  0  0  0  0
   27.0220  -20.4939   -8.2473 C   0  0  0  0  0  0  0  0  0  0  0  0
   25.7589  -21.0265   -7.9955 C   0  0  0  0  0  0  0  0  0  0  0  0
   25.4722  -20.9541   -6.6849 N   0  0  0  0  0  0  0  0  0  0  0  0
   26.4987  -20.3895   -6.0355 C   0  0  0  0  0  0  0  0  0  0  0  0
   26.6571  -20.1099   -4.6936 C   0  0  0  0  0  0  0  0  0  0  0  0
   27.8373  -19.5148   -4.3055 C   0  0  0  0  0  0  0  0  0  0  0  0
   28.8183  -19.2128   -5.2269 C   0  0  0  0  0  0  0  0  0  0  0  0
   28.6295  -19.5053   -6.5629 C   0  0  0  0  0  0  0  0  0  0  0  0
   27.4710  -20.0953   -6.9808 C   0  0  0  0  0  0  0  0  0  0  0  0
   25.5487  -20.1954  -10.8025 C   0  0  0  0  0  0  0  0  0  0  0  0
   25.3683  -18.9269  -10.6468 O   0  0  0  0  0  0  0  0  0  0  0  0
   24.3527  -20.8941  -11.0861 N   0  0  0  0  0  0  0  0  0  0  0  0
   23.1066  -20.2251  -11.2046 C   0  0  1  0  0  0  0  0  0  0  0  0
   22.4397  -20.3874  -12.5492 C   0  0  0  0  0  0  0  0  0  0  0  0
   23.5542  -19.8922  -13.8864 S   0  0  0  0  0  0  0  0  0  0  0  0
   22.1512  -20.7043  -10.1923 C   0  0  0  0  0  0  0  0  0  0  0  0
   22.3747  -21.7433   -9.3155 O   0  0  0  0  0  0  0  0  0  0  0  0
   20.9978  -20.1472  -10.0686 O   0  0  0  0  0  0  0  0  0  0  0  0
  2  1  1  0
  3  2  1  0
  4  3  1  0
  5  4  1  0
  5  6  1  6
  7  8  2  0
  7  5  1  0
  9  7  1  0
 10  9  1  0
 10 11  1  1
 12 11  1  0
 12 20  1  0
 13 14  1  0
 13 12  2  0
 14 15  1  0
 15 16  1  0
 15 20  2  0
 16 17  2  0
 17 18  1  0
 19 18  2  0
 20 19  1  0
 21 10  1  0
 22 21  2  0
 23 21  1  0
 24 23  1  0
 25 26  1  0
 24 25  1  6
 27 24  1  0
 27 28  1  0
 29 27  2  0
M  END
$$$$
