MWC.pdb
     RDKit          3D

 29 30  0  0  1  0  0  0  0  0999 V2000
   22.1610  -20.8564  -14.6615 C   0  0  0  0  0  0  0  0  0  0  0  0
   23.4927  -19.7663  -15.2318 S   0  0  0  0  0  0  0  0  0  0  0  0
   24.9222  -19.9782  -14.1184 C   0  0  0  0  0  0  0  0  0  0  0  0
   24.4163  -20.5296  -12.7896 C   0  0  0  0  0  0  0  0  0  0  0  0
   25.6385  -20.6776  -11.9061 C   0  0  2  0  0  0  0  0  0  0  0  0
   26.6190  -21.5327  -12.5071 N   0  0  0  0  0  0  0  0  0  0  0  0
   25.2203  -21.1916  -10.5594 C   0  0  0  0  0  0  0  0  0  0  0  0
   25.3311  -22.4096  -10.2759 O   0  0  0  0  0  0  0  0  0  0  0  0
   24.6915  -20.3429   -9.5647 N   0  0  0  0  0  0  0  0  0  0  0  0
   24.2944  -20.8523   -8.2339 C   0  0  1  0  0  0  0  0  0  0  0  0
   24.5836  -19.8375   -7.1963 C   0  0  0  0  0  0  0  0  0  0  0  0
   26.0166  -19.6312   -6.9780 C   0  0  0  0  0  0  0  0  0  0  0  0
   26.9861  -19.1898   -7.8767 C   0  0  0  0  0  0  0  0  0  0  0  0
   28.1955  -19.1745   -7.2919 N   0  0  0  0  0  0  0  0  0  0  0  0
   28.0818  -19.5911   -6.0239 C   0  0  0  0  0  0  0  0  0  0  0  0
   29.0445  -19.7405   -5.0467 C   0  0  0  0  0  0  0  0  0  0  0  0
   28.6308  -20.1966   -3.8144 C   0  0  0  0  0  0  0  0  0  0  0  0
   27.3049  -20.4906   -3.5732 C   0  0  0  0  0  0  0  0  0  0  0  0
   26.3655  -20.3305   -4.5722 C   0  0  0  0  0  0  0  0  0  0  0  0
   26.7425  -19.8802   -5.8050 C   0  0  0  0  0  0  0  0  0  0  0  0
   22.8974  -21.3208   -8.3393 C   0  0  0  0  0  0  0  0  0  0  0  0
   22.0843  -20.7462   -9.1607 O   0  0  0  0  0  0  0  0  0  0  0  0
   22.3008  -22.3829   -7.6215 N   0  0  0  0  0  0  0  0  0  0  0  0
   20.9658  -22.7958   -7.8702 C   0  0  1  0  0  0  0  0  0  0  0  0
   20.5601  -24.0562   -7.1450 C   0  0  0  0  0  0  0  0  0  0  0  0
   20.8104  -23.8835   -5.3610 S   0  0  0  0  0  0  0  0  0  0  0  0
   20.0074  -21.7492   -7.4787 C   0  0  0  0  0  0  0  0  0  0  0  0
   18.6520  -21.7788   -7.7242 O   0  0  0  0  0  0  0  0  0  0  0  0
   20.4086  -20.6980   -6.8542 O   0  0  0  0  0  0  0  0  0  0  0  0
  2  1  1  0
  3  2  1  0
  4  3  1  0
  5  4  1  0
  5  6  1  6
  7  8  2  0
  7  5  1  0
  9  7  1  0
 10  9  1  0
 10 11  1  1
 12 11  1  0
 12 20  1  0
 13 14  1  0
 13 12  2  0
 14 15  1  0
 15 16  1  0
 15 20  2  0
 16 17  2  0
 17 18  1  0
 19 18  2  0
 20 19  1  0
 21 10  1  0
 22 21  2  0
 23 21  1  0
 24 23  1  0
 25 26  1  0
 24 25  1  1
 27 24  1  0
 27 28  1  0
 29 27  2  0
M  END
$$$$
