MWC.pdb
     RDKit          3D

 29 30  0  0  1  0  0  0  0  0999 V2000
   20.8247  -23.2437  -20.5413 C   0  0  0  0  0  0  0  0  0  0  0  0
   22.4886  -22.5236  -20.5502 S   0  0  0  0  0  0  0  0  0  0  0  0
   23.6392  -23.7322  -19.8131 C   0  0  0  0  0  0  0  0  0  0  0  0
   23.2616  -23.9205  -18.3477 C   0  0  0  0  0  0  0  0  0  0  0  0
   23.8081  -22.7111  -17.6165 C   0  0  2  0  0  0  0  0  0  0  0  0
   25.2412  -22.7004  -17.6196 N   0  0  0  0  0  0  0  0  0  0  0  0
   23.2670  -22.6887  -16.2168 C   0  0  0  0  0  0  0  0  0  0  0  0
   23.3688  -23.6958  -15.4742 O   0  0  0  0  0  0  0  0  0  0  0  0
   22.6284  -21.5520  -15.6786 N   0  0  0  0  0  0  0  0  0  0  0  0
   22.1483  -21.5149  -14.2798 C   0  0  1  0  0  0  0  0  0  0  0  0
   22.6103  -20.2743  -13.6185 C   0  0  0  0  0  0  0  0  0  0  0  0
   23.8476  -20.4556  -12.8569 C   0  0  0  0  0  0  0  0  0  0  0  0
   25.1642  -20.4737  -13.3139 C   0  0  0  0  0  0  0  0  0  0  0  0
   26.0104  -20.7074  -12.2970 N   0  0  0  0  0  0  0  0  0  0  0  0
   25.3135  -20.8492  -11.1619 C   0  0  0  0  0  0  0  0  0  0  0  0
   25.7480  -21.0994   -9.8763 C   0  0  0  0  0  0  0  0  0  0  0  0
   24.7896  -21.1979   -8.8916 C   0  0  0  0  0  0  0  0  0  0  0  0
   23.4500  -21.0512   -9.1857 C   0  0  0  0  0  0  0  0  0  0  0  0
   23.0473  -20.8012  -10.4824 C   0  0  0  0  0  0  0  0  0  0  0  0
   23.9718  -20.6976  -11.4819 C   0  0  0  0  0  0  0  0  0  0  0  0
   20.6910  -21.7549  -14.3067 C   0  0  0  0  0  0  0  0  0  0  0  0
   19.9618  -21.1970  -15.2139 O   0  0  0  0  0  0  0  0  0  0  0  0
   19.9473  -22.5689  -13.4216 N   0  0  0  0  0  0  0  0  0  0  0  0
   18.5424  -22.7239  -13.5509 C   0  0  1  0  0  0  0  0  0  0  0  0
   17.9806  -23.9241  -12.8277 C   0  0  0  0  0  0  0  0  0  0  0  0
   18.8640  -24.2140  -11.2751 S   0  0  0  0  0  0  0  0  0  0  0  0
   17.8309  -21.5423  -13.0364 C   0  0  0  0  0  0  0  0  0  0  0  0
   16.4954  -21.2681  -13.2351 O   0  0  0  0  0  0  0  0  0  0  0  0
   18.4536  -20.6589  -12.3379 O   0  0  0  0  0  0  0  0  0  0  0  0
  2  1  1  0
  3  2  1  0
  4  3  1  0
  5  4  1  0
  5  6  1  1
  7  8  2  0
  7  5  1  0
  9  7  1  0
 10  9  1  0
 10 11  1  6
 12 11  1  0
 12 20  1  0
 13 14  1  0
 13 12  2  0
 14 15  1  0
 15 16  1  0
 15 20  2  0
 16 17  2  0
 17 18  1  0
 19 18  2  0
 20 19  1  0
 21 10  1  0
 22 21  2  0
 23 21  1  0
 24 23  1  0
 25 26  1  0
 24 25  1  1
 27 24  1  0
 27 28  1  0
 29 27  2  0
M  END
$$$$
