MWC.pdb
     RDKit          3D

 29 30  0  0  1  0  0  0  0  0999 V2000
   20.7392  -19.9777  -17.0172 C   0  0  0  0  0  0  0  0  0  0  0  0
   19.5195  -21.0222  -16.1754 S   0  0  0  0  0  0  0  0  0  0  0  0
   20.0402  -21.2240  -14.4387 C   0  0  0  0  0  0  0  0  0  0  0  0
   21.4370  -20.6314  -14.2858 C   0  0  0  0  0  0  0  0  0  0  0  0
   21.8867  -20.9784  -12.8810 C   0  0  2  0  0  0  0  0  0  0  0  0
   21.0246  -20.3952  -11.8958 N   0  0  0  0  0  0  0  0  0  0  0  0
   23.3084  -20.5369  -12.6897 C   0  0  0  0  0  0  0  0  0  0  0  0
   23.5747  -19.3487  -12.3843 O   0  0  0  0  0  0  0  0  0  0  0  0
   24.3950  -21.4232  -12.8420 N   0  0  0  0  0  0  0  0  0  0  0  0
   25.7894  -21.0003  -12.5866 C   0  0  1  0  0  0  0  0  0  0  0  0
   26.3965  -21.8592  -11.5455 C   0  0  0  0  0  0  0  0  0  0  0  0
   26.3269  -21.2737  -10.2053 C   0  0  0  0  0  0  0  0  0  0  0  0
   25.2410  -20.6831   -9.5614 C   0  0  0  0  0  0  0  0  0  0  0  0
   25.6032  -20.2325   -8.3487 N   0  0  0  0  0  0  0  0  0  0  0  0
   26.9005  -20.4966   -8.1452 C   0  0  0  0  0  0  0  0  0  0  0  0
   27.7043  -20.2230   -7.0575 C   0  0  0  0  0  0  0  0  0  0  0  0
   29.0225  -20.6164   -7.1290 C   0  0  0  0  0  0  0  0  0  0  0  0
   29.5136  -21.2583   -8.2468 C   0  0  0  0  0  0  0  0  0  0  0  0
   28.6835  -21.5177   -9.3191 C   0  0  0  0  0  0  0  0  0  0  0  0
   27.3715  -21.1410   -9.2802 C   0  0  0  0  0  0  0  0  0  0  0  0
   26.4794  -20.9431  -13.8915 C   0  0  0  0  0  0  0  0  0  0  0  0
   26.1943  -21.8034  -14.8105 O   0  0  0  0  0  0  0  0  0  0  0  0
   27.4638  -20.0106  -14.2921 N   0  0  0  0  0  0  0  0  0  0  0  0
   28.0857  -20.0814  -15.5659 C   0  0  1  0  0  0  0  0  0  0  0  0
   28.7873  -18.8124  -15.9861 C   0  0  0  0  0  0  0  0  0  0  0  0
   27.6367  -17.4158  -16.0090 S   0  0  0  0  0  0  0  0  0  0  0  0
   29.0886  -21.1583  -15.6052 C   0  0  0  0  0  0  0  0  0  0  0  0
   29.7948  -21.5481  -16.7222 O   0  0  0  0  0  0  0  0  0  0  0  0
   29.3715  -21.8253  -14.5417 O   0  0  0  0  0  0  0  0  0  0  0  0
  2  1  1  0
  3  2  1  0
  4  3  1  0
  5  4  1  0
  5  6  1  1
  7  8  2  0
  7  5  1  0
  9  7  1  0
 10  9  1  0
 10 11  1  1
 12 11  1  0
 12 20  1  0
 13 14  1  0
 13 12  2  0
 14 15  1  0
 15 16  1  0
 15 20  2  0
 16 17  2  0
 17 18  1  0
 19 18  2  0
 20 19  1  0
 21 10  1  0
 22 21  2  0
 23 21  1  0
 24 23  1  0
 25 26  1  0
 24 25  1  1
 27 24  1  0
 27 28  1  0
 29 27  2  0
M  END
$$$$
