MWC.pdb
     RDKit          3D

 29 30  0  0  1  0  0  0  0  0999 V2000
   25.7349  -18.8799  -19.0198 C   0  0  0  0  0  0  0  0  0  0  0  0
   27.5155  -18.6478  -19.2697 S   0  0  0  0  0  0  0  0  0  0  0  0
   28.4008  -19.8857  -18.2637 C   0  0  0  0  0  0  0  0  0  0  0  0
   27.4544  -20.3847  -17.1770 C   0  0  0  0  0  0  0  0  0  0  0  0
   28.2571  -21.3591  -16.3389 C   0  0  2  0  0  0  0  0  0  0  0  0
   28.5185  -22.5735  -17.0538 N   0  0  0  0  0  0  0  0  0  0  0  0
   27.5286  -21.6297  -15.0549 C   0  0  0  0  0  0  0  0  0  0  0  0
   26.6336  -22.5082  -14.9990 O   0  0  0  0  0  0  0  0  0  0  0  0
   27.8114  -20.9201  -13.8692 N   0  0  0  0  0  0  0  0  0  0  0  0
   27.0331  -21.1301  -12.6289 C   0  0  1  0  0  0  0  0  0  0  0  0
   27.7864  -20.6133  -11.4646 C   0  0  0  0  0  0  0  0  0  0  0  0
   26.9624  -20.4760  -10.2621 C   0  0  0  0  0  0  0  0  0  0  0  0
   25.5753  -20.3930  -10.1541 C   0  0  0  0  0  0  0  0  0  0  0  0
   25.2137  -20.2331   -8.8701 N   0  0  0  0  0  0  0  0  0  0  0  0
   26.3090  -20.2044   -8.0997 C   0  0  0  0  0  0  0  0  0  0  0  0
   26.4321  -20.0593   -6.7329 C   0  0  0  0  0  0  0  0  0  0  0  0
   27.7054  -20.0655   -6.2073 C   0  0  0  0  0  0  0  0  0  0  0  0
   28.8099  -20.2114   -7.0206 C   0  0  0  0  0  0  0  0  0  0  0  0
   28.6534  -20.3545   -8.3848 C   0  0  0  0  0  0  0  0  0  0  0  0
   27.4049  -20.3527   -8.9378 C   0  0  0  0  0  0  0  0  0  0  0  0
   25.6845  -20.5707  -12.8539 C   0  0  0  0  0  0  0  0  0  0  0  0
   25.5374  -19.3058  -13.0643 O   0  0  0  0  0  0  0  0  0  0  0  0
   24.4627  -21.2818  -12.8774 N   0  0  0  0  0  0  0  0  0  0  0  0
   23.2545  -20.6771  -13.3126 C   0  0  1  0  0  0  0  0  0  0  0  0
   22.5305  -21.4433  -14.3933 C   0  0  0  0  0  0  0  0  0  0  0  0
   22.3321  -23.1814  -13.9299 S   0  0  0  0  0  0  0  0  0  0  0  0
   22.3103  -20.5186  -12.1943 C   0  0  0  0  0  0  0  0  0  0  0  0
   22.4708  -21.0538  -10.9349 O   0  0  0  0  0  0  0  0  0  0  0  0
   21.2299  -19.8358  -12.3447 O   0  0  0  0  0  0  0  0  0  0  0  0
  2  1  1  0
  3  2  1  0
  4  3  1  0
  5  4  1  0
  5  6  1  6
  7  8  2  0
  7  5  1  0
  9  7  1  0
 10  9  1  0
 10 11  1  1
 12 11  1  0
 12 20  1  0
 13 14  1  0
 13 12  2  0
 14 15  1  0
 15 16  1  0
 15 20  2  0
 16 17  2  0
 17 18  1  0
 19 18  2  0
 20 19  1  0
 21 10  1  0
 22 21  2  0
 23 21  1  0
 24 23  1  0
 25 26  1  0
 24 25  1  6
 27 24  1  0
 27 28  1  0
 29 27  2  0
M  END
$$$$
