MWC.pdb
     RDKit          3D

 29 30  0  0  1  0  0  0  0  0999 V2000
   24.4620  -26.2714  -19.5904 C   0  0  0  0  0  0  0  0  0  0  0  0
   24.9398  -24.5948  -20.0882 S   0  0  0  0  0  0  0  0  0  0  0  0
   26.4871  -24.1605  -19.2248 C   0  0  0  0  0  0  0  0  0  0  0  0
   26.2922  -24.4184  -17.7344 C   0  0  0  0  0  0  0  0  0  0  0  0
   27.0397  -23.3122  -17.0176 C   0  0  2  0  0  0  0  0  0  0  0  0
   28.4434  -23.5912  -16.9434 N   0  0  0  0  0  0  0  0  0  0  0  0
   26.4507  -23.1173  -15.6510 C   0  0  0  0  0  0  0  0  0  0  0  0
   25.9702  -24.0879  -15.0160 O   0  0  0  0  0  0  0  0  0  0  0  0
   26.4102  -21.8536  -15.0259 N   0  0  0  0  0  0  0  0  0  0  0  0
   25.9672  -21.6895  -13.6241 C   0  0  1  0  0  0  0  0  0  0  0  0
   26.8155  -20.6894  -12.9385 C   0  0  0  0  0  0  0  0  0  0  0  0
   26.5246  -20.5727  -11.5083 C   0  0  0  0  0  0  0  0  0  0  0  0
   25.3745  -20.0937  -10.8834 C   0  0  0  0  0  0  0  0  0  0  0  0
   25.5223  -20.1160   -9.5483 N   0  0  0  0  0  0  0  0  0  0  0  0
   26.7356  -20.5945   -9.2429 C   0  0  0  0  0  0  0  0  0  0  0  0
   27.3285  -20.7975   -8.0136 C   0  0  0  0  0  0  0  0  0  0  0  0
   28.6074  -21.3094   -8.0039 C   0  0  0  0  0  0  0  0  0  0  0  0
   29.2641  -21.6054   -9.1803 C   0  0  0  0  0  0  0  0  0  0  0  0
   28.6433  -21.3909  -10.3946 C   0  0  0  0  0  0  0  0  0  0  0  0
   27.3758  -20.8847  -10.4393 C   0  0  0  0  0  0  0  0  0  0  0  0
   24.5134  -21.4285  -13.6482 C   0  0  0  0  0  0  0  0  0  0  0  0
   23.9856  -20.8089  -14.6499 O   0  0  0  0  0  0  0  0  0  0  0  0
   23.5676  -21.7960  -12.6636 N   0  0  0  0  0  0  0  0  0  0  0  0
   22.1789  -21.5586  -12.8360 C   0  0  1  0  0  0  0  0  0  0  0  0
   21.3132  -22.1018  -11.7249 C   0  0  0  0  0  0  0  0  0  0  0  0
   20.8706  -23.8286  -12.0370 S   0  0  0  0  0  0  0  0  0  0  0  0
   21.8973  -20.1169  -12.9322 C   0  0  0  0  0  0  0  0  0  0  0  0
   20.9487  -19.5440  -13.7509 O   0  0  0  0  0  0  0  0  0  0  0  0
   22.5580  -19.2742  -12.2186 O   0  0  0  0  0  0  0  0  0  0  0  0
  2  1  1  0
  3  2  1  0
  4  3  1  0
  5  4  1  0
  5  6  1  1
  7  8  2  0
  7  5  1  0
  9  7  1  0
 10  9  1  0
 10 11  1  6
 12 11  1  0
 12 20  1  0
 13 14  1  0
 13 12  2  0
 14 15  1  0
 15 16  1  0
 15 20  2  0
 16 17  2  0
 17 18  1  0
 19 18  2  0
 20 19  1  0
 21 10  1  0
 22 21  2  0
 23 21  1  0
 24 23  1  0
 25 26  1  0
 24 25  1  1
 27 24  1  0
 27 28  1  0
 29 27  2  0
M  END
$$$$
