MWC.pdb
     RDKit          3D

 29 30  0  0  1  0  0  0  0  0999 V2000
   29.6684  -25.2607  -18.3997 C   0  0  0  0  0  0  0  0  0  0  0  0
   30.3317  -24.0168  -19.5398 S   0  0  0  0  0  0  0  0  0  0  0  0
   29.9381  -22.3639  -18.8757 C   0  0  0  0  0  0  0  0  0  0  0  0
   29.4957  -22.5239  -17.4251 C   0  0  0  0  0  0  0  0  0  0  0  0
   28.2210  -21.7165  -17.2855 C   0  0  2  0  0  0  0  0  0  0  0  0
   28.4597  -20.3195  -17.4983 N   0  0  0  0  0  0  0  0  0  0  0  0
   27.6190  -21.9658  -15.9334 C   0  0  0  0  0  0  0  0  0  0  0  0
   27.4084  -23.1364  -15.5318 O   0  0  0  0  0  0  0  0  0  0  0  0
   27.2671  -20.9122  -15.0642 N   0  0  0  0  0  0  0  0  0  0  0  0
   26.7037  -21.1640  -13.7198 C   0  0  1  0  0  0  0  0  0  0  0  0
   27.1771  -20.1319  -12.7708 C   0  0  0  0  0  0  0  0  0  0  0  0
   26.5757  -20.2545  -11.4414 C   0  0  0  0  0  0  0  0  0  0  0  0
   25.2519  -20.0511  -11.0555 C   0  0  0  0  0  0  0  0  0  0  0  0
   25.1173  -20.2275   -9.7305 N   0  0  0  0  0  0  0  0  0  0  0  0
   26.3062  -20.5444   -9.2009 C   0  0  0  0  0  0  0  0  0  0  0  0
   26.6545  -20.8130   -7.8930 C   0  0  0  0  0  0  0  0  0  0  0  0
   27.9746  -21.1127   -7.6377 C   0  0  0  0  0  0  0  0  0  0  0  0
   28.9068  -21.1415   -8.6540 C   0  0  0  0  0  0  0  0  0  0  0  0
   28.5265  -20.8680   -9.9527 C   0  0  0  0  0  0  0  0  0  0  0  0
   27.2258  -20.5675  -10.2397 C   0  0  0  0  0  0  0  0  0  0  0  0
   25.2418  -21.3097  -13.8740 C   0  0  0  0  0  0  0  0  0  0  0  0
   24.5692  -20.4186  -14.5216 O   0  0  0  0  0  0  0  0  0  0  0  0
   24.4362  -22.3626  -13.3824 N   0  0  0  0  0  0  0  0  0  0  0  0
   23.0879  -22.5267  -13.7943 C   0  0  1  0  0  0  0  0  0  0  0  0
   22.6448  -23.9651  -13.9116 C   0  0  0  0  0  0  0  0  0  0  0  0
   23.9276  -24.9740  -14.6938 S   0  0  0  0  0  0  0  0  0  0  0  0
   22.1646  -21.8695  -12.8547 C   0  0  0  0  0  0  0  0  0  0  0  0
   20.7975  -21.7905  -13.0061 O   0  0  0  0  0  0  0  0  0  0  0  0
   22.6117  -21.3059  -11.7878 O   0  0  0  0  0  0  0  0  0  0  0  0
  2  1  1  0
  3  2  1  0
  4  3  1  0
  5  4  1  0
  5  6  1  1
  7  8  2  0
  7  5  1  0
  9  7  1  0
 10  9  1  0
 10 11  1  1
 12 11  1  0
 12 20  1  0
 13 14  1  0
 13 12  2  0
 14 15  1  0
 15 16  1  0
 15 20  2  0
 16 17  2  0
 17 18  1  0
 19 18  2  0
 20 19  1  0
 21 10  1  0
 22 21  2  0
 23 21  1  0
 24 23  1  0
 25 26  1  0
 24 25  1  1
 27 24  1  0
 27 28  1  0
 29 27  2  0
M  END
$$$$
