MWC.pdb
     RDKit          3D

 29 30  0  0  1  0  0  0  0  0999 V2000
   26.5137  -18.1068  -17.4517 C   0  0  0  0  0  0  0  0  0  0  0  0
   28.0039  -18.6966  -18.2994 S   0  0  0  0  0  0  0  0  0  0  0  0
   28.9533  -19.7312  -17.1348 C   0  0  0  0  0  0  0  0  0  0  0  0
   28.0130  -20.1883  -16.0246 C   0  0  0  0  0  0  0  0  0  0  0  0
   28.8680  -20.9708  -15.0486 C   0  0  2  0  0  0  0  0  0  0  0  0
   29.3867  -22.1652  -15.6471 N   0  0  0  0  0  0  0  0  0  0  0  0
   28.0635  -21.2827  -13.8205 C   0  0  0  0  0  0  0  0  0  0  0  0
   27.3689  -22.3266  -13.7577 O   0  0  0  0  0  0  0  0  0  0  0  0
   28.0508  -20.4304  -12.6968 N   0  0  0  0  0  0  0  0  0  0  0  0
   27.2769  -20.7556  -11.4787 C   0  0  1  0  0  0  0  0  0  0  0  0
   27.7901  -19.9769  -10.3297 C   0  0  0  0  0  0  0  0  0  0  0  0
   26.9936  -20.1539   -9.1139 C   0  0  0  0  0  0  0  0  0  0  0  0
   25.6086  -20.2273   -8.9757 C   0  0  0  0  0  0  0  0  0  0  0  0
   25.2726  -20.3534   -7.6811 N   0  0  0  0  0  0  0  0  0  0  0  0
   26.3833  -20.3683   -6.9325 C   0  0  0  0  0  0  0  0  0  0  0  0
   26.5335  -20.4782   -5.5653 C   0  0  0  0  0  0  0  0  0  0  0  0
   27.8172  -20.4628   -5.0657 C   0  0  0  0  0  0  0  0  0  0  0  0
   28.9055  -20.3421   -5.9046 C   0  0  0  0  0  0  0  0  0  0  0  0
   28.7219  -20.2341   -7.2687 C   0  0  0  0  0  0  0  0  0  0  0  0
   27.4624  -20.2461   -7.7962 C   0  0  0  0  0  0  0  0  0  0  0  0
   25.8460  -20.5952  -11.8088 C   0  0  0  0  0  0  0  0  0  0  0  0
   25.3271  -19.4152  -11.8739 O   0  0  0  0  0  0  0  0  0  0  0  0
   24.9173  -21.6246  -12.0862 N   0  0  0  0  0  0  0  0  0  0  0  0
   23.6065  -21.3428  -12.5519 C   0  0  1  0  0  0  0  0  0  0  0  0
   23.0312  -22.3987  -13.4647 C   0  0  0  0  0  0  0  0  0  0  0  0
   23.3989  -24.0585  -12.8442 S   0  0  0  0  0  0  0  0  0  0  0  0
   22.6678  -21.1906  -11.4282 C   0  0  0  0  0  0  0  0  0  0  0  0
   22.9516  -21.4735  -10.1100 O   0  0  0  0  0  0  0  0  0  0  0  0
   21.4712  -20.7630  -11.6312 O   0  0  0  0  0  0  0  0  0  0  0  0
  2  1  1  0
  3  2  1  0
  4  3  1  0
  5  4  1  0
  5  6  1  6
  7  8  2  0
  7  5  1  0
  9  7  1  0
 10  9  1  0
 10 11  1  1
 12 11  1  0
 12 20  1  0
 13 14  1  0
 13 12  2  0
 14 15  1  0
 15 16  1  0
 15 20  2  0
 16 17  2  0
 17 18  1  0
 19 18  2  0
 20 19  1  0
 21 10  1  0
 22 21  2  0
 23 21  1  0
 24 23  1  0
 25 26  1  0
 24 25  1  6
 27 24  1  0
 27 28  1  0
 29 27  2  0
M  END
$$$$
