MWC.pdb
     RDKit          3D

 29 30  0  0  1  0  0  0  0  0999 V2000
   30.7089   -8.9481  -17.5202 C   0  0  0  0  0  0  0  0  0  0  0  0
   30.7423   -8.5534  -19.2894 S   0  0  0  0  0  0  0  0  0  0  0  0
   31.0105  -10.1017  -20.2163 C   0  0  0  0  0  0  0  0  0  0  0  0
   29.7720  -10.9767  -20.0552 C   0  0  0  0  0  0  0  0  0  0  0  0
   30.2026  -12.1591  -19.2110 C   0  0  2  0  0  0  0  0  0  0  0  0
   31.2349  -12.9153  -19.8564 N   0  0  0  0  0  0  0  0  0  0  0  0
   29.0084  -13.0164  -18.9085 C   0  0  0  0  0  0  0  0  0  0  0  0
   28.6027  -13.8660  -19.7390 O   0  0  0  0  0  0  0  0  0  0  0  0
   28.2973  -12.9092  -17.6951 N   0  0  0  0  0  0  0  0  0  0  0  0
   27.0747  -13.7000  -17.4339 C   0  0  1  0  0  0  0  0  0  0  0  0
   26.9869  -14.0365  -15.9956 C   0  0  0  0  0  0  0  0  0  0  0  0
   25.7418  -14.7202  -15.6404 C   0  0  0  0  0  0  0  0  0  0  0  0
   24.7760  -14.3535  -14.7047 C   0  0  0  0  0  0  0  0  0  0  0  0
   23.8000  -15.2753  -14.6523 N   0  0  0  0  0  0  0  0  0  0  0  0
   24.0692  -16.2582  -15.5217 C   0  0  0  0  0  0  0  0  0  0  0  0
   23.3617  -17.4062  -15.8139 C   0  0  0  0  0  0  0  0  0  0  0  0
   23.8885  -18.2496  -16.7672 C   0  0  0  0  0  0  0  0  0  0  0  0
   25.0770  -17.9526  -17.4011 C   0  0  0  0  0  0  0  0  0  0  0  0
   25.7613  -16.7955  -17.0863 C   0  0  0  0  0  0  0  0  0  0  0  0
   25.2664  -15.9380  -16.1460 C   0  0  0  0  0  0  0  0  0  0  0  0
   25.9372  -12.9601  -18.0177 C   0  0  0  0  0  0  0  0  0  0  0  0
   25.9119  -11.6707  -17.9670 O   0  0  0  0  0  0  0  0  0  0  0  0
   24.8097  -13.5110  -18.6693 N   0  0  0  0  0  0  0  0  0  0  0  0
   23.8303  -12.6915  -19.2887 C   0  0  1  0  0  0  0  0  0  0  0  0
   23.2241  -13.2842  -20.5378 C   0  0  0  0  0  0  0  0  0  0  0  0
   24.5068  -13.6882  -21.7488 S   0  0  0  0  0  0  0  0  0  0  0  0
   22.7186  -12.4078  -18.3663 C   0  0  0  0  0  0  0  0  0  0  0  0
   21.7175  -11.4869  -18.5855 O   0  0  0  0  0  0  0  0  0  0  0  0
   22.6205  -13.0393  -17.2493 O   0  0  0  0  0  0  0  0  0  0  0  0
  2  1  1  0
  3  2  1  0
  4  3  1  0
  5  4  1  0
  5  6  1  6
  7  8  2  0
  7  5  1  0
  9  7  1  0
 10  9  1  0
 10 11  1  1
 12 11  1  0
 12 20  1  0
 13 14  1  0
 13 12  2  0
 14 15  1  0
 15 16  1  0
 15 20  2  0
 16 17  2  0
 17 18  1  0
 19 18  2  0
 20 19  1  0
 21 10  1  0
 22 21  2  0
 23 21  1  0
 24 23  1  0
 25 26  1  0
 24 25  1  6
 27 24  1  0
 27 28  1  0
 29 27  2  0
M  END
$$$$
