AVA.pdb
     RDKit          3D

 18 17  0  0  1  0  0  0  0  0999 V2000
   24.6113  -20.7724   -8.9092 C   0  0  0  0  0  0  0  0  0  0  0  0
   25.9314  -20.0952   -9.0685 C   0  0  2  0  0  0  0  0  0  0  0  0
   26.4101  -20.3588  -10.4121 N   0  0  0  0  0  0  0  0  0  0  0  0
   26.9529  -20.4534   -8.1071 C   0  0  0  0  0  0  0  0  0  0  0  0
   27.7201  -21.4325   -8.3378 O   0  0  0  0  0  0  0  0  0  0  0  0
   27.6369  -17.7987   -4.9404 C   0  0  0  0  0  0  0  0  0  0  0  0
   28.7028  -18.8082   -5.2571 C   0  0  2  0  0  0  0  0  0  0  0  0
   29.6264  -18.1970   -6.2905 C   0  0  0  0  0  0  0  0  0  0  0  0
   28.0812  -20.0439   -5.8760 C   0  0  2  0  0  0  0  0  0  0  0  0
   27.1157  -19.7205   -6.8937 N   0  0  0  0  0  0  0  0  0  0  0  0
   27.4428  -20.8376   -4.7653 C   0  0  0  0  0  0  0  0  0  0  0  0
   26.2052  -20.7771   -4.5653 O   0  0  0  0  0  0  0  0  0  0  0  0
   28.5619  -23.4023   -2.2645 C   0  0  0  0  0  0  0  0  0  0  0  0
   27.6016  -22.4036   -2.8442 C   0  0  2  0  0  0  0  0  0  0  0  0
   28.2362  -21.6691   -3.9253 N   0  0  0  0  0  0  0  0  0  0  0  0
   27.1787  -21.4317   -1.7936 C   0  0  0  0  0  0  0  0  0  0  0  0
   26.0503  -21.6728   -1.0229 O   0  0  0  0  0  0  0  0  0  0  0  0
   27.8249  -20.3841   -1.5829 O   0  0  0  0  0  0  0  0  0  0  0  0
  2  1  1  1
  3  2  1  0
  4 10  1  0
  4  2  1  0
  5  4  2  0
  7  6  1  6
  7  9  1  0
  8  7  1  0
  9 11  1  0
  9 10  1  6
 11 15  1  0
 12 11  2  0
 14 16  1  0
 14 13  1  1
 15 14  1  0
 16 17  1  0
 18 16  2  0
M  END
$$$$
