AVA.pdb
     RDKit          3D

 18 17  0  0  1  0  0  0  0  0999 V2000
   21.4590   -8.2928  -18.7640 C   0  0  0  0  0  0  0  0  0  0  0  0
   20.7440   -9.0284  -17.6804 C   0  0  2  0  0  0  0  0  0  0  0  0
   19.6165   -9.7188  -18.2772 N   0  0  0  0  0  0  0  0  0  0  0  0
   20.2912   -8.2320  -16.5593 C   0  0  0  0  0  0  0  0  0  0  0  0
   19.1565   -7.6742  -16.5998 O   0  0  0  0  0  0  0  0  0  0  0  0
   19.9673   -9.0610  -12.8492 C   0  0  0  0  0  0  0  0  0  0  0  0
   20.9278   -7.9112  -12.9540 C   0  0  2  0  0  0  0  0  0  0  0  0
   20.5756   -6.9140  -11.8693 C   0  0  0  0  0  0  0  0  0  0  0  0
   20.7584   -7.2121  -14.2877 C   0  0  2  0  0  0  0  0  0  0  0  0
   21.1033   -8.0603  -15.3987 N   0  0  0  0  0  0  0  0  0  0  0  0
   21.6228   -5.9778  -14.2679 C   0  0  0  0  0  0  0  0  0  0  0  0
   22.8604   -6.0603  -14.4598 O   0  0  0  0  0  0  0  0  0  0  0  0
   22.3344   -3.4321  -15.6456 C   0  0  0  0  0  0  0  0  0  0  0  0
   21.8535   -3.5053  -14.2246 C   0  0  2  0  0  0  0  0  0  0  0  0
   21.0466   -4.6979  -14.0307 N   0  0  0  0  0  0  0  0  0  0  0  0
   21.0191   -2.3100  -13.9050 C   0  0  0  0  0  0  0  0  0  0  0  0
   21.6149   -1.1124  -13.5357 O   0  0  0  0  0  0  0  0  0  0  0  0
   19.7726   -2.3567  -13.9614 O   0  0  0  0  0  0  0  0  0  0  0  0
  2  1  1  6
  3  2  1  0
  4 10  1  0
  4  2  1  0
  5  4  2  0
  7  6  1  6
  7  9  1  0
  8  7  1  0
  9 11  1  0
  9 10  1  6
 11 15  1  0
 12 11  2  0
 14 16  1  0
 14 13  1  6
 15 14  1  0
 16 17  1  0
 18 16  2  0
M  END
$$$$
