AVA.pdb
     RDKit          3D

 18 17  0  0  1  0  0  0  0  0999 V2000
   23.4731  -12.4539  -20.4757 C   0  0  0  0  0  0  0  0  0  0  0  0
   23.8110  -11.0839  -19.9903 C   0  0  2  0  0  0  0  0  0  0  0  0
   25.2511  -10.9263  -20.0628 N   0  0  0  0  0  0  0  0  0  0  0  0
   23.3490  -10.7456  -18.6606 C   0  0  0  0  0  0  0  0  0  0  0  0
   22.1270  -10.8834  -18.3638 O   0  0  0  0  0  0  0  0  0  0  0  0
   26.1890  -10.0091  -15.5709 C   0  0  0  0  0  0  0  0  0  0  0  0
   24.7634  -10.3726  -15.2694 C   0  0  2  0  0  0  0  0  0  0  0  0
   24.6559  -11.8834  -15.2949 C   0  0  0  0  0  0  0  0  0  0  0  0
   23.8494   -9.8327  -16.3508 C   0  0  2  0  0  0  0  0  0  0  0  0
   24.2490  -10.2557  -17.6677 N   0  0  0  0  0  0  0  0  0  0  0  0
   23.8580   -8.3293  -16.2458 C   0  0  0  0  0  0  0  0  0  0  0  0
   24.8337   -7.6639  -16.6707 O   0  0  0  0  0  0  0  0  0  0  0  0
   21.7990   -5.5713  -16.4781 C   0  0  0  0  0  0  0  0  0  0  0  0
   22.8005   -6.1934  -15.5477 C   0  0  2  0  0  0  0  0  0  0  0  0
   22.7572   -7.6412  -15.6619 N   0  0  0  0  0  0  0  0  0  0  0  0
   22.4893   -5.8186  -14.1370 C   0  0  0  0  0  0  0  0  0  0  0  0
   22.7919   -4.5508  -13.6610 O   0  0  0  0  0  0  0  0  0  0  0  0
   21.9527   -6.6306  -13.3547 O   0  0  0  0  0  0  0  0  0  0  0  0
  2  1  1  1
  3  2  1  0
  4 10  1  0
  4  2  1  0
  5  4  2  0
  7  6  1  6
  7  9  1  0
  8  7  1  0
  9 11  1  0
  9 10  1  6
 11 15  1  0
 12 11  2  0
 14 16  1  0
 14 13  1  6
 15 14  1  0
 16 17  1  0
 18 16  2  0
M  END
$$$$
