AVA.pdb
     RDKit          3D

 18 17  0  0  1  0  0  0  0  0999 V2000
   18.9837  -10.7026  -19.1462 C   0  0  0  0  0  0  0  0  0  0  0  0
   19.8384  -11.5155  -18.2322 C   0  0  2  0  0  0  0  0  0  0  0  0
   19.2678  -12.8467  -18.1525 N   0  0  0  0  0  0  0  0  0  0  0  0
   20.0307  -10.9859  -16.8985 C   0  0  0  0  0  0  0  0  0  0  0  0
   19.1234  -11.1255  -16.0280 O   0  0  0  0  0  0  0  0  0  0  0  0
   23.8730  -10.0966  -15.4315 C   0  0  0  0  0  0  0  0  0  0  0  0
   22.6624  -10.1905  -14.5477 C   0  0  2  0  0  0  0  0  0  0  0  0
   22.4110  -11.6568  -14.2618 C   0  0  0  0  0  0  0  0  0  0  0  0
   21.4457   -9.6531  -15.2737 C   0  0  2  0  0  0  0  0  0  0  0  0
   21.2315  -10.3036  -16.5401 N   0  0  0  0  0  0  0  0  0  0  0  0
   21.6444   -8.1709  -15.4600 C   0  0  0  0  0  0  0  0  0  0  0  0
   22.4768   -7.7367  -16.2930 O   0  0  0  0  0  0  0  0  0  0  0  0
   19.8210   -5.0686  -14.8016 C   0  0  0  0  0  0  0  0  0  0  0  0
   21.1217   -5.8166  -14.8664 C   0  0  2  0  0  0  0  0  0  0  0  0
   20.8890   -7.2402  -14.6922 N   0  0  0  0  0  0  0  0  0  0  0  0
   22.0353   -5.3485  -13.7832 C   0  0  0  0  0  0  0  0  0  0  0  0
   22.7465   -4.1652  -13.9227 O   0  0  0  0  0  0  0  0  0  0  0  0
   22.1819   -6.0051  -12.7312 O   0  0  0  0  0  0  0  0  0  0  0  0
  2  1  1  6
  3  2  1  0
  4 10  1  0
  4  2  1  0
  5  4  2  0
  7  6  1  6
  7  9  1  0
  8  7  1  0
  9 11  1  0
  9 10  1  6
 11 15  1  0
 12 11  2  0
 14 16  1  0
 14 13  1  1
 15 14  1  0
 16 17  1  0
 18 16  2  0
M  END
$$$$
