AVA.pdb
     RDKit          3D

 18 17  0  0  1  0  0  0  0  0999 V2000
   20.3801  -11.9118  -17.4581 C   0  0  0  0  0  0  0  0  0  0  0  0
   19.1906  -11.5918  -16.6159 C   0  0  2  0  0  0  0  0  0  0  0  0
   18.0153  -12.1175  -17.2840 N   0  0  0  0  0  0  0  0  0  0  0  0
   18.9888  -10.1932  -16.3011 C   0  0  0  0  0  0  0  0  0  0  0  0
   18.5114   -9.4128  -17.1749 O   0  0  0  0  0  0  0  0  0  0  0  0
   18.8163   -8.9738  -12.2591 C   0  0  0  0  0  0  0  0  0  0  0  0
   18.2285   -8.1837  -13.3930 C   0  0  2  0  0  0  0  0  0  0  0  0
   16.8859   -8.7956  -13.7361 C   0  0  0  0  0  0  0  0  0  0  0  0
   19.1095   -8.3013  -14.6203 C   0  0  2  0  0  0  0  0  0  0  0  0
   19.3190   -9.6698  -15.0154 N   0  0  0  0  0  0  0  0  0  0  0  0
   20.4207   -7.6282  -14.3059 C   0  0  0  0  0  0  0  0  0  0  0  0
   21.3024   -8.2241  -13.6405 O   0  0  0  0  0  0  0  0  0  0  0  0
   22.2762   -4.6695  -15.5626 C   0  0  0  0  0  0  0  0  0  0  0  0
   21.9809   -5.7076  -14.5182 C   0  0  2  0  0  0  0  0  0  0  0  0
   20.6783   -6.3040  -14.7602 N   0  0  0  0  0  0  0  0  0  0  0  0
   21.9726   -5.0818  -13.1634 C   0  0  0  0  0  0  0  0  0  0  0  0
   20.7736   -4.7867  -12.5302 O   0  0  0  0  0  0  0  0  0  0  0  0
   23.0367   -4.8097  -12.5693 O   0  0  0  0  0  0  0  0  0  0  0  0
  2  1  1  6
  3  2  1  0
  4 10  1  0
  4  2  1  0
  5  4  2  0
  7  6  1  1
  7  9  1  0
  8  7  1  0
  9 11  1  0
  9 10  1  1
 11 15  1  0
 12 11  2  0
 14 16  1  0
 14 13  1  6
 15 14  1  0
 16 17  1  0
 18 16  2  0
M  END
$$$$
