AVA.pdb
     RDKit          3D

 18 17  0  0  1  0  0  0  0  0999 V2000
   16.4801  -11.9545  -14.9838 C   0  0  0  0  0  0  0  0  0  0  0  0
   17.1752  -10.6361  -14.9108 C   0  0  2  0  0  0  0  0  0  0  0  0
   18.5284  -10.8693  -14.4433 N   0  0  0  0  0  0  0  0  0  0  0  0
   16.5423   -9.6253  -14.0899 C   0  0  0  0  0  0  0  0  0  0  0  0
   15.3413   -9.2950  -14.3109 O   0  0  0  0  0  0  0  0  0  0  0  0
   16.4540   -9.1760  -10.1289 C   0  0  0  0  0  0  0  0  0  0  0  0
   17.1305   -8.0040  -10.7802 C   0  0  2  0  0  0  0  0  0  0  0  0
   16.6473   -6.7469  -10.0866 C   0  0  0  0  0  0  0  0  0  0  0  0
   16.7181   -7.9084  -12.2352 C   0  0  2  0  0  0  0  0  0  0  0  0
   17.2490   -8.9871  -13.0273 N   0  0  0  0  0  0  0  0  0  0  0  0
   17.1937   -6.5768  -12.7568 C   0  0  0  0  0  0  0  0  0  0  0  0
   18.4187   -6.3067  -12.7990 O   0  0  0  0  0  0  0  0  0  0  0  0
   15.8220   -3.9233  -14.8989 C   0  0  0  0  0  0  0  0  0  0  0  0
   16.7434   -4.3682  -13.7995 C   0  0  2  0  0  0  0  0  0  0  0  0
   16.2582   -5.6044  -13.2102 N   0  0  0  0  0  0  0  0  0  0  0  0
   16.8071   -3.3264  -12.7329 C   0  0  0  0  0  0  0  0  0  0  0  0
   17.7027   -2.2709  -12.8306 O   0  0  0  0  0  0  0  0  0  0  0  0
   16.0615   -3.3775  -11.7325 O   0  0  0  0  0  0  0  0  0  0  0  0
  2  1  1  1
  3  2  1  0
  4 10  1  0
  4  2  1  0
  5  4  2  0
  7  6  1  1
  7  9  1  0
  8  7  1  0
  9 11  1  0
  9 10  1  6
 11 15  1  0
 12 11  2  0
 14 16  1  0
 14 13  1  6
 15 14  1  0
 16 17  1  0
 18 16  2  0
M  END
$$$$
