AVA.pdb
     RDKit          3D

 18 17  0  0  1  0  0  0  0  0999 V2000
   21.6577  -12.5000  -16.1187 C   0  0  0  0  0  0  0  0  0  0  0  0
   20.3486  -11.8904  -16.4944 C   0  0  2  0  0  0  0  0  0  0  0  0
   19.7684  -12.6943  -17.5532 N   0  0  0  0  0  0  0  0  0  0  0  0
   20.3841  -10.5010  -16.8997 C   0  0  0  0  0  0  0  0  0  0  0  0
   20.8305  -10.1886  -18.0415 O   0  0  0  0  0  0  0  0  0  0  0  0
   17.6842   -7.8999  -15.2418 C   0  0  0  0  0  0  0  0  0  0  0  0
   18.4424   -7.5617  -16.4932 C   0  0  2  0  0  0  0  0  0  0  0  0
   17.7783   -8.2855  -17.6463 C   0  0  0  0  0  0  0  0  0  0  0  0
   19.8652   -8.0734  -16.3933 C   0  0  2  0  0  0  0  0  0  0  0  0
   19.9227   -9.4660  -16.0326 N   0  0  0  0  0  0  0  0  0  0  0  0
   20.5834   -7.2263  -15.3745 C   0  0  0  0  0  0  0  0  0  0  0  0
   20.4600   -7.4593  -14.1474 O   0  0  0  0  0  0  0  0  0  0  0  0
   23.3163   -4.6812  -15.4758 C   0  0  0  0  0  0  0  0  0  0  0  0
   22.2051   -5.4345  -14.8023 C   0  0  2  0  0  0  0  0  0  0  0  0
   21.4138   -6.1476  -15.7904 N   0  0  0  0  0  0  0  0  0  0  0  0
   21.3127   -4.4859  -14.0736 C   0  0  0  0  0  0  0  0  0  0  0  0
   21.6388   -4.0502  -12.7971 O   0  0  0  0  0  0  0  0  0  0  0  0
   20.2574   -4.0632  -14.5903 O   0  0  0  0  0  0  0  0  0  0  0  0
  2  1  1  6
  3  2  1  0
  4 10  1  0
  4  2  1  0
  5  4  2  0
  7  6  1  1
  7  9  1  0
  8  7  1  0
  9 11  1  0
  9 10  1  1
 11 15  1  0
 12 11  2  0
 14 16  1  0
 14 13  1  6
 15 14  1  0
 16 17  1  0
 18 16  2  0
M  END
$$$$
