AVA.pdb
     RDKit          3D

 18 17  0  0  1  0  0  0  0  0999 V2000
   22.4709  -21.0715  -11.3773 C   0  0  0  0  0  0  0  0  0  0  0  0
   23.9255  -21.1868  -11.0651 C   0  0  2  0  0  0  0  0  0  0  0  0
   24.0915  -21.0090   -9.6352 N   0  0  0  0  0  0  0  0  0  0  0  0
   24.8046  -20.2817  -11.7751 C   0  0  0  0  0  0  0  0  0  0  0  0
   25.1810  -19.2069  -11.2242 O   0  0  0  0  0  0  0  0  0  0  0  0
   27.1507  -21.6899  -14.9078 C   0  0  0  0  0  0  0  0  0  0  0  0
   27.4093  -20.3585  -14.2627 C   0  0  2  0  0  0  0  0  0  0  0  0
   28.1884  -20.6060  -12.9874 C   0  0  0  0  0  0  0  0  0  0  0  0
   26.0981  -19.7048  -13.8758 C   0  0  2  0  0  0  0  0  0  0  0  0
   25.2605  -20.5770  -13.0946 N   0  0  0  0  0  0  0  0  0  0  0  0
   25.4024  -19.2918  -15.1472 C   0  0  0  0  0  0  0  0  0  0  0  0
   24.6536  -20.0940  -15.7564 O   0  0  0  0  0  0  0  0  0  0  0  0
   24.9323  -16.1008  -17.0547 C   0  0  0  0  0  0  0  0  0  0  0  0
   24.8603  -17.5899  -16.8728 C   0  0  2  0  0  0  0  0  0  0  0  0
   25.5851  -17.9831  -15.6765 N   0  0  0  0  0  0  0  0  0  0  0  0
   25.4722  -18.2785  -18.0469 C   0  0  0  0  0  0  0  0  0  0  0  0
   24.7159  -18.5500  -19.1782 O   0  0  0  0  0  0  0  0  0  0  0  0
   26.6717  -18.6255  -18.0412 O   0  0  0  0  0  0  0  0  0  0  0  0
  2  1  1  6
  3  2  1  0
  4 10  1  0
  4  2  1  0
  5  4  2  0
  7  6  1  1
  7  9  1  0
  8  7  1  0
  9 11  1  0
  9 10  1  6
 11 15  1  0
 12 11  2  0
 14 16  1  0
 14 13  1  6
 15 14  1  0
 16 17  1  0
 18 16  2  0
M  END
$$$$
