AVA.pdb
     RDKit          3D

 18 17  0  0  1  0  0  0  0  0999 V2000
   22.9020  -18.7453  -14.8620 C   0  0  0  0  0  0  0  0  0  0  0  0
   23.8729  -19.7889  -15.3038 C   0  0  2  0  0  0  0  0  0  0  0  0
   23.1757  -20.7020  -16.1893 N   0  0  0  0  0  0  0  0  0  0  0  0
   24.5306  -20.5353  -14.2519 C   0  0  0  0  0  0  0  0  0  0  0  0
   23.9208  -21.4812  -13.6742 O   0  0  0  0  0  0  0  0  0  0  0  0
   28.7406  -21.6569  -11.8922 C   0  0  0  0  0  0  0  0  0  0  0  0
   28.0679  -20.8375  -12.9559 C   0  0  2  0  0  0  0  0  0  0  0  0
   28.4919  -19.3956  -12.7664 C   0  0  0  0  0  0  0  0  0  0  0  0
   26.5636  -20.8961  -12.7838 C   0  0  2  0  0  0  0  0  0  0  0  0
   25.8636  -20.2254  -13.8482 N   0  0  0  0  0  0  0  0  0  0  0  0
   26.2331  -20.2751  -11.4510 C   0  0  0  0  0  0  0  0  0  0  0  0
   26.2580  -19.0290  -11.3020 O   0  0  0  0  0  0  0  0  0  0  0  0
   24.9028  -21.4829   -8.1606 C   0  0  0  0  0  0  0  0  0  0  0  0
   25.5267  -20.4707   -9.0781 C   0  0  2  0  0  0  0  0  0  0  0  0
   25.8872  -21.0946  -10.3397 N   0  0  0  0  0  0  0  0  0  0  0  0
   26.7615  -19.9093   -8.4558 C   0  0  0  0  0  0  0  0  0  0  0  0
   26.6867  -18.8218   -7.5971 O   0  0  0  0  0  0  0  0  0  0  0  0
   27.8855  -20.4003   -8.6903 O   0  0  0  0  0  0  0  0  0  0  0  0
  2  1  1  1
  3  2  1  0
  4 10  1  0
  4  2  1  0
  5  4  2  0
  7  6  1  1
  7  9  1  0
  8  7  1  0
  9 11  1  0
  9 10  1  6
 11 15  1  0
 12 11  2  0
 14 16  1  0
 14 13  1  1
 15 14  1  0
 16 17  1  0
 18 16  2  0
M  END
$$$$
