AVA.pdb
     RDKit          3D

 18 17  0  0  1  0  0  0  0  0999 V2000
   42.9662   -9.6851   -4.8211 C   0  0  0  0  0  0  0  0  0  0  0  0
   42.7796  -10.4375   -6.0961 C   0  0  2  0  0  0  0  0  0  0  0  0
   44.0534  -11.0310   -6.4556 N   0  0  0  0  0  0  0  0  0  0  0  0
   42.2611   -9.6790   -7.2150 C   0  0  0  0  0  0  0  0  0  0  0  0
   43.0590   -9.1556   -8.0456 O   0  0  0  0  0  0  0  0  0  0  0  0
   37.9519   -9.1776   -7.7410 C   0  0  0  0  0  0  0  0  0  0  0  0
   38.9225   -9.2091   -8.8866 C   0  0  2  0  0  0  0  0  0  0  0  0
   39.1035  -10.6552   -9.2998 C   0  0  0  0  0  0  0  0  0  0  0  0
   40.2739   -8.6913   -8.4374 C   0  0  2  0  0  0  0  0  0  0  0  0
   40.8574   -9.5066   -7.4042 N   0  0  0  0  0  0  0  0  0  0  0  0
   40.0827   -7.2753   -7.9580 C   0  0  0  0  0  0  0  0  0  0  0  0
   39.6437   -7.0440   -6.8052 O   0  0  0  0  0  0  0  0  0  0  0  0
   41.1829   -3.8989   -9.0514 C   0  0  0  0  0  0  0  0  0  0  0  0
   40.2665   -4.8225   -8.3011 C   0  0  2  0  0  0  0  0  0  0  0  0
   40.3981   -6.1778   -8.8078 N   0  0  0  0  0  0  0  0  0  0  0  0
   38.8494   -4.3868   -8.4722 C   0  0  0  0  0  0  0  0  0  0  0  0
   38.3517   -3.3083   -7.7549 O   0  0  0  0  0  0  0  0  0  0  0  0
   38.0810   -4.9776   -9.2596 O   0  0  0  0  0  0  0  0  0  0  0  0
  2  1  1  1
  3  2  1  0
  4 10  1  0
  4  2  1  0
  5  4  2  0
  7  6  1  1
  7  9  1  0
  8  7  1  0
  9 11  1  0
  9 10  1  1
 11 15  1  0
 12 11  2  0
 14 16  1  0
 14 13  1  6
 15 14  1  0
 16 17  1  0
 18 16  2  0
M  END
$$$$
