AVA.pdb
     RDKit          3D

 18 17  0  0  1  0  0  0  0  0999 V2000
   21.4097  -11.2350  -19.9685 C   0  0  0  0  0  0  0  0  0  0  0  0
   22.2859  -11.8394  -18.9228 C   0  0  2  0  0  0  0  0  0  0  0  0
   21.9667  -13.2516  -18.8335 N   0  0  0  0  0  0  0  0  0  0  0  0
   22.2174  -11.2391  -17.6072 C   0  0  0  0  0  0  0  0  0  0  0  0
   21.2884  -11.5655  -16.8130 O   0  0  0  0  0  0  0  0  0  0  0  0
   25.6733   -9.4307  -16.0423 C   0  0  0  0  0  0  0  0  0  0  0  0
   24.5515   -9.9237  -15.1740 C   0  0  2  0  0  0  0  0  0  0  0  0
   24.7253  -11.4182  -14.9979 C   0  0  0  0  0  0  0  0  0  0  0  0
   23.2217   -9.6983  -15.8648 C   0  0  2  0  0  0  0  0  0  0  0  0
   23.1830  -10.2785  -17.1818 N   0  0  0  0  0  0  0  0  0  0  0  0
   22.9877   -8.2109  -15.9279 C   0  0  0  0  0  0  0  0  0  0  0  0
   23.5610   -7.5093  -16.7966 O   0  0  0  0  0  0  0  0  0  0  0  0
   20.4350   -5.8321  -15.0878 C   0  0  0  0  0  0  0  0  0  0  0  0
   21.9044   -6.1431  -15.0802 C   0  0  2  0  0  0  0  0  0  0  0  0
   22.1111   -7.5791  -15.0013 N   0  0  0  0  0  0  0  0  0  0  0  0
   22.5562   -5.5037  -13.8998 C   0  0  0  0  0  0  0  0  0  0  0  0
   22.9518   -4.1744  -13.9466 O   0  0  0  0  0  0  0  0  0  0  0  0
   22.7607   -6.1439  -12.8474 O   0  0  0  0  0  0  0  0  0  0  0  0
  2  1  1  6
  3  2  1  0
  4 10  1  0
  4  2  1  0
  5  4  2  0
  7  6  1  6
  7  9  1  0
  8  7  1  0
  9 11  1  0
  9 10  1  6
 11 15  1  0
 12 11  2  0
 14 16  1  0
 14 13  1  1
 15 14  1  0
 16 17  1  0
 18 16  2  0
M  END
$$$$
