AVA.pdb
     RDKit          3D

 18 17  0  0  1  0  0  0  0  0999 V2000
   18.3935  -10.6006  -19.0285 C   0  0  0  0  0  0  0  0  0  0  0  0
   19.3917  -11.4855  -18.3598 C   0  0  2  0  0  0  0  0  0  0  0  0
   18.8004  -12.8029  -18.2225 N   0  0  0  0  0  0  0  0  0  0  0  0
   19.8849  -11.0353  -17.0752 C   0  0  0  0  0  0  0  0  0  0  0  0
   19.1063  -10.9983  -16.0788 O   0  0  0  0  0  0  0  0  0  0  0  0
   24.0540  -10.7479  -16.3693 C   0  0  0  0  0  0  0  0  0  0  0  0
   23.0515  -10.7623  -15.2511 C   0  0  2  0  0  0  0  0  0  0  0  0
   22.7100  -12.2080  -14.9545 C   0  0  0  0  0  0  0  0  0  0  0  0
   21.7747  -10.0734  -15.6888 C   0  0  2  0  0  0  0  0  0  0  0  0
   21.2420  -10.6284  -16.9057 N   0  0  0  0  0  0  0  0  0  0  0  0
   22.0830   -8.6080  -15.8586 C   0  0  0  0  0  0  0  0  0  0  0  0
   22.4111   -8.1490  -16.9798 O   0  0  0  0  0  0  0  0  0  0  0  0
   21.2849   -5.7278  -15.9189 C   0  0  0  0  0  0  0  0  0  0  0  0
   22.2701   -6.3066  -14.9442 C   0  0  2  0  0  0  0  0  0  0  0  0
   22.0062   -7.7217  -14.7474 N   0  0  0  0  0  0  0  0  0  0  0  0
   22.1536   -5.6140  -13.6274 C   0  0  0  0  0  0  0  0  0  0  0  0
   22.6171   -4.3155  -13.4700 O   0  0  0  0  0  0  0  0  0  0  0  0
   21.6397   -6.1812  -12.6407 O   0  0  0  0  0  0  0  0  0  0  0  0
  2  1  1  1
  3  2  1  0
  4 10  1  0
  4  2  1  0
  5  4  2  0
  7  6  1  6
  7  9  1  0
  8  7  1  0
  9 11  1  0
  9 10  1  6
 11 15  1  0
 12 11  2  0
 14 16  1  0
 14 13  1  6
 15 14  1  0
 16 17  1  0
 18 16  2  0
M  END
$$$$
