AVA.pdb
     RDKit          3D

 18 17  0  0  1  0  0  0  0  0999 V2000
   14.2596   -5.5628   -9.0731 C   0  0  0  0  0  0  0  0  0  0  0  0
   14.9060   -6.8153   -8.5833 C   0  0  2  0  0  0  0  0  0  0  0  0
   15.4451   -6.5534   -7.2624 N   0  0  0  0  0  0  0  0  0  0  0  0
   15.9387   -7.3742   -9.4303 C   0  0  0  0  0  0  0  0  0  0  0  0
   17.1504   -7.0702   -9.2309 O   0  0  0  0  0  0  0  0  0  0  0  0
   14.9172  -10.6562  -11.7025 C   0  0  0  0  0  0  0  0  0  0  0  0
   16.3797  -10.3592  -11.5335 C   0  0  2  0  0  0  0  0  0  0  0  0
   16.8428  -11.0279  -10.2555 C   0  0  0  0  0  0  0  0  0  0  0  0
   16.5917   -8.8678  -11.3697 C   0  0  2  0  0  0  0  0  0  0  0  0
   15.6180   -8.2686  -10.4948 N   0  0  0  0  0  0  0  0  0  0  0  0
   16.5333   -8.2461  -12.7414 C   0  0  0  0  0  0  0  0  0  0  0  0
   15.4546   -8.2101  -13.3821 O   0  0  0  0  0  0  0  0  0  0  0  0
   16.6940   -5.9055  -14.6219 C   0  0  0  0  0  0  0  0  0  0  0  0
   17.6197   -7.0878  -14.6508 C   0  0  2  0  0  0  0  0  0  0  0  0
   17.7033   -7.6897  -13.3311 N   0  0  0  0  0  0  0  0  0  0  0  0
   18.9874   -6.6563  -15.0637 C   0  0  0  0  0  0  0  0  0  0  0  0
   19.2134   -6.1511  -16.3362 O   0  0  0  0  0  0  0  0  0  0  0  0
   19.9563   -6.7384  -14.2802 O   0  0  0  0  0  0  0  0  0  0  0  0
  2  1  1  6
  3  2  1  0
  4 10  1  0
  4  2  1  0
  5  4  2  0
  7  6  1  1
  7  9  1  0
  8  7  1  0
  9 11  1  0
  9 10  1  1
 11 15  1  0
 12 11  2  0
 14 16  1  0
 14 13  1  1
 15 14  1  0
 16 17  1  0
 18 16  2  0
M  END
$$$$
