LYT.pdb
     RDKit          3D

 28 28  0  0  1  0  0  0  0  0999 V2000
   26.5138  -11.4410  -17.5908 C   0  0  0  0  0  0  0  0  0  0  0  0
   25.3346  -12.2148  -17.0344 C   0  0  1  0  0  0  0  0  0  0  0  0
   25.6509  -12.6140  -15.6326 C   0  0  0  0  0  0  0  0  0  0  0  0
   24.1158  -11.3314  -17.1356 C   0  0  0  0  0  0  0  0  0  0  0  0
   22.8793  -11.9716  -16.6019 C   0  0  2  0  0  0  0  0  0  0  0  0
   22.5728  -13.1222  -17.4254 N   0  0  0  0  0  0  0  0  0  0  0  0
   21.7812  -10.9435  -16.7035 C   0  0  0  0  0  0  0  0  0  0  0  0
   21.0959  -10.8380  -17.7415 O   0  0  0  0  0  0  0  0  0  0  0  0
   15.8984  -13.9569  -15.8653 O   0  0  0  0  0  0  0  0  0  0  0  0
   16.7066  -12.8580  -15.6158 C   0  0  0  0  0  0  0  0  0  0  0  0
   17.6885  -12.9596  -14.6842 C   0  0  0  0  0  0  0  0  0  0  0  0
   18.4978  -11.8917  -14.4202 C   0  0  0  0  0  0  0  0  0  0  0  0
   18.3938  -10.6616  -15.0526 C   0  0  0  0  0  0  0  0  0  0  0  0
   19.2536   -9.5079  -14.7905 C   0  0  0  0  0  0  0  0  0  0  0  0
   20.3089   -9.2021  -15.7278 C   0  0  2  0  0  0  0  0  0  0  0  0
   21.4670  -10.0631  -15.6668 N   0  0  0  0  0  0  0  0  0  0  0  0
   20.8416   -7.8339  -15.6631 C   0  0  0  0  0  0  0  0  0  0  0  0
   21.5653   -7.5455  -14.6321 O   0  0  0  0  0  0  0  0  0  0  0  0
   17.3666  -10.5975  -16.0084 C   0  0  0  0  0  0  0  0  0  0  0  0
   16.5519  -11.6737  -16.2736 C   0  0  0  0  0  0  0  0  0  0  0  0
   22.6685   -5.8340  -18.4551 C   0  0  0  0  0  0  0  0  0  0  0  0
   21.6657   -4.9112  -17.7868 C   0  0  1  0  0  0  0  0  0  0  0  0
   20.5114   -4.8851  -18.5670 O   0  0  0  0  0  0  0  0  0  0  0  0
   21.3272   -5.5506  -16.4371 C   0  0  2  0  0  0  0  0  0  0  0  0
   20.6404   -6.8057  -16.6359 N   0  0  0  0  0  0  0  0  0  0  0  0
   20.5739   -4.6534  -15.5852 C   0  0  0  0  0  0  0  0  0  0  0  0
   21.0284   -3.4677  -15.1240 O   0  0  0  0  0  0  0  0  0  0  0  0
   19.3954   -5.0046  -15.2427 O   0  0  0  0  0  0  0  0  0  0  0  0
  2  1  1  1
  3  2  1  0
  4  2  1  0
  4  5  1  0
  5  6  1  6
  7  5  1  0
  7  8  2  0
  9 10  1  0
 10 11  2  0
 10 20  1  0
 11 12  1  0
 12 13  2  0
 13 14  1  0
 15 14  1  1
 15 16  1  0
 15 17  1  0
 16  7  1  0
 17 25  1  0
 18 17  2  0
 19 13  1  0
 20 19  2  0
 22 24  1  0
 22 21  1  6
 22 23  1  0
 24 26  1  0
 24 25  1  6
 26 28  2  0
 26 27  1  0
M  END
$$$$
