LYT.pdb
     RDKit          3D

 28 28  0  0  1  0  0  0  0  0999 V2000
   31.7126  -22.0152  -10.0385 C   0  0  0  0  0  0  0  0  0  0  0  0
   30.8749  -21.5673  -11.2202 C   0  0  1  0  0  0  0  0  0  0  0  0
   31.3425  -22.2972  -12.4340 C   0  0  0  0  0  0  0  0  0  0  0  0
   29.4286  -21.8395  -10.8884 C   0  0  0  0  0  0  0  0  0  0  0  0
   28.4878  -21.4117  -11.9634 C   0  0  2  0  0  0  0  0  0  0  0  0
   28.7790  -20.0336  -12.2985 N   0  0  0  0  0  0  0  0  0  0  0  0
   27.0968  -21.5329  -11.3946 C   0  0  0  0  0  0  0  0  0  0  0  0
   26.6766  -22.6231  -10.9553 O   0  0  0  0  0  0  0  0  0  0  0  0
   27.9441  -20.3470   -4.9857 O   0  0  0  0  0  0  0  0  0  0  0  0
   27.1317  -20.2138   -6.1015 C   0  0  0  0  0  0  0  0  0  0  0  0
   27.2807  -19.1261   -6.8995 C   0  0  0  0  0  0  0  0  0  0  0  0
   26.4928  -18.9718   -8.0044 C   0  0  0  0  0  0  0  0  0  0  0  0
   25.5129  -19.8732   -8.3933 C   0  0  0  0  0  0  0  0  0  0  0  0
   24.6635  -19.7312   -9.5753 C   0  0  0  0  0  0  0  0  0  0  0  0
   24.9074  -20.5884  -10.7118 C   0  0  2  0  0  0  0  0  0  0  0  0
   26.2090  -20.4581  -11.3241 N   0  0  0  0  0  0  0  0  0  0  0  0
   23.9470  -20.4684  -11.8177 C   0  0  0  0  0  0  0  0  0  0  0  0
   24.1144  -19.4698  -12.6205 O   0  0  0  0  0  0  0  0  0  0  0  0
   25.3903  -20.9837   -7.5420 C   0  0  0  0  0  0  0  0  0  0  0  0
   26.1843  -21.1382   -6.4293 C   0  0  0  0  0  0  0  0  0  0  0  0
   23.3174  -22.4431  -14.7077 C   0  0  0  0  0  0  0  0  0  0  0  0
   21.9163  -22.2369  -14.1615 C   0  0  1  0  0  0  0  0  0  0  0  0
   21.5644  -23.3685  -13.4283 O   0  0  0  0  0  0  0  0  0  0  0  0
   21.9998  -21.0435  -13.2056 C   0  0  2  0  0  0  0  0  0  0  0  0
   22.8595  -21.3564  -12.0878 N   0  0  0  0  0  0  0  0  0  0  0  0
   20.6899  -20.6036  -12.7710 C   0  0  0  0  0  0  0  0  0  0  0  0
   19.7212  -20.1432  -13.5925 O   0  0  0  0  0  0  0  0  0  0  0  0
   20.4277  -20.6523  -11.5227 O   0  0  0  0  0  0  0  0  0  0  0  0
  2  1  1  1
  3  2  1  0
  4  2  1  0
  4  5  1  0
  5  6  1  1
  7  5  1  0
  7  8  2  0
  9 10  1  0
 10 11  2  0
 10 20  1  0
 11 12  1  0
 12 13  2  0
 13 14  1  0
 15 14  1  1
 15 16  1  0
 15 17  1  0
 16  7  1  0
 17 25  1  0
 18 17  2  0
 19 13  1  0
 20 19  2  0
 22 24  1  0
 22 21  1  1
 22 23  1  0
 24 26  1  0
 24 25  1  1
 26 28  2  0
 26 27  1  0
M  END
$$$$
