LYT.pdb
     RDKit          3D

 28 28  0  0  1  0  0  0  0  0999 V2000
   46.6221   -9.0927   -4.2240 C   0  0  0  0  0  0  0  0  0  0  0  0
   45.9064  -10.3518   -4.6724 C   0  0  1  0  0  0  0  0  0  0  0  0
   45.1645  -10.9136   -3.5068 C   0  0  0  0  0  0  0  0  0  0  0  0
   45.0042   -9.9829   -5.8239 C   0  0  0  0  0  0  0  0  0  0  0  0
   44.0948  -11.0902   -6.2369 C   0  0  2  0  0  0  0  0  0  0  0  0
   44.8327  -11.9824   -7.1062 N   0  0  0  0  0  0  0  0  0  0  0  0
   42.9501  -10.4542   -6.9840 C   0  0  0  0  0  0  0  0  0  0  0  0
   43.0720  -10.1211   -8.1808 O   0  0  0  0  0  0  0  0  0  0  0  0
   35.1823   -6.1409   -7.9674 O   0  0  0  0  0  0  0  0  0  0  0  0
   36.1938   -7.0408   -7.6673 C   0  0  0  0  0  0  0  0  0  0  0  0
   36.5770   -7.1948   -6.3744 C   0  0  0  0  0  0  0  0  0  0  0  0
   37.5708   -8.0747   -6.0528 C   0  0  0  0  0  0  0  0  0  0  0  0
   38.2477   -8.8558   -6.9778 C   0  0  0  0  0  0  0  0  0  0  0  0
   39.3091   -9.8086   -6.6549 C   0  0  0  0  0  0  0  0  0  0  0  0
   40.6486   -9.5402   -7.1235 C   0  0  2  0  0  0  0  0  0  0  0  0
   41.7080  -10.2024   -6.3989 N   0  0  0  0  0  0  0  0  0  0  0  0
   41.0368   -8.1233   -7.1651 C   0  0  0  0  0  0  0  0  0  0  0  0
   41.4248   -7.5991   -6.0496 O   0  0  0  0  0  0  0  0  0  0  0  0
   37.8221   -8.6669   -8.3030 C   0  0  0  0  0  0  0  0  0  0  0  0
   36.8211   -7.7803   -8.6259 C   0  0  0  0  0  0  0  0  0  0  0  0
   42.6532   -4.0023   -9.0658 C   0  0  0  0  0  0  0  0  0  0  0  0
   42.2577   -5.4391   -9.3534 C   0  0  1  0  0  0  0  0  0  0  0  0
   43.4196   -6.2059   -9.4160 O   0  0  0  0  0  0  0  0  0  0  0  0
   41.4306   -5.9052   -8.1519 C   0  0  2  0  0  0  0  0  0  0  0  0
   41.0328   -7.2833   -8.3221 N   0  0  0  0  0  0  0  0  0  0  0  0
   40.2928   -5.0423   -7.9087 C   0  0  0  0  0  0  0  0  0  0  0  0
   40.2281   -4.1116   -6.9315 O   0  0  0  0  0  0  0  0  0  0  0  0
   39.2757   -5.1671   -8.6698 O   0  0  0  0  0  0  0  0  0  0  0  0
  2  1  1  1
  3  2  1  0
  4  2  1  0
  4  5  1  0
  5  6  1  6
  7  5  1  0
  7  8  2  0
  9 10  1  0
 10 11  2  0
 10 20  1  0
 11 12  1  0
 12 13  2  0
 13 14  1  0
 15 14  1  1
 15 16  1  0
 15 17  1  0
 16  7  1  0
 17 25  1  0
 18 17  2  0
 19 13  1  0
 20 19  2  0
 22 24  1  0
 22 21  1  1
 22 23  1  0
 24 26  1  0
 24 25  1  6
 26 28  2  0
 26 27  1  0
M  END
$$$$
