LYT.pdb
     RDKit          3D

 28 28  0  0  1  0  0  0  0  0999 V2000
   26.3105  -14.1764  -18.0237 C   0  0  0  0  0  0  0  0  0  0  0  0
   26.8359  -13.8273  -16.6450 C   0  0  1  0  0  0  0  0  0  0  0  0
   28.3125  -14.0373  -16.6354 C   0  0  0  0  0  0  0  0  0  0  0  0
   26.4406  -12.4017  -16.3495 C   0  0  0  0  0  0  0  0  0  0  0  0
   24.9735  -12.2278  -16.1468 C   0  0  2  0  0  0  0  0  0  0  0  0
   24.2872  -12.8087  -17.2816 N   0  0  0  0  0  0  0  0  0  0  0  0
   24.7186  -10.7434  -16.0804 C   0  0  0  0  0  0  0  0  0  0  0  0
   25.2873  -10.0329  -15.2260 O   0  0  0  0  0  0  0  0  0  0  0  0
   24.4416  -10.1025  -23.1593 O   0  0  0  0  0  0  0  0  0  0  0  0
   24.3719   -9.5535  -21.8878 C   0  0  0  0  0  0  0  0  0  0  0  0
   25.4140   -9.7288  -21.0359 C   0  0  0  0  0  0  0  0  0  0  0  0
   25.3698   -9.1982  -19.7783 C   0  0  0  0  0  0  0  0  0  0  0  0
   24.3031   -8.4644  -19.2805 C   0  0  0  0  0  0  0  0  0  0  0  0
   24.2379   -7.8816  -17.9408 C   0  0  0  0  0  0  0  0  0  0  0  0
   23.6428   -8.6550  -16.8761 C   0  0  2  0  0  0  0  0  0  0  0  0
   23.8498  -10.0825  -16.9504 N   0  0  0  0  0  0  0  0  0  0  0  0
   22.1940   -8.4841  -16.6978 C   0  0  0  0  0  0  0  0  0  0  0  0
   21.4318   -9.1659  -17.4876 O   0  0  0  0  0  0  0  0  0  0  0  0
   23.2461   -8.3059  -20.1919 C   0  0  0  0  0  0  0  0  0  0  0  0
   23.2915   -8.8409  -21.4584 C   0  0  0  0  0  0  0  0  0  0  0  0
   20.1570   -9.8702  -14.6127 C   0  0  0  0  0  0  0  0  0  0  0  0
   19.6528   -8.4501  -14.4315 C   0  0  1  0  0  0  0  0  0  0  0  0
   20.2719   -7.9089  -13.3065 O   0  0  0  0  0  0  0  0  0  0  0  0
   20.1157   -7.6698  -15.6652 C   0  0  2  0  0  0  0  0  0  0  0  0
   21.5585   -7.6453  -15.7298 N   0  0  0  0  0  0  0  0  0  0  0  0
   19.5520   -6.3361  -15.7068 C   0  0  0  0  0  0  0  0  0  0  0  0
   18.2322   -6.0611  -15.7934 O   0  0  0  0  0  0  0  0  0  0  0  0
   20.3567   -5.3463  -15.6588 O   0  0  0  0  0  0  0  0  0  0  0  0
  2  1  1  6
  3  2  1  0
  4  2  1  0
  4  5  1  0
  5  6  1  6
  7  5  1  0
  7  8  2  0
  9 10  1  0
 10 11  2  0
 10 20  1  0
 11 12  1  0
 12 13  2  0
 13 14  1  0
 15 14  1  6
 15 16  1  0
 15 17  1  0
 16  7  1  0
 17 25  1  0
 18 17  2  0
 19 13  1  0
 20 19  2  0
 22 24  1  0
 22 21  1  6
 22 23  1  0
 24 26  1  0
 24 25  1  1
 26 28  2  0
 26 27  1  0
M  END
$$$$
