LYT.pdb
     RDKit          3D

 28 28  0  0  1  0  0  0  0  0999 V2000
   27.6228  -13.4946  -17.3432 C   0  0  0  0  0  0  0  0  0  0  0  0
   26.8901  -14.7241  -16.8433 C   0  0  1  0  0  0  0  0  0  0  0  0
   27.0819  -14.8205  -15.3673 C   0  0  0  0  0  0  0  0  0  0  0  0
   25.4415  -14.5905  -17.2427 C   0  0  0  0  0  0  0  0  0  0  0  0
   24.6056  -15.7515  -16.8217 C   0  0  2  0  0  0  0  0  0  0  0  0
   25.0208  -16.9094  -17.5853 N   0  0  0  0  0  0  0  0  0  0  0  0
   23.1762  -15.3943  -17.1417 C   0  0  0  0  0  0  0  0  0  0  0  0
   22.6711  -15.6960  -18.2425 O   0  0  0  0  0  0  0  0  0  0  0  0
   14.4972  -13.8501  -16.4300 O   0  0  0  0  0  0  0  0  0  0  0  0
   15.8381  -14.1502  -16.2426 C   0  0  0  0  0  0  0  0  0  0  0  0
   16.4812  -14.9031  -17.1709 C   0  0  0  0  0  0  0  0  0  0  0  0
   17.8016  -15.2124  -17.0094 C   0  0  0  0  0  0  0  0  0  0  0  0
   18.5702  -14.8028  -15.9299 C   0  0  0  0  0  0  0  0  0  0  0  0
   19.9861  -15.1163  -15.7408 C   0  0  0  0  0  0  0  0  0  0  0  0
   20.9624  -14.4384  -16.5612 C   0  0  2  0  0  0  0  0  0  0  0  0
   22.3441  -14.7185  -16.2476 N   0  0  0  0  0  0  0  0  0  0  0  0
   20.8628  -12.9723  -16.5896 C   0  0  0  0  0  0  0  0  0  0  0  0
   21.4772  -12.3347  -15.6485 O   0  0  0  0  0  0  0  0  0  0  0  0
   17.8684  -14.0267  -14.9928 C   0  0  0  0  0  0  0  0  0  0  0  0
   16.5384  -13.7158  -15.1562 C   0  0  0  0  0  0  0  0  0  0  0  0
   21.9607  -10.4301  -18.9980 C   0  0  0  0  0  0  0  0  0  0  0  0
   20.5140  -10.0701  -18.7137 C   0  0  1  0  0  0  0  0  0  0  0  0
   19.7244  -10.6079  -19.7281 O   0  0  0  0  0  0  0  0  0  0  0  0
   20.1510  -10.7606  -17.3959 C   0  0  2  0  0  0  0  0  0  0  0  0
   20.1608  -12.1953  -17.5631 N   0  0  0  0  0  0  0  0  0  0  0  0
   18.8883  -10.2888  -16.8658 C   0  0  0  0  0  0  0  0  0  0  0  0
   18.6890   -9.0663  -16.3262 O   0  0  0  0  0  0  0  0  0  0  0  0
   17.8891  -11.0820  -16.9091 O   0  0  0  0  0  0  0  0  0  0  0  0
  2  1  1  1
  3  2  1  0
  4  2  1  0
  4  5  1  0
  5  6  1  6
  7  5  1  0
  7  8  2  0
  9 10  1  0
 10 11  2  0
 10 20  1  0
 11 12  1  0
 12 13  2  0
 13 14  1  0
 15 14  1  1
 15 16  1  0
 15 17  1  0
 16  7  1  0
 17 25  1  0
 18 17  2  0
 19 13  1  0
 20 19  2  0
 22 24  1  0
 22 21  1  6
 22 23  1  0
 24 26  1  0
 24 25  1  6
 26 28  2  0
 26 27  1  0
M  END
$$$$
