LYT.pdb
     RDKit          3D

 28 28  0  0  1  0  0  0  0  0999 V2000
   22.4533  -18.8611  -21.4728 C   0  0  0  0  0  0  0  0  0  0  0  0
   22.9239  -20.0608  -20.6741 C   0  0  1  0  0  0  0  0  0  0  0  0
   24.1524  -20.6060  -21.3207 C   0  0  0  0  0  0  0  0  0  0  0  0
   23.1564  -19.6060  -19.2546 C   0  0  0  0  0  0  0  0  0  0  0  0
   23.8863  -20.6094  -18.4274 C   0  0  2  0  0  0  0  0  0  0  0  0
   23.2654  -21.9015  -18.6297 N   0  0  0  0  0  0  0  0  0  0  0  0
   23.7412  -20.1742  -16.9912 C   0  0  0  0  0  0  0  0  0  0  0  0
   24.1275  -19.0465  -16.6209 O   0  0  0  0  0  0  0  0  0  0  0  0
   17.5574  -17.4001  -16.7341 O   0  0  0  0  0  0  0  0  0  0  0  0
   18.5216  -18.1993  -16.1385 C   0  0  0  0  0  0  0  0  0  0  0  0
   19.3527  -17.6526  -15.2152 C   0  0  0  0  0  0  0  0  0  0  0  0
   20.3105  -18.4185  -14.6143 C   0  0  0  0  0  0  0  0  0  0  0  0
   20.5110  -19.7647  -14.8816 C   0  0  0  0  0  0  0  0  0  0  0  0
   21.5250  -20.6047  -14.2452 C   0  0  0  0  0  0  0  0  0  0  0  0
   22.8971  -20.4853  -14.6798 C   0  0  2  0  0  0  0  0  0  0  0  0
   23.1781  -20.9860  -16.0051 N   0  0  0  0  0  0  0  0  0  0  0  0
   23.8984  -21.1166  -13.8086 C   0  0  0  0  0  0  0  0  0  0  0  0
   23.9875  -22.4042  -13.8719 O   0  0  0  0  0  0  0  0  0  0  0  0
   19.6317  -20.2920  -15.8417 C   0  0  0  0  0  0  0  0  0  0  0  0
   18.6673  -19.5197  -16.4465 C   0  0  0  0  0  0  0  0  0  0  0  0
   27.4215  -19.5174  -12.2151 C   0  0  0  0  0  0  0  0  0  0  0  0
   27.1409  -20.9670  -12.5667 C   0  0  1  0  0  0  0  0  0  0  0  0
   27.9900  -21.7707  -11.8084 O   0  0  0  0  0  0  0  0  0  0  0  0
   25.6972  -21.2413  -12.1361 C   0  0  2  0  0  0  0  0  0  0  0  0
   24.7818  -20.4377  -12.9125 N   0  0  0  0  0  0  0  0  0  0  0  0
   25.5094  -21.0482  -10.7129 C   0  0  0  0  0  0  0  0  0  0  0  0
   26.1225  -21.7719   -9.7508 O   0  0  0  0  0  0  0  0  0  0  0  0
   24.7073  -20.1295  -10.3359 O   0  0  0  0  0  0  0  0  0  0  0  0
  2  1  1  6
  3  2  1  0
  4  2  1  0
  4  5  1  0
  5  6  1  1
  7  5  1  0
  7  8  2  0
  9 10  1  0
 10 11  2  0
 10 20  1  0
 11 12  1  0
 12 13  2  0
 13 14  1  0
 15 14  1  1
 15 16  1  0
 15 17  1  0
 16  7  1  0
 17 25  1  0
 18 17  2  0
 19 13  1  0
 20 19  2  0
 22 24  1  0
 22 21  1  1
 22 23  1  0
 24 26  1  0
 24 25  1  6
 26 28  2  0
 26 27  1  0
M  END
$$$$
