LYT.pdb
     RDKit          3D

 28 28  0  0  1  0  0  0  0  0999 V2000
   31.4218  -23.2086  -18.6061 C   0  0  0  0  0  0  0  0  0  0  0  0
   30.2875  -22.2027  -18.6207 C   0  0  1  0  0  0  0  0  0  0  0  0
   29.8349  -22.0219  -20.0303 C   0  0  0  0  0  0  0  0  0  0  0  0
   29.1999  -22.7226  -17.7137 C   0  0  0  0  0  0  0  0  0  0  0  0
   28.0327  -21.8007  -17.6063 C   0  0  2  0  0  0  0  0  0  0  0  0
   28.5065  -20.4457  -17.7946 N   0  0  0  0  0  0  0  0  0  0  0  0
   27.4705  -21.9741  -16.2182 C   0  0  0  0  0  0  0  0  0  0  0  0
   27.2462  -23.1112  -15.7548 O   0  0  0  0  0  0  0  0  0  0  0  0
   24.5870  -20.6062   -7.9255 O   0  0  0  0  0  0  0  0  0  0  0  0
   25.1760  -20.5058   -9.1769 C   0  0  0  0  0  0  0  0  0  0  0  0
   26.2927  -21.2309   -9.4401 C   0  0  0  0  0  0  0  0  0  0  0  0
   26.8916  -21.1495  -10.6648 C   0  0  0  0  0  0  0  0  0  0  0  0
   26.4325  -20.3538  -11.7040 C   0  0  0  0  0  0  0  0  0  0  0  0
   27.0536  -20.2571  -13.0245 C   0  0  0  0  0  0  0  0  0  0  0  0
   26.5506  -21.0914  -14.0906 C   0  0  2  0  0  0  0  0  0  0  0  0
   27.1713  -20.8984  -15.3804 N   0  0  0  0  0  0  0  0  0  0  0  0
   25.1051  -21.0025  -14.3409 C   0  0  0  0  0  0  0  0  0  0  0  0
   24.7171  -20.0772  -15.1551 O   0  0  0  0  0  0  0  0  0  0  0  0
   25.2761  -19.6201  -11.3917 C   0  0  0  0  0  0  0  0  0  0  0  0
   24.6737  -19.7027  -10.1577 C   0  0  0  0  0  0  0  0  0  0  0  0
   20.5643  -22.6377  -14.6600 C   0  0  0  0  0  0  0  0  0  0  0  0
   22.0323  -22.9606  -14.4489 C   0  0  1  0  0  0  0  0  0  0  0  0
   22.5352  -23.4937  -15.6341 O   0  0  0  0  0  0  0  0  0  0  0  0
   22.7311  -21.6247  -14.1805 C   0  0  2  0  0  0  0  0  0  0  0  0
   24.0998  -21.8479  -13.7762 N   0  0  0  0  0  0  0  0  0  0  0  0
   22.0096  -20.8187  -13.2173 C   0  0  0  0  0  0  0  0  0  0  0  0
   20.8980  -20.1020  -13.4928 O   0  0  0  0  0  0  0  0  0  0  0  0
   22.4527  -20.7794  -12.0208 O   0  0  0  0  0  0  0  0  0  0  0  0
  2  1  1  6
  3  2  1  0
  4  2  1  0
  4  5  1  0
  5  6  1  1
  7  5  1  0
  7  8  2  0
  9 10  1  0
 10 11  2  0
 10 20  1  0
 11 12  1  0
 12 13  2  0
 13 14  1  0
 15 14  1  1
 15 16  1  0
 15 17  1  0
 16  7  1  0
 17 25  1  0
 18 17  2  0
 19 13  1  0
 20 19  2  0
 22 24  1  0
 22 21  1  6
 22 23  1  0
 24 26  1  0
 24 25  1  1
 26 28  2  0
 26 27  1  0
M  END
$$$$
