LYT.pdb
     RDKit          3D

 28 28  0  0  1  0  0  0  0  0999 V2000
   20.5853  -14.4642  -17.9112 C   0  0  0  0  0  0  0  0  0  0  0  0
   20.9132  -13.0787  -18.4323 C   0  0  1  0  0  0  0  0  0  0  0  0
   20.1520  -12.8570  -19.6956 C   0  0  0  0  0  0  0  0  0  0  0  0
   20.5643  -12.0861  -17.3512 C   0  0  0  0  0  0  0  0  0  0  0  0
   20.7488  -10.6677  -17.7729 C   0  0  2  0  0  0  0  0  0  0  0  0
   22.1566  -10.4515  -18.0328 N   0  0  0  0  0  0  0  0  0  0  0  0
   20.2879   -9.8104  -16.6216 C   0  0  0  0  0  0  0  0  0  0  0  0
   19.1256   -9.9055  -16.1766 O   0  0  0  0  0  0  0  0  0  0  0  0
   19.5646   -5.2646   -9.1440 O   0  0  0  0  0  0  0  0  0  0  0  0
   20.0203   -5.9586  -10.2547 C   0  0  0  0  0  0  0  0  0  0  0  0
   19.6320   -7.2469  -10.4322 C   0  0  0  0  0  0  0  0  0  0  0  0
   20.0670   -7.9519  -11.5180 C   0  0  0  0  0  0  0  0  0  0  0  0
   20.9074   -7.4372  -12.4942 C   0  0  0  0  0  0  0  0  0  0  0  0
   21.3793   -8.1715  -13.6676 C   0  0  0  0  0  0  0  0  0  0  0  0
   20.6375   -8.0579  -14.9015 C   0  0  2  0  0  0  0  0  0  0  0  0
   21.1126   -8.8758  -15.9931 N   0  0  0  0  0  0  0  0  0  0  0  0
   20.5271   -6.7012  -15.4557 C   0  0  0  0  0  0  0  0  0  0  0  0
   21.5236   -6.2859  -16.1658 O   0  0  0  0  0  0  0  0  0  0  0  0
   21.2859   -6.1026  -12.2739 C   0  0  0  0  0  0  0  0  0  0  0  0
   20.8474   -5.3934  -11.1799 C   0  0  0  0  0  0  0  0  0  0  0  0
   18.2927   -2.7715  -17.1401 C   0  0  0  0  0  0  0  0  0  0  0  0
   18.1033   -4.0952  -16.4219 C   0  0  1  0  0  0  0  0  0  0  0  0
   17.6486   -5.0315  -17.3483 O   0  0  0  0  0  0  0  0  0  0  0  0
   19.4916   -4.5232  -15.9378 C   0  0  2  0  0  0  0  0  0  0  0  0
   19.4203   -5.8116  -15.2888 N   0  0  0  0  0  0  0  0  0  0  0  0
   20.1011   -3.5235  -15.0851 C   0  0  0  0  0  0  0  0  0  0  0  0
   21.1649   -2.7647  -15.4283 O   0  0  0  0  0  0  0  0  0  0  0  0
   19.6006   -3.3433  -13.9247 O   0  0  0  0  0  0  0  0  0  0  0  0
  2  1  1  1
  3  2  1  0
  4  2  1  0
  4  5  1  0
  5  6  1  1
  7  5  1  0
  7  8  2  0
  9 10  1  0
 10 11  2  0
 10 20  1  0
 11 12  1  0
 12 13  2  0
 13 14  1  0
 15 14  1  1
 15 16  1  0
 15 17  1  0
 16  7  1  0
 17 25  1  0
 18 17  2  0
 19 13  1  0
 20 19  2  0
 22 24  1  0
 22 21  1  6
 22 23  1  0
 24 26  1  0
 24 25  1  1
 26 28  2  0
 26 27  1  0
M  END
$$$$
