LYT.pdb
     RDKit          3D

 28 28  0  0  1  0  0  0  0  0999 V2000
   29.9813   -9.7892  -17.4470 C   0  0  0  0  0  0  0  0  0  0  0  0
   28.7001   -9.0768  -17.8338 C   0  0  1  0  0  0  0  0  0  0  0  0
   28.9860   -8.1901  -18.9985 C   0  0  0  0  0  0  0  0  0  0  0  0
   27.6614  -10.1290  -18.1342 C   0  0  0  0  0  0  0  0  0  0  0  0
   27.1684  -10.8337  -16.9160 C   0  0  2  0  0  0  0  0  0  0  0  0
   27.7052  -12.1783  -16.9218 N   0  0  0  0  0  0  0  0  0  0  0  0
   25.6643  -10.8666  -17.0138 C   0  0  0  0  0  0  0  0  0  0  0  0
   25.0797  -11.8080  -17.5882 O   0  0  0  0  0  0  0  0  0  0  0  0
   17.1287  -11.4317  -15.8650 O   0  0  0  0  0  0  0  0  0  0  0  0
   18.5122  -11.3416  -15.8945 C   0  0  0  0  0  0  0  0  0  0  0  0
   19.1832  -11.1187  -14.7359 C   0  0  0  0  0  0  0  0  0  0  0  0
   20.5458  -11.0259  -14.7384 C   0  0  0  0  0  0  0  0  0  0  0  0
   21.3317  -11.1461  -15.8750 C   0  0  0  0  0  0  0  0  0  0  0  0
   22.7913  -11.0573  -15.8993 C   0  0  0  0  0  0  0  0  0  0  0  0
   23.4070   -9.9380  -16.5730 C   0  0  2  0  0  0  0  0  0  0  0  0
   24.8467   -9.8687  -16.4805 N   0  0  0  0  0  0  0  0  0  0  0  0
   22.9299   -8.6088  -16.1660 C   0  0  0  0  0  0  0  0  0  0  0  0
   23.4756   -8.0986  -15.1116 O   0  0  0  0  0  0  0  0  0  0  0  0
   20.6001  -11.3758  -17.0518 C   0  0  0  0  0  0  0  0  0  0  0  0
   19.2276  -11.4690  -17.0483 C   0  0  0  0  0  0  0  0  0  0  0  0
   20.4902   -4.4013  -16.5257 C   0  0  0  0  0  0  0  0  0  0  0  0
   20.8836   -5.6686  -17.2625 C   0  0  1  0  0  0  0  0  0  0  0  0
   21.8414   -5.3364  -18.2185 O   0  0  0  0  0  0  0  0  0  0  0  0
   21.5318   -6.5863  -16.2218 C   0  0  2  0  0  0  0  0  0  0  0  0
   21.9316   -7.8325  -16.8330 N   0  0  0  0  0  0  0  0  0  0  0  0
   20.6719   -6.7997  -15.0759 C   0  0  0  0  0  0  0  0  0  0  0  0
   19.5764   -7.5903  -15.0727 O   0  0  0  0  0  0  0  0  0  0  0  0
   20.9665   -6.1993  -13.9886 O   0  0  0  0  0  0  0  0  0  0  0  0
  2  1  1  6
  3  2  1  0
  4  2  1  0
  4  5  1  0
  5  6  1  6
  7  5  1  0
  7  8  2  0
  9 10  1  0
 10 11  2  0
 10 20  1  0
 11 12  1  0
 12 13  2  0
 13 14  1  0
 15 14  1  1
 15 16  1  0
 15 17  1  0
 16  7  1  0
 17 25  1  0
 18 17  2  0
 19 13  1  0
 20 19  2  0
 22 24  1  0
 22 21  1  1
 22 23  1  0
 24 26  1  0
 24 25  1  6
 26 28  2  0
 26 27  1  0
M  END
$$$$
