LYT.pdb
     RDKit          3D

 28 28  0  0  1  0  0  0  0  0999 V2000
   19.2695  -15.7705  -15.2499 C   0  0  0  0  0  0  0  0  0  0  0  0
   18.8557  -14.6100  -16.1335 C   0  0  1  0  0  0  0  0  0  0  0  0
   17.3900  -14.7114  -16.3904 C   0  0  0  0  0  0  0  0  0  0  0  0
   19.2444  -13.3338  -15.4289 C   0  0  0  0  0  0  0  0  0  0  0  0
   18.7758  -12.1063  -16.1339 C   0  0  2  0  0  0  0  0  0  0  0  0
   19.4295  -12.0472  -17.4243 N   0  0  0  0  0  0  0  0  0  0  0  0
   19.1874  -10.9334  -15.2807 C   0  0  0  0  0  0  0  0  0  0  0  0
   18.8308  -10.8523  -14.0873 O   0  0  0  0  0  0  0  0  0  0  0  0
   24.9339  -13.3375  -15.9285 O   0  0  0  0  0  0  0  0  0  0  0  0
   24.1619  -12.2340  -15.5982 C   0  0  0  0  0  0  0  0  0  0  0  0
   23.8625  -12.0052  -14.2943 C   0  0  0  0  0  0  0  0  0  0  0  0
   23.1038  -10.9253  -13.9430 C   0  0  0  0  0  0  0  0  0  0  0  0
   22.5938  -10.0055  -14.8475 C   0  0  0  0  0  0  0  0  0  0  0  0
   21.7859   -8.8392  -14.4928 C   0  0  0  0  0  0  0  0  0  0  0  0
   20.4015   -8.8038  -14.9026 C   0  0  2  0  0  0  0  0  0  0  0  0
   19.9761   -9.8859  -15.7595 N   0  0  0  0  0  0  0  0  0  0  0  0
   19.9713   -7.5770  -15.5881 C   0  0  0  0  0  0  0  0  0  0  0  0
   20.2015   -7.5156  -16.8582 O   0  0  0  0  0  0  0  0  0  0  0  0
   22.9258  -10.2776  -16.1849 C   0  0  0  0  0  0  0  0  0  0  0  0
   23.6899  -11.3657  -16.5377 C   0  0  0  0  0  0  0  0  0  0  0  0
   16.6144   -6.2534  -16.0476 C   0  0  0  0  0  0  0  0  0  0  0  0
   17.4145   -5.0508  -15.5814 C   0  0  1  0  0  0  0  0  0  0  0  0
   17.2313   -4.9127  -14.2070 O   0  0  0  0  0  0  0  0  0  0  0  0
   18.8853   -5.3854  -15.8456 C   0  0  2  0  0  0  0  0  0  0  0  0
   19.3175   -6.4593  -14.9817 N   0  0  0  0  0  0  0  0  0  0  0  0
   19.7373   -4.2203  -15.7241 C   0  0  0  0  0  0  0  0  0  0  0  0
   19.6564   -3.1229  -16.5079 O   0  0  0  0  0  0  0  0  0  0  0  0
   20.6306   -4.2267  -14.8123 O   0  0  0  0  0  0  0  0  0  0  0  0
  2  1  1  1
  3  2  1  0
  4  2  1  0
  4  5  1  0
  5  6  1  6
  7  5  1  0
  7  8  2  0
  9 10  1  0
 10 11  2  0
 10 20  1  0
 11 12  1  0
 12 13  2  0
 13 14  1  0
 15 14  1  6
 15 16  1  0
 15 17  1  0
 16  7  1  0
 17 25  1  0
 18 17  2  0
 19 13  1  0
 20 19  2  0
 22 24  1  0
 22 21  1  1
 22 23  1  0
 24 26  1  0
 24 25  1  1
 26 28  2  0
 26 27  1  0
M  END
$$$$
