LYT.pdb
     RDKit          3D

 28 28  0  0  1  0  0  0  0  0999 V2000
   17.4517  -15.8499  -16.4354 C   0  0  0  0  0  0  0  0  0  0  0  0
   17.4332  -14.3346  -16.4813 C   0  0  1  0  0  0  0  0  0  0  0  0
   16.3096  -13.8501  -15.6285 C   0  0  0  0  0  0  0  0  0  0  0  0
   18.7817  -13.8438  -16.0157 C   0  0  0  0  0  0  0  0  0  0  0  0
   18.8675  -12.3578  -15.9245 C   0  0  2  0  0  0  0  0  0  0  0  0
   18.4940  -11.8026  -17.2084 N   0  0  0  0  0  0  0  0  0  0  0  0
   20.3030  -12.0261  -15.6047 C   0  0  0  0  0  0  0  0  0  0  0  0
   20.8228  -12.3963  -14.5319 O   0  0  0  0  0  0  0  0  0  0  0  0
   28.9270  -10.1172  -16.3849 O   0  0  0  0  0  0  0  0  0  0  0  0
   27.5991  -10.4837  -16.5444 C   0  0  0  0  0  0  0  0  0  0  0  0
   27.0018  -11.2327  -15.5829 C   0  0  0  0  0  0  0  0  0  0  0  0
   25.6950  -11.6065  -15.7164 C   0  0  0  0  0  0  0  0  0  0  0  0
   24.8959  -11.2689  -16.7988 C   0  0  0  0  0  0  0  0  0  0  0  0
   23.4936  -11.6522  -16.9585 C   0  0  0  0  0  0  0  0  0  0  0  0
   22.4992  -11.0033  -16.1365 C   0  0  2  0  0  0  0  0  0  0  0  0
   21.1250  -11.2998  -16.4680 N   0  0  0  0  0  0  0  0  0  0  0  0
   22.5753   -9.5366  -16.0832 C   0  0  0  0  0  0  0  0  0  0  0  0
   23.6623   -9.0332  -15.5987 O   0  0  0  0  0  0  0  0  0  0  0  0
   25.5507  -10.4945  -17.7706 C   0  0  0  0  0  0  0  0  0  0  0  0
   26.8670  -10.1185  -17.6353 C   0  0  0  0  0  0  0  0  0  0  0  0
   22.0336   -7.0942  -18.9160 C   0  0  0  0  0  0  0  0  0  0  0  0
   21.3031   -6.5112  -17.7201 C   0  0  1  0  0  0  0  0  0  0  0  0
   19.9532   -6.8384  -17.8331 O   0  0  0  0  0  0  0  0  0  0  0  0
   21.8730   -7.2140  -16.4847 C   0  0  2  0  0  0  0  0  0  0  0  0
   21.5665   -8.6250  -16.5254 N   0  0  0  0  0  0  0  0  0  0  0  0
   21.4202   -6.5997  -15.2536 C   0  0  0  0  0  0  0  0  0  0  0  0
   21.6445   -5.3131  -14.9079 O   0  0  0  0  0  0  0  0  0  0  0  0
   20.7617   -7.3225  -14.4329 O   0  0  0  0  0  0  0  0  0  0  0  0
  2  1  1  1
  3  2  1  0
  4  2  1  0
  4  5  1  0
  5  6  1  6
  7  5  1  0
  7  8  2  0
  9 10  1  0
 10 11  2  0
 10 20  1  0
 11 12  1  0
 12 13  2  0
 13 14  1  0
 15 14  1  6
 15 16  1  0
 15 17  1  0
 16  7  1  0
 17 25  1  0
 18 17  2  0
 19 13  1  0
 20 19  2  0
 22 24  1  0
 22 21  1  6
 22 23  1  0
 24 26  1  0
 24 25  1  1
 26 28  2  0
 26 27  1  0
M  END
$$$$
