LYT.pdb
     RDKit          3D

 28 28  0  0  1  0  0  0  0  0999 V2000
   28.5895   -9.8287  -18.2597 C   0  0  0  0  0  0  0  0  0  0  0  0
   27.7907  -10.7772  -17.3874 C   0  0  1  0  0  0  0  0  0  0  0  0
   28.4320  -10.8346  -16.0420 C   0  0  0  0  0  0  0  0  0  0  0  0
   26.3691  -10.2742  -17.3426 C   0  0  0  0  0  0  0  0  0  0  0  0
   25.4936  -11.0653  -16.4310 C   0  0  2  0  0  0  0  0  0  0  0  0
   25.3690  -12.4032  -16.9701 N   0  0  0  0  0  0  0  0  0  0  0  0
   24.1522  -10.3772  -16.4141 C   0  0  0  0  0  0  0  0  0  0  0  0
   23.2718  -10.6684  -17.2496 O   0  0  0  0  0  0  0  0  0  0  0  0
   16.2640   -8.8597  -13.5999 O   0  0  0  0  0  0  0  0  0  0  0  0
   17.6455   -8.8144  -13.7120 C   0  0  0  0  0  0  0  0  0  0  0  0
   18.2021   -8.6380  -14.9373 C   0  0  0  0  0  0  0  0  0  0  0  0
   19.5601   -8.5899  -15.0742 C   0  0  0  0  0  0  0  0  0  0  0  0
   20.4532   -8.7114  -14.0198 C   0  0  0  0  0  0  0  0  0  0  0  0
   21.9094   -8.6558  -14.1429 C   0  0  0  0  0  0  0  0  0  0  0  0
   22.5007   -8.7958  -15.4530 C   0  0  2  0  0  0  0  0  0  0  0  0
   23.8158   -9.3922  -15.4840 N   0  0  0  0  0  0  0  0  0  0  0  0
   22.6208   -7.5562  -16.2333 C   0  0  0  0  0  0  0  0  0  0  0  0
   23.6248   -6.7930  -15.9517 O   0  0  0  0  0  0  0  0  0  0  0  0
   19.8379   -8.8925  -12.7702 C   0  0  0  0  0  0  0  0  0  0  0  0
   18.4700   -8.9410  -12.6333 C   0  0  0  0  0  0  0  0  0  0  0  0
   20.1870   -6.1328  -19.5055 C   0  0  0  0  0  0  0  0  0  0  0  0
   21.6959   -5.9857  -19.4323 C   0  0  1  0  0  0  0  0  0  0  0  0
   22.0466   -4.7874  -20.0512 O   0  0  0  0  0  0  0  0  0  0  0  0
   22.0456   -5.8862  -17.9447 C   0  0  2  0  0  0  0  0  0  0  0  0
   21.7389   -7.1282  -17.2741 N   0  0  0  0  0  0  0  0  0  0  0  0
   21.3982   -4.7569  -17.3094 C   0  0  0  0  0  0  0  0  0  0  0  0
   21.7530   -3.4657  -17.4888 O   0  0  0  0  0  0  0  0  0  0  0  0
   20.4218   -4.9941  -16.5220 O   0  0  0  0  0  0  0  0  0  0  0  0
  2  1  1  6
  3  2  1  0
  4  2  1  0
  4  5  1  0
  5  6  1  6
  7  5  1  0
  7  8  2  0
  9 10  1  0
 10 11  2  0
 10 20  1  0
 11 12  1  0
 12 13  2  0
 13 14  1  0
 15 14  1  1
 15 16  1  0
 15 17  1  0
 16  7  1  0
 17 25  1  0
 18 17  2  0
 19 13  1  0
 20 19  2  0
 22 24  1  0
 22 21  1  1
 22 23  1  0
 24 26  1  0
 24 25  1  1
 26 28  2  0
 26 27  1  0
M  END
$$$$
