LYT.pdb
     RDKit          3D

 28 28  0  0  1  0  0  0  0  0999 V2000
   28.0631  -10.2145  -16.5946 C   0  0  0  0  0  0  0  0  0  0  0  0
   26.8482  -11.1192  -16.5303 C   0  0  1  0  0  0  0  0  0  0  0  0
   26.8445  -11.8115  -15.2091 C   0  0  0  0  0  0  0  0  0  0  0  0
   25.6253  -10.2638  -16.7516 C   0  0  0  0  0  0  0  0  0  0  0  0
   24.3469  -11.0210  -16.6249 C   0  0  2  0  0  0  0  0  0  0  0  0
   24.3110  -12.0271  -17.6653 N   0  0  0  0  0  0  0  0  0  0  0  0
   23.2325  -10.0240  -16.8176 C   0  0  0  0  0  0  0  0  0  0  0  0
   22.8917   -9.6564  -17.9607 O   0  0  0  0  0  0  0  0  0  0  0  0
   17.7999  -13.5269  -18.2945 O   0  0  0  0  0  0  0  0  0  0  0  0
   18.3588  -12.4493  -17.6241 C   0  0  0  0  0  0  0  0  0  0  0  0
   18.8963  -12.6454  -16.3933 C   0  0  0  0  0  0  0  0  0  0  0  0
   19.4528  -11.6004  -15.7126 C   0  0  0  0  0  0  0  0  0  0  0  0
   19.5161  -10.3020  -16.1965 C   0  0  0  0  0  0  0  0  0  0  0  0
   20.1132   -9.1704  -15.4880 C   0  0  0  0  0  0  0  0  0  0  0  0
   21.3630   -8.6312  -15.9706 C   0  0  2  0  0  0  0  0  0  0  0  0
   22.5257   -9.4603  -15.7539 N   0  0  0  0  0  0  0  0  0  0  0  0
   21.7300   -7.3078  -15.4474 C   0  0  0  0  0  0  0  0  0  0  0  0
   22.2643   -7.2810  -14.2712 O   0  0  0  0  0  0  0  0  0  0  0  0
   18.9495  -10.1412  -17.4717 C   0  0  0  0  0  0  0  0  0  0  0  0
   18.3891  -11.1943  -18.1566 C   0  0  0  0  0  0  0  0  0  0  0  0
   23.9812   -4.7572  -17.0418 C   0  0  0  0  0  0  0  0  0  0  0  0
   22.7775   -3.9832  -16.5361 C   0  0  1  0  0  0  0  0  0  0  0  0
   21.8985   -3.8009  -17.6019 O   0  0  0  0  0  0  0  0  0  0  0  0
   22.1001   -4.8768  -15.4932 C   0  0  2  0  0  0  0  0  0  0  0  0
   21.5591   -6.0591  -16.1225 N   0  0  0  0  0  0  0  0  0  0  0  0
   21.0936   -4.1608  -14.7367 C   0  0  0  0  0  0  0  0  0  0  0  0
   21.3499   -3.1434  -13.8856 O   0  0  0  0  0  0  0  0  0  0  0  0
   19.8753   -4.5135  -14.8811 O   0  0  0  0  0  0  0  0  0  0  0  0
  2  1  1  1
  3  2  1  0
  4  2  1  0
  4  5  1  0
  5  6  1  6
  7  5  1  0
  7  8  2  0
  9 10  1  0
 10 11  2  0
 10 20  1  0
 11 12  1  0
 12 13  2  0
 13 14  1  0
 15 14  1  1
 15 16  1  0
 15 17  1  0
 16  7  1  0
 17 25  1  0
 18 17  2  0
 19 13  1  0
 20 19  2  0
 22 24  1  0
 22 21  1  6
 22 23  1  0
 24 26  1  0
 24 25  1  6
 26 28  2  0
 26 27  1  0
M  END
$$$$
