LYT.pdb
     RDKit          3D

 28 28  0  0  1  0  0  0  0  0999 V2000
   13.6130  -12.2554  -13.8612 C   0  0  0  0  0  0  0  0  0  0  0  0
   14.7032  -11.2314  -14.1096 C   0  0  1  0  0  0  0  0  0  0  0  0
   14.9460  -11.1473  -15.5788 C   0  0  0  0  0  0  0  0  0  0  0  0
   14.2506   -9.9230  -13.5104 C   0  0  0  0  0  0  0  0  0  0  0  0
   14.5241   -9.8196  -12.0481 C   0  0  2  0  0  0  0  0  0  0  0  0
   13.2556   -9.7723  -11.3519 N   0  0  0  0  0  0  0  0  0  0  0  0
   15.2873   -8.5361  -11.8402 C   0  0  0  0  0  0  0  0  0  0  0  0
   14.7179   -7.4293  -11.9342 O   0  0  0  0  0  0  0  0  0  0  0  0
   13.2564   -4.9392   -6.7882 O   0  0  0  0  0  0  0  0  0  0  0  0
   14.3146   -5.4151   -7.5476 C   0  0  0  0  0  0  0  0  0  0  0  0
   14.6213   -6.7363   -7.4964 C   0  0  0  0  0  0  0  0  0  0  0  0
   15.6588   -7.2296   -8.2348 C   0  0  0  0  0  0  0  0  0  0  0  0
   16.4572   -6.4588   -9.0670 C   0  0  0  0  0  0  0  0  0  0  0  0
   17.5678   -6.9672   -9.8712 C   0  0  0  0  0  0  0  0  0  0  0  0
   17.3364   -7.2619  -11.2660 C   0  0  2  0  0  0  0  0  0  0  0  0
   16.6493   -8.5033  -11.5361 N   0  0  0  0  0  0  0  0  0  0  0  0
   18.5334   -7.2902  -12.1182 C   0  0  0  0  0  0  0  0  0  0  0  0
   19.2671   -8.3515  -12.0462 O   0  0  0  0  0  0  0  0  0  0  0  0
   16.1077   -5.0986   -9.0918 C   0  0  0  0  0  0  0  0  0  0  0  0
   15.0625   -4.6026   -8.3476 C   0  0  0  0  0  0  0  0  0  0  0  0
   21.2535   -6.1909  -15.9556 C   0  0  0  0  0  0  0  0  0  0  0  0
   20.0147   -5.8036  -15.1689 C   0  0  1  0  0  0  0  0  0  0  0  0
   18.9007   -6.3136  -15.8328 O   0  0  0  0  0  0  0  0  0  0  0  0
   20.1337   -6.5006  -13.8105 C   0  0  2  0  0  0  0  0  0  0  0  0
   18.9493   -6.2610  -13.0193 N   0  0  0  0  0  0  0  0  0  0  0  0
   21.3392   -6.1146  -13.1063 C   0  0  0  0  0  0  0  0  0  0  0  0
   22.4680   -6.8547  -13.0506 O   0  0  0  0  0  0  0  0  0  0  0  0
   21.3392   -4.9955  -12.4922 O   0  0  0  0  0  0  0  0  0  0  0  0
  2  1  1  6
  3  2  1  0
  4  2  1  0
  4  5  1  0
  5  6  1  1
  7  5  1  0
  7  8  2  0
  9 10  1  0
 10 11  2  0
 10 20  1  0
 11 12  1  0
 12 13  2  0
 13 14  1  0
 15 14  1  1
 15 16  1  0
 15 17  1  0
 16  7  1  0
 17 25  1  0
 18 17  2  0
 19 13  1  0
 20 19  2  0
 22 24  1  0
 22 21  1  6
 22 23  1  0
 24 26  1  0
 24 25  1  1
 26 28  2  0
 26 27  1  0
M  END
$$$$
