LYT.pdb
     RDKit          3D

 28 28  0  0  1  0  0  0  0  0999 V2000
   20.7038  -28.6021  -15.2445 C   0  0  0  0  0  0  0  0  0  0  0  0
   20.9538  -28.2940  -13.7812 C   0  0  1  0  0  0  0  0  0  0  0  0
   22.2890  -27.6408  -13.6577 C   0  0  0  0  0  0  0  0  0  0  0  0
   19.8229  -27.4219  -13.2949 C   0  0  0  0  0  0  0  0  0  0  0  0
   19.9933  -26.9699  -11.8842 C   0  0  2  0  0  0  0  0  0  0  0  0
   19.7985  -28.1118  -11.0157 N   0  0  0  0  0  0  0  0  0  0  0  0
   18.9319  -25.9292  -11.6320 C   0  0  0  0  0  0  0  0  0  0  0  0
   17.7722  -26.2610  -11.3112 O   0  0  0  0  0  0  0  0  0  0  0  0
   17.1342  -25.2518   -5.2123 O   0  0  0  0  0  0  0  0  0  0  0  0
   17.4249  -24.6536   -6.4291 C   0  0  0  0  0  0  0  0  0  0  0  0
   18.7014  -24.6819   -6.8895 C   0  0  0  0  0  0  0  0  0  0  0  0
   19.0134  -24.0999   -8.0850 C   0  0  0  0  0  0  0  0  0  0  0  0
   18.0942  -23.4561   -8.9003 C   0  0  0  0  0  0  0  0  0  0  0  0
   18.4049  -22.8329  -10.1863 C   0  0  0  0  0  0  0  0  0  0  0  0
   18.1635  -23.5826  -11.3968 C   0  0  2  0  0  0  0  0  0  0  0  0
   19.1722  -24.5583  -11.7386 N   0  0  0  0  0  0  0  0  0  0  0  0
   17.9729  -22.7821  -12.6145 C   0  0  0  0  0  0  0  0  0  0  0  0
   18.9670  -22.0410  -12.9784 O   0  0  0  0  0  0  0  0  0  0  0  0
   16.7861  -23.4486   -8.3886 C   0  0  0  0  0  0  0  0  0  0  0  0
   16.4728  -24.0350   -7.1843 C   0  0  0  0  0  0  0  0  0  0  0  0
   17.3205  -23.5649  -16.2050 C   0  0  0  0  0  0  0  0  0  0  0  0
   16.2538  -22.5628  -15.8033 C   0  0  1  0  0  0  0  0  0  0  0  0
   15.1025  -23.2680  -15.4579 O   0  0  0  0  0  0  0  0  0  0  0  0
   16.7822  -21.8511  -14.5546 C   0  0  2  0  0  0  0  0  0  0  0  0
   16.7992  -22.7582  -13.4307 N   0  0  0  0  0  0  0  0  0  0  0  0
   16.0367  -20.6442  -14.2614 C   0  0  0  0  0  0  0  0  0  0  0  0
   16.0120  -19.5453  -15.0469 O   0  0  0  0  0  0  0  0  0  0  0  0
   15.3526  -20.6121  -13.1841 O   0  0  0  0  0  0  0  0  0  0  0  0
  2  1  1  6
  3  2  1  0
  4  2  1  0
  4  5  1  0
  5  6  1  1
  7  5  1  0
  7  8  2  0
  9 10  1  0
 10 11  2  0
 10 20  1  0
 11 12  1  0
 12 13  2  0
 13 14  1  0
 15 14  1  1
 15 16  1  0
 15 17  1  0
 16  7  1  0
 17 25  1  0
 18 17  2  0
 19 13  1  0
 20 19  2  0
 22 24  1  0
 22 21  1  1
 22 23  1  0
 24 26  1  0
 24 25  1  1
 26 28  2  0
 26 27  1  0
M  END
$$$$
