AFS.pdb
     RDKit          3D

 23 23  0  0  1  0  0  0  0  0999 V2000
    9.0693  -18.6020   20.4599 C   0  0  0  0  0  0  0  0  0  0  0  0
    9.1719  -17.1471   20.0858 C   0  0  2  0  0  0  0  0  0  0  0  0
   10.1974  -16.9543   19.1029 N   0  0  0  0  0  0  0  0  0  0  0  0
    9.3885  -16.3015   21.2890 C   0  0  0  0  0  0  0  0  0  0  0  0
   10.5579  -15.9868   21.6243 O   0  0  0  0  0  0  0  0  0  0  0  0
    8.3298  -15.8220   22.0931 N   0  0  0  0  0  0  0  0  0  0  0  0
    8.5428  -15.0533   23.3042 C   0  0  1  0  0  0  0  0  0  0  0  0
    7.2963  -14.2561   23.5436 C   0  0  0  0  0  0  0  0  0  0  0  0
    7.2649  -13.4919   24.8043 C   0  0  0  0  0  0  0  0  0  0  0  0
    8.0001  -12.3467   25.0179 C   0  0  0  0  0  0  0  0  0  0  0  0
    7.9265  -11.6551   26.2330 C   0  0  0  0  0  0  0  0  0  0  0  0
    7.1161  -12.1101   27.2361 C   0  0  0  0  0  0  0  0  0  0  0  0
    6.3820  -13.2381   27.0472 C   0  0  0  0  0  0  0  0  0  0  0  0
    6.4592  -13.9192   25.8405 C   0  0  0  0  0  0  0  0  0  0  0  0
    8.7270  -16.0153   24.4110 C   0  0  0  0  0  0  0  0  0  0  0  0
    7.9575  -17.0142   24.6012 O   0  0  0  0  0  0  0  0  0  0  0  0
   12.4016  -16.7814   25.7597 O   0  0  0  0  0  0  0  0  0  0  0  0
   11.3365  -17.6501   25.8979 C   0  0  0  0  0  0  0  0  0  0  0  0
   10.0836  -16.9042   26.3036 C   0  0  2  0  0  0  0  0  0  0  0  0
    9.7899  -15.8718   25.3344 N   0  0  0  0  0  0  0  0  0  0  0  0
   10.2091  -16.3029   27.6337 C   0  0  0  0  0  0  0  0  0  0  0  0
   10.4752  -17.0753   28.7347 O   0  0  0  0  0  0  0  0  0  0  0  0
   10.0719  -15.0659   27.7702 O   0  0  0  0  0  0  0  0  0  0  0  0
  2  3  1  0
  2  4  1  0
  2  1  1  1
  4  5  2  0
  6  4  1  0
  6  7  1  0
  7 15  1  0
  8  9  1  0
  7  8  1  1
  9 10  2  0
  9 14  1  0
 10 11  1  0
 11 12  2  0
 13 12  1  0
 14 13  2  0
 15 20  1  0
 15 16  2  0
 19 18  1  6
 18 17  1  0
 19 21  1  0
 20 19  1  0
 21 22  1  0
 23 21  2  0
M  END
$$$$
