AFS.pdb
     RDKit          3D

 23 23  0  0  1  0  0  0  0  0999 V2000
    7.1973  -16.6893   20.2873 C   0  0  0  0  0  0  0  0  0  0  0  0
    7.3345  -15.2825   20.8063 C   0  0  2  0  0  0  0  0  0  0  0  0
    7.9606  -14.4459   19.8249 N   0  0  0  0  0  0  0  0  0  0  0  0
    8.0629  -15.2611   22.1020 C   0  0  0  0  0  0  0  0  0  0  0  0
    9.2873  -14.9792   22.1211 O   0  0  0  0  0  0  0  0  0  0  0  0
    7.4414  -15.5461   23.3387 N   0  0  0  0  0  0  0  0  0  0  0  0
    8.1385  -15.4752   24.6084 C   0  0  1  0  0  0  0  0  0  0  0  0
    7.1210  -15.1163   25.6489 C   0  0  0  0  0  0  0  0  0  0  0  0
    7.0551  -13.6868   26.0047 C   0  0  0  0  0  0  0  0  0  0  0  0
    5.8746  -12.9889   26.1338 C   0  0  0  0  0  0  0  0  0  0  0  0
    5.8695  -11.6328   26.4819 C   0  0  0  0  0  0  0  0  0  0  0  0
    7.0475  -10.9738   26.7009 C   0  0  0  0  0  0  0  0  0  0  0  0
    8.2242  -11.6428   26.5787 C   0  0  0  0  0  0  0  0  0  0  0  0
    8.2228  -12.9869   26.2336 C   0  0  0  0  0  0  0  0  0  0  0  0
    8.6742  -16.8227   24.8939 C   0  0  0  0  0  0  0  0  0  0  0  0
    7.9971  -17.8908   24.7297 O   0  0  0  0  0  0  0  0  0  0  0  0
   12.6270  -17.4840   24.7387 O   0  0  0  0  0  0  0  0  0  0  0  0
   11.7230  -18.5227   24.6282 C   0  0  0  0  0  0  0  0  0  0  0  0
   10.5519  -18.3180   25.5650 C   0  0  2  0  0  0  0  0  0  0  0  0
    9.9940  -16.9975   25.3741 N   0  0  0  0  0  0  0  0  0  0  0  0
   10.9358  -18.4870   26.9688 C   0  0  0  0  0  0  0  0  0  0  0  0
   10.6950  -17.5003   27.8896 O   0  0  0  0  0  0  0  0  0  0  0  0
   11.4920  -19.5470   27.3359 O   0  0  0  0  0  0  0  0  0  0  0  0
  2  3  1  0
  2  4  1  0
  2  1  1  6
  4  5  2  0
  6  4  1  0
  6  7  1  0
  7 15  1  0
  8  9  1  0
  7  8  1  1
  9 10  2  0
  9 14  1  0
 10 11  1  0
 11 12  2  0
 13 12  1  0
 14 13  2  0
 15 20  1  0
 15 16  2  0
 19 18  1  6
 18 17  1  0
 19 21  1  0
 20 19  1  0
 21 22  1  0
 23 21  2  0
M  END
$$$$
