AFS.pdb
     RDKit          3D

 23 23  0  0  1  0  0  0  0  0999 V2000
    7.5942  -20.3896   21.8077 C   0  0  0  0  0  0  0  0  0  0  0  0
    7.0374  -19.0786   21.3193 C   0  0  2  0  0  0  0  0  0  0  0  0
    7.2286  -18.9498   19.9044 N   0  0  0  0  0  0  0  0  0  0  0  0
    7.6279  -17.9373   22.0666 C   0  0  0  0  0  0  0  0  0  0  0  0
    8.6811  -17.3974   21.6445 O   0  0  0  0  0  0  0  0  0  0  0  0
    7.0582  -17.4153   23.2499 N   0  0  0  0  0  0  0  0  0  0  0  0
    7.6045  -16.2696   23.9513 C   0  0  1  0  0  0  0  0  0  0  0  0
    6.4572  -15.5783   24.6240 C   0  0  0  0  0  0  0  0  0  0  0  0
    6.8038  -14.3541   25.3696 C   0  0  0  0  0  0  0  0  0  0  0  0
    7.1395  -13.1638   24.7631 C   0  0  0  0  0  0  0  0  0  0  0  0
    7.4527  -12.0285   25.5202 C   0  0  0  0  0  0  0  0  0  0  0  0
    7.4301  -12.0843   26.8863 C   0  0  0  0  0  0  0  0  0  0  0  0
    7.1018  -13.2486   27.5057 C   0  0  0  0  0  0  0  0  0  0  0  0
    6.7923  -14.3705   26.7499 C   0  0  0  0  0  0  0  0  0  0  0  0
    8.5349  -16.7832   24.9784 C   0  0  0  0  0  0  0  0  0  0  0  0
    8.2573  -17.7675   25.7402 O   0  0  0  0  0  0  0  0  0  0  0  0
   12.2477  -17.0277   24.1527 O   0  0  0  0  0  0  0  0  0  0  0  0
   12.1801  -16.5924   25.4619 C   0  0  0  0  0  0  0  0  0  0  0  0
   10.7944  -16.8108   26.0302 C   0  0  2  0  0  0  0  0  0  0  0  0
    9.8075  -16.1947   25.1711 N   0  0  0  0  0  0  0  0  0  0  0  0
   10.6658  -16.2709   27.3861 C   0  0  0  0  0  0  0  0  0  0  0  0
   11.4671  -16.7208   28.4034 O   0  0  0  0  0  0  0  0  0  0  0  0
    9.8124  -15.3856   27.6224 O   0  0  0  0  0  0  0  0  0  0  0  0
  2  3  1  0
  2  4  1  0
  2  1  1  1
  4  5  2  0
  6  4  1  0
  6  7  1  0
  7 15  1  0
  8  9  1  0
  7  8  1  1
  9 10  2  0
  9 14  1  0
 10 11  1  0
 11 12  2  0
 13 12  1  0
 14 13  2  0
 15 20  1  0
 15 16  2  0
 19 18  1  6
 18 17  1  0
 19 21  1  0
 20 19  1  0
 21 22  1  0
 23 21  2  0
M  END
$$$$
