AFS.pdb
     RDKit          3D

 23 23  0  0  1  0  0  0  0  0999 V2000
    9.7894  -19.3268   21.8342 C   0  0  0  0  0  0  0  0  0  0  0  0
    9.3082  -18.0555   21.1866 C   0  0  2  0  0  0  0  0  0  0  0  0
   10.0212  -17.8146   19.9664 N   0  0  0  0  0  0  0  0  0  0  0  0
    9.4090  -16.9077   22.1257 C   0  0  0  0  0  0  0  0  0  0  0  0
   10.4420  -16.1923   22.1230 O   0  0  0  0  0  0  0  0  0  0  0  0
    8.3859  -16.5698   23.0402 N   0  0  0  0  0  0  0  0  0  0  0  0
    8.4889  -15.4584   23.9661 C   0  0  1  0  0  0  0  0  0  0  0  0
    7.0968  -14.9592   24.2099 C   0  0  0  0  0  0  0  0  0  0  0  0
    6.9765  -13.8775   25.2049 C   0  0  0  0  0  0  0  0  0  0  0  0
    6.4015  -14.0457   26.4453 C   0  0  0  0  0  0  0  0  0  0  0  0
    6.3203  -12.9851   27.3556 C   0  0  0  0  0  0  0  0  0  0  0  0
    6.8149  -11.7540   27.0243 C   0  0  0  0  0  0  0  0  0  0  0  0
    7.3862  -11.5654   25.8056 C   0  0  0  0  0  0  0  0  0  0  0  0
    7.4639  -12.6206   24.9076 C   0  0  0  0  0  0  0  0  0  0  0  0
    9.0464  -15.9862   25.2290 C   0  0  0  0  0  0  0  0  0  0  0  0
    8.6330  -17.0604   25.7779 O   0  0  0  0  0  0  0  0  0  0  0  0
   12.7124  -16.2576   25.6708 O   0  0  0  0  0  0  0  0  0  0  0  0
   12.2712  -15.7350   26.8710 C   0  0  0  0  0  0  0  0  0  0  0  0
   10.7768  -15.9218   27.0218 C   0  0  2  0  0  0  0  0  0  0  0  0
   10.0894  -15.3102   25.9059 N   0  0  0  0  0  0  0  0  0  0  0  0
   10.2759  -15.3516   28.2750 C   0  0  0  0  0  0  0  0  0  0  0  0
   10.5537  -15.9435   29.4799 O   0  0  0  0  0  0  0  0  0  0  0  0
    9.5838  -14.3085   28.2484 O   0  0  0  0  0  0  0  0  0  0  0  0
  2  3  1  0
  2  4  1  0
  2  1  1  1
  4  5  2  0
  6  4  1  0
  6  7  1  0
  7 15  1  0
  8  9  1  0
  7  8  1  1
  9 10  2  0
  9 14  1  0
 10 11  1  0
 11 12  2  0
 13 12  1  0
 14 13  2  0
 15 20  1  0
 15 16  2  0
 19 18  1  6
 18 17  1  0
 19 21  1  0
 20 19  1  0
 21 22  1  0
 23 21  2  0
M  END
$$$$
