AFS.pdb
     RDKit          3D

 23 23  0  0  1  0  0  0  0  0999 V2000
    8.6161  -18.4580   20.1761 C   0  0  0  0  0  0  0  0  0  0  0  0
    8.9456  -17.0108   19.9228 C   0  0  2  0  0  0  0  0  0  0  0  0
   10.0570  -16.9005   19.0242 N   0  0  0  0  0  0  0  0  0  0  0  0
    9.1881  -16.2881   21.1989 C   0  0  0  0  0  0  0  0  0  0  0  0
   10.3339  -16.3065   21.7146 O   0  0  0  0  0  0  0  0  0  0  0  0
    8.1804  -15.5667   21.8781 N   0  0  0  0  0  0  0  0  0  0  0  0
    8.4065  -14.8926   23.1420 C   0  0  1  0  0  0  0  0  0  0  0  0
    7.2467  -13.9688   23.3609 C   0  0  0  0  0  0  0  0  0  0  0  0
    7.2035  -13.3065   24.6777 C   0  0  0  0  0  0  0  0  0  0  0  0
    8.0649  -12.2983   25.0504 C   0  0  0  0  0  0  0  0  0  0  0  0
    7.9744  -11.6981   26.3121 C   0  0  0  0  0  0  0  0  0  0  0  0
    7.0206  -12.1075   27.2024 C   0  0  0  0  0  0  0  0  0  0  0  0
    6.1603  -13.1009   26.8557 C   0  0  0  0  0  0  0  0  0  0  0  0
    6.2549  -13.6918   25.6036 C   0  0  0  0  0  0  0  0  0  0  0  0
    8.4135  -15.9261   24.1985 C   0  0  0  0  0  0  0  0  0  0  0  0
    7.5124  -16.8225   24.3022 O   0  0  0  0  0  0  0  0  0  0  0  0
   11.6564  -17.6898   25.1124 O   0  0  0  0  0  0  0  0  0  0  0  0
   10.4099  -18.1759   25.4561 C   0  0  0  0  0  0  0  0  0  0  0  0
    9.5622  -17.0884   26.0804 C   0  0  2  0  0  0  0  0  0  0  0  0
    9.4433  -15.9725   25.1682 N   0  0  0  0  0  0  0  0  0  0  0  0
   10.1186  -16.6212   27.3527 C   0  0  0  0  0  0  0  0  0  0  0  0
   10.4620  -15.3061   27.5318 O   0  0  0  0  0  0  0  0  0  0  0  0
   10.2839  -17.4324   28.2921 O   0  0  0  0  0  0  0  0  0  0  0  0
  2  3  1  0
  2  4  1  0
  2  1  1  1
  4  5  2  0
  6  4  1  0
  6  7  1  0
  7 15  1  0
  8  9  1  0
  7  8  1  1
  9 10  2  0
  9 14  1  0
 10 11  1  0
 11 12  2  0
 13 12  1  0
 14 13  2  0
 15 20  1  0
 15 16  2  0
 19 18  1  6
 18 17  1  0
 19 21  1  0
 20 19  1  0
 21 22  1  0
 23 21  2  0
M  END
$$$$
