AFS.pdb
     RDKit          3D

 23 23  0  0  1  0  0  0  0  0999 V2000
    7.5764  -15.4008   18.7942 C   0  0  0  0  0  0  0  0  0  0  0  0
    7.4888  -13.9899   19.3127 C   0  0  2  0  0  0  0  0  0  0  0  0
    8.1651  -13.0884   18.4268 N   0  0  0  0  0  0  0  0  0  0  0  0
    8.0091  -13.8994   20.7022 C   0  0  0  0  0  0  0  0  0  0  0  0
    9.2135  -13.5977   20.8955 O   0  0  0  0  0  0  0  0  0  0  0  0
    7.2075  -14.1390   21.8411 N   0  0  0  0  0  0  0  0  0  0  0  0
    7.7044  -14.0141   23.1978 C   0  0  1  0  0  0  0  0  0  0  0  0
    6.5380  -13.6356   24.0597 C   0  0  0  0  0  0  0  0  0  0  0  0
    6.8524  -13.3894   25.4793 C   0  0  0  0  0  0  0  0  0  0  0  0
    6.9955  -14.3932   26.4116 C   0  0  0  0  0  0  0  0  0  0  0  0
    7.3025  -14.1032   27.7465 C   0  0  0  0  0  0  0  0  0  0  0  0
    7.4663  -12.8067   28.1493 C   0  0  0  0  0  0  0  0  0  0  0  0
    7.3293  -11.8004   27.2461 C   0  0  0  0  0  0  0  0  0  0  0  0
    7.0251  -12.0941   25.9244 C   0  0  0  0  0  0  0  0  0  0  0  0
    8.2042  -15.3428   23.6089 C   0  0  0  0  0  0  0  0  0  0  0  0
    7.5674  -16.4255   23.3887 O   0  0  0  0  0  0  0  0  0  0  0  0
   11.2395  -16.4599   22.6725 O   0  0  0  0  0  0  0  0  0  0  0  0
   11.2450  -17.0585   23.9175 C   0  0  0  0  0  0  0  0  0  0  0  0
    9.9501  -16.7840   24.6516 C   0  0  2  0  0  0  0  0  0  0  0  0
    9.4414  -15.4817   24.2820 N   0  0  0  0  0  0  0  0  0  0  0  0
   10.1193  -16.8470   26.1055 C   0  0  0  0  0  0  0  0  0  0  0  0
   10.5414  -17.9990   26.7172 O   0  0  0  0  0  0  0  0  0  0  0  0
    9.8757  -15.8356   26.8022 O   0  0  0  0  0  0  0  0  0  0  0  0
  2  3  1  0
  2  4  1  0
  2  1  1  6
  4  5  2  0
  6  4  1  0
  6  7  1  0
  7 15  1  0
  8  9  1  0
  7  8  1  1
  9 10  2  0
  9 14  1  0
 10 11  1  0
 11 12  2  0
 13 12  1  0
 14 13  2  0
 15 20  1  0
 15 16  2  0
 19 18  1  6
 18 17  1  0
 19 21  1  0
 20 19  1  0
 21 22  1  0
 23 21  2  0
M  END
$$$$
