AFS.pdb
     RDKit          3D

 23 23  0  0  1  0  0  0  0  0999 V2000
   10.1230  -16.1062   18.8816 C   0  0  0  0  0  0  0  0  0  0  0  0
    9.7651  -16.9311   20.0893 C   0  0  2  0  0  0  0  0  0  0  0  0
    8.4861  -17.5529   19.9093 N   0  0  0  0  0  0  0  0  0  0  0  0
    9.8159  -16.1117   21.3285 C   0  0  0  0  0  0  0  0  0  0  0  0
   10.9022  -15.5889   21.6829 O   0  0  0  0  0  0  0  0  0  0  0  0
    8.6866  -15.8835   22.1468 N   0  0  0  0  0  0  0  0  0  0  0  0
    8.7324  -15.0739   23.3491 C   0  0  1  0  0  0  0  0  0  0  0  0
    7.4036  -14.3908   23.4697 C   0  0  0  0  0  0  0  0  0  0  0  0
    7.2095  -13.5938   24.6951 C   0  0  0  0  0  0  0  0  0  0  0  0
    6.4376  -14.0088   25.7578 C   0  0  0  0  0  0  0  0  0  0  0  0
    6.2936  -13.2147   26.9019 C   0  0  0  0  0  0  0  0  0  0  0  0
    6.9228  -12.0033   26.9828 C   0  0  0  0  0  0  0  0  0  0  0  0
    7.6892  -11.5739   25.9458 C   0  0  0  0  0  0  0  0  0  0  0  0
    7.8282  -12.3655   24.8145 C   0  0  0  0  0  0  0  0  0  0  0  0
    8.9147  -15.9920   24.4929 C   0  0  0  0  0  0  0  0  0  0  0  0
    8.1720  -17.0086   24.6956 O   0  0  0  0  0  0  0  0  0  0  0  0
   11.7926  -17.6462   24.7231 O   0  0  0  0  0  0  0  0  0  0  0  0
   11.6847  -17.3493   26.0679 C   0  0  0  0  0  0  0  0  0  0  0  0
   10.3073  -16.8112   26.3907 C   0  0  2  0  0  0  0  0  0  0  0  0
    9.9453  -15.7833   25.4401 N   0  0  0  0  0  0  0  0  0  0  0  0
   10.2351  -16.2667   27.7490 C   0  0  0  0  0  0  0  0  0  0  0  0
   10.5021  -17.0536   28.8394 O   0  0  0  0  0  0  0  0  0  0  0  0
    9.9254  -15.0656   27.9196 O   0  0  0  0  0  0  0  0  0  0  0  0
  2  3  1  0
  2  4  1  0
  2  1  1  6
  4  5  2  0
  6  4  1  0
  6  7  1  0
  7 15  1  0
  8  9  1  0
  7  8  1  1
  9 10  2  0
  9 14  1  0
 10 11  1  0
 11 12  2  0
 13 12  1  0
 14 13  2  0
 15 20  1  0
 15 16  2  0
 19 18  1  6
 18 17  1  0
 19 21  1  0
 20 19  1  0
 21 22  1  0
 23 21  2  0
M  END
$$$$
