AFS.pdb
     RDKit          3D

 23 23  0  0  1  0  0  0  0  0999 V2000
    8.8881  -18.4192   20.3245 C   0  0  0  0  0  0  0  0  0  0  0  0
    9.0959  -16.9610   20.0119 C   0  0  2  0  0  0  0  0  0  0  0  0
   10.1941  -16.7951   19.1055 N   0  0  0  0  0  0  0  0  0  0  0  0
    9.2779  -16.1697   21.2571 C   0  0  0  0  0  0  0  0  0  0  0  0
   10.4367  -15.9593   21.6951 O   0  0  0  0  0  0  0  0  0  0  0  0
    8.1972  -15.6298   21.9904 N   0  0  0  0  0  0  0  0  0  0  0  0
    8.3679  -14.9260   23.2468 C   0  0  1  0  0  0  0  0  0  0  0  0
    7.1279  -14.1132   23.4671 C   0  0  0  0  0  0  0  0  0  0  0  0
    7.0468  -13.4199   24.7661 C   0  0  0  0  0  0  0  0  0  0  0  0
    6.2366  -13.8345   25.8000 C   0  0  0  0  0  0  0  0  0  0  0  0
    6.2042  -13.1426   27.0168 C   0  0  0  0  0  0  0  0  0  0  0  0
    6.9837  -12.0339   27.1992 C   0  0  0  0  0  0  0  0  0  0  0  0
    7.7905  -11.6069   26.1923 C   0  0  0  0  0  0  0  0  0  0  0  0
    7.8183  -12.2970   24.9886 C   0  0  0  0  0  0  0  0  0  0  0  0
    8.4795  -15.9446   24.3119 C   0  0  0  0  0  0  0  0  0  0  0  0
    7.6609  -16.9143   24.4370 O   0  0  0  0  0  0  0  0  0  0  0  0
   12.0390  -17.1237   25.5304 O   0  0  0  0  0  0  0  0  0  0  0  0
   10.8787  -17.8581   25.6800 C   0  0  0  0  0  0  0  0  0  0  0  0
    9.7511  -16.9845   26.1864 C   0  0  2  0  0  0  0  0  0  0  0  0
    9.5234  -15.8924   25.2661 N   0  0  0  0  0  0  0  0  0  0  0  0
   10.0294  -16.4478   27.5209 C   0  0  0  0  0  0  0  0  0  0  0  0
   10.2624  -17.2833   28.5827 O   0  0  0  0  0  0  0  0  0  0  0  0
   10.0555  -15.2086   27.6975 O   0  0  0  0  0  0  0  0  0  0  0  0
  2  3  1  0
  2  4  1  0
  2  1  1  1
  4  5  2  0
  6  4  1  0
  6  7  1  0
  7 15  1  0
  8  9  1  0
  7  8  1  1
  9 10  2  0
  9 14  1  0
 10 11  1  0
 11 12  2  0
 13 12  1  0
 14 13  2  0
 15 20  1  0
 15 16  2  0
 19 18  1  6
 18 17  1  0
 19 21  1  0
 20 19  1  0
 21 22  1  0
 23 21  2  0
M  END
$$$$
