AFS.pdb
     RDKit          3D

 23 23  0  0  1  0  0  0  0  0999 V2000
    9.1376  -17.4483   17.9995 C   0  0  0  0  0  0  0  0  0  0  0  0
    9.5663  -18.1071   19.2838 C   0  0  2  0  0  0  0  0  0  0  0  0
    8.4764  -18.8400   19.8583 N   0  0  0  0  0  0  0  0  0  0  0  0
   10.1278  -17.1101   20.2327 C   0  0  0  0  0  0  0  0  0  0  0  0
   11.1853  -16.4991   19.9372 O   0  0  0  0  0  0  0  0  0  0  0  0
    9.5255  -16.8054   21.4742 N   0  0  0  0  0  0  0  0  0  0  0  0
   10.0324  -15.7826   22.3686 C   0  0  1  0  0  0  0  0  0  0  0  0
    8.8573  -14.9636   22.8103 C   0  0  0  0  0  0  0  0  0  0  0  0
    8.1323  -14.2632   21.7341 C   0  0  0  0  0  0  0  0  0  0  0  0
    8.5913  -13.1126   21.1317 C   0  0  0  0  0  0  0  0  0  0  0  0
    7.8656  -12.4923   20.1076 C   0  0  0  0  0  0  0  0  0  0  0  0
    6.6784  -13.0239   19.6857 C   0  0  0  0  0  0  0  0  0  0  0  0
    6.2064  -14.1585   20.2663 C   0  0  0  0  0  0  0  0  0  0  0  0
    6.9304  -14.7689   21.2808 C   0  0  0  0  0  0  0  0  0  0  0  0
   10.6161  -16.4699   23.5396 C   0  0  0  0  0  0  0  0  0  0  0  0
   11.0607  -15.8497   24.5613 O   0  0  0  0  0  0  0  0  0  0  0  0
   11.4694  -20.6455   25.8315 O   0  0  0  0  0  0  0  0  0  0  0  0
   10.8665  -19.9842   24.7792 C   0  0  0  0  0  0  0  0  0  0  0  0
   11.3493  -18.5520   24.6969 C   0  0  2  0  0  0  0  0  0  0  0  0
   10.7124  -17.8811   23.5853 N   0  0  0  0  0  0  0  0  0  0  0  0
   12.8044  -18.4710   24.5468 C   0  0  0  0  0  0  0  0  0  0  0  0
   13.3735  -18.1897   23.3317 O   0  0  0  0  0  0  0  0  0  0  0  0
   13.5416  -18.6609   25.5408 O   0  0  0  0  0  0  0  0  0  0  0  0
  2  3  1  0
  2  4  1  0
  2  1  1  6
  4  5  2  0
  6  4  1  0
  6  7  1  0
  7 15  1  0
  8  9  1  0
  7  8  1  1
  9 10  2  0
  9 14  1  0
 10 11  1  0
 11 12  2  0
 13 12  1  0
 14 13  2  0
 15 20  1  0
 15 16  2  0
 19 18  1  6
 18 17  1  0
 19 21  1  0
 20 19  1  0
 21 22  1  0
 23 21  2  0
M  END
$$$$
