AFS.pdb
     RDKit          3D

 23 23  0  0  1  0  0  0  0  0999 V2000
    6.8504  -20.8873   23.3006 C   0  0  0  0  0  0  0  0  0  0  0  0
    5.8338  -19.7967   23.0902 C   0  0  2  0  0  0  0  0  0  0  0  0
    5.1915  -19.9501   21.8179 N   0  0  0  0  0  0  0  0  0  0  0  0
    6.4533  -18.4540   23.2424 C   0  0  0  0  0  0  0  0  0  0  0  0
    6.9641  -17.8892   22.2429 O   0  0  0  0  0  0  0  0  0  0  0  0
    6.5003  -17.7636   24.4746 N   0  0  0  0  0  0  0  0  0  0  0  0
    7.1093  -16.4561   24.6252 C   0  0  1  0  0  0  0  0  0  0  0  0
    6.6108  -15.8856   25.9185 C   0  0  0  0  0  0  0  0  0  0  0  0
    7.0596  -14.5139   26.2210 C   0  0  0  0  0  0  0  0  0  0  0  0
    8.2757  -14.2215   26.7981 C   0  0  0  0  0  0  0  0  0  0  0  0
    8.6552  -12.8988   27.0566 C   0  0  0  0  0  0  0  0  0  0  0  0
    7.8165  -11.8671   26.7374 C   0  0  0  0  0  0  0  0  0  0  0  0
    6.6115  -12.1326   26.1675 C   0  0  0  0  0  0  0  0  0  0  0  0
    6.2410  -13.4456   25.9136 C   0  0  0  0  0  0  0  0  0  0  0  0
    8.5710  -16.6572   24.7115 C   0  0  0  0  0  0  0  0  0  0  0  0
    9.1042  -17.6365   25.3302 O   0  0  0  0  0  0  0  0  0  0  0  0
   12.5606  -15.7406   22.1723 O   0  0  0  0  0  0  0  0  0  0  0  0
   11.2919  -15.3480   22.5523 C   0  0  0  0  0  0  0  0  0  0  0  0
   10.8096  -16.1598   23.7352 C   0  0  2  0  0  0  0  0  0  0  0  0
    9.4702  -15.7527   24.0982 N   0  0  0  0  0  0  0  0  0  0  0  0
   11.6936  -16.0185   24.8950 C   0  0  0  0  0  0  0  0  0  0  0  0
   11.2237  -15.5231   26.0838 O   0  0  0  0  0  0  0  0  0  0  0  0
   12.8963  -16.3541   24.8022 O   0  0  0  0  0  0  0  0  0  0  0  0
  2  3  1  0
  2  4  1  0
  2  1  1  6
  4  5  2  0
  6  4  1  0
  6  7  1  0
  7 15  1  0
  8  9  1  0
  7  8  1  1
  9 10  2  0
  9 14  1  0
 10 11  1  0
 11 12  2  0
 13 12  1  0
 14 13  2  0
 15 20  1  0
 15 16  2  0
 19 18  1  6
 18 17  1  0
 19 21  1  0
 20 19  1  0
 21 22  1  0
 23 21  2  0
M  END
$$$$
