AFS.pdb
     RDKit          3D

 23 23  0  0  1  0  0  0  0  0999 V2000
    8.9129  -18.2978   20.0053 C   0  0  0  0  0  0  0  0  0  0  0  0
    9.3342  -16.8575   19.8821 C   0  0  2  0  0  0  0  0  0  0  0  0
   10.5417  -16.7531   19.1166 N   0  0  0  0  0  0  0  0  0  0  0  0
    9.4677  -16.2249   21.2207 C   0  0  0  0  0  0  0  0  0  0  0  0
   10.5870  -16.2104   21.7915 O   0  0  0  0  0  0  0  0  0  0  0  0
    8.3828  -15.6266   21.9005 N   0  0  0  0  0  0  0  0  0  0  0  0
    8.5268  -14.9424   23.1710 C   0  0  1  0  0  0  0  0  0  0  0  0
    7.2930  -14.1140   23.3663 C   0  0  0  0  0  0  0  0  0  0  0  0
    7.2084  -13.3959   24.6514 C   0  0  0  0  0  0  0  0  0  0  0  0
    8.0204  -12.3341   24.9842 C   0  0  0  0  0  0  0  0  0  0  0  0
    7.8918  -11.6826   26.2168 C   0  0  0  0  0  0  0  0  0  0  0  0
    6.9494  -12.0944   27.1181 C   0  0  0  0  0  0  0  0  0  0  0  0
    6.1377  -13.1402   26.8107 C   0  0  0  0  0  0  0  0  0  0  0  0
    6.2699  -13.7819   25.5873 C   0  0  0  0  0  0  0  0  0  0  0  0
    8.5920  -15.9769   24.2246 C   0  0  0  0  0  0  0  0  0  0  0  0
    7.7527  -16.9327   24.3153 O   0  0  0  0  0  0  0  0  0  0  0  0
   12.1128  -17.1135   25.4326 O   0  0  0  0  0  0  0  0  0  0  0  0
   10.9946  -17.9060   25.6051 C   0  0  0  0  0  0  0  0  0  0  0  0
    9.8213  -17.0820   26.0900 C   0  0  2  0  0  0  0  0  0  0  0  0
    9.6114  -15.9567   25.2061 N   0  0  0  0  0  0  0  0  0  0  0  0
   10.0192  -16.5970   27.4583 C   0  0  0  0  0  0  0  0  0  0  0  0
   10.2570  -17.4698   28.4885 O   0  0  0  0  0  0  0  0  0  0  0  0
    9.9711  -15.3682   27.6934 O   0  0  0  0  0  0  0  0  0  0  0  0
  2  3  1  0
  2  4  1  0
  2  1  1  1
  4  5  2  0
  6  4  1  0
  6  7  1  0
  7 15  1  0
  8  9  1  0
  7  8  1  1
  9 10  2  0
  9 14  1  0
 10 11  1  0
 11 12  2  0
 13 12  1  0
 14 13  2  0
 15 20  1  0
 15 16  2  0
 19 18  1  6
 18 17  1  0
 19 21  1  0
 20 19  1  0
 21 22  1  0
 23 21  2  0
M  END
$$$$
