AFS.pdb
     RDKit          3D

 23 23  0  0  1  0  0  0  0  0999 V2000
    7.5196  -15.2063   19.3221 C   0  0  0  0  0  0  0  0  0  0  0  0
    7.5028  -13.9663   20.1759 C   0  0  2  0  0  0  0  0  0  0  0  0
    8.0892  -12.8648   19.4702 N   0  0  0  0  0  0  0  0  0  0  0  0
    8.1704  -14.2091   21.4817 C   0  0  0  0  0  0  0  0  0  0  0  0
    9.3771  -13.8918   21.6303 O   0  0  0  0  0  0  0  0  0  0  0  0
    7.5091  -14.7891   22.5877 N   0  0  0  0  0  0  0  0  0  0  0  0
    8.1247  -14.9262   23.8936 C   0  0  1  0  0  0  0  0  0  0  0  0
    7.0224  -14.8655   24.9075 C   0  0  0  0  0  0  0  0  0  0  0  0
    6.9389  -13.6114   25.6787 C   0  0  0  0  0  0  0  0  0  0  0  0
    8.0378  -12.9641   26.1991 C   0  0  0  0  0  0  0  0  0  0  0  0
    7.9019  -11.7702   26.9178 C   0  0  0  0  0  0  0  0  0  0  0  0
    6.6644  -11.2233   27.1163 C   0  0  0  0  0  0  0  0  0  0  0  0
    5.5662  -11.8453   26.6119 C   0  0  0  0  0  0  0  0  0  0  0  0
    5.7074  -13.0283   25.9004 C   0  0  0  0  0  0  0  0  0  0  0  0
    8.7612  -16.2591   23.9439 C   0  0  0  0  0  0  0  0  0  0  0  0
    8.1475  -17.3360   23.6443 O   0  0  0  0  0  0  0  0  0  0  0  0
   12.8350  -16.6223   24.0083 O   0  0  0  0  0  0  0  0  0  0  0  0
   12.0410  -17.6711   23.5865 C   0  0  0  0  0  0  0  0  0  0  0  0
   10.7436  -17.7099   24.3651 C   0  0  2  0  0  0  0  0  0  0  0  0
   10.1129  -16.4088   24.3356 N   0  0  0  0  0  0  0  0  0  0  0  0
   10.9503  -18.1204   25.7562 C   0  0  0  0  0  0  0  0  0  0  0  0
   11.4959  -19.3414   26.0578 O   0  0  0  0  0  0  0  0  0  0  0  0
   10.6248  -17.3470   26.6855 O   0  0  0  0  0  0  0  0  0  0  0  0
  2  3  1  0
  2  4  1  0
  2  1  1  6
  4  5  2  0
  6  4  1  0
  6  7  1  0
  7 15  1  0
  8  9  1  0
  7  8  1  1
  9 10  2  0
  9 14  1  0
 10 11  1  0
 11 12  2  0
 13 12  1  0
 14 13  2  0
 15 20  1  0
 15 16  2  0
 19 18  1  6
 18 17  1  0
 19 21  1  0
 20 19  1  0
 21 22  1  0
 23 21  2  0
M  END
$$$$
