HMN.pdb
     RDKit          3D

 27 27  0  0  1  0  0  0  0  0999 V2000
   24.1494  -14.1890  -18.0594 N   0  0  0  0  0  0  0  0  0  0  0  0
   24.4688  -13.1417  -17.1387 C   0  0  1  0  0  0  0  0  0  0  0  0
   25.9612  -13.1891  -16.8849 C   0  0  0  0  0  0  0  0  0  0  0  0
   26.3052  -14.4601  -16.2057 C   0  0  0  0  0  0  0  0  0  0  0  0
   26.4474  -15.7069  -16.7963 C   0  0  0  0  0  0  0  0  0  0  0  0
   26.7617  -16.6002  -15.8482 N   0  0  0  0  0  0  0  0  0  0  0  0
   26.8264  -15.9688  -14.6662 C   0  0  0  0  0  0  0  0  0  0  0  0
   26.5455  -14.6588  -14.8939 N   0  0  0  0  0  0  0  0  0  0  0  0
   24.0589  -11.8297  -17.6862 C   0  0  0  0  0  0  0  0  0  0  0  0
   24.1305  -11.6194  -18.9223 O   0  0  0  0  0  0  0  0  0  0  0  0
   18.2325   -8.5926  -20.0810 C   0  0  0  0  0  0  0  0  0  0  0  0
   19.4209   -9.8261  -19.5345 S   0  0  0  0  0  0  0  0  0  0  0  0
   20.8329   -9.0696  -18.6707 C   0  0  0  0  0  0  0  0  0  0  0  0
   21.7799  -10.0833  -18.1470 C   0  0  0  0  0  0  0  0  0  0  0  0
   22.9367   -9.5855  -17.3481 C   0  0  2  0  0  0  0  0  0  0  0  0
   23.5893  -10.8157  -16.8331 N   0  0  0  0  0  0  0  0  0  0  0  0
   22.6134   -8.6818  -16.2419 C   0  0  0  0  0  0  0  0  0  0  0  0
   22.1453   -9.1430  -15.1443 O   0  0  0  0  0  0  0  0  0  0  0  0
   21.8315   -4.4637  -13.3185 N   0  0  0  0  0  0  0  0  0  0  0  0
   22.6089   -4.0354  -14.4608 C   0  0  0  0  0  0  0  0  0  0  0  0
   22.9697   -2.8475  -14.5309 O   0  0  0  0  0  0  0  0  0  0  0  0
   22.9620   -4.9946  -15.5166 C   0  0  0  0  0  0  0  0  0  0  0  0
   22.4963   -6.3648  -15.2141 C   0  0  2  0  0  0  0  0  0  0  0  0
   22.8044   -7.2825  -16.3357 N   0  0  0  0  0  0  0  0  0  0  0  0
   21.0204   -6.3810  -15.0214 C   0  0  0  0  0  0  0  0  0  0  0  0
   20.2452   -6.3829  -15.9790 O   0  0  0  0  0  0  0  0  0  0  0  0
   20.4465   -6.3939  -13.7497 O   0  0  0  0  0  0  0  0  0  0  0  0
  2  1  1  6
  2  3  1  0
  4  8  1  0
  4  3  1  0
  5  4  2  0
  6  5  1  0
  6  7  1  0
  7  8  2  0
  9  2  1  0
 10  9  2  0
 12 11  1  0
 13 12  1  0
 14 13  1  0
 15 14  1  1
 15 16  1  0
 16  9  1  0
 17 15  1  0
 17 18  2  0
 20 21  2  0
 20 19  1  0
 22 20  1  0
 23 22  1  6
 23 24  1  0
 24 17  1  0
 25 23  1  0
 26 25  2  0
 27 25  1  0
M  END
$$$$
