HMN.pdb
     RDKit          3D

 27 27  0  0  1  0  0  0  0  0999 V2000
   26.9170  -19.7143  -15.6980 N   0  0  0  0  0  0  0  0  0  0  0  0
   26.4017  -20.9593  -16.1785 C   0  0  1  0  0  0  0  0  0  0  0  0
   27.5797  -21.8667  -16.4659 C   0  0  0  0  0  0  0  0  0  0  0  0
   28.4660  -21.2224  -17.4632 C   0  0  0  0  0  0  0  0  0  0  0  0
   29.7189  -20.6748  -17.2318 C   0  0  0  0  0  0  0  0  0  0  0  0
   30.1978  -20.1899  -18.3857 N   0  0  0  0  0  0  0  0  0  0  0  0
   29.2935  -20.4076  -19.3525 C   0  0  0  0  0  0  0  0  0  0  0  0
   28.2361  -21.0402  -18.7794 N   0  0  0  0  0  0  0  0  0  0  0  0
   25.4914  -21.5616  -15.1798 C   0  0  0  0  0  0  0  0  0  0  0  0
   24.9416  -22.6646  -15.4216 O   0  0  0  0  0  0  0  0  0  0  0  0
   25.3705  -19.9317   -8.8327 C   0  0  0  0  0  0  0  0  0  0  0  0
   26.5619  -21.0743   -9.5450 S   0  0  0  0  0  0  0  0  0  0  0  0
   26.0274  -21.6799  -11.1759 C   0  0  0  0  0  0  0  0  0  0  0  0
   24.7970  -21.0026  -11.6514 C   0  0  0  0  0  0  0  0  0  0  0  0
   24.2549  -21.4260  -12.9746 C   0  0  2  0  0  0  0  0  0  0  0  0
   25.2367  -20.9088  -13.9610 N   0  0  0  0  0  0  0  0  0  0  0  0
   22.9091  -20.9494  -13.3009 C   0  0  0  0  0  0  0  0  0  0  0  0
   22.7094  -19.7188  -13.5876 O   0  0  0  0  0  0  0  0  0  0  0  0
   17.9331  -20.5670  -14.5736 N   0  0  0  0  0  0  0  0  0  0  0  0
   18.5602  -21.6937  -15.2292 C   0  0  0  0  0  0  0  0  0  0  0  0
   17.9482  -22.2744  -16.1427 O   0  0  0  0  0  0  0  0  0  0  0  0
   19.8987  -22.1383  -14.8165 C   0  0  0  0  0  0  0  0  0  0  0  0
   20.4331  -21.3486  -13.6866 C   0  0  2  0  0  0  0  0  0  0  0  0
   21.7896  -21.8153  -13.3162 N   0  0  0  0  0  0  0  0  0  0  0  0
   19.5671  -21.5074  -12.4864 C   0  0  0  0  0  0  0  0  0  0  0  0
   19.6456  -22.5006  -11.7618 O   0  0  0  0  0  0  0  0  0  0  0  0
   18.6270  -20.5412  -12.1267 O   0  0  0  0  0  0  0  0  0  0  0  0
  2  1  1  1
  2  3  1  0
  4  8  1  0
  4  3  1  0
  5  4  2  0
  6  5  1  0
  6  7  1  0
  7  8  2  0
  9  2  1  0
 10  9  2  0
 12 11  1  0
 13 12  1  0
 14 13  1  0
 15 14  1  1
 15 16  1  0
 16  9  1  0
 17 15  1  0
 17 18  2  0
 20 21  2  0
 20 19  1  0
 22 20  1  0
 23 22  1  6
 23 24  1  0
 24 17  1  0
 25 23  1  0
 26 25  2  0
 27 25  1  0
M  END
$$$$
