HMN.pdb
     RDKit          3D

 27 27  0  0  1  0  0  0  0  0999 V2000
   19.1982  -14.0384  -16.7475 N   0  0  0  0  0  0  0  0  0  0  0  0
   18.8300  -12.6562  -16.7691 C   0  0  1  0  0  0  0  0  0  0  0  0
   17.4291  -12.5425  -16.2049 C   0  0  0  0  0  0  0  0  0  0  0  0
   16.4813  -13.2566  -17.0921 C   0  0  0  0  0  0  0  0  0  0  0  0
   15.5266  -14.1878  -16.7118 C   0  0  0  0  0  0  0  0  0  0  0  0
   14.8704  -14.6036  -17.8038 N   0  0  0  0  0  0  0  0  0  0  0  0
   15.3719  -13.9701  -18.8747 C   0  0  0  0  0  0  0  0  0  0  0  0
   16.3579  -13.1472  -18.4304 N   0  0  0  0  0  0  0  0  0  0  0  0
   19.7920  -11.8529  -15.9829 C   0  0  0  0  0  0  0  0  0  0  0  0
   19.5818  -11.6467  -14.7620 O   0  0  0  0  0  0  0  0  0  0  0  0
   27.4597  -10.5108  -15.5081 C   0  0  0  0  0  0  0  0  0  0  0  0
   25.9979  -11.2379  -16.2611 S   0  0  0  0  0  0  0  0  0  0  0  0
   24.4666  -10.4726  -15.6434 C   0  0  0  0  0  0  0  0  0  0  0  0
   23.2524  -11.1148  -16.2020 C   0  0  0  0  0  0  0  0  0  0  0  0
   21.9364  -10.5147  -15.8385 C   0  0  2  0  0  0  0  0  0  0  0  0
   20.9408  -11.3183  -16.5918 N   0  0  0  0  0  0  0  0  0  0  0  0
   21.7728   -9.0911  -16.1412 C   0  0  0  0  0  0  0  0  0  0  0  0
   21.5402   -8.7061  -17.3388 O   0  0  0  0  0  0  0  0  0  0  0  0
   22.2474   -3.5841  -13.6456 N   0  0  0  0  0  0  0  0  0  0  0  0
   21.4127   -4.4306  -14.4699 C   0  0  0  0  0  0  0  0  0  0  0  0
   20.7279   -3.9087  -15.3670 O   0  0  0  0  0  0  0  0  0  0  0  0
   21.3804   -5.8823  -14.2441 C   0  0  0  0  0  0  0  0  0  0  0  0
   21.7630   -6.6502  -15.4482 C   0  0  2  0  0  0  0  0  0  0  0  0
   21.8602   -8.0959  -15.1387 N   0  0  0  0  0  0  0  0  0  0  0  0
   23.0974   -6.2122  -15.9411 C   0  0  0  0  0  0  0  0  0  0  0  0
   24.1404   -6.6426  -15.4465 O   0  0  0  0  0  0  0  0  0  0  0  0
   23.2296   -5.2948  -16.9841 O   0  0  0  0  0  0  0  0  0  0  0  0
  2  1  1  1
  2  3  1  0
  4  8  1  0
  4  3  1  0
  5  4  2  0
  6  5  1  0
  6  7  1  0
  7  8  2  0
  9  2  1  0
 10  9  2  0
 12 11  1  0
 13 12  1  0
 14 13  1  0
 15 14  1  6
 15 16  1  0
 16  9  1  0
 17 15  1  0
 17 18  2  0
 20 21  2  0
 20 19  1  0
 22 20  1  0
 23 22  1  1
 23 24  1  0
 24 17  1  0
 25 23  1  0
 26 25  2  0
 27 25  1  0
M  END
$$$$
