HMN.pdb
     RDKit          3D

 27 27  0  0  1  0  0  0  0  0999 V2000
   20.2790  -12.8975  -16.6316 N   0  0  0  0  0  0  0  0  0  0  0  0
   19.9222  -11.5154  -16.7272 C   0  0  1  0  0  0  0  0  0  0  0  0
   18.4669  -11.3855  -16.3286 C   0  0  0  0  0  0  0  0  0  0  0  0
   17.6113  -11.9586  -17.3938 C   0  0  0  0  0  0  0  0  0  0  0  0
   17.6139  -13.2689  -17.8480 C   0  0  0  0  0  0  0  0  0  0  0  0
   16.6977  -13.3912  -18.8183 N   0  0  0  0  0  0  0  0  0  0  0  0
   16.1053  -12.2018  -19.0034 C   0  0  0  0  0  0  0  0  0  0  0  0
   16.6704  -11.3301  -18.1274 N   0  0  0  0  0  0  0  0  0  0  0  0
   20.7926  -10.6957  -15.8558 C   0  0  0  0  0  0  0  0  0  0  0  0
   21.0255  -11.0675  -14.6790 O   0  0  0  0  0  0  0  0  0  0  0  0
   26.2769   -8.0571  -19.1348 C   0  0  0  0  0  0  0  0  0  0  0  0
   25.7934   -8.5801  -17.4840 S   0  0  0  0  0  0  0  0  0  0  0  0
   24.0222   -8.2973  -17.1760 C   0  0  0  0  0  0  0  0  0  0  0  0
   23.5799   -8.8634  -15.8788 C   0  0  0  0  0  0  0  0  0  0  0  0
   22.1692   -8.6062  -15.4695 C   0  0  2  0  0  0  0  0  0  0  0  0
   21.3619   -9.5028  -16.3348 N   0  0  0  0  0  0  0  0  0  0  0  0
   21.7038   -7.2235  -15.5979 C   0  0  0  0  0  0  0  0  0  0  0  0
   21.3774   -6.7535  -16.7421 O   0  0  0  0  0  0  0  0  0  0  0  0
   20.1982   -2.3691  -14.8301 N   0  0  0  0  0  0  0  0  0  0  0  0
   19.2569   -3.4222  -14.5177 C   0  0  0  0  0  0  0  0  0  0  0  0
   18.0582   -3.1302  -14.3624 O   0  0  0  0  0  0  0  0  0  0  0  0
   19.7178   -4.8115  -14.3879 C   0  0  0  0  0  0  0  0  0  0  0  0
   21.1732   -4.9472  -14.6102 C   0  0  2  0  0  0  0  0  0  0  0  0
   21.5934   -6.3620  -14.4804 N   0  0  0  0  0  0  0  0  0  0  0  0
   21.9289   -4.1656  -13.5935 C   0  0  0  0  0  0  0  0  0  0  0  0
   21.9127   -2.9338  -13.5847 O   0  0  0  0  0  0  0  0  0  0  0  0
   22.6902   -4.7901  -12.6050 O   0  0  0  0  0  0  0  0  0  0  0  0
  2  1  1  1
  2  3  1  0
  4  8  1  0
  4  3  1  0
  5  4  2  0
  6  5  1  0
  6  7  1  0
  7  8  2  0
  9  2  1  0
 10  9  2  0
 12 11  1  0
 13 12  1  0
 14 13  1  0
 15 14  1  6
 15 16  1  0
 16  9  1  0
 17 15  1  0
 17 18  2  0
 20 21  2  0
 20 19  1  0
 22 20  1  0
 23 22  1  1
 23 24  1  0
 24 17  1  0
 25 23  1  0
 26 25  2  0
 27 25  1  0
M  END
$$$$
