HMN.pdb
     RDKit          3D

 27 27  0  0  1  0  0  0  0  0999 V2000
   28.4126  -20.8749  -15.8056 N   0  0  0  0  0  0  0  0  0  0  0  0
   27.7518  -20.0762  -14.8197 C   0  0  1  0  0  0  0  0  0  0  0  0
   26.8530  -19.0967  -15.5454 C   0  0  0  0  0  0  0  0  0  0  0  0
   27.6816  -18.0468  -16.1827 C   0  0  0  0  0  0  0  0  0  0  0  0
   27.9456  -16.7794  -15.6853 C   0  0  0  0  0  0  0  0  0  0  0  0
   28.7330  -16.1303  -16.5539 N   0  0  0  0  0  0  0  0  0  0  0  0
   28.9843  -16.9389  -17.5945 C   0  0  0  0  0  0  0  0  0  0  0  0
   28.3369  -18.1103  -17.3595 N   0  0  0  0  0  0  0  0  0  0  0  0
   26.9766  -20.9329  -13.8956 C   0  0  0  0  0  0  0  0  0  0  0  0
   26.3940  -21.9557  -14.3334 O   0  0  0  0  0  0  0  0  0  0  0  0
   27.4723  -20.4537   -7.4213 C   0  0  0  0  0  0  0  0  0  0  0  0
   25.6960  -20.2518   -7.6126 S   0  0  0  0  0  0  0  0  0  0  0  0
   25.1187  -20.8411   -9.2348 C   0  0  0  0  0  0  0  0  0  0  0  0
   26.1062  -20.5832  -10.3104 C   0  0  0  0  0  0  0  0  0  0  0  0
   25.7930  -21.1217  -11.6654 C   0  0  2  0  0  0  0  0  0  0  0  0
   26.8867  -20.6110  -12.5300 N   0  0  0  0  0  0  0  0  0  0  0  0
   24.4906  -20.7477  -12.2212 C   0  0  0  0  0  0  0  0  0  0  0  0
   24.2529  -19.5361  -12.5560 O   0  0  0  0  0  0  0  0  0  0  0  0
   22.9061  -24.3970  -14.9155 N   0  0  0  0  0  0  0  0  0  0  0  0
   22.4614  -23.0209  -14.8776 C   0  0  0  0  0  0  0  0  0  0  0  0
   22.8014  -22.2540  -15.7954 O   0  0  0  0  0  0  0  0  0  0  0  0
   21.6219  -22.5454  -13.7692 C   0  0  0  0  0  0  0  0  0  0  0  0
   22.1893  -21.3550  -13.1008 C   0  0  2  0  0  0  0  0  0  0  0  0
   23.4562  -21.6948  -12.4119 N   0  0  0  0  0  0  0  0  0  0  0  0
   21.2480  -20.8410  -12.0686 C   0  0  0  0  0  0  0  0  0  0  0  0
   20.4033  -19.9848  -12.3356 O   0  0  0  0  0  0  0  0  0  0  0  0
   21.2784  -21.3031  -10.7524 O   0  0  0  0  0  0  0  0  0  0  0  0
  2  1  1  6
  2  3  1  0
  4  8  1  0
  4  3  1  0
  5  4  2  0
  6  5  1  0
  6  7  1  0
  7  8  2  0
  9  2  1  0
 10  9  2  0
 12 11  1  0
 13 12  1  0
 14 13  1  0
 15 14  1  1
 15 16  1  0
 16  9  1  0
 17 15  1  0
 17 18  2  0
 20 21  2  0
 20 19  1  0
 22 20  1  0
 23 22  1  1
 23 24  1  0
 24 17  1  0
 25 23  1  0
 26 25  2  0
 27 25  1  0
M  END
$$$$
