HMN.pdb
     RDKit          3D

 27 27  0  0  1  0  0  0  0  0999 V2000
   28.1728  -21.1946  -16.0659 N   0  0  0  0  0  0  0  0  0  0  0  0
   27.6382  -20.2623  -15.1216 C   0  0  1  0  0  0  0  0  0  0  0  0
   26.8923  -19.1961  -15.8968 C   0  0  0  0  0  0  0  0  0  0  0  0
   27.8546  -18.4098  -16.7035 C   0  0  0  0  0  0  0  0  0  0  0  0
   28.0041  -18.4394  -18.0819 C   0  0  0  0  0  0  0  0  0  0  0  0
   28.9783  -17.5872  -18.4288 N   0  0  0  0  0  0  0  0  0  0  0  0
   29.4609  -17.0098  -17.3182 C   0  0  0  0  0  0  0  0  0  0  0  0
   28.7676  -17.5189  -16.2662 N   0  0  0  0  0  0  0  0  0  0  0  0
   26.7465  -20.9516  -14.1632 C   0  0  0  0  0  0  0  0  0  0  0  0
   25.9000  -21.7792  -14.5826 O   0  0  0  0  0  0  0  0  0  0  0  0
   27.6565  -20.5554   -7.5005 C   0  0  0  0  0  0  0  0  0  0  0  0
   26.0008  -19.9422   -7.8398 S   0  0  0  0  0  0  0  0  0  0  0  0
   25.3116  -20.6616   -9.3629 C   0  0  0  0  0  0  0  0  0  0  0  0
   26.2016  -20.4610  -10.5318 C   0  0  0  0  0  0  0  0  0  0  0  0
   25.7342  -20.9965  -11.8429 C   0  0  2  0  0  0  0  0  0  0  0  0
   26.8391  -20.6876  -12.7855 N   0  0  0  0  0  0  0  0  0  0  0  0
   24.4711  -20.4528  -12.3467 C   0  0  0  0  0  0  0  0  0  0  0  0
   24.4655  -19.4191  -13.1003 O   0  0  0  0  0  0  0  0  0  0  0  0
   20.2709  -19.1424  -14.9847 N   0  0  0  0  0  0  0  0  0  0  0  0
   20.6811  -20.5075  -14.7376 C   0  0  0  0  0  0  0  0  0  0  0  0
   19.9182  -21.4330  -15.0657 O   0  0  0  0  0  0  0  0  0  0  0  0
   21.9795  -20.7871  -14.1088 C   0  0  0  0  0  0  0  0  0  0  0  0
   21.9545  -20.5814  -12.6449 C   0  0  2  0  0  0  0  0  0  0  0  0
   23.2224  -21.0389  -12.0298 N   0  0  0  0  0  0  0  0  0  0  0  0
   20.8532  -21.3705  -12.0284 C   0  0  0  0  0  0  0  0  0  0  0  0
   19.6702  -21.0847  -12.2198 O   0  0  0  0  0  0  0  0  0  0  0  0
   21.1083  -22.4682  -11.2058 O   0  0  0  0  0  0  0  0  0  0  0  0
  2  1  1  6
  2  3  1  0
  4  8  1  0
  4  3  1  0
  5  4  2  0
  6  5  1  0
  6  7  1  0
  7  8  2  0
  9  2  1  0
 10  9  2  0
 12 11  1  0
 13 12  1  0
 14 13  1  0
 15 14  1  1
 15 16  1  0
 16  9  1  0
 17 15  1  0
 17 18  2  0
 20 21  2  0
 20 19  1  0
 22 20  1  0
 23 22  1  6
 23 24  1  0
 24 17  1  0
 25 23  1  0
 26 25  2  0
 27 25  1  0
M  END
$$$$
