HMN.pdb
     RDKit          3D

 27 27  0  0  1  0  0  0  0  0999 V2000
   14.1067  -20.9631    1.9121 N   0  0  0  0  0  0  0  0  0  0  0  0
   14.6269  -19.6382    2.0557 C   0  0  1  0  0  0  0  0  0  0  0  0
   13.7218  -18.8876    3.0102 C   0  0  0  0  0  0  0  0  0  0  0  0
   12.4102  -18.6517    2.3627 C   0  0  0  0  0  0  0  0  0  0  0  0
   11.1705  -19.0784    2.8147 C   0  0  0  0  0  0  0  0  0  0  0  0
   10.2314  -18.6666    1.9520 N   0  0  0  0  0  0  0  0  0  0  0  0
   10.8265  -17.9886    0.9591 C   0  0  0  0  0  0  0  0  0  0  0  0
   12.1605  -17.9841    1.2180 N   0  0  0  0  0  0  0  0  0  0  0  0
   16.0182  -19.6811    2.5571 C   0  0  0  0  0  0  0  0  0  0  0  0
   16.3593  -20.5698    3.3763 O   0  0  0  0  0  0  0  0  0  0  0  0
   21.2555  -15.5882    0.1839 C   0  0  0  0  0  0  0  0  0  0  0  0
   21.5249  -17.3523    0.4027 S   0  0  0  0  0  0  0  0  0  0  0  0
   20.6273  -18.0000    1.8474 C   0  0  0  0  0  0  0  0  0  0  0  0
   19.1901  -18.2261    1.5611 C   0  0  0  0  0  0  0  0  0  0  0  0
   18.3284  -18.6551    2.7002 C   0  0  2  0  0  0  0  0  0  0  0  0
   16.9625  -18.7342    2.1235 N   0  0  0  0  0  0  0  0  0  0  0  0
   18.3330  -17.7810    3.8753 C   0  0  0  0  0  0  0  0  0  0  0  0
   19.3640  -17.7153    4.6297 O   0  0  0  0  0  0  0  0  0  0  0  0
   18.1193  -13.7243    4.1900 N   0  0  0  0  0  0  0  0  0  0  0  0
   16.7176  -13.8177    4.5353 C   0  0  0  0  0  0  0  0  0  0  0  0
   15.9614  -12.8764    4.2380 O   0  0  0  0  0  0  0  0  0  0  0  0
   16.2040  -15.0087    5.2260 C   0  0  0  0  0  0  0  0  0  0  0  0
   17.2320  -16.0600    5.3801 C   0  0  2  0  0  0  0  0  0  0  0  0
   17.2170  -16.9817    4.2203 N   0  0  0  0  0  0  0  0  0  0  0  0
   16.9635  -16.8746    6.5966 C   0  0  0  0  0  0  0  0  0  0  0  0
   16.2429  -17.8731    6.5577 O   0  0  0  0  0  0  0  0  0  0  0  0
   17.5136  -16.5459    7.8361 O   0  0  0  0  0  0  0  0  0  0  0  0
  2  1  1  1
  2  3  1  0
  4  8  1  0
  4  3  1  0
  5  4  2  0
  6  5  1  0
  6  7  1  0
  7  8  2  0
  9  2  1  0
 10  9  2  0
 12 11  1  0
 13 12  1  0
 14 13  1  0
 15 14  1  6
 15 16  1  0
 16  9  1  0
 17 15  1  0
 17 18  2  0
 20 21  2  0
 20 19  1  0
 22 20  1  0
 23 22  1  6
 23 24  1  0
 24 17  1  0
 25 23  1  0
 26 25  2  0
 27 25  1  0
M  END
$$$$
