HMN.pdb
     RDKit          3D

 27 27  0  0  1  0  0  0  0  0999 V2000
   15.8594  -22.3462   -1.4303 N   0  0  0  0  0  0  0  0  0  0  0  0
   15.2701  -21.8526   -0.2238 C   0  0  1  0  0  0  0  0  0  0  0  0
   14.1454  -22.7920    0.1588 C   0  0  0  0  0  0  0  0  0  0  0  0
   13.0900  -22.7457   -0.8801 C   0  0  0  0  0  0  0  0  0  0  0  0
   12.6493  -23.8001   -1.6658 C   0  0  0  0  0  0  0  0  0  0  0  0
   11.6854  -23.3554   -2.4837 N   0  0  0  0  0  0  0  0  0  0  0  0
   11.4914  -22.0487   -2.2499 C   0  0  0  0  0  0  0  0  0  0  0  0
   12.3553  -21.6831   -1.2667 N   0  0  0  0  0  0  0  0  0  0  0  0
   16.2852  -21.7657    0.8491 C   0  0  0  0  0  0  0  0  0  0  0  0
   17.0953  -22.7101    1.0197 O   0  0  0  0  0  0  0  0  0  0  0  0
   21.5392  -17.4456    0.7757 C   0  0  0  0  0  0  0  0  0  0  0  0
   19.9016  -17.4538    1.5178 S   0  0  0  0  0  0  0  0  0  0  0  0
   19.3233  -19.1446    1.8626 C   0  0  0  0  0  0  0  0  0  0  0  0
   17.9885  -19.1613    2.5082 C   0  0  0  0  0  0  0  0  0  0  0  0
   17.3673  -20.4949    2.7528 C   0  0  2  0  0  0  0  0  0  0  0  0
   16.3504  -20.6335    1.6798 N   0  0  0  0  0  0  0  0  0  0  0  0
   16.7479  -20.6850    4.0662 C   0  0  0  0  0  0  0  0  0  0  0  0
   15.5426  -20.3099    4.2744 O   0  0  0  0  0  0  0  0  0  0  0  0
   17.0645  -24.8745    5.5625 N   0  0  0  0  0  0  0  0  0  0  0  0
   16.3465  -23.8361    6.2689 C   0  0  0  0  0  0  0  0  0  0  0  0
   15.1035  -23.8349    6.2343 O   0  0  0  0  0  0  0  0  0  0  0  0
   17.0815  -22.8037    7.0126 C   0  0  0  0  0  0  0  0  0  0  0  0
   16.8353  -21.4444    6.4857 C   0  0  2  0  0  0  0  0  0  0  0  0
   17.4425  -21.2847    5.1437 N   0  0  0  0  0  0  0  0  0  0  0  0
   17.4524  -20.4230    7.3754 C   0  0  0  0  0  0  0  0  0  0  0  0
   18.3226  -19.6529    6.9661 O   0  0  0  0  0  0  0  0  0  0  0  0
   17.0755  -20.2902    8.7122 O   0  0  0  0  0  0  0  0  0  0  0  0
  2  1  1  6
  2  3  1  0
  4  8  1  0
  4  3  1  0
  5  4  2  0
  6  5  1  0
  6  7  1  0
  7  8  2  0
  9  2  1  0
 10  9  2  0
 12 11  1  0
 13 12  1  0
 14 13  1  0
 15 14  1  1
 15 16  1  0
 16  9  1  0
 17 15  1  0
 17 18  2  0
 20 21  2  0
 20 19  1  0
 22 20  1  0
 23 22  1  1
 23 24  1  0
 24 17  1  0
 25 23  1  0
 26 25  2  0
 27 25  1  0
M  END
$$$$
