HMN.pdb
     RDKit          3D

 27 27  0  0  1  0  0  0  0  0999 V2000
   15.7514  -17.0507    4.5382 N   0  0  0  0  0  0  0  0  0  0  0  0
   17.1113  -17.4618    4.7059 C   0  0  1  0  0  0  0  0  0  0  0  0
   17.8430  -16.3524    5.4323 C   0  0  0  0  0  0  0  0  0  0  0  0
   18.0877  -15.2292    4.4976 C   0  0  0  0  0  0  0  0  0  0  0  0
   17.7136  -15.1602    3.1639 C   0  0  0  0  0  0  0  0  0  0  0  0
   18.1162  -13.9843    2.6631 N   0  0  0  0  0  0  0  0  0  0  0  0
   18.7374  -13.2940    3.6312 C   0  0  0  0  0  0  0  0  0  0  0  0
   18.7158  -14.0633    4.7512 N   0  0  0  0  0  0  0  0  0  0  0  0
   17.1776  -18.7325    5.4607 C   0  0  0  0  0  0  0  0  0  0  0  0
   16.4501  -18.8968    6.4712 O   0  0  0  0  0  0  0  0  0  0  0  0
   20.0194  -24.8357    3.7756 C   0  0  0  0  0  0  0  0  0  0  0  0
   18.9631  -23.7396    2.8189 S   0  0  0  0  0  0  0  0  0  0  0  0
   18.0304  -22.5974    3.8855 C   0  0  0  0  0  0  0  0  0  0  0  0
   18.8914  -21.9505    4.9047 C   0  0  0  0  0  0  0  0  0  0  0  0
   18.2338  -21.0008    5.8478 C   0  0  2  0  0  0  0  0  0  0  0  0
   18.0491  -19.7586    5.0557 N   0  0  0  0  0  0  0  0  0  0  0  0
   18.9652  -20.7105    7.0830 C   0  0  0  0  0  0  0  0  0  0  0  0
   19.7055  -19.6707    7.1684 O   0  0  0  0  0  0  0  0  0  0  0  0
   20.5024  -20.6315   12.0241 N   0  0  0  0  0  0  0  0  0  0  0  0
   19.6259  -19.6768   11.3813 C   0  0  0  0  0  0  0  0  0  0  0  0
   19.3273  -18.6326   11.9869 O   0  0  0  0  0  0  0  0  0  0  0  0
   19.1014  -19.9444   10.0350 C   0  0  0  0  0  0  0  0  0  0  0  0
   19.5757  -21.2342    9.4896 C   0  0  2  0  0  0  0  0  0  0  0  0
   18.8841  -21.5517    8.2184 N   0  0  0  0  0  0  0  0  0  0  0  0
   19.2821  -22.3400   10.4417 C   0  0  0  0  0  0  0  0  0  0  0  0
   18.3437  -23.1168   10.2579 O   0  0  0  0  0  0  0  0  0  0  0  0
   20.0540  -22.5482   11.5853 O   0  0  0  0  0  0  0  0  0  0  0  0
  2  1  1  1
  2  3  1  0
  4  8  1  0
  4  3  1  0
  5  4  2  0
  6  5  1  0
  6  7  1  0
  7  8  2  0
  9  2  1  0
 10  9  2  0
 12 11  1  0
 13 12  1  0
 14 13  1  0
 15 14  1  6
 15 16  1  0
 16  9  1  0
 17 15  1  0
 17 18  2  0
 20 21  2  0
 20 19  1  0
 22 20  1  0
 23 22  1  1
 23 24  1  0
 24 17  1  0
 25 23  1  0
 26 25  2  0
 27 25  1  0
M  END
$$$$
