HMN.pdb
     RDKit          3D

 27 27  0  0  1  0  0  0  0  0999 V2000
   27.8662  -21.1191  -15.4724 N   0  0  0  0  0  0  0  0  0  0  0  0
   27.3586  -20.1944  -14.5060 C   0  0  1  0  0  0  0  0  0  0  0  0
   26.6750  -19.0706  -15.2566 C   0  0  0  0  0  0  0  0  0  0  0  0
   27.6920  -18.2685  -15.9759 C   0  0  0  0  0  0  0  0  0  0  0  0
   29.0604  -18.4924  -16.0045 C   0  0  0  0  0  0  0  0  0  0  0  0
   29.6363  -17.5498  -16.7631 N   0  0  0  0  0  0  0  0  0  0  0  0
   28.6828  -16.7261  -17.2238 C   0  0  0  0  0  0  0  0  0  0  0  0
   27.4953  -17.1730  -16.7372 N   0  0  0  0  0  0  0  0  0  0  0  0
   26.4207  -20.8729  -13.5846 C   0  0  0  0  0  0  0  0  0  0  0  0
   25.7533  -21.8577  -13.9871 O   0  0  0  0  0  0  0  0  0  0  0  0
   28.9232  -20.7145   -7.3332 C   0  0  0  0  0  0  0  0  0  0  0  0
   27.2311  -20.3579   -7.8252 S   0  0  0  0  0  0  0  0  0  0  0  0
   26.8739  -20.9592   -9.5054 C   0  0  0  0  0  0  0  0  0  0  0  0
   25.5720  -20.4646  -10.0143 C   0  0  0  0  0  0  0  0  0  0  0  0
   25.1687  -20.8949  -11.3841 C   0  0  2  0  0  0  0  0  0  0  0  0
   26.2704  -20.4238  -12.2609 N   0  0  0  0  0  0  0  0  0  0  0  0
   23.8833  -20.3849  -11.8665 C   0  0  0  0  0  0  0  0  0  0  0  0
   23.8031  -19.2189  -12.3867 O   0  0  0  0  0  0  0  0  0  0  0  0
   19.8658  -20.7470  -15.6982 N   0  0  0  0  0  0  0  0  0  0  0  0
   20.2991  -20.1010  -14.4785 C   0  0  0  0  0  0  0  0  0  0  0  0
   19.5881  -19.2073  -13.9865 O   0  0  0  0  0  0  0  0  0  0  0  0
   21.5600  -20.5001  -13.8380 C   0  0  0  0  0  0  0  0  0  0  0  0
   21.4171  -20.6909  -12.3789 C   0  0  2  0  0  0  0  0  0  0  0  0
   22.6941  -21.1478  -11.7826 N   0  0  0  0  0  0  0  0  0  0  0  0
   20.3950  -21.7335  -12.0891 C   0  0  0  0  0  0  0  0  0  0  0  0
   19.3044  -21.4468  -11.5929 O   0  0  0  0  0  0  0  0  0  0  0  0
   20.6237  -23.0821  -12.3648 O   0  0  0  0  0  0  0  0  0  0  0  0
  2  1  1  6
  2  3  1  0
  4  8  1  0
  4  3  1  0
  5  4  2  0
  6  5  1  0
  6  7  1  0
  7  8  2  0
  9  2  1  0
 10  9  2  0
 12 11  1  0
 13 12  1  0
 14 13  1  0
 15 14  1  1
 15 16  1  0
 16  9  1  0
 17 15  1  0
 17 18  2  0
 20 21  2  0
 20 19  1  0
 22 20  1  0
 23 22  1  6
 23 24  1  0
 24 17  1  0
 25 23  1  0
 26 25  2  0
 27 25  1  0
M  END
$$$$
