RWS.pdb
     RDKit          3D

 32 33  0  0  1  0  0  0  0  0999 V2000
   10.8458  -19.4242   14.3860 N   0  0  0  0  0  0  0  0  0  0  0  0
   11.5917  -18.1991   14.3875 C   0  0  0  0  0  0  0  0  0  0  0  0
   11.3197  -17.3888   13.4073 N   0  0  0  0  0  0  0  0  0  0  0  0
   12.5537  -17.8865   15.3780 N   0  0  0  0  0  0  0  0  0  0  0  0
   12.1402  -17.3145   16.6264 C   0  0  0  0  0  0  0  0  0  0  0  0
   11.1092  -18.1818   17.3496 C   0  0  0  0  0  0  0  0  0  0  0  0
   10.5817  -17.3803   18.4933 C   0  0  0  0  0  0  0  0  0  0  0  0
   10.7181  -18.0711   19.8200 C   0  0  2  0  0  0  0  0  0  0  0  0
    9.6967  -19.0602   20.0008 N   0  0  0  0  0  0  0  0  0  0  0  0
   10.8059  -17.1222   20.9550 C   0  0  0  0  0  0  0  0  0  0  0  0
   11.7200  -16.2608   20.9751 O   0  0  0  0  0  0  0  0  0  0  0  0
   11.8220  -16.4840   13.3753 N   0  0  0  0  0  0  0  0  0  0  0  0
    9.8362  -17.2311   21.9864 C   0  0  1  0  0  0  0  0  0  0  0  0
    9.7804  -16.3027   23.0661 C   0  0  0  0  0  0  0  0  0  0  0  0
    8.4117  -15.7262   23.3033 C   0  0  0  0  0  0  0  0  0  0  0  0
    7.6666  -15.4644   22.0462 C   0  0  0  0  0  0  0  0  0  0  0  0
    6.6805  -16.2640   21.4776 N   0  0  0  0  0  0  0  0  0  0  0  0
    6.2983  -15.6377   20.3539 C   0  0  0  0  0  0  0  0  0  0  0  0
    6.9905  -14.4934   20.1904 C   0  0  0  0  0  0  0  0  0  0  0  0
    6.9781  -13.5036   19.2187 C   0  0  0  0  0  0  0  0  0  0  0  0
    7.8037  -12.4012   19.2776 C   0  0  0  0  0  0  0  0  0  0  0  0
    8.6791  -12.2854   20.3556 C   0  0  0  0  0  0  0  0  0  0  0  0
    8.7133  -13.2511   21.3337 C   0  0  0  0  0  0  0  0  0  0  0  0
    7.8734  -14.3382   21.2407 C   0  0  0  0  0  0  0  0  0  0  0  0
   10.2750  -16.9001   24.3327 O   0  0  0  0  0  0  0  0  0  0  0  0
   10.0274  -16.3495   25.4347 O   0  0  0  0  0  0  0  0  0  0  0  0
   12.1797  -20.4906   24.3308 C   0  0  0  0  0  0  0  0  0  0  0  0
   11.5459  -20.1316   25.5260 C   0  0  1  0  0  0  0  0  0  0  0  0
   11.6164  -18.6048   25.6042 N   0  0  0  0  0  0  0  0  0  0  0  0
   11.0380  -18.0989   24.3750 C   0  0  0  0  0  0  0  0  0  0  0  0
   12.9908  -18.1298   25.7519 O   0  0  0  0  0  0  0  0  0  0  0  0
   13.5113  -17.4118   24.8679 O   0  0  0  0  0  0  0  0  0  0  0  0
  1  2  1  0
  2  3  2  0
  4  5  1  0
  4  2  1  0
  6  5  1  0
  7  6  1  0
  8  9  1  1
  8  7  1  0
 10  8  1  0
 11 10  2  0
 12 10  1  0
 13 12  1  0
 13 24  1  0
 13 14  1  1
 15 14  1  0
 16 15  2  0
 17 16  1  0
 18 17  1  0
 18 23  2  0
 19 18  1  0
 20 19  2  0
 20 21  1  0
 21 22  2  0
 22 23  1  0
 23 15  1  0
 24 25  2  0
 27 26  1  0
 28 27  1  1
 29 24  1  0
 29 28  1  0
 30 28  1  0
 30 32  1  0
 31 30  2  0
M  END
$$$$
