RWS.pdb
     RDKit          3D

 32 33  0  0  1  0  0  0  0  0999 V2000
    7.6433  -12.9108   16.0853 N   0  0  0  0  0  0  0  0  0  0  0  0
    8.3363  -14.1422   15.8388 C   0  0  0  0  0  0  0  0  0  0  0  0
    8.5558  -14.4078   14.5847 N   0  0  0  0  0  0  0  0  0  0  0  0
    8.7543  -15.0095   16.8766 N   0  0  0  0  0  0  0  0  0  0  0  0
    7.8245  -15.4208   17.8881 C   0  0  0  0  0  0  0  0  0  0  0  0
    7.3150  -14.2443   18.7215 C   0  0  0  0  0  0  0  0  0  0  0  0
    8.2125  -14.1218   19.9081 C   0  0  0  0  0  0  0  0  0  0  0  0
    8.4569  -15.4272   20.6095 C   0  0  2  0  0  0  0  0  0  0  0  0
    7.2330  -16.1421   20.8229 N   0  0  0  0  0  0  0  0  0  0  0  0
    9.2551  -15.2726   21.8486 C   0  0  0  0  0  0  0  0  0  0  0  0
   10.2517  -14.5079   21.8541 O   0  0  0  0  0  0  0  0  0  0  0  0
    9.1348  -15.2366   14.3610 N   0  0  0  0  0  0  0  0  0  0  0  0
    8.8505  -16.0083   22.9937 C   0  0  1  0  0  0  0  0  0  0  0  0
    9.5665  -15.9373   24.2237 C   0  0  0  0  0  0  0  0  0  0  0  0
    8.7054  -16.1307   25.4416 C   0  0  0  0  0  0  0  0  0  0  0  0
    7.5360  -15.2167   25.4762 C   0  0  0  0  0  0  0  0  0  0  0  0
    6.2116  -15.5442   25.2044 N   0  0  0  0  0  0  0  0  0  0  0  0
    5.5113  -14.4093   25.3547 C   0  0  0  0  0  0  0  0  0  0  0  0
    6.3245  -13.3936   25.7046 C   0  0  0  0  0  0  0  0  0  0  0  0
    6.1083  -12.0502   25.9743 C   0  0  0  0  0  0  0  0  0  0  0  0
    7.1310  -11.1930   26.3203 C   0  0  0  0  0  0  0  0  0  0  0  0
    8.4253  -11.7031   26.3995 C   0  0  0  0  0  0  0  0  0  0  0  0
    8.6695  -13.0305   26.1376 C   0  0  0  0  0  0  0  0  0  0  0  0
    7.6223  -13.8563   25.7950 C   0  0  0  0  0  0  0  0  0  0  0  0
   10.6849  -16.9135   24.2675 O   0  0  0  0  0  0  0  0  0  0  0  0
   10.4563  -18.1464   24.1868 O   0  0  0  0  0  0  0  0  0  0  0  0
   15.4120  -17.6094   23.7587 C   0  0  0  0  0  0  0  0  0  0  0  0
   14.3505  -16.6975   23.7895 C   0  0  1  0  0  0  0  0  0  0  0  0
   13.1357  -17.4744   24.3021 N   0  0  0  0  0  0  0  0  0  0  0  0
   12.0457  -16.5238   24.3995 C   0  0  0  0  0  0  0  0  0  0  0  0
   13.3915  -18.0890   25.6033 O   0  0  0  0  0  0  0  0  0  0  0  0
   12.7755  -17.6975   26.6208 O   0  0  0  0  0  0  0  0  0  0  0  0
  1  2  1  0
  2  3  2  0
  4  5  1  0
  4  2  1  0
  6  5  1  0
  7  6  1  0
  8  9  1  1
  8  7  1  0
 10  8  1  0
 11 10  2  0
 12 10  1  0
 13 12  1  0
 13 24  1  0
 13 14  1  1
 15 14  1  0
 16 15  2  0
 17 16  1  0
 18 17  1  0
 18 23  2  0
 19 18  1  0
 20 19  2  0
 20 21  1  0
 21 22  2  0
 22 23  1  0
 23 15  1  0
 24 25  2  0
 27 26  1  0
 28 27  1  6
 29 24  1  0
 29 28  1  0
 30 28  1  0
 30 32  1  0
 31 30  2  0
M  END
$$$$
