RWS.pdb
     RDKit          3D

 32 33  0  0  1  0  0  0  0  0999 V2000
    8.2455  -14.1786   16.0329 N   0  0  0  0  0  0  0  0  0  0  0  0
    8.5697  -13.5329   17.2720 C   0  0  0  0  0  0  0  0  0  0  0  0
    8.6194  -12.2344   17.2185 N   0  0  0  0  0  0  0  0  0  0  0  0
    8.8180  -14.2473   18.4687 N   0  0  0  0  0  0  0  0  0  0  0  0
    8.2757  -15.5630   18.6461 C   0  0  0  0  0  0  0  0  0  0  0  0
    7.3091  -15.6382   19.8286 C   0  0  0  0  0  0  0  0  0  0  0  0
    8.0756  -15.2548   21.0510 C   0  0  0  0  0  0  0  0  0  0  0  0
    8.7032  -16.4245   21.7537 C   0  0  2  0  0  0  0  0  0  0  0  0
    7.8556  -17.5792   21.7041 N   0  0  0  0  0  0  0  0  0  0  0  0
    9.1475  -16.0969   23.1291 C   0  0  0  0  0  0  0  0  0  0  0  0
    9.8195  -15.0554   23.3332 O   0  0  0  0  0  0  0  0  0  0  0  0
    8.8886  -11.7257   18.0793 N   0  0  0  0  0  0  0  0  0  0  0  0
    8.7875  -16.9903   24.1723 C   0  0  1  0  0  0  0  0  0  0  0  0
    9.3073  -16.8527   25.4920 C   0  0  0  0  0  0  0  0  0  0  0  0
    8.2524  -16.6407   26.5429 C   0  0  0  0  0  0  0  0  0  0  0  0
    7.3180  -15.5354   26.2123 C   0  0  0  0  0  0  0  0  0  0  0  0
    6.0623  -15.6508   25.6249 N   0  0  0  0  0  0  0  0  0  0  0  0
    5.5891  -14.3998   25.5143 C   0  0  0  0  0  0  0  0  0  0  0  0
    6.4789  -13.5120   25.9994 C   0  0  0  0  0  0  0  0  0  0  0  0
    6.4775  -12.1299   26.1171 C   0  0  0  0  0  0  0  0  0  0  0  0
    7.5352  -11.4347   26.6633 C   0  0  0  0  0  0  0  0  0  0  0  0
    8.6414  -12.1545   27.1105 C   0  0  0  0  0  0  0  0  0  0  0  0
    8.6707  -13.5251   27.0066 C   0  0  0  0  0  0  0  0  0  0  0  0
    7.5952  -14.1849   26.4553 C   0  0  0  0  0  0  0  0  0  0  0  0
   10.1426  -18.0179   25.8795 O   0  0  0  0  0  0  0  0  0  0  0  0
    9.6056  -19.1130   26.1815 O   0  0  0  0  0  0  0  0  0  0  0  0
   13.6691  -17.7965   24.8802 C   0  0  0  0  0  0  0  0  0  0  0  0
   13.6270  -19.0734   25.4519 C   0  0  1  0  0  0  0  0  0  0  0  0
   12.3639  -19.1126   26.3152 N   0  0  0  0  0  0  0  0  0  0  0  0
   11.5624  -17.9675   25.9308 C   0  0  0  0  0  0  0  0  0  0  0  0
   12.6771  -19.0574   27.7418 O   0  0  0  0  0  0  0  0  0  0  0  0
   12.2000  -18.1498   28.4605 O   0  0  0  0  0  0  0  0  0  0  0  0
  1  2  1  0
  2  3  2  0
  4  5  1  0
  4  2  1  0
  6  5  1  0
  7  6  1  0
  8  9  1  1
  8  7  1  0
 10  8  1  0
 11 10  2  0
 12 10  1  0
 13 12  1  0
 13 24  1  0
 13 14  1  1
 15 14  1  0
 16 15  2  0
 17 16  1  0
 18 17  1  0
 18 23  2  0
 19 18  1  0
 20 19  2  0
 20 21  1  0
 21 22  2  0
 22 23  1  0
 23 15  1  0
 24 25  2  0
 27 26  1  0
 28 27  1  6
 29 24  1  0
 29 28  1  0
 30 28  1  0
 30 32  1  0
 31 30  2  0
M  END
$$$$
