RWS.pdb
     RDKit          3D

 32 33  0  0  1  0  0  0  0  0999 V2000
    7.4319  -13.7431   16.5115 N   0  0  0  0  0  0  0  0  0  0  0  0
    8.4933  -13.4608   17.4342 C   0  0  0  0  0  0  0  0  0  0  0  0
    9.1745  -12.3837   17.1752 N   0  0  0  0  0  0  0  0  0  0  0  0
    8.7844  -14.2868   18.5464 N   0  0  0  0  0  0  0  0  0  0  0  0
    7.9761  -15.4403   18.8163 C   0  0  0  0  0  0  0  0  0  0  0  0
    7.3044  -15.3707   20.1882 C   0  0  0  0  0  0  0  0  0  0  0  0
    8.3730  -15.0792   21.1891 C   0  0  0  0  0  0  0  0  0  0  0  0
    8.9267  -16.3105   21.8474 C   0  0  2  0  0  0  0  0  0  0  0  0
    7.9700  -17.3777   21.8467 N   0  0  0  0  0  0  0  0  0  0  0  0
    9.4845  -16.0402   23.1936 C   0  0  0  0  0  0  0  0  0  0  0  0
   10.3151  -15.1103   23.3466 O   0  0  0  0  0  0  0  0  0  0  0  0
   10.0476  -12.2248   17.7087 N   0  0  0  0  0  0  0  0  0  0  0  0
    9.0475  -16.8585   24.2685 C   0  0  1  0  0  0  0  0  0  0  0  0
    9.6112  -16.7497   25.5728 C   0  0  0  0  0  0  0  0  0  0  0  0
    8.5990  -16.4860   26.6536 C   0  0  0  0  0  0  0  0  0  0  0  0
    7.5370  -15.5370   26.2347 C   0  0  0  0  0  0  0  0  0  0  0  0
    6.3028  -15.8570   25.6783 N   0  0  0  0  0  0  0  0  0  0  0  0
    5.6816  -14.6879   25.4584 C   0  0  0  0  0  0  0  0  0  0  0  0
    6.4588  -13.6580   25.8463 C   0  0  0  0  0  0  0  0  0  0  0  0
    6.2907  -12.2811   25.8350 C   0  0  0  0  0  0  0  0  0  0  0  0
    7.2581  -11.4157   26.2992 C   0  0  0  0  0  0  0  0  0  0  0  0
    8.4444  -11.9521   26.7959 C   0  0  0  0  0  0  0  0  0  0  0  0
    8.6388  -13.3130   26.8195 C   0  0  0  0  0  0  0  0  0  0  0  0
    7.6495  -14.1461   26.3471 C   0  0  0  0  0  0  0  0  0  0  0  0
   10.3969  -17.9565   25.9361 O   0  0  0  0  0  0  0  0  0  0  0  0
    9.9117  -19.1040   25.7730 O   0  0  0  0  0  0  0  0  0  0  0  0
   14.0155  -18.9112   25.4505 C   0  0  0  0  0  0  0  0  0  0  0  0
   13.8527  -18.8857   26.8405 C   0  0  2  0  0  0  0  0  0  0  0  0
   12.3510  -19.0320   27.0967 N   0  0  0  0  0  0  0  0  0  0  0  0
   11.7105  -17.8895   26.4755 C   0  0  0  0  0  0  0  0  0  0  0  0
   12.0434  -19.0723   28.5250 O   0  0  0  0  0  0  0  0  0  0  0  0
   11.3065  -18.2001   29.0391 O   0  0  0  0  0  0  0  0  0  0  0  0
  1  2  1  0
  2  3  2  0
  4  5  1  0
  4  2  1  0
  6  5  1  0
  7  6  1  0
  8  9  1  1
  8  7  1  0
 10  8  1  0
 11 10  2  0
 12 10  1  0
 13 12  1  0
 13 24  1  0
 13 14  1  1
 15 14  1  0
 16 15  2  0
 17 16  1  0
 18 17  1  0
 18 23  2  0
 19 18  1  0
 20 19  2  0
 20 21  1  0
 21 22  2  0
 22 23  1  0
 23 15  1  0
 24 25  2  0
 27 26  1  0
 28 27  1  6
 29 24  1  0
 29 28  1  0
 30 28  1  0
 30 32  1  0
 31 30  2  0
M  END
$$$$
