RWS.pdb
     RDKit          3D

 32 33  0  0  1  0  0  0  0  0999 V2000
    7.7971  -13.2619   20.0089 N   0  0  0  0  0  0  0  0  0  0  0  0
    7.2265  -13.7760   18.7974 C   0  0  0  0  0  0  0  0  0  0  0  0
    5.9723  -14.1102   18.8793 N   0  0  0  0  0  0  0  0  0  0  0  0
    7.9653  -13.9122   17.5976 N   0  0  0  0  0  0  0  0  0  0  0  0
    9.3777  -13.6633   17.5909 C   0  0  0  0  0  0  0  0  0  0  0  0
   10.1950  -14.9509   17.7017 C   0  0  0  0  0  0  0  0  0  0  0  0
   11.0026  -14.8554   18.9536 C   0  0  0  0  0  0  0  0  0  0  0  0
   10.7744  -15.9989   19.9003 C   0  0  2  0  0  0  0  0  0  0  0  0
    9.8039  -16.9184   19.3837 N   0  0  0  0  0  0  0  0  0  0  0  0
   10.4637  -15.5501   21.2782 C   0  0  0  0  0  0  0  0  0  0  0  0
   11.3144  -14.8873   21.9222 O   0  0  0  0  0  0  0  0  0  0  0  0
    5.4957  -14.4129   18.0113 N   0  0  0  0  0  0  0  0  0  0  0  0
    9.1965  -15.8954   21.8177 C   0  0  2  0  0  0  0  0  0  0  0  0
    8.8700  -15.6521   23.1834 C   0  0  0  0  0  0  0  0  0  0  0  0
    7.4494  -15.2080   23.4000 C   0  0  0  0  0  0  0  0  0  0  0  0
    7.1157  -15.0094   24.8329 C   0  0  0  0  0  0  0  0  0  0  0  0
    6.5006  -15.9238   25.6818 N   0  0  0  0  0  0  0  0  0  0  0  0
    6.3986  -15.3130   26.8724 C   0  0  0  0  0  0  0  0  0  0  0  0
    6.9154  -14.0701   26.8131 C   0  0  0  0  0  0  0  0  0  0  0  0
    7.0536  -13.0509   27.7438 C   0  0  0  0  0  0  0  0  0  0  0  0
    7.6321  -11.8393   27.4311 C   0  0  0  0  0  0  0  0  0  0  0  0
    8.0917  -11.6401   26.1308 C   0  0  0  0  0  0  0  0  0  0  0  0
    7.9680  -12.6324   25.1872 C   0  0  0  0  0  0  0  0  0  0  0  0
    7.3845  -13.8296   25.5369 C   0  0  0  0  0  0  0  0  0  0  0  0
    9.1356  -16.8405   24.0337 O   0  0  0  0  0  0  0  0  0  0  0  0
    8.4856  -17.9023   23.8635 O   0  0  0  0  0  0  0  0  0  0  0  0
   12.5610  -17.1495   25.9655 C   0  0  0  0  0  0  0  0  0  0  0  0
   11.8798  -18.3390   25.6822 C   0  0  1  0  0  0  0  0  0  0  0  0
   10.3912  -18.0303   25.8584 N   0  0  0  0  0  0  0  0  0  0  0  0
   10.1151  -16.8496   25.0640 C   0  0  0  0  0  0  0  0  0  0  0  0
   10.0463  -17.7923   27.2587 O   0  0  0  0  0  0  0  0  0  0  0  0
    9.5460  -16.6998   27.6110 O   0  0  0  0  0  0  0  0  0  0  0  0
  1  2  1  0
  2  3  2  0
  4  5  1  0
  4  2  1  0
  6  5  1  0
  7  6  1  0
  8  9  1  6
  8  7  1  0
 10  8  1  0
 11 10  2  0
 12 10  1  0
 13 12  1  0
 13 24  1  0
 13 14  1  6
 15 14  1  0
 16 15  2  0
 17 16  1  0
 18 17  1  0
 18 23  2  0
 19 18  1  0
 20 19  2  0
 20 21  1  0
 21 22  2  0
 22 23  1  0
 23 15  1  0
 24 25  2  0
 27 26  1  0
 28 27  1  6
 29 24  1  0
 29 28  1  0
 30 28  1  0
 30 32  1  0
 31 30  2  0
M  END
$$$$
