RWS.pdb
     RDKit          3D

 32 33  0  0  1  0  0  0  0  0999 V2000
    7.9258  -12.2326   18.2265 N   0  0  0  0  0  0  0  0  0  0  0  0
    8.2717  -13.4745   17.5976 C   0  0  0  0  0  0  0  0  0  0  0  0
    8.2859  -13.4469   16.2975 N   0  0  0  0  0  0  0  0  0  0  0  0
    8.5770  -14.6474   18.3293 N   0  0  0  0  0  0  0  0  0  0  0  0
    7.9645  -14.8784   19.6054 C   0  0  0  0  0  0  0  0  0  0  0  0
    8.9831  -14.8845   20.7458 C   0  0  0  0  0  0  0  0  0  0  0  0
    9.7631  -16.1526   20.6350 C   0  0  0  0  0  0  0  0  0  0  0  0
    9.3936  -17.1736   21.6727 C   0  0  2  0  0  0  0  0  0  0  0  0
    8.0509  -17.6408   21.4902 N   0  0  0  0  0  0  0  0  0  0  0  0
    9.6568  -16.7085   23.0551 C   0  0  0  0  0  0  0  0  0  0  0  0
   10.2713  -15.6287   23.2406 O   0  0  0  0  0  0  0  0  0  0  0  0
    8.5818  -14.3052   15.7996 N   0  0  0  0  0  0  0  0  0  0  0  0
    9.1947  -17.5181   24.1260 C   0  0  1  0  0  0  0  0  0  0  0  0
    9.4312  -17.1696   25.4875 C   0  0  0  0  0  0  0  0  0  0  0  0
    8.1856  -16.8065   26.2482 C   0  0  0  0  0  0  0  0  0  0  0  0
    7.4494  -15.6668   25.6458 C   0  0  0  0  0  0  0  0  0  0  0  0
    6.5385  -15.7222   24.5958 N   0  0  0  0  0  0  0  0  0  0  0  0
    6.1337  -14.4594   24.3899 C   0  0  0  0  0  0  0  0  0  0  0  0
    6.7407  -13.6207   25.2521 C   0  0  0  0  0  0  0  0  0  0  0  0
    6.6739  -12.2499   25.4537 C   0  0  0  0  0  0  0  0  0  0  0  0
    7.4126  -11.6101   26.4261 C   0  0  0  0  0  0  0  0  0  0  0  0
    8.2540  -12.3759   27.2306 C   0  0  0  0  0  0  0  0  0  0  0  0
    8.3406  -13.7366   27.0536 C   0  0  0  0  0  0  0  0  0  0  0  0
    7.5873  -14.3404   26.0718 C   0  0  0  0  0  0  0  0  0  0  0  0
   10.1409  -18.2507   26.2177 O   0  0  0  0  0  0  0  0  0  0  0  0
    9.6670  -19.4140   26.2494 O   0  0  0  0  0  0  0  0  0  0  0  0
   13.8491  -17.6374   27.8770 C   0  0  0  0  0  0  0  0  0  0  0  0
   13.5348  -18.9171   27.4050 C   0  0  1  0  0  0  0  0  0  0  0  0
   12.0334  -19.1008   27.6383 N   0  0  0  0  0  0  0  0  0  0  0  0
   11.3668  -18.0417   26.9066 C   0  0  0  0  0  0  0  0  0  0  0  0
   11.6901  -19.0316   29.0573 O   0  0  0  0  0  0  0  0  0  0  0  0
   12.2064  -19.8287   29.8735 O   0  0  0  0  0  0  0  0  0  0  0  0
  1  2  1  0
  2  3  2  0
  4  5  1  0
  4  2  1  0
  6  5  1  0
  7  6  1  0
  8  9  1  1
  8  7  1  0
 10  8  1  0
 11 10  2  0
 12 10  1  0
 13 12  1  0
 13 24  1  0
 13 14  1  1
 15 14  1  0
 16 15  2  0
 17 16  1  0
 18 17  1  0
 18 23  2  0
 19 18  1  0
 20 19  2  0
 20 21  1  0
 21 22  2  0
 22 23  1  0
 23 15  1  0
 24 25  2  0
 27 26  1  0
 28 27  1  6
 29 24  1  0
 29 28  1  0
 30 28  1  0
 30 32  1  0
 31 30  2  0
M  END
$$$$
