RWS.pdb
     RDKit          3D

 32 33  0  0  1  0  0  0  0  0999 V2000
    6.8990  -13.2225   14.2770 N   0  0  0  0  0  0  0  0  0  0  0  0
    8.1251  -13.6170   14.9083 C   0  0  0  0  0  0  0  0  0  0  0  0
    8.7883  -14.5476   14.2874 N   0  0  0  0  0  0  0  0  0  0  0  0
    8.5869  -13.0417   16.1165 N   0  0  0  0  0  0  0  0  0  0  0  0
    7.9431  -13.3619   17.3574 C   0  0  0  0  0  0  0  0  0  0  0  0
    7.7331  -14.8665   17.5315 C   0  0  0  0  0  0  0  0  0  0  0  0
    6.9293  -15.0596   18.7746 C   0  0  0  0  0  0  0  0  0  0  0  0
    7.5076  -16.0860   19.7063 C   0  0  2  0  0  0  0  0  0  0  0  0
    6.8010  -17.3297   19.6160 N   0  0  0  0  0  0  0  0  0  0  0  0
    7.6280  -15.5938   21.0991 C   0  0  0  0  0  0  0  0  0  0  0  0
    6.8472  -14.7005   21.5119 O   0  0  0  0  0  0  0  0  0  0  0  0
    9.7095  -14.8224   14.6721 N   0  0  0  0  0  0  0  0  0  0  0  0
    8.6378  -16.1639   21.9184 C   0  0  1  0  0  0  0  0  0  0  0  0
    8.7706  -15.8209   23.2952 C   0  0  0  0  0  0  0  0  0  0  0  0
    7.4650  -15.7773   24.0405 C   0  0  0  0  0  0  0  0  0  0  0  0
    7.6070  -15.2760   25.4307 C   0  0  0  0  0  0  0  0  0  0  0  0
    7.8596  -16.0332   26.5700 N   0  0  0  0  0  0  0  0  0  0  0  0
    7.9008  -15.1632   27.5910 C   0  0  0  0  0  0  0  0  0  0  0  0
    7.6883  -13.9072   27.1521 C   0  0  0  0  0  0  0  0  0  0  0  0
    7.6311  -12.6742   27.7851 C   0  0  0  0  0  0  0  0  0  0  0  0
    7.3936  -11.5025   27.0987 C   0  0  0  0  0  0  0  0  0  0  0  0
    7.2054  -11.5686   25.7196 C   0  0  0  0  0  0  0  0  0  0  0  0
    7.2566  -12.7768   25.0654 C   0  0  0  0  0  0  0  0  0  0  0  0
    7.4961  -13.9262   25.7849 C   0  0  0  0  0  0  0  0  0  0  0  0
    9.6974  -16.7391   24.0049 O   0  0  0  0  0  0  0  0  0  0  0  0
    9.3398  -17.9101   24.2875 O   0  0  0  0  0  0  0  0  0  0  0  0
   13.4413  -15.5558   24.4085 C   0  0  0  0  0  0  0  0  0  0  0  0
   13.3252  -16.9445   24.2779 C   0  0  1  0  0  0  0  0  0  0  0  0
   11.9760  -17.3195   24.8955 N   0  0  0  0  0  0  0  0  0  0  0  0
   11.0102  -16.3601   24.3972 C   0  0  0  0  0  0  0  0  0  0  0  0
   12.0175  -17.2865   26.3562 O   0  0  0  0  0  0  0  0  0  0  0  0
   11.2748  -16.5053   26.9935 O   0  0  0  0  0  0  0  0  0  0  0  0
  1  2  1  0
  2  3  2  0
  4  5  1  0
  4  2  1  0
  6  5  1  0
  7  6  1  0
  8  9  1  1
  8  7  1  0
 10  8  1  0
 11 10  2  0
 12 10  1  0
 13 12  1  0
 13 24  1  0
 13 14  1  1
 15 14  1  0
 16 15  2  0
 17 16  1  0
 18 17  1  0
 18 23  2  0
 19 18  1  0
 20 19  2  0
 20 21  1  0
 21 22  2  0
 22 23  1  0
 23 15  1  0
 24 25  2  0
 27 26  1  0
 28 27  1  6
 29 24  1  0
 29 28  1  0
 30 28  1  0
 30 32  1  0
 31 30  2  0
M  END
$$$$
