RWS.pdb
     RDKit          3D

 32 33  0  0  1  0  0  0  0  0999 V2000
    7.7313  -15.2363   16.2043 N   0  0  0  0  0  0  0  0  0  0  0  0
    7.8295  -13.8206   16.4129 C   0  0  0  0  0  0  0  0  0  0  0  0
    7.7707  -13.1004   15.3316 N   0  0  0  0  0  0  0  0  0  0  0  0
    7.9788  -13.2417   17.6961 N   0  0  0  0  0  0  0  0  0  0  0  0
    8.5169  -14.0167   18.7763 C   0  0  0  0  0  0  0  0  0  0  0  0
    7.4655  -14.3419   19.8378 C   0  0  0  0  0  0  0  0  0  0  0  0
    8.1460  -14.2866   21.1654 C   0  0  0  0  0  0  0  0  0  0  0  0
    8.8845  -15.5480   21.5110 C   0  0  2  0  0  0  0  0  0  0  0  0
    8.0885  -16.7092   21.2419 N   0  0  0  0  0  0  0  0  0  0  0  0
    9.4320  -15.5338   22.8881 C   0  0  0  0  0  0  0  0  0  0  0  0
   10.2597  -14.6485   23.2183 O   0  0  0  0  0  0  0  0  0  0  0  0
    7.8904  -12.0762   15.4267 N   0  0  0  0  0  0  0  0  0  0  0  0
    8.9888  -16.5387   23.7880 C   0  0  1  0  0  0  0  0  0  0  0  0
    9.4426  -16.5916   25.1378 C   0  0  0  0  0  0  0  0  0  0  0  0
    8.3329  -16.6356   26.1520 C   0  0  0  0  0  0  0  0  0  0  0  0
    7.2996  -15.5936   25.9270 C   0  0  0  0  0  0  0  0  0  0  0  0
    6.0043  -15.7890   25.4587 N   0  0  0  0  0  0  0  0  0  0  0  0
    5.4404  -14.5722   25.4114 C   0  0  0  0  0  0  0  0  0  0  0  0
    6.3109  -13.6301   25.8237 C   0  0  0  0  0  0  0  0  0  0  0  0
    6.2284  -12.2523   25.9613 C   0  0  0  0  0  0  0  0  0  0  0  0
    7.2844  -11.4915   26.4157 C   0  0  0  0  0  0  0  0  0  0  0  0
    8.4735  -12.1382   26.7463 C   0  0  0  0  0  0  0  0  0  0  0  0
    8.5843  -13.5028   26.6200 C   0  0  0  0  0  0  0  0  0  0  0  0
    7.5078  -14.2295   26.1626 C   0  0  0  0  0  0  0  0  0  0  0  0
   10.3497  -17.7445   25.3694 O   0  0  0  0  0  0  0  0  0  0  0  0
   10.5317  -18.6015   24.4686 O   0  0  0  0  0  0  0  0  0  0  0  0
   12.8020  -19.2436   24.5415 C   0  0  0  0  0  0  0  0  0  0  0  0
   13.1735  -18.6523   25.7546 C   0  0  2  0  0  0  0  0  0  0  0  0
   12.0546  -18.9763   26.7472 N   0  0  0  0  0  0  0  0  0  0  0  0
   11.0491  -17.9439   26.5910 C   0  0  0  0  0  0  0  0  0  0  0  0
   12.5409  -19.0073   28.1252 O   0  0  0  0  0  0  0  0  0  0  0  0
   13.4456  -19.8057   28.4598 O   0  0  0  0  0  0  0  0  0  0  0  0
  1  2  1  0
  2  3  2  0
  4  5  1  0
  4  2  1  0
  6  5  1  0
  7  6  1  0
  8  9  1  1
  8  7  1  0
 10  8  1  0
 11 10  2  0
 12 10  1  0
 13 12  1  0
 13 24  1  0
 13 14  1  1
 15 14  1  0
 16 15  2  0
 17 16  1  0
 18 17  1  0
 18 23  2  0
 19 18  1  0
 20 19  2  0
 20 21  1  0
 21 22  2  0
 22 23  1  0
 23 15  1  0
 24 25  2  0
 27 26  1  0
 28 27  1  6
 29 24  1  0
 29 28  1  0
 30 28  1  0
 30 32  1  0
 31 30  2  0
M  END
$$$$
