RWS.pdb
     RDKit          3D

 32 33  0  0  1  0  0  0  0  0999 V2000
    7.0227  -13.8067   15.8807 N   0  0  0  0  0  0  0  0  0  0  0  0
    8.4162  -14.0504   16.1182 C   0  0  0  0  0  0  0  0  0  0  0  0
    9.0623  -14.5679   15.1151 N   0  0  0  0  0  0  0  0  0  0  0  0
    9.0494  -13.7525   17.3488 N   0  0  0  0  0  0  0  0  0  0  0  0
    8.2848  -13.2249   18.4414 C   0  0  0  0  0  0  0  0  0  0  0  0
    7.2462  -14.2213   18.9580 C   0  0  0  0  0  0  0  0  0  0  0  0
    7.4320  -14.3271   20.4355 C   0  0  0  0  0  0  0  0  0  0  0  0
    8.2794  -15.4964   20.8487 C   0  0  2  0  0  0  0  0  0  0  0  0
    7.5074  -16.7020   20.9170 N   0  0  0  0  0  0  0  0  0  0  0  0
    9.0504  -15.2372   22.0876 C   0  0  0  0  0  0  0  0  0  0  0  0
    9.7852  -14.2210   22.1607 O   0  0  0  0  0  0  0  0  0  0  0  0
   10.0839  -14.7023   15.2167 N   0  0  0  0  0  0  0  0  0  0  0  0
    8.9218  -16.1651   23.1545 C   0  0  1  0  0  0  0  0  0  0  0  0
    9.6955  -16.0520   24.3459 C   0  0  0  0  0  0  0  0  0  0  0  0
    8.8896  -16.1775   25.6096 C   0  0  0  0  0  0  0  0  0  0  0  0
    7.6878  -15.3060   25.6202 C   0  0  0  0  0  0  0  0  0  0  0  0
    6.3829  -15.6787   25.3145 N   0  0  0  0  0  0  0  0  0  0  0  0
    5.6392  -14.5703   25.4532 C   0  0  0  0  0  0  0  0  0  0  0  0
    6.4069  -13.5284   25.8280 C   0  0  0  0  0  0  0  0  0  0  0  0
    6.1364  -12.1952   26.0990 C   0  0  0  0  0  0  0  0  0  0  0  0
    7.1191  -11.3042   26.4742 C   0  0  0  0  0  0  0  0  0  0  0  0
    8.4285  -11.7684   26.5824 C   0  0  0  0  0  0  0  0  0  0  0  0
    8.7263  -13.0847   26.3199 C   0  0  0  0  0  0  0  0  0  0  0  0
    7.7178  -13.9452   25.9477 C   0  0  0  0  0  0  0  0  0  0  0  0
   10.8005  -17.0436   24.3816 O   0  0  0  0  0  0  0  0  0  0  0  0
   10.5697  -18.2608   24.1716 O   0  0  0  0  0  0  0  0  0  0  0  0
   14.6477  -17.2468   22.9055 C   0  0  0  0  0  0  0  0  0  0  0  0
   14.4946  -16.9606   24.2670 C   0  0  2  0  0  0  0  0  0  0  0  0
   13.2132  -17.6704   24.7105 N   0  0  0  0  0  0  0  0  0  0  0  0
   12.1505  -16.6864   24.6479 C   0  0  0  0  0  0  0  0  0  0  0  0
   13.3289  -18.2077   26.0648 O   0  0  0  0  0  0  0  0  0  0  0  0
   12.5511  -17.8228   26.9675 O   0  0  0  0  0  0  0  0  0  0  0  0
  1  2  1  0
  2  3  2  0
  4  5  1  0
  4  2  1  0
  6  5  1  0
  7  6  1  0
  8  9  1  1
  8  7  1  0
 10  8  1  0
 11 10  2  0
 12 10  1  0
 13 12  1  0
 13 24  1  0
 13 14  1  1
 15 14  1  0
 16 15  2  0
 17 16  1  0
 18 17  1  0
 18 23  2  0
 19 18  1  0
 20 19  2  0
 20 21  1  0
 21 22  2  0
 22 23  1  0
 23 15  1  0
 24 25  2  0
 27 26  1  0
 28 27  1  6
 29 24  1  0
 29 28  1  0
 30 28  1  0
 30 32  1  0
 31 30  2  0
M  END
$$$$
