RWS.pdb
     RDKit          3D

 32 33  0  0  1  0  0  0  0  0999 V2000
    7.4477  -14.7447   13.0210 N   0  0  0  0  0  0  0  0  0  0  0  0
    8.4419  -13.8122   13.4678 C   0  0  0  0  0  0  0  0  0  0  0  0
    8.9948  -13.1055   12.5265 N   0  0  0  0  0  0  0  0  0  0  0  0
    8.8004  -13.6651   14.8294 N   0  0  0  0  0  0  0  0  0  0  0  0
    8.2950  -14.5825   15.8090 C   0  0  0  0  0  0  0  0  0  0  0  0
    7.3322  -13.9125   16.7900 C   0  0  0  0  0  0  0  0  0  0  0  0
    8.1162  -13.5673   18.0126 C   0  0  0  0  0  0  0  0  0  0  0  0
    8.6004  -14.7700   18.7710 C   0  0  2  0  0  0  0  0  0  0  0  0
    7.8276  -15.9341   18.4519 N   0  0  0  0  0  0  0  0  0  0  0  0
    8.6978  -14.5276   20.2299 C   0  0  0  0  0  0  0  0  0  0  0  0
    9.4473  -13.6156   20.6594 O   0  0  0  0  0  0  0  0  0  0  0  0
    9.7006  -12.4003   12.8036 N   0  0  0  0  0  0  0  0  0  0  0  0
    7.9264  -15.3514   21.0915 C   0  0  1  0  0  0  0  0  0  0  0  0
    8.0471  -15.2762   22.5095 C   0  0  0  0  0  0  0  0  0  0  0  0
    6.7287  -15.2684   23.2332 C   0  0  0  0  0  0  0  0  0  0  0  0
    6.8750  -15.1257   24.7037 C   0  0  0  0  0  0  0  0  0  0  0  0
    6.8043  -16.1405   25.6525 N   0  0  0  0  0  0  0  0  0  0  0  0
    6.9892  -15.5482   26.8425 C   0  0  0  0  0  0  0  0  0  0  0  0
    7.1711  -14.2221   26.6885 C   0  0  0  0  0  0  0  0  0  0  0  0
    7.3971  -13.1823   27.5784 C   0  0  0  0  0  0  0  0  0  0  0  0
    7.5546  -11.8771   27.1637 C   0  0  0  0  0  0  0  0  0  0  0  0
    7.4827  -11.6017   25.7996 C   0  0  0  0  0  0  0  0  0  0  0  0
    7.2598  -12.6122   24.8944 C   0  0  0  0  0  0  0  0  0  0  0  0
    7.1072  -13.9039   25.3464 C   0  0  0  0  0  0  0  0  0  0  0  0
    8.8844  -16.3771   23.0504 O   0  0  0  0  0  0  0  0  0  0  0  0
    8.5496  -17.5755   22.8755 O   0  0  0  0  0  0  0  0  0  0  0  0
   12.7166  -15.8571   23.8425 C   0  0  0  0  0  0  0  0  0  0  0  0
   12.2457  -17.1581   23.6310 C   0  0  1  0  0  0  0  0  0  0  0  0
   10.8799  -17.2341   24.3175 N   0  0  0  0  0  0  0  0  0  0  0  0
   10.0836  -16.1490   23.7791 C   0  0  0  0  0  0  0  0  0  0  0  0
   10.9924  -17.1095   25.7695 O   0  0  0  0  0  0  0  0  0  0  0  0
   10.4588  -16.1464   26.3659 O   0  0  0  0  0  0  0  0  0  0  0  0
  1  2  1  0
  2  3  2  0
  4  5  1  0
  4  2  1  0
  6  5  1  0
  7  6  1  0
  8  9  1  1
  8  7  1  0
 10  8  1  0
 11 10  2  0
 12 10  1  0
 13 12  1  0
 13 24  1  0
 13 14  1  1
 15 14  1  0
 16 15  2  0
 17 16  1  0
 18 17  1  0
 18 23  2  0
 19 18  1  0
 20 19  2  0
 20 21  1  0
 21 22  2  0
 22 23  1  0
 23 15  1  0
 24 25  2  0
 27 26  1  0
 28 27  1  6
 29 24  1  0
 29 28  1  0
 30 28  1  0
 30 32  1  0
 31 30  2  0
M  END
$$$$
