RWS.pdb
     RDKit          3D

 32 33  0  0  1  0  0  0  0  0999 V2000
    7.5222  -13.1912   15.6594 N   0  0  0  0  0  0  0  0  0  0  0  0
    8.1201  -14.4261   16.0777 C   0  0  0  0  0  0  0  0  0  0  0  0
    7.9363  -15.4275   15.2685 N   0  0  0  0  0  0  0  0  0  0  0  0
    8.8572  -14.5546   17.2794 N   0  0  0  0  0  0  0  0  0  0  0  0
    8.5325  -13.7379   18.4128 C   0  0  0  0  0  0  0  0  0  0  0  0
    7.3301  -14.2749   19.1901 C   0  0  0  0  0  0  0  0  0  0  0  0
    7.6974  -14.2614   20.6370 C   0  0  0  0  0  0  0  0  0  0  0  0
    8.3716  -15.5234   21.0938 C   0  0  2  0  0  0  0  0  0  0  0  0
    7.4641  -16.6327   21.0845 N   0  0  0  0  0  0  0  0  0  0  0  0
    9.0700  -15.3639   22.3913 C   0  0  0  0  0  0  0  0  0  0  0  0
    9.8962  -14.4296   22.5411 O   0  0  0  0  0  0  0  0  0  0  0  0
    8.3562  -16.3386   15.5248 N   0  0  0  0  0  0  0  0  0  0  0  0
    8.7688  -16.2901   23.4244 C   0  0  1  0  0  0  0  0  0  0  0  0
    9.5048  -16.3204   24.6443 C   0  0  0  0  0  0  0  0  0  0  0  0
    8.6419  -16.3817   25.8746 C   0  0  0  0  0  0  0  0  0  0  0  0
    7.5041  -15.4290   25.8334 C   0  0  0  0  0  0  0  0  0  0  0  0
    6.2010  -15.7009   25.4294 N   0  0  0  0  0  0  0  0  0  0  0  0
    5.5265  -14.5475   25.5542 C   0  0  0  0  0  0  0  0  0  0  0  0
    6.3355  -13.5727   26.0130 C   0  0  0  0  0  0  0  0  0  0  0  0
    6.1380  -12.2318   26.3085 C   0  0  0  0  0  0  0  0  0  0  0  0
    7.1509  -11.4225   26.7771 C   0  0  0  0  0  0  0  0  0  0  0  0
    8.4152  -11.9799   26.9572 C   0  0  0  0  0  0  0  0  0  0  0  0
    8.6403  -13.3061   26.6726 C   0  0  0  0  0  0  0  0  0  0  0  0
    7.6038  -14.0833   26.2062 C   0  0  0  0  0  0  0  0  0  0  0  0
   10.4691  -17.4493   24.6783 O   0  0  0  0  0  0  0  0  0  0  0  0
   10.0580  -18.6366   24.6906 O   0  0  0  0  0  0  0  0  0  0  0  0
   14.4926  -16.7474   24.6501 C   0  0  0  0  0  0  0  0  0  0  0  0
   14.0702  -17.9147   24.0034 C   0  0  1  0  0  0  0  0  0  0  0  0
   12.8066  -18.3739   24.7348 N   0  0  0  0  0  0  0  0  0  0  0  0
   11.8781  -17.2613   24.6981 C   0  0  0  0  0  0  0  0  0  0  0  0
   13.0862  -18.7568   26.1174 O   0  0  0  0  0  0  0  0  0  0  0  0
   12.5706  -18.1235   27.0666 O   0  0  0  0  0  0  0  0  0  0  0  0
  1  2  1  0
  2  3  2  0
  4  5  1  0
  4  2  1  0
  6  5  1  0
  7  6  1  0
  8  9  1  1
  8  7  1  0
 10  8  1  0
 11 10  2  0
 12 10  1  0
 13 12  1  0
 13 24  1  0
 13 14  1  6
 15 14  1  0
 16 15  2  0
 17 16  1  0
 18 17  1  0
 18 23  2  0
 19 18  1  0
 20 19  2  0
 20 21  1  0
 21 22  2  0
 22 23  1  0
 23 15  1  0
 24 25  2  0
 27 26  1  0
 28 27  1  6
 29 24  1  0
 29 28  1  0
 30 28  1  0
 30 32  1  0
 31 30  2  0
M  END
$$$$
