AHV.pdb
     RDKit          3D

 23 23  0  0  1  0  0  0  0  0999 V2000
   22.7104  -10.6596  -19.0727 C   0  0  0  0  0  0  0  0  0  0  0  0
   21.8136  -11.3372  -18.0874 C   0  0  2  0  0  0  0  0  0  0  0  0
   21.0187  -12.3898  -18.6428 N   0  0  0  0  0  0  0  0  0  0  0  0
   20.9887  -10.3102  -17.3726 C   0  0  0  0  0  0  0  0  0  0  0  0
   20.1822   -9.6616  -18.0868 O   0  0  0  0  0  0  0  0  0  0  0  0
   21.1138  -10.0895  -15.9848 N   0  0  0  0  0  0  0  0  0  0  0  0
   20.3127   -9.0718  -15.2735 C   0  0  1  0  0  0  0  0  0  0  0  0
   19.4277   -9.7403  -14.2871 C   0  0  0  0  0  0  0  0  0  0  0  0
   18.1773  -10.3276  -14.7873 C   0  0  0  0  0  0  0  0  0  0  0  0
   17.6110  -10.2226  -16.0633 C   0  0  0  0  0  0  0  0  0  0  0  0
   16.4372  -10.8732  -16.1150 N   0  0  0  0  0  0  0  0  0  0  0  0
   16.2280  -11.4004  -14.8958 C   0  0  0  0  0  0  0  0  0  0  0  0
   17.2628  -11.0775  -14.1015 N   0  0  0  0  0  0  0  0  0  0  0  0
   21.2688   -8.0823  -14.7639 C   0  0  0  0  0  0  0  0  0  0  0  0
   22.3027   -8.4668  -14.1125 O   0  0  0  0  0  0  0  0  0  0  0  0
   23.8044   -6.1808  -16.2620 C   0  0  0  0  0  0  0  0  0  0  0  0
   23.0164   -5.1580  -15.5096 C   0  0  1  0  0  0  0  0  0  0  0  0
   22.2428   -4.3146  -16.4635 C   0  0  0  0  0  0  0  0  0  0  0  0
   22.1628   -5.7588  -14.4084 C   0  0  2  0  0  0  0  0  0  0  0  0
   21.1772   -6.6655  -14.9244 N   0  0  0  0  0  0  0  0  0  0  0  0
   21.6393   -4.6842  -13.5546 C   0  0  0  0  0  0  0  0  0  0  0  0
   22.4044   -3.9405  -12.6764 O   0  0  0  0  0  0  0  0  0  0  0  0
   20.4082   -4.3836  -13.5918 O   0  0  0  0  0  0  0  0  0  0  0  0
  2  1  1  6
  2  4  1  0
  3  2  1  0
  4  5  2  0
  4  6  1  0
  6  7  1  0
  7 14  1  0
  7  8  1  1
  9  8  1  0
 10  9  2  0
 11 10  1  0
 12 11  1  0
 12 13  2  0
 13  9  1  0
 14 20  1  0
 14 15  2  0
 17 18  1  6
 17 16  1  0
 19 21  1  0
 19 17  1  0
 19 20  1  6
 21 22  1  0
 23 21  2  0
M  END
$$$$
