AHV.pdb
     RDKit          3D

 23 23  0  0  1  0  0  0  0  0999 V2000
   18.5154   -9.3158  -18.7354 C   0  0  0  0  0  0  0  0  0  0  0  0
   19.8049  -10.0645  -18.6306 C   0  0  2  0  0  0  0  0  0  0  0  0
   19.6839  -11.4757  -18.8361 N   0  0  0  0  0  0  0  0  0  0  0  0
   20.4747   -9.7283  -17.3328 C   0  0  0  0  0  0  0  0  0  0  0  0
   19.9065  -10.1565  -16.2960 O   0  0  0  0  0  0  0  0  0  0  0  0
   21.6684   -8.9778  -17.2838 N   0  0  0  0  0  0  0  0  0  0  0  0
   22.3274   -8.6280  -16.0082 C   0  0  1  0  0  0  0  0  0  0  0  0
   23.6972   -9.1989  -15.9868 C   0  0  0  0  0  0  0  0  0  0  0  0
   23.8232  -10.6516  -15.8059 C   0  0  0  0  0  0  0  0  0  0  0  0
   22.8234  -11.5859  -15.5102 C   0  0  0  0  0  0  0  0  0  0  0  0
   23.3474  -12.8161  -15.3857 N   0  0  0  0  0  0  0  0  0  0  0  0
   24.6707  -12.7008  -15.5948 C   0  0  0  0  0  0  0  0  0  0  0  0
   24.9583  -11.4123  -15.8455 N   0  0  0  0  0  0  0  0  0  0  0  0
   22.1978   -7.1732  -15.8673 C   0  0  0  0  0  0  0  0  0  0  0  0
   22.5814   -6.4011  -16.8148 O   0  0  0  0  0  0  0  0  0  0  0  0
   20.1568   -3.0395  -14.3197 C   0  0  0  0  0  0  0  0  0  0  0  0
   20.2198   -4.5301  -14.4066 C   0  0  1  0  0  0  0  0  0  0  0  0
   19.2299   -5.0197  -15.4068 C   0  0  0  0  0  0  0  0  0  0  0  0
   21.6246   -5.0517  -14.6448 C   0  0  2  0  0  0  0  0  0  0  0  0
   21.6594   -6.4834  -14.7378 N   0  0  0  0  0  0  0  0  0  0  0  0
   22.5377   -4.4659  -13.6544 C   0  0  0  0  0  0  0  0  0  0  0  0
   23.0508   -5.1453  -12.5660 O   0  0  0  0  0  0  0  0  0  0  0  0
   22.9074   -3.2581  -13.7648 O   0  0  0  0  0  0  0  0  0  0  0  0
  2  1  1  1
  2  4  1  0
  3  2  1  0
  4  5  2  0
  4  6  1  0
  6  7  1  0
  7 14  1  0
  7  8  1  6
  9  8  1  0
 10  9  2  0
 11 10  1  0
 12 11  1  0
 12 13  2  0
 13  9  1  0
 14 20  1  0
 14 15  2  0
 17 18  1  6
 17 16  1  0
 19 21  1  0
 19 17  1  0
 19 20  1  1
 21 22  1  0
 23 21  2  0
M  END
$$$$
