AHV.pdb
     RDKit          3D

 23 23  0  0  1  0  0  0  0  0999 V2000
   27.7160  -21.0904  -18.3667 C   0  0  0  0  0  0  0  0  0  0  0  0
   27.3469  -21.9268  -17.1842 C   0  0  2  0  0  0  0  0  0  0  0  0
   26.7377  -23.1785  -17.5164 N   0  0  0  0  0  0  0  0  0  0  0  0
   26.5143  -21.1159  -16.2380 C   0  0  0  0  0  0  0  0  0  0  0  0
   26.8789  -19.9241  -16.0708 O   0  0  0  0  0  0  0  0  0  0  0  0
   25.3924  -21.6613  -15.5789 N   0  0  0  0  0  0  0  0  0  0  0  0
   24.5309  -20.8537  -14.6905 C   0  0  1  0  0  0  0  0  0  0  0  0
   23.1337  -20.8904  -15.1900 C   0  0  0  0  0  0  0  0  0  0  0  0
   22.8275  -20.1207  -16.4035 C   0  0  0  0  0  0  0  0  0  0  0  0
   22.7759  -18.7313  -16.5679 C   0  0  0  0  0  0  0  0  0  0  0  0
   22.4217  -18.4165  -17.8245 N   0  0  0  0  0  0  0  0  0  0  0  0
   22.2414  -19.5753  -18.4822 C   0  0  0  0  0  0  0  0  0  0  0  0
   22.4822  -20.5934  -17.6389 N   0  0  0  0  0  0  0  0  0  0  0  0
   24.7763  -21.3426  -13.3289 C   0  0  0  0  0  0  0  0  0  0  0  0
   24.6598  -22.5909  -13.0657 O   0  0  0  0  0  0  0  0  0  0  0  0
   27.8251  -20.8660  -11.1907 C   0  0  0  0  0  0  0  0  0  0  0  0
   26.6604  -20.6609  -10.2770 C   0  0  1  0  0  0  0  0  0  0  0  0
   26.6508  -19.2568   -9.7788 C   0  0  0  0  0  0  0  0  0  0  0  0
   25.3414  -21.0908  -10.8915 C   0  0  2  0  0  0  0  0  0  0  0  0
   25.1557  -20.5451  -12.2058 N   0  0  0  0  0  0  0  0  0  0  0  0
   24.2512  -20.8255   -9.9433 C   0  0  0  0  0  0  0  0  0  0  0  0
   24.0852  -21.4825   -8.7391 O   0  0  0  0  0  0  0  0  0  0  0  0
   23.3798  -19.9426  -10.2054 O   0  0  0  0  0  0  0  0  0  0  0  0
  2  1  1  6
  2  4  1  0
  3  2  1  0
  4  5  2  0
  4  6  1  0
  6  7  1  0
  7 14  1  0
  7  8  1  6
  9  8  1  0
 10  9  2  0
 11 10  1  0
 12 11  1  0
 12 13  2  0
 13  9  1  0
 14 20  1  0
 14 15  2  0
 17 18  1  6
 17 16  1  0
 19 21  1  0
 19 17  1  0
 19 20  1  6
 21 22  1  0
 23 21  2  0
M  END
$$$$
