AHV.pdb
     RDKit          3D

 23 23  0  0  1  0  0  0  0  0999 V2000
   26.1588  -33.3285   -6.0505 C   0  0  0  0  0  0  0  0  0  0  0  0
   27.1264  -34.4368   -6.3149 C   0  0  2  0  0  0  0  0  0  0  0  0
   26.6306  -35.4534   -7.1919 N   0  0  0  0  0  0  0  0  0  0  0  0
   27.6197  -34.9917   -5.0131 C   0  0  0  0  0  0  0  0  0  0  0  0
   26.8460  -35.7941   -4.4312 O   0  0  0  0  0  0  0  0  0  0  0  0
   28.8751  -34.6323   -4.4789 N   0  0  0  0  0  0  0  0  0  0  0  0
   29.4567  -35.3158   -3.3049 C   0  0  1  0  0  0  0  0  0  0  0  0
   30.8855  -34.9373   -3.1701 C   0  0  0  0  0  0  0  0  0  0  0  0
   31.6479  -35.5487   -2.0730 C   0  0  0  0  0  0  0  0  0  0  0  0
   31.2067  -36.4521   -1.0988 C   0  0  0  0  0  0  0  0  0  0  0  0
   32.1993  -36.7482   -0.2440 N   0  0  0  0  0  0  0  0  0  0  0  0
   33.2796  -36.0541   -0.6431 C   0  0  0  0  0  0  0  0  0  0  0  0
   32.9552  -35.3379   -1.7329 N   0  0  0  0  0  0  0  0  0  0  0  0
   28.5677  -35.0168   -2.1765 C   0  0  0  0  0  0  0  0  0  0  0  0
   28.1417  -33.8223   -1.9955 O   0  0  0  0  0  0  0  0  0  0  0  0
   25.2554  -36.3699    1.2291 C   0  0  0  0  0  0  0  0  0  0  0  0
   25.9966  -36.4917   -0.0629 C   0  0  1  0  0  0  0  0  0  0  0  0
   25.0559  -36.3088   -1.2037 C   0  0  0  0  0  0  0  0  0  0  0  0
   27.2141  -35.5890   -0.1358 C   0  0  2  0  0  0  0  0  0  0  0  0
   28.0933  -35.9555   -1.2093 N   0  0  0  0  0  0  0  0  0  0  0  0
   27.8429  -35.5089    1.1893 C   0  0  0  0  0  0  0  0  0  0  0  0
   29.0659  -36.0668    1.5094 O   0  0  0  0  0  0  0  0  0  0  0  0
   27.2608  -34.8965    2.1346 O   0  0  0  0  0  0  0  0  0  0  0  0
  2  1  1  1
  2  4  1  0
  3  2  1  0
  4  5  2  0
  4  6  1  0
  6  7  1  0
  7 14  1  0
  7  8  1  1
  9  8  1  0
 10  9  2  0
 11 10  1  0
 12 11  1  0
 12 13  2  0
 13  9  1  0
 14 20  1  0
 14 15  2  0
 17 18  1  6
 17 16  1  0
 19 21  1  0
 19 17  1  0
 19 20  1  6
 21 22  1  0
 23 21  2  0
M  END
$$$$
