AHV.pdb
     RDKit          3D

 23 23  0  0  1  0  0  0  0  0999 V2000
   25.7249  -14.0933  -17.7551 C   0  0  0  0  0  0  0  0  0  0  0  0
   26.8128  -15.1176  -17.7143 C   0  0  2  0  0  0  0  0  0  0  0  0
   27.4976  -15.2980  -18.9580 N   0  0  0  0  0  0  0  0  0  0  0  0
   26.2703  -16.4023  -17.1656 C   0  0  0  0  0  0  0  0  0  0  0  0
   25.5611  -17.0784  -17.9537 O   0  0  0  0  0  0  0  0  0  0  0  0
   26.5418  -16.8217  -15.8462 N   0  0  0  0  0  0  0  0  0  0  0  0
   26.0535  -18.1104  -15.3128 C   0  0  1  0  0  0  0  0  0  0  0  0
   26.9646  -18.5776  -14.2382 C   0  0  0  0  0  0  0  0  0  0  0  0
   26.5211  -19.7152  -13.4209 C   0  0  0  0  0  0  0  0  0  0  0  0
   25.3116  -20.4174  -13.4826 C   0  0  0  0  0  0  0  0  0  0  0  0
   25.2695  -21.3712  -12.5380 N   0  0  0  0  0  0  0  0  0  0  0  0
   26.4297  -21.3035  -11.8616 C   0  0  0  0  0  0  0  0  0  0  0  0
   27.1785  -20.3178  -12.3847 N   0  0  0  0  0  0  0  0  0  0  0  0
   24.6446  -17.8995  -14.9617 C   0  0  0  0  0  0  0  0  0  0  0  0
   24.3097  -16.9069  -14.2244 O   0  0  0  0  0  0  0  0  0  0  0  0
   21.7156  -16.9723  -17.0043 C   0  0  0  0  0  0  0  0  0  0  0  0
   21.3115  -18.1831  -16.2272 C   0  0  1  0  0  0  0  0  0  0  0  0
   21.2212  -19.3598  -17.1367 C   0  0  0  0  0  0  0  0  0  0  0  0
   22.1863  -18.4274  -15.0118 C   0  0  2  0  0  0  0  0  0  0  0  0
   23.5452  -18.7134  -15.3745 N   0  0  0  0  0  0  0  0  0  0  0  0
   21.5472  -19.4238  -14.1420 C   0  0  0  0  0  0  0  0  0  0  0  0
   20.5202  -19.1475  -13.2597 O   0  0  0  0  0  0  0  0  0  0  0  0
   21.9310  -20.6319  -14.1681 O   0  0  0  0  0  0  0  0  0  0  0  0
  2  1  1  6
  2  4  1  0
  3  2  1  0
  4  5  2  0
  4  6  1  0
  6  7  1  0
  7 14  1  0
  7  8  1  1
  9  8  1  0
 10  9  2  0
 11 10  1  0
 12 11  1  0
 12 13  2  0
 13  9  1  0
 14 20  1  0
 14 15  2  0
 17 18  1  6
 17 16  1  0
 19 21  1  0
 19 17  1  0
 19 20  1  6
 21 22  1  0
 23 21  2  0
M  END
$$$$
