AHV.pdb
     RDKit          3D

 23 23  0  0  1  0  0  0  0  0999 V2000
   24.8317  -11.0285  -15.3979 C   0  0  0  0  0  0  0  0  0  0  0  0
   23.4378  -11.5632  -15.4711 C   0  0  2  0  0  0  0  0  0  0  0  0
   23.2461  -12.5705  -16.4696 N   0  0  0  0  0  0  0  0  0  0  0  0
   22.4720  -10.4256  -15.6099 C   0  0  0  0  0  0  0  0  0  0  0  0
   22.2200  -10.0615  -16.7868 O   0  0  0  0  0  0  0  0  0  0  0  0
   21.8854   -9.8060  -14.4864 N   0  0  0  0  0  0  0  0  0  0  0  0
   20.8500   -8.7595  -14.6147 C   0  0  1  0  0  0  0  0  0  0  0  0
   19.6289   -9.1801  -13.8834 C   0  0  0  0  0  0  0  0  0  0  0  0
   18.6817  -10.0522  -14.5914 C   0  0  0  0  0  0  0  0  0  0  0  0
   18.7565  -10.5445  -15.8998 C   0  0  0  0  0  0  0  0  0  0  0  0
   17.6715  -11.2804  -16.1911 N   0  0  0  0  0  0  0  0  0  0  0  0
   16.8907  -11.2767  -15.0964 C   0  0  0  0  0  0  0  0  0  0  0  0
   17.4891  -10.5458  -14.1407 N   0  0  0  0  0  0  0  0  0  0  0  0
   21.4864   -7.5029  -14.2036 C   0  0  0  0  0  0  0  0  0  0  0  0
   22.1183   -7.4388  -13.0911 O   0  0  0  0  0  0  0  0  0  0  0  0
   24.0676   -5.3698  -16.1356 C   0  0  0  0  0  0  0  0  0  0  0  0
   22.9949   -4.4704  -15.6123 C   0  0  1  0  0  0  0  0  0  0  0  0
   22.1638   -3.9660  -16.7414 C   0  0  0  0  0  0  0  0  0  0  0  0
   22.1794   -5.1038  -14.5006 C   0  0  2  0  0  0  0  0  0  0  0  0
   21.4870   -6.2804  -14.9432 N   0  0  0  0  0  0  0  0  0  0  0  0
   21.3354   -4.0803  -13.8697 C   0  0  0  0  0  0  0  0  0  0  0  0
   21.8122   -3.0524  -13.0789 O   0  0  0  0  0  0  0  0  0  0  0  0
   20.0784   -4.1016  -14.0338 O   0  0  0  0  0  0  0  0  0  0  0  0
  2  1  1  6
  2  4  1  0
  3  2  1  0
  4  5  2  0
  4  6  1  0
  6  7  1  0
  7 14  1  0
  7  8  1  1
  9  8  1  0
 10  9  2  0
 11 10  1  0
 12 11  1  0
 12 13  2  0
 13  9  1  0
 14 20  1  0
 14 15  2  0
 17 18  1  6
 17 16  1  0
 19 21  1  0
 19 17  1  0
 19 20  1  6
 21 22  1  0
 23 21  2  0
M  END
$$$$
