AHV.pdb
     RDKit          3D

 23 23  0  0  1  0  0  0  0  0999 V2000
   25.8299  -34.6663  -16.7265 C   0  0  0  0  0  0  0  0  0  0  0  0
   24.8610  -33.6312  -17.2000 C   0  0  2  0  0  0  0  0  0  0  0  0
   25.1680  -33.0829  -18.4858 N   0  0  0  0  0  0  0  0  0  0  0  0
   24.7029  -32.5754  -16.1482 C   0  0  0  0  0  0  0  0  0  0  0  0
   24.9719  -31.4005  -16.5065 O   0  0  0  0  0  0  0  0  0  0  0  0
   24.2782  -32.8865  -14.8392 N   0  0  0  0  0  0  0  0  0  0  0  0
   23.5062  -31.9342  -14.0141 C   0  0  1  0  0  0  0  0  0  0  0  0
   22.3137  -31.4782  -14.7710 C   0  0  0  0  0  0  0  0  0  0  0  0
   21.3991  -30.5462  -14.0973 C   0  0  0  0  0  0  0  0  0  0  0  0
   21.4459  -30.0737  -12.7803 C   0  0  0  0  0  0  0  0  0  0  0  0
   20.4045  -29.2632  -12.5312 N   0  0  0  0  0  0  0  0  0  0  0  0
   19.6795  -29.1989  -13.6618 C   0  0  0  0  0  0  0  0  0  0  0  0
   20.2689  -29.9622  -14.5977 N   0  0  0  0  0  0  0  0  0  0  0  0
   23.2772  -32.6012  -12.7274 C   0  0  0  0  0  0  0  0  0  0  0  0
   22.7987  -33.7892  -12.6977 O   0  0  0  0  0  0  0  0  0  0  0  0
   25.5149  -32.2273   -9.2296 C   0  0  0  0  0  0  0  0  0  0  0  0
   24.0333  -32.1818   -9.0399 C   0  0  1  0  0  0  0  0  0  0  0  0
   23.6130  -30.7992   -8.6770 C   0  0  0  0  0  0  0  0  0  0  0  0
   23.2665  -32.7546  -10.2173 C   0  0  2  0  0  0  0  0  0  0  0  0
   23.5463  -32.0510  -11.4365 N   0  0  0  0  0  0  0  0  0  0  0  0
   21.8436  -32.8617   -9.8682 C   0  0  0  0  0  0  0  0  0  0  0  0
   21.3144  -33.8253   -9.0310 O   0  0  0  0  0  0  0  0  0  0  0  0
   21.0072  -32.0361  -10.3438 O   0  0  0  0  0  0  0  0  0  0  0  0
  2  1  1  1
  2  4  1  0
  3  2  1  0
  4  5  2  0
  4  6  1  0
  6  7  1  0
  7 14  1  0
  7  8  1  6
  9  8  1  0
 10  9  2  0
 11 10  1  0
 12 11  1  0
 12 13  2  0
 13  9  1  0
 14 20  1  0
 14 15  2  0
 17 18  1  6
 17 16  1  0
 19 21  1  0
 19 17  1  0
 19 20  1  6
 21 22  1  0
 23 21  2  0
M  END
$$$$
