AHV.pdb
     RDKit          3D

 23 23  0  0  1  0  0  0  0  0999 V2000
   27.6313  -35.1308  -14.8861 C   0  0  0  0  0  0  0  0  0  0  0  0
   26.9437  -33.8330  -15.1640 C   0  0  2  0  0  0  0  0  0  0  0  0
   27.6796  -32.9482  -16.0149 N   0  0  0  0  0  0  0  0  0  0  0  0
   26.5485  -33.1888  -13.8698 C   0  0  0  0  0  0  0  0  0  0  0  0
   27.3311  -32.3053  -13.4361 O   0  0  0  0  0  0  0  0  0  0  0  0
   25.3704  -33.5552  -13.1854 N   0  0  0  0  0  0  0  0  0  0  0  0
   24.9303  -32.8703  -11.9521 C   0  0  1  0  0  0  0  0  0  0  0  0
   23.4835  -32.5543  -12.0517 C   0  0  0  0  0  0  0  0  0  0  0  0
   22.8424  -31.9383  -10.8820 C   0  0  0  0  0  0  0  0  0  0  0  0
   23.0879  -30.6847  -10.3092 C   0  0  0  0  0  0  0  0  0  0  0  0
   22.3202  -30.5026   -9.2224 N   0  0  0  0  0  0  0  0  0  0  0  0
   21.5786  -31.6147   -9.0763 C   0  0  0  0  0  0  0  0  0  0  0  0
   21.8869  -32.4729  -10.0633 N   0  0  0  0  0  0  0  0  0  0  0  0
   25.3625  -33.7200  -10.8367 C   0  0  0  0  0  0  0  0  0  0  0  0
   25.4207  -34.9911  -10.9848 O   0  0  0  0  0  0  0  0  0  0  0  0
   27.4868  -34.4860   -6.4096 C   0  0  0  0  0  0  0  0  0  0  0  0
   27.0432  -33.5364   -7.4749 C   0  0  1  0  0  0  0  0  0  0  0  0
   28.2313  -32.9053   -8.1152 C   0  0  0  0  0  0  0  0  0  0  0  0
   26.0864  -34.1661   -8.4700 C   0  0  2  0  0  0  0  0  0  0  0  0
   25.7519  -33.2680   -9.5384 N   0  0  0  0  0  0  0  0  0  0  0  0
   24.9406  -34.7386   -7.7510 C   0  0  0  0  0  0  0  0  0  0  0  0
   24.9168  -36.0060   -7.2009 O   0  0  0  0  0  0  0  0  0  0  0  0
   23.8797  -34.0608   -7.6005 O   0  0  0  0  0  0  0  0  0  0  0  0
  2  1  1  1
  2  4  1  0
  3  2  1  0
  4  5  2  0
  4  6  1  0
  6  7  1  0
  7 14  1  0
  7  8  1  6
  9  8  1  0
 10  9  2  0
 11 10  1  0
 12 11  1  0
 12 13  2  0
 13  9  1  0
 14 20  1  0
 14 15  2  0
 17 18  1  6
 17 16  1  0
 19 21  1  0
 19 17  1  0
 19 20  1  6
 21 22  1  0
 23 21  2  0
M  END
$$$$
