AHV.pdb
     RDKit          3D

 23 23  0  0  1  0  0  0  0  0999 V2000
   25.5100  -19.1601  -19.2206 C   0  0  0  0  0  0  0  0  0  0  0  0
   25.9624  -18.5884  -17.9157 C   0  0  2  0  0  0  0  0  0  0  0  0
   27.3800  -18.4260  -17.8048 N   0  0  0  0  0  0  0  0  0  0  0  0
   25.3866  -19.3933  -16.7902 C   0  0  0  0  0  0  0  0  0  0  0  0
   24.7528  -20.4267  -17.1241 O   0  0  0  0  0  0  0  0  0  0  0  0
   25.5489  -19.0101  -15.4422 N   0  0  0  0  0  0  0  0  0  0  0  0
   25.0266  -19.8226  -14.3238 C   0  0  1  0  0  0  0  0  0  0  0  0
   25.7402  -19.4598  -13.0739 C   0  0  0  0  0  0  0  0  0  0  0  0
   25.2722  -20.0738  -11.8238 C   0  0  0  0  0  0  0  0  0  0  0  0
   24.1910  -20.9411  -11.6268 C   0  0  0  0  0  0  0  0  0  0  0  0
   24.0654  -21.2529  -10.3266 N   0  0  0  0  0  0  0  0  0  0  0  0
   25.0450  -20.6045   -9.6723 C   0  0  0  0  0  0  0  0  0  0  0  0
   25.7665  -19.9006  -10.5610 N   0  0  0  0  0  0  0  0  0  0  0  0
   23.5689  -19.6559  -14.3440 C   0  0  0  0  0  0  0  0  0  0  0  0
   23.0591  -18.4826  -14.4105 O   0  0  0  0  0  0  0  0  0  0  0  0
   20.7743  -22.5233  -15.7135 C   0  0  0  0  0  0  0  0  0  0  0  0
   20.5372  -21.0547  -15.5709 C   0  0  1  0  0  0  0  0  0  0  0  0
   19.0782  -20.7674  -15.6648 C   0  0  0  0  0  0  0  0  0  0  0  0
   21.1882  -20.4660  -14.3333 C   0  0  2  0  0  0  0  0  0  0  0  0
   22.6026  -20.7075  -14.3016 N   0  0  0  0  0  0  0  0  0  0  0  0
   20.4515  -20.9017  -13.1394 C   0  0  0  0  0  0  0  0  0  0  0  0
   19.3642  -20.2367  -12.6057 O   0  0  0  0  0  0  0  0  0  0  0  0
   20.8010  -21.9536  -12.5238 O   0  0  0  0  0  0  0  0  0  0  0  0
  2  1  1  6
  2  4  1  0
  3  2  1  0
  4  5  2  0
  4  6  1  0
  6  7  1  0
  7 14  1  0
  7  8  1  1
  9  8  1  0
 10  9  2  0
 11 10  1  0
 12 11  1  0
 12 13  2  0
 13  9  1  0
 14 20  1  0
 14 15  2  0
 17 18  1  1
 17 16  1  0
 19 21  1  0
 19 17  1  0
 19 20  1  1
 21 22  1  0
 23 21  2  0
M  END
$$$$
