AHV.pdb
     RDKit          3D

 23 23  0  0  1  0  0  0  0  0999 V2000
   17.5127  -12.0896  -19.3337 C   0  0  0  0  0  0  0  0  0  0  0  0
   18.7791  -12.8718  -19.1973 C   0  0  2  0  0  0  0  0  0  0  0  0
   18.5842  -14.2701  -18.9627 N   0  0  0  0  0  0  0  0  0  0  0  0
   19.6534  -12.2320  -18.1618 C   0  0  0  0  0  0  0  0  0  0  0  0
   19.1625  -12.1465  -17.0073 O   0  0  0  0  0  0  0  0  0  0  0  0
   20.9459  -11.7572  -18.4692 N   0  0  0  0  0  0  0  0  0  0  0  0
   21.8366  -11.1762  -17.4431 C   0  0  1  0  0  0  0  0  0  0  0  0
   23.2360  -11.5925  -17.7104 C   0  0  0  0  0  0  0  0  0  0  0  0
   24.2756  -11.1011  -16.7957 C   0  0  0  0  0  0  0  0  0  0  0  0
   24.1381  -10.2531  -15.6904 C   0  0  0  0  0  0  0  0  0  0  0  0
   25.3342  -10.0056  -15.1322 N   0  0  0  0  0  0  0  0  0  0  0  0
   26.2491  -10.6770  -15.8536 C   0  0  0  0  0  0  0  0  0  0  0  0
   25.6223  -11.3312  -16.8460 N   0  0  0  0  0  0  0  0  0  0  0  0
   21.5507   -9.7372  -17.4217 C   0  0  0  0  0  0  0  0  0  0  0  0
   21.6163   -9.0548  -18.5038 O   0  0  0  0  0  0  0  0  0  0  0  0
   18.7678   -7.7447  -17.4764 C   0  0  0  0  0  0  0  0  0  0  0  0
   19.5163   -7.1767  -16.3143 C   0  0  1  0  0  0  0  0  0  0  0  0
   18.8192   -7.5267  -15.0449 C   0  0  0  0  0  0  0  0  0  0  0  0
   20.9870   -7.5499  -16.3162 C   0  0  2  0  0  0  0  0  0  0  0  0
   21.1825   -8.9711  -16.2732 N   0  0  0  0  0  0  0  0  0  0  0  0
   21.6854   -6.7897  -15.2711 C   0  0  0  0  0  0  0  0  0  0  0  0
   21.9779   -5.4414  -15.3484 O   0  0  0  0  0  0  0  0  0  0  0  0
   22.0646   -7.3681  -14.2085 O   0  0  0  0  0  0  0  0  0  0  0  0
  2  1  1  1
  2  4  1  0
  3  2  1  0
  4  5  2  0
  4  6  1  0
  6  7  1  0
  7 14  1  0
  7  8  1  6
  9  8  1  0
 10  9  2  0
 11 10  1  0
 12 11  1  0
 12 13  2  0
 13  9  1  0
 14 20  1  0
 14 15  2  0
 17 18  1  1
 17 16  1  0
 19 21  1  0
 19 17  1  0
 19 20  1  1
 21 22  1  0
 23 21  2  0
M  END
$$$$
