AHV.pdb
     RDKit          3D

 23 23  0  0  1  0  0  0  0  0999 V2000
   27.5559  -20.7848  -18.1179 C   0  0  0  0  0  0  0  0  0  0  0  0
   28.0111  -21.6367  -16.9772 C   0  0  2  0  0  0  0  0  0  0  0  0
   28.5608  -22.8988  -17.3687 N   0  0  0  0  0  0  0  0  0  0  0  0
   26.8986  -21.7781  -15.9831 C   0  0  0  0  0  0  0  0  0  0  0  0
   26.0562  -22.6789  -16.2281 O   0  0  0  0  0  0  0  0  0  0  0  0
   26.8076  -20.9492  -14.8450 N   0  0  0  0  0  0  0  0  0  0  0  0
   25.7688  -21.1409  -13.8117 C   0  0  1  0  0  0  0  0  0  0  0  0
   26.2702  -20.6393  -12.5079 C   0  0  0  0  0  0  0  0  0  0  0  0
   25.3664  -20.7324  -11.3531 C   0  0  0  0  0  0  0  0  0  0  0  0
   24.0366  -21.1685  -11.3164 C   0  0  0  0  0  0  0  0  0  0  0  0
   23.5398  -21.0677  -10.0728 N   0  0  0  0  0  0  0  0  0  0  0  0
   24.5216  -20.5737   -9.2981 C   0  0  0  0  0  0  0  0  0  0  0  0
   25.6119  -20.3724  -10.0573 N   0  0  0  0  0  0  0  0  0  0  0  0
   24.5447  -20.5331  -14.3455 C   0  0  0  0  0  0  0  0  0  0  0  0
   24.5907  -19.3770  -14.8955 O   0  0  0  0  0  0  0  0  0  0  0  0
   22.5737  -20.9382  -17.2032 C   0  0  0  0  0  0  0  0  0  0  0  0
   21.5613  -20.9959  -16.1055 C   0  0  1  0  0  0  0  0  0  0  0  0
   21.0319  -22.3828  -15.9793 C   0  0  0  0  0  0  0  0  0  0  0  0
   22.0729  -20.4253  -14.7959 C   0  0  2  0  0  0  0  0  0  0  0  0
   23.2403  -21.1158  -14.3266 N   0  0  0  0  0  0  0  0  0  0  0  0
   20.9659  -20.3410  -13.8340 C   0  0  0  0  0  0  0  0  0  0  0  0
   19.8812  -19.4947  -13.9625 O   0  0  0  0  0  0  0  0  0  0  0  0
   20.9628  -21.0755  -12.8005 O   0  0  0  0  0  0  0  0  0  0  0  0
  2  1  1  6
  2  4  1  0
  3  2  1  0
  4  5  2  0
  4  6  1  0
  6  7  1  0
  7 14  1  0
  7  8  1  1
  9  8  1  0
 10  9  2  0
 11 10  1  0
 12 11  1  0
 12 13  2  0
 13  9  1  0
 14 20  1  0
 14 15  2  0
 17 18  1  1
 17 16  1  0
 19 21  1  0
 19 17  1  0
 19 20  1  1
 21 22  1  0
 23 21  2  0
M  END
$$$$
