AHV.pdb
     RDKit          3D

 23 23  0  0  1  0  0  0  0  0999 V2000
   18.5778  -13.5904  -18.2029 C   0  0  0  0  0  0  0  0  0  0  0  0
   19.6167  -13.1325  -19.1751 C   0  0  2  0  0  0  0  0  0  0  0  0
   20.4191  -14.1861  -19.7178 N   0  0  0  0  0  0  0  0  0  0  0  0
   20.4399  -12.0457  -18.5529 C   0  0  0  0  0  0  0  0  0  0  0  0
   21.3106  -12.4223  -17.7274 O   0  0  0  0  0  0  0  0  0  0  0  0
   20.2455  -10.6865  -18.8771 N   0  0  0  0  0  0  0  0  0  0  0  0
   21.1493   -9.6233  -18.3908 C   0  0  1  0  0  0  0  0  0  0  0  0
   21.2662   -8.5635  -19.4233 C   0  0  0  0  0  0  0  0  0  0  0  0
   22.1698   -8.8158  -20.5541 C   0  0  0  0  0  0  0  0  0  0  0  0
   23.0553   -9.8832  -20.7444 C   0  0  0  0  0  0  0  0  0  0  0  0
   23.7369   -9.7336  -21.8919 N   0  0  0  0  0  0  0  0  0  0  0  0
   23.3118   -8.5879  -22.4530 C   0  0  0  0  0  0  0  0  0  0  0  0
   22.3778   -8.0378  -21.6588 N   0  0  0  0  0  0  0  0  0  0  0  0
   20.6437   -9.2298  -17.0708 C   0  0  0  0  0  0  0  0  0  0  0  0
   19.3889   -9.0401  -16.8958 O   0  0  0  0  0  0  0  0  0  0  0  0
   22.7401   -9.7062  -13.3447 C   0  0  0  0  0  0  0  0  0  0  0  0
   21.2599   -9.5969  -13.5192 C   0  0  1  0  0  0  0  0  0  0  0  0
   20.6199   -9.2755  -12.2128 C   0  0  0  0  0  0  0  0  0  0  0  0
   20.8624   -8.6476  -14.6341 C   0  0  2  0  0  0  0  0  0  0  0  0
   21.4310   -9.0292  -15.8954 N   0  0  0  0  0  0  0  0  0  0  0  0
   21.1325   -7.2649  -14.2180 C   0  0  0  0  0  0  0  0  0  0  0  0
   20.3259   -6.5326  -13.3679 O   0  0  0  0  0  0  0  0  0  0  0  0
   22.1637   -6.6618  -14.6426 O   0  0  0  0  0  0  0  0  0  0  0  0
  2  1  1  1
  2  4  1  0
  3  2  1  0
  4  5  2  0
  4  6  1  0
  6  7  1  0
  7 14  1  0
  7  8  1  6
  9  8  1  0
 10  9  2  0
 11 10  1  0
 12 11  1  0
 12 13  2  0
 13  9  1  0
 14 20  1  0
 14 15  2  0
 17 18  1  1
 17 16  1  0
 19 21  1  0
 19 17  1  0
 19 20  1  6
 21 22  1  0
 23 21  2  0
M  END
$$$$
