HPA.pdb
     RDKit          3D

 23 24  0  0  1  0  0  0  0  0999 V2000
   10.2605  -13.9767   20.3707 N   0  0  0  0  0  0  0  0  0  0  0  0
    9.1443  -13.9394   21.2452 C   0  0  1  0  0  0  0  0  0  0  0  0
    8.0120  -14.6732   20.5497 C   0  0  0  0  0  0  0  0  0  0  0  0
    7.8677  -14.2434   19.1405 C   0  0  0  0  0  0  0  0  0  0  0  0
    7.4022  -13.0411   18.6399 C   0  0  0  0  0  0  0  0  0  0  0  0
    7.4320  -13.0561   17.2980 N   0  0  0  0  0  0  0  0  0  0  0  0
    7.9118  -14.2557   16.9344 C   0  0  0  0  0  0  0  0  0  0  0  0
    8.1710  -14.9628   18.0453 N   0  0  0  0  0  0  0  0  0  0  0  0
    9.3391  -14.4892   22.5992 C   0  0  0  0  0  0  0  0  0  0  0  0
   10.5528  -14.9360   22.7783 O   0  0  0  0  0  0  0  0  0  0  0  0
    8.4056  -14.5694   23.6355 N   0  0  0  0  0  0  0  0  0  0  0  0
    6.9950  -14.4883   23.6089 C   0  0  0  0  0  0  0  0  0  0  0  0
    6.7710  -13.3926   24.6496 C   0  0  0  0  0  0  0  0  0  0  0  0
    7.7793  -13.7874   25.6846 C   0  0  0  0  0  0  0  0  0  0  0  0
    8.7307  -14.7637   25.0303 C   0  0  1  0  0  0  0  0  0  0  0  0
    8.5045  -16.1681   25.4635 C   0  0  0  0  0  0  0  0  0  0  0  0
    7.4033  -16.7058   25.2101 O   0  0  0  0  0  0  0  0  0  0  0  0
   10.5472  -19.1042   25.8607 C   0  0  0  0  0  0  0  0  0  0  0  0
    9.3552  -18.3293   26.4377 C   0  0  2  0  0  0  0  0  0  0  0  0
    9.4756  -16.9345   26.1521 N   0  0  0  0  0  0  0  0  0  0  0  0
    9.3835  -18.5459   27.9026 C   0  0  0  0  0  0  0  0  0  0  0  0
    9.6023  -17.5162   28.7984 O   0  0  0  0  0  0  0  0  0  0  0  0
    9.2035  -19.6987   28.3426 O   0  0  0  0  0  0  0  0  0  0  0  0
  2  9  1  0
  2  1  1  6
  3  2  1  0
  4  3  1  0
  5  4  2  0
  6  5  1  0
  7  6  1  0
  7  8  2  0
  8  4  1  0
  9 10  2  0
 11  9  1  0
 11 15  1  0
 12 11  1  0
 12 13  1  0
 13 14  1  0
 15 14  1  0
 16 17  2  0
 15 16  1  1
 19 18  1  6
 19 20  1  0
 20 16  1  0
 21 22  1  0
 21 19  1  0
 23 21  2  0
M  END
$$$$
