HPA.pdb
     RDKit          3D

 23 24  0  0  1  0  0  0  0  0999 V2000
   11.0292  -15.4336   16.8997 N   0  0  0  0  0  0  0  0  0  0  0  0
    9.9276  -15.0376   17.7008 C   0  0  1  0  0  0  0  0  0  0  0  0
    8.7715  -15.9565   17.3495 C   0  0  0  0  0  0  0  0  0  0  0  0
    8.5120  -15.9741   15.8922 C   0  0  0  0  0  0  0  0  0  0  0  0
    8.3271  -14.9107   15.0274 C   0  0  0  0  0  0  0  0  0  0  0  0
    8.1173  -15.3598   13.7800 N   0  0  0  0  0  0  0  0  0  0  0  0
    8.1660  -16.6998   13.8373 C   0  0  0  0  0  0  0  0  0  0  0  0
    8.4032  -17.0613   15.1078 N   0  0  0  0  0  0  0  0  0  0  0  0
   10.1333  -15.0288   19.1606 C   0  0  0  0  0  0  0  0  0  0  0  0
   11.3124  -15.4805   19.4935 O   0  0  0  0  0  0  0  0  0  0  0  0
    9.2413  -14.6096   20.1506 N   0  0  0  0  0  0  0  0  0  0  0  0
    7.8986  -14.1795   20.0543 C   0  0  0  0  0  0  0  0  0  0  0  0
    7.9939  -12.8415   20.7855 C   0  0  0  0  0  0  0  0  0  0  0  0
    8.8968  -13.2135   21.9212 C   0  0  0  0  0  0  0  0  0  0  0  0
    9.5462  -14.5308   21.5612 C   0  0  1  0  0  0  0  0  0  0  0  0
    8.9798  -15.6791   22.3174 C   0  0  0  0  0  0  0  0  0  0  0  0
    7.9643  -16.2544   21.8661 O   0  0  0  0  0  0  0  0  0  0  0  0
   10.5419  -18.2759   22.8649 C   0  0  0  0  0  0  0  0  0  0  0  0
    9.6520  -17.5404   23.8755 C   0  0  2  0  0  0  0  0  0  0  0  0
    9.5323  -16.1593   23.5294 N   0  0  0  0  0  0  0  0  0  0  0  0
   10.3159  -17.6720   25.1928 C   0  0  0  0  0  0  0  0  0  0  0  0
   10.1463  -18.7820   25.9989 O   0  0  0  0  0  0  0  0  0  0  0  0
   11.0539  -16.7479   25.5881 O   0  0  0  0  0  0  0  0  0  0  0  0
  2  9  1  0
  2  1  1  6
  3  2  1  0
  4  3  1  0
  5  4  2  0
  6  5  1  0
  7  6  1  0
  7  8  2  0
  8  4  1  0
  9 10  2  0
 11  9  1  0
 11 15  1  0
 12 11  1  0
 12 13  1  0
 13 14  1  0
 15 14  1  0
 16 17  2  0
 15 16  1  1
 19 18  1  6
 19 20  1  0
 20 16  1  0
 21 22  1  0
 21 19  1  0
 23 21  2  0
M  END
$$$$
