HPA.pdb
     RDKit          3D

 23 24  0  0  1  0  0  0  0  0999 V2000
   11.3645  -15.5435   17.2744 N   0  0  0  0  0  0  0  0  0  0  0  0
   10.0690  -15.3699   17.8256 C   0  0  1  0  0  0  0  0  0  0  0  0
    9.3308  -16.6839   17.6444 C   0  0  0  0  0  0  0  0  0  0  0  0
    9.3280  -17.1174   16.2290 C   0  0  0  0  0  0  0  0  0  0  0  0
    8.6288  -16.5908   15.1582 C   0  0  0  0  0  0  0  0  0  0  0  0
    8.9080  -17.2787   14.0399 N   0  0  0  0  0  0  0  0  0  0  0  0
    9.7788  -18.2403   14.3838 C   0  0  0  0  0  0  0  0  0  0  0  0
   10.0262  -18.1374   15.6988 N   0  0  0  0  0  0  0  0  0  0  0  0
    9.9954  -14.9455   19.2356 C   0  0  0  0  0  0  0  0  0  0  0  0
   11.1190  -15.1481   19.8691 O   0  0  0  0  0  0  0  0  0  0  0  0
    8.9063  -14.3851   19.9075 N   0  0  0  0  0  0  0  0  0  0  0  0
    7.5804  -14.1554   19.4758 C   0  0  0  0  0  0  0  0  0  0  0  0
    7.4464  -12.6695   19.8049 C   0  0  0  0  0  0  0  0  0  0  0  0
    8.1410  -12.6187   21.1310 C   0  0  0  0  0  0  0  0  0  0  0  0
    8.9331  -13.8994   21.2685 C   0  0  1  0  0  0  0  0  0  0  0  0
    8.3118  -14.8633   22.2151 C   0  0  0  0  0  0  0  0  0  0  0  0
    7.4424  -15.6537   21.7846 O   0  0  0  0  0  0  0  0  0  0  0  0
    6.7629  -16.3478   24.1936 C   0  0  0  0  0  0  0  0  0  0  0  0
    8.2206  -15.9635   24.4790 C   0  0  2  0  0  0  0  0  0  0  0  0
    8.6539  -14.9346   23.5872 N   0  0  0  0  0  0  0  0  0  0  0  0
    9.0270  -17.1869   24.2635 C   0  0  0  0  0  0  0  0  0  0  0  0
    9.9167  -17.6623   25.2085 O   0  0  0  0  0  0  0  0  0  0  0  0
    8.8981  -17.8096   23.1909 O   0  0  0  0  0  0  0  0  0  0  0  0
  2  9  1  0
  2  1  1  1
  3  2  1  0
  4  3  1  0
  5  4  2  0
  6  5  1  0
  7  6  1  0
  7  8  2  0
  8  4  1  0
  9 10  2  0
 11  9  1  0
 11 15  1  0
 12 11  1  0
 12 13  1  0
 13 14  1  0
 15 14  1  0
 16 17  2  0
 15 16  1  1
 19 18  1  6
 19 20  1  0
 20 16  1  0
 21 22  1  0
 21 19  1  0
 23 21  2  0
M  END
$$$$
