HPA.pdb
     RDKit          3D

 23 24  0  0  1  0  0  0  0  0999 V2000
    4.5982  -17.6008   22.4835 N   0  0  0  0  0  0  0  0  0  0  0  0
    5.6892  -16.7373   22.7601 C   0  0  1  0  0  0  0  0  0  0  0  0
    6.1839  -17.0812   24.1535 C   0  0  0  0  0  0  0  0  0  0  0  0
    7.2266  -16.1353   24.6110 C   0  0  0  0  0  0  0  0  0  0  0  0
    7.1035  -15.0415   25.4483 C   0  0  0  0  0  0  0  0  0  0  0  0
    8.2959  -14.4468   25.6111 N   0  0  0  0  0  0  0  0  0  0  0  0
    9.1810  -15.1488   24.8867 C   0  0  0  0  0  0  0  0  0  0  0  0
    8.5323  -16.1605   24.2893 N   0  0  0  0  0  0  0  0  0  0  0  0
    6.8159  -16.7606   21.8097 C   0  0  0  0  0  0  0  0  0  0  0  0
    6.9454  -17.9231   21.2293 O   0  0  0  0  0  0  0  0  0  0  0  0
    7.6963  -15.7221   21.4965 N   0  0  0  0  0  0  0  0  0  0  0  0
    7.8416  -14.4379   22.0682 C   0  0  0  0  0  0  0  0  0  0  0  0
    7.7384  -13.5737   20.8126 C   0  0  0  0  0  0  0  0  0  0  0  0
    8.5450  -14.3906   19.8505 C   0  0  0  0  0  0  0  0  0  0  0  0
    8.6956  -15.7691   20.4535 C   0  0  1  0  0  0  0  0  0  0  0  0
   10.0571  -16.0150   20.9985 C   0  0  0  0  0  0  0  0  0  0  0  0
   10.3585  -15.5226   22.1088 O   0  0  0  0  0  0  0  0  0  0  0  0
   12.6201  -18.6136   20.0409 C   0  0  0  0  0  0  0  0  0  0  0  0
   12.0773  -17.5188   20.9687 C   0  0  2  0  0  0  0  0  0  0  0  0
   11.0372  -16.7818   20.3233 N   0  0  0  0  0  0  0  0  0  0  0  0
   13.2162  -16.6211   21.2695 C   0  0  0  0  0  0  0  0  0  0  0  0
   14.2882  -17.0207   22.0453 O   0  0  0  0  0  0  0  0  0  0  0  0
   13.2069  -15.4636   20.8059 O   0  0  0  0  0  0  0  0  0  0  0  0
  2  9  1  0
  2  1  1  6
  3  2  1  0
  4  3  1  0
  5  4  2  0
  6  5  1  0
  7  6  1  0
  7  8  2  0
  8  4  1  0
  9 10  2  0
 11  9  1  0
 11 15  1  0
 12 11  1  0
 12 13  1  0
 13 14  1  0
 15 14  1  0
 16 17  2  0
 15 16  1  1
 19 18  1  6
 19 20  1  0
 20 16  1  0
 21 22  1  0
 21 19  1  0
 23 21  2  0
M  END
$$$$
