HPA.pdb
     RDKit          3D

 23 24  0  0  1  0  0  0  0  0999 V2000
   10.9276  -14.9585   17.0090 N   0  0  0  0  0  0  0  0  0  0  0  0
    9.8649  -14.6499   17.8964 C   0  0  1  0  0  0  0  0  0  0  0  0
    8.6635  -15.4625   17.4481 C   0  0  0  0  0  0  0  0  0  0  0  0
    8.3168  -15.1896   16.0351 C   0  0  0  0  0  0  0  0  0  0  0  0
    8.2142  -13.9746   15.3824 C   0  0  0  0  0  0  0  0  0  0  0  0
    7.8756  -14.1666   14.0978 N   0  0  0  0  0  0  0  0  0  0  0  0
    7.7603  -15.4921   13.9215 C   0  0  0  0  0  0  0  0  0  0  0  0
    8.0264  -16.0995   15.0882 N   0  0  0  0  0  0  0  0  0  0  0  0
   10.1101  -14.8712   19.3332 C   0  0  0  0  0  0  0  0  0  0  0  0
   11.2988  -15.3619   19.5590 O   0  0  0  0  0  0  0  0  0  0  0  0
    9.2441  -14.6202   20.4003 N   0  0  0  0  0  0  0  0  0  0  0  0
    7.8521  -14.3771   20.4155 C   0  0  0  0  0  0  0  0  0  0  0  0
    7.8182  -13.0695   21.2048 C   0  0  0  0  0  0  0  0  0  0  0  0
    8.8437  -13.3583   22.2577 C   0  0  0  0  0  0  0  0  0  0  0  0
    9.6377  -14.5570   21.7895 C   0  0  1  0  0  0  0  0  0  0  0  0
    9.2890  -15.8024   22.5235 C   0  0  0  0  0  0  0  0  0  0  0  0
    8.1794  -16.3384   22.3055 O   0  0  0  0  0  0  0  0  0  0  0  0
   11.3110  -18.3527   24.3864 C   0  0  0  0  0  0  0  0  0  0  0  0
    9.9638  -17.7290   23.9988 C   0  0  2  0  0  0  0  0  0  0  0  0
   10.1517  -16.4181   23.4623 N   0  0  0  0  0  0  0  0  0  0  0  0
    9.1636  -17.6523   25.2427 C   0  0  0  0  0  0  0  0  0  0  0  0
    8.6362  -18.7747   25.8532 O   0  0  0  0  0  0  0  0  0  0  0  0
    8.9589  -16.5350   25.7568 O   0  0  0  0  0  0  0  0  0  0  0  0
  2  9  1  0
  2  1  1  6
  3  2  1  0
  4  3  1  0
  5  4  2  0
  6  5  1  0
  7  6  1  0
  7  8  2  0
  8  4  1  0
  9 10  2  0
 11  9  1  0
 11 15  1  0
 12 11  1  0
 12 13  1  0
 13 14  1  0
 15 14  1  0
 16 17  2  0
 15 16  1  1
 19 18  1  1
 19 20  1  0
 20 16  1  0
 21 22  1  0
 21 19  1  0
 23 21  2  0
M  END
$$$$
