HPA.pdb
     RDKit          3D

 23 24  0  0  1  0  0  0  0  0999 V2000
    9.5902  -13.6193   21.5851 N   0  0  0  0  0  0  0  0  0  0  0  0
    8.5551  -13.6722   22.5536 C   0  0  1  0  0  0  0  0  0  0  0  0
    7.4480  -14.5326   21.9721 C   0  0  0  0  0  0  0  0  0  0  0  0
    7.2345  -14.2491   20.5349 C   0  0  0  0  0  0  0  0  0  0  0  0
    7.0758  -13.0297   19.9019 C   0  0  0  0  0  0  0  0  0  0  0  0
    6.9058  -13.2118   18.5829 N   0  0  0  0  0  0  0  0  0  0  0  0
    6.9539  -14.5352   18.3651 C   0  0  0  0  0  0  0  0  0  0  0  0
    7.1514  -15.1513   19.5409 N   0  0  0  0  0  0  0  0  0  0  0  0
    8.9203  -14.1660   23.8938 C   0  0  0  0  0  0  0  0  0  0  0  0
   10.0937  -14.7386   23.9038 O   0  0  0  0  0  0  0  0  0  0  0  0
    8.1745  -14.0819   25.0722 N   0  0  0  0  0  0  0  0  0  0  0  0
    6.7885  -13.8891   25.2698 C   0  0  0  0  0  0  0  0  0  0  0  0
    6.8184  -12.6945   26.2217 C   0  0  0  0  0  0  0  0  0  0  0  0
    7.9605  -13.0808   27.1105 C   0  0  0  0  0  0  0  0  0  0  0  0
    8.7197  -14.1831   26.4069 C   0  0  1  0  0  0  0  0  0  0  0  0
    8.4789  -15.5227   27.0057 C   0  0  0  0  0  0  0  0  0  0  0  0
    7.3212  -15.9968   26.9733 O   0  0  0  0  0  0  0  0  0  0  0  0
   10.6263  -18.4268   27.2640 C   0  0  0  0  0  0  0  0  0  0  0  0
    9.4124  -17.7010   27.8588 C   0  0  2  0  0  0  0  0  0  0  0  0
    9.4969  -16.2956   27.6149 N   0  0  0  0  0  0  0  0  0  0  0  0
    9.4417  -17.9599   29.3168 C   0  0  0  0  0  0  0  0  0  0  0  0
    9.2167  -19.2153   29.8496 O   0  0  0  0  0  0  0  0  0  0  0  0
    9.6777  -17.0109   30.0904 O   0  0  0  0  0  0  0  0  0  0  0  0
  2  9  1  0
  2  1  1  6
  3  2  1  0
  4  3  1  0
  5  4  2  0
  6  5  1  0
  7  6  1  0
  7  8  2  0
  8  4  1  0
  9 10  2  0
 11  9  1  0
 11 15  1  0
 12 11  1  0
 12 13  1  0
 13 14  1  0
 15 14  1  0
 16 17  2  0
 15 16  1  1
 19 18  1  6
 19 20  1  0
 20 16  1  0
 21 22  1  0
 21 19  1  0
 23 21  2  0
M  END
$$$$
