HPA.pdb
     RDKit          3D

 23 24  0  0  1  0  0  0  0  0999 V2000
    9.1981  -14.3657   21.6896 N   0  0  0  0  0  0  0  0  0  0  0  0
    8.3098  -14.2371   22.7880 C   0  0  1  0  0  0  0  0  0  0  0  0
    7.3454  -15.4073   22.7171 C   0  0  0  0  0  0  0  0  0  0  0  0
    6.7250  -15.5226   21.3781 C   0  0  0  0  0  0  0  0  0  0  0  0
    5.8625  -14.6501   20.7397 C   0  0  0  0  0  0  0  0  0  0  0  0
    5.5310  -15.1292   19.5304 N   0  0  0  0  0  0  0  0  0  0  0  0
    6.1725  -16.2995   19.3881 C   0  0  0  0  0  0  0  0  0  0  0  0
    6.8870  -16.5291   20.5007 N   0  0  0  0  0  0  0  0  0  0  0  0
    8.9147  -14.1685   24.1307 C   0  0  0  0  0  0  0  0  0  0  0  0
   10.2000  -14.3970   24.1029 O   0  0  0  0  0  0  0  0  0  0  0  0
    8.2796  -13.8998   25.3456 N   0  0  0  0  0  0  0  0  0  0  0  0
    6.9060  -13.7872   25.6584 C   0  0  0  0  0  0  0  0  0  0  0  0
    6.8988  -12.4198   26.3397 C   0  0  0  0  0  0  0  0  0  0  0  0
    8.1548  -12.5110   27.1507 C   0  0  0  0  0  0  0  0  0  0  0  0
    8.9568  -13.6693   26.6014 C   0  0  1  0  0  0  0  0  0  0  0  0
    8.9181  -14.8669   27.4820 C   0  0  0  0  0  0  0  0  0  0  0  0
    7.8166  -15.4211   27.6956 O   0  0  0  0  0  0  0  0  0  0  0  0
   11.5615  -17.3240   27.8173 C   0  0  0  0  0  0  0  0  0  0  0  0
   10.2422  -16.8021   28.4015 C   0  0  2  0  0  0  0  0  0  0  0  0
   10.0692  -15.4171   28.0960 N   0  0  0  0  0  0  0  0  0  0  0  0
   10.3314  -16.9852   29.8685 C   0  0  0  0  0  0  0  0  0  0  0  0
   10.3370  -15.9187   30.7479 O   0  0  0  0  0  0  0  0  0  0  0  0
   10.4040  -18.1429   30.3257 O   0  0  0  0  0  0  0  0  0  0  0  0
  2  9  1  0
  2  1  1  6
  3  2  1  0
  4  3  1  0
  5  4  2  0
  6  5  1  0
  7  6  1  0
  7  8  2  0
  8  4  1  0
  9 10  2  0
 11  9  1  0
 11 15  1  0
 12 11  1  0
 12 13  1  0
 13 14  1  0
 15 14  1  0
 16 17  2  0
 15 16  1  1
 19 18  1  6
 19 20  1  0
 20 16  1  0
 21 22  1  0
 21 19  1  0
 23 21  2  0
M  END
$$$$
