HPA.pdb
     RDKit          3D

 23 24  0  0  1  0  0  0  0  0999 V2000
    8.7469  -15.1607   21.0466 N   0  0  0  0  0  0  0  0  0  0  0  0
    7.9515  -15.1959   22.2206 C   0  0  1  0  0  0  0  0  0  0  0  0
    7.6730  -16.6571   22.5233 C   0  0  0  0  0  0  0  0  0  0  0  0
    7.0194  -17.3358   21.3816 C   0  0  0  0  0  0  0  0  0  0  0  0
    5.6799  -17.3691   21.0389 C   0  0  0  0  0  0  0  0  0  0  0  0
    5.5050  -18.0995   19.9264 N   0  0  0  0  0  0  0  0  0  0  0  0
    6.7187  -18.5342   19.5534 C   0  0  0  0  0  0  0  0  0  0  0  0
    7.6225  -18.0721   20.4313 N   0  0  0  0  0  0  0  0  0  0  0  0
    8.4999  -14.5331   23.4178 C   0  0  0  0  0  0  0  0  0  0  0  0
    9.7749  -14.2784   23.2981 O   0  0  0  0  0  0  0  0  0  0  0  0
    7.8240  -14.1781   24.5878 N   0  0  0  0  0  0  0  0  0  0  0  0
    6.4738  -14.3650   24.9608 C   0  0  0  0  0  0  0  0  0  0  0  0
    6.0997  -12.9319   25.3354 C   0  0  0  0  0  0  0  0  0  0  0  0
    7.3387  -12.5060   26.0613 C   0  0  0  0  0  0  0  0  0  0  0  0
    8.4217  -13.5039   25.7179 C   0  0  1  0  0  0  0  0  0  0  0  0
    8.7161  -14.4424   26.8332 C   0  0  0  0  0  0  0  0  0  0  0  0
    8.1338  -15.5497   26.8571 O   0  0  0  0  0  0  0  0  0  0  0  0
   11.3167  -14.4456   29.6073 C   0  0  0  0  0  0  0  0  0  0  0  0
   10.4378  -15.1164   28.5435 C   0  0  2  0  0  0  0  0  0  0  0  0
    9.6267  -14.1475   27.8765 N   0  0  0  0  0  0  0  0  0  0  0  0
    9.5761  -16.0842   29.2607 C   0  0  0  0  0  0  0  0  0  0  0  0
   10.0746  -17.2465   29.8186 O   0  0  0  0  0  0  0  0  0  0  0  0
    8.3575  -15.8410   29.3644 O   0  0  0  0  0  0  0  0  0  0  0  0
  2  9  1  0
  2  1  1  6
  3  2  1  0
  4  3  1  0
  5  4  2  0
  6  5  1  0
  7  6  1  0
  7  8  2  0
  8  4  1  0
  9 10  2  0
 11  9  1  0
 11 15  1  0
 12 11  1  0
 12 13  1  0
 13 14  1  0
 15 14  1  0
 16 17  2  0
 15 16  1  1
 19 18  1  1
 19 20  1  0
 20 16  1  0
 21 22  1  0
 21 19  1  0
 23 21  2  0
M  END
$$$$
