CME.pdb
     RDKit          3D

 24 23  0  0  1  0  0  0  0  0999 V2000
    8.3428  -15.0552   19.3096 N   0  0  0  0  0  0  0  0  0  0  0  0
    7.5144  -15.0326   20.4736 C   0  0  1  0  0  0  0  0  0  0  0  0
    6.6710  -16.2981   20.4573 C   0  0  0  0  0  0  0  0  0  0  0  0
    7.6833  -17.7696   20.6547 S   0  0  0  0  0  0  0  0  0  0  0  0
    8.2993  -14.9330   21.7358 C   0  0  0  0  0  0  0  0  0  0  0  0
    9.5422  -15.1679   21.7240 O   0  0  0  0  0  0  0  0  0  0  0  0
    7.1406  -11.5885   27.6781 C   0  0  0  0  0  0  0  0  0  0  0  0
    5.9306  -12.2964   26.5134 S   0  0  0  0  0  0  0  0  0  0  0  0
    6.7703  -12.8898   24.9945 C   0  0  0  0  0  0  0  0  0  0  0  0
    7.5148  -14.1366   25.3545 C   0  0  0  0  0  0  0  0  0  0  0  0
    8.3472  -14.6948   24.2552 C   0  0  2  0  0  0  0  0  0  0  0  0
    7.7237  -14.5839   22.9734 N   0  0  0  0  0  0  0  0  0  0  0  0
    8.8252  -16.0778   24.5400 C   0  0  0  0  0  0  0  0  0  0  0  0
    8.7030  -16.9267   23.6247 O   0  0  0  0  0  0  0  0  0  0  0  0
    9.3976  -16.4727   25.7658 N   0  0  0  0  0  0  0  0  0  0  0  0
   10.7028  -17.1102   25.8494 C   0  0  1  0  0  0  0  0  0  0  0  0
   11.7091  -16.3656   25.0494 C   0  0  0  0  0  0  0  0  0  0  0  0
   12.3384  -17.0526   23.8958 C   0  0  0  0  0  0  0  0  0  0  0  0
   13.7556  -16.8861   23.6572 C   0  0  0  0  0  0  0  0  0  0  0  0
   14.5976  -17.7429   23.3331 O   0  0  0  0  0  0  0  0  0  0  0  0
   11.0701  -17.4514   27.2205 C   0  0  0  0  0  0  0  0  0  0  0  0
   11.6207  -18.7034   27.5026 O   0  0  0  0  0  0  0  0  0  0  0  0
   14.2983  -15.5831   23.8021 O   0  0  0  0  0  0  0  0  0  0  0  0
   10.9056  -16.6593   28.1694 O   0  0  0  0  0  0  0  0  0  0  0  0
  2  1  1  6
  3  4  1  0
  3  2  1  0
  5  6  2  0
  5  2  1  0
  7  8  1  0
  8  9  1  0
  9 10  1  0
 11 10  1  1
 11 13  1  0
 11 12  1  0
 12  5  1  0
 13 15  1  0
 14 13  2  0
 15 16  1  0
 16 21  1  0
 17 18  1  0
 16 17  1  1
 19 20  2  0
 19 18  1  0
 21 24  2  0
 21 22  1  0
 23 19  1  0
M  END
$$$$
