CME.pdb
     RDKit          3D

 24 23  0  0  1  0  0  0  0  0999 V2000
    7.5786  -13.4243   19.4278 N   0  0  0  0  0  0  0  0  0  0  0  0
    7.2369  -14.4355   20.3777 C   0  0  1  0  0  0  0  0  0  0  0  0
    7.6195  -15.7772   19.7723 C   0  0  0  0  0  0  0  0  0  0  0  0
    7.2478  -17.1358   20.8882 S   0  0  0  0  0  0  0  0  0  0  0  0
    7.9046  -14.2364   21.6943 C   0  0  0  0  0  0  0  0  0  0  0  0
    9.1289  -13.9215   21.7378 O   0  0  0  0  0  0  0  0  0  0  0  0
    7.2571  -12.1314   27.7643 C   0  0  0  0  0  0  0  0  0  0  0  0
    5.8412  -11.8248   26.6585 S   0  0  0  0  0  0  0  0  0  0  0  0
    6.1125  -12.6224   25.0292 C   0  0  0  0  0  0  0  0  0  0  0  0
    6.8369  -13.9077   25.2769 C   0  0  0  0  0  0  0  0  0  0  0  0
    7.8231  -14.2705   24.2239 C   0  0  2  0  0  0  0  0  0  0  0  0
    7.2352  -14.3823   22.9254 N   0  0  0  0  0  0  0  0  0  0  0  0
    8.6393  -15.4642   24.5860 C   0  0  0  0  0  0  0  0  0  0  0  0
    8.1282  -16.5916   24.3828 O   0  0  0  0  0  0  0  0  0  0  0  0
    9.9347  -15.3908   25.1362 N   0  0  0  0  0  0  0  0  0  0  0  0
   10.8118  -16.5480   25.2271 C   0  0  1  0  0  0  0  0  0  0  0  0
   12.1218  -16.2727   24.5827 C   0  0  0  0  0  0  0  0  0  0  0  0
   13.1501  -17.3410   24.5953 C   0  0  0  0  0  0  0  0  0  0  0  0
   14.4684  -17.0636   24.0682 C   0  0  0  0  0  0  0  0  0  0  0  0
   15.0085  -15.9624   23.8587 O   0  0  0  0  0  0  0  0  0  0  0  0
   10.8434  -17.1200   26.5699 C   0  0  0  0  0  0  0  0  0  0  0  0
   11.3781  -18.3942   26.7714 O   0  0  0  0  0  0  0  0  0  0  0  0
   15.2889  -18.1714   23.7321 O   0  0  0  0  0  0  0  0  0  0  0  0
   10.4004  -16.5096   27.5629 O   0  0  0  0  0  0  0  0  0  0  0  0
  2  1  1  6
  3  4  1  0
  3  2  1  0
  5  6  2  0
  5  2  1  0
  7  8  1  0
  8  9  1  0
  9 10  1  0
 11 10  1  1
 11 13  1  0
 11 12  1  0
 12  5  1  0
 13 15  1  0
 14 13  2  0
 15 16  1  0
 16 21  1  0
 17 18  1  0
 16 17  1  1
 19 20  2  0
 19 18  1  0
 21 24  2  0
 21 22  1  0
 23 19  1  0
M  END
$$$$
