CME.pdb
     RDKit          3D

 24 23  0  0  1  0  0  0  0  0999 V2000
    9.1043  -15.3173   19.3514 N   0  0  0  0  0  0  0  0  0  0  0  0
    8.0725  -15.6352   20.2872 C   0  0  1  0  0  0  0  0  0  0  0  0
    7.7404  -17.1095   20.1160 C   0  0  0  0  0  0  0  0  0  0  0  0
    7.5112  -17.5387   18.3861 S   0  0  0  0  0  0  0  0  0  0  0  0
    8.4610  -15.3377   21.6942 C   0  0  0  0  0  0  0  0  0  0  0  0
    9.6225  -15.6295   22.1013 O   0  0  0  0  0  0  0  0  0  0  0  0
    8.2716  -11.6540   28.0582 C   0  0  0  0  0  0  0  0  0  0  0  0
    8.0130  -12.0941   26.3086 S   0  0  0  0  0  0  0  0  0  0  0  0
    6.9724  -13.5981   26.1704 C   0  0  0  0  0  0  0  0  0  0  0  0
    6.7307  -13.8410   24.7141 C   0  0  0  0  0  0  0  0  0  0  0  0
    7.8329  -14.5588   24.0191 C   0  0  2  0  0  0  0  0  0  0  0  0
    7.5882  -14.7351   22.6215 N   0  0  0  0  0  0  0  0  0  0  0  0
    8.2096  -15.8314   24.6980 C   0  0  0  0  0  0  0  0  0  0  0  0
    7.3715  -16.7644   24.6735 O   0  0  0  0  0  0  0  0  0  0  0  0
    9.4395  -16.0352   25.3553 N   0  0  0  0  0  0  0  0  0  0  0  0
    9.8078  -17.3131   25.9452 C   0  0  1  0  0  0  0  0  0  0  0  0
   10.7867  -18.0305   25.0885 C   0  0  0  0  0  0  0  0  0  0  0  0
   12.2172  -17.6531   25.1874 C   0  0  0  0  0  0  0  0  0  0  0  0
   13.1694  -18.2314   24.2645 C   0  0  0  0  0  0  0  0  0  0  0  0
   14.1365  -18.9759   24.5066 O   0  0  0  0  0  0  0  0  0  0  0  0
   10.1306  -17.1998   27.3645 C   0  0  0  0  0  0  0  0  0  0  0  0
   10.4572  -18.3427   28.0975 O   0  0  0  0  0  0  0  0  0  0  0  0
   13.0137  -17.9334   22.8859 O   0  0  0  0  0  0  0  0  0  0  0  0
   10.1221  -16.1058   27.9628 O   0  0  0  0  0  0  0  0  0  0  0  0
  2  1  1  6
  3  4  1  0
  3  2  1  0
  5  6  2  0
  5  2  1  0
  7  8  1  0
  8  9  1  0
  9 10  1  0
 11 10  1  1
 11 13  1  0
 11 12  1  0
 12  5  1  0
 13 15  1  0
 14 13  2  0
 15 16  1  0
 16 21  1  0
 17 18  1  0
 16 17  1  6
 19 20  2  0
 19 18  1  0
 21 24  2  0
 21 22  1  0
 23 19  1  0
M  END
$$$$
