CME.pdb
     RDKit          3D

 24 23  0  0  1  0  0  0  0  0999 V2000
    7.9414  -14.8062   19.7231 N   0  0  0  0  0  0  0  0  0  0  0  0
    7.4073  -15.4503   20.8813 C   0  0  1  0  0  0  0  0  0  0  0  0
    7.3863  -16.9453   20.6023 C   0  0  0  0  0  0  0  0  0  0  0  0
    6.8219  -17.8765   22.0318 S   0  0  0  0  0  0  0  0  0  0  0  0
    8.1854  -15.1507   22.1157 C   0  0  0  0  0  0  0  0  0  0  0  0
    9.4497  -15.1453   22.0768 O   0  0  0  0  0  0  0  0  0  0  0  0
    7.2483  -11.2487   27.5012 C   0  0  0  0  0  0  0  0  0  0  0  0
    6.0655  -11.5571   26.1493 S   0  0  0  0  0  0  0  0  0  0  0  0
    6.8391  -12.5800   24.8381 C   0  0  0  0  0  0  0  0  0  0  0  0
    7.5003  -13.7415   25.5103 C   0  0  0  0  0  0  0  0  0  0  0  0
    8.2588  -14.6330   24.5922 C   0  0  2  0  0  0  0  0  0  0  0  0
    7.5801  -14.8660   23.3556 N   0  0  0  0  0  0  0  0  0  0  0  0
    8.6983  -15.8969   25.2494 C   0  0  0  0  0  0  0  0  0  0  0  0
    7.8660  -16.8337   25.3054 O   0  0  0  0  0  0  0  0  0  0  0  0
    9.9805  -16.0885   25.8020 N   0  0  0  0  0  0  0  0  0  0  0  0
   10.4063  -17.3604   26.3658 C   0  0  1  0  0  0  0  0  0  0  0  0
   11.7502  -17.7415   25.8602 C   0  0  0  0  0  0  0  0  0  0  0  0
   12.1402  -17.3017   24.4988 C   0  0  0  0  0  0  0  0  0  0  0  0
   13.4949  -17.5229   24.0422 C   0  0  0  0  0  0  0  0  0  0  0  0
   14.5646  -17.1974   24.5881 O   0  0  0  0  0  0  0  0  0  0  0  0
   10.2002  -17.4275   27.8095 C   0  0  0  0  0  0  0  0  0  0  0  0
   10.4940  -18.6048   28.5007 O   0  0  0  0  0  0  0  0  0  0  0  0
   13.6707  -18.2002   22.8078 O   0  0  0  0  0  0  0  0  0  0  0  0
    9.7600  -16.4614   28.4637 O   0  0  0  0  0  0  0  0  0  0  0  0
  2  1  1  6
  3  4  1  0
  3  2  1  0
  5  6  2  0
  5  2  1  0
  7  8  1  0
  8  9  1  0
  9 10  1  0
 11 10  1  1
 11 13  1  0
 11 12  1  0
 12  5  1  0
 13 15  1  0
 14 13  2  0
 15 16  1  0
 16 21  1  0
 17 18  1  0
 16 17  1  1
 19 20  2  0
 19 18  1  0
 21 24  2  0
 21 22  1  0
 23 19  1  0
M  END
$$$$
