CME.pdb
     RDKit          3D

 24 23  0  0  1  0  0  0  0  0999 V2000
    6.5779  -16.4857   19.5567 N   0  0  0  0  0  0  0  0  0  0  0  0
    6.3472  -16.9553   20.8862 C   0  0  1  0  0  0  0  0  0  0  0  0
    6.6202  -18.4514   20.8949 C   0  0  0  0  0  0  0  0  0  0  0  0
    6.2437  -19.1827   22.4925 S   0  0  0  0  0  0  0  0  0  0  0  0
    7.1884  -16.2554   21.8970 C   0  0  0  0  0  0  0  0  0  0  0  0
    8.4230  -16.0860   21.6796 O   0  0  0  0  0  0  0  0  0  0  0  0
    7.3416  -11.1753   27.7976 C   0  0  0  0  0  0  0  0  0  0  0  0
    6.4487  -12.1541   26.5460 S   0  0  0  0  0  0  0  0  0  0  0  0
    7.3005  -13.7513   26.2502 C   0  0  0  0  0  0  0  0  0  0  0  0
    6.5545  -14.4604   25.1644 C   0  0  0  0  0  0  0  0  0  0  0  0
    7.4213  -15.0821   24.1276 C   0  0  2  0  0  0  0  0  0  0  0  0
    6.6765  -15.7588   23.1119 N   0  0  0  0  0  0  0  0  0  0  0  0
    8.4964  -15.9343   24.7110 C   0  0  0  0  0  0  0  0  0  0  0  0
    8.1487  -17.0250   25.2238 O   0  0  0  0  0  0  0  0  0  0  0  0
    9.8608  -15.5817   24.7154 N   0  0  0  0  0  0  0  0  0  0  0  0
   10.9089  -16.5187   25.0900 C   0  0  1  0  0  0  0  0  0  0  0  0
   12.1915  -16.1741   24.4242 C   0  0  0  0  0  0  0  0  0  0  0  0
   13.3942  -16.9747   24.7575 C   0  0  0  0  0  0  0  0  0  0  0  0
   14.6434  -16.6932   24.0844 C   0  0  0  0  0  0  0  0  0  0  0  0
   15.4753  -15.8001   24.3262 O   0  0  0  0  0  0  0  0  0  0  0  0
   10.9551  -16.7577   26.5294 C   0  0  0  0  0  0  0  0  0  0  0  0
   10.3390  -15.8603   27.4042 O   0  0  0  0  0  0  0  0  0  0  0  0
   15.0057  -17.5265   22.9945 O   0  0  0  0  0  0  0  0  0  0  0  0
   11.5365  -17.7453   27.0209 O   0  0  0  0  0  0  0  0  0  0  0  0
  2  1  1  6
  3  4  1  0
  3  2  1  0
  5  6  2  0
  5  2  1  0
  7  8  1  0
  8  9  1  0
  9 10  1  0
 11 10  1  1
 11 13  1  0
 11 12  1  0
 12  5  1  0
 13 15  1  0
 14 13  2  0
 15 16  1  0
 16 21  1  0
 17 18  1  0
 16 17  1  1
 19 20  2  0
 19 18  1  0
 21 24  2  0
 21 22  1  0
 23 19  1  0
M  END
$$$$
