CME.pdb
     RDKit          3D

 24 23  0  0  1  0  0  0  0  0999 V2000
    8.3214  -15.8917   18.9456 N   0  0  0  0  0  0  0  0  0  0  0  0
    7.6193  -16.2619   20.1337 C   0  0  1  0  0  0  0  0  0  0  0  0
    7.6195  -17.7809   20.2086 C   0  0  0  0  0  0  0  0  0  0  0  0
    6.7711  -18.3702   21.6790 S   0  0  0  0  0  0  0  0  0  0  0  0
    8.2166  -15.6688   21.3627 C   0  0  0  0  0  0  0  0  0  0  0  0
    9.4742  -15.6001   21.4810 O   0  0  0  0  0  0  0  0  0  0  0  0
    6.4192  -11.8563   28.1630 C   0  0  0  0  0  0  0  0  0  0  0  0
    5.9436  -12.5352   26.5398 S   0  0  0  0  0  0  0  0  0  0  0  0
    7.3730  -13.3661   25.7458 C   0  0  0  0  0  0  0  0  0  0  0  0
    6.9163  -13.8592   24.4092 C   0  0  0  0  0  0  0  0  0  0  0  0
    7.9447  -14.6205   23.6504 C   0  0  2  0  0  0  0  0  0  0  0  0
    7.4433  -15.1674   22.4282 N   0  0  0  0  0  0  0  0  0  0  0  0
    8.6425  -15.6378   24.4874 C   0  0  0  0  0  0  0  0  0  0  0  0
    7.9748  -16.6344   24.8542 O   0  0  0  0  0  0  0  0  0  0  0  0
    9.9919  -15.5373   24.8811 N   0  0  0  0  0  0  0  0  0  0  0  0
   10.7149  -16.6469   25.4834 C   0  0  1  0  0  0  0  0  0  0  0  0
   12.0546  -16.8071   24.8618 C   0  0  0  0  0  0  0  0  0  0  0  0
   13.0107  -15.6771   24.9504 C   0  0  0  0  0  0  0  0  0  0  0  0
   14.3118  -15.7976   24.3295 C   0  0  0  0  0  0  0  0  0  0  0  0
   14.5973  -15.8379   23.1191 O   0  0  0  0  0  0  0  0  0  0  0  0
   10.6623  -16.6207   26.9421 C   0  0  0  0  0  0  0  0  0  0  0  0
    9.9977  -15.5812   27.5962 O   0  0  0  0  0  0  0  0  0  0  0  0
   15.4422  -15.8842   25.1827 O   0  0  0  0  0  0  0  0  0  0  0  0
   11.2000  -17.5012   27.6425 O   0  0  0  0  0  0  0  0  0  0  0  0
  2  1  1  6
  3  4  1  0
  3  2  1  0
  5  6  2  0
  5  2  1  0
  7  8  1  0
  8  9  1  0
  9 10  1  0
 11 10  1  1
 11 13  1  0
 11 12  1  0
 12  5  1  0
 13 15  1  0
 14 13  2  0
 15 16  1  0
 16 21  1  0
 17 18  1  0
 16 17  1  1
 19 20  2  0
 19 18  1  0
 21 24  2  0
 21 22  1  0
 23 19  1  0
M  END
$$$$
