CME.pdb
     RDKit          3D

 24 23  0  0  1  0  0  0  0  0999 V2000
    8.5979  -12.8654   18.9849 N   0  0  0  0  0  0  0  0  0  0  0  0
    7.7972  -13.7805   19.7354 C   0  0  1  0  0  0  0  0  0  0  0  0
    7.7936  -15.1037   18.9857 C   0  0  0  0  0  0  0  0  0  0  0  0
    6.6460  -15.0769   17.6032 S   0  0  0  0  0  0  0  0  0  0  0  0
    8.2863  -13.9613   21.1308 C   0  0  0  0  0  0  0  0  0  0  0  0
    9.5294  -13.9931   21.3627 O   0  0  0  0  0  0  0  0  0  0  0  0
    8.0099  -12.0457   28.3779 C   0  0  0  0  0  0  0  0  0  0  0  0
    7.5374  -11.9761   26.6190 S   0  0  0  0  0  0  0  0  0  0  0  0
    7.1908  -13.6595   25.9786 C   0  0  0  0  0  0  0  0  0  0  0  0
    6.8532  -13.5240   24.5275 C   0  0  0  0  0  0  0  0  0  0  0  0
    7.8161  -14.1872   23.6076 C   0  0  2  0  0  0  0  0  0  0  0  0
    7.4233  -14.1027   22.2354 N   0  0  0  0  0  0  0  0  0  0  0  0
    8.1433  -15.5809   24.0232 C   0  0  0  0  0  0  0  0  0  0  0  0
    7.2137  -16.4225   23.9900 O   0  0  0  0  0  0  0  0  0  0  0  0
    9.4232  -15.9933   24.4451 N   0  0  0  0  0  0  0  0  0  0  0  0
    9.7116  -17.3632   24.8412 C   0  0  1  0  0  0  0  0  0  0  0  0
   10.7143  -17.9780   23.9336 C   0  0  0  0  0  0  0  0  0  0  0  0
   11.7556  -17.1043   23.3410 C   0  0  0  0  0  0  0  0  0  0  0  0
   12.7535  -17.6816   22.4670 C   0  0  0  0  0  0  0  0  0  0  0  0
   13.5333  -18.6251   22.6901 O   0  0  0  0  0  0  0  0  0  0  0  0
    9.9533  -17.4899   26.2754 C   0  0  0  0  0  0  0  0  0  0  0  0
    9.9100  -16.3575   27.0914 O   0  0  0  0  0  0  0  0  0  0  0  0
   12.8931  -17.1243   21.1696 O   0  0  0  0  0  0  0  0  0  0  0  0
   10.2062  -18.5865   26.8124 O   0  0  0  0  0  0  0  0  0  0  0  0
  2  1  1  6
  3  4  1  0
  3  2  1  0
  5  6  2  0
  5  2  1  0
  7  8  1  0
  8  9  1  0
  9 10  1  0
 11 10  1  1
 11 13  1  0
 11 12  1  0
 12  5  1  0
 13 15  1  0
 14 13  2  0
 15 16  1  0
 16 21  1  0
 17 18  1  0
 16 17  1  6
 19 20  2  0
 19 18  1  0
 21 24  2  0
 21 22  1  0
 23 19  1  0
M  END
$$$$
