CME.pdb
     RDKit          3D

 24 23  0  0  1  0  0  0  0  0999 V2000
    8.4650  -14.1587   19.6398 N   0  0  0  0  0  0  0  0  0  0  0  0
    7.4698  -14.3695   20.6431 C   0  0  1  0  0  0  0  0  0  0  0  0
    6.6919  -15.6184   20.2580 C   0  0  0  0  0  0  0  0  0  0  0  0
    7.6155  -17.1138   20.6320 S   0  0  0  0  0  0  0  0  0  0  0  0
    8.0497  -14.5042   22.0086 C   0  0  0  0  0  0  0  0  0  0  0  0
    9.3007  -14.6251   22.1518 O   0  0  0  0  0  0  0  0  0  0  0  0
    7.0225  -10.2512   26.9102 C   0  0  0  0  0  0  0  0  0  0  0  0
    7.4169  -12.0283   26.8206 S   0  0  0  0  0  0  0  0  0  0  0  0
    6.3981  -12.8497   25.5355 C   0  0  0  0  0  0  0  0  0  0  0  0
    6.7516  -14.3033   25.5477 C   0  0  0  0  0  0  0  0  0  0  0  0
    7.7426  -14.7039   24.5130 C   0  0  2  0  0  0  0  0  0  0  0  0
    7.2665  -14.5052   23.1796 N   0  0  0  0  0  0  0  0  0  0  0  0
    8.2776  -16.0784   24.7295 C   0  0  0  0  0  0  0  0  0  0  0  0
    7.4861  -17.0359   24.5556 O   0  0  0  0  0  0  0  0  0  0  0  0
    9.6058  -16.3513   25.1138 N   0  0  0  0  0  0  0  0  0  0  0  0
   10.1249  -17.7060   25.2231 C   0  0  1  0  0  0  0  0  0  0  0  0
   11.1480  -17.9680   24.1783 C   0  0  0  0  0  0  0  0  0  0  0  0
   12.3764  -17.1375   24.1730 C   0  0  0  0  0  0  0  0  0  0  0  0
   13.3713  -17.3482   23.1440 C   0  0  0  0  0  0  0  0  0  0  0  0
   14.4025  -18.0430   23.1872 O   0  0  0  0  0  0  0  0  0  0  0  0
   10.4763  -18.0596   26.5952 C   0  0  0  0  0  0  0  0  0  0  0  0
   10.3195  -17.1216   27.6178 O   0  0  0  0  0  0  0  0  0  0  0  0
   13.1816  -16.6903   21.9012 O   0  0  0  0  0  0  0  0  0  0  0  0
   10.9237  -19.1835   26.8982 O   0  0  0  0  0  0  0  0  0  0  0  0
  2  1  1  6
  3  4  1  0
  3  2  1  0
  5  6  2  0
  5  2  1  0
  7  8  1  0
  8  9  1  0
  9 10  1  0
 11 10  1  1
 11 13  1  0
 11 12  1  0
 12  5  1  0
 13 15  1  0
 14 13  2  0
 15 16  1  0
 16 21  1  0
 17 18  1  0
 16 17  1  6
 19 20  2  0
 19 18  1  0
 21 24  2  0
 21 22  1  0
 23 19  1  0
M  END
$$$$
