CME.pdb
     RDKit          3D

 24 23  0  0  1  0  0  0  0  0999 V2000
    6.8677  -16.8109   21.0254 N   0  0  0  0  0  0  0  0  0  0  0  0
    8.0983  -16.0929   20.9164 C   0  0  1  0  0  0  0  0  0  0  0  0
    7.8476  -14.8930   20.0162 C   0  0  0  0  0  0  0  0  0  0  0  0
    6.6312  -13.7769   20.7261 S   0  0  0  0  0  0  0  0  0  0  0  0
    8.6320  -15.6631   22.2390 C   0  0  0  0  0  0  0  0  0  0  0  0
    9.8400  -15.3027   22.3431 O   0  0  0  0  0  0  0  0  0  0  0  0
    7.7389  -11.4308   27.2164 C   0  0  0  0  0  0  0  0  0  0  0  0
    6.3065  -12.1709   26.3666 S   0  0  0  0  0  0  0  0  0  0  0  0
    6.8582  -13.1980   24.9508 C   0  0  0  0  0  0  0  0  0  0  0  0
    7.2423  -14.5378   25.4945 C   0  0  0  0  0  0  0  0  0  0  0  0
    8.2940  -15.2406   24.7116 C   0  0  2  0  0  0  0  0  0  0  0  0
    7.8502  -15.6341   23.4107 N   0  0  0  0  0  0  0  0  0  0  0  0
    8.9192  -16.3643   25.4659 C   0  0  0  0  0  0  0  0  0  0  0  0
    8.1505  -17.1315   26.0935 O   0  0  0  0  0  0  0  0  0  0  0  0
   10.3074  -16.6035   25.5087 N   0  0  0  0  0  0  0  0  0  0  0  0
   10.8759  -17.8000   26.1104 C   0  0  1  0  0  0  0  0  0  0  0  0
   12.1689  -18.1529   25.4697 C   0  0  0  0  0  0  0  0  0  0  0  0
   12.9314  -19.3034   26.0117 C   0  0  0  0  0  0  0  0  0  0  0  0
   14.2324  -19.6155   25.4612 C   0  0  0  0  0  0  0  0  0  0  0  0
   14.9501  -18.9238   24.7165 O   0  0  0  0  0  0  0  0  0  0  0  0
   10.8519  -17.7558   27.5694 C   0  0  0  0  0  0  0  0  0  0  0  0
   10.8387  -18.9448   28.3018 O   0  0  0  0  0  0  0  0  0  0  0  0
   14.8024  -20.8720   25.7921 O   0  0  0  0  0  0  0  0  0  0  0  0
   10.8376  -16.6811   28.2018 O   0  0  0  0  0  0  0  0  0  0  0  0
  2  1  1  1
  3  4  1  0
  3  2  1  0
  5  6  2  0
  5  2  1  0
  7  8  1  0
  8  9  1  0
  9 10  1  0
 11 10  1  1
 11 13  1  0
 11 12  1  0
 12  5  1  0
 13 15  1  0
 14 13  2  0
 15 16  1  0
 16 21  1  0
 17 18  1  0
 16 17  1  1
 19 20  2  0
 19 18  1  0
 21 24  2  0
 21 22  1  0
 23 19  1  0
M  END
$$$$
