CME.pdb
     RDKit          3D

 24 23  0  0  1  0  0  0  0  0999 V2000
    9.7898  -15.0389   19.9049 N   0  0  0  0  0  0  0  0  0  0  0  0
    8.5843  -14.9704   20.6689 C   0  0  1  0  0  0  0  0  0  0  0  0
    7.7038  -16.1325   20.2360 C   0  0  0  0  0  0  0  0  0  0  0  0
    8.3926  -17.7107   20.7497 S   0  0  0  0  0  0  0  0  0  0  0  0
    8.8315  -15.0088   22.1373 C   0  0  0  0  0  0  0  0  0  0  0  0
    9.9931  -15.2546   22.5736 O   0  0  0  0  0  0  0  0  0  0  0  0
    7.2708  -10.6211   26.5445 C   0  0  0  0  0  0  0  0  0  0  0  0
    7.5798  -12.4129   26.4185 S   0  0  0  0  0  0  0  0  0  0  0  0
    6.3967  -13.1895   25.2517 C   0  0  0  0  0  0  0  0  0  0  0  0
    6.6826  -14.6579   25.2380 C   0  0  0  0  0  0  0  0  0  0  0  0
    7.9151  -15.0375   24.4966 C   0  0  2  0  0  0  0  0  0  0  0  0
    7.8216  -14.7817   23.0930 N   0  0  0  0  0  0  0  0  0  0  0  0
    8.3615  -16.4282   24.7951 C   0  0  0  0  0  0  0  0  0  0  0  0
    7.9980  -17.3298   24.0024 O   0  0  0  0  0  0  0  0  0  0  0  0
    9.1578  -16.7749   25.9050 N   0  0  0  0  0  0  0  0  0  0  0  0
   10.2109  -17.7759   25.8290 C   0  0  1  0  0  0  0  0  0  0  0  0
   11.1120  -17.5117   24.6777 C   0  0  0  0  0  0  0  0  0  0  0  0
   12.2931  -18.3889   24.4934 C   0  0  0  0  0  0  0  0  0  0  0  0
   13.2036  -18.1330   23.3986 C   0  0  0  0  0  0  0  0  0  0  0  0
   13.1773  -18.5868   22.2404 O   0  0  0  0  0  0  0  0  0  0  0  0
   10.8445  -18.0182   27.1217 C   0  0  0  0  0  0  0  0  0  0  0  0
   10.8664  -17.0087   28.0863 O   0  0  0  0  0  0  0  0  0  0  0  0
   14.2876  -17.2491   23.6376 O   0  0  0  0  0  0  0  0  0  0  0  0
   11.3814  -19.1075   27.4050 O   0  0  0  0  0  0  0  0  0  0  0  0
  2  1  1  6
  3  4  1  0
  3  2  1  0
  5  6  2  0
  5  2  1  0
  7  8  1  0
  8  9  1  0
  9 10  1  0
 11 10  1  1
 11 13  1  0
 11 12  1  0
 12  5  1  0
 13 15  1  0
 14 13  2  0
 15 16  1  0
 16 21  1  0
 17 18  1  0
 16 17  1  6
 19 20  2  0
 19 18  1  0
 21 24  2  0
 21 22  1  0
 23 19  1  0
M  END
$$$$
