CME.pdb
     RDKit          3D

 24 23  0  0  1  0  0  0  0  0999 V2000
    8.4998  -15.4366   18.8846 N   0  0  0  0  0  0  0  0  0  0  0  0
    7.8025  -15.9354   20.0277 C   0  0  1  0  0  0  0  0  0  0  0  0
    7.8148  -17.4538   19.9421 C   0  0  0  0  0  0  0  0  0  0  0  0
    6.9510  -18.2009   21.3295 S   0  0  0  0  0  0  0  0  0  0  0  0
    8.3972  -15.4703   21.3118 C   0  0  0  0  0  0  0  0  0  0  0  0
    9.6456  -15.5593   21.4958 O   0  0  0  0  0  0  0  0  0  0  0  0
    6.8038  -11.5763   28.1077 C   0  0  0  0  0  0  0  0  0  0  0  0
    6.2869  -12.2180   26.4820 S   0  0  0  0  0  0  0  0  0  0  0  0
    7.6129  -13.2496   25.7460 C   0  0  0  0  0  0  0  0  0  0  0  0
    7.1461  -13.6754   24.3900 C   0  0  0  0  0  0  0  0  0  0  0  0
    8.1235  -14.5051   23.6356 C   0  0  2  0  0  0  0  0  0  0  0  0
    7.6312  -14.9236   22.3602 N   0  0  0  0  0  0  0  0  0  0  0  0
    8.6591  -15.6393   24.4412 C   0  0  0  0  0  0  0  0  0  0  0  0
    7.9166  -16.6397   24.5877 O   0  0  0  0  0  0  0  0  0  0  0  0
    9.9364  -15.6438   25.0367 N   0  0  0  0  0  0  0  0  0  0  0  0
   10.5349  -16.8474   25.5933 C   0  0  1  0  0  0  0  0  0  0  0  0
   11.7838  -17.2017   24.8710 C   0  0  0  0  0  0  0  0  0  0  0  0
   13.0478  -16.5492   25.2901 C   0  0  0  0  0  0  0  0  0  0  0  0
   14.1382  -16.4415   24.3455 C   0  0  0  0  0  0  0  0  0  0  0  0
   14.8008  -17.3499   23.8127 O   0  0  0  0  0  0  0  0  0  0  0  0
   10.6017  -16.8143   27.0513 C   0  0  0  0  0  0  0  0  0  0  0  0
   10.2079  -15.6653   27.7403 O   0  0  0  0  0  0  0  0  0  0  0  0
   14.5367  -15.1393   23.9466 O   0  0  0  0  0  0  0  0  0  0  0  0
   11.0077  -17.7852   27.7203 O   0  0  0  0  0  0  0  0  0  0  0  0
  2  1  1  6
  3  4  1  0
  3  2  1  0
  5  6  2  0
  5  2  1  0
  7  8  1  0
  8  9  1  0
  9 10  1  0
 11 10  1  1
 11 13  1  0
 11 12  1  0
 12  5  1  0
 13 15  1  0
 14 13  2  0
 15 16  1  0
 16 21  1  0
 17 18  1  0
 16 17  1  6
 19 20  2  0
 19 18  1  0
 21 24  2  0
 21 22  1  0
 23 19  1  0
M  END
$$$$
