CME.pdb
     RDKit          3D

 24 23  0  0  1  0  0  0  0  0999 V2000
    6.5923  -15.3901   19.8142 N   0  0  0  0  0  0  0  0  0  0  0  0
    8.0023  -15.2124   19.9625 C   0  0  1  0  0  0  0  0  0  0  0  0
    8.4198  -14.0847   19.0313 C   0  0  0  0  0  0  0  0  0  0  0  0
    7.5848  -12.5469   19.4397 S   0  0  0  0  0  0  0  0  0  0  0  0
    8.3998  -14.9166   21.3673 C   0  0  0  0  0  0  0  0  0  0  0  0
    9.6136  -14.6924   21.6439 O   0  0  0  0  0  0  0  0  0  0  0  0
    7.7547  -11.7558   27.9599 C   0  0  0  0  0  0  0  0  0  0  0  0
    7.4466  -12.1566   26.2088 S   0  0  0  0  0  0  0  0  0  0  0  0
    6.8923  -13.8963   26.0346 C   0  0  0  0  0  0  0  0  0  0  0  0
    6.6164  -14.1333   24.5835 C   0  0  0  0  0  0  0  0  0  0  0  0
    7.7894  -14.6141   23.8050 C   0  0  2  0  0  0  0  0  0  0  0  0
    7.4795  -14.8711   22.4331 N   0  0  0  0  0  0  0  0  0  0  0  0
    8.4836  -15.7602   24.4582 C   0  0  0  0  0  0  0  0  0  0  0  0
    7.8132  -16.8029   24.6499 O   0  0  0  0  0  0  0  0  0  0  0  0
    9.8327  -15.7313   24.8646 N   0  0  0  0  0  0  0  0  0  0  0  0
   10.5601  -16.9324   25.2452 C   0  0  1  0  0  0  0  0  0  0  0  0
   11.9030  -16.9630   24.6107 C   0  0  0  0  0  0  0  0  0  0  0  0
   12.8291  -18.0615   24.9771 C   0  0  0  0  0  0  0  0  0  0  0  0
   14.1221  -18.1443   24.3336 C   0  0  0  0  0  0  0  0  0  0  0  0
   15.2526  -18.0068   24.8348 O   0  0  0  0  0  0  0  0  0  0  0  0
   10.5020  -17.1880   26.6814 C   0  0  0  0  0  0  0  0  0  0  0  0
   10.1217  -16.1674   27.5553 O   0  0  0  0  0  0  0  0  0  0  0  0
   14.1477  -18.4183   22.9416 O   0  0  0  0  0  0  0  0  0  0  0  0
   10.7877  -18.2988   27.1709 O   0  0  0  0  0  0  0  0  0  0  0  0
  2  1  1  1
  3  4  1  0
  3  2  1  0
  5  6  2  0
  5  2  1  0
  7  8  1  0
  8  9  1  0
  9 10  1  0
 11 10  1  1
 11 13  1  0
 11 12  1  0
 12  5  1  0
 13 15  1  0
 14 13  2  0
 15 16  1  0
 16 21  1  0
 17 18  1  0
 16 17  1  1
 19 20  2  0
 19 18  1  0
 21 24  2  0
 21 22  1  0
 23 19  1  0
M  END
$$$$
