VNC.pdb
     RDKit          3D

 22 21  0  0  1  0  0  0  0  0999 V2000
    7.6016  -12.4264   18.3015 C   0  0  0  0  0  0  0  0  0  0  0  0
    8.1023  -13.4581   19.2846 C   0  0  2  0  0  0  0  0  0  0  0  0
    9.0143  -12.7220   20.2558 C   0  0  0  0  0  0  0  0  0  0  0  0
    8.9377  -14.5228   18.6222 C   0  0  2  0  0  0  0  0  0  0  0  0
    8.1035  -15.1267   17.5842 N   0  0  0  0  0  0  0  0  0  0  0  0
    9.3233  -15.6069   19.5593 C   0  0  0  0  0  0  0  0  0  0  0  0
    8.5149  -16.4975   19.9510 O   0  0  0  0  0  0  0  0  0  0  0  0
   11.9421  -19.4335   19.6908 N   0  0  0  0  0  0  0  0  0  0  0  0
   12.4142  -18.1002   19.5343 C   0  0  0  0  0  0  0  0  0  0  0  0
   12.8005  -17.7396   18.3986 O   0  0  0  0  0  0  0  0  0  0  0  0
   12.4126  -17.2362   20.7331 C   0  0  0  0  0  0  0  0  0  0  0  0
   11.0455  -16.6905   21.0525 C   0  0  2  0  0  0  0  0  0  0  0  0
   10.6513  -15.6941   20.0704 N   0  0  0  0  0  0  0  0  0  0  0  0
   11.0040  -16.1111   22.4369 C   0  0  0  0  0  0  0  0  0  0  0  0
   11.9206  -15.3677   22.8791 O   0  0  0  0  0  0  0  0  0  0  0  0
    9.9201  -16.3799   23.3126 N   0  0  0  0  0  0  0  0  0  0  0  0
    9.8278  -15.9152   24.6580 C   0  0  1  0  0  0  0  0  0  0  0  0
    8.3394  -15.8229   25.0025 C   0  0  0  0  0  0  0  0  0  0  0  0
    7.5062  -14.5946   23.9743 S   0  0  0  0  0  0  0  0  0  0  0  0
   10.4214  -16.9014   25.5743 C   0  0  0  0  0  0  0  0  0  0  0  0
   10.8137  -18.0027   25.1408 O   0  0  0  0  0  0  0  0  0  0  0  0
   10.5467  -16.6140   26.9120 O   0  0  0  0  0  0  0  0  0  0  0  0
  2  1  1  6
  2  4  1  0
  2  3  1  0
  4  6  1  0
  4  5  1  6
  6 13  1  0
  6  7  2  0
  9  8  1  0
  9 11  1  0
 10  9  2  0
 12 11  1  6
 12 14  1  0
 13 12  1  0
 14 15  2  0
 16 17  1  0
 16 14  1  0
 17 20  1  0
 17 18  1  1
 18 19  1  0
 20 22  1  0
 21 20  2  0
M  END
$$$$
