VNC.pdb
     RDKit          3D

 22 21  0  0  1  0  0  0  0  0999 V2000
    7.8607  -12.3887   17.9542 C   0  0  0  0  0  0  0  0  0  0  0  0
    8.0274  -13.4234   19.0420 C   0  0  2  0  0  0  0  0  0  0  0  0
    8.9895  -12.8280   20.0603 C   0  0  0  0  0  0  0  0  0  0  0  0
    8.6600  -14.6928   18.5333 C   0  0  2  0  0  0  0  0  0  0  0  0
    7.7568  -15.2359   17.5197 N   0  0  0  0  0  0  0  0  0  0  0  0
    8.7984  -15.7224   19.5928 C   0  0  0  0  0  0  0  0  0  0  0  0
    7.8184  -16.3860   20.0395 O   0  0  0  0  0  0  0  0  0  0  0  0
   12.4479  -20.0817   21.5060 N   0  0  0  0  0  0  0  0  0  0  0  0
   11.5131  -19.0574   21.8250 C   0  0  0  0  0  0  0  0  0  0  0  0
   10.8542  -19.1677   22.8846 O   0  0  0  0  0  0  0  0  0  0  0  0
   11.3900  -17.9329   20.8741 C   0  0  0  0  0  0  0  0  0  0  0  0
   10.2447  -17.0136   21.2086 C   0  0  2  0  0  0  0  0  0  0  0  0
   10.0702  -16.0155   20.1665 N   0  0  0  0  0  0  0  0  0  0  0  0
   10.4520  -16.3536   22.5410 C   0  0  0  0  0  0  0  0  0  0  0  0
   11.5118  -15.7325   22.8227 O   0  0  0  0  0  0  0  0  0  0  0  0
    9.4528  -16.4029   23.5476 N   0  0  0  0  0  0  0  0  0  0  0  0
    9.5847  -15.8408   24.8519 C   0  0  1  0  0  0  0  0  0  0  0  0
    8.1713  -15.5578   25.3664 C   0  0  0  0  0  0  0  0  0  0  0  0
    7.3073  -14.3907   24.2934 S   0  0  0  0  0  0  0  0  0  0  0  0
   10.1870  -16.8234   25.7663 C   0  0  0  0  0  0  0  0  0  0  0  0
   10.4069  -17.9878   25.3783 O   0  0  0  0  0  0  0  0  0  0  0  0
   10.5104  -16.4632   27.0522 O   0  0  0  0  0  0  0  0  0  0  0  0
  2  1  1  6
  2  4  1  0
  2  3  1  0
  4  6  1  0
  4  5  1  6
  6 13  1  0
  6  7  2  0
  9  8  1  0
  9 11  1  0
 10  9  2  0
 12 11  1  6
 12 14  1  0
 13 12  1  0
 14 15  2  0
 16 17  1  0
 16 14  1  0
 17 20  1  0
 17 18  1  1
 18 19  1  0
 20 22  1  0
 21 20  2  0
M  END
$$$$
