VNC.pdb
     RDKit          3D

 22 21  0  0  1  0  0  0  0  0999 V2000
    7.6762  -13.2951   20.2479 C   0  0  0  0  0  0  0  0  0  0  0  0
    8.9732  -13.1933   19.4804 C   0  0  2  0  0  0  0  0  0  0  0  0
    8.6948  -12.3011   18.2789 C   0  0  0  0  0  0  0  0  0  0  0  0
    9.4254  -14.5252   18.9402 C   0  0  2  0  0  0  0  0  0  0  0  0
    8.5363  -14.8509   17.8260 N   0  0  0  0  0  0  0  0  0  0  0  0
    9.2951  -15.6163   19.9373 C   0  0  0  0  0  0  0  0  0  0  0  0
    8.2420  -15.8108   20.6107 O   0  0  0  0  0  0  0  0  0  0  0  0
   14.2897  -14.0419   19.1977 N   0  0  0  0  0  0  0  0  0  0  0  0
   13.2057  -14.9575   19.0895 C   0  0  0  0  0  0  0  0  0  0  0  0
   13.2750  -15.8549   18.2183 O   0  0  0  0  0  0  0  0  0  0  0  0
   12.0723  -14.7782   20.0205 C   0  0  0  0  0  0  0  0  0  0  0  0
   11.6623  -16.0642   20.6891 C   0  0  2  0  0  0  0  0  0  0  0  0
   10.3749  -16.5133   20.1857 N   0  0  0  0  0  0  0  0  0  0  0  0
   11.6194  -15.9083   22.1816 C   0  0  0  0  0  0  0  0  0  0  0  0
   12.6177  -15.5149   22.8426 O   0  0  0  0  0  0  0  0  0  0  0  0
   10.4409  -16.2007   22.9163 N   0  0  0  0  0  0  0  0  0  0  0  0
   10.2957  -16.0230   24.3241 C   0  0  1  0  0  0  0  0  0  0  0  0
    8.8228  -15.7025   24.5890 C   0  0  0  0  0  0  0  0  0  0  0  0
    8.3179  -14.1958   23.7316 S   0  0  0  0  0  0  0  0  0  0  0  0
   10.5954  -17.2813   25.0251 C   0  0  0  0  0  0  0  0  0  0  0  0
   10.8682  -18.3104   24.3762 O   0  0  0  0  0  0  0  0  0  0  0  0
   10.5763  -17.3289   26.3981 O   0  0  0  0  0  0  0  0  0  0  0  0
  2  1  1  6
  2  4  1  0
  2  3  1  0
  4  6  1  0
  4  5  1  6
  6 13  1  0
  6  7  2  0
  9  8  1  0
  9 11  1  0
 10  9  2  0
 12 11  1  6
 12 14  1  0
 13 12  1  0
 14 15  2  0
 16 17  1  0
 16 14  1  0
 17 20  1  0
 17 18  1  6
 18 19  1  0
 20 22  1  0
 21 20  2  0
M  END
$$$$
