VNC.pdb
     RDKit          3D

 22 21  0  0  1  0  0  0  0  0999 V2000
    7.5434  -12.1148   26.9966 C   0  0  0  0  0  0  0  0  0  0  0  0
    6.9118  -12.2239   25.6288 C   0  0  2  0  0  0  0  0  0  0  0  0
    5.7730  -11.2144   25.5975 C   0  0  0  0  0  0  0  0  0  0  0  0
    6.3007  -13.5796   25.3863 C   0  0  2  0  0  0  0  0  0  0  0  0
    5.4799  -13.8864   26.5569 N   0  0  0  0  0  0  0  0  0  0  0  0
    7.3214  -14.6509   25.2748 C   0  0  0  0  0  0  0  0  0  0  0  0
    7.5898  -15.4466   26.2209 O   0  0  0  0  0  0  0  0  0  0  0  0
    9.8380  -18.2078   21.3281 N   0  0  0  0  0  0  0  0  0  0  0  0
   10.3114  -17.1909   22.2039 C   0  0  0  0  0  0  0  0  0  0  0  0
   11.4482  -17.3299   22.7110 O   0  0  0  0  0  0  0  0  0  0  0  0
    9.4184  -16.0395   22.4499 C   0  0  0  0  0  0  0  0  0  0  0  0
    9.0112  -15.9203   23.8952 C   0  0  2  0  0  0  0  0  0  0  0  0
    8.0608  -14.8345   24.0698 N   0  0  0  0  0  0  0  0  0  0  0  0
   10.2076  -15.7207   24.7798 C   0  0  0  0  0  0  0  0  0  0  0  0
   11.1018  -14.8730   24.5151 O   0  0  0  0  0  0  0  0  0  0  0  0
   10.3820  -16.4864   25.9619 N   0  0  0  0  0  0  0  0  0  0  0  0
   11.4900  -16.3660   26.8521 C   0  0  1  0  0  0  0  0  0  0  0  0
   11.3657  -15.0077   27.5463 C   0  0  0  0  0  0  0  0  0  0  0  0
    9.8412  -14.9030   28.5081 S   0  0  0  0  0  0  0  0  0  0  0  0
   11.4087  -17.3946   27.9008 C   0  0  0  0  0  0  0  0  0  0  0  0
   10.4400  -18.1788   27.9356 O   0  0  0  0  0  0  0  0  0  0  0  0
   12.3997  -17.4965   28.8471 O   0  0  0  0  0  0  0  0  0  0  0  0
  2  1  1  1
  2  4  1  0
  2  3  1  0
  4  6  1  0
  4  5  1  1
  6 13  1  0
  6  7  2  0
  9  8  1  0
  9 11  1  0
 10  9  2  0
 12 11  1  6
 12 14  1  0
 13 12  1  0
 14 15  2  0
 16 17  1  0
 16 14  1  0
 17 20  1  0
 17 18  1  1
 18 19  1  0
 20 22  1  0
 21 20  2  0
M  END
$$$$
