VNC.pdb
     RDKit          3D

 22 21  0  0  1  0  0  0  0  0999 V2000
    7.3016  -13.0124   20.7807 C   0  0  0  0  0  0  0  0  0  0  0  0
    8.4453  -13.3809   19.8655 C   0  0  2  0  0  0  0  0  0  0  0  0
    8.1512  -12.7275   18.5225 C   0  0  0  0  0  0  0  0  0  0  0  0
    8.5277  -14.8653   19.6205 C   0  0  2  0  0  0  0  0  0  0  0  0
    7.2872  -15.2501   18.9488 N   0  0  0  0  0  0  0  0  0  0  0  0
    8.6031  -15.6455   20.8805 C   0  0  0  0  0  0  0  0  0  0  0  0
    7.5870  -15.9170   21.5834 O   0  0  0  0  0  0  0  0  0  0  0  0
   12.6461  -18.7097   24.3489 N   0  0  0  0  0  0  0  0  0  0  0  0
   11.3073  -18.4350   23.9524 C   0  0  0  0  0  0  0  0  0  0  0  0
   10.3816  -18.7642   24.7294 O   0  0  0  0  0  0  0  0  0  0  0  0
   11.1100  -17.7773   22.6439 C   0  0  0  0  0  0  0  0  0  0  0  0
    9.9895  -16.7709   22.6641 C   0  0  2  0  0  0  0  0  0  0  0  0
    9.8517  -16.1342   21.3648 N   0  0  0  0  0  0  0  0  0  0  0  0
   10.2059  -15.7415   23.7352 C   0  0  0  0  0  0  0  0  0  0  0  0
   11.1059  -14.8636   23.6477 O   0  0  0  0  0  0  0  0  0  0  0  0
    9.3978  -15.7150   24.9014 N   0  0  0  0  0  0  0  0  0  0  0  0
    9.5415  -14.7796   25.9687 C   0  0  1  0  0  0  0  0  0  0  0  0
    8.2301  -13.9960   26.0617 C   0  0  0  0  0  0  0  0  0  0  0  0
    8.2699  -12.8160   27.4277 S   0  0  0  0  0  0  0  0  0  0  0  0
    9.7088  -15.4920   27.2450 C   0  0  0  0  0  0  0  0  0  0  0  0
    9.3573  -16.6839   27.3480 O   0  0  0  0  0  0  0  0  0  0  0  0
   10.2531  -14.8479   28.3297 O   0  0  0  0  0  0  0  0  0  0  0  0
  2  1  1  1
  2  4  1  0
  2  3  1  0
  4  6  1  0
  4  5  1  1
  6 13  1  0
  6  7  2  0
  9  8  1  0
  9 11  1  0
 10  9  2  0
 12 11  1  6
 12 14  1  0
 13 12  1  0
 14 15  2  0
 16 17  1  0
 16 14  1  0
 17 20  1  0
 17 18  1  1
 18 19  1  0
 20 22  1  0
 21 20  2  0
M  END
$$$$
