VNC.pdb
     RDKit          3D

 22 21  0  0  1  0  0  0  0  0999 V2000
    7.3899  -12.2155   18.5348 C   0  0  0  0  0  0  0  0  0  0  0  0
    8.2439  -13.3477   19.0547 C   0  0  2  0  0  0  0  0  0  0  0  0
    9.2570  -12.7235   20.0040 C   0  0  0  0  0  0  0  0  0  0  0  0
    9.0291  -14.0227   17.9600 C   0  0  2  0  0  0  0  0  0  0  0  0
    8.0567  -14.4975   16.9766 N   0  0  0  0  0  0  0  0  0  0  0  0
    9.7755  -15.2097   18.4456 C   0  0  0  0  0  0  0  0  0  0  0  0
    9.6320  -16.3637   17.9475 O   0  0  0  0  0  0  0  0  0  0  0  0
   12.1323  -17.9700   17.8620 N   0  0  0  0  0  0  0  0  0  0  0  0
   12.8063  -16.7949   17.4262 C   0  0  0  0  0  0  0  0  0  0  0  0
   13.3956  -16.8271   16.3213 O   0  0  0  0  0  0  0  0  0  0  0  0
   12.7592  -15.6172   18.3175 C   0  0  0  0  0  0  0  0  0  0  0  0
   11.9437  -15.8628   19.5599 C   0  0  2  0  0  0  0  0  0  0  0  0
   10.7077  -15.0993   19.5185 N   0  0  0  0  0  0  0  0  0  0  0  0
   12.7277  -15.5299   20.7962 C   0  0  0  0  0  0  0  0  0  0  0  0
   13.2029  -14.3803   20.9982 O   0  0  0  0  0  0  0  0  0  0  0  0
   12.9678  -16.5063   21.7978 N   0  0  0  0  0  0  0  0  0  0  0  0
   12.5040  -16.4208   23.1440 C   0  0  1  0  0  0  0  0  0  0  0  0
   10.9745  -16.4483   23.0968 C   0  0  0  0  0  0  0  0  0  0  0  0
   10.2672  -16.2905   24.7506 S   0  0  0  0  0  0  0  0  0  0  0  0
   12.9328  -17.6066   23.9018 C   0  0  0  0  0  0  0  0  0  0  0  0
   12.5758  -18.7449   23.5391 O   0  0  0  0  0  0  0  0  0  0  0  0
   13.7289  -17.4660   25.0128 O   0  0  0  0  0  0  0  0  0  0  0  0
  2  1  1  6
  2  4  1  0
  2  3  1  0
  4  6  1  0
  4  5  1  6
  6 13  1  0
  6  7  2  0
  9  8  1  0
  9 11  1  0
 10  9  2  0
 12 11  1  6
 12 14  1  0
 13 12  1  0
 14 15  2  0
 16 17  1  0
 16 14  1  0
 17 20  1  0
 17 18  1  6
 18 19  1  0
 20 22  1  0
 21 20  2  0
M  END
$$$$
