VNC.pdb
     RDKit          3D

 22 21  0  0  1  0  0  0  0  0999 V2000
    7.4463  -12.3773   18.1593 C   0  0  0  0  0  0  0  0  0  0  0  0
    8.2980  -13.3269   18.9681 C   0  0  2  0  0  0  0  0  0  0  0  0
    9.2915  -12.4674   19.7371 C   0  0  0  0  0  0  0  0  0  0  0  0
    9.1052  -14.2554   18.0983 C   0  0  2  0  0  0  0  0  0  0  0  0
    8.1560  -14.9459   17.2262 N   0  0  0  0  0  0  0  0  0  0  0  0
    9.8145  -15.2958   18.8833 C   0  0  0  0  0  0  0  0  0  0  0  0
    9.2447  -16.3389   19.3163 O   0  0  0  0  0  0  0  0  0  0  0  0
   13.3072  -18.4702   18.2753 N   0  0  0  0  0  0  0  0  0  0  0  0
   13.4044  -17.0526   18.1974 C   0  0  0  0  0  0  0  0  0  0  0  0
   13.5428  -16.5311   17.0670 O   0  0  0  0  0  0  0  0  0  0  0  0
   13.3340  -16.2983   19.4661 C   0  0  0  0  0  0  0  0  0  0  0  0
   11.9240  -16.1495   19.9746 C   0  0  2  0  0  0  0  0  0  0  0  0
   11.2002  -15.1625   19.1909 N   0  0  0  0  0  0  0  0  0  0  0  0
   11.9097  -15.7806   21.4298 C   0  0  0  0  0  0  0  0  0  0  0  0
   12.6884  -14.9127   21.9080 O   0  0  0  0  0  0  0  0  0  0  0  0
   11.0097  -16.4005   22.3351 N   0  0  0  0  0  0  0  0  0  0  0  0
   10.9964  -16.1832   23.7448 C   0  0  1  0  0  0  0  0  0  0  0  0
    9.5323  -16.1999   24.1903 C   0  0  0  0  0  0  0  0  0  0  0  0
    8.5938  -14.8758   23.3990 S   0  0  0  0  0  0  0  0  0  0  0  0
   11.6687  -17.2961   24.4333 C   0  0  0  0  0  0  0  0  0  0  0  0
   12.0531  -18.2914   23.7881 O   0  0  0  0  0  0  0  0  0  0  0  0
   11.8764  -17.2445   25.7905 O   0  0  0  0  0  0  0  0  0  0  0  0
  2  1  1  6
  2  4  1  0
  2  3  1  0
  4  6  1  0
  4  5  1  6
  6 13  1  0
  6  7  2  0
  9  8  1  0
  9 11  1  0
 10  9  2  0
 12 11  1  6
 12 14  1  0
 13 12  1  0
 14 15  2  0
 16 17  1  0
 16 14  1  0
 17 20  1  0
 17 18  1  1
 18 19  1  0
 20 22  1  0
 21 20  2  0
M  END
$$$$
