VNC.pdb
     RDKit          3D

 22 21  0  0  1  0  0  0  0  0999 V2000
   -0.2664  -20.7812   25.1880 C   0  0  0  0  0  0  0  0  0  0  0  0
   -0.2040  -21.9795   24.2705 C   0  0  2  0  0  0  0  0  0  0  0  0
    1.0201  -21.7835   23.3872 C   0  0  0  0  0  0  0  0  0  0  0  0
   -1.3964  -22.0614   23.3530 C   0  0  2  0  0  0  0  0  0  0  0  0
   -1.4340  -20.8087   22.5996 N   0  0  0  0  0  0  0  0  0  0  0  0
   -2.6776  -22.1645   24.0945 C   0  0  0  0  0  0  0  0  0  0  0  0
   -3.3774  -21.1566   24.4023 O   0  0  0  0  0  0  0  0  0  0  0  0
   -3.7514  -25.9349   24.1578 N   0  0  0  0  0  0  0  0  0  0  0  0
   -5.0803  -25.4880   23.9141 C   0  0  0  0  0  0  0  0  0  0  0  0
   -5.8185  -26.1956   23.1907 O   0  0  0  0  0  0  0  0  0  0  0  0
   -5.4911  -24.2131   24.5383 C   0  0  0  0  0  0  0  0  0  0  0  0
   -4.3793  -23.5667   25.3224 C   0  0  2  0  0  0  0  0  0  0  0  0
   -3.1873  -23.4321   24.5017 N   0  0  0  0  0  0  0  0  0  0  0  0
   -4.0748  -24.3436   26.5704 C   0  0  0  0  0  0  0  0  0  0  0  0
   -2.9840  -24.9544   26.7293 O   0  0  0  0  0  0  0  0  0  0  0  0
   -5.0126  -24.4223   27.6327 N   0  0  0  0  0  0  0  0  0  0  0  0
   -4.8530  -25.2269   28.7997 C   0  0  1  0  0  0  0  0  0  0  0  0
   -3.7710  -24.5675   29.6580 C   0  0  0  0  0  0  0  0  0  0  0  0
   -3.6917  -25.3176   31.2985 S   0  0  0  0  0  0  0  0  0  0  0  0
   -6.0935  -25.2204   29.5906 C   0  0  0  0  0  0  0  0  0  0  0  0
   -6.2253  -25.9987   30.5558 O   0  0  0  0  0  0  0  0  0  0  0  0
   -7.1130  -24.3569   29.2699 O   0  0  0  0  0  0  0  0  0  0  0  0
  2  1  1  1
  2  4  1  0
  2  3  1  0
  4  6  1  0
  4  5  1  1
  6 13  1  0
  6  7  2  0
  9  8  1  0
  9 11  1  0
 10  9  2  0
 12 11  1  6
 12 14  1  0
 13 12  1  0
 14 15  2  0
 16 17  1  0
 16 14  1  0
 17 20  1  0
 17 18  1  1
 18 19  1  0
 20 22  1  0
 21 20  2  0
M  END
$$$$
