NTE.pdb
     RDKit          3D

 25 24  0  0  1  0  0  0  0  0999 V2000
    7.6752  -17.8500   13.7760 N   0  0  0  0  0  0  0  0  0  0  0  0
    8.8929  -17.1671   13.8472 C   0  0  0  0  0  0  0  0  0  0  0  0
    9.6147  -17.1727   12.8046 O   0  0  0  0  0  0  0  0  0  0  0  0
    9.4296  -16.4412   15.0002 C   0  0  0  0  0  0  0  0  0  0  0  0
    8.6203  -16.5196   16.2507 C   0  0  2  0  0  0  0  0  0  0  0  0
    7.3333  -15.8691   15.9411 N   0  0  0  0  0  0  0  0  0  0  0  0
    9.1944  -15.7486   17.3815 C   0  0  0  0  0  0  0  0  0  0  0  0
   10.3105  -15.1437   17.3250 O   0  0  0  0  0  0  0  0  0  0  0  0
    7.2386  -13.2491   19.7904 C   0  0  0  0  0  0  0  0  0  0  0  0
    7.9370  -14.3414   20.5691 C   0  0  1  0  0  0  0  0  0  0  0  0
    7.0586  -15.3268   20.9917 O   0  0  0  0  0  0  0  0  0  0  0  0
    9.0873  -14.9400   19.7746 C   0  0  2  0  0  0  0  0  0  0  0  0
    8.5244  -15.6273   18.6370 N   0  0  0  0  0  0  0  0  0  0  0  0
    9.7819  -15.8952   20.6959 C   0  0  0  0  0  0  0  0  0  0  0  0
    9.6057  -17.1338   20.5817 O   0  0  0  0  0  0  0  0  0  0  0  0
   10.6506  -15.4329   21.7141 N   0  0  0  0  0  0  0  0  0  0  0  0
   11.3690  -16.4049   22.5645 C   0  0  1  0  0  0  0  0  0  0  0  0
   12.8020  -15.9926   22.5841 C   0  0  0  0  0  0  0  0  0  0  0  0
   13.6032  -16.8358   23.5200 C   0  0  0  0  0  0  0  0  0  0  0  0
   15.0385  -16.4287   23.4886 C   0  0  0  0  0  0  0  0  0  0  0  0
   15.7803  -16.9005   22.6131 O   0  0  0  0  0  0  0  0  0  0  0  0
   10.8005  -16.3572   23.9342 C   0  0  0  0  0  0  0  0  0  0  0  0
   10.9770  -17.3286   24.9011 O   0  0  0  0  0  0  0  0  0  0  0  0
   15.5039  -15.5441   24.4264 O   0  0  0  0  0  0  0  0  0  0  0  0
   10.0815  -15.3589   24.2908 O   0  0  0  0  0  0  0  0  0  0  0  0
  1  2  1  0
  2  4  1  0
  3  2  2  0
  4  5  1  0
  5  6  1  6
  7  5  1  0
  8  7  2  0
 10  9  1  6
 10 11  1  0
 12 10  1  0
 12 13  1  6
 13  7  1  0
 14 12  1  0
 14 15  2  0
 16 14  1  0
 17 16  1  0
 17 18  1  1
 19 18  1  0
 20 19  1  0
 21 20  2  0
 22 17  1  0
 22 23  1  0
 24 20  1  0
 25 22  2  0
M  END
$$$$
