NTE.pdb
     RDKit          3D

 25 24  0  0  1  0  0  0  0  0999 V2000
    7.1797  -11.9817   16.7475 N   0  0  0  0  0  0  0  0  0  0  0  0
    7.2633  -13.3750   16.6690 C   0  0  0  0  0  0  0  0  0  0  0  0
    7.3696  -13.8782   15.5099 O   0  0  0  0  0  0  0  0  0  0  0  0
    7.2421  -14.3229   17.7849 C   0  0  0  0  0  0  0  0  0  0  0  0
    8.4640  -14.3462   18.6402 C   0  0  2  0  0  0  0  0  0  0  0  0
    9.5407  -14.8918   17.7926 N   0  0  0  0  0  0  0  0  0  0  0  0
    8.3632  -15.2683   19.7987 C   0  0  0  0  0  0  0  0  0  0  0  0
    7.4551  -15.1881   20.6840 O   0  0  0  0  0  0  0  0  0  0  0  0
    9.5159  -19.6291   21.7761 C   0  0  0  0  0  0  0  0  0  0  0  0
    9.5178  -18.6290   20.6416 C   0  0  1  0  0  0  0  0  0  0  0  0
    8.6336  -18.9793   19.6333 O   0  0  0  0  0  0  0  0  0  0  0  0
    9.2423  -17.2203   21.1438 C   0  0  2  0  0  0  0  0  0  0  0  0
    9.2939  -16.3312   20.0079 N   0  0  0  0  0  0  0  0  0  0  0  0
   10.3265  -16.9057   22.1283 C   0  0  0  0  0  0  0  0  0  0  0  0
   11.4582  -16.5305   21.7325 O   0  0  0  0  0  0  0  0  0  0  0  0
   10.1085  -17.0212   23.5226 N   0  0  0  0  0  0  0  0  0  0  0  0
   11.2029  -16.7102   24.4658 C   0  0  1  0  0  0  0  0  0  0  0  0
   10.6507  -16.8664   25.8422 C   0  0  0  0  0  0  0  0  0  0  0  0
   11.7095  -16.6974   26.8811 C   0  0  0  0  0  0  0  0  0  0  0  0
   11.1384  -16.9006   28.2446 C   0  0  0  0  0  0  0  0  0  0  0  0
    9.9318  -17.1660   28.3597 O   0  0  0  0  0  0  0  0  0  0  0  0
   12.3142  -17.6682   24.2448 C   0  0  0  0  0  0  0  0  0  0  0  0
   13.6550  -17.3351   24.2145 O   0  0  0  0  0  0  0  0  0  0  0  0
   11.9585  -16.7897   29.3370 O   0  0  0  0  0  0  0  0  0  0  0  0
   12.0577  -18.9094   24.0602 O   0  0  0  0  0  0  0  0  0  0  0  0
  1  2  1  0
  2  4  1  0
  3  2  2  0
  4  5  1  0
  5  6  1  6
  7  5  1  0
  8  7  2  0
 10  9  1  1
 10 11  1  0
 12 10  1  0
 12 13  1  6
 13  7  1  0
 14 12  1  0
 14 15  2  0
 16 14  1  0
 17 16  1  0
 17 18  1  1
 19 18  1  0
 20 19  1  0
 21 20  2  0
 22 17  1  0
 22 23  1  0
 24 20  1  0
 25 22  2  0
M  END
$$$$
