NTE.pdb
     RDKit          3D

 25 24  0  0  1  0  0  0  0  0999 V2000
    9.0643  -16.8144   13.4061 N   0  0  0  0  0  0  0  0  0  0  0  0
    8.0126  -16.6806   14.3174 C   0  0  0  0  0  0  0  0  0  0  0  0
    6.9172  -17.2431   14.0147 O   0  0  0  0  0  0  0  0  0  0  0  0
    8.0372  -15.9584   15.5910 C   0  0  0  0  0  0  0  0  0  0  0  0
    8.4276  -16.7620   16.7855 C   0  0  2  0  0  0  0  0  0  0  0  0
    7.1721  -17.3090   17.3330 N   0  0  0  0  0  0  0  0  0  0  0  0
    9.0205  -15.9536   17.8799 C   0  0  0  0  0  0  0  0  0  0  0  0
   10.1481  -15.3740   17.7941 O   0  0  0  0  0  0  0  0  0  0  0  0
    7.1468  -13.2403   20.1224 C   0  0  0  0  0  0  0  0  0  0  0  0
    7.7740  -14.3329   20.9590 C   0  0  1  0  0  0  0  0  0  0  0  0
    6.8420  -15.2655   21.3865 O   0  0  0  0  0  0  0  0  0  0  0  0
    8.9211  -15.0064   20.2220 C   0  0  2  0  0  0  0  0  0  0  0  0
    8.3572  -15.7639   19.1304 N   0  0  0  0  0  0  0  0  0  0  0  0
    9.5900  -15.9046   21.2167 C   0  0  0  0  0  0  0  0  0  0  0  0
    9.3898  -17.1446   21.1921 O   0  0  0  0  0  0  0  0  0  0  0  0
   10.4605  -15.3857   22.2057 N   0  0  0  0  0  0  0  0  0  0  0  0
   11.1919  -16.3088   23.0984 C   0  0  1  0  0  0  0  0  0  0  0  0
   12.6466  -16.0495   22.8975 C   0  0  0  0  0  0  0  0  0  0  0  0
   13.4856  -16.9192   23.7742 C   0  0  0  0  0  0  0  0  0  0  0  0
   14.9348  -16.6822   23.5092 C   0  0  0  0  0  0  0  0  0  0  0  0
   15.4302  -17.0980   22.4503 O   0  0  0  0  0  0  0  0  0  0  0  0
   10.8071  -16.0245   24.5029 C   0  0  0  0  0  0  0  0  0  0  0  0
   11.0446  -16.8622   25.5760 O   0  0  0  0  0  0  0  0  0  0  0  0
   15.6845  -16.0116   24.4401 O   0  0  0  0  0  0  0  0  0  0  0  0
   10.2035  -14.9317   24.7890 O   0  0  0  0  0  0  0  0  0  0  0  0
  1  2  1  0
  2  4  1  0
  3  2  2  0
  4  5  1  0
  5  6  1  1
  7  5  1  0
  8  7  2  0
 10  9  1  6
 10 11  1  0
 12 10  1  0
 12 13  1  6
 13  7  1  0
 14 12  1  0
 14 15  2  0
 16 14  1  0
 17 16  1  0
 17 18  1  1
 19 18  1  0
 20 19  1  0
 21 20  2  0
 22 17  1  0
 22 23  1  0
 24 20  1  0
 25 22  2  0
M  END
$$$$
