NTE.pdb
     RDKit          3D

 25 24  0  0  1  0  0  0  0  0999 V2000
    7.4536  -15.1952   13.3842 N   0  0  0  0  0  0  0  0  0  0  0  0
    7.1924  -14.0017   14.0636 C   0  0  0  0  0  0  0  0  0  0  0  0
    6.4742  -13.1462   13.4634 O   0  0  0  0  0  0  0  0  0  0  0  0
    7.6592  -13.6288   15.4005 C   0  0  0  0  0  0  0  0  0  0  0  0
    8.5526  -14.6149   16.0746 C   0  0  2  0  0  0  0  0  0  0  0  0
    7.7918  -15.8772   16.1315 N   0  0  0  0  0  0  0  0  0  0  0  0
    8.8617  -14.2723   17.4852 C   0  0  0  0  0  0  0  0  0  0  0  0
    9.4549  -13.2044   17.8354 O   0  0  0  0  0  0  0  0  0  0  0  0
    6.7313  -13.8136   20.5447 C   0  0  0  0  0  0  0  0  0  0  0  0
    7.6657  -14.9738   20.8059 C   0  0  1  0  0  0  0  0  0  0  0  0
    7.0350  -16.1986   20.6541 O   0  0  0  0  0  0  0  0  0  0  0  0
    8.9106  -14.8897   19.9365 C   0  0  2  0  0  0  0  0  0  0  0  0
    8.5097  -15.1307   18.5710 N   0  0  0  0  0  0  0  0  0  0  0  0
    9.8380  -15.9591   20.4261 C   0  0  0  0  0  0  0  0  0  0  0  0
    9.9979  -17.0160   19.7661 O   0  0  0  0  0  0  0  0  0  0  0  0
   10.5556  -15.8106   21.6377 N   0  0  0  0  0  0  0  0  0  0  0  0
   11.4837  -16.8734   22.0771 C   0  0  1  0  0  0  0  0  0  0  0  0
   12.3265  -16.2956   23.1633 C   0  0  0  0  0  0  0  0  0  0  0  0
   12.3376  -17.1697   24.3736 C   0  0  0  0  0  0  0  0  0  0  0  0
   13.7203  -17.2799   24.9237 C   0  0  0  0  0  0  0  0  0  0  0  0
   14.6462  -16.6841   24.3516 O   0  0  0  0  0  0  0  0  0  0  0  0
   10.6934  -18.0186   22.5923 C   0  0  0  0  0  0  0  0  0  0  0  0
   11.1366  -19.3261   22.6518 O   0  0  0  0  0  0  0  0  0  0  0  0
   13.9356  -18.0357   26.0465 O   0  0  0  0  0  0  0  0  0  0  0  0
    9.5021  -17.8279   23.0225 O   0  0  0  0  0  0  0  0  0  0  0  0
  1  2  1  0
  2  4  1  0
  3  2  2  0
  4  5  1  0
  5  6  1  1
  7  5  1  0
  8  7  2  0
 10  9  1  6
 10 11  1  0
 12 10  1  0
 12 13  1  6
 13  7  1  0
 14 12  1  0
 14 15  2  0
 16 14  1  0
 17 16  1  0
 17 18  1  1
 19 18  1  0
 20 19  1  0
 21 20  2  0
 22 17  1  0
 22 23  1  0
 24 20  1  0
 25 22  2  0
M  END
$$$$
