NTE.pdb
     RDKit          3D

 25 24  0  0  1  0  0  0  0  0999 V2000
    5.1614  -11.1709   26.8857 N   0  0  0  0  0  0  0  0  0  0  0  0
    6.4953  -11.5635   27.0306 C   0  0  0  0  0  0  0  0  0  0  0  0
    7.2229  -10.8522   27.7873 O   0  0  0  0  0  0  0  0  0  0  0  0
    7.1484  -12.7131   26.4012 C   0  0  0  0  0  0  0  0  0  0  0  0
    6.3836  -13.3740   25.3044 C   0  0  2  0  0  0  0  0  0  0  0  0
    5.2063  -13.9889   25.9457 N   0  0  0  0  0  0  0  0  0  0  0  0
    7.1145  -14.4923   24.6580 C   0  0  0  0  0  0  0  0  0  0  0  0
    7.3249  -15.6124   25.2199 O   0  0  0  0  0  0  0  0  0  0  0  0
    7.2158  -14.5793   20.5860 C   0  0  0  0  0  0  0  0  0  0  0  0
    8.5044  -15.0704   21.2070 C   0  0  1  0  0  0  0  0  0  0  0  0
    9.5272  -14.1418   21.0944 O   0  0  0  0  0  0  0  0  0  0  0  0
    8.2994  -15.4831   22.6563 C   0  0  2  0  0  0  0  0  0  0  0  0
    7.6440  -14.3910   23.3354 N   0  0  0  0  0  0  0  0  0  0  0  0
    9.6650  -15.7305   23.2198 C   0  0  0  0  0  0  0  0  0  0  0  0
   10.2875  -14.8125   23.8097 O   0  0  0  0  0  0  0  0  0  0  0  0
   10.2885  -16.9967   23.1048 N   0  0  0  0  0  0  0  0  0  0  0  0
   11.5757  -17.2465   23.7865 C   0  0  1  0  0  0  0  0  0  0  0  0
   11.4339  -18.5315   24.5298 C   0  0  0  0  0  0  0  0  0  0  0  0
   12.7074  -18.9178   25.2065 C   0  0  0  0  0  0  0  0  0  0  0  0
   12.5372  -20.2060   25.9403 C   0  0  0  0  0  0  0  0  0  0  0  0
   12.9170  -20.2835   27.1189 O   0  0  0  0  0  0  0  0  0  0  0  0
   12.6465  -17.3576   22.7654 C   0  0  0  0  0  0  0  0  0  0  0  0
   13.9966  -17.1931   23.0099 O   0  0  0  0  0  0  0  0  0  0  0  0
   11.9659  -21.2725   25.2964 O   0  0  0  0  0  0  0  0  0  0  0  0
   12.3420  -17.6218   21.5496 O   0  0  0  0  0  0  0  0  0  0  0  0
  1  2  1  0
  2  4  1  0
  3  2  2  0
  4  5  1  0
  5  6  1  1
  7  5  1  0
  8  7  2  0
 10  9  1  1
 10 11  1  0
 12 10  1  0
 12 13  1  1
 13  7  1  0
 14 12  1  0
 14 15  2  0
 16 14  1  0
 17 16  1  0
 17 18  1  6
 19 18  1  0
 20 19  1  0
 21 20  2  0
 22 17  1  0
 22 23  1  0
 24 20  1  0
 25 22  2  0
M  END
$$$$
