NTE.pdb
     RDKit          3D

 25 24  0  0  1  0  0  0  0  0999 V2000
    8.0376  -17.5770   14.3567 N   0  0  0  0  0  0  0  0  0  0  0  0
    9.3382  -17.1824   14.6840 C   0  0  0  0  0  0  0  0  0  0  0  0
   10.2854  -17.7881   14.0975 O   0  0  0  0  0  0  0  0  0  0  0  0
    9.7293  -16.1398   15.6350 C   0  0  0  0  0  0  0  0  0  0  0  0
    8.6180  -15.5240   16.4165 C   0  0  2  0  0  0  0  0  0  0  0  0
    8.0785  -14.4434   15.5699 N   0  0  0  0  0  0  0  0  0  0  0  0
    9.0643  -14.8638   17.6685 C   0  0  0  0  0  0  0  0  0  0  0  0
    9.8146  -13.8385   17.6936 O   0  0  0  0  0  0  0  0  0  0  0  0
    7.5385  -12.7956   19.9902 C   0  0  0  0  0  0  0  0  0  0  0  0
    7.9222  -14.0123   20.8025 C   0  0  1  0  0  0  0  0  0  0  0  0
    6.8561  -14.8797   20.9817 O   0  0  0  0  0  0  0  0  0  0  0  0
    9.1149  -14.7323   20.1929 C   0  0  2  0  0  0  0  0  0  0  0  0
    8.6776  -15.3393   18.9585 N   0  0  0  0  0  0  0  0  0  0  0  0
    9.5332  -15.7699   21.1889 C   0  0  0  0  0  0  0  0  0  0  0  0
    9.0701  -16.9361   21.1277 O   0  0  0  0  0  0  0  0  0  0  0  0
   10.4557  -15.4683   22.2200 N   0  0  0  0  0  0  0  0  0  0  0  0
   10.8750  -16.5259   23.1633 C   0  0  1  0  0  0  0  0  0  0  0  0
   12.3042  -16.2674   23.5017 C   0  0  0  0  0  0  0  0  0  0  0  0
   13.2183  -16.7333   22.4171 C   0  0  0  0  0  0  0  0  0  0  0  0
   14.4603  -15.9067   22.3921 C   0  0  0  0  0  0  0  0  0  0  0  0
   15.0806  -15.7180   23.4500 O   0  0  0  0  0  0  0  0  0  0  0  0
   10.0338  -16.4432   24.3827 C   0  0  0  0  0  0  0  0  0  0  0  0
    9.0596  -15.4902   24.6118 O   0  0  0  0  0  0  0  0  0  0  0  0
   14.8869  -15.3756   21.2029 O   0  0  0  0  0  0  0  0  0  0  0  0
   10.1901  -17.2983   25.3233 O   0  0  0  0  0  0  0  0  0  0  0  0
  1  2  1  0
  2  4  1  0
  3  2  2  0
  4  5  1  0
  5  6  1  6
  7  5  1  0
  8  7  2  0
 10  9  1  6
 10 11  1  0
 12 10  1  0
 12 13  1  6
 13  7  1  0
 14 12  1  0
 14 15  2  0
 16 14  1  0
 17 16  1  0
 17 18  1  1
 19 18  1  0
 20 19  1  0
 21 20  2  0
 22 17  1  0
 22 23  1  0
 24 20  1  0
 25 22  2  0
M  END
$$$$
