NTE.pdb
     RDKit          3D

 25 24  0  0  1  0  0  0  0  0999 V2000
    9.0160  -12.8310   15.3449 N   0  0  0  0  0  0  0  0  0  0  0  0
    8.5818  -13.8381   16.2118 C   0  0  0  0  0  0  0  0  0  0  0  0
    8.4703  -15.0039   15.7254 O   0  0  0  0  0  0  0  0  0  0  0  0
    8.2400  -13.6941   17.6283 C   0  0  0  0  0  0  0  0  0  0  0  0
    9.2664  -14.1785   18.5962 C   0  0  2  0  0  0  0  0  0  0  0  0
    9.3478  -15.6384   18.4025 N   0  0  0  0  0  0  0  0  0  0  0  0
    8.8835  -13.9861   20.0171 C   0  0  0  0  0  0  0  0  0  0  0  0
    8.6953  -12.8462   20.5462 O   0  0  0  0  0  0  0  0  0  0  0  0
    5.8491  -14.8705   21.9205 C   0  0  0  0  0  0  0  0  0  0  0  0
    7.0041  -15.6510   22.5070 C   0  0  1  0  0  0  0  0  0  0  0  0
    7.0623  -16.9467   22.0184 O   0  0  0  0  0  0  0  0  0  0  0  0
    8.3255  -14.9284   22.2959 C   0  0  2  0  0  0  0  0  0  0  0  0
    8.6952  -15.0852   20.9095 N   0  0  0  0  0  0  0  0  0  0  0  0
    9.3172  -15.5938   23.2001 C   0  0  0  0  0  0  0  0  0  0  0  0
   10.2319  -16.3121   22.7249 O   0  0  0  0  0  0  0  0  0  0  0  0
    9.2527  -15.4334   24.6055 N   0  0  0  0  0  0  0  0  0  0  0  0
   10.2516  -16.0989   25.4676 C   0  0  1  0  0  0  0  0  0  0  0  0
   10.0328  -15.5990   26.8555 C   0  0  0  0  0  0  0  0  0  0  0  0
   10.9425  -16.2701   27.8307 C   0  0  0  0  0  0  0  0  0  0  0  0
   10.6883  -15.7660   29.2120 C   0  0  0  0  0  0  0  0  0  0  0  0
   10.5773  -14.5442   29.3971 O   0  0  0  0  0  0  0  0  0  0  0  0
   10.0361  -17.5658   25.4086 C   0  0  0  0  0  0  0  0  0  0  0  0
   11.0360  -18.5179   25.4665 O   0  0  0  0  0  0  0  0  0  0  0  0
   10.5833  -16.6628   30.2429 O   0  0  0  0  0  0  0  0  0  0  0  0
    8.8484  -18.0306   25.2917 O   0  0  0  0  0  0  0  0  0  0  0  0
  1  2  1  0
  2  4  1  0
  3  2  2  0
  4  5  1  0
  5  6  1  1
  7  5  1  0
  8  7  2  0
 10  9  1  6
 10 11  1  0
 12 10  1  0
 12 13  1  6
 13  7  1  0
 14 12  1  0
 14 15  2  0
 16 14  1  0
 17 16  1  0
 17 18  1  1
 19 18  1  0
 20 19  1  0
 21 20  2  0
 22 17  1  0
 22 23  1  0
 24 20  1  0
 25 22  2  0
M  END
$$$$
