NTE.pdb
     RDKit          3D

 25 24  0  0  1  0  0  0  0  0999 V2000
    3.2508  -19.6381   19.6558 N   0  0  0  0  0  0  0  0  0  0  0  0
    3.8663  -19.4131   20.8906 C   0  0  0  0  0  0  0  0  0  0  0  0
    3.4390  -20.0882   21.8753 O   0  0  0  0  0  0  0  0  0  0  0  0
    4.9573  -18.4782   21.1736 C   0  0  0  0  0  0  0  0  0  0  0  0
    5.3968  -17.6280   20.0296 C   0  0  2  0  0  0  0  0  0  0  0  0
    5.3339  -18.4921   18.8359 N   0  0  0  0  0  0  0  0  0  0  0  0
    6.8096  -17.1837   20.1255 C   0  0  0  0  0  0  0  0  0  0  0  0
    7.8017  -17.9339   19.8651 O   0  0  0  0  0  0  0  0  0  0  0  0
    7.9262  -13.4936   19.0073 C   0  0  0  0  0  0  0  0  0  0  0  0
    8.4820  -13.8661   20.3636 C   0  0  1  0  0  0  0  0  0  0  0  0
    7.7904  -13.2564   21.3985 O   0  0  0  0  0  0  0  0  0  0  0  0
    8.5243  -15.3748   20.5501 C   0  0  2  0  0  0  0  0  0  0  0  0
    7.1648  -15.8589   20.5238 N   0  0  0  0  0  0  0  0  0  0  0  0
    9.1597  -15.6155   21.8850 C   0  0  0  0  0  0  0  0  0  0  0  0
    8.5354  -15.3579   22.9443 O   0  0  0  0  0  0  0  0  0  0  0  0
   10.4723  -16.1362   21.9903 N   0  0  0  0  0  0  0  0  0  0  0  0
   11.1335  -16.2007   23.3104 C   0  0  1  0  0  0  0  0  0  0  0  0
   11.3178  -17.6442   23.6364 C   0  0  0  0  0  0  0  0  0  0  0  0
   10.0079  -18.3455   23.7829 C   0  0  0  0  0  0  0  0  0  0  0  0
   10.2221  -19.7873   24.1026 C   0  0  0  0  0  0  0  0  0  0  0  0
   11.3749  -20.1924   24.3181 O   0  0  0  0  0  0  0  0  0  0  0  0
   12.4493  -15.5205   23.2223 C   0  0  0  0  0  0  0  0  0  0  0  0
   13.2539  -15.2060   24.3009 O   0  0  0  0  0  0  0  0  0  0  0  0
    9.1422  -20.6297   24.1508 O   0  0  0  0  0  0  0  0  0  0  0  0
   12.9133  -15.1771   22.0790 O   0  0  0  0  0  0  0  0  0  0  0  0
  1  2  1  0
  2  4  1  0
  3  2  2  0
  4  5  1  0
  5  6  1  6
  7  5  1  0
  8  7  2  0
 10  9  1  6
 10 11  1  0
 12 10  1  0
 12 13  1  1
 13  7  1  0
 14 12  1  0
 14 15  2  0
 16 14  1  0
 17 16  1  0
 17 18  1  6
 19 18  1  0
 20 19  1  0
 21 20  2  0
 22 17  1  0
 22 23  1  0
 24 20  1  0
 25 22  2  0
M  END
$$$$
