NTE.pdb
     RDKit          3D

 25 24  0  0  1  0  0  0  0  0999 V2000
    7.7715  -18.4917   15.1607 N   0  0  0  0  0  0  0  0  0  0  0  0
    7.9653  -17.1073   15.1438 C   0  0  0  0  0  0  0  0  0  0  0  0
    7.6353  -16.4956   14.0832 O   0  0  0  0  0  0  0  0  0  0  0  0
    8.5101  -16.2809   16.2229 C   0  0  0  0  0  0  0  0  0  0  0  0
    8.9747  -17.0179   17.4337 C   0  0  2  0  0  0  0  0  0  0  0  0
    7.7983  -17.7515   17.9368 N   0  0  0  0  0  0  0  0  0  0  0  0
    9.3966  -16.1307   18.5461 C   0  0  0  0  0  0  0  0  0  0  0  0
   10.3100  -15.2539   18.4382 O   0  0  0  0  0  0  0  0  0  0  0  0
    7.4711  -13.6753   20.7460 C   0  0  0  0  0  0  0  0  0  0  0  0
    8.0356  -14.7788   21.6125 C   0  0  1  0  0  0  0  0  0  0  0  0
    7.0823  -15.7325   21.9330 O   0  0  0  0  0  0  0  0  0  0  0  0
    9.2546  -15.4208   20.9686 C   0  0  2  0  0  0  0  0  0  0  0  0
    8.7977  -16.1975   19.8410 N   0  0  0  0  0  0  0  0  0  0  0  0
    9.8710  -16.2963   22.0160 C   0  0  0  0  0  0  0  0  0  0  0  0
    9.5199  -17.4970   22.1311 O   0  0  0  0  0  0  0  0  0  0  0  0
   10.8595  -15.7994   22.8997 N   0  0  0  0  0  0  0  0  0  0  0  0
   11.5065  -16.7113   23.8661 C   0  0  1  0  0  0  0  0  0  0  0  0
   12.8969  -16.2135   24.0728 C   0  0  0  0  0  0  0  0  0  0  0  0
   13.6892  -16.2564   22.8080 C   0  0  0  0  0  0  0  0  0  0  0  0
   15.0791  -15.7691   23.0475 C   0  0  0  0  0  0  0  0  0  0  0  0
   15.7477  -15.3572   22.0868 O   0  0  0  0  0  0  0  0  0  0  0  0
   10.7508  -16.6734   25.1425 C   0  0  0  0  0  0  0  0  0  0  0  0
    9.7029  -15.8161   25.4193 O   0  0  0  0  0  0  0  0  0  0  0  0
   15.5847  -15.7877   24.3212 O   0  0  0  0  0  0  0  0  0  0  0  0
   11.0611  -17.4771   26.0903 O   0  0  0  0  0  0  0  0  0  0  0  0
  1  2  1  0
  2  4  1  0
  3  2  2  0
  4  5  1  0
  5  6  1  1
  7  5  1  0
  8  7  2  0
 10  9  1  6
 10 11  1  0
 12 10  1  0
 12 13  1  6
 13  7  1  0
 14 12  1  0
 14 15  2  0
 16 14  1  0
 17 16  1  0
 17 18  1  1
 19 18  1  0
 20 19  1  0
 21 20  2  0
 22 17  1  0
 22 23  1  0
 24 20  1  0
 25 22  2  0
M  END
$$$$
