NTE.pdb
     RDKit          3D

 25 24  0  0  1  0  0  0  0  0999 V2000
   13.1717  -15.9148   12.5443 N   0  0  0  0  0  0  0  0  0  0  0  0
   12.9447  -16.5266   13.7807 C   0  0  0  0  0  0  0  0  0  0  0  0
   13.4243  -17.6895   13.9411 O   0  0  0  0  0  0  0  0  0  0  0  0
   12.2102  -15.9686   14.9179 C   0  0  0  0  0  0  0  0  0  0  0  0
   10.9102  -16.6268   15.2370 C   0  0  2  0  0  0  0  0  0  0  0  0
    9.9940  -16.2664   14.1388 N   0  0  0  0  0  0  0  0  0  0  0  0
   10.2703  -16.1140   16.4740 C   0  0  0  0  0  0  0  0  0  0  0  0
    9.1619  -15.4927   16.4864 O   0  0  0  0  0  0  0  0  0  0  0  0
    8.0284  -16.4036   17.9040 C   0  0  0  0  0  0  0  0  0  0  0  0
    8.9134  -16.6383   19.1077 C   0  0  1  0  0  0  0  0  0  0  0  0
    9.1430  -17.9864   19.3340 O   0  0  0  0  0  0  0  0  0  0  0  0
   10.2229  -15.8740   18.9905 C   0  0  2  0  0  0  0  0  0  0  0  0
   10.8621  -16.2835   17.7628 N   0  0  0  0  0  0  0  0  0  0  0  0
   11.0427  -16.2598   20.1833 C   0  0  0  0  0  0  0  0  0  0  0  0
   11.6757  -17.3448   20.1984 O   0  0  0  0  0  0  0  0  0  0  0  0
   11.1270  -15.4188   21.3194 N   0  0  0  0  0  0  0  0  0  0  0  0
   11.9846  -15.8067   22.4587 C   0  0  1  0  0  0  0  0  0  0  0  0
   11.1289  -16.5762   23.4072 C   0  0  0  0  0  0  0  0  0  0  0  0
   11.9169  -17.0848   24.5688 C   0  0  0  0  0  0  0  0  0  0  0  0
   11.0362  -17.8465   25.5020 C   0  0  0  0  0  0  0  0  0  0  0  0
   10.2506  -17.2239   26.2332 O   0  0  0  0  0  0  0  0  0  0  0  0
   13.0926  -16.6572   21.9583 C   0  0  0  0  0  0  0  0  0  0  0  0
   14.4376  -16.3761   22.1050 O   0  0  0  0  0  0  0  0  0  0  0  0
   11.1151  -19.2144   25.5300 O   0  0  0  0  0  0  0  0  0  0  0  0
   12.8290  -17.7438   21.3335 O   0  0  0  0  0  0  0  0  0  0  0  0
  1  2  1  0
  2  4  1  0
  3  2  2  0
  4  5  1  0
  5  6  1  6
  7  5  1  0
  8  7  2  0
 10  9  1  6
 10 11  1  0
 12 10  1  0
 12 13  1  6
 13  7  1  0
 14 12  1  0
 14 15  2  0
 16 14  1  0
 17 16  1  0
 17 18  1  1
 19 18  1  0
 20 19  1  0
 21 20  2  0
 22 17  1  0
 22 23  1  0
 24 20  1  0
 25 22  2  0
M  END
$$$$
