NTE.pdb
     RDKit          3D

 25 24  0  0  1  0  0  0  0  0999 V2000
    7.9890  -19.5669   15.6174 N   0  0  0  0  0  0  0  0  0  0  0  0
    8.4503  -18.2584   15.4459 C   0  0  0  0  0  0  0  0  0  0  0  0
    8.4342  -17.7953   14.2655 O   0  0  0  0  0  0  0  0  0  0  0  0
    8.9524  -17.3580   16.4858 C   0  0  0  0  0  0  0  0  0  0  0  0
    9.0963  -17.9534   17.8459 C   0  0  2  0  0  0  0  0  0  0  0  0
    7.7534  -18.4341   18.2212 N   0  0  0  0  0  0  0  0  0  0  0  0
    9.4734  -16.9691   18.8906 C   0  0  0  0  0  0  0  0  0  0  0  0
   10.5281  -16.2620   18.8423 O   0  0  0  0  0  0  0  0  0  0  0  0
    8.1037  -14.5353   23.0257 C   0  0  0  0  0  0  0  0  0  0  0  0
    7.7925  -15.4709   21.8789 C   0  0  1  0  0  0  0  0  0  0  0  0
    6.8413  -14.9460   21.0182 O   0  0  0  0  0  0  0  0  0  0  0  0
    9.0537  -15.8624   21.1248 C   0  0  2  0  0  0  0  0  0  0  0  0
    8.6660  -16.7397   20.0462 N   0  0  0  0  0  0  0  0  0  0  0  0
    9.9302  -16.5710   22.1114 C   0  0  0  0  0  0  0  0  0  0  0  0
    9.5887  -17.6837   22.5841 O   0  0  0  0  0  0  0  0  0  0  0  0
   11.1595  -16.0111   22.5363 N   0  0  0  0  0  0  0  0  0  0  0  0
   12.0776  -16.8068   23.3777 C   0  0  1  0  0  0  0  0  0  0  0  0
   13.4599  -16.3265   23.0906 C   0  0  0  0  0  0  0  0  0  0  0  0
   14.4671  -16.9981   23.9644 C   0  0  0  0  0  0  0  0  0  0  0  0
   15.8415  -16.5158   23.6404 C   0  0  0  0  0  0  0  0  0  0  0  0
   16.0104  -15.3189   23.3605 O   0  0  0  0  0  0  0  0  0  0  0  0
   11.7395  -16.5803   24.8046 C   0  0  0  0  0  0  0  0  0  0  0  0
   10.9145  -15.5764   25.2751 O   0  0  0  0  0  0  0  0  0  0  0  0
   16.8845  -17.4048   23.6594 O   0  0  0  0  0  0  0  0  0  0  0  0
   12.2298  -17.3482   25.7048 O   0  0  0  0  0  0  0  0  0  0  0  0
  1  2  1  0
  2  4  1  0
  3  2  2  0
  4  5  1  0
  5  6  1  1
  7  5  1  0
  8  7  2  0
 10  9  1  1
 10 11  1  0
 12 10  1  0
 12 13  1  6
 13  7  1  0
 14 12  1  0
 14 15  2  0
 16 14  1  0
 17 16  1  0
 17 18  1  1
 19 18  1  0
 20 19  1  0
 21 20  2  0
 22 17  1  0
 22 23  1  0
 24 20  1  0
 25 22  2  0
M  END
$$$$
