NTE.pdb
     RDKit          3D

 25 24  0  0  1  0  0  0  0  0999 V2000
    8.4714  -13.2358   15.6679 N   0  0  0  0  0  0  0  0  0  0  0  0
    7.5832  -14.2383   16.0685 C   0  0  0  0  0  0  0  0  0  0  0  0
    6.8581  -14.7554   15.1658 O   0  0  0  0  0  0  0  0  0  0  0  0
    7.3973  -14.7604   17.4239 C   0  0  0  0  0  0  0  0  0  0  0  0
    8.2061  -14.1013   18.4900 C   0  0  2  0  0  0  0  0  0  0  0  0
    9.5834  -14.6008   18.3199 N   0  0  0  0  0  0  0  0  0  0  0  0
    7.8085  -14.4902   19.8659 C   0  0  0  0  0  0  0  0  0  0  0  0
    6.6005  -14.5772   20.2505 O   0  0  0  0  0  0  0  0  0  0  0  0
    6.2175  -16.2184   21.4821 C   0  0  0  0  0  0  0  0  0  0  0  0
    7.5855  -16.5157   22.0544 C   0  0  1  0  0  0  0  0  0  0  0  0
    8.2660  -17.4706   21.3155 O   0  0  0  0  0  0  0  0  0  0  0  0
    8.4125  -15.2480   22.2012 C   0  0  2  0  0  0  0  0  0  0  0  0
    8.7693  -14.8005   20.8761 N   0  0  0  0  0  0  0  0  0  0  0  0
    9.6275  -15.6280   22.9905 C   0  0  0  0  0  0  0  0  0  0  0  0
   10.7327  -15.7979   22.4179 O   0  0  0  0  0  0  0  0  0  0  0  0
    9.5656  -15.8053   24.3940 N   0  0  0  0  0  0  0  0  0  0  0  0
   10.8007  -16.0900   25.1539 C   0  0  1  0  0  0  0  0  0  0  0  0
   10.5460  -15.6886   26.5674 C   0  0  0  0  0  0  0  0  0  0  0  0
   11.6895  -16.0519   27.4559 C   0  0  0  0  0  0  0  0  0  0  0  0
   11.4749  -15.5089   28.8291 C   0  0  0  0  0  0  0  0  0  0  0  0
   10.4670  -14.8213   29.0551 O   0  0  0  0  0  0  0  0  0  0  0  0
   11.0889  -17.5434   25.0752 C   0  0  0  0  0  0  0  0  0  0  0  0
   10.1484  -18.5273   24.8365 O   0  0  0  0  0  0  0  0  0  0  0  0
   12.3946  -15.7816   29.8079 O   0  0  0  0  0  0  0  0  0  0  0  0
   12.2876  -17.9645   25.2378 O   0  0  0  0  0  0  0  0  0  0  0  0
  1  2  1  0
  2  4  1  0
  3  2  2  0
  4  5  1  0
  5  6  1  6
  7  5  1  0
  8  7  2  0
 10  9  1  6
 10 11  1  0
 12 10  1  0
 12 13  1  6
 13  7  1  0
 14 12  1  0
 14 15  2  0
 16 14  1  0
 17 16  1  0
 17 18  1  1
 19 18  1  0
 20 19  1  0
 21 20  2  0
 22 17  1  0
 22 23  1  0
 24 20  1  0
 25 22  2  0
M  END
$$$$
