NTE.pdb
     RDKit          3D

 25 24  0  0  1  0  0  0  0  0999 V2000
    9.6512  -18.1365   14.4849 N   0  0  0  0  0  0  0  0  0  0  0  0
    8.6552  -17.7433   15.3836 C   0  0  0  0  0  0  0  0  0  0  0  0
    7.4833  -18.1756   15.1650 O   0  0  0  0  0  0  0  0  0  0  0  0
    8.8175  -16.8826   16.5571 C   0  0  0  0  0  0  0  0  0  0  0  0
    9.1091  -17.5836   17.8410 C   0  0  2  0  0  0  0  0  0  0  0  0
    7.8197  -18.1275   18.3068 N   0  0  0  0  0  0  0  0  0  0  0  0
    9.5736  -16.6789   18.9219 C   0  0  0  0  0  0  0  0  0  0  0  0
   10.6572  -16.0174   18.8677 O   0  0  0  0  0  0  0  0  0  0  0  0
    7.4914  -13.9462   20.9507 C   0  0  0  0  0  0  0  0  0  0  0  0
    8.0730  -15.0100   21.8546 C   0  0  1  0  0  0  0  0  0  0  0  0
    7.1296  -15.9555   22.2250 O   0  0  0  0  0  0  0  0  0  0  0  0
    9.2885  -15.6705   21.2229 C   0  0  2  0  0  0  0  0  0  0  0  0
    8.8253  -16.4814   20.1223 N   0  0  0  0  0  0  0  0  0  0  0  0
    9.9121  -16.5135   22.2925 C   0  0  0  0  0  0  0  0  0  0  0  0
    9.6343  -17.7352   22.3848 O   0  0  0  0  0  0  0  0  0  0  0  0
   10.8255  -15.9616   23.2232 N   0  0  0  0  0  0  0  0  0  0  0  0
   11.3979  -16.8149   24.2854 C   0  0  1  0  0  0  0  0  0  0  0  0
   12.8327  -16.4335   24.4261 C   0  0  0  0  0  0  0  0  0  0  0  0
   13.6229  -16.8134   23.2177 C   0  0  0  0  0  0  0  0  0  0  0  0
   15.0445  -16.3857   23.3696 C   0  0  0  0  0  0  0  0  0  0  0  0
   15.9487  -17.1937   23.1068 O   0  0  0  0  0  0  0  0  0  0  0  0
   10.6699  -16.5580   25.5525 C   0  0  0  0  0  0  0  0  0  0  0  0
   10.7663  -17.3308   26.6941 O   0  0  0  0  0  0  0  0  0  0  0  0
   15.3183  -15.1121   23.7952 O   0  0  0  0  0  0  0  0  0  0  0  0
    9.8776  -15.5554   25.6396 O   0  0  0  0  0  0  0  0  0  0  0  0
  1  2  1  0
  2  4  1  0
  3  2  2  0
  4  5  1  0
  5  6  1  1
  7  5  1  0
  8  7  2  0
 10  9  1  6
 10 11  1  0
 12 10  1  0
 12 13  1  6
 13  7  1  0
 14 12  1  0
 14 15  2  0
 16 14  1  0
 17 16  1  0
 17 18  1  1
 19 18  1  0
 20 19  1  0
 21 20  2  0
 22 17  1  0
 22 23  1  0
 24 20  1  0
 25 22  2  0
M  END
$$$$
