NTE.pdb
     RDKit          3D

 25 24  0  0  1  0  0  0  0  0999 V2000
    8.7222  -19.5291   17.7159 N   0  0  0  0  0  0  0  0  0  0  0  0
    8.7284  -18.7521   16.5537 C   0  0  0  0  0  0  0  0  0  0  0  0
    9.7528  -18.8398   15.8114 O   0  0  0  0  0  0  0  0  0  0  0  0
    7.6755  -17.8431   16.0963 C   0  0  0  0  0  0  0  0  0  0  0  0
    8.0981  -16.4350   15.8436 C   0  0  2  0  0  0  0  0  0  0  0  0
    9.1981  -16.5125   14.8641 N   0  0  0  0  0  0  0  0  0  0  0  0
    8.6725  -15.7621   17.0352 C   0  0  0  0  0  0  0  0  0  0  0  0
    9.8847  -15.3895   17.1159 O   0  0  0  0  0  0  0  0  0  0  0  0
    7.9544  -12.9145   20.9315 C   0  0  0  0  0  0  0  0  0  0  0  0
    7.4605  -13.6929   19.7326 C   0  0  1  0  0  0  0  0  0  0  0  0
    7.2120  -12.8737   18.6425 O   0  0  0  0  0  0  0  0  0  0  0  0
    8.4207  -14.8135   19.3652 C   0  0  2  0  0  0  0  0  0  0  0  0
    7.8931  -15.4789   18.1980 N   0  0  0  0  0  0  0  0  0  0  0  0
    8.4598  -15.7366   20.5442 C   0  0  0  0  0  0  0  0  0  0  0  0
    7.9085  -16.8642   20.4900 O   0  0  0  0  0  0  0  0  0  0  0  0
    9.1145  -15.3676   21.7444 N   0  0  0  0  0  0  0  0  0  0  0  0
    9.8166  -16.3933   22.5437 C   0  0  1  0  0  0  0  0  0  0  0  0
   10.9867  -16.8486   21.7391 C   0  0  0  0  0  0  0  0  0  0  0  0
   11.8084  -17.8491   22.4825 C   0  0  0  0  0  0  0  0  0  0  0  0
   13.0115  -18.2297   21.6861 C   0  0  0  0  0  0  0  0  0  0  0  0
   13.4793  -19.3724   21.8088 O   0  0  0  0  0  0  0  0  0  0  0  0
   10.2731  -15.7814   23.8160 C   0  0  0  0  0  0  0  0  0  0  0  0
   10.2182  -14.4329   24.1128 O   0  0  0  0  0  0  0  0  0  0  0  0
   13.5715  -17.3098   20.8384 O   0  0  0  0  0  0  0  0  0  0  0  0
   10.7661  -16.5217   24.7377 O   0  0  0  0  0  0  0  0  0  0  0  0
  1  2  1  0
  2  4  1  0
  3  2  2  0
  4  5  1  0
  5  6  1  6
  7  5  1  0
  8  7  2  0
 10  9  1  1
 10 11  1  0
 12 10  1  0
 12 13  1  6
 13  7  1  0
 14 12  1  0
 14 15  2  0
 16 14  1  0
 17 16  1  0
 17 18  1  6
 19 18  1  0
 20 19  1  0
 21 20  2  0
 22 17  1  0
 22 23  1  0
 24 20  1  0
 25 22  2  0
M  END
$$$$
