NTE.pdb
     RDKit          3D

 25 24  0  0  1  0  0  0  0  0999 V2000
    7.3033  -15.0408   13.0119 N   0  0  0  0  0  0  0  0  0  0  0  0
    7.4171  -14.2536   14.1616 C   0  0  0  0  0  0  0  0  0  0  0  0
    7.6132  -13.0127   13.9891 O   0  0  0  0  0  0  0  0  0  0  0  0
    7.3335  -14.7070   15.5514 C   0  0  0  0  0  0  0  0  0  0  0  0
    8.5857  -14.5803   16.3520 C   0  0  2  0  0  0  0  0  0  0  0  0
    9.6114  -15.3500   15.6232 N   0  0  0  0  0  0  0  0  0  0  0  0
    8.4997  -15.2041   17.6958 C   0  0  0  0  0  0  0  0  0  0  0  0
    7.6199  -14.8952   18.5592 O   0  0  0  0  0  0  0  0  0  0  0  0
    8.3157  -18.9288   18.6247 C   0  0  0  0  0  0  0  0  0  0  0  0
    9.5380  -18.3137   19.2689 C   0  0  1  0  0  0  0  0  0  0  0  0
   10.7014  -18.6150   18.5784 O   0  0  0  0  0  0  0  0  0  0  0  0
    9.3781  -16.8110   19.4390 C   0  0  2  0  0  0  0  0  0  0  0  0
    9.4137  -16.2140   18.1254 N   0  0  0  0  0  0  0  0  0  0  0  0
   10.5370  -16.3569   20.2725 C   0  0  0  0  0  0  0  0  0  0  0  0
   11.5473  -15.8409   19.7329 O   0  0  0  0  0  0  0  0  0  0  0  0
   10.5269  -16.4953   21.6817 N   0  0  0  0  0  0  0  0  0  0  0  0
   11.6428  -15.9487   22.4817 C   0  0  1  0  0  0  0  0  0  0  0  0
   11.2400  -16.0430   23.9145 C   0  0  0  0  0  0  0  0  0  0  0  0
   11.0998  -17.4632   24.3531 C   0  0  0  0  0  0  0  0  0  0  0  0
   10.8762  -17.5333   25.8268 C   0  0  0  0  0  0  0  0  0  0  0  0
   10.1891  -18.4571   26.2893 O   0  0  0  0  0  0  0  0  0  0  0  0
   12.8568  -16.7647   22.2331 C   0  0  0  0  0  0  0  0  0  0  0  0
   12.8604  -18.0422   21.7062 O   0  0  0  0  0  0  0  0  0  0  0  0
   11.4341  -16.5770   26.6346 O   0  0  0  0  0  0  0  0  0  0  0  0
   14.0121  -16.2899   22.5167 O   0  0  0  0  0  0  0  0  0  0  0  0
  1  2  1  0
  2  4  1  0
  3  2  2  0
  4  5  1  0
  5  6  1  6
  7  5  1  0
  8  7  2  0
 10  9  1  6
 10 11  1  0
 12 10  1  0
 12 13  1  6
 13  7  1  0
 14 12  1  0
 14 15  2  0
 16 14  1  0
 17 16  1  0
 17 18  1  1
 19 18  1  0
 20 19  1  0
 21 20  2  0
 22 17  1  0
 22 23  1  0
 24 20  1  0
 25 22  2  0
M  END
$$$$
