PCW.pdb
     RDKit          3D

 28 30  0  0  1  0  0  0  0  0999 V2000
   31.2878  -22.6236  -11.5430 N   0  0  0  0  0  0  0  0  0  0  0  0
   32.2457  -21.5175  -11.6072 C   0  0  0  0  0  0  0  0  0  0  0  0
   32.3736  -21.0530  -10.1692 C   0  0  0  0  0  0  0  0  0  0  0  0
   31.2655  -21.7149   -9.3993 C   0  0  0  0  0  0  0  0  0  0  0  0
   30.3827  -22.2695  -10.4938 C   0  0  1  0  0  0  0  0  0  0  0  0
   29.4048  -21.2861  -10.9976 C   0  0  0  0  0  0  0  0  0  0  0  0
   28.7390  -20.6091  -10.1817 O   0  0  0  0  0  0  0  0  0  0  0  0
   29.1683  -21.0566  -12.3886 N   0  0  0  0  0  0  0  0  0  0  0  0
   28.1468  -20.1308  -12.8084 C   0  0  1  0  0  0  0  0  0  0  0  0
   28.3905  -19.7566  -14.2667 C   0  0  0  0  0  0  0  0  0  0  0  0
   27.2459  -18.4158  -14.7217 S   0  0  0  0  0  0  0  0  0  0  0  0
   26.7868  -20.7128  -12.7317 C   0  0  0  0  0  0  0  0  0  0  0  0
   26.5706  -21.8067  -13.2943 O   0  0  0  0  0  0  0  0  0  0  0  0
   25.7617  -20.0383  -12.0348 N   0  0  0  0  0  0  0  0  0  0  0  0
   24.4320  -20.6538  -11.8079 C   0  0  1  0  0  0  0  0  0  0  0  0
   23.9141  -20.0678  -10.5339 C   0  0  0  0  0  0  0  0  0  0  0  0
   22.7537  -20.7287   -9.9254 C   0  0  0  0  0  0  0  0  0  0  0  0
   22.8327  -21.5497   -8.8077 C   0  0  0  0  0  0  0  0  0  0  0  0
   21.5890  -21.9912   -8.5727 N   0  0  0  0  0  0  0  0  0  0  0  0
   20.7433  -21.4861   -9.4859 C   0  0  0  0  0  0  0  0  0  0  0  0
   19.3842  -21.6329   -9.6497 C   0  0  0  0  0  0  0  0  0  0  0  0
   18.7499  -20.9671  -10.6883 C   0  0  0  0  0  0  0  0  0  0  0  0
   19.4368  -20.1644  -11.5602 C   0  0  0  0  0  0  0  0  0  0  0  0
   20.7792  -20.0222  -11.3961 C   0  0  0  0  0  0  0  0  0  0  0  0
   21.4564  -20.6697  -10.3713 C   0  0  0  0  0  0  0  0  0  0  0  0
   23.5216  -20.4338  -12.9331 C   0  0  0  0  0  0  0  0  0  0  0  0
   23.5878  -19.2797  -13.4888 O   0  0  0  0  0  0  0  0  0  0  0  0
   22.6319  -21.3906  -13.4035 O   0  0  0  0  0  0  0  0  0  0  0  0
  1  5  1  0
  2  1  1  0
  2  3  1  0
  3  4  1  0
  5  4  1  0
  5  6  1  6
  6  7  2  0
  8  6  1  0
  9  8  1  0
  9 10  1  6
 11 10  1  0
 12  9  1  0
 13 12  2  0
 14 12  1  0
 15 14  1  0
 15 16  1  1
 17 16  1  0
 18 17  2  0
 19 20  1  0
 19 18  1  0
 20 25  2  0
 21 20  1  0
 21 22  2  0
 22 23  1  0
 23 24  2  0
 25 17  1  0
 25 24  1  0
 26 15  1  0
 27 26  2  0
 28 26  1  0
M  END
$$$$
