PCW.pdb
     RDKit          3D

 28 30  0  0  1  0  0  0  0  0999 V2000
   28.4854  -22.8120  -18.6428 N   0  0  0  0  0  0  0  0  0  0  0  0
   28.9837  -21.6517  -19.3846 C   0  0  0  0  0  0  0  0  0  0  0  0
   30.4924  -21.7941  -19.3274 C   0  0  0  0  0  0  0  0  0  0  0  0
   30.7894  -22.8589  -18.3092 C   0  0  0  0  0  0  0  0  0  0  0  0
   29.4572  -23.0426  -17.6190 C   0  0  1  0  0  0  0  0  0  0  0  0
   29.2452  -22.0875  -16.5144 C   0  0  0  0  0  0  0  0  0  0  0  0
   30.0098  -22.1155  -15.5235 O   0  0  0  0  0  0  0  0  0  0  0  0
   28.1985  -21.1139  -16.5090 N   0  0  0  0  0  0  0  0  0  0  0  0
   27.9681  -20.3020  -15.3408 C   0  0  1  0  0  0  0  0  0  0  0  0
   27.5474  -18.9056  -15.7868 C   0  0  0  0  0  0  0  0  0  0  0  0
   27.0757  -17.9430  -14.3152 S   0  0  0  0  0  0  0  0  0  0  0  0
   26.8788  -20.8310  -14.4876 C   0  0  0  0  0  0  0  0  0  0  0  0
   25.7764  -21.0890  -15.0148 O   0  0  0  0  0  0  0  0  0  0  0  0
   27.0911  -21.0365  -13.1076 N   0  0  0  0  0  0  0  0  0  0  0  0
   25.9983  -21.4663  -12.2022 C   0  0  1  0  0  0  0  0  0  0  0  0
   26.6564  -21.8949  -10.9301 C   0  0  0  0  0  0  0  0  0  0  0  0
   26.3248  -21.1291   -9.7231 C   0  0  0  0  0  0  0  0  0  0  0  0
   25.0681  -20.5937   -9.4710 C   0  0  0  0  0  0  0  0  0  0  0  0
   25.1608  -19.9416   -8.3035 N   0  0  0  0  0  0  0  0  0  0  0  0
   26.4091  -20.0456   -7.8185 C   0  0  0  0  0  0  0  0  0  0  0  0
   26.9805  -19.5665   -6.6611 C   0  0  0  0  0  0  0  0  0  0  0  0
   28.3134  -19.8455   -6.3963 C   0  0  0  0  0  0  0  0  0  0  0  0
   29.0824  -20.5860   -7.2546 C   0  0  0  0  0  0  0  0  0  0  0  0
   28.5151  -21.0570   -8.3972 C   0  0  0  0  0  0  0  0  0  0  0  0
   27.1851  -20.8022   -8.7040 C   0  0  0  0  0  0  0  0  0  0  0  0
   25.0088  -20.4088  -11.9888 C   0  0  0  0  0  0  0  0  0  0  0  0
   25.4385  -19.2069  -12.1149 O   0  0  0  0  0  0  0  0  0  0  0  0
   23.6779  -20.6502  -11.6743 O   0  0  0  0  0  0  0  0  0  0  0  0
  1  5  1  0
  2  1  1  0
  2  3  1  0
  3  4  1  0
  5  4  1  0
  5  6  1  1
  6  7  2  0
  8  6  1  0
  9  8  1  0
  9 10  1  6
 11 10  1  0
 12  9  1  0
 13 12  2  0
 14 12  1  0
 15 14  1  0
 15 16  1  1
 17 16  1  0
 18 17  2  0
 19 20  1  0
 19 18  1  0
 20 25  2  0
 21 20  1  0
 21 22  2  0
 22 23  1  0
 23 24  2  0
 25 17  1  0
 25 24  1  0
 26 15  1  0
 27 26  2  0
 28 26  1  0
M  END
$$$$
