PCW.pdb
     RDKit          3D

 28 30  0  0  1  0  0  0  0  0999 V2000
   28.1418  -19.0965  -14.5590 N   0  0  0  0  0  0  0  0  0  0  0  0
   29.1593  -20.0109  -15.0821 C   0  0  0  0  0  0  0  0  0  0  0  0
   28.5415  -20.5677  -16.3503 C   0  0  0  0  0  0  0  0  0  0  0  0
   27.0908  -20.1755  -16.3345 C   0  0  0  0  0  0  0  0  0  0  0  0
   26.8909  -19.6901  -14.9171 C   0  0  1  0  0  0  0  0  0  0  0  0
   26.5753  -20.7807  -13.9747 C   0  0  0  0  0  0  0  0  0  0  0  0
   26.2927  -21.9155  -14.4216 O   0  0  0  0  0  0  0  0  0  0  0  0
   26.5733  -20.6149  -12.5549 N   0  0  0  0  0  0  0  0  0  0  0  0
   25.4101  -20.9740  -11.7836 C   0  0  1  0  0  0  0  0  0  0  0  0
   25.5598  -20.4090  -10.3749 C   0  0  0  0  0  0  0  0  0  0  0  0
   27.2669  -20.6975   -9.8114 S   0  0  0  0  0  0  0  0  0  0  0  0
   24.1603  -20.4116  -12.3456 C   0  0  0  0  0  0  0  0  0  0  0  0
   24.1844  -19.2582  -12.8241 O   0  0  0  0  0  0  0  0  0  0  0  0
   22.9707  -21.1707  -12.3367 N   0  0  0  0  0  0  0  0  0  0  0  0
   21.7483  -20.7203  -13.0448 C   0  0  1  0  0  0  0  0  0  0  0  0
   22.1447  -20.5184  -14.4720 C   0  0  0  0  0  0  0  0  0  0  0  0
   21.0779  -20.1474  -15.4088 C   0  0  0  0  0  0  0  0  0  0  0  0
   20.2319  -19.0616  -15.2228 C   0  0  0  0  0  0  0  0  0  0  0  0
   19.3770  -19.0654  -16.2553 N   0  0  0  0  0  0  0  0  0  0  0  0
   19.6495  -20.0964  -17.0719 C   0  0  0  0  0  0  0  0  0  0  0  0
   19.0687  -20.5032  -18.2521 C   0  0  0  0  0  0  0  0  0  0  0  0
   19.5747  -21.6148  -18.9099 C   0  0  0  0  0  0  0  0  0  0  0  0
   20.6392  -22.3239  -18.4194 C   0  0  0  0  0  0  0  0  0  0  0  0
   21.2100  -21.9200  -17.2531 C   0  0  0  0  0  0  0  0  0  0  0  0
   20.7368  -20.8138  -16.5600 C   0  0  0  0  0  0  0  0  0  0  0  0
   20.6445  -21.6713  -12.9023 C   0  0  0  0  0  0  0  0  0  0  0  0
   19.5009  -21.1631  -12.6211 O   0  0  0  0  0  0  0  0  0  0  0  0
   20.7843  -23.0439  -13.0597 O   0  0  0  0  0  0  0  0  0  0  0  0
  1  5  1  0
  2  1  1  0
  2  3  1  0
  3  4  1  0
  5  4  1  0
  5  6  1  1
  6  7  2  0
  8  6  1  0
  9  8  1  0
  9 10  1  1
 11 10  1  0
 12  9  1  0
 13 12  2  0
 14 12  1  0
 15 14  1  0
 15 16  1  6
 17 16  1  0
 18 17  2  0
 19 20  1  0
 19 18  1  0
 20 25  2  0
 21 20  1  0
 21 22  2  0
 22 23  1  0
 23 24  2  0
 25 17  1  0
 25 24  1  0
 26 15  1  0
 27 26  2  0
 28 26  1  0
M  END
$$$$
