PCW.pdb
     RDKit          3D

 28 30  0  0  1  0  0  0  0  0999 V2000
   20.5334   -9.8211  -15.3663 N   0  0  0  0  0  0  0  0  0  0  0  0
   21.1608  -10.6520  -14.3363 C   0  0  0  0  0  0  0  0  0  0  0  0
   20.0110  -11.0560  -13.4336 C   0  0  0  0  0  0  0  0  0  0  0  0
   18.8372  -10.1992  -13.8166 C   0  0  0  0  0  0  0  0  0  0  0  0
   19.4664   -9.1437  -14.6967 C   0  0  1  0  0  0  0  0  0  0  0  0
   20.0093   -8.0051  -13.9310 C   0  0  0  0  0  0  0  0  0  0  0  0
   20.3398   -8.1716  -12.7350 O   0  0  0  0  0  0  0  0  0  0  0  0
   20.1833   -6.6988  -14.4847 N   0  0  0  0  0  0  0  0  0  0  0  0
   20.0329   -5.5317  -13.6528 C   0  0  1  0  0  0  0  0  0  0  0  0
   20.8301   -4.3846  -14.2651 C   0  0  0  0  0  0  0  0  0  0  0  0
   20.8195   -2.9838  -13.1021 S   0  0  0  0  0  0  0  0  0  0  0  0
   18.6255   -5.0794  -13.5582 C   0  0  0  0  0  0  0  0  0  0  0  0
   17.8717   -5.2578  -14.5379 O   0  0  0  0  0  0  0  0  0  0  0  0
   18.1541   -4.4603  -12.3810 N   0  0  0  0  0  0  0  0  0  0  0  0
   16.7875   -3.8924  -12.2874 C   0  0  1  0  0  0  0  0  0  0  0  0
   15.8617   -5.0575  -12.1451 C   0  0  0  0  0  0  0  0  0  0  0  0
   15.8017   -5.6975  -10.8259 C   0  0  0  0  0  0  0  0  0  0  0  0
   16.8029   -5.5871   -9.8694 C   0  0  0  0  0  0  0  0  0  0  0  0
   16.4113   -6.3279   -8.8231 N   0  0  0  0  0  0  0  0  0  0  0  0
   15.2194   -6.8910   -9.0809 C   0  0  0  0  0  0  0  0  0  0  0  0
   14.4146   -7.7103   -8.3215 C   0  0  0  0  0  0  0  0  0  0  0  0
   13.2004   -8.1375   -8.8388 C   0  0  0  0  0  0  0  0  0  0  0  0
   12.7752   -7.7682  -10.0875 C   0  0  0  0  0  0  0  0  0  0  0  0
   13.5729   -6.9596  -10.8352 C   0  0  0  0  0  0  0  0  0  0  0  0
   14.7965   -6.5080  -10.3589 C   0  0  0  0  0  0  0  0  0  0  0  0
   16.6589   -2.9403  -11.1829 C   0  0  0  0  0  0  0  0  0  0  0  0
   17.6674   -2.8580  -10.3948 O   0  0  0  0  0  0  0  0  0  0  0  0
   15.5349   -2.1528  -10.9708 O   0  0  0  0  0  0  0  0  0  0  0  0
  1  5  1  0
  2  1  1  0
  2  3  1  0
  3  4  1  0
  5  4  1  0
  5  6  1  1
  6  7  2  0
  8  6  1  0
  9  8  1  0
  9 10  1  6
 11 10  1  0
 12  9  1  0
 13 12  2  0
 14 12  1  0
 15 14  1  0
 15 16  1  1
 17 16  1  0
 18 17  2  0
 19 20  1  0
 19 18  1  0
 20 25  2  0
 21 20  1  0
 21 22  2  0
 22 23  1  0
 23 24  2  0
 25 17  1  0
 25 24  1  0
 26 15  1  0
 27 26  2  0
 28 26  1  0
M  END
$$$$
