PCW.pdb
     RDKit          3D

 28 30  0  0  1  0  0  0  0  0999 V2000
   28.2176  -20.4661  -15.0752 N   0  0  0  0  0  0  0  0  0  0  0  0
   27.7352  -19.4245  -15.9847 C   0  0  0  0  0  0  0  0  0  0  0  0
   28.4636  -18.1725  -15.5352 C   0  0  0  0  0  0  0  0  0  0  0  0
   29.0975  -18.4914  -14.2104 C   0  0  0  0  0  0  0  0  0  0  0  0
   28.4389  -19.7978  -13.8303 C   0  0  1  0  0  0  0  0  0  0  0  0
   27.1507  -19.6117  -13.1352 C   0  0  0  0  0  0  0  0  0  0  0  0
   26.6520  -18.4656  -13.0634 O   0  0  0  0  0  0  0  0  0  0  0  0
   26.4250  -20.6829  -12.5276 N   0  0  0  0  0  0  0  0  0  0  0  0
   25.3239  -20.4030  -11.6410 C   0  0  1  0  0  0  0  0  0  0  0  0
   24.0414  -20.9470  -12.2617 C   0  0  0  0  0  0  0  0  0  0  0  0
   22.6215  -20.2964  -11.3259 S   0  0  0  0  0  0  0  0  0  0  0  0
   25.4777  -21.0569  -10.3207 C   0  0  0  0  0  0  0  0  0  0  0  0
   25.9530  -22.2110  -10.2754 O   0  0  0  0  0  0  0  0  0  0  0  0
   25.0926  -20.3821   -9.1427 N   0  0  0  0  0  0  0  0  0  0  0  0
   25.1420  -21.0364   -7.8130 C   0  0  1  0  0  0  0  0  0  0  0  0
   25.3616  -19.9420   -6.8186 C   0  0  0  0  0  0  0  0  0  0  0  0
   26.7409  -19.4713   -6.6468 C   0  0  0  0  0  0  0  0  0  0  0  0
   27.3317  -18.5055   -7.4515 C   0  0  0  0  0  0  0  0  0  0  0  0
   28.5919  -18.3678   -7.0158 N   0  0  0  0  0  0  0  0  0  0  0  0
   28.8127  -19.1971   -5.9826 C   0  0  0  0  0  0  0  0  0  0  0  0
   29.9279  -19.4052   -5.2025 C   0  0  0  0  0  0  0  0  0  0  0  0
   29.8702  -20.3279   -4.1683 C   0  0  0  0  0  0  0  0  0  0  0  0
   28.7331  -21.0421   -3.8978 C   0  0  0  0  0  0  0  0  0  0  0  0
   27.6336  -20.8348   -4.6708 C   0  0  0  0  0  0  0  0  0  0  0  0
   27.6453  -19.9220   -5.7170 C   0  0  0  0  0  0  0  0  0  0  0  0
   23.9313  -21.8099   -7.5320 C   0  0  0  0  0  0  0  0  0  0  0  0
   22.9195  -21.5563   -8.2784 O   0  0  0  0  0  0  0  0  0  0  0  0
   23.8447  -22.7710   -6.5333 O   0  0  0  0  0  0  0  0  0  0  0  0
  1  5  1  0
  2  1  1  0
  2  3  1  0
  3  4  1  0
  5  4  1  0
  5  6  1  6
  6  7  2  0
  8  6  1  0
  9  8  1  0
  9 10  1  6
 11 10  1  0
 12  9  1  0
 13 12  2  0
 14 12  1  0
 15 14  1  0
 15 16  1  1
 17 16  1  0
 18 17  2  0
 19 20  1  0
 19 18  1  0
 20 25  2  0
 21 20  1  0
 21 22  2  0
 22 23  1  0
 23 24  2  0
 25 17  1  0
 25 24  1  0
 26 15  1  0
 27 26  2  0
 28 26  1  0
M  END
$$$$
