PCW.pdb
     RDKit          3D

 28 30  0  0  1  0  0  0  0  0999 V2000
   28.8092  -21.4545  -18.8022 N   0  0  0  0  0  0  0  0  0  0  0  0
   30.2679  -21.3315  -18.7559 C   0  0  0  0  0  0  0  0  0  0  0  0
   30.7376  -22.6754  -18.2331 C   0  0  0  0  0  0  0  0  0  0  0  0
   29.5186  -23.3938  -17.7264 C   0  0  0  0  0  0  0  0  0  0  0  0
   28.4736  -22.3021  -17.7001 C   0  0  1  0  0  0  0  0  0  0  0  0
   28.4933  -21.5169  -16.4510 C   0  0  0  0  0  0  0  0  0  0  0  0
   29.4033  -21.7167  -15.6147 O   0  0  0  0  0  0  0  0  0  0  0  0
   27.5162  -20.5230  -16.1334 N   0  0  0  0  0  0  0  0  0  0  0  0
   27.4497  -19.9686  -14.8049 C   0  0  1  0  0  0  0  0  0  0  0  0
   27.0233  -18.5074  -14.9019 C   0  0  0  0  0  0  0  0  0  0  0  0
   28.3752  -17.5572  -15.6664 S   0  0  0  0  0  0  0  0  0  0  0  0
   26.4519  -20.6555  -13.9523 C   0  0  0  0  0  0  0  0  0  0  0  0
   25.3930  -21.0603  -14.4766 O   0  0  0  0  0  0  0  0  0  0  0  0
   26.7008  -20.8448  -12.5762 N   0  0  0  0  0  0  0  0  0  0  0  0
   25.7373  -21.5473  -11.6949 C   0  0  1  0  0  0  0  0  0  0  0  0
   26.4903  -21.8996  -10.4524 C   0  0  0  0  0  0  0  0  0  0  0  0
   26.5503  -20.8760   -9.4027 C   0  0  0  0  0  0  0  0  0  0  0  0
   25.5310  -19.9656   -9.1545 C   0  0  0  0  0  0  0  0  0  0  0  0
   25.9597  -19.1784   -8.1578 N   0  0  0  0  0  0  0  0  0  0  0  0
   27.1912  -19.5538   -7.7748 C   0  0  0  0  0  0  0  0  0  0  0  0
   28.0287  -19.0696   -6.7952 C   0  0  0  0  0  0  0  0  0  0  0  0
   29.2628  -19.6719   -6.5987 C   0  0  0  0  0  0  0  0  0  0  0  0
   29.6762  -20.7383   -7.3525 C   0  0  0  0  0  0  0  0  0  0  0  0
   28.8469  -21.2136   -8.3197 C   0  0  0  0  0  0  0  0  0  0  0  0
   27.6030  -20.6421   -8.5525 C   0  0  0  0  0  0  0  0  0  0  0  0
   24.5504  -20.7368  -11.4162 C   0  0  0  0  0  0  0  0  0  0  0  0
   23.5235  -21.3765  -10.9905 O   0  0  0  0  0  0  0  0  0  0  0  0
   24.5009  -19.3591  -11.5835 O   0  0  0  0  0  0  0  0  0  0  0  0
  1  5  1  0
  2  1  1  0
  2  3  1  0
  3  4  1  0
  5  4  1  0
  5  6  1  1
  6  7  2  0
  8  6  1  0
  9  8  1  0
  9 10  1  6
 11 10  1  0
 12  9  1  0
 13 12  2  0
 14 12  1  0
 15 14  1  0
 15 16  1  1
 17 16  1  0
 18 17  2  0
 19 20  1  0
 19 18  1  0
 20 25  2  0
 21 20  1  0
 21 22  2  0
 22 23  1  0
 23 24  2  0
 25 17  1  0
 25 24  1  0
 26 15  1  0
 27 26  2  0
 28 26  1  0
M  END
$$$$
