PCW.pdb
     RDKit          3D

 28 30  0  0  1  0  0  0  0  0999 V2000
   30.6634  -22.7682  -18.2201 N   0  0  0  0  0  0  0  0  0  0  0  0
   31.7972  -23.3680  -17.5131 C   0  0  0  0  0  0  0  0  0  0  0  0
   31.2466  -24.6711  -16.9663 C   0  0  0  0  0  0  0  0  0  0  0  0
   29.7539  -24.6145  -17.1312 C   0  0  0  0  0  0  0  0  0  0  0  0
   29.5098  -23.1623  -17.4721 C   0  0  1  0  0  0  0  0  0  0  0  0
   29.3803  -22.3051  -16.2781 C   0  0  0  0  0  0  0  0  0  0  0  0
   30.3203  -22.2563  -15.4526 O   0  0  0  0  0  0  0  0  0  0  0  0
   28.2231  -21.5121  -16.0032 N   0  0  0  0  0  0  0  0  0  0  0  0
   28.1197  -20.7836  -14.7641 C   0  0  1  0  0  0  0  0  0  0  0  0
   27.8555  -19.3146  -15.0772 C   0  0  0  0  0  0  0  0  0  0  0  0
   26.4219  -19.2073  -16.1944 S   0  0  0  0  0  0  0  0  0  0  0  0
   26.9977  -21.2556  -13.9199 C   0  0  0  0  0  0  0  0  0  0  0  0
   25.9769  -21.7090  -14.4788 O   0  0  0  0  0  0  0  0  0  0  0  0
   27.0886  -21.1906  -12.5132 N   0  0  0  0  0  0  0  0  0  0  0  0
   25.9931  -21.6663  -11.6343 C   0  0  1  0  0  0  0  0  0  0  0  0
   26.6412  -22.0974  -10.3579 C   0  0  0  0  0  0  0  0  0  0  0  0
   26.7671  -21.0835   -9.3046 C   0  0  0  0  0  0  0  0  0  0  0  0
   25.8146  -20.1021   -9.0616 C   0  0  0  0  0  0  0  0  0  0  0  0
   26.2914  -19.3506   -8.0591 N   0  0  0  0  0  0  0  0  0  0  0  0
   27.4892  -19.8155   -7.6677 C   0  0  0  0  0  0  0  0  0  0  0  0
   28.3519  -19.3958   -6.6802 C   0  0  0  0  0  0  0  0  0  0  0  0
   29.5374  -20.0867   -6.4759 C   0  0  0  0  0  0  0  0  0  0  0  0
   29.8782  -21.1785   -7.2298 C   0  0  0  0  0  0  0  0  0  0  0  0
   29.0243  -21.5898   -8.2049 C   0  0  0  0  0  0  0  0  0  0  0  0
   27.8271  -20.9289   -8.4456 C   0  0  0  0  0  0  0  0  0  0  0  0
   24.9704  -20.6408  -11.4213 C   0  0  0  0  0  0  0  0  0  0  0  0
   23.8569  -21.0533  -10.9365 O   0  0  0  0  0  0  0  0  0  0  0  0
   25.1569  -19.2947  -11.7073 O   0  0  0  0  0  0  0  0  0  0  0  0
  1  5  1  0
  2  1  1  0
  2  3  1  0
  3  4  1  0
  5  4  1  0
  5  6  1  1
  6  7  2  0
  8  6  1  0
  9  8  1  0
  9 10  1  6
 11 10  1  0
 12  9  1  0
 13 12  2  0
 14 12  1  0
 15 14  1  0
 15 16  1  1
 17 16  1  0
 18 17  2  0
 19 20  1  0
 19 18  1  0
 20 25  2  0
 21 20  1  0
 21 22  2  0
 22 23  1  0
 23 24  2  0
 25 17  1  0
 25 24  1  0
 26 15  1  0
 27 26  2  0
 28 26  1  0
M  END
$$$$
