PCW.pdb
     RDKit          3D

 28 30  0  0  1  0  0  0  0  0999 V2000
   27.3017  -22.3992  -17.1587 N   0  0  0  0  0  0  0  0  0  0  0  0
   27.6619  -21.2140  -17.9400 C   0  0  0  0  0  0  0  0  0  0  0  0
   29.1404  -21.3930  -18.2262 C   0  0  0  0  0  0  0  0  0  0  0  0
   29.6196  -22.5147  -17.3483 C   0  0  0  0  0  0  0  0  0  0  0  0
   28.4676  -22.7035  -16.3881 C   0  0  1  0  0  0  0  0  0  0  0  0
   28.5368  -21.8015  -15.2223 C   0  0  0  0  0  0  0  0  0  0  0  0
   29.5865  -21.7580  -14.5415 O   0  0  0  0  0  0  0  0  0  0  0  0
   27.4557  -20.9587  -14.8170 N   0  0  0  0  0  0  0  0  0  0  0  0
   27.5593  -20.1732  -13.6133 C   0  0  1  0  0  0  0  0  0  0  0  0
   27.1046  -18.7488  -13.9142 C   0  0  0  0  0  0  0  0  0  0  0  0
   27.1843  -17.7764  -12.3770 S   0  0  0  0  0  0  0  0  0  0  0  0
   26.6931  -20.6840  -12.5255 C   0  0  0  0  0  0  0  0  0  0  0  0
   25.4864  -20.8942  -12.7693 O   0  0  0  0  0  0  0  0  0  0  0  0
   27.2289  -20.9257  -11.2426 N   0  0  0  0  0  0  0  0  0  0  0  0
   26.3945  -21.4365  -10.1283 C   0  0  1  0  0  0  0  0  0  0  0  0
   27.3070  -21.5676   -8.9515 C   0  0  0  0  0  0  0  0  0  0  0  0
   27.2863  -20.4739   -7.9733 C   0  0  0  0  0  0  0  0  0  0  0  0
   26.4507  -19.3686   -8.0704 C   0  0  0  0  0  0  0  0  0  0  0  0
   26.7413  -18.5803   -7.0259 N   0  0  0  0  0  0  0  0  0  0  0  0
   27.7129  -19.1398   -6.2861 C   0  0  0  0  0  0  0  0  0  0  0  0
   28.3288  -18.7258   -5.1264 C   0  0  0  0  0  0  0  0  0  0  0  0
   29.3071  -19.5261   -4.5546 C   0  0  0  0  0  0  0  0  0  0  0  0
   29.6814  -20.7208   -5.1105 C   0  0  0  0  0  0  0  0  0  0  0  0
   29.0716  -21.1262   -6.2563 C   0  0  0  0  0  0  0  0  0  0  0  0
   28.0878  -20.3579   -6.8643 C   0  0  0  0  0  0  0  0  0  0  0  0
   25.2495  -20.5673   -9.8516 C   0  0  0  0  0  0  0  0  0  0  0  0
   24.3331  -21.0691   -9.1076 O   0  0  0  0  0  0  0  0  0  0  0  0
   25.1283  -19.2729  -10.3396 O   0  0  0  0  0  0  0  0  0  0  0  0
  1  5  1  0
  2  1  1  0
  2  3  1  0
  3  4  1  0
  5  4  1  0
  5  6  1  1
  6  7  2  0
  8  6  1  0
  9  8  1  0
  9 10  1  6
 11 10  1  0
 12  9  1  0
 13 12  2  0
 14 12  1  0
 15 14  1  0
 15 16  1  1
 17 16  1  0
 18 17  2  0
 19 20  1  0
 19 18  1  0
 20 25  2  0
 21 20  1  0
 21 22  2  0
 22 23  1  0
 23 24  2  0
 25 17  1  0
 25 24  1  0
 26 15  1  0
 27 26  2  0
 28 26  1  0
M  END
$$$$
