PCW.pdb
     RDKit          3D

 28 30  0  0  1  0  0  0  0  0999 V2000
   25.6814  -17.9048  -15.9290 N   0  0  0  0  0  0  0  0  0  0  0  0
   25.5623  -16.6704  -15.1498 C   0  0  0  0  0  0  0  0  0  0  0  0
   26.9703  -16.4093  -14.6503 C   0  0  0  0  0  0  0  0  0  0  0  0
   27.7636  -17.6575  -14.9168 C   0  0  0  0  0  0  0  0  0  0  0  0
   26.6931  -18.6665  -15.2645 C   0  0  1  0  0  0  0  0  0  0  0  0
   26.1147  -19.3237  -14.0767 C   0  0  0  0  0  0  0  0  0  0  0  0
   25.0772  -18.8522  -13.5586 O   0  0  0  0  0  0  0  0  0  0  0  0
   26.6798  -20.4889  -13.4715 N   0  0  0  0  0  0  0  0  0  0  0  0
   25.9676  -21.1836  -12.4289 C   0  0  1  0  0  0  0  0  0  0  0  0
   26.0092  -22.6806  -12.7175 C   0  0  0  0  0  0  0  0  0  0  0  0
   24.7396  -23.0677  -13.9637 S   0  0  0  0  0  0  0  0  0  0  0  0
   26.5770  -20.9824  -11.0938 C   0  0  0  0  0  0  0  0  0  0  0  0
   27.7904  -20.6942  -11.0263 O   0  0  0  0  0  0  0  0  0  0  0  0
   25.7949  -21.1155   -9.9267 N   0  0  0  0  0  0  0  0  0  0  0  0
   26.3595  -20.8870   -8.5748 C   0  0  1  0  0  0  0  0  0  0  0  0
   26.9272  -19.5041   -8.5893 C   0  0  0  0  0  0  0  0  0  0  0  0
   27.4750  -19.0006   -7.3245 C   0  0  0  0  0  0  0  0  0  0  0  0
   27.4375  -17.6647   -6.9459 C   0  0  0  0  0  0  0  0  0  0  0  0
   28.0586  -17.5888   -5.7604 N   0  0  0  0  0  0  0  0  0  0  0  0
   28.4783  -18.8081   -5.3842 C   0  0  0  0  0  0  0  0  0  0  0  0
   29.1410  -19.2364   -4.2559 C   0  0  0  0  0  0  0  0  0  0  0  0
   29.4387  -20.5839   -4.1141 C   0  0  0  0  0  0  0  0  0  0  0  0
   29.0925  -21.5059   -5.0662 C   0  0  0  0  0  0  0  0  0  0  0  0
   28.4387  -21.0793   -6.1797 C   0  0  0  0  0  0  0  0  0  0  0  0
   28.1206  -19.7405   -6.3647 C   0  0  0  0  0  0  0  0  0  0  0  0
   25.3601  -21.0680   -7.5205 C   0  0  0  0  0  0  0  0  0  0  0  0
   24.1460  -20.8206   -7.8519 O   0  0  0  0  0  0  0  0  0  0  0  0
   25.6658  -21.4857   -6.2319 O   0  0  0  0  0  0  0  0  0  0  0  0
  1  5  1  0
  2  1  1  0
  2  3  1  0
  3  4  1  0
  5  4  1  0
  5  6  1  1
  6  7  2  0
  8  6  1  0
  9  8  1  0
  9 10  1  6
 11 10  1  0
 12  9  1  0
 13 12  2  0
 14 12  1  0
 15 14  1  0
 15 16  1  6
 17 16  1  0
 18 17  2  0
 19 20  1  0
 19 18  1  0
 20 25  2  0
 21 20  1  0
 21 22  2  0
 22 23  1  0
 23 24  2  0
 25 17  1  0
 25 24  1  0
 26 15  1  0
 27 26  2  0
 28 26  1  0
M  END
$$$$
