KLV.pdb
     RDKit          3D

 25 24  0  0  1  0  0  0  0  0999 V2000
    8.9345  -20.1549   22.0929 N   0  0  0  0  0  0  0  0  0  0  0  0
    7.9666  -19.1537   22.4879 C   0  0  1  0  0  0  0  0  0  0  0  0
    7.6877  -19.3232   23.9851 C   0  0  0  0  0  0  0  0  0  0  0  0
    7.6637  -20.7891   24.2594 C   0  0  0  0  0  0  0  0  0  0  0  0
    7.3860  -21.1397   25.6925 C   0  0  0  0  0  0  0  0  0  0  0  0
    6.0142  -21.6779   25.9284 C   0  0  0  0  0  0  0  0  0  0  0  0
    5.9453  -23.0444   25.4177 N   0  0  0  0  0  0  0  0  0  0  0  0
    8.5455  -17.8213   22.2109 C   0  0  0  0  0  0  0  0  0  0  0  0
    9.7910  -17.5999   22.2796 O   0  0  0  0  0  0  0  0  0  0  0  0
    6.6141  -12.3631   20.0341 C   0  0  0  0  0  0  0  0  0  0  0  0
    7.8264  -13.1743   20.5181 C   0  0  2  0  0  0  0  0  0  0  0  0
    8.8177  -13.1432   19.3980 C   0  0  0  0  0  0  0  0  0  0  0  0
    7.3116  -14.5131   20.8989 C   0  0  0  0  0  0  0  0  0  0  0  0
    8.2325  -15.3788   21.6898 C   0  0  2  0  0  0  0  0  0  0  0  0
    7.7280  -16.7290   21.8549 N   0  0  0  0  0  0  0  0  0  0  0  0
    8.6247  -14.7460   22.9681 C   0  0  0  0  0  0  0  0  0  0  0  0
    9.3987  -13.7302   22.9747 O   0  0  0  0  0  0  0  0  0  0  0  0
    6.4603  -13.0748   25.0994 C   0  0  0  0  0  0  0  0  0  0  0  0
    7.2593  -13.8905   26.0710 C   0  0  2  0  0  0  0  0  0  0  0  0
    7.6079  -13.1009   27.3063 C   0  0  0  0  0  0  0  0  0  0  0  0
    8.5176  -14.4662   25.4361 C   0  0  2  0  0  0  0  0  0  0  0  0
    8.1859  -15.2003   24.2314 N   0  0  0  0  0  0  0  0  0  0  0  0
    9.1061  -15.3715   26.4374 C   0  0  0  0  0  0  0  0  0  0  0  0
    9.7465  -14.9112   27.5607 O   0  0  0  0  0  0  0  0  0  0  0  0
    9.0327  -16.6205   26.2796 O   0  0  0  0  0  0  0  0  0  0  0  0
  2  3  1  0
  2  1  1  1
  4  3  1  0
  4  5  1  0
  6  5  1  0
  6  7  1  0
  8  2  1  0
  9  8  2  0
 11 10  1  6
 11 13  1  0
 12 11  1  0
 14 13  1  1
 14 15  1  0
 15  8  1  0
 16 14  1  0
 16 17  2  0
 19 18  1  6
 19 21  1  0
 20 19  1  0
 21 22  1  6
 22 16  1  0
 23 21  1  0
 24 23  1  0
 25 23  2  0
M  END
$$$$
