KLV.pdb
     RDKit          3D

 25 24  0  0  1  0  0  0  0  0999 V2000
    9.1942  -15.4705   20.2588 N   0  0  0  0  0  0  0  0  0  0  0  0
    8.7099  -16.2205   21.3982 C   0  0  1  0  0  0  0  0  0  0  0  0
    9.4912  -17.5368   21.4710 C   0  0  0  0  0  0  0  0  0  0  0  0
    9.0482  -18.3695   20.3155 C   0  0  0  0  0  0  0  0  0  0  0  0
    8.9073  -19.8304   20.6315 C   0  0  0  0  0  0  0  0  0  0  0  0
    8.4531  -20.6579   19.4756 C   0  0  0  0  0  0  0  0  0  0  0  0
    8.4478  -22.0639   19.8706 N   0  0  0  0  0  0  0  0  0  0  0  0
    8.9384  -15.4084   22.6129 C   0  0  0  0  0  0  0  0  0  0  0  0
   10.0103  -14.7588   22.7977 O   0  0  0  0  0  0  0  0  0  0  0  0
    7.3856  -11.8728   25.0921 C   0  0  0  0  0  0  0  0  0  0  0  0
    6.3061  -12.9640   25.0146 C   0  0  2  0  0  0  0  0  0  0  0  0
    5.1307  -12.4365   25.7750 C   0  0  0  0  0  0  0  0  0  0  0  0
    6.9240  -14.2051   25.5439 C   0  0  0  0  0  0  0  0  0  0  0  0
    8.1901  -14.6473   24.8923 C   0  0  2  0  0  0  0  0  0  0  0  0
    7.9634  -15.3212   23.6277 N   0  0  0  0  0  0  0  0  0  0  0  0
    9.0465  -15.4219   25.8169 C   0  0  0  0  0  0  0  0  0  0  0  0
    9.4183  -16.6054   25.5137 O   0  0  0  0  0  0  0  0  0  0  0  0
   10.9919  -13.5847   29.0858 C   0  0  0  0  0  0  0  0  0  0  0  0
   10.6282  -15.0329   29.2219 C   0  0  2  0  0  0  0  0  0  0  0  0
   11.6497  -15.7897   30.0310 C   0  0  0  0  0  0  0  0  0  0  0  0
   10.4214  -15.7005   27.8694 C   0  0  2  0  0  0  0  0  0  0  0  0
    9.5025  -14.9269   27.0586 N   0  0  0  0  0  0  0  0  0  0  0  0
    9.8558  -17.0309   28.1498 C   0  0  0  0  0  0  0  0  0  0  0  0
   10.6419  -18.1279   28.3998 O   0  0  0  0  0  0  0  0  0  0  0  0
    8.6056  -17.1947   28.1660 O   0  0  0  0  0  0  0  0  0  0  0  0
  2  3  1  0
  2  1  1  6
  4  3  1  0
  4  5  1  0
  6  5  1  0
  6  7  1  0
  8  2  1  0
  9  8  2  0
 11 10  1  1
 11 13  1  0
 12 11  1  0
 14 13  1  1
 14 15  1  0
 15  8  1  0
 16 14  1  0
 16 17  2  0
 19 18  1  6
 19 21  1  0
 20 19  1  0
 21 22  1  6
 22 16  1  0
 23 21  1  0
 24 23  1  0
 25 23  2  0
M  END
$$$$
