KLV.pdb
     RDKit          3D

 25 24  0  0  1  0  0  0  0  0999 V2000
    9.1973  -15.4700   20.4013 N   0  0  0  0  0  0  0  0  0  0  0  0
    8.9735  -16.3941   21.4927 C   0  0  1  0  0  0  0  0  0  0  0  0
    9.9335  -17.5763   21.3224 C   0  0  0  0  0  0  0  0  0  0  0  0
    9.1029  -18.8152   21.3315 C   0  0  0  0  0  0  0  0  0  0  0  0
    9.8986  -20.0867   21.2671 C   0  0  0  0  0  0  0  0  0  0  0  0
    9.0726  -21.3236   21.3895 C   0  0  0  0  0  0  0  0  0  0  0  0
    9.9596  -22.4764   21.5207 N   0  0  0  0  0  0  0  0  0  0  0  0
    9.2414  -15.6807   22.7602 C   0  0  0  0  0  0  0  0  0  0  0  0
   10.3369  -15.0831   22.9789 O   0  0  0  0  0  0  0  0  0  0  0  0
    7.5615  -12.1203   25.1730 C   0  0  0  0  0  0  0  0  0  0  0  0
    6.5544  -13.2740   25.0443 C   0  0  2  0  0  0  0  0  0  0  0  0
    5.2967  -12.7992   25.7007 C   0  0  0  0  0  0  0  0  0  0  0  0
    7.1994  -14.4649   25.6510 C   0  0  0  0  0  0  0  0  0  0  0  0
    8.4800  -14.9141   25.0334 C   0  0  2  0  0  0  0  0  0  0  0  0
    8.2797  -15.6345   23.7902 N   0  0  0  0  0  0  0  0  0  0  0  0
    9.3317  -15.6454   25.9968 C   0  0  0  0  0  0  0  0  0  0  0  0
    9.5844  -16.8852   25.8234 O   0  0  0  0  0  0  0  0  0  0  0  0
   10.1483  -14.6586   30.0971 C   0  0  0  0  0  0  0  0  0  0  0  0
   11.2802  -14.9429   29.1558 C   0  0  2  0  0  0  0  0  0  0  0  0
   11.9414  -13.6747   28.6811 C   0  0  0  0  0  0  0  0  0  0  0  0
   10.8389  -15.7880   27.9688 C   0  0  2  0  0  0  0  0  0  0  0  0
    9.9105  -15.0476   27.1380 N   0  0  0  0  0  0  0  0  0  0  0  0
   10.1788  -16.9771   28.5336 C   0  0  0  0  0  0  0  0  0  0  0  0
   10.8788  -17.9902   29.1398 O   0  0  0  0  0  0  0  0  0  0  0  0
    8.9247  -17.0929   28.4700 O   0  0  0  0  0  0  0  0  0  0  0  0
  2  3  1  0
  2  1  1  6
  4  3  1  0
  4  5  1  0
  6  5  1  0
  6  7  1  0
  8  2  1  0
  9  8  2  0
 11 10  1  1
 11 13  1  0
 12 11  1  0
 14 13  1  1
 14 15  1  0
 15  8  1  0
 16 14  1  0
 16 17  2  0
 19 18  1  1
 19 21  1  0
 20 19  1  0
 21 22  1  6
 22 16  1  0
 23 21  1  0
 24 23  1  0
 25 23  2  0
M  END
$$$$
