KLV.pdb
     RDKit          3D

 25 24  0  0  1  0  0  0  0  0999 V2000
    9.1034  -14.9503   20.2125 N   0  0  0  0  0  0  0  0  0  0  0  0
    8.1970  -15.5812   21.1483 C   0  0  1  0  0  0  0  0  0  0  0  0
    8.2374  -17.0939   20.9068 C   0  0  0  0  0  0  0  0  0  0  0  0
    7.5948  -17.3400   19.5834 C   0  0  0  0  0  0  0  0  0  0  0  0
    6.6684  -18.5211   19.5622 C   0  0  0  0  0  0  0  0  0  0  0  0
    5.9708  -18.7191   18.2579 C   0  0  0  0  0  0  0  0  0  0  0  0
    5.0430  -19.8403   18.3804 N   0  0  0  0  0  0  0  0  0  0  0  0
    8.6524  -15.2575   22.5176 C   0  0  0  0  0  0  0  0  0  0  0  0
    9.8782  -15.2563   22.8377 O   0  0  0  0  0  0  0  0  0  0  0  0
    8.0931  -11.9420   25.8798 C   0  0  0  0  0  0  0  0  0  0  0  0
    6.8315  -12.6991   25.4360 C   0  0  2  0  0  0  0  0  0  0  0  0
    5.6875  -12.0468   26.1459 C   0  0  0  0  0  0  0  0  0  0  0  0
    7.0668  -14.1300   25.7517 C   0  0  0  0  0  0  0  0  0  0  0  0
    8.1004  -14.8292   24.9356 C   0  0  2  0  0  0  0  0  0  0  0  0
    7.7329  -14.9331   23.5360 N   0  0  0  0  0  0  0  0  0  0  0  0
    8.4901  -16.1263   25.5306 C   0  0  0  0  0  0  0  0  0  0  0  0
    7.6788  -17.1125   25.5171 O   0  0  0  0  0  0  0  0  0  0  0  0
   11.5788  -17.9707   24.5312 C   0  0  0  0  0  0  0  0  0  0  0  0
   11.5080  -18.0477   26.0268 C   0  0  2  0  0  0  0  0  0  0  0  0
   11.9376  -19.3996   26.5356 C   0  0  0  0  0  0  0  0  0  0  0  0
   10.1227  -17.6980   26.5529 C   0  0  2  0  0  0  0  0  0  0  0  0
    9.7449  -16.3630   26.1342 N   0  0  0  0  0  0  0  0  0  0  0  0
   10.2119  -17.7642   28.0212 C   0  0  0  0  0  0  0  0  0  0  0  0
   10.2211  -18.9538   28.7059 O   0  0  0  0  0  0  0  0  0  0  0  0
   10.2827  -16.7025   28.6980 O   0  0  0  0  0  0  0  0  0  0  0  0
  2  3  1  0
  2  1  1  6
  4  3  1  0
  4  5  1  0
  6  5  1  0
  6  7  1  0
  8  2  1  0
  9  8  2  0
 11 10  1  1
 11 13  1  0
 12 11  1  0
 14 13  1  1
 14 15  1  0
 15  8  1  0
 16 14  1  0
 16 17  2  0
 19 18  1  6
 19 21  1  0
 20 19  1  0
 21 22  1  1
 22 16  1  0
 23 21  1  0
 24 23  1  0
 25 23  2  0
M  END
$$$$
