KLV.pdb
     RDKit          3D

 25 24  0  0  1  0  0  0  0  0999 V2000
    9.5414  -15.7500   20.1895 N   0  0  0  0  0  0  0  0  0  0  0  0
    8.4751  -16.0011   21.1356 C   0  0  1  0  0  0  0  0  0  0  0  0
    8.3427  -17.5172   21.3151 C   0  0  0  0  0  0  0  0  0  0  0  0
    7.8928  -18.0721   20.0058 C   0  0  0  0  0  0  0  0  0  0  0  0
    7.6518  -19.5539   20.0186 C   0  0  0  0  0  0  0  0  0  0  0  0
    7.2887  -20.1189   18.6859 C   0  0  0  0  0  0  0  0  0  0  0  0
    7.0842  -21.5588   18.8199 N   0  0  0  0  0  0  0  0  0  0  0  0
    8.8344  -15.3521   22.4150 C   0  0  0  0  0  0  0  0  0  0  0  0
   10.0280  -15.3099   22.8377 O   0  0  0  0  0  0  0  0  0  0  0  0
    5.8490  -12.2451   26.8694 C   0  0  0  0  0  0  0  0  0  0  0  0
    7.1952  -12.8693   26.4696 C   0  0  2  0  0  0  0  0  0  0  0  0
    8.2181  -11.7918   26.6447 C   0  0  0  0  0  0  0  0  0  0  0  0
    7.0240  -13.3907   25.0907 C   0  0  0  0  0  0  0  0  0  0  0  0
    8.1270  -14.2424   24.5605 C   0  0  2  0  0  0  0  0  0  0  0  0
    7.8544  -14.7461   23.2276 N   0  0  0  0  0  0  0  0  0  0  0  0
    8.5122  -15.3053   25.5146 C   0  0  0  0  0  0  0  0  0  0  0  0
    7.6820  -16.2239   25.8273 O   0  0  0  0  0  0  0  0  0  0  0  0
   11.6803  -17.3406   25.0254 C   0  0  0  0  0  0  0  0  0  0  0  0
   11.5802  -16.9951   26.4810 C   0  0  2  0  0  0  0  0  0  0  0  0
   12.0423  -18.1316   27.3560 C   0  0  0  0  0  0  0  0  0  0  0  0
   10.1735  -16.5626   26.8710 C   0  0  2  0  0  0  0  0  0  0  0  0
    9.7826  -15.3821   26.1269 N   0  0  0  0  0  0  0  0  0  0  0  0
   10.2203  -16.2630   28.3120 C   0  0  0  0  0  0  0  0  0  0  0  0
   10.2161  -17.2465   29.2695 O   0  0  0  0  0  0  0  0  0  0  0  0
   10.2657  -15.0663   28.7069 O   0  0  0  0  0  0  0  0  0  0  0  0
  2  3  1  0
  2  1  1  6
  4  3  1  0
  4  5  1  0
  6  5  1  0
  6  7  1  0
  8  2  1  0
  9  8  2  0
 11 10  1  6
 11 13  1  0
 12 11  1  0
 14 13  1  1
 14 15  1  0
 15  8  1  0
 16 14  1  0
 16 17  2  0
 19 18  1  6
 19 21  1  0
 20 19  1  0
 21 22  1  6
 22 16  1  0
 23 21  1  0
 24 23  1  0
 25 23  2  0
M  END
$$$$
