KLV.pdb
     RDKit          3D

 25 24  0  0  1  0  0  0  0  0999 V2000
   10.9148  -18.0582   17.2363 N   0  0  0  0  0  0  0  0  0  0  0  0
    9.6695  -18.0046   17.9721 C   0  0  1  0  0  0  0  0  0  0  0  0
    9.3811  -19.4039   18.5261 C   0  0  0  0  0  0  0  0  0  0  0  0
    7.9177  -19.6425   18.3637 C   0  0  0  0  0  0  0  0  0  0  0  0
    7.4550  -20.9786   18.8683 C   0  0  0  0  0  0  0  0  0  0  0  0
    6.0151  -21.2617   18.5971 C   0  0  0  0  0  0  0  0  0  0  0  0
    5.7118  -22.6272   19.0170 N   0  0  0  0  0  0  0  0  0  0  0  0
    9.8279  -17.0287   19.0720 C   0  0  0  0  0  0  0  0  0  0  0  0
   10.9647  -16.7086   19.5306 O   0  0  0  0  0  0  0  0  0  0  0  0
    8.9716  -12.5574   19.4875 C   0  0  0  0  0  0  0  0  0  0  0  0
    7.7332  -13.4547   19.3356 C   0  0  2  0  0  0  0  0  0  0  0  0
    6.5686  -12.5284   19.1814 C   0  0  0  0  0  0  0  0  0  0  0  0
    7.7093  -14.3432   20.5240 C   0  0  0  0  0  0  0  0  0  0  0  0
    8.8176  -15.3344   20.6351 C   0  0  2  0  0  0  0  0  0  0  0  0
    8.7096  -16.4064   19.6636 N   0  0  0  0  0  0  0  0  0  0  0  0
    8.9856  -15.8227   22.0214 C   0  0  0  0  0  0  0  0  0  0  0  0
    9.0181  -14.9988   22.9965 O   0  0  0  0  0  0  0  0  0  0  0  0
   11.6463  -16.4101   23.4315 C   0  0  0  0  0  0  0  0  0  0  0  0
   10.4540  -16.6153   24.3170 C   0  0  2  0  0  0  0  0  0  0  0  0
   10.8565  -17.0690   25.6965 C   0  0  0  0  0  0  0  0  0  0  0  0
    9.4509  -17.5868   23.7102 C   0  0  2  0  0  0  0  0  0  0  0  0
    9.1153  -17.1883   22.3579 N   0  0  0  0  0  0  0  0  0  0  0  0
    8.2552  -17.5321   24.5680 C   0  0  0  0  0  0  0  0  0  0  0  0
    8.1899  -18.1686   25.7823 O   0  0  0  0  0  0  0  0  0  0  0  0
    7.2400  -16.8836   24.1952 O   0  0  0  0  0  0  0  0  0  0  0  0
  2  3  1  0
  2  1  1  1
  4  3  1  0
  4  5  1  0
  6  5  1  0
  6  7  1  0
  8  2  1  0
  9  8  2  0
 11 10  1  1
 11 13  1  0
 12 11  1  0
 14 13  1  1
 14 15  1  0
 15  8  1  0
 16 14  1  0
 16 17  2  0
 19 18  1  6
 19 21  1  0
 20 19  1  0
 21 22  1  6
 22 16  1  0
 23 21  1  0
 24 23  1  0
 25 23  2  0
M  END
$$$$
