KLV.pdb
     RDKit          3D

 25 24  0  0  1  0  0  0  0  0999 V2000
    7.4349  -16.2531   21.3244 N   0  0  0  0  0  0  0  0  0  0  0  0
    8.5767  -15.3753   21.1801 C   0  0  1  0  0  0  0  0  0  0  0  0
    8.1484  -14.1682   20.3388 C   0  0  0  0  0  0  0  0  0  0  0  0
    7.8449  -14.6781   18.9703 C   0  0  0  0  0  0  0  0  0  0  0  0
    8.1726  -13.7112   17.8696 C   0  0  0  0  0  0  0  0  0  0  0  0
    7.8055  -14.1985   16.5076 C   0  0  0  0  0  0  0  0  0  0  0  0
    8.3305  -13.2677   15.5122 N   0  0  0  0  0  0  0  0  0  0  0  0
    9.0005  -14.9477   22.5310 C   0  0  0  0  0  0  0  0  0  0  0  0
   10.0995  -14.3516   22.7356 O   0  0  0  0  0  0  0  0  0  0  0  0
    7.4659  -11.9132   25.5109 C   0  0  0  0  0  0  0  0  0  0  0  0
    6.4816  -13.0803   25.3348 C   0  0  2  0  0  0  0  0  0  0  0  0
    5.2813  -12.7359   26.1586 C   0  0  0  0  0  0  0  0  0  0  0  0
    7.2133  -14.3103   25.7273 C   0  0  0  0  0  0  0  0  0  0  0  0
    8.4589  -14.6141   24.9662 C   0  0  2  0  0  0  0  0  0  0  0  0
    8.1916  -15.1876   23.6607 N   0  0  0  0  0  0  0  0  0  0  0  0
    9.4144  -15.4119   25.7655 C   0  0  0  0  0  0  0  0  0  0  0  0
    9.8337  -16.5385   25.3344 O   0  0  0  0  0  0  0  0  0  0  0  0
   10.0536  -15.3624   30.0327 C   0  0  0  0  0  0  0  0  0  0  0  0
   11.2038  -15.2017   29.0844 C   0  0  2  0  0  0  0  0  0  0  0  0
   11.6157  -13.7585   28.9484 C   0  0  0  0  0  0  0  0  0  0  0  0
   10.9055  -15.7999   27.7165 C   0  0  2  0  0  0  0  0  0  0  0  0
    9.9183  -15.0005   27.0191 N   0  0  0  0  0  0  0  0  0  0  0  0
   10.3804  -17.1530   27.9653 C   0  0  0  0  0  0  0  0  0  0  0  0
   11.1903  -18.2053   28.3127 O   0  0  0  0  0  0  0  0  0  0  0  0
    9.1442  -17.3794   27.8612 O   0  0  0  0  0  0  0  0  0  0  0  0
  2  3  1  0
  2  1  1  1
  4  3  1  0
  4  5  1  0
  6  5  1  0
  6  7  1  0
  8  2  1  0
  9  8  2  0
 11 10  1  1
 11 13  1  0
 12 11  1  0
 14 13  1  1
 14 15  1  0
 15  8  1  0
 16 14  1  0
 16 17  2  0
 19 18  1  1
 19 21  1  0
 20 19  1  0
 21 22  1  1
 22 16  1  0
 23 21  1  0
 24 23  1  0
 25 23  2  0
M  END
$$$$
