KLV.pdb
     RDKit          3D

 25 24  0  0  1  0  0  0  0  0999 V2000
    7.7410  -18.0313   22.4876 N   0  0  0  0  0  0  0  0  0  0  0  0
    9.0631  -17.5380   22.1656 C   0  0  1  0  0  0  0  0  0  0  0  0
    9.1172  -17.2643   20.6588 C   0  0  0  0  0  0  0  0  0  0  0  0
    8.8600  -18.5630   19.9718 C   0  0  0  0  0  0  0  0  0  0  0  0
    9.4837  -18.6700   18.6104 C   0  0  0  0  0  0  0  0  0  0  0  0
    9.0380  -19.8636   17.8333 C   0  0  0  0  0  0  0  0  0  0  0  0
    9.7796  -19.9165   16.5762 N   0  0  0  0  0  0  0  0  0  0  0  0
    9.2878  -16.2932   22.9319 C   0  0  0  0  0  0  0  0  0  0  0  0
   10.3483  -15.6104   22.8129 O   0  0  0  0  0  0  0  0  0  0  0  0
    5.8894  -12.6730   26.6240 C   0  0  0  0  0  0  0  0  0  0  0  0
    7.2589  -12.8243   25.9431 C   0  0  2  0  0  0  0  0  0  0  0  0
    7.4895  -11.5511   25.1922 C   0  0  0  0  0  0  0  0  0  0  0  0
    7.1882  -14.0616   25.1267 C   0  0  0  0  0  0  0  0  0  0  0  0
    8.4782  -14.5713   24.5795 C   0  0  2  0  0  0  0  0  0  0  0  0
    8.3219  -15.8080   23.8372 N   0  0  0  0  0  0  0  0  0  0  0  0
    9.5279  -14.6476   25.6189 C   0  0  0  0  0  0  0  0  0  0  0  0
   10.2802  -13.6421   25.8516 O   0  0  0  0  0  0  0  0  0  0  0  0
    9.5216  -15.0742   29.2290 C   0  0  0  0  0  0  0  0  0  0  0  0
   10.7624  -14.8431   28.4197 C   0  0  2  0  0  0  0  0  0  0  0  0
   10.8167  -13.4402   27.8722 C   0  0  0  0  0  0  0  0  0  0  0  0
   10.9090  -15.8583   27.2945 C   0  0  2  0  0  0  0  0  0  0  0  0
    9.7663  -15.7963   26.4053 N   0  0  0  0  0  0  0  0  0  0  0  0
   10.9798  -17.1800   27.9400 C   0  0  0  0  0  0  0  0  0  0  0  0
   11.9857  -17.5227   28.8087 O   0  0  0  0  0  0  0  0  0  0  0  0
   10.0957  -18.0471   27.7017 O   0  0  0  0  0  0  0  0  0  0  0  0
  2  3  1  0
  2  1  1  6
  4  3  1  0
  4  5  1  0
  6  5  1  0
  6  7  1  0
  8  2  1  0
  9  8  2  0
 11 10  1  6
 11 13  1  0
 12 11  1  0
 14 13  1  1
 14 15  1  0
 15  8  1  0
 16 14  1  0
 16 17  2  0
 19 18  1  6
 19 21  1  0
 20 19  1  0
 21 22  1  6
 22 16  1  0
 23 21  1  0
 24 23  1  0
 25 23  2  0
M  END
$$$$
