KLV.pdb
     RDKit          3D

 25 24  0  0  1  0  0  0  0  0999 V2000
    6.9694  -15.3865   20.5380 N   0  0  0  0  0  0  0  0  0  0  0  0
    8.2782  -14.7684   20.5241 C   0  0  1  0  0  0  0  0  0  0  0  0
    8.1940  -13.4898   19.6837 C   0  0  0  0  0  0  0  0  0  0  0  0
    7.7901  -13.9000   18.3077 C   0  0  0  0  0  0  0  0  0  0  0  0
    8.3834  -13.0553   17.2176 C   0  0  0  0  0  0  0  0  0  0  0  0
    7.8651  -13.3750   15.8552 C   0  0  0  0  0  0  0  0  0  0  0  0
    8.8385  -14.2138   15.1610 N   0  0  0  0  0  0  0  0  0  0  0  0
    8.6520  -14.4536   21.9200 C   0  0  0  0  0  0  0  0  0  0  0  0
    9.8321  -14.1261   22.2443 O   0  0  0  0  0  0  0  0  0  0  0  0
    6.1156  -12.6362   27.1491 C   0  0  0  0  0  0  0  0  0  0  0  0
    7.3682  -13.2963   26.5515 C   0  0  2  0  0  0  0  0  0  0  0  0
    8.5093  -12.3843   26.8745 C   0  0  0  0  0  0  0  0  0  0  0  0
    7.0861  -13.5055   25.1097 C   0  0  0  0  0  0  0  0  0  0  0  0
    8.0487  -14.3642   24.3619 C   0  0  2  0  0  0  0  0  0  0  0  0
    7.7017  -14.5049   22.9603 N   0  0  0  0  0  0  0  0  0  0  0  0
    8.2725  -15.6612   25.0370 C   0  0  0  0  0  0  0  0  0  0  0  0
    7.2893  -16.4370   25.2868 O   0  0  0  0  0  0  0  0  0  0  0  0
   12.0903  -17.5091   25.1920 C   0  0  0  0  0  0  0  0  0  0  0  0
   10.7702  -18.2199   25.1916 C   0  0  2  0  0  0  0  0  0  0  0  0
   10.2884  -18.4986   23.7912 C   0  0  0  0  0  0  0  0  0  0  0  0
    9.7103  -17.4589   25.9761 C   0  0  2  0  0  0  0  0  0  0  0  0
    9.5453  -16.1230   25.4390 N   0  0  0  0  0  0  0  0  0  0  0  0
   10.1957  -17.3921   27.3648 C   0  0  0  0  0  0  0  0  0  0  0  0
   10.2047  -18.4848   28.1955 O   0  0  0  0  0  0  0  0  0  0  0  0
   10.6235  -16.3019   27.8323 O   0  0  0  0  0  0  0  0  0  0  0  0
  2  3  1  0
  2  1  1  1
  4  3  1  0
  4  5  1  0
  6  5  1  0
  6  7  1  0
  8  2  1  0
  9  8  2  0
 11 10  1  1
 11 13  1  0
 12 11  1  0
 14 13  1  1
 14 15  1  0
 15  8  1  0
 16 14  1  0
 16 17  2  0
 19 18  1  6
 19 21  1  0
 20 19  1  0
 21 22  1  6
 22 16  1  0
 23 21  1  0
 24 23  1  0
 25 23  2  0
M  END
$$$$
