KLV.pdb
     RDKit          3D

 25 24  0  0  1  0  0  0  0  0999 V2000
    7.9328  -17.5958   21.5506 N   0  0  0  0  0  0  0  0  0  0  0  0
    9.2769  -17.0666   21.4577 C   0  0  1  0  0  0  0  0  0  0  0  0
    9.3939  -16.2872   20.1435 C   0  0  0  0  0  0  0  0  0  0  0  0
    9.2877  -17.2821   19.0373 C   0  0  0  0  0  0  0  0  0  0  0  0
   10.1013  -16.9378   17.8235 C   0  0  0  0  0  0  0  0  0  0  0  0
    9.7775  -17.7649   16.6242 C   0  0  0  0  0  0  0  0  0  0  0  0
   10.7702  -17.5045   15.5851 N   0  0  0  0  0  0  0  0  0  0  0  0
    9.5003  -16.1752   22.6165 C   0  0  0  0  0  0  0  0  0  0  0  0
   10.5765  -15.5243   22.7687 O   0  0  0  0  0  0  0  0  0  0  0  0
    7.7745  -12.3395   24.7000 C   0  0  0  0  0  0  0  0  0  0  0  0
    6.7337  -13.4684   24.6342 C   0  0  2  0  0  0  0  0  0  0  0  0
    5.4988  -12.9297   25.2845 C   0  0  0  0  0  0  0  0  0  0  0  0
    7.3531  -14.6499   25.2843 C   0  0  0  0  0  0  0  0  0  0  0  0
    8.6629  -15.1013   24.7331 C   0  0  2  0  0  0  0  0  0  0  0  0
    8.5153  -16.0097   23.6117 N   0  0  0  0  0  0  0  0  0  0  0  0
    9.5565  -15.6244   25.7896 C   0  0  0  0  0  0  0  0  0  0  0  0
   10.0126  -16.8151   25.7180 O   0  0  0  0  0  0  0  0  0  0  0  0
   10.7952  -13.2164   29.0495 C   0  0  0  0  0  0  0  0  0  0  0  0
   10.6895  -14.7001   29.2377 C   0  0  2  0  0  0  0  0  0  0  0  0
   11.6950  -15.2074   30.2390 C   0  0  0  0  0  0  0  0  0  0  0  0
   10.8230  -15.4548   27.9222 C   0  0  2  0  0  0  0  0  0  0  0  0
    9.9596  -14.8718   26.9147 N   0  0  0  0  0  0  0  0  0  0  0  0
   10.4147  -16.8419   28.2008 C   0  0  0  0  0  0  0  0  0  0  0  0
    9.0990  -17.2107   28.3309 O   0  0  0  0  0  0  0  0  0  0  0  0
   11.2874  -17.7431   28.3297 O   0  0  0  0  0  0  0  0  0  0  0  0
  2  3  1  0
  2  1  1  1
  4  3  1  0
  4  5  1  0
  6  5  1  0
  6  7  1  0
  8  2  1  0
  9  8  2  0
 11 10  1  1
 11 13  1  0
 12 11  1  0
 14 13  1  1
 14 15  1  0
 15  8  1  0
 16 14  1  0
 16 17  2  0
 19 18  1  6
 19 21  1  0
 20 19  1  0
 21 22  1  6
 22 16  1  0
 23 21  1  0
 24 23  1  0
 25 23  2  0
M  END
$$$$
