KLV.pdb
     RDKit          3D

 25 24  0  0  1  0  0  0  0  0999 V2000
    6.7584  -15.0899   20.9293 N   0  0  0  0  0  0  0  0  0  0  0  0
    8.1185  -14.5957   20.8982 C   0  0  1  0  0  0  0  0  0  0  0  0
    8.1083  -13.2088   20.2466 C   0  0  0  0  0  0  0  0  0  0  0  0
    7.5182  -13.3720   18.8865 C   0  0  0  0  0  0  0  0  0  0  0  0
    8.5341  -13.4724   17.7858 C   0  0  0  0  0  0  0  0  0  0  0  0
    7.9395  -13.5473   16.4190 C   0  0  0  0  0  0  0  0  0  0  0  0
    9.0153  -13.5393   15.4314 N   0  0  0  0  0  0  0  0  0  0  0  0
    8.6098  -14.5159   22.2908 C   0  0  0  0  0  0  0  0  0  0  0  0
    9.8115  -14.2239   22.5661 O   0  0  0  0  0  0  0  0  0  0  0  0
    8.1999  -12.1496   26.1926 C   0  0  0  0  0  0  0  0  0  0  0  0
    6.9462  -12.8630   25.6624 C   0  0  2  0  0  0  0  0  0  0  0  0
    5.8069  -12.3710   26.4979 C   0  0  0  0  0  0  0  0  0  0  0  0
    7.2287  -14.3181   25.7334 C   0  0  0  0  0  0  0  0  0  0  0  0
    8.2189  -14.8514   24.7545 C   0  0  2  0  0  0  0  0  0  0  0  0
    7.7535  -14.7640   23.3832 N   0  0  0  0  0  0  0  0  0  0  0  0
    8.6863  -16.2056   25.1231 C   0  0  0  0  0  0  0  0  0  0  0  0
    7.8559  -17.1710   25.2201 O   0  0  0  0  0  0  0  0  0  0  0  0
   11.9525  -17.7739   23.6074 C   0  0  0  0  0  0  0  0  0  0  0  0
   11.8480  -18.1272   25.0607 C   0  0  2  0  0  0  0  0  0  0  0  0
   12.2842  -19.5458   25.3216 C   0  0  0  0  0  0  0  0  0  0  0  0
   10.4462  -17.8937   25.6070 C   0  0  2  0  0  0  0  0  0  0  0  0
   10.0382  -16.5212   25.3833 N   0  0  0  0  0  0  0  0  0  0  0  0
   10.5156  -18.1747   27.0508 C   0  0  0  0  0  0  0  0  0  0  0  0
   10.4700  -17.1819   27.9976 O   0  0  0  0  0  0  0  0  0  0  0  0
   10.6218  -19.3633   27.4583 O   0  0  0  0  0  0  0  0  0  0  0  0
  2  3  1  0
  2  1  1  1
  4  3  1  0
  4  5  1  0
  6  5  1  0
  6  7  1  0
  8  2  1  0
  9  8  2  0
 11 10  1  1
 11 13  1  0
 12 11  1  0
 14 13  1  1
 14 15  1  0
 15  8  1  0
 16 14  1  0
 16 17  2  0
 19 18  1  6
 19 21  1  0
 20 19  1  0
 21 22  1  1
 22 16  1  0
 23 21  1  0
 24 23  1  0
 25 23  2  0
M  END
$$$$
