KLV.pdb
     RDKit          3D

 25 24  0  0  1  0  0  0  0  0999 V2000
    8.5329  -15.6574   19.7279 N   0  0  0  0  0  0  0  0  0  0  0  0
    7.5406  -15.7569   20.7771 C   0  0  1  0  0  0  0  0  0  0  0  0
    7.0975  -17.2204   20.8785 C   0  0  0  0  0  0  0  0  0  0  0  0
    6.2644  -17.5065   19.6748 C   0  0  0  0  0  0  0  0  0  0  0  0
    6.5496  -18.8337   19.0337 C   0  0  0  0  0  0  0  0  0  0  0  0
    5.6712  -19.1430   17.8675 C   0  0  0  0  0  0  0  0  0  0  0  0
    6.2046  -20.3078   17.1664 N   0  0  0  0  0  0  0  0  0  0  0  0
    8.1635  -15.3099   22.0417 C   0  0  0  0  0  0  0  0  0  0  0  0
    9.3996  -15.4607   22.2746 O   0  0  0  0  0  0  0  0  0  0  0  0
    6.2971  -12.3599   27.1605 C   0  0  0  0  0  0  0  0  0  0  0  0
    7.4673  -13.1188   26.5151 C   0  0  2  0  0  0  0  0  0  0  0  0
    8.6621  -12.2292   26.6525 C   0  0  0  0  0  0  0  0  0  0  0  0
    7.0467  -13.4398   25.1286 C   0  0  0  0  0  0  0  0  0  0  0  0
    7.9335  -14.3609   24.3615 C   0  0  2  0  0  0  0  0  0  0  0  0
    7.4008  -14.6904   23.0529 N   0  0  0  0  0  0  0  0  0  0  0  0
    8.3082  -15.5536   25.1523 C   0  0  0  0  0  0  0  0  0  0  0  0
    7.4133  -16.3780   25.5403 O   0  0  0  0  0  0  0  0  0  0  0  0
   10.9457  -17.8966   23.7703 C   0  0  0  0  0  0  0  0  0  0  0  0
   11.2151  -17.6991   25.2319 C   0  0  2  0  0  0  0  0  0  0  0  0
   11.7368  -18.9573   25.8768 C   0  0  0  0  0  0  0  0  0  0  0  0
    9.9883  -17.1903   25.9763 C   0  0  2  0  0  0  0  0  0  0  0  0
    9.6365  -15.8600   25.5217 N   0  0  0  0  0  0  0  0  0  0  0  0
   10.3560  -17.1597   27.4019 C   0  0  0  0  0  0  0  0  0  0  0  0
   10.2136  -18.2503   28.2231 O   0  0  0  0  0  0  0  0  0  0  0  0
   10.8205  -16.1039   27.9116 O   0  0  0  0  0  0  0  0  0  0  0  0
  2  3  1  0
  2  1  1  6
  4  3  1  0
  4  5  1  0
  6  5  1  0
  6  7  1  0
  8  2  1  0
  9  8  2  0
 11 10  1  6
 11 13  1  0
 12 11  1  0
 14 13  1  1
 14 15  1  0
 15  8  1  0
 16 14  1  0
 16 17  2  0
 19 18  1  6
 19 21  1  0
 20 19  1  0
 21 22  1  6
 22 16  1  0
 23 21  1  0
 24 23  1  0
 25 23  2  0
M  END
$$$$
