KLV.pdb
     RDKit          3D

 25 24  0  0  1  0  0  0  0  0999 V2000
    7.4230  -16.5953   22.0638 N   0  0  0  0  0  0  0  0  0  0  0  0
    8.8588  -16.4686   22.1966 C   0  0  1  0  0  0  0  0  0  0  0  0
    9.3755  -15.6326   21.0209 C   0  0  0  0  0  0  0  0  0  0  0  0
    9.0355  -16.3783   19.7747 C   0  0  0  0  0  0  0  0  0  0  0  0
   10.0440  -16.2233   18.6735 C   0  0  0  0  0  0  0  0  0  0  0  0
    9.6928  -16.9600   17.4240 C   0  0  0  0  0  0  0  0  0  0  0  0
   10.6027  -16.5490   16.3582 N   0  0  0  0  0  0  0  0  0  0  0  0
    9.1432  -15.7956   23.4824 C   0  0  0  0  0  0  0  0  0  0  0  0
   10.3243  -15.5389   23.8622 O   0  0  0  0  0  0  0  0  0  0  0  0
    8.1321  -11.8555   25.4237 C   0  0  0  0  0  0  0  0  0  0  0  0
    6.9388  -12.8140   25.2857 C   0  0  2  0  0  0  0  0  0  0  0  0
    5.7259  -12.0187   25.6523 C   0  0  0  0  0  0  0  0  0  0  0  0
    7.2381  -13.9849   26.1470 C   0  0  0  0  0  0  0  0  0  0  0  0
    8.3310  -14.8877   25.6849 C   0  0  2  0  0  0  0  0  0  0  0  0
    8.1018  -15.4066   24.3497 N   0  0  0  0  0  0  0  0  0  0  0  0
    8.6298  -15.9456   26.6748 C   0  0  0  0  0  0  0  0  0  0  0  0
    8.8654  -15.6421   27.8927 O   0  0  0  0  0  0  0  0  0  0  0  0
    6.8046  -19.5038   26.8638 C   0  0  0  0  0  0  0  0  0  0  0  0
    8.2884  -19.6354   27.0342 C   0  0  2  0  0  0  0  0  0  0  0  0
    8.6404  -20.6828   28.0590 C   0  0  0  0  0  0  0  0  0  0  0  0
    8.9441  -18.3071   27.3857 C   0  0  2  0  0  0  0  0  0  0  0  0
    8.6726  -17.3215   26.3586 N   0  0  0  0  0  0  0  0  0  0  0  0
   10.3905  -18.5715   27.4670 C   0  0  0  0  0  0  0  0  0  0  0  0
   11.0109  -18.9204   28.6406 O   0  0  0  0  0  0  0  0  0  0  0  0
   11.1080  -18.4800   26.4340 O   0  0  0  0  0  0  0  0  0  0  0  0
  2  3  1  0
  2  1  1  6
  4  3  1  0
  4  5  1  0
  6  5  1  0
  6  7  1  0
  8  2  1  0
  9  8  2  0
 11 10  1  1
 11 13  1  0
 12 11  1  0
 14 13  1  1
 14 15  1  0
 15  8  1  0
 16 14  1  0
 16 17  2  0
 19 18  1  1
 19 21  1  0
 20 19  1  0
 21 22  1  6
 22 16  1  0
 23 21  1  0
 24 23  1  0
 25 23  2  0
M  END
$$$$
