KLV.pdb
     RDKit          3D

 25 24  0  0  1  0  0  0  0  0999 V2000
    7.1377  -16.7634   22.1984 N   0  0  0  0  0  0  0  0  0  0  0  0
    8.5437  -16.4278   22.1234 C   0  0  1  0  0  0  0  0  0  0  0  0
    8.7560  -15.5292   20.9004 C   0  0  0  0  0  0  0  0  0  0  0  0
    8.2390  -16.2762   19.7174 C   0  0  0  0  0  0  0  0  0  0  0  0
    8.8873  -15.8918   18.4189 C   0  0  0  0  0  0  0  0  0  0  0  0
    8.4485  -16.7182   17.2562 C   0  0  0  0  0  0  0  0  0  0  0  0
    8.9417  -16.1064   16.0252 N   0  0  0  0  0  0  0  0  0  0  0  0
    8.9126  -15.7160   23.3662 C   0  0  0  0  0  0  0  0  0  0  0  0
   10.0929  -15.3121   23.5867 O   0  0  0  0  0  0  0  0  0  0  0  0
    7.6858  -11.9298   25.1557 C   0  0  0  0  0  0  0  0  0  0  0  0
    6.5918  -12.9949   25.3308 C   0  0  2  0  0  0  0  0  0  0  0  0
    5.3937  -12.2728   25.8610 C   0  0  0  0  0  0  0  0  0  0  0  0
    7.1642  -14.0452   26.2092 C   0  0  0  0  0  0  0  0  0  0  0  0
    8.2885  -14.8446   25.6435 C   0  0  2  0  0  0  0  0  0  0  0  0
    7.9570  -15.4536   24.3691 N   0  0  0  0  0  0  0  0  0  0  0  0
    8.8285  -15.8108   26.6249 C   0  0  0  0  0  0  0  0  0  0  0  0
    9.1036  -15.4369   27.8146 O   0  0  0  0  0  0  0  0  0  0  0  0
    8.7094  -20.0286   26.0522 C   0  0  0  0  0  0  0  0  0  0  0  0
    8.7590  -19.3493   27.3879 C   0  0  2  0  0  0  0  0  0  0  0  0
    7.3778  -19.0724   27.9232 C   0  0  0  0  0  0  0  0  0  0  0  0
    9.5798  -18.0677   27.3481 C   0  0  2  0  0  0  0  0  0  0  0  0
    9.0688  -17.1711   26.3306 N   0  0  0  0  0  0  0  0  0  0  0  0
   10.9581  -18.4722   27.0236 C   0  0  0  0  0  0  0  0  0  0  0  0
   11.5673  -18.1306   25.8420 O   0  0  0  0  0  0  0  0  0  0  0  0
   11.6244  -19.1589   27.8450 O   0  0  0  0  0  0  0  0  0  0  0  0
  2  3  1  0
  2  1  1  1
  4  3  1  0
  4  5  1  0
  6  5  1  0
  6  7  1  0
  8  2  1  0
  9  8  2  0
 11 10  1  1
 11 13  1  0
 12 11  1  0
 14 13  1  1
 14 15  1  0
 15  8  1  0
 16 14  1  0
 16 17  2  0
 19 18  1  6
 19 21  1  0
 20 19  1  0
 21 22  1  6
 22 16  1  0
 23 21  1  0
 24 23  1  0
 25 23  2  0
M  END
$$$$
