KLV.pdb
     RDKit          3D

 25 24  0  0  1  0  0  0  0  0999 V2000
    9.7047  -15.8013   19.8906 N   0  0  0  0  0  0  0  0  0  0  0  0
    8.5119  -15.9316   20.7002 C   0  0  1  0  0  0  0  0  0  0  0  0
    8.1151  -17.4114   20.7319 C   0  0  0  0  0  0  0  0  0  0  0  0
    7.7401  -17.7907   19.3390 C   0  0  0  0  0  0  0  0  0  0  0  0
    7.2266  -19.1949   19.2036 C   0  0  0  0  0  0  0  0  0  0  0  0
    6.7466  -19.5335   17.8317 C   0  0  0  0  0  0  0  0  0  0  0  0
    6.4254  -20.9572   17.7783 N   0  0  0  0  0  0  0  0  0  0  0  0
    8.8254  -15.4445   22.0609 C   0  0  0  0  0  0  0  0  0  0  0  0
    9.9857  -15.5403   22.5605 O   0  0  0  0  0  0  0  0  0  0  0  0
    5.7823  -12.5326   26.6090 C   0  0  0  0  0  0  0  0  0  0  0  0
    7.1358  -13.1269   26.1885 C   0  0  2  0  0  0  0  0  0  0  0  0
    8.1460  -12.0442   26.4012 C   0  0  0  0  0  0  0  0  0  0  0  0
    6.9708  -13.6024   24.7924 C   0  0  0  0  0  0  0  0  0  0  0  0
    8.0658  -14.4546   24.2468 C   0  0  2  0  0  0  0  0  0  0  0  0
    7.8366  -14.8466   22.8689 N   0  0  0  0  0  0  0  0  0  0  0  0
    8.3688  -15.5997   25.1328 C   0  0  0  0  0  0  0  0  0  0  0  0
    7.4835  -16.4915   25.3607 O   0  0  0  0  0  0  0  0  0  0  0  0
   11.3627  -17.7177   24.2997 C   0  0  0  0  0  0  0  0  0  0  0  0
   11.3608  -17.4942   25.7823 C   0  0  2  0  0  0  0  0  0  0  0  0
   11.8620  -18.7038   26.5282 C   0  0  0  0  0  0  0  0  0  0  0  0
    9.9882  -17.0837   26.2974 C   0  0  2  0  0  0  0  0  0  0  0  0
    9.6163  -15.7869   25.7681 N   0  0  0  0  0  0  0  0  0  0  0  0
   10.1016  -17.0207   27.7642 C   0  0  0  0  0  0  0  0  0  0  0  0
   10.1128  -18.1452   28.5513 O   0  0  0  0  0  0  0  0  0  0  0  0
   10.1924  -15.9041   28.3430 O   0  0  0  0  0  0  0  0  0  0  0  0
  2  3  1  0
  2  1  1  6
  4  3  1  0
  4  5  1  0
  6  5  1  0
  6  7  1  0
  8  2  1  0
  9  8  2  0
 11 10  1  6
 11 13  1  0
 12 11  1  0
 14 13  1  1
 14 15  1  0
 15  8  1  0
 16 14  1  0
 16 17  2  0
 19 18  1  6
 19 21  1  0
 20 19  1  0
 21 22  1  6
 22 16  1  0
 23 21  1  0
 24 23  1  0
 25 23  2  0
M  END
$$$$
