LGE.pdb
     RDKit          3D

 22 21  0  0  1  0  0  0  0  0999 V2000
    9.0438  -12.0814   18.9860 C   0  0  0  0  0  0  0  0  0  0  0  0
    7.8734  -13.0241   19.1921 C   0  0  2  0  0  0  0  0  0  0  0  0
    6.5704  -12.2868   19.2540 C   0  0  0  0  0  0  0  0  0  0  0  0
    8.1093  -13.9494   20.3690 C   0  0  0  0  0  0  0  0  0  0  0  0
    9.5081  -14.4847   20.2068 C   0  0  2  0  0  0  0  0  0  0  0  0
    9.5598  -15.0772   18.8703 N   0  0  0  0  0  0  0  0  0  0  0  0
    9.8977  -15.4511   21.2349 C   0  0  0  0  0  0  0  0  0  0  0  0
    9.9379  -14.9869   22.4341 O   0  0  0  0  0  0  0  0  0  0  0  0
   10.2221  -16.7926   21.0558 N   0  0  0  0  0  0  0  0  0  0  0  0
   10.6262  -17.6218   22.1599 C   0  0  0  0  0  0  0  0  0  0  0  0
   12.0550  -17.5491   22.5016 C   0  0  0  0  0  0  0  0  0  0  0  0
   12.5434  -18.5704   23.1077 O   0  0  0  0  0  0  0  0  0  0  0  0
   12.9096  -16.4953   22.2301 N   0  0  0  0  0  0  0  0  0  0  0  0
   14.3336  -16.4612   22.6066 C   0  0  1  0  0  0  0  0  0  0  0  0
   14.9502  -15.4972   21.6035 C   0  0  0  0  0  0  0  0  0  0  0  0
   14.7214  -15.9198   20.1815 C   0  0  0  0  0  0  0  0  0  0  0  0
   15.4221  -14.9512   19.2919 C   0  0  0  0  0  0  0  0  0  0  0  0
   16.0598  -14.0050   19.8056 O   0  0  0  0  0  0  0  0  0  0  0  0
   14.5505  -16.1379   23.9929 C   0  0  0  0  0  0  0  0  0  0  0  0
   15.7008  -16.2450   24.5270 O   0  0  0  0  0  0  0  0  0  0  0  0
   15.4076  -15.0386   17.9092 O   0  0  0  0  0  0  0  0  0  0  0  0
   13.5263  -15.6979   24.8033 O   0  0  0  0  0  0  0  0  0  0  0  0
  2  1  1  1
  2  4  1  0
  2  3  1  0
  4  5  1  0
  5  6  1  6
  5  7  1  0
  7  8  2  0
  9  7  1  0
  9 10  1  0
 10 11  1  0
 11 13  1  0
 11 12  2  0
 13 14  1  0
 14 19  1  0
 14 15  1  6
 16 15  1  0
 17 16  1  0
 17 21  1  0
 18 17  2  0
 19 22  1  0
 20 19  2  0
M  END
$$$$
