LGE.pdb
     RDKit          3D

 22 21  0  0  1  0  0  0  0  0999 V2000
    7.5773  -12.9745   19.7212 C   0  0  0  0  0  0  0  0  0  0  0  0
    7.8635  -13.4934   21.1176 C   0  0  2  0  0  0  0  0  0  0  0  0
    7.8157  -12.3972   22.1381 C   0  0  0  0  0  0  0  0  0  0  0  0
    9.1412  -14.3076   21.1538 C   0  0  0  0  0  0  0  0  0  0  0  0
    8.8959  -15.5104   20.2804 C   0  0  2  0  0  0  0  0  0  0  0  0
    7.5936  -16.0413   20.6830 N   0  0  0  0  0  0  0  0  0  0  0  0
    9.9400  -16.5324   20.3693 C   0  0  0  0  0  0  0  0  0  0  0  0
   11.0911  -16.1786   19.9165 O   0  0  0  0  0  0  0  0  0  0  0  0
    9.8216  -17.8206   20.8824 N   0  0  0  0  0  0  0  0  0  0  0  0
   10.8847  -18.7814   20.7536 C   0  0  0  0  0  0  0  0  0  0  0  0
   11.8397  -18.8056   21.8720 C   0  0  0  0  0  0  0  0  0  0  0  0
   12.6409  -19.8085   21.9088 O   0  0  0  0  0  0  0  0  0  0  0  0
   11.9534  -17.8570   22.8728 N   0  0  0  0  0  0  0  0  0  0  0  0
   12.7445  -18.0362   24.1026 C   0  0  1  0  0  0  0  0  0  0  0  0
   13.8096  -16.9533   24.0090 C   0  0  0  0  0  0  0  0  0  0  0  0
   14.6117  -17.0411   22.7433 C   0  0  0  0  0  0  0  0  0  0  0  0
   15.5661  -15.8968   22.7195 C   0  0  0  0  0  0  0  0  0  0  0  0
   15.5755  -15.0925   23.6781 O   0  0  0  0  0  0  0  0  0  0  0  0
   11.9477  -18.0216   25.3019 C   0  0  0  0  0  0  0  0  0  0  0  0
   12.4448  -18.3289   26.4325 O   0  0  0  0  0  0  0  0  0  0  0  0
   16.4557  -15.6683   21.6822 O   0  0  0  0  0  0  0  0  0  0  0  0
   10.6142  -17.6744   25.2818 O   0  0  0  0  0  0  0  0  0  0  0  0
  2  1  1  6
  2  4  1  0
  2  3  1  0
  4  5  1  0
  5  6  1  1
  5  7  1  0
  7  8  2  0
  9  7  1  0
  9 10  1  0
 10 11  1  0
 11 13  1  0
 11 12  2  0
 13 14  1  0
 14 19  1  0
 14 15  1  1
 16 15  1  0
 17 16  1  0
 17 21  1  0
 18 17  2  0
 19 22  1  0
 20 19  2  0
M  END
$$$$
