LGE.pdb
     RDKit          3D

 22 21  0  0  1  0  0  0  0  0999 V2000
    7.8569  -11.8847   26.2853 C   0  0  0  0  0  0  0  0  0  0  0  0
    6.4220  -12.0672   25.8283 C   0  0  2  0  0  0  0  0  0  0  0  0
    5.4892  -11.1365   26.5417 C   0  0  0  0  0  0  0  0  0  0  0  0
    6.0022  -13.5220   25.8922 C   0  0  0  0  0  0  0  0  0  0  0  0
    7.1467  -14.3137   25.3154 C   0  0  2  0  0  0  0  0  0  0  0  0
    7.3890  -13.7589   23.9837 N   0  0  0  0  0  0  0  0  0  0  0  0
    6.9022  -15.7557   25.2569 C   0  0  0  0  0  0  0  0  0  0  0  0
    6.6897  -16.3206   26.3931 O   0  0  0  0  0  0  0  0  0  0  0  0
    6.8750  -16.5641   24.1243 N   0  0  0  0  0  0  0  0  0  0  0  0
    6.7447  -17.9934   24.2243 C   0  0  0  0  0  0  0  0  0  0  0  0
    7.9609  -18.7001   24.6540 C   0  0  0  0  0  0  0  0  0  0  0  0
    7.8622  -19.9752   24.7697 O   0  0  0  0  0  0  0  0  0  0  0  0
    9.1862  -18.1234   24.9384 N   0  0  0  0  0  0  0  0  0  0  0  0
   10.3643  -18.8671   25.4172 C   0  0  1  0  0  0  0  0  0  0  0  0
   11.4545  -18.4984   24.4216 C   0  0  0  0  0  0  0  0  0  0  0  0
   11.8476  -17.0522   24.5061 C   0  0  0  0  0  0  0  0  0  0  0  0
   13.0527  -16.8493   23.6534 C   0  0  0  0  0  0  0  0  0  0  0  0
   13.6046  -17.8447   23.1333 O   0  0  0  0  0  0  0  0  0  0  0  0
   10.6756  -18.6156   26.8005 C   0  0  0  0  0  0  0  0  0  0  0  0
   11.4581  -19.3777   27.4536 O   0  0  0  0  0  0  0  0  0  0  0  0
   13.6058  -15.6045   23.4000 O   0  0  0  0  0  0  0  0  0  0  0  0
   10.1432  -17.5407   27.4792 O   0  0  0  0  0  0  0  0  0  0  0  0
  2  1  1  1
  2  4  1  0
  2  3  1  0
  4  5  1  0
  5  6  1  6
  5  7  1  0
  7  8  2  0
  9  7  1  0
  9 10  1  0
 10 11  1  0
 11 13  1  0
 11 12  2  0
 13 14  1  0
 14 19  1  0
 14 15  1  6
 16 15  1  0
 17 16  1  0
 17 21  1  0
 18 17  2  0
 19 22  1  0
 20 19  2  0
M  END
$$$$
