LGE.pdb
     RDKit          3D

 22 21  0  0  1  0  0  0  0  0999 V2000
    6.0032  -12.5710   26.8085 C   0  0  0  0  0  0  0  0  0  0  0  0
    7.1559  -12.4861   25.8261 C   0  0  2  0  0  0  0  0  0  0  0  0
    7.9023  -11.1933   25.9560 C   0  0  0  0  0  0  0  0  0  0  0  0
    6.7014  -12.7908   24.4128 C   0  0  0  0  0  0  0  0  0  0  0  0
    6.7620  -14.2890   24.2674 C   0  0  2  0  0  0  0  0  0  0  0  0
    6.1483  -14.8359   25.4775 N   0  0  0  0  0  0  0  0  0  0  0  0
    8.1146  -14.8130   24.0710 C   0  0  0  0  0  0  0  0  0  0  0  0
    8.6787  -14.4696   22.9669 O   0  0  0  0  0  0  0  0  0  0  0  0
    8.8408  -15.6265   24.9357 N   0  0  0  0  0  0  0  0  0  0  0  0
   10.1689  -16.0733   24.6094 C   0  0  0  0  0  0  0  0  0  0  0  0
   10.4609  -17.4694   24.9686 C   0  0  0  0  0  0  0  0  0  0  0  0
    9.4754  -18.1522   25.4286 O   0  0  0  0  0  0  0  0  0  0  0  0
   11.6842  -18.1059   24.8544 N   0  0  0  0  0  0  0  0  0  0  0  0
   11.9936  -19.4235   25.4364 C   0  0  1  0  0  0  0  0  0  0  0  0
   13.3875  -19.7333   24.9105 C   0  0  0  0  0  0  0  0  0  0  0  0
   13.5175  -19.4796   23.4367 C   0  0  0  0  0  0  0  0  0  0  0  0
   14.8869  -19.8894   23.0152 C   0  0  0  0  0  0  0  0  0  0  0  0
   15.0309  -20.5156   21.9414 O   0  0  0  0  0  0  0  0  0  0  0  0
   11.8468  -19.4644   26.8683 C   0  0  0  0  0  0  0  0  0  0  0  0
   11.8269  -18.3988   27.5639 O   0  0  0  0  0  0  0  0  0  0  0  0
   16.0259  -19.6138   23.7543 O   0  0  0  0  0  0  0  0  0  0  0  0
   11.7204  -20.6554   27.5501 O   0  0  0  0  0  0  0  0  0  0  0  0
  2  1  1  1
  2  4  1  0
  2  3  1  0
  4  5  1  0
  5  6  1  1
  5  7  1  0
  7  8  2  0
  9  7  1  0
  9 10  1  0
 10 11  1  0
 11 13  1  0
 11 12  2  0
 13 14  1  0
 14 19  1  0
 14 15  1  1
 16 15  1  0
 17 16  1  0
 17 21  1  0
 18 17  2  0
 19 22  1  0
 20 19  2  0
M  END
$$$$
