LGE.pdb
     RDKit          3D

 22 21  0  0  1  0  0  0  0  0999 V2000
    7.9092  -12.7738   18.1951 C   0  0  0  0  0  0  0  0  0  0  0  0
    8.2221  -13.4076   19.5372 C   0  0  2  0  0  0  0  0  0  0  0  0
    7.3927  -12.8177   20.6369 C   0  0  0  0  0  0  0  0  0  0  0  0
    9.7109  -13.3963   19.8204 C   0  0  0  0  0  0  0  0  0  0  0  0
   10.3513  -14.2099   18.7261 C   0  0  2  0  0  0  0  0  0  0  0  0
    9.6014  -15.4645   18.6660 N   0  0  0  0  0  0  0  0  0  0  0  0
   11.7813  -14.4515   18.9242 C   0  0  0  0  0  0  0  0  0  0  0  0
   12.5072  -13.3929   19.0133 O   0  0  0  0  0  0  0  0  0  0  0  0
   12.4259  -15.6808   19.0251 N   0  0  0  0  0  0  0  0  0  0  0  0
   13.8424  -15.7694   19.2606 C   0  0  0  0  0  0  0  0  0  0  0  0
   14.2218  -16.1953   20.6164 C   0  0  0  0  0  0  0  0  0  0  0  0
   13.2717  -16.2464   21.4788 O   0  0  0  0  0  0  0  0  0  0  0  0
   15.4920  -16.5439   21.0402 N   0  0  0  0  0  0  0  0  0  0  0  0
   15.8063  -17.0711   22.3795 C   0  0  1  0  0  0  0  0  0  0  0  0
   17.0632  -17.8995   22.1566 C   0  0  0  0  0  0  0  0  0  0  0  0
   16.8196  -19.0927   21.2791 C   0  0  0  0  0  0  0  0  0  0  0  0
   18.0857  -19.8744   21.1983 C   0  0  0  0  0  0  0  0  0  0  0  0
   19.1017  -19.4500   21.7929 O   0  0  0  0  0  0  0  0  0  0  0  0
   15.9076  -16.0476   23.3873 C   0  0  0  0  0  0  0  0  0  0  0  0
   16.1347  -14.8337   23.0796 O   0  0  0  0  0  0  0  0  0  0  0  0
   18.2050  -21.0605   20.4921 O   0  0  0  0  0  0  0  0  0  0  0  0
   15.7629  -16.3335   24.7277 O   0  0  0  0  0  0  0  0  0  0  0  0
  2  1  1  6
  2  4  1  0
  2  3  1  0
  4  5  1  0
  5  6  1  1
  5  7  1  0
  7  8  2  0
  9  7  1  0
  9 10  1  0
 10 11  1  0
 11 13  1  0
 11 12  2  0
 13 14  1  0
 14 19  1  0
 14 15  1  6
 16 15  1  0
 17 16  1  0
 17 21  1  0
 18 17  2  0
 19 22  1  0
 20 19  2  0
M  END
$$$$
