LGE.pdb
     RDKit          3D

 22 21  0  0  1  0  0  0  0  0999 V2000
    7.2777  -12.8489   27.2964 C   0  0  0  0  0  0  0  0  0  0  0  0
    6.8506  -12.8663   25.8410 C   0  0  2  0  0  0  0  0  0  0  0  0
    6.5684  -11.4868   25.3284 C   0  0  0  0  0  0  0  0  0  0  0  0
    5.7204  -13.8486   25.6081 C   0  0  0  0  0  0  0  0  0  0  0  0
    6.3608  -15.2090   25.5137 C   0  0  2  0  0  0  0  0  0  0  0  0
    7.1131  -15.3866   26.7557 N   0  0  0  0  0  0  0  0  0  0  0  0
    7.2185  -15.3820   24.3404 C   0  0  0  0  0  0  0  0  0  0  0  0
    7.0673  -16.4945   23.7121 O   0  0  0  0  0  0  0  0  0  0  0  0
    8.1612  -14.4877   23.8419 N   0  0  0  0  0  0  0  0  0  0  0  0
    8.8875  -14.7592   22.6301 C   0  0  0  0  0  0  0  0  0  0  0  0
   10.0161  -15.6909   22.7772 C   0  0  0  0  0  0  0  0  0  0  0  0
   10.8853  -15.6789   21.8320 O   0  0  0  0  0  0  0  0  0  0  0  0
   10.2247  -16.5653   23.8291 N   0  0  0  0  0  0  0  0  0  0  0  0
   11.4770  -17.3067   24.0583 C   0  0  1  0  0  0  0  0  0  0  0  0
   11.3896  -17.7218   25.5197 C   0  0  0  0  0  0  0  0  0  0  0  0
   11.4246  -16.5488   26.4557 C   0  0  0  0  0  0  0  0  0  0  0  0
   11.2846  -17.0624   27.8475 C   0  0  0  0  0  0  0  0  0  0  0  0
   11.3159  -18.2975   28.0462 O   0  0  0  0  0  0  0  0  0  0  0  0
   11.6866  -18.3784   23.1197 C   0  0  0  0  0  0  0  0  0  0  0  0
   10.7350  -18.8308   22.4059 O   0  0  0  0  0  0  0  0  0  0  0  0
   11.1187  -16.2398   28.9500 O   0  0  0  0  0  0  0  0  0  0  0  0
   12.9237  -18.9618   22.9503 O   0  0  0  0  0  0  0  0  0  0  0  0
  2  1  1  1
  2  4  1  0
  2  3  1  0
  4  5  1  0
  5  6  1  1
  5  7  1  0
  7  8  2  0
  9  7  1  0
  9 10  1  0
 10 11  1  0
 11 13  1  0
 11 12  2  0
 13 14  1  0
 14 19  1  0
 14 15  1  1
 16 15  1  0
 17 16  1  0
 17 21  1  0
 18 17  2  0
 19 22  1  0
 20 19  2  0
M  END
$$$$
