LGE.pdb
     RDKit          3D

 22 21  0  0  1  0  0  0  0  0999 V2000
    8.0404  -12.8839   18.2501 C   0  0  0  0  0  0  0  0  0  0  0  0
    7.6027  -13.6875   19.4598 C   0  0  2  0  0  0  0  0  0  0  0  0
    6.4754  -13.0231   20.1899 C   0  0  0  0  0  0  0  0  0  0  0  0
    8.7812  -14.0404   20.3450 C   0  0  0  0  0  0  0  0  0  0  0  0
    9.7224  -14.8457   19.4876 C   0  0  2  0  0  0  0  0  0  0  0  0
    8.9537  -15.9992   19.0201 N   0  0  0  0  0  0  0  0  0  0  0  0
   10.9449  -15.2623   20.1765 C   0  0  0  0  0  0  0  0  0  0  0  0
   11.7142  -14.3023   20.5530 O   0  0  0  0  0  0  0  0  0  0  0  0
   11.3545  -16.5613   20.4622 N   0  0  0  0  0  0  0  0  0  0  0  0
   12.5633  -16.8237   21.1968 C   0  0  0  0  0  0  0  0  0  0  0  0
   12.3815  -17.0213   22.6429 C   0  0  0  0  0  0  0  0  0  0  0  0
   11.1672  -17.0678   23.0583 O   0  0  0  0  0  0  0  0  0  0  0  0
   13.3867  -17.1626   23.5832 N   0  0  0  0  0  0  0  0  0  0  0  0
   13.1559  -17.4269   25.0141 C   0  0  1  0  0  0  0  0  0  0  0  0
   13.7775  -18.7983   25.2339 C   0  0  0  0  0  0  0  0  0  0  0  0
   15.2753  -18.7749   25.1375 C   0  0  0  0  0  0  0  0  0  0  0  0
   15.7769  -20.1564   25.3833 C   0  0  0  0  0  0  0  0  0  0  0  0
   16.6248  -20.6436   24.6025 O   0  0  0  0  0  0  0  0  0  0  0  0
   13.6421  -16.3795   25.8744 C   0  0  0  0  0  0  0  0  0  0  0  0
   13.3813  -16.3694   27.1200 O   0  0  0  0  0  0  0  0  0  0  0  0
   15.3522  -20.9442   26.4410 O   0  0  0  0  0  0  0  0  0  0  0  0
   14.4110  -15.3430   25.3908 O   0  0  0  0  0  0  0  0  0  0  0  0
  2  1  1  6
  2  4  1  0
  2  3  1  0
  4  5  1  0
  5  6  1  1
  5  7  1  0
  7  8  2  0
  9  7  1  0
  9 10  1  0
 10 11  1  0
 11 13  1  0
 11 12  2  0
 13 14  1  0
 14 19  1  0
 14 15  1  1
 16 15  1  0
 17 16  1  0
 17 21  1  0
 18 17  2  0
 19 22  1  0
 20 19  2  0
M  END
$$$$
