LGE.pdb
     RDKit          3D

 22 21  0  0  1  0  0  0  0  0999 V2000
    7.3284  -13.4350   18.7605 C   0  0  0  0  0  0  0  0  0  0  0  0
    8.0538  -13.3322   20.0887 C   0  0  2  0  0  0  0  0  0  0  0  0
    8.4562  -11.9215   20.3941 C   0  0  0  0  0  0  0  0  0  0  0  0
    9.1949  -14.3260   20.1738 C   0  0  0  0  0  0  0  0  0  0  0  0
    8.5678  -15.6925   20.0792 C   0  0  2  0  0  0  0  0  0  0  0  0
    7.5066  -15.7188   21.0857 N   0  0  0  0  0  0  0  0  0  0  0  0
    9.5122  -16.7944   20.2699 C   0  0  0  0  0  0  0  0  0  0  0  0
   10.3922  -16.9270   19.3407 O   0  0  0  0  0  0  0  0  0  0  0  0
    9.5584  -17.6955   21.3295 N   0  0  0  0  0  0  0  0  0  0  0  0
   10.5675  -18.7184   21.4026 C   0  0  0  0  0  0  0  0  0  0  0  0
   11.8652  -18.2746   21.9342 C   0  0  0  0  0  0  0  0  0  0  0  0
   12.7014  -19.2030   22.2305 O   0  0  0  0  0  0  0  0  0  0  0  0
   12.2622  -16.9649   22.1384 N   0  0  0  0  0  0  0  0  0  0  0  0
   13.5574  -16.5693   22.7183 C   0  0  1  0  0  0  0  0  0  0  0  0
   14.0633  -15.4903   21.7720 C   0  0  0  0  0  0  0  0  0  0  0  0
   14.5032  -16.0441   20.4480 C   0  0  0  0  0  0  0  0  0  0  0  0
   14.9918  -14.9118   19.6115 C   0  0  0  0  0  0  0  0  0  0  0  0
   16.0711  -15.0357   18.9905 O   0  0  0  0  0  0  0  0  0  0  0  0
   13.4707  -16.1889   24.1044 C   0  0  0  0  0  0  0  0  0  0  0  0
   14.5105  -15.9027   24.7801 O   0  0  0  0  0  0  0  0  0  0  0  0
   14.3108  -13.7123   19.4804 O   0  0  0  0  0  0  0  0  0  0  0  0
   12.2615  -16.1163   24.7616 O   0  0  0  0  0  0  0  0  0  0  0  0
  2  1  1  6
  2  4  1  0
  2  3  1  0
  4  5  1  0
  5  6  1  1
  5  7  1  0
  7  8  2  0
  9  7  1  0
  9 10  1  0
 10 11  1  0
 11 13  1  0
 11 12  2  0
 13 14  1  0
 14 19  1  0
 14 15  1  6
 16 15  1  0
 17 16  1  0
 17 21  1  0
 18 17  2  0
 19 22  1  0
 20 19  2  0
M  END
$$$$
