LGE.pdb
     RDKit          3D

 22 21  0  0  1  0  0  0  0  0999 V2000
    6.0155  -11.9522   25.8028 C   0  0  0  0  0  0  0  0  0  0  0  0
    6.8567  -12.8611   26.6787 C   0  0  2  0  0  0  0  0  0  0  0  0
    7.5271  -12.1029   27.7837 C   0  0  0  0  0  0  0  0  0  0  0  0
    7.8065  -13.7029   25.8504 C   0  0  0  0  0  0  0  0  0  0  0  0
    6.9421  -14.5399   24.9439 C   0  0  2  0  0  0  0  0  0  0  0  0
    6.0912  -15.3397   25.8249 N   0  0  0  0  0  0  0  0  0  0  0  0
    7.6965  -15.3859   24.0177 C   0  0  0  0  0  0  0  0  0  0  0  0
    8.4954  -14.7564   23.2298 O   0  0  0  0  0  0  0  0  0  0  0  0
    7.6425  -16.7717   23.9023 N   0  0  0  0  0  0  0  0  0  0  0  0
    8.4585  -17.4789   22.9515 C   0  0  0  0  0  0  0  0  0  0  0  0
    9.8212  -17.7885   23.4104 C   0  0  0  0  0  0  0  0  0  0  0  0
   10.1061  -19.0346   23.5337 O   0  0  0  0  0  0  0  0  0  0  0  0
   10.8114  -16.8712   23.7146 N   0  0  0  0  0  0  0  0  0  0  0  0
   12.1694  -17.2300   24.1590 C   0  0  1  0  0  0  0  0  0  0  0  0
   13.0495  -16.1554   23.5374 C   0  0  0  0  0  0  0  0  0  0  0  0
   14.4753  -16.2392   23.9993 C   0  0  0  0  0  0  0  0  0  0  0  0
   15.3498  -15.7594   22.8921 C   0  0  0  0  0  0  0  0  0  0  0  0
   14.8242  -15.2268   21.8891 O   0  0  0  0  0  0  0  0  0  0  0  0
   12.2832  -17.3767   25.5870 C   0  0  0  0  0  0  0  0  0  0  0  0
   13.2374  -18.0351   26.1122 O   0  0  0  0  0  0  0  0  0  0  0  0
   16.7307  -15.8711   22.9090 O   0  0  0  0  0  0  0  0  0  0  0  0
   11.3679  -16.8120   26.4488 O   0  0  0  0  0  0  0  0  0  0  0  0
  2  1  1  6
  2  4  1  0
  2  3  1  0
  4  5  1  0
  5  6  1  1
  5  7  1  0
  7  8  2  0
  9  7  1  0
  9 10  1  0
 10 11  1  0
 11 13  1  0
 11 12  2  0
 13 14  1  0
 14 19  1  0
 14 15  1  1
 16 15  1  0
 17 16  1  0
 17 21  1  0
 18 17  2  0
 19 22  1  0
 20 19  2  0
M  END
$$$$
