LGE.pdb
     RDKit          3D

 22 21  0  0  1  0  0  0  0  0999 V2000
    6.1567  -12.7457   27.7631 C   0  0  0  0  0  0  0  0  0  0  0  0
    6.5244  -12.1983   26.3971 C   0  0  2  0  0  0  0  0  0  0  0  0
    5.8266  -10.9034   26.1113 C   0  0  0  0  0  0  0  0  0  0  0  0
    6.3416  -13.2436   25.3150 C   0  0  0  0  0  0  0  0  0  0  0  0
    7.3431  -14.3299   25.6090 C   0  0  2  0  0  0  0  0  0  0  0  0
    8.5752  -13.6460   26.0014 N   0  0  0  0  0  0  0  0  0  0  0  0
    7.5733  -15.2449   24.4899 C   0  0  0  0  0  0  0  0  0  0  0  0
    6.6322  -16.0961   24.2775 O   0  0  0  0  0  0  0  0  0  0  0  0
    8.6803  -15.2899   23.6476 N   0  0  0  0  0  0  0  0  0  0  0  0
    8.9164  -16.4101   22.7763 C   0  0  0  0  0  0  0  0  0  0  0  0
   10.0719  -17.2455   23.1369 C   0  0  0  0  0  0  0  0  0  0  0  0
   10.2282  -18.3198   22.4510 O   0  0  0  0  0  0  0  0  0  0  0  0
   10.9951  -16.9808   24.1331 N   0  0  0  0  0  0  0  0  0  0  0  0
   12.0330  -17.9271   24.5778 C   0  0  1  0  0  0  0  0  0  0  0  0
   13.3283  -17.1441   24.4201 C   0  0  0  0  0  0  0  0  0  0  0  0
   13.5723  -16.7120   23.0035 C   0  0  0  0  0  0  0  0  0  0  0  0
   14.8939  -16.0256   22.9497 C   0  0  0  0  0  0  0  0  0  0  0  0
   15.5465  -15.8786   24.0072 O   0  0  0  0  0  0  0  0  0  0  0  0
   11.7895  -18.4670   25.8904 C   0  0  0  0  0  0  0  0  0  0  0  0
   12.5106  -19.4007   26.3679 O   0  0  0  0  0  0  0  0  0  0  0  0
   15.4495  -15.5333   21.7798 O   0  0  0  0  0  0  0  0  0  0  0  0
   10.7683  -17.9988   26.6886 O   0  0  0  0  0  0  0  0  0  0  0  0
  2  1  1  1
  2  4  1  0
  2  3  1  0
  4  5  1  0
  5  6  1  6
  5  7  1  0
  7  8  2  0
  9  7  1  0
  9 10  1  0
 10 11  1  0
 11 13  1  0
 11 12  2  0
 13 14  1  0
 14 19  1  0
 14 15  1  1
 16 15  1  0
 17 16  1  0
 17 21  1  0
 18 17  2  0
 19 22  1  0
 20 19  2  0
M  END
$$$$
