LGE.pdb
     RDKit          3D

 22 21  0  0  1  0  0  0  0  0999 V2000
    6.4722  -13.4433   26.5965 C   0  0  0  0  0  0  0  0  0  0  0  0
    7.3859  -12.5871   25.7403 C   0  0  2  0  0  0  0  0  0  0  0  0
    7.6149  -11.2377   26.3501 C   0  0  0  0  0  0  0  0  0  0  0  0
    6.9088  -12.5359   24.3028 C   0  0  0  0  0  0  0  0  0  0  0  0
    7.4566  -13.7706   23.6357 C   0  0  2  0  0  0  0  0  0  0  0  0
    6.9788  -13.7270   22.2537 N   0  0  0  0  0  0  0  0  0  0  0  0
    7.0744  -15.0209   24.2937 C   0  0  0  0  0  0  0  0  0  0  0  0
    5.8094  -15.2511   24.3375 O   0  0  0  0  0  0  0  0  0  0  0  0
    7.9183  -15.9688   24.8650 N   0  0  0  0  0  0  0  0  0  0  0  0
    7.3989  -17.1389   25.5215 C   0  0  0  0  0  0  0  0  0  0  0  0
    8.4165  -18.0382   26.0862 C   0  0  0  0  0  0  0  0  0  0  0  0
    7.9791  -18.9923   26.8261 O   0  0  0  0  0  0  0  0  0  0  0  0
    9.7839  -17.9523   25.8926 N   0  0  0  0  0  0  0  0  0  0  0  0
   10.7715  -18.8408   26.5295 C   0  0  1  0  0  0  0  0  0  0  0  0
   12.0244  -18.6527   25.6866 C   0  0  0  0  0  0  0  0  0  0  0  0
   12.5187  -17.2354   25.6963 C   0  0  0  0  0  0  0  0  0  0  0  0
   13.6996  -17.1505   24.7913 C   0  0  0  0  0  0  0  0  0  0  0  0
   14.0542  -18.1692   24.1568 O   0  0  0  0  0  0  0  0  0  0  0  0
   10.9303  -18.6005   27.9404 C   0  0  0  0  0  0  0  0  0  0  0  0
   10.4305  -17.5717   28.4985 O   0  0  0  0  0  0  0  0  0  0  0  0
   14.4386  -15.9927   24.6097 O   0  0  0  0  0  0  0  0  0  0  0  0
   11.6278  -19.4709   28.7498 O   0  0  0  0  0  0  0  0  0  0  0  0
  2  1  1  1
  2  4  1  0
  2  3  1  0
  4  5  1  0
  5  6  1  6
  5  7  1  0
  7  8  2  0
  9  7  1  0
  9 10  1  0
 10 11  1  0
 11 13  1  0
 11 12  2  0
 13 14  1  0
 14 19  1  0
 14 15  1  6
 16 15  1  0
 17 16  1  0
 17 21  1  0
 18 17  2  0
 19 22  1  0
 20 19  2  0
M  END
$$$$
