LGE.pdb
     RDKit          3D

 22 21  0  0  1  0  0  0  0  0999 V2000
    5.6556  -12.2427   25.9330 C   0  0  0  0  0  0  0  0  0  0  0  0
    6.8244  -12.8918   26.6496 C   0  0  2  0  0  0  0  0  0  0  0  0
    7.5991  -11.8988   27.4614 C   0  0  0  0  0  0  0  0  0  0  0  0
    7.6788  -13.7004   25.6940 C   0  0  0  0  0  0  0  0  0  0  0  0
    6.7541  -14.6992   25.0485 C   0  0  2  0  0  0  0  0  0  0  0  0
    6.4372  -15.6823   26.0843 N   0  0  0  0  0  0  0  0  0  0  0  0
    7.3106  -15.3402   23.8561 C   0  0  0  0  0  0  0  0  0  0  0  0
    7.8098  -16.5105   24.0473 O   0  0  0  0  0  0  0  0  0  0  0  0
    7.3551  -14.8281   22.5627 N   0  0  0  0  0  0  0  0  0  0  0  0
    7.9705  -15.5578   21.4863 C   0  0  0  0  0  0  0  0  0  0  0  0
    9.4176  -15.7774   21.6315 C   0  0  0  0  0  0  0  0  0  0  0  0
   10.1703  -15.1470   20.8038 O   0  0  0  0  0  0  0  0  0  0  0  0
   10.0332  -16.5884   22.5684 N   0  0  0  0  0  0  0  0  0  0  0  0
   11.4874  -16.8099   22.6494 C   0  0  1  0  0  0  0  0  0  0  0  0
   11.6675  -17.5553   23.9637 C   0  0  0  0  0  0  0  0  0  0  0  0
   11.1835  -16.7662   25.1454 C   0  0  0  0  0  0  0  0  0  0  0  0
   11.3285  -17.6162   26.3608 C   0  0  0  0  0  0  0  0  0  0  0  0
   11.8019  -18.7687   26.2442 O   0  0  0  0  0  0  0  0  0  0  0  0
   12.0319  -17.4613   21.4863 C   0  0  0  0  0  0  0  0  0  0  0  0
   13.2587  -17.3386   21.1705 O   0  0  0  0  0  0  0  0  0  0  0  0
   10.9636  -17.1985   27.6305 O   0  0  0  0  0  0  0  0  0  0  0  0
   11.2528  -18.2463   20.6640 O   0  0  0  0  0  0  0  0  0  0  0  0
  2  1  1  6
  2  4  1  0
  2  3  1  0
  4  5  1  0
  5  6  1  1
  5  7  1  0
  7  8  2  0
  9  7  1  0
  9 10  1  0
 10 11  1  0
 11 13  1  0
 11 12  2  0
 13 14  1  0
 14 19  1  0
 14 15  1  1
 16 15  1  0
 17 16  1  0
 17 21  1  0
 18 17  2  0
 19 22  1  0
 20 19  2  0
M  END
$$$$
