LGE.pdb
     RDKit          3D

 22 21  0  0  1  0  0  0  0  0999 V2000
    8.0181  -14.1425   18.5496 C   0  0  0  0  0  0  0  0  0  0  0  0
    7.4249  -13.3092   19.6697 C   0  0  2  0  0  0  0  0  0  0  0  0
    7.2550  -11.8762   19.2659 C   0  0  0  0  0  0  0  0  0  0  0  0
    8.1938  -13.4934   20.9627 C   0  0  0  0  0  0  0  0  0  0  0  0
    8.0972  -14.9580   21.3021 C   0  0  2  0  0  0  0  0  0  0  0  0
    6.6680  -15.2574   21.3897 N   0  0  0  0  0  0  0  0  0  0  0  0
    8.7973  -15.3305   22.5324 C   0  0  0  0  0  0  0  0  0  0  0  0
    8.2437  -14.9246   23.6206 O   0  0  0  0  0  0  0  0  0  0  0  0
    9.9747  -16.0635   22.6472 N   0  0  0  0  0  0  0  0  0  0  0  0
   10.7907  -15.9943   23.8302 C   0  0  0  0  0  0  0  0  0  0  0  0
   12.0097  -16.8164   23.7936 C   0  0  0  0  0  0  0  0  0  0  0  0
   11.9502  -17.8833   23.0814 O   0  0  0  0  0  0  0  0  0  0  0  0
   13.1998  -16.5465   24.4459 N   0  0  0  0  0  0  0  0  0  0  0  0
   14.3707  -17.4406   24.4438 C   0  0  1  0  0  0  0  0  0  0  0  0
   15.4755  -16.5890   23.8357 C   0  0  0  0  0  0  0  0  0  0  0  0
   14.9778  -15.6996   22.7336 C   0  0  0  0  0  0  0  0  0  0  0  0
   16.1499  -14.9940   22.1429 C   0  0  0  0  0  0  0  0  0  0  0  0
   17.2798  -15.1571   22.6554 O   0  0  0  0  0  0  0  0  0  0  0  0
   14.6614  -18.0044   25.7365 C   0  0  0  0  0  0  0  0  0  0  0  0
   14.1370  -17.5365   26.7976 O   0  0  0  0  0  0  0  0  0  0  0  0
   16.0596  -14.1552   21.0438 O   0  0  0  0  0  0  0  0  0  0  0  0
   15.5174  -19.0743   25.8846 O   0  0  0  0  0  0  0  0  0  0  0  0
  2  1  1  6
  2  4  1  0
  2  3  1  0
  4  5  1  0
  5  6  1  1
  5  7  1  0
  7  8  2  0
  9  7  1  0
  9 10  1  0
 10 11  1  0
 11 13  1  0
 11 12  2  0
 13 14  1  0
 14 19  1  0
 14 15  1  1
 16 15  1  0
 17 16  1  0
 17 21  1  0
 18 17  2  0
 19 22  1  0
 20 19  2  0
M  END
$$$$
