IEP.pdb
     RDKit          3D

 25 25  0  0  1  0  0  0  0  0999 V2000
   18.2545  -18.9717  -15.5378 C   0  0  0  0  0  0  0  0  0  0  0  0
   18.5840  -20.4361  -15.7307 C   0  0  0  0  0  0  0  0  0  0  0  0
   19.9382  -20.7262  -15.1433 C   0  0  2  0  0  0  0  0  0  0  0  0
   19.9691  -20.3218  -13.6848 C   0  0  0  0  0  0  0  0  0  0  0  0
   21.0507  -19.9860  -15.8408 C   0  0  2  0  0  0  0  0  0  0  0  0
   21.0292  -20.3056  -17.2637 N   0  0  0  0  0  0  0  0  0  0  0  0
   22.3798  -20.2773  -15.3149 C   0  0  0  0  0  0  0  0  0  0  0  0
   22.6410  -21.4235  -14.8742 O   0  0  0  0  0  0  0  0  0  0  0  0
   23.4599  -19.3335  -15.2541 N   0  0  0  0  0  0  0  0  0  0  0  0
   24.6957  -19.6133  -14.5795 C   0  0  1  0  0  0  0  0  0  0  0  0
   25.6833  -18.5247  -14.9981 C   0  0  0  0  0  0  0  0  0  0  0  0
   27.0732  -18.8713  -14.4944 C   0  0  0  0  0  0  0  0  0  0  0  0
   27.8048  -19.5109  -15.6311 C   0  0  0  0  0  0  0  0  0  0  0  0
   28.3037  -18.8406  -16.5721 O   0  0  0  0  0  0  0  0  0  0  0  0
   24.6793  -19.6655  -13.1279 C   0  0  0  0  0  0  0  0  0  0  0  0
   23.8016  -18.8661  -12.6091 O   0  0  0  0  0  0  0  0  0  0  0  0
   27.9591  -20.8872  -15.6852 O   0  0  0  0  0  0  0  0  0  0  0  0
   25.4367  -20.4170  -12.2312 N   0  0  0  0  0  0  0  0  0  0  0  0
   26.5628  -21.2981  -12.3529 C   0  0  0  0  0  0  0  0  0  0  0  0
   26.0761  -22.5349  -11.5829 C   0  0  0  0  0  0  0  0  0  0  0  0
   25.4642  -21.8706  -10.3594 C   0  0  0  0  0  0  0  0  0  0  0  0
   25.1670  -20.4436  -10.7709 C   0  0  1  0  0  0  0  0  0  0  0  0
   26.0698  -19.4687  -10.1393 C   0  0  0  0  0  0  0  0  0  0  0  0
   27.0282  -18.9800  -10.7619 O   0  0  0  0  0  0  0  0  0  0  0  0
   25.8592  -19.0695   -8.8037 O   0  0  0  0  0  0  0  0  0  0  0  0
  2  3  1  0
  2  1  1  0
  3  5  1  0
  3  4  1  1
  5  7  1  0
  5  6  1  6
  7  8  2  0
  9 10  1  0
  9  7  1  0
 10 11  1  1
 11 12  1  0
 13 12  1  0
 13 17  1  0
 14 13  2  0
 15 18  1  0
 15 10  1  0
 16 15  2  0
 18 19  1  0
 20 19  1  0
 21 20  1  0
 22 21  1  0
 22 18  1  0
 22 23  1  1
 24 23  2  0
 25 23  1  0
M  END
$$$$
