IEP.pdb
     RDKit          3D

 25 25  0  0  1  0  0  0  0  0999 V2000
   19.8363  -20.2386  -11.1315 C   0  0  0  0  0  0  0  0  0  0  0  0
   21.1889  -20.2271  -11.8104 C   0  0  0  0  0  0  0  0  0  0  0  0
   22.2492  -20.6262  -10.8207 C   0  0  2  0  0  0  0  0  0  0  0  0
   22.2485  -19.6717   -9.6457 C   0  0  0  0  0  0  0  0  0  0  0  0
   23.6362  -20.6152  -11.4108 C   0  0  2  0  0  0  0  0  0  0  0  0
   23.6793  -21.5035  -12.5667 N   0  0  0  0  0  0  0  0  0  0  0  0
   24.6833  -21.0112  -10.4756 C   0  0  0  0  0  0  0  0  0  0  0  0
   24.5228  -22.0215   -9.7477 O   0  0  0  0  0  0  0  0  0  0  0  0
   25.9316  -20.3226  -10.3064 N   0  0  0  0  0  0  0  0  0  0  0  0
   26.9515  -20.7784   -9.4050 C   0  0  1  0  0  0  0  0  0  0  0  0
   28.2668  -20.7644  -10.1831 C   0  0  0  0  0  0  0  0  0  0  0  0
   29.3881  -21.2919   -9.3056 C   0  0  0  0  0  0  0  0  0  0  0  0
   30.3147  -22.0604  -10.1928 C   0  0  0  0  0  0  0  0  0  0  0  0
   30.1085  -22.1928  -11.4272 O   0  0  0  0  0  0  0  0  0  0  0  0
   27.1533  -20.0313   -8.1756 C   0  0  0  0  0  0  0  0  0  0  0  0
   26.7230  -18.8119   -8.2557 O   0  0  0  0  0  0  0  0  0  0  0  0
   31.4504  -22.6621   -9.6742 O   0  0  0  0  0  0  0  0  0  0  0  0
   27.7207  -20.4076   -6.9595 N   0  0  0  0  0  0  0  0  0  0  0  0
   28.3848  -21.5848   -6.4775 C   0  0  0  0  0  0  0  0  0  0  0  0
   27.6168  -21.8664   -5.1775 C   0  0  0  0  0  0  0  0  0  0  0  0
   27.5402  -20.4629   -4.5969 C   0  0  0  0  0  0  0  0  0  0  0  0
   27.7360  -19.5218   -5.7674 C   0  0  1  0  0  0  0  0  0  0  0  0
   29.0411  -18.8431   -5.7408 C   0  0  0  0  0  0  0  0  0  0  0  0
   29.9048  -19.0728   -6.6045 O   0  0  0  0  0  0  0  0  0  0  0  0
   29.3348  -17.9118   -4.7240 O   0  0  0  0  0  0  0  0  0  0  0  0
  2  3  1  0
  2  1  1  0
  3  5  1  0
  3  4  1  1
  5  7  1  0
  5  6  1  6
  7  8  2  0
  9 10  1  0
  9  7  1  0
 10 11  1  6
 11 12  1  0
 13 12  1  0
 13 17  1  0
 14 13  2  0
 15 18  1  0
 15 10  1  0
 16 15  2  0
 18 19  1  0
 20 19  1  0
 21 20  1  0
 22 21  1  0
 22 18  1  0
 22 23  1  1
 24 23  2  0
 25 23  1  0
M  END
$$$$
