IEP.pdb
     RDKit          3D

 25 25  0  0  1  0  0  0  0  0999 V2000
   16.6799  -15.4405  -15.7922 C   0  0  0  0  0  0  0  0  0  0  0  0
   17.9257  -14.5862  -15.8836 C   0  0  0  0  0  0  0  0  0  0  0  0
   17.5576  -13.2161  -16.3841 C   0  0  2  0  0  0  0  0  0  0  0  0
   16.9869  -13.3102  -17.7830 C   0  0  0  0  0  0  0  0  0  0  0  0
   18.7345  -12.2759  -16.4387 C   0  0  2  0  0  0  0  0  0  0  0  0
   19.3332  -12.1697  -15.1130 N   0  0  0  0  0  0  0  0  0  0  0  0
   18.4040  -10.9365  -16.9125 C   0  0  0  0  0  0  0  0  0  0  0  0
   18.1878  -10.7404  -18.1336 O   0  0  0  0  0  0  0  0  0  0  0  0
   18.2984   -9.7757  -16.0745 N   0  0  0  0  0  0  0  0  0  0  0  0
   17.9598   -8.4784  -16.5874 C   0  0  1  0  0  0  0  0  0  0  0  0
   17.2948   -7.7117  -15.4449 C   0  0  0  0  0  0  0  0  0  0  0  0
   16.8411   -6.3488  -15.9368 C   0  0  0  0  0  0  0  0  0  0  0  0
   16.2799   -5.6212  -14.7569 C   0  0  0  0  0  0  0  0  0  0  0  0
   15.8608   -4.4371  -14.8340 O   0  0  0  0  0  0  0  0  0  0  0  0
   19.0356   -7.6539  -17.1103 C   0  0  0  0  0  0  0  0  0  0  0  0
   20.1476   -7.8155  -16.4653 O   0  0  0  0  0  0  0  0  0  0  0  0
   16.2022   -6.2393  -13.5189 O   0  0  0  0  0  0  0  0  0  0  0  0
   19.0598   -6.7427  -18.1646 N   0  0  0  0  0  0  0  0  0  0  0  0
   18.0878   -6.2610  -19.1040 C   0  0  0  0  0  0  0  0  0  0  0  0
   18.8226   -6.4523  -20.4392 C   0  0  0  0  0  0  0  0  0  0  0  0
   20.1979   -5.9168  -20.0725 C   0  0  0  0  0  0  0  0  0  0  0  0
   20.2834   -6.0010  -18.5627 C   0  0  1  0  0  0  0  0  0  0  0  0
   20.2279   -4.6814  -17.9144 C   0  0  0  0  0  0  0  0  0  0  0  0
   21.1561   -3.8638  -18.0362 O   0  0  0  0  0  0  0  0  0  0  0  0
   19.1088   -4.3205  -17.1366 O   0  0  0  0  0  0  0  0  0  0  0  0
  2  3  1  0
  2  1  1  0
  3  5  1  0
  3  4  1  6
  5  7  1  0
  5  6  1  1
  7  8  2  0
  9 10  1  0
  9  7  1  0
 10 11  1  1
 11 12  1  0
 13 12  1  0
 13 17  1  0
 14 13  2  0
 15 18  1  0
 15 10  1  0
 16 15  2  0
 18 19  1  0
 20 19  1  0
 21 20  1  0
 22 21  1  0
 22 18  1  0
 22 23  1  1
 24 23  2  0
 25 23  1  0
M  END
$$$$
