IEP.pdb
     RDKit          3D

 25 25  0  0  1  0  0  0  0  0999 V2000
   29.3707  -18.3419  -16.8744 C   0  0  0  0  0  0  0  0  0  0  0  0
   29.3456  -19.5091  -15.9115 C   0  0  0  0  0  0  0  0  0  0  0  0
   28.5156  -19.1489  -14.7097 C   0  0  2  0  0  0  0  0  0  0  0  0
   29.2450  -19.5340  -13.4404 C   0  0  0  0  0  0  0  0  0  0  0  0
   27.1783  -19.8442  -14.6908 C   0  0  2  0  0  0  0  0  0  0  0  0
   26.4154  -19.4619  -15.8735 N   0  0  0  0  0  0  0  0  0  0  0  0
   26.3778  -19.5611  -13.5047 C   0  0  0  0  0  0  0  0  0  0  0  0
   26.0225  -18.3829  -13.2560 O   0  0  0  0  0  0  0  0  0  0  0  0
   25.9411  -20.5484  -12.5583 N   0  0  0  0  0  0  0  0  0  0  0  0
   25.1717  -20.2169  -11.3926 C   0  0  1  0  0  0  0  0  0  0  0  0
   23.7060  -20.4684  -11.7449 C   0  0  0  0  0  0  0  0  0  0  0  0
   22.8224  -20.0801  -10.5728 C   0  0  0  0  0  0  0  0  0  0  0  0
   21.4060  -20.2975  -11.0005 C   0  0  0  0  0  0  0  0  0  0  0  0
   20.7849  -19.4695  -11.7162 O   0  0  0  0  0  0  0  0  0  0  0  0
   25.4630  -20.9317  -10.1620 C   0  0  0  0  0  0  0  0  0  0  0  0
   25.6081  -22.2058  -10.3466 O   0  0  0  0  0  0  0  0  0  0  0  0
   20.7202  -21.4386  -10.6152 O   0  0  0  0  0  0  0  0  0  0  0  0
   25.6060  -20.4771   -8.8523 N   0  0  0  0  0  0  0  0  0  0  0  0
   25.4363  -19.2102   -8.2001 C   0  0  0  0  0  0  0  0  0  0  0  0
   26.7625  -19.0714   -7.4377 C   0  0  0  0  0  0  0  0  0  0  0  0
   26.8942  -20.4731   -6.8628 C   0  0  0  0  0  0  0  0  0  0  0  0
   26.0266  -21.3584   -7.7332 C   0  0  1  0  0  0  0  0  0  0  0  0
   24.8060  -21.8111   -7.0477 C   0  0  0  0  0  0  0  0  0  0  0  0
   23.6861  -21.3837   -7.3759 O   0  0  0  0  0  0  0  0  0  0  0  0
   24.8894  -22.7469   -5.9965 O   0  0  0  0  0  0  0  0  0  0  0  0
  2  3  1  0
  2  1  1  0
  3  5  1  0
  3  4  1  1
  5  7  1  0
  5  6  1  6
  7  8  2  0
  9 10  1  0
  9  7  1  0
 10 11  1  6
 11 12  1  0
 13 12  1  0
 13 17  1  0
 14 13  2  0
 15 18  1  0
 15 10  1  0
 16 15  2  0
 18 19  1  0
 20 19  1  0
 21 20  1  0
 22 21  1  0
 22 18  1  0
 22 23  1  1
 24 23  2  0
 25 23  1  0
M  END
$$$$
