IEP.pdb
     RDKit          3D

 25 25  0  0  1  0  0  0  0  0999 V2000
   27.9730  -19.2948   -5.1674 C   0  0  0  0  0  0  0  0  0  0  0  0
   26.5826  -19.6976   -5.6088 C   0  0  0  0  0  0  0  0  0  0  0  0
   26.6240  -20.1501   -7.0428 C   0  0  2  0  0  0  0  0  0  0  0  0
   27.1928  -19.0531   -7.9173 C   0  0  0  0  0  0  0  0  0  0  0  0
   25.2626  -20.5009   -7.5867 C   0  0  2  0  0  0  0  0  0  0  0  0
   24.6718  -21.5569   -6.7725 N   0  0  0  0  0  0  0  0  0  0  0  0
   25.2722  -20.9329   -8.9799 C   0  0  0  0  0  0  0  0  0  0  0  0
   25.8386  -22.0072   -9.2981 O   0  0  0  0  0  0  0  0  0  0  0  0
   24.6672  -20.2115  -10.0637 N   0  0  0  0  0  0  0  0  0  0  0  0
   24.6789  -20.6925  -11.4162 C   0  0  1  0  0  0  0  0  0  0  0  0
   23.2330  -20.6570  -11.9098 C   0  0  0  0  0  0  0  0  0  0  0  0
   23.1448  -21.2914  -13.2865 C   0  0  0  0  0  0  0  0  0  0  0  0
   22.1484  -20.4992  -14.0714 C   0  0  0  0  0  0  0  0  0  0  0  0
   21.0695  -20.0894  -13.5697 O   0  0  0  0  0  0  0  0  0  0  0  0
   25.4969  -19.9799  -12.3822 C   0  0  0  0  0  0  0  0  0  0  0  0
   25.4764  -18.6967  -12.2045 O   0  0  0  0  0  0  0  0  0  0  0  0
   22.3862  -20.1856  -15.4003 O   0  0  0  0  0  0  0  0  0  0  0  0
   26.2770  -20.4446  -13.4397 N   0  0  0  0  0  0  0  0  0  0  0  0
   26.5248  -21.7334  -14.0200 C   0  0  0  0  0  0  0  0  0  0  0  0
   28.0599  -21.7702  -14.0547 C   0  0  0  0  0  0  0  0  0  0  0  0
   28.3541  -20.3733  -14.5789 C   0  0  0  0  0  0  0  0  0  0  0  0
   27.1189  -19.5510  -14.2754 C   0  0  1  0  0  0  0  0  0  0  0  0
   26.3447  -19.2192  -15.4817 C   0  0  0  0  0  0  0  0  0  0  0  0
   26.7378  -18.3534  -16.2821 O   0  0  0  0  0  0  0  0  0  0  0  0
   25.1319  -19.8858  -15.7510 O   0  0  0  0  0  0  0  0  0  0  0  0
  2  3  1  0
  2  1  1  0
  3  5  1  0
  3  4  1  6
  5  7  1  0
  5  6  1  1
  7  8  2  0
  9 10  1  0
  9  7  1  0
 10 11  1  6
 11 12  1  0
 13 12  1  0
 13 17  1  0
 14 13  2  0
 15 18  1  0
 15 10  1  0
 16 15  2  0
 18 19  1  0
 20 19  1  0
 21 20  1  0
 22 21  1  0
 22 18  1  0
 22 23  1  6
 24 23  2  0
 25 23  1  0
M  END
$$$$
