IEP.pdb
     RDKit          3D

 25 25  0  0  1  0  0  0  0  0999 V2000
   28.5941  -12.6661  -16.2137 C   0  0  0  0  0  0  0  0  0  0  0  0
   27.1544  -13.0674  -15.9758 C   0  0  0  0  0  0  0  0  0  0  0  0
   26.2584  -11.8832  -16.2160 C   0  0  2  0  0  0  0  0  0  0  0  0
   26.5265  -10.8107  -15.1818 C   0  0  0  0  0  0  0  0  0  0  0  0
   24.7937  -12.2304  -16.1372 C   0  0  2  0  0  0  0  0  0  0  0  0
   24.4928  -13.2873  -17.0962 N   0  0  0  0  0  0  0  0  0  0  0  0
   23.9013  -11.1036  -16.3857 C   0  0  0  0  0  0  0  0  0  0  0  0
   23.9076  -10.5355  -17.5053 O   0  0  0  0  0  0  0  0  0  0  0  0
   22.9786  -10.5645  -15.4271 N   0  0  0  0  0  0  0  0  0  0  0  0
   22.0952   -9.4745  -15.7305 C   0  0  1  0  0  0  0  0  0  0  0  0
   20.6932   -9.9116  -15.3076 C   0  0  0  0  0  0  0  0  0  0  0  0
   19.6970   -8.8072  -15.6133 C   0  0  0  0  0  0  0  0  0  0  0  0
   18.3465   -9.3130  -15.2177 C   0  0  0  0  0  0  0  0  0  0  0  0
   18.1844  -10.4236  -14.6487 O   0  0  0  0  0  0  0  0  0  0  0  0
   22.3668   -8.1889  -15.1110 C   0  0  0  0  0  0  0  0  0  0  0  0
   22.8907   -8.3033  -13.9316 O   0  0  0  0  0  0  0  0  0  0  0  0
   17.2100   -8.5608  -15.4699 O   0  0  0  0  0  0  0  0  0  0  0  0
   22.1582   -6.8898  -15.5710 N   0  0  0  0  0  0  0  0  0  0  0  0
   21.5636   -6.3189  -16.7455 C   0  0  0  0  0  0  0  0  0  0  0  0
   22.6569   -5.3432  -17.2061 C   0  0  0  0  0  0  0  0  0  0  0  0
   23.0333   -4.7085  -15.8764 C   0  0  0  0  0  0  0  0  0  0  0  0
   22.5831   -5.6865  -14.8111 C   0  0  1  0  0  0  0  0  0  0  0  0
   21.4146   -5.2083  -14.0558 C   0  0  0  0  0  0  0  0  0  0  0  0
   20.2672   -5.6027  -14.3256 O   0  0  0  0  0  0  0  0  0  0  0  0
   21.5805   -4.2854  -13.0031 O   0  0  0  0  0  0  0  0  0  0  0  0
  2  3  1  0
  2  1  1  0
  3  5  1  0
  3  4  1  1
  5  7  1  0
  5  6  1  6
  7  8  2  0
  9 10  1  0
  9  7  1  0
 10 11  1  1
 11 12  1  0
 13 12  1  0
 13 17  1  0
 14 13  2  0
 15 18  1  0
 15 10  1  0
 16 15  2  0
 18 19  1  0
 20 19  1  0
 21 20  1  0
 22 21  1  0
 22 18  1  0
 22 23  1  6
 24 23  2  0
 25 23  1  0
M  END
$$$$
