IEP.pdb
     RDKit          3D

 25 25  0  0  1  0  0  0  0  0999 V2000
   28.7582  -20.3414  -20.2758 C   0  0  0  0  0  0  0  0  0  0  0  0
   29.4665  -21.6377  -19.9467 C   0  0  0  0  0  0  0  0  0  0  0  0
   29.9496  -21.5967  -18.5226 C   0  0  2  0  0  0  0  0  0  0  0  0
   31.3403  -22.1871  -18.4288 C   0  0  0  0  0  0  0  0  0  0  0  0
   29.0649  -22.3728  -17.5807 C   0  0  2  0  0  0  0  0  0  0  0  0
   28.1087  -23.1604  -18.3505 N   0  0  0  0  0  0  0  0  0  0  0  0
   28.3319  -21.5413  -16.6325 C   0  0  0  0  0  0  0  0  0  0  0  0
   28.9526  -20.7352  -15.8970 O   0  0  0  0  0  0  0  0  0  0  0  0
   26.9071  -21.5619  -16.4582 N   0  0  0  0  0  0  0  0  0  0  0  0
   26.2307  -20.7232  -15.5097 C   0  0  1  0  0  0  0  0  0  0  0  0
   25.1647  -19.9502  -16.2853 C   0  0  0  0  0  0  0  0  0  0  0  0
   24.4088  -19.0312  -15.3421 C   0  0  0  0  0  0  0  0  0  0  0  0
   23.2696  -18.4489  -16.1164 C   0  0  0  0  0  0  0  0  0  0  0  0
   23.3866  -17.3962  -16.7960 O   0  0  0  0  0  0  0  0  0  0  0  0
   25.5818  -21.3644  -14.3792 C   0  0  0  0  0  0  0  0  0  0  0  0
   24.9911  -22.4708  -14.7038 O   0  0  0  0  0  0  0  0  0  0  0  0
   22.0264  -19.0614  -16.1098 O   0  0  0  0  0  0  0  0  0  0  0  0
   25.4961  -20.9881  -13.0399 N   0  0  0  0  0  0  0  0  0  0  0  0
   25.9139  -19.8411  -12.2856 C   0  0  0  0  0  0  0  0  0  0  0  0
   26.6716  -20.4935  -11.1196 C   0  0  0  0  0  0  0  0  0  0  0  0
   25.7105  -21.6174  -10.7649 C   0  0  0  0  0  0  0  0  0  0  0  0
   24.8639  -21.8405  -12.0009 C   0  0  1  0  0  0  0  0  0  0  0  0
   23.4782  -21.3751  -11.8339 C   0  0  0  0  0  0  0  0  0  0  0  0
   23.0946  -20.3016  -12.3293 O   0  0  0  0  0  0  0  0  0  0  0  0
   22.5544  -22.1482  -11.1015 O   0  0  0  0  0  0  0  0  0  0  0  0
  2  3  1  0
  2  1  1  0
  3  5  1  0
  3  4  1  6
  5  7  1  0
  5  6  1  6
  7  8  2  0
  9 10  1  0
  9  7  1  0
 10 11  1  6
 11 12  1  0
 13 12  1  0
 13 17  1  0
 14 13  2  0
 15 18  1  0
 15 10  1  0
 16 15  2  0
 18 19  1  0
 20 19  1  0
 21 20  1  0
 22 21  1  0
 22 18  1  0
 22 23  1  1
 24 23  2  0
 25 23  1  0
M  END
$$$$
