IEP.pdb
     RDKit          3D

 25 25  0  0  1  0  0  0  0  0999 V2000
   16.1364  -14.1700  -18.2288 C   0  0  0  0  0  0  0  0  0  0  0  0
   17.4495  -13.8113  -17.5675 C   0  0  0  0  0  0  0  0  0  0  0  0
   17.2994  -12.5086  -16.8303 C   0  0  2  0  0  0  0  0  0  0  0  0
   16.9408  -11.4020  -17.7990 C   0  0  0  0  0  0  0  0  0  0  0  0
   18.5586  -12.0915  -16.1142 C   0  0  2  0  0  0  0  0  0  0  0  0
   18.9432  -13.1290  -15.1640 N   0  0  0  0  0  0  0  0  0  0  0  0
   18.4457  -10.8229  -15.4031 C   0  0  0  0  0  0  0  0  0  0  0  0
   17.5484  -10.6676  -14.5389 O   0  0  0  0  0  0  0  0  0  0  0  0
   19.3033   -9.6904  -15.6103 N   0  0  0  0  0  0  0  0  0  0  0  0
   19.1667   -8.4694  -14.8679 C   0  0  1  0  0  0  0  0  0  0  0  0
   20.5696   -7.8803  -14.7252 C   0  0  0  0  0  0  0  0  0  0  0  0
   20.5104   -6.6075  -13.8994 C   0  0  0  0  0  0  0  0  0  0  0  0
   21.9007   -6.0603  -13.8366 C   0  0  0  0  0  0  0  0  0  0  0  0
   22.8884   -6.6771  -14.3138 O   0  0  0  0  0  0  0  0  0  0  0  0
   18.3034   -7.4367  -15.4141 C   0  0  0  0  0  0  0  0  0  0  0  0
   18.3832   -7.3494  -16.7043 O   0  0  0  0  0  0  0  0  0  0  0  0
   22.1499   -4.8344  -13.2401 O   0  0  0  0  0  0  0  0  0  0  0  0
   17.4289   -6.5502  -14.7879 N   0  0  0  0  0  0  0  0  0  0  0  0
   17.1562   -6.1966  -13.4242 C   0  0  0  0  0  0  0  0  0  0  0  0
   15.6275   -6.3344  -13.3657 C   0  0  0  0  0  0  0  0  0  0  0  0
   15.2419   -5.6450  -14.6653 C   0  0  0  0  0  0  0  0  0  0  0  0
   16.4796   -5.6882  -15.5372 C   0  0  1  0  0  0  0  0  0  0  0  0
   17.1128   -4.3693  -15.6934 C   0  0  0  0  0  0  0  0  0  0  0  0
   18.2114   -4.1157  -15.1704 O   0  0  0  0  0  0  0  0  0  0  0  0
   16.4760   -3.3623  -16.4471 O   0  0  0  0  0  0  0  0  0  0  0  0
  2  3  1  0
  2  1  1  0
  3  5  1  0
  3  4  1  6
  5  7  1  0
  5  6  1  1
  7  8  2  0
  9 10  1  0
  9  7  1  0
 10 11  1  6
 11 12  1  0
 13 12  1  0
 13 17  1  0
 14 13  2  0
 15 18  1  0
 15 10  1  0
 16 15  2  0
 18 19  1  0
 20 19  1  0
 21 20  1  0
 22 21  1  0
 22 18  1  0
 22 23  1  1
 24 23  2  0
 25 23  1  0
M  END
$$$$
