IEP.pdb
     RDKit          3D

 25 25  0  0  1  0  0  0  0  0999 V2000
   24.9088  -25.8838  -15.4473 C   0  0  0  0  0  0  0  0  0  0  0  0
   24.1844  -24.5754  -15.6788 C   0  0  0  0  0  0  0  0  0  0  0  0
   23.2016  -24.3433  -14.5638 C   0  0  2  0  0  0  0  0  0  0  0  0
   22.3033  -25.5512  -14.4034 C   0  0  0  0  0  0  0  0  0  0  0  0
   22.3139  -23.1489  -14.8036 C   0  0  2  0  0  0  0  0  0  0  0  0
   23.1386  -21.9605  -14.9899 N   0  0  0  0  0  0  0  0  0  0  0  0
   21.3586  -22.8933  -13.7312 C   0  0  0  0  0  0  0  0  0  0  0  0
   21.7662  -22.5012  -12.6104 O   0  0  0  0  0  0  0  0  0  0  0  0
   19.9369  -23.0553  -13.8471 N   0  0  0  0  0  0  0  0  0  0  0  0
   19.0438  -22.8735  -12.7380 C   0  0  1  0  0  0  0  0  0  0  0  0
   17.9628  -21.8958  -13.1975 C   0  0  0  0  0  0  0  0  0  0  0  0
   16.9534  -21.6855  -12.0829 C   0  0  0  0  0  0  0  0  0  0  0  0
   15.9530  -20.6908  -12.5790 C   0  0  0  0  0  0  0  0  0  0  0  0
   14.7374  -20.9781  -12.7312 O   0  0  0  0  0  0  0  0  0  0  0  0
   18.3816  -24.0495  -12.2007 C   0  0  0  0  0  0  0  0  0  0  0  0
   18.0304  -24.8899  -13.1221 O   0  0  0  0  0  0  0  0  0  0  0  0
   16.3404  -19.3975  -12.8926 O   0  0  0  0  0  0  0  0  0  0  0  0
   18.0726  -24.4059  -10.8892 N   0  0  0  0  0  0  0  0  0  0  0  0
   18.1405  -23.7396   -9.6201 C   0  0  0  0  0  0  0  0  0  0  0  0
   18.8976  -24.7687   -8.7674 C   0  0  0  0  0  0  0  0  0  0  0  0
   18.1808  -26.0448   -9.1805 C   0  0  0  0  0  0  0  0  0  0  0  0
   17.5413  -25.7428  -10.5198 C   0  0  1  0  0  0  0  0  0  0  0  0
   16.0769  -25.6268  -10.4387 C   0  0  0  0  0  0  0  0  0  0  0  0
   15.3567  -26.6317  -10.3118 O   0  0  0  0  0  0  0  0  0  0  0  0
   15.4616  -24.3600  -10.5045 O   0  0  0  0  0  0  0  0  0  0  0  0
  2  3  1  0
  2  1  1  0
  3  5  1  0
  3  4  1  6
  5  7  1  0
  5  6  1  1
  7  8  2  0
  9 10  1  0
  9  7  1  0
 10 11  1  6
 11 12  1  0
 13 12  1  0
 13 17  1  0
 14 13  2  0
 15 18  1  0
 15 10  1  0
 16 15  2  0
 18 19  1  0
 20 19  1  0
 21 20  1  0
 22 21  1  0
 22 18  1  0
 22 23  1  1
 24 23  2  0
 25 23  1  0
M  END
$$$$
