IEP.pdb
     RDKit          3D

 25 25  0  0  1  0  0  0  0  0999 V2000
   13.1000  -12.2853  -16.3032 C   0  0  0  0  0  0  0  0  0  0  0  0
   14.3217  -13.0397  -16.7814 C   0  0  0  0  0  0  0  0  0  0  0  0
   15.5628  -12.3045  -16.3545 C   0  0  2  0  0  0  0  0  0  0  0  0
   15.5814  -10.9191  -16.9642 C   0  0  0  0  0  0  0  0  0  0  0  0
   16.8313  -13.0008  -16.7767 C   0  0  2  0  0  0  0  0  0  0  0  0
   16.8780  -14.3300  -16.1782 N   0  0  0  0  0  0  0  0  0  0  0  0
   18.0502  -12.2831  -16.4206 C   0  0  0  0  0  0  0  0  0  0  0  0
   18.3844  -12.1769  -15.2151 O   0  0  0  0  0  0  0  0  0  0  0  0
   18.9386  -11.6629  -17.3625 N   0  0  0  0  0  0  0  0  0  0  0  0
   20.0914  -10.9087  -16.9590 C   0  0  1  0  0  0  0  0  0  0  0  0
   21.0297  -10.8580  -18.1642 C   0  0  0  0  0  0  0  0  0  0  0  0
   22.2873  -10.0871  -17.8037 C   0  0  0  0  0  0  0  0  0  0  0  0
   23.1102   -9.9839  -19.0481 C   0  0  0  0  0  0  0  0  0  0  0  0
   22.7056  -10.4134  -20.1596 O   0  0  0  0  0  0  0  0  0  0  0  0
   19.8836   -9.5466  -16.4988 C   0  0  0  0  0  0  0  0  0  0  0  0
   18.9043   -8.9570  -17.1087 O   0  0  0  0  0  0  0  0  0  0  0  0
   24.3673   -9.4012  -19.0160 O   0  0  0  0  0  0  0  0  0  0  0  0
   20.5520   -8.7954  -15.5336 N   0  0  0  0  0  0  0  0  0  0  0  0
   21.6958   -9.0177  -14.6961 C   0  0  0  0  0  0  0  0  0  0  0  0
   21.1466   -8.6421  -13.3116 C   0  0  0  0  0  0  0  0  0  0  0  0
   20.4009   -7.3613  -13.6527 C   0  0  0  0  0  0  0  0  0  0  0  0
   20.1305   -7.4263  -15.1415 C   0  0  1  0  0  0  0  0  0  0  0  0
   20.9493   -6.4769  -15.9114 C   0  0  0  0  0  0  0  0  0  0  0  0
   21.9826   -6.8436  -16.4967 O   0  0  0  0  0  0  0  0  0  0  0  0
   20.5700   -5.1218  -15.9978 O   0  0  0  0  0  0  0  0  0  0  0  0
  2  3  1  0
  2  1  1  0
  3  5  1  0
  3  4  1  6
  5  7  1  0
  5  6  1  1
  7  8  2  0
  9 10  1  0
  9  7  1  0
 10 11  1  6
 11 12  1  0
 13 12  1  0
 13 17  1  0
 14 13  2  0
 15 18  1  0
 15 10  1  0
 16 15  2  0
 18 19  1  0
 20 19  1  0
 21 20  1  0
 22 21  1  0
 22 18  1  0
 22 23  1  6
 24 23  2  0
 25 23  1  0
M  END
$$$$
