IEP.pdb
     RDKit          3D

 25 25  0  0  1  0  0  0  0  0999 V2000
   25.5625  -12.9809  -16.8808 C   0  0  0  0  0  0  0  0  0  0  0  0
   24.1987  -13.1157  -16.2387 C   0  0  0  0  0  0  0  0  0  0  0  0
   23.5090  -11.7789  -16.2431 C   0  0  2  0  0  0  0  0  0  0  0  0
   24.3393  -10.7636  -15.4873 C   0  0  0  0  0  0  0  0  0  0  0  0
   22.1474  -11.8194  -15.5976 C   0  0  2  0  0  0  0  0  0  0  0  0
   21.3249  -12.8244  -16.2614 N   0  0  0  0  0  0  0  0  0  0  0  0
   21.4399  -10.5440  -15.6217 C   0  0  0  0  0  0  0  0  0  0  0  0
   21.0593  -10.0600  -16.7158 O   0  0  0  0  0  0  0  0  0  0  0  0
   21.1261   -9.7610  -14.4600 N   0  0  0  0  0  0  0  0  0  0  0  0
   20.3990   -8.5254  -14.5320 C   0  0  1  0  0  0  0  0  0  0  0  0
   19.4765   -8.4844  -13.3143 C   0  0  0  0  0  0  0  0  0  0  0  0
   18.2631   -9.3635  -13.5596 C   0  0  0  0  0  0  0  0  0  0  0  0
   17.3446   -9.1785  -12.3940 C   0  0  0  0  0  0  0  0  0  0  0  0
   17.6216   -8.4129  -11.4344 O   0  0  0  0  0  0  0  0  0  0  0  0
   21.1624   -7.2897  -14.5544 C   0  0  0  0  0  0  0  0  0  0  0  0
   22.2709   -7.3751  -13.8892 O   0  0  0  0  0  0  0  0  0  0  0  0
   16.1375   -9.8567  -12.3327 O   0  0  0  0  0  0  0  0  0  0  0  0
   20.8982   -6.0624  -15.1598 N   0  0  0  0  0  0  0  0  0  0  0  0
   19.7947   -5.5189  -15.8987 C   0  0  0  0  0  0  0  0  0  0  0  0
   20.4977   -4.9635  -17.1463 C   0  0  0  0  0  0  0  0  0  0  0  0
   21.6938   -4.2791  -16.5030 C   0  0  0  0  0  0  0  0  0  0  0  0
   21.8613   -4.9319  -15.1466 C   0  0  1  0  0  0  0  0  0  0  0  0
   21.4819   -4.0442  -14.0363 C   0  0  0  0  0  0  0  0  0  0  0  0
   22.2236   -3.1163  -13.6705 O   0  0  0  0  0  0  0  0  0  0  0  0
   20.2579   -4.2347  -13.3632 O   0  0  0  0  0  0  0  0  0  0  0  0
  2  3  1  0
  2  1  1  0
  3  5  1  0
  3  4  1  1
  5  7  1  0
  5  6  1  6
  7  8  2  0
  9 10  1  0
  9  7  1  0
 10 11  1  1
 11 12  1  0
 13 12  1  0
 13 17  1  0
 14 13  2  0
 15 18  1  0
 15 10  1  0
 16 15  2  0
 18 19  1  0
 20 19  1  0
 21 20  1  0
 22 21  1  0
 22 18  1  0
 22 23  1  1
 24 23  2  0
 25 23  1  0
M  END
$$$$
