GDF.pdb
     RDKit          3D

 24 24  0  0  1  0  0  0  0  0999 V2000
    5.1920  -19.2870   21.6071 N   0  0  0  0  0  0  0  0  0  0  0  0
    5.6017  -17.9657   21.9914 C   0  0  0  0  0  0  0  0  0  0  0  0
    7.0283  -17.9051   22.3985 C   0  0  0  0  0  0  0  0  0  0  0  0
    7.6077  -18.8254   23.0330 O   0  0  0  0  0  0  0  0  0  0  0  0
    7.7742  -16.7487   22.0529 N   0  0  0  0  0  0  0  0  0  0  0  0
    9.1239  -16.5086   22.4632 C   0  0  1  0  0  0  0  0  0  0  0  0
    9.7543  -15.5224   21.5077 C   0  0  0  0  0  0  0  0  0  0  0  0
    9.8249  -16.0137   20.1304 C   0  0  0  0  0  0  0  0  0  0  0  0
   10.6597  -16.9222   19.8664 O   0  0  0  0  0  0  0  0  0  0  0  0
    9.2525  -16.0753   23.8579 C   0  0  0  0  0  0  0  0  0  0  0  0
   10.0333  -15.1272   24.1224 O   0  0  0  0  0  0  0  0  0  0  0  0
    9.0551  -15.5696   19.0837 O   0  0  0  0  0  0  0  0  0  0  0  0
    8.5350  -16.6789   24.9199 N   0  0  0  0  0  0  0  0  0  0  0  0
    8.8115  -16.2923   26.3063 C   0  0  1  0  0  0  0  0  0  0  0  0
    7.5875  -15.7752   26.9795 C   0  0  0  0  0  0  0  0  0  0  0  0
    7.4300  -14.3329   26.7265 C   0  0  0  0  0  0  0  0  0  0  0  0
    6.3278  -13.8232   26.0546 C   0  0  0  0  0  0  0  0  0  0  0  0
    6.1651  -12.4624   25.8333 C   0  0  0  0  0  0  0  0  0  0  0  0
    7.1282  -11.5714   26.2934 C   0  0  0  0  0  0  0  0  0  0  0  0
    8.2246  -12.0503   26.9592 C   0  0  0  0  0  0  0  0  0  0  0  0
    8.3570  -13.4158   27.1639 C   0  0  0  0  0  0  0  0  0  0  0  0
    9.3910  -17.4687   26.9593 C   0  0  0  0  0  0  0  0  0  0  0  0
    9.8401  -17.3826   28.1251 O   0  0  0  0  0  0  0  0  0  0  0  0
    9.4624  -18.7131   26.3128 O   0  0  0  0  0  0  0  0  0  0  0  0
  2  1  1  0
  3  2  1  0
  4  3  2  0
  5  3  1  0
  6 10  1  0
  6  5  1  0
  6  7  1  6
  8  7  1  0
  9  8  2  0
 10 13  1  0
 11 10  2  0
 12  8  1  0
 13 14  1  0
 14 15  1  1
 14 22  1  0
 15 16  1  0
 16 17  2  0
 17 18  1  0
 19 18  2  0
 20 19  1  0
 21 20  2  0
 21 16  1  0
 22 23  2  0
 22 24  1  0
M  END
$$$$
