GDF.pdb
     RDKit          3D

 24 24  0  0  1  0  0  0  0  0999 V2000
  -10.9525  -24.4620   24.3892 N   0  0  0  0  0  0  0  0  0  0  0  0
  -10.7278  -23.1692   24.9721 C   0  0  0  0  0  0  0  0  0  0  0  0
   -9.7878  -23.2152   26.1204 C   0  0  0  0  0  0  0  0  0  0  0  0
   -9.6433  -22.2673   26.9363 O   0  0  0  0  0  0  0  0  0  0  0  0
   -9.0138  -24.3900   26.3048 N   0  0  0  0  0  0  0  0  0  0  0  0
   -8.1203  -24.6017   27.4023 C   0  0  1  0  0  0  0  0  0  0  0  0
   -8.0494  -26.0827   27.6927 C   0  0  0  0  0  0  0  0  0  0  0  0
   -9.0705  -26.5376   28.6382 C   0  0  0  0  0  0  0  0  0  0  0  0
   -9.6096  -25.6783   29.3885 O   0  0  0  0  0  0  0  0  0  0  0  0
   -6.7890  -24.0201   27.2050 C   0  0  0  0  0  0  0  0  0  0  0  0
   -6.1002  -24.4140   26.2309 O   0  0  0  0  0  0  0  0  0  0  0  0
   -9.5013  -27.8330   28.7863 O   0  0  0  0  0  0  0  0  0  0  0  0
   -6.2456  -23.0338   28.0646 N   0  0  0  0  0  0  0  0  0  0  0  0
   -4.9089  -22.4908   27.8073 C   0  0  1  0  0  0  0  0  0  0  0  0
   -4.9494  -21.0128   27.6266 C   0  0  0  0  0  0  0  0  0  0  0  0
   -5.1289  -20.6718   26.2052 C   0  0  0  0  0  0  0  0  0  0  0  0
   -4.1246  -20.0636   25.4653 C   0  0  0  0  0  0  0  0  0  0  0  0
   -4.2821  -19.7604   24.1198 C   0  0  0  0  0  0  0  0  0  0  0  0
   -5.4777  -20.0699   23.4811 C   0  0  0  0  0  0  0  0  0  0  0  0
   -6.4835  -20.6704   24.1900 C   0  0  0  0  0  0  0  0  0  0  0  0
   -6.2939  -20.9601   25.5332 C   0  0  0  0  0  0  0  0  0  0  0  0
   -4.0612  -22.9256   28.9201 C   0  0  0  0  0  0  0  0  0  0  0  0
   -2.8159  -22.9487   28.7895 O   0  0  0  0  0  0  0  0  0  0  0  0
   -4.6048  -23.3251   30.1516 O   0  0  0  0  0  0  0  0  0  0  0  0
  2  1  1  0
  3  2  1  0
  4  3  2  0
  5  3  1  0
  6 10  1  0
  6  5  1  0
  6  7  1  6
  8  7  1  0
  9  8  2  0
 10 13  1  0
 11 10  2  0
 12  8  1  0
 13 14  1  0
 14 15  1  1
 14 22  1  0
 15 16  1  0
 16 17  2  0
 17 18  1  0
 19 18  2  0
 20 19  1  0
 21 20  2  0
 21 16  1  0
 22 23  2  0
 22 24  1  0
M  END
$$$$
