GDF.pdb
     RDKit          3D

 24 24  0  0  1  0  0  0  0  0999 V2000
    4.8887  -18.6679   20.7680 N   0  0  0  0  0  0  0  0  0  0  0  0
    5.3785  -18.5970   22.1158 C   0  0  0  0  0  0  0  0  0  0  0  0
    6.7754  -18.0996   22.1912 C   0  0  0  0  0  0  0  0  0  0  0  0
    7.7379  -18.7965   22.6071 O   0  0  0  0  0  0  0  0  0  0  0  0
    7.0353  -16.7692   21.7719 N   0  0  0  0  0  0  0  0  0  0  0  0
    8.3262  -16.1525   21.8039 C   0  0  1  0  0  0  0  0  0  0  0  0
    8.3404  -15.0035   20.8229 C   0  0  0  0  0  0  0  0  0  0  0  0
    8.3400  -15.4354   19.4240 C   0  0  0  0  0  0  0  0  0  0  0  0
    8.8861  -16.5376   19.1431 O   0  0  0  0  0  0  0  0  0  0  0  0
    8.7505  -15.7320   23.1428 C   0  0  0  0  0  0  0  0  0  0  0  0
    9.8561  -15.1481   23.2663 O   0  0  0  0  0  0  0  0  0  0  0  0
    7.7926  -14.7405   18.3738 O   0  0  0  0  0  0  0  0  0  0  0  0
    7.9686  -15.9553   24.3028 N   0  0  0  0  0  0  0  0  0  0  0  0
    8.4989  -15.6079   25.6242 C   0  0  1  0  0  0  0  0  0  0  0  0
    7.4046  -15.2643   26.5746 C   0  0  0  0  0  0  0  0  0  0  0  0
    7.1557  -13.8127   26.5714 C   0  0  0  0  0  0  0  0  0  0  0  0
    8.1937  -12.8915   26.5740 C   0  0  0  0  0  0  0  0  0  0  0  0
    7.9634  -11.5228   26.5490 C   0  0  0  0  0  0  0  0  0  0  0  0
    6.6575  -11.0462   26.5204 C   0  0  0  0  0  0  0  0  0  0  0  0
    5.6165  -11.9355   26.5172 C   0  0  0  0  0  0  0  0  0  0  0  0
    5.8810  -13.2970   26.5426 C   0  0  0  0  0  0  0  0  0  0  0  0
    9.3194  -16.7424   26.0553 C   0  0  0  0  0  0  0  0  0  0  0  0
   10.0072  -16.6597   27.0986 O   0  0  0  0  0  0  0  0  0  0  0  0
    9.3634  -17.9421   25.3271 O   0  0  0  0  0  0  0  0  0  0  0  0
  2  1  1  0
  3  2  1  0
  4  3  2  0
  5  3  1  0
  6 10  1  0
  6  5  1  0
  6  7  1  6
  8  7  1  0
  9  8  2  0
 10 13  1  0
 11 10  2  0
 12  8  1  0
 13 14  1  0
 14 15  1  1
 14 22  1  0
 15 16  1  0
 16 17  2  0
 17 18  1  0
 19 18  2  0
 20 19  1  0
 21 20  2  0
 21 16  1  0
 22 23  2  0
 22 24  1  0
M  END
$$$$
