GDF.pdb
     RDKit          3D

 24 24  0  0  1  0  0  0  0  0999 V2000
    4.8938  -15.8516   20.3675 N   0  0  0  0  0  0  0  0  0  0  0  0
    6.1139  -15.1219   20.5686 C   0  0  0  0  0  0  0  0  0  0  0  0
    7.0581  -15.8250   21.4733 C   0  0  0  0  0  0  0  0  0  0  0  0
    6.7394  -16.8285   22.1637 O   0  0  0  0  0  0  0  0  0  0  0  0
    8.3878  -15.3381   21.5620 N   0  0  0  0  0  0  0  0  0  0  0  0
    9.4349  -15.9838   22.2930 C   0  0  1  0  0  0  0  0  0  0  0  0
   10.7628  -15.5952   21.6858 C   0  0  0  0  0  0  0  0  0  0  0  0
   11.8755  -16.4299   22.1425 C   0  0  0  0  0  0  0  0  0  0  0  0
   11.8027  -17.6745   21.9480 O   0  0  0  0  0  0  0  0  0  0  0  0
    9.3984  -15.7259   23.7357 C   0  0  0  0  0  0  0  0  0  0  0  0
    9.9002  -14.6581   24.1676 O   0  0  0  0  0  0  0  0  0  0  0  0
   13.0077  -15.9762   22.7732 O   0  0  0  0  0  0  0  0  0  0  0  0
    8.8222  -16.6279   24.6638 N   0  0  0  0  0  0  0  0  0  0  0  0
    8.8608  -16.3303   26.0983 C   0  0  1  0  0  0  0  0  0  0  0  0
    7.5268  -15.8952   26.5981 C   0  0  0  0  0  0  0  0  0  0  0  0
    7.4424  -14.4253   26.6301 C   0  0  0  0  0  0  0  0  0  0  0  0
    8.4496  -13.6455   27.1811 C   0  0  0  0  0  0  0  0  0  0  0  0
    8.3837  -12.2589   27.1935 C   0  0  0  0  0  0  0  0  0  0  0  0
    7.2806  -11.6184   26.6403 C   0  0  0  0  0  0  0  0  0  0  0  0
    6.2739  -12.3662   26.0906 C   0  0  0  0  0  0  0  0  0  0  0  0
    6.3706  -13.7499   26.0942 C   0  0  0  0  0  0  0  0  0  0  0  0
    9.3746  -17.5324   26.7596 C   0  0  0  0  0  0  0  0  0  0  0  0
    9.6612  -17.5050   27.9784 O   0  0  0  0  0  0  0  0  0  0  0  0
    9.5609  -18.7371   26.0629 O   0  0  0  0  0  0  0  0  0  0  0  0
  2  1  1  0
  3  2  1  0
  4  3  2  0
  5  3  1  0
  6 10  1  0
  6  5  1  0
  6  7  1  6
  8  7  1  0
  9  8  2  0
 10 13  1  0
 11 10  2  0
 12  8  1  0
 13 14  1  0
 14 15  1  1
 14 22  1  0
 15 16  1  0
 16 17  2  0
 17 18  1  0
 19 18  2  0
 20 19  1  0
 21 20  2  0
 21 16  1  0
 22 23  2  0
 22 24  1  0
M  END
$$$$
