GDF.pdb
     RDKit          3D

 24 24  0  0  1  0  0  0  0  0999 V2000
    4.9084  -15.7058   20.7468 N   0  0  0  0  0  0  0  0  0  0  0  0
    6.1815  -15.0612   20.9049 C   0  0  0  0  0  0  0  0  0  0  0  0
    7.1294  -15.8601   21.7220 C   0  0  0  0  0  0  0  0  0  0  0  0
    6.7795  -16.8435   22.4260 O   0  0  0  0  0  0  0  0  0  0  0  0
    8.5000  -15.4934   21.7063 N   0  0  0  0  0  0  0  0  0  0  0  0
    9.5211  -16.1622   22.4530 C   0  0  1  0  0  0  0  0  0  0  0  0
   10.8611  -15.8571   21.8252 C   0  0  0  0  0  0  0  0  0  0  0  0
   11.1190  -16.6261   20.6063 C   0  0  0  0  0  0  0  0  0  0  0  0
   12.2555  -17.1566   20.4686 O   0  0  0  0  0  0  0  0  0  0  0  0
    9.5074  -15.8540   23.8863 C   0  0  0  0  0  0  0  0  0  0  0  0
   10.0608  -14.7964   24.2782 O   0  0  0  0  0  0  0  0  0  0  0  0
   10.2247  -16.8255   19.5837 O   0  0  0  0  0  0  0  0  0  0  0  0
    8.8975  -16.6965   24.8481 N   0  0  0  0  0  0  0  0  0  0  0  0
    8.9014  -16.3182   26.2640 C   0  0  1  0  0  0  0  0  0  0  0  0
    7.5243  -16.0281   26.7518 C   0  0  0  0  0  0  0  0  0  0  0  0
    7.1722  -14.6212   26.4961 C   0  0  0  0  0  0  0  0  0  0  0  0
    7.8908  -13.5731   27.0542 C   0  0  0  0  0  0  0  0  0  0  0  0
    7.5755  -12.2457   26.7981 C   0  0  0  0  0  0  0  0  0  0  0  0
    6.5096  -11.9422   25.9586 C   0  0  0  0  0  0  0  0  0  0  0  0
    5.7856  -12.9590   25.3959 C   0  0  0  0  0  0  0  0  0  0  0  0
    6.1268  -14.2748   25.6722 C   0  0  0  0  0  0  0  0  0  0  0  0
    9.5648  -17.4076   26.9846 C   0  0  0  0  0  0  0  0  0  0  0  0
    9.7052  -18.5268   26.4405 O   0  0  0  0  0  0  0  0  0  0  0  0
   10.0584  -17.2390   28.2883 O   0  0  0  0  0  0  0  0  0  0  0  0
  2  1  1  0
  3  2  1  0
  4  3  2  0
  5  3  1  0
  6 10  1  0
  6  5  1  0
  6  7  1  6
  8  7  1  0
  9  8  2  0
 10 13  1  0
 11 10  2  0
 12  8  1  0
 13 14  1  0
 14 15  1  1
 14 22  1  0
 15 16  1  0
 16 17  2  0
 17 18  1  0
 19 18  2  0
 20 19  1  0
 21 20  2  0
 21 16  1  0
 22 23  2  0
 22 24  1  0
M  END
$$$$
