GDF.pdb
     RDKit          3D

 24 24  0  0  1  0  0  0  0  0999 V2000
    8.5589  -13.2114   18.0793 N   0  0  0  0  0  0  0  0  0  0  0  0
    7.6914  -13.1154   19.2193 C   0  0  0  0  0  0  0  0  0  0  0  0
    7.9604  -14.1667   20.2327 C   0  0  0  0  0  0  0  0  0  0  0  0
    7.2638  -14.3245   21.2695 O   0  0  0  0  0  0  0  0  0  0  0  0
    9.0603  -15.0369   20.0182 N   0  0  0  0  0  0  0  0  0  0  0  0
    9.3972  -16.1345   20.8722 C   0  0  1  0  0  0  0  0  0  0  0  0
   10.3421  -17.0532   20.1333 C   0  0  0  0  0  0  0  0  0  0  0  0
    9.7541  -17.6431   18.9293 C   0  0  0  0  0  0  0  0  0  0  0  0
    8.8060  -18.4633   19.0725 O   0  0  0  0  0  0  0  0  0  0  0  0
    9.9363  -15.7303   22.1743 C   0  0  0  0  0  0  0  0  0  0  0  0
   10.8916  -14.9148   22.2016 O   0  0  0  0  0  0  0  0  0  0  0  0
   10.1457  -17.3826   17.6393 O   0  0  0  0  0  0  0  0  0  0  0  0
    9.4271  -16.2190   23.4027 N   0  0  0  0  0  0  0  0  0  0  0  0
    9.9495  -15.7039   24.6714 C   0  0  1  0  0  0  0  0  0  0  0  0
    8.8526  -15.4515   25.6471 C   0  0  0  0  0  0  0  0  0  0  0  0
    9.4031  -15.0015   26.9368 C   0  0  0  0  0  0  0  0  0  0  0  0
    9.8309  -15.8999   27.9042 C   0  0  0  0  0  0  0  0  0  0  0  0
   10.3705  -15.4795   29.1122 C   0  0  0  0  0  0  0  0  0  0  0  0
   10.4920  -14.1195   29.3742 C   0  0  0  0  0  0  0  0  0  0  0  0
   10.0770  -13.2135   28.4352 C   0  0  0  0  0  0  0  0  0  0  0  0
    9.5423  -13.6667   27.2382 C   0  0  0  0  0  0  0  0  0  0  0  0
   10.9419  -16.6751   25.1384 C   0  0  0  0  0  0  0  0  0  0  0  0
   10.7161  -17.9026   25.0363 O   0  0  0  0  0  0  0  0  0  0  0  0
   12.1606  -16.2715   25.7072 O   0  0  0  0  0  0  0  0  0  0  0  0
  2  1  1  0
  3  2  1  0
  4  3  2  0
  5  3  1  0
  6 10  1  0
  6  5  1  0
  6  7  1  6
  8  7  1  0
  9  8  2  0
 10 13  1  0
 11 10  2  0
 12  8  1  0
 13 14  1  0
 14 15  1  1
 14 22  1  0
 15 16  1  0
 16 17  2  0
 17 18  1  0
 19 18  2  0
 20 19  1  0
 21 20  2  0
 21 16  1  0
 22 23  2  0
 22 24  1  0
M  END
$$$$
