GDF.pdb
     RDKit          3D

 24 24  0  0  1  0  0  0  0  0999 V2000
    7.9125  -17.2074   16.3845 N   0  0  0  0  0  0  0  0  0  0  0  0
    8.4714  -16.2453   17.2919 C   0  0  0  0  0  0  0  0  0  0  0  0
    8.7941  -16.8300   18.6179 C   0  0  0  0  0  0  0  0  0  0  0  0
    7.9281  -17.0659   19.5009 O   0  0  0  0  0  0  0  0  0  0  0  0
   10.1499  -17.1378   18.9014 N   0  0  0  0  0  0  0  0  0  0  0  0
   10.6235  -17.5930   20.1726 C   0  0  1  0  0  0  0  0  0  0  0  0
   12.0445  -18.0819   20.0153 C   0  0  0  0  0  0  0  0  0  0  0  0
   12.1909  -19.1190   18.9924 C   0  0  0  0  0  0  0  0  0  0  0  0
   11.5035  -20.1706   19.1107 O   0  0  0  0  0  0  0  0  0  0  0  0
   10.5045  -16.5974   21.2422 C   0  0  0  0  0  0  0  0  0  0  0  0
   11.2681  -15.5999   21.2215 O   0  0  0  0  0  0  0  0  0  0  0  0
   13.0203  -19.0521   17.9002 O   0  0  0  0  0  0  0  0  0  0  0  0
    9.5663  -16.7109   22.2975 N   0  0  0  0  0  0  0  0  0  0  0  0
    9.5276  -15.7002   23.3580 C   0  0  1  0  0  0  0  0  0  0  0  0
    8.1780  -15.0794   23.4668 C   0  0  0  0  0  0  0  0  0  0  0  0
    7.9087  -14.2228   22.2996 C   0  0  0  0  0  0  0  0  0  0  0  0
    8.6772  -13.1011   22.0212 C   0  0  0  0  0  0  0  0  0  0  0  0
    8.4402  -12.3036   20.9099 C   0  0  0  0  0  0  0  0  0  0  0  0
    7.4044  -12.6267   20.0406 C   0  0  0  0  0  0  0  0  0  0  0  0
    6.6323  -13.7288   20.2939 C   0  0  0  0  0  0  0  0  0  0  0  0
    6.8956  -14.5047   21.4131 C   0  0  0  0  0  0  0  0  0  0  0  0
    9.9706  -16.3665   24.5852 C   0  0  0  0  0  0  0  0  0  0  0  0
   10.1349  -15.7044   25.6354 O   0  0  0  0  0  0  0  0  0  0  0  0
   10.2225  -17.7473   24.6272 O   0  0  0  0  0  0  0  0  0  0  0  0
  2  1  1  0
  3  2  1  0
  4  3  2  0
  5  3  1  0
  6 10  1  0
  6  5  1  0
  6  7  1  6
  8  7  1  0
  9  8  2  0
 10 13  1  0
 11 10  2  0
 12  8  1  0
 13 14  1  0
 14 15  1  1
 14 22  1  0
 15 16  1  0
 16 17  2  0
 17 18  1  0
 19 18  2  0
 20 19  1  0
 21 20  2  0
 21 16  1  0
 22 23  2  0
 22 24  1  0
M  END
$$$$
