GDF.pdb
     RDKit          3D

 24 24  0  0  1  0  0  0  0  0999 V2000
    6.9780  -12.9371   19.1412 N   0  0  0  0  0  0  0  0  0  0  0  0
    8.1450  -13.0164   19.9740 C   0  0  0  0  0  0  0  0  0  0  0  0
    8.2255  -14.2945   20.7253 C   0  0  0  0  0  0  0  0  0  0  0  0
    7.2761  -15.1185   20.7951 O   0  0  0  0  0  0  0  0  0  0  0  0
    9.4366  -14.5997   21.3984 N   0  0  0  0  0  0  0  0  0  0  0  0
    9.6887  -15.8299   22.0844 C   0  0  1  0  0  0  0  0  0  0  0  0
   11.0087  -16.3904   21.6084 C   0  0  0  0  0  0  0  0  0  0  0  0
   11.3271  -17.6963   22.1885 C   0  0  0  0  0  0  0  0  0  0  0  0
   10.4617  -18.6106   22.1031 O   0  0  0  0  0  0  0  0  0  0  0  0
    9.6395  -15.7163   23.5453 C   0  0  0  0  0  0  0  0  0  0  0  0
   10.4086  -14.8990   24.1101 O   0  0  0  0  0  0  0  0  0  0  0  0
   12.4981  -18.0224   22.8271 O   0  0  0  0  0  0  0  0  0  0  0  0
    8.7628  -16.4876   24.3474 N   0  0  0  0  0  0  0  0  0  0  0  0
    8.7060  -16.2668   25.7951 C   0  0  1  0  0  0  0  0  0  0  0  0
    7.3356  -15.8788   26.2313 C   0  0  0  0  0  0  0  0  0  0  0  0
    7.1940  -14.4130   26.2438 C   0  0  0  0  0  0  0  0  0  0  0  0
    7.6516  -13.6418   27.3031 C   0  0  0  0  0  0  0  0  0  0  0  0
    7.5396  -12.2581   27.3086 C   0  0  0  0  0  0  0  0  0  0  0  0
    6.9531  -11.6118   26.2263 C   0  0  0  0  0  0  0  0  0  0  0  0
    6.4941  -12.3511   25.1692 C   0  0  0  0  0  0  0  0  0  0  0  0
    6.6213  -13.7321   25.1949 C   0  0  0  0  0  0  0  0  0  0  0  0
    9.1991  -17.4948   26.4236 C   0  0  0  0  0  0  0  0  0  0  0  0
    9.3394  -18.5364   25.7427 O   0  0  0  0  0  0  0  0  0  0  0  0
    9.5265  -17.5471   27.7881 O   0  0  0  0  0  0  0  0  0  0  0  0
  2  1  1  0
  3  2  1  0
  4  3  2  0
  5  3  1  0
  6 10  1  0
  6  5  1  0
  6  7  1  1
  8  7  1  0
  9  8  2  0
 10 13  1  0
 11 10  2  0
 12  8  1  0
 13 14  1  0
 14 15  1  1
 14 22  1  0
 15 16  1  0
 16 17  2  0
 17 18  1  0
 19 18  2  0
 20 19  1  0
 21 20  2  0
 21 16  1  0
 22 23  2  0
 22 24  1  0
M  END
$$$$
