GDF.pdb
     RDKit          3D

 24 24  0  0  1  0  0  0  0  0999 V2000
    5.4901  -14.7690   20.6445 N   0  0  0  0  0  0  0  0  0  0  0  0
    6.8333  -14.4328   21.0244 C   0  0  0  0  0  0  0  0  0  0  0  0
    7.4671  -15.4770   21.8684 C   0  0  0  0  0  0  0  0  0  0  0  0
    6.8137  -16.2809   22.5840 O   0  0  0  0  0  0  0  0  0  0  0  0
    8.8829  -15.5710   21.8660 N   0  0  0  0  0  0  0  0  0  0  0  0
    9.6331  -16.4498   22.7100 C   0  0  1  0  0  0  0  0  0  0  0  0
   10.9834  -16.6954   22.0782 C   0  0  0  0  0  0  0  0  0  0  0  0
   10.9003  -17.3214   20.7573 C   0  0  0  0  0  0  0  0  0  0  0  0
   10.3611  -18.4591   20.6727 O   0  0  0  0  0  0  0  0  0  0  0  0
    9.7553  -15.9831   24.0944 C   0  0  0  0  0  0  0  0  0  0  0  0
   10.4728  -14.9784   24.3280 O   0  0  0  0  0  0  0  0  0  0  0  0
   11.3628  -16.7768   19.5848 O   0  0  0  0  0  0  0  0  0  0  0  0
    9.1001  -16.6152   25.1797 N   0  0  0  0  0  0  0  0  0  0  0  0
    9.3249  -16.1435   26.5490 C   0  0  1  0  0  0  0  0  0  0  0  0
    8.0448  -15.7620   27.2083 C   0  0  0  0  0  0  0  0  0  0  0  0
    7.5812  -14.4537   26.7160 C   0  0  0  0  0  0  0  0  0  0  0  0
    8.3438  -13.3035   26.8631 C   0  0  0  0  0  0  0  0  0  0  0  0
    7.9200  -12.0725   26.3812 C   0  0  0  0  0  0  0  0  0  0  0  0
    6.6960  -11.9744   25.7290 C   0  0  0  0  0  0  0  0  0  0  0  0
    5.9256  -13.0953   25.5716 C   0  0  0  0  0  0  0  0  0  0  0  0
    6.3782  -14.3102   26.0649 C   0  0  0  0  0  0  0  0  0  0  0  0
   10.0504  -17.2102   27.2433 C   0  0  0  0  0  0  0  0  0  0  0  0
   10.6069  -16.9798   28.3413 O   0  0  0  0  0  0  0  0  0  0  0  0
   10.1463  -18.5064   26.7120 O   0  0  0  0  0  0  0  0  0  0  0  0
  2  1  1  0
  3  2  1  0
  4  3  2  0
  5  3  1  0
  6 10  1  0
  6  5  1  0
  6  7  1  6
  8  7  1  0
  9  8  2  0
 10 13  1  0
 11 10  2  0
 12  8  1  0
 13 14  1  0
 14 15  1  1
 14 22  1  0
 15 16  1  0
 16 17  2  0
 17 18  1  0
 19 18  2  0
 20 19  1  0
 21 20  2  0
 21 16  1  0
 22 23  2  0
 22 24  1  0
M  END
$$$$
