GDF.pdb
     RDKit          3D

 24 24  0  0  1  0  0  0  0  0999 V2000
    4.9483  -15.3048   20.5963 N   0  0  0  0  0  0  0  0  0  0  0  0
    6.2898  -14.8322   20.7925 C   0  0  0  0  0  0  0  0  0  0  0  0
    7.1189  -15.7769   21.5829 C   0  0  0  0  0  0  0  0  0  0  0  0
    6.6358  -16.7087   22.2782 O   0  0  0  0  0  0  0  0  0  0  0  0
    8.5285  -15.6184   21.5505 N   0  0  0  0  0  0  0  0  0  0  0  0
    9.4426  -16.3748   22.3504 C   0  0  1  0  0  0  0  0  0  0  0  0
   10.8260  -16.2520   21.7554 C   0  0  0  0  0  0  0  0  0  0  0  0
   10.9306  -16.8187   20.4096 C   0  0  0  0  0  0  0  0  0  0  0  0
   10.6607  -18.0419   20.2580 O   0  0  0  0  0  0  0  0  0  0  0  0
    9.4262  -16.0152   23.7717 C   0  0  0  0  0  0  0  0  0  0  0  0
   10.0570  -14.9928   24.1395 O   0  0  0  0  0  0  0  0  0  0  0  0
   11.3018  -16.1314   19.2803 O   0  0  0  0  0  0  0  0  0  0  0  0
    8.7302  -16.7700   24.7478 N   0  0  0  0  0  0  0  0  0  0  0  0
    8.7016  -16.3192   26.1421 C   0  0  1  0  0  0  0  0  0  0  0  0
    7.3133  -16.0081   26.5832 C   0  0  0  0  0  0  0  0  0  0  0  0
    7.0050  -14.5867   26.3520 C   0  0  0  0  0  0  0  0  0  0  0  0
    5.8952  -14.1874   25.6206 C   0  0  0  0  0  0  0  0  0  0  0  0
    5.5893  -12.8484   25.4189 C   0  0  0  0  0  0  0  0  0  0  0  0
    6.4112  -11.8666   25.9608 C   0  0  0  0  0  0  0  0  0  0  0  0
    7.5121  -12.2358   26.6865 C   0  0  0  0  0  0  0  0  0  0  0  0
    7.7896  -13.5825   26.8694 C   0  0  0  0  0  0  0  0  0  0  0  0
    9.3502  -17.3683   26.9326 C   0  0  0  0  0  0  0  0  0  0  0  0
    9.5868  -18.4859   26.4195 O   0  0  0  0  0  0  0  0  0  0  0  0
    9.7233  -17.1620   28.2705 O   0  0  0  0  0  0  0  0  0  0  0  0
  2  1  1  0
  3  2  1  0
  4  3  2  0
  5  3  1  0
  6 10  1  0
  6  5  1  0
  6  7  1  6
  8  7  1  0
  9  8  2  0
 10 13  1  0
 11 10  2  0
 12  8  1  0
 13 14  1  0
 14 15  1  1
 14 22  1  0
 15 16  1  0
 16 17  2  0
 17 18  1  0
 19 18  2  0
 20 19  1  0
 21 20  2  0
 21 16  1  0
 22 23  2  0
 22 24  1  0
M  END
$$$$
