GDF.pdb
     RDKit          3D

 24 24  0  0  1  0  0  0  0  0999 V2000
    4.9210  -19.7308   21.8021 N   0  0  0  0  0  0  0  0  0  0  0  0
    5.1953  -18.3214   21.8018 C   0  0  0  0  0  0  0  0  0  0  0  0
    6.6429  -18.0206   21.9381 C   0  0  0  0  0  0  0  0  0  0  0  0
    7.4940  -18.8670   22.3181 O   0  0  0  0  0  0  0  0  0  0  0  0
    7.0865  -16.7103   21.6227 N   0  0  0  0  0  0  0  0  0  0  0  0
    8.4297  -16.2502   21.8009 C   0  0  1  0  0  0  0  0  0  0  0  0
    8.6536  -15.0484   20.9130 C   0  0  0  0  0  0  0  0  0  0  0  0
    8.5029  -15.3448   19.4872 C   0  0  0  0  0  0  0  0  0  0  0  0
    8.4102  -14.3745   18.6859 O   0  0  0  0  0  0  0  0  0  0  0  0
    8.7816  -15.9705   23.1964 C   0  0  0  0  0  0  0  0  0  0  0  0
    9.9209  -15.5036   23.4462 O   0  0  0  0  0  0  0  0  0  0  0  0
    8.4516  -16.6003   18.9336 O   0  0  0  0  0  0  0  0  0  0  0  0
    7.8932  -16.2037   24.2750 N   0  0  0  0  0  0  0  0  0  0  0  0
    8.3222  -15.9373   25.6508 C   0  0  1  0  0  0  0  0  0  0  0  0
    7.2004  -15.4088   26.4761 C   0  0  0  0  0  0  0  0  0  0  0  0
    7.2064  -13.9361   26.4720 C   0  0  0  0  0  0  0  0  0  0  0  0
    8.3822  -13.2086   26.3515 C   0  0  0  0  0  0  0  0  0  0  0  0
    8.3897  -11.8207   26.3254 C   0  0  0  0  0  0  0  0  0  0  0  0
    7.1897  -11.1251   26.4219 C   0  0  0  0  0  0  0  0  0  0  0  0
    6.0164  -11.8206   26.5415 C   0  0  0  0  0  0  0  0  0  0  0  0
    6.0436  -13.2073   26.5644 C   0  0  0  0  0  0  0  0  0  0  0  0
    8.8902  -17.1881   26.1598 C   0  0  0  0  0  0  0  0  0  0  0  0
    8.5769  -18.2803   25.6335 O   0  0  0  0  0  0  0  0  0  0  0  0
    9.7905  -17.2068   27.2372 O   0  0  0  0  0  0  0  0  0  0  0  0
  2  1  1  0
  3  2  1  0
  4  3  2  0
  5  3  1  0
  6 10  1  0
  6  5  1  0
  6  7  1  6
  8  7  1  0
  9  8  2  0
 10 13  1  0
 11 10  2  0
 12  8  1  0
 13 14  1  0
 14 15  1  1
 14 22  1  0
 15 16  1  0
 16 17  2  0
 17 18  1  0
 19 18  2  0
 20 19  1  0
 21 20  2  0
 21 16  1  0
 22 23  2  0
 22 24  1  0
M  END
$$$$
