GDF.pdb
     RDKit          3D

 24 24  0  0  1  0  0  0  0  0999 V2000
    7.8454  -14.3285   15.4602 N   0  0  0  0  0  0  0  0  0  0  0  0
    9.1737  -14.4999   15.9775 C   0  0  0  0  0  0  0  0  0  0  0  0
    9.2501  -15.5560   17.0184 C   0  0  0  0  0  0  0  0  0  0  0  0
    8.2362  -16.0988   17.5308 O   0  0  0  0  0  0  0  0  0  0  0  0
   10.5339  -15.9726   17.4558 N   0  0  0  0  0  0  0  0  0  0  0  0
   10.7594  -16.9854   18.4413 C   0  0  1  0  0  0  0  0  0  0  0  0
   12.1037  -17.6247   18.1824 C   0  0  0  0  0  0  0  0  0  0  0  0
   12.1817  -18.3074   16.8896 C   0  0  0  0  0  0  0  0  0  0  0  0
   11.5011  -19.3580   16.7312 O   0  0  0  0  0  0  0  0  0  0  0  0
   10.6394  -16.5077   19.8222 C   0  0  0  0  0  0  0  0  0  0  0  0
   11.5019  -15.7041   20.2565 O   0  0  0  0  0  0  0  0  0  0  0  0
   12.9394  -17.9039   15.8179 O   0  0  0  0  0  0  0  0  0  0  0  0
    9.5936  -16.9127   20.6878 N   0  0  0  0  0  0  0  0  0  0  0  0
    9.4965  -16.3483   22.0368 C   0  0  1  0  0  0  0  0  0  0  0  0
    8.1364  -15.8003   22.2990 C   0  0  0  0  0  0  0  0  0  0  0  0
    7.8430  -14.6872   21.3805 C   0  0  0  0  0  0  0  0  0  0  0  0
    8.5188  -13.4773   21.4564 C   0  0  0  0  0  0  0  0  0  0  0  0
    8.2603  -12.4334   20.5785 C   0  0  0  0  0  0  0  0  0  0  0  0
    7.2975  -12.5910   19.5879 C   0  0  0  0  0  0  0  0  0  0  0  0
    6.6175  -13.7756   19.4929 C   0  0  0  0  0  0  0  0  0  0  0  0
    6.8998  -14.7989   20.3857 C   0  0  0  0  0  0  0  0  0  0  0  0
    9.8920  -17.4122   22.9631 C   0  0  0  0  0  0  0  0  0  0  0  0
    9.9698  -17.1792   24.1910 O   0  0  0  0  0  0  0  0  0  0  0  0
   10.1927  -18.7085   22.5151 O   0  0  0  0  0  0  0  0  0  0  0  0
  2  1  1  0
  3  2  1  0
  4  3  2  0
  5  3  1  0
  6 10  1  0
  6  5  1  0
  6  7  1  1
  8  7  1  0
  9  8  2  0
 10 13  1  0
 11 10  2  0
 12  8  1  0
 13 14  1  0
 14 15  1  1
 14 22  1  0
 15 16  1  0
 16 17  2  0
 17 18  1  0
 19 18  2  0
 20 19  1  0
 21 20  2  0
 21 16  1  0
 22 23  2  0
 22 24  1  0
M  END
$$$$
