WAR.pdb
     RDKit          3D

 31 32  0  0  1  0  0  0  0  0999 V2000
    7.2697  -16.9443   25.6639 N   0  0  0  0  0  0  0  0  0  0  0  0
    7.3701  -15.7803   24.7708 C   0  0  1  0  0  0  0  0  0  0  0  0
    8.4178  -14.8457   25.2618 C   0  0  0  0  0  0  0  0  0  0  0  0
    8.1260  -14.1189   26.4973 C   0  0  0  0  0  0  0  0  0  0  0  0
    8.6955  -14.2794   27.7545 C   0  0  0  0  0  0  0  0  0  0  0  0
    8.1470  -13.4230   28.6061 N   0  0  0  0  0  0  0  0  0  0  0  0
    7.2338  -12.6936   27.9761 C   0  0  0  0  0  0  0  0  0  0  0  0
    6.4080  -11.6750   28.3994 C   0  0  0  0  0  0  0  0  0  0  0  0
    5.5326  -11.0456   27.5278 C   0  0  0  0  0  0  0  0  0  0  0  0
    5.4892  -11.4495   26.2111 C   0  0  0  0  0  0  0  0  0  0  0  0
    6.3220  -12.4715   25.8004 C   0  0  0  0  0  0  0  0  0  0  0  0
    7.1931  -13.0995   26.6619 C   0  0  0  0  0  0  0  0  0  0  0  0
    7.5308  -16.3102   23.4156 C   0  0  0  0  0  0  0  0  0  0  0  0
    8.0385  -17.4576   23.1964 O   0  0  0  0  0  0  0  0  0  0  0  0
    6.7600  -14.9974   20.0036 C   0  0  0  0  0  0  0  0  0  0  0  0
    7.3741  -16.0468   20.9559 C   0  0  2  0  0  0  0  0  0  0  0  0
    7.1130  -15.5514   22.3034 N   0  0  0  0  0  0  0  0  0  0  0  0
    8.8199  -16.0147   20.7028 C   0  0  0  0  0  0  0  0  0  0  0  0
    9.5945  -15.1375   21.1484 O   0  0  0  0  0  0  0  0  0  0  0  0
   16.1253  -17.8249   21.1614 N   0  0  0  0  0  0  0  0  0  0  0  0
   15.7519  -17.8667   22.5304 C   0  0  0  0  0  0  0  0  0  0  0  0
   16.5620  -17.3852   23.4061 N   0  0  0  0  0  0  0  0  0  0  0  0
   14.5267  -18.4150   22.9775 N   0  0  0  0  0  0  0  0  0  0  0  0
   13.2509  -17.7549   22.8316 C   0  0  0  0  0  0  0  0  0  0  0  0
   12.8172  -17.7168   21.3868 C   0  0  0  0  0  0  0  0  0  0  0  0
   11.3780  -17.3808   21.3056 C   0  0  0  0  0  0  0  0  0  0  0  0
   10.8510  -17.2457   19.8992 C   0  0  2  0  0  0  0  0  0  0  0  0
    9.4200  -17.0282   19.9032 N   0  0  0  0  0  0  0  0  0  0  0  0
   11.2480  -18.3572   19.0124 C   0  0  0  0  0  0  0  0  0  0  0  0
   12.3793  -18.3883   18.2266 O   0  0  0  0  0  0  0  0  0  0  0  0
   10.4950  -19.3711   18.9613 O   0  0  0  0  0  0  0  0  0  0  0  0
  2  1  1  1
  2 13  1  0
  3  2  1  0
  3  4  1  0
  4 12  1  0
  4  5  2  0
  5  6  1  0
  7  6  1  0
  7  8  2  0
  9  8  1  0
 10  9  2  0
 11 10  1  0
 11 12  2  0
 12  7  1  0
 13 14  2  0
 16 15  1  6
 17 13  1  0
 17 16  1  0
 18 16  1  0
 18 19  2  0
 20 21  1  0
 21 22  2  0
 21 23  1  0
 23 24  1  0
 24 25  1  0
 25 26  1  0
 27 26  1  1
 27 28  1  0
 28 18  1  0
 29 27  1  0
 30 29  1  0
 31 29  2  0
M  END
$$$$
