WAR.pdb
     RDKit          3D

 31 32  0  0  1  0  0  0  0  0999 V2000
    8.7173  -16.4933   24.1354 N   0  0  0  0  0  0  0  0  0  0  0  0
    9.4016  -16.4873   25.4370 C   0  0  1  0  0  0  0  0  0  0  0  0
    8.4287  -16.2085   26.5269 C   0  0  0  0  0  0  0  0  0  0  0  0
    7.4054  -15.1993   26.2545 C   0  0  0  0  0  0  0  0  0  0  0  0
    6.0228  -15.3301   26.3001 C   0  0  0  0  0  0  0  0  0  0  0  0
    5.4539  -14.1752   25.9805 N   0  0  0  0  0  0  0  0  0  0  0  0
    6.3939  -13.2736   25.7223 C   0  0  0  0  0  0  0  0  0  0  0  0
    6.3298  -11.9442   25.3657 C   0  0  0  0  0  0  0  0  0  0  0  0
    7.4785  -11.1945   25.1636 C   0  0  0  0  0  0  0  0  0  0  0  0
    8.7088  -11.7943   25.3231 C   0  0  0  0  0  0  0  0  0  0  0  0
    8.7584  -13.1272   25.6804 C   0  0  0  0  0  0  0  0  0  0  0  0
    7.6208  -13.8758   25.8825 C   0  0  0  0  0  0  0  0  0  0  0  0
   10.1514  -17.7422   25.5170 C   0  0  0  0  0  0  0  0  0  0  0  0
   10.7331  -18.1125   26.5878 O   0  0  0  0  0  0  0  0  0  0  0  0
   10.2842  -20.9412   23.9714 C   0  0  0  0  0  0  0  0  0  0  0  0
   11.1383  -19.7379   24.4275 C   0  0  2  0  0  0  0  0  0  0  0  0
   10.2418  -18.5871   24.3921 N   0  0  0  0  0  0  0  0  0  0  0  0
   12.1736  -19.5736   23.3996 C   0  0  0  0  0  0  0  0  0  0  0  0
   12.3420  -20.3566   22.4369 O   0  0  0  0  0  0  0  0  0  0  0  0
   14.2655  -13.6221   19.4685 N   0  0  0  0  0  0  0  0  0  0  0  0
   13.5184  -14.2483   18.4365 C   0  0  0  0  0  0  0  0  0  0  0  0
   13.9880  -14.2340   17.2390 N   0  0  0  0  0  0  0  0  0  0  0  0
   12.2779  -14.8891   18.6648 N   0  0  0  0  0  0  0  0  0  0  0  0
   11.9391  -15.5684   19.8929 C   0  0  0  0  0  0  0  0  0  0  0  0
   12.7966  -16.7936   20.0944 C   0  0  0  0  0  0  0  0  0  0  0  0
   12.3956  -17.4851   21.3401 C   0  0  0  0  0  0  0  0  0  0  0  0
   13.5397  -17.7999   22.2707 C   0  0  2  0  0  0  0  0  0  0  0  0
   13.0649  -18.4655   23.4651 N   0  0  0  0  0  0  0  0  0  0  0  0
   14.3874  -16.6310   22.5779 C   0  0  0  0  0  0  0  0  0  0  0  0
   14.4999  -16.0269   23.8111 O   0  0  0  0  0  0  0  0  0  0  0  0
   15.0721  -16.1337   21.6391 O   0  0  0  0  0  0  0  0  0  0  0  0
  2  1  1  6
  2 13  1  0
  3  2  1  0
  3  4  1  0
  4 12  1  0
  4  5  2  0
  5  6  1  0
  7  6  1  0
  7  8  2  0
  9  8  1  0
 10  9  2  0
 11 10  1  0
 11 12  2  0
 12  7  1  0
 13 14  2  0
 16 15  1  6
 17 13  1  0
 17 16  1  0
 18 16  1  0
 18 19  2  0
 20 21  1  0
 21 22  2  0
 21 23  1  0
 23 24  1  0
 24 25  1  0
 25 26  1  0
 27 26  1  1
 27 28  1  0
 28 18  1  0
 29 27  1  0
 30 29  1  0
 31 29  2  0
M  END
$$$$
