WAR.pdb
     RDKit          3D

 31 32  0  0  1  0  0  0  0  0999 V2000
    9.0564  -17.3455   23.8926 N   0  0  0  0  0  0  0  0  0  0  0  0
    9.9168  -16.9380   22.7718 C   0  0  1  0  0  0  0  0  0  0  0  0
   10.1247  -15.4655   22.7937 C   0  0  0  0  0  0  0  0  0  0  0  0
    8.9912  -14.6337   22.3898 C   0  0  0  0  0  0  0  0  0  0  0  0
    7.9556  -14.1377   23.1722 C   0  0  0  0  0  0  0  0  0  0  0  0
    7.1261  -13.4285   22.4182 N   0  0  0  0  0  0  0  0  0  0  0  0
    7.5591  -13.4260   21.1630 C   0  0  0  0  0  0  0  0  0  0  0  0
    7.0745  -12.8346   20.0167 C   0  0  0  0  0  0  0  0  0  0  0  0
    7.7300  -12.9684   18.8024 C   0  0  0  0  0  0  0  0  0  0  0  0
    8.8903  -13.7094   18.7435 C   0  0  0  0  0  0  0  0  0  0  0  0
    9.3647  -14.2967   19.8996 C   0  0  0  0  0  0  0  0  0  0  0  0
    8.7176  -14.1667   21.1078 C   0  0  0  0  0  0  0  0  0  0  0  0
   11.1115  -17.7816   22.8382 C   0  0  0  0  0  0  0  0  0  0  0  0
   11.9804  -17.6479   23.7599 O   0  0  0  0  0  0  0  0  0  0  0  0
   12.2595  -20.9812   21.7271 C   0  0  0  0  0  0  0  0  0  0  0  0
   12.6083  -19.4801   21.8291 C   0  0  2  0  0  0  0  0  0  0  0  0
   11.3268  -18.7834   21.8701 N   0  0  0  0  0  0  0  0  0  0  0  0
   13.2978  -19.1467   20.5765 C   0  0  0  0  0  0  0  0  0  0  0  0
   12.7187  -18.9476   19.4843 O   0  0  0  0  0  0  0  0  0  0  0  0
   16.0743  -13.5254   15.9464 N   0  0  0  0  0  0  0  0  0  0  0  0
   16.6091  -13.1406   17.2039 C   0  0  0  0  0  0  0  0  0  0  0  0
   17.6042  -12.3256   17.2280 N   0  0  0  0  0  0  0  0  0  0  0  0
   16.0970  -13.6132   18.4351 N   0  0  0  0  0  0  0  0  0  0  0  0
   15.0572  -14.6091   18.5430 C   0  0  0  0  0  0  0  0  0  0  0  0
   15.6309  -16.0043   18.5092 C   0  0  0  0  0  0  0  0  0  0  0  0
   14.8936  -16.8711   19.4557 C   0  0  0  0  0  0  0  0  0  0  0  0
   15.4076  -18.2868   19.5296 C   0  0  2  0  0  0  0  0  0  0  0  0
   14.7167  -19.0333   20.5595 N   0  0  0  0  0  0  0  0  0  0  0  0
   16.8754  -18.3741   19.6610 C   0  0  0  0  0  0  0  0  0  0  0  0
   17.7720  -18.3941   18.6150 O   0  0  0  0  0  0  0  0  0  0  0  0
   17.3624  -18.4364   20.8257 O   0  0  0  0  0  0  0  0  0  0  0  0
  2  1  1  1
  2 13  1  0
  3  2  1  0
  3  4  1  0
  4 12  1  0
  4  5  2  0
  5  6  1  0
  7  6  1  0
  7  8  2  0
  9  8  1  0
 10  9  2  0
 11 10  1  0
 11 12  2  0
 12  7  1  0
 13 14  2  0
 16 15  1  6
 17 13  1  0
 17 16  1  0
 18 16  1  0
 18 19  2  0
 20 21  1  0
 21 22  2  0
 21 23  1  0
 23 24  1  0
 24 25  1  0
 25 26  1  0
 27 26  1  1
 27 28  1  0
 28 18  1  0
 29 27  1  0
 30 29  1  0
 31 29  2  0
M  END
$$$$
