WAR.pdb
     RDKit          3D

 31 32  0  0  1  0  0  0  0  0999 V2000
    6.1734  -17.5382   23.6760 N   0  0  0  0  0  0  0  0  0  0  0  0
    7.2943  -16.6035   23.4956 C   0  0  1  0  0  0  0  0  0  0  0  0
    7.7757  -16.1187   24.8168 C   0  0  0  0  0  0  0  0  0  0  0  0
    6.9713  -15.0886   25.4738 C   0  0  0  0  0  0  0  0  0  0  0  0
    5.8398  -15.2437   26.2653 C   0  0  0  0  0  0  0  0  0  0  0  0
    5.4083  -14.0551   26.6658 N   0  0  0  0  0  0  0  0  0  0  0  0
    6.2007  -13.1076   26.1785 C   0  0  0  0  0  0  0  0  0  0  0  0
    6.1942  -11.7361   26.3096 C   0  0  0  0  0  0  0  0  0  0  0  0
    7.1606  -10.9480   25.7036 C   0  0  0  0  0  0  0  0  0  0  0  0
    8.1471  -11.5520   24.9546 C   0  0  0  0  0  0  0  0  0  0  0  0
    8.1415  -12.9272   24.8313 C   0  0  0  0  0  0  0  0  0  0  0  0
    7.1843  -13.7142   25.4312 C   0  0  0  0  0  0  0  0  0  0  0  0
    8.2677  -17.2836   22.6394 C   0  0  0  0  0  0  0  0  0  0  0  0
    8.4033  -18.5500   22.6473 O   0  0  0  0  0  0  0  0  0  0  0  0
   10.2999  -16.3172   19.7171 C   0  0  0  0  0  0  0  0  0  0  0  0
   10.0744  -17.2287   20.9433 C   0  0  2  0  0  0  0  0  0  0  0  0
    9.0863  -16.5388   21.7661 N   0  0  0  0  0  0  0  0  0  0  0  0
   11.3574  -17.2597   21.6562 C   0  0  0  0  0  0  0  0  0  0  0  0
   12.4044  -17.7748   21.2016 O   0  0  0  0  0  0  0  0  0  0  0  0
   13.5219  -19.0798   29.1254 N   0  0  0  0  0  0  0  0  0  0  0  0
   13.1299  -20.3725   28.6891 C   0  0  0  0  0  0  0  0  0  0  0  0
   12.9091  -21.2814   29.5724 N   0  0  0  0  0  0  0  0  0  0  0  0
   12.9704  -20.7086   27.3241 N   0  0  0  0  0  0  0  0  0  0  0  0
   12.0627  -20.0285   26.4306 C   0  0  0  0  0  0  0  0  0  0  0  0
   12.7471  -18.8854   25.7222 C   0  0  0  0  0  0  0  0  0  0  0  0
   11.7969  -18.2315   24.7945 C   0  0  0  0  0  0  0  0  0  0  0  0
   12.4125  -17.1614   23.9286 C   0  0  2  0  0  0  0  0  0  0  0  0
   11.4606  -16.6778   22.9513 N   0  0  0  0  0  0  0  0  0  0  0  0
   13.6926  -17.5653   23.3143 C   0  0  0  0  0  0  0  0  0  0  0  0
   13.8568  -18.5914   22.4096 O   0  0  0  0  0  0  0  0  0  0  0  0
   14.7324  -16.9234   23.6375 O   0  0  0  0  0  0  0  0  0  0  0  0
  2  1  1  1
  2 13  1  0
  3  2  1  0
  3  4  1  0
  4 12  1  0
  4  5  2  0
  5  6  1  0
  7  6  1  0
  7  8  2  0
  9  8  1  0
 10  9  2  0
 11 10  1  0
 11 12  2  0
 12  7  1  0
 13 14  2  0
 16 15  1  6
 17 13  1  0
 17 16  1  0
 18 16  1  0
 18 19  2  0
 20 21  1  0
 21 22  2  0
 21 23  1  0
 23 24  1  0
 24 25  1  0
 25 26  1  0
 27 26  1  6
 27 28  1  0
 28 18  1  0
 29 27  1  0
 30 29  1  0
 31 29  2  0
M  END
$$$$
