WAR.pdb
     RDKit          3D

 31 32  0  0  1  0  0  0  0  0999 V2000
    8.2729  -15.7509   23.1711 N   0  0  0  0  0  0  0  0  0  0  0  0
    9.1905  -15.8019   24.3191 C   0  0  1  0  0  0  0  0  0  0  0  0
    8.4250  -15.9952   25.5795 C   0  0  0  0  0  0  0  0  0  0  0  0
    7.3311  -15.0587   25.8365 C   0  0  0  0  0  0  0  0  0  0  0  0
    5.9636  -15.2607   25.6954 C   0  0  0  0  0  0  0  0  0  0  0  0
    5.3118  -14.1547   26.0291 N   0  0  0  0  0  0  0  0  0  0  0  0
    6.1815  -13.2180   26.3888 C   0  0  0  0  0  0  0  0  0  0  0  0
    6.0191  -11.9221   26.8276 C   0  0  0  0  0  0  0  0  0  0  0  0
    7.1073  -11.1322   27.1653 C   0  0  0  0  0  0  0  0  0  0  0  0
    8.3770  -11.6567   27.0584 C   0  0  0  0  0  0  0  0  0  0  0  0
    8.5254  -12.9567   26.6170 C   0  0  0  0  0  0  0  0  0  0  0  0
    7.4481  -13.7452   26.2808 C   0  0  0  0  0  0  0  0  0  0  0  0
   10.2055  -16.8057   23.9943 C   0  0  0  0  0  0  0  0  0  0  0  0
   11.1339  -17.1137   24.8100 O   0  0  0  0  0  0  0  0  0  0  0  0
   10.5881  -19.4836   21.5283 C   0  0  0  0  0  0  0  0  0  0  0  0
   11.2474  -18.3939   22.4018 C   0  0  2  0  0  0  0  0  0  0  0  0
   10.1727  -17.4709   22.7518 N   0  0  0  0  0  0  0  0  0  0  0  0
   12.2050  -17.7080   21.5255 C   0  0  0  0  0  0  0  0  0  0  0  0
   13.1749  -18.2682   20.9655 O   0  0  0  0  0  0  0  0  0  0  0  0
    8.2928  -15.5445   18.5151 N   0  0  0  0  0  0  0  0  0  0  0  0
    8.2715  -14.1743   18.1445 C   0  0  0  0  0  0  0  0  0  0  0  0
    7.1347  -13.5823   18.0345 N   0  0  0  0  0  0  0  0  0  0  0  0
    9.4460  -13.4276   17.8897 N   0  0  0  0  0  0  0  0  0  0  0  0
   10.7794  -13.9749   17.9743 C   0  0  0  0  0  0  0  0  0  0  0  0
   10.9963  -14.6854   19.2878 C   0  0  0  0  0  0  0  0  0  0  0  0
   12.3637  -14.4120   19.7841 C   0  0  0  0  0  0  0  0  0  0  0  0
   13.0185  -15.5820   20.4744 C   0  0  2  0  0  0  0  0  0  0  0  0
   12.0572  -16.3154   21.2701 N   0  0  0  0  0  0  0  0  0  0  0  0
   14.2214  -15.2122   21.2461 C   0  0  0  0  0  0  0  0  0  0  0  0
   15.4580  -14.9250   20.7106 O   0  0  0  0  0  0  0  0  0  0  0  0
   14.1210  -15.1504   22.5046 O   0  0  0  0  0  0  0  0  0  0  0  0
  2  1  1  6
  2 13  1  0
  3  2  1  0
  3  4  1  0
  4 12  1  0
  4  5  2  0
  5  6  1  0
  7  6  1  0
  7  8  2  0
  9  8  1  0
 10  9  2  0
 11 10  1  0
 11 12  2  0
 12  7  1  0
 13 14  2  0
 16 15  1  6
 17 13  1  0
 17 16  1  0
 18 16  1  0
 18 19  2  0
 20 21  1  0
 21 22  2  0
 21 23  1  0
 23 24  1  0
 24 25  1  0
 25 26  1  0
 27 26  1  1
 27 28  1  0
 28 18  1  0
 29 27  1  0
 30 29  1  0
 31 29  2  0
M  END
$$$$
