WAR.pdb
     RDKit          3D

 31 32  0  0  1  0  0  0  0  0999 V2000
   10.6382  -16.9026   20.3026 N   0  0  0  0  0  0  0  0  0  0  0  0
    9.6252  -16.9134   21.3686 C   0  0  1  0  0  0  0  0  0  0  0  0
    8.2598  -16.8981   20.7791 C   0  0  0  0  0  0  0  0  0  0  0  0
    7.8828  -15.7056   20.0204 C   0  0  0  0  0  0  0  0  0  0  0  0
    7.5614  -15.5993   18.6728 C   0  0  0  0  0  0  0  0  0  0  0  0
    7.2806  -14.3368   18.3786 N   0  0  0  0  0  0  0  0  0  0  0  0
    7.3990  -13.5896   19.4699 C   0  0  0  0  0  0  0  0  0  0  0  0
    7.2066  -12.2444   19.6973 C   0  0  0  0  0  0  0  0  0  0  0  0
    7.3812  -11.6927   20.9572 C   0  0  0  0  0  0  0  0  0  0  0  0
    7.7556  -12.5093   22.0021 C   0  0  0  0  0  0  0  0  0  0  0  0
    7.9454  -13.8554   21.7601 C   0  0  0  0  0  0  0  0  0  0  0  0
    7.7730  -14.4081   20.5111 C   0  0  0  0  0  0  0  0  0  0  0  0
    9.9601  -18.0355   22.2473 C   0  0  0  0  0  0  0  0  0  0  0  0
    9.2027  -18.3878   23.2088 O   0  0  0  0  0  0  0  0  0  0  0  0
   12.6603  -20.5994   22.3173 C   0  0  0  0  0  0  0  0  0  0  0  0
   11.5349  -19.7942   23.0030 C   0  0  2  0  0  0  0  0  0  0  0  0
   11.1462  -18.7688   22.0403 N   0  0  0  0  0  0  0  0  0  0  0  0
   12.1588  -19.1510   24.1660 C   0  0  0  0  0  0  0  0  0  0  0  0
   13.1188  -18.3499   24.0981 O   0  0  0  0  0  0  0  0  0  0  0  0
    9.8955  -14.3319   29.0538 N   0  0  0  0  0  0  0  0  0  0  0  0
    9.4110  -14.0488   27.7498 C   0  0  0  0  0  0  0  0  0  0  0  0
    9.2782  -12.8197   27.3942 N   0  0  0  0  0  0  0  0  0  0  0  0
    9.0664  -15.0587   26.8209 N   0  0  0  0  0  0  0  0  0  0  0  0
   10.0346  -15.8531   26.1025 C   0  0  0  0  0  0  0  0  0  0  0  0
   10.4390  -17.0712   26.8960 C   0  0  0  0  0  0  0  0  0  0  0  0
   11.8818  -17.3382   26.7014 C   0  0  0  0  0  0  0  0  0  0  0  0
   12.2399  -18.8021   26.6476 C   0  0  2  0  0  0  0  0  0  0  0  0
   11.6707  -19.4296   25.4740 N   0  0  0  0  0  0  0  0  0  0  0  0
   11.9165  -19.5333   27.8886 C   0  0  0  0  0  0  0  0  0  0  0  0
   12.3496  -19.1950   29.1520 O   0  0  0  0  0  0  0  0  0  0  0  0
   11.1812  -20.5574   27.7972 O   0  0  0  0  0  0  0  0  0  0  0  0
  2  1  1  6
  2 13  1  0
  3  2  1  0
  3  4  1  0
  4 12  1  0
  4  5  2  0
  5  6  1  0
  7  6  1  0
  7  8  2  0
  9  8  1  0
 10  9  2  0
 11 10  1  0
 11 12  2  0
 12  7  1  0
 13 14  2  0
 16 15  1  6
 17 13  1  0
 17 16  1  0
 18 16  1  0
 18 19  2  0
 20 21  1  0
 21 22  2  0
 21 23  1  0
 23 24  1  0
 24 25  1  0
 25 26  1  0
 27 26  1  1
 27 28  1  0
 28 18  1  0
 29 27  1  0
 30 29  1  0
 31 29  2  0
M  END
$$$$
