WAR.pdb
     RDKit          3D

 31 32  0  0  1  0  0  0  0  0999 V2000
    6.1885  -17.2300   22.6002 N   0  0  0  0  0  0  0  0  0  0  0  0
    6.9559  -15.9882   22.7775 C   0  0  1  0  0  0  0  0  0  0  0  0
    7.6843  -16.0158   24.0740 C   0  0  0  0  0  0  0  0  0  0  0  0
    7.0660  -15.3042   25.1925 C   0  0  0  0  0  0  0  0  0  0  0  0
    6.1312  -15.7709   26.1085 C   0  0  0  0  0  0  0  0  0  0  0  0
    5.8243  -14.8056   26.9650 N   0  0  0  0  0  0  0  0  0  0  0  0
    6.5125  -13.7104   26.6650 C   0  0  0  0  0  0  0  0  0  0  0  0
    6.5656  -12.4615   27.2446 C   0  0  0  0  0  0  0  0  0  0  0  0
    7.3941  -11.4683   26.7454 C   0  0  0  0  0  0  0  0  0  0  0  0
    8.1796  -11.7384   25.6459 C   0  0  0  0  0  0  0  0  0  0  0  0
    8.1163  -12.9940   25.0747 C   0  0  0  0  0  0  0  0  0  0  0  0
    7.2955  -13.9837   25.5668 C   0  0  0  0  0  0  0  0  0  0  0  0
    7.7587  -15.8202   21.5648 C   0  0  0  0  0  0  0  0  0  0  0  0
    8.0894  -16.8090   20.8333 O   0  0  0  0  0  0  0  0  0  0  0  0
    9.1249  -12.8687   19.7347 C   0  0  0  0  0  0  0  0  0  0  0  0
    9.0173  -14.3898   19.9793 C   0  0  2  0  0  0  0  0  0  0  0  0
    8.1848  -14.5361   21.1688 N   0  0  0  0  0  0  0  0  0  0  0  0
   10.3805  -14.8398   20.2873 C   0  0  0  0  0  0  0  0  0  0  0  0
   10.8109  -15.0441   21.4453 O   0  0  0  0  0  0  0  0  0  0  0  0
   14.8882  -14.2416   14.9502 N   0  0  0  0  0  0  0  0  0  0  0  0
   14.2684  -15.5188   14.9477 C   0  0  0  0  0  0  0  0  0  0  0  0
   13.4419  -15.8018   14.0034 N   0  0  0  0  0  0  0  0  0  0  0  0
   14.5183  -16.4974   15.9384 N   0  0  0  0  0  0  0  0  0  0  0  0
   15.4636  -16.3256   17.0161 C   0  0  0  0  0  0  0  0  0  0  0  0
   14.7657  -16.2794   18.3532 C   0  0  0  0  0  0  0  0  0  0  0  0
   13.4251  -15.6719   18.1966 C   0  0  0  0  0  0  0  0  0  0  0  0
   12.6504  -15.5383   19.4835 C   0  0  2  0  0  0  0  0  0  0  0  0
   11.3046  -15.0701   19.2292 N   0  0  0  0  0  0  0  0  0  0  0  0
   13.3429  -14.7297   20.5062 C   0  0  0  0  0  0  0  0  0  0  0  0
   13.2198  -13.3667   20.6662 O   0  0  0  0  0  0  0  0  0  0  0  0
   14.1164  -15.3264   21.3082 O   0  0  0  0  0  0  0  0  0  0  0  0
  2  1  1  6
  2 13  1  0
  3  2  1  0
  3  4  1  0
  4 12  1  0
  4  5  2  0
  5  6  1  0
  7  6  1  0
  7  8  2  0
  9  8  1  0
 10  9  2  0
 11 10  1  0
 11 12  2  0
 12  7  1  0
 13 14  2  0
 16 15  1  1
 17 13  1  0
 17 16  1  0
 18 16  1  0
 18 19  2  0
 20 21  1  0
 21 22  2  0
 21 23  1  0
 23 24  1  0
 24 25  1  0
 25 26  1  0
 27 26  1  6
 27 28  1  0
 28 18  1  0
 29 27  1  0
 30 29  1  0
 31 29  2  0
M  END
$$$$
