WAR.pdb
     RDKit          3D

 31 32  0  0  1  0  0  0  0  0999 V2000
    7.6138  -18.4388   26.1599 N   0  0  0  0  0  0  0  0  0  0  0  0
    8.0785  -17.7380   24.9535 C   0  0  1  0  0  0  0  0  0  0  0  0
    8.6250  -16.4026   25.3143 C   0  0  0  0  0  0  0  0  0  0  0  0
    7.6734  -15.4185   25.8299 C   0  0  0  0  0  0  0  0  0  0  0  0
    6.4797  -15.6365   26.5069 C   0  0  0  0  0  0  0  0  0  0  0  0
    5.9123  -14.4735   26.7981 N   0  0  0  0  0  0  0  0  0  0  0  0
    6.6728  -13.4830   26.3467 C   0  0  0  0  0  0  0  0  0  0  0  0
    6.5406  -12.1127   26.4048 C   0  0  0  0  0  0  0  0  0  0  0  0
    7.4992  -11.2710   25.8619 C   0  0  0  0  0  0  0  0  0  0  0  0
    8.6064  -11.8192   25.2516 C   0  0  0  0  0  0  0  0  0  0  0  0
    8.7261  -13.1938   25.2003 C   0  0  0  0  0  0  0  0  0  0  0  0
    7.7772  -14.0339   25.7380 C   0  0  0  0  0  0  0  0  0  0  0  0
    8.9773  -18.6610   24.2583 C   0  0  0  0  0  0  0  0  0  0  0  0
   10.1624  -18.8844   24.6680 O   0  0  0  0  0  0  0  0  0  0  0  0
    8.6958  -21.2945   21.7321 C   0  0  0  0  0  0  0  0  0  0  0  0
    9.4983  -20.1118   22.3172 C   0  0  2  0  0  0  0  0  0  0  0  0
    8.5405  -19.3408   23.1031 N   0  0  0  0  0  0  0  0  0  0  0  0
    9.9273  -19.3131   21.1623 C   0  0  0  0  0  0  0  0  0  0  0  0
    9.2571  -19.1730   20.1139 O   0  0  0  0  0  0  0  0  0  0  0  0
    8.8510  -13.3399   16.3750 N   0  0  0  0  0  0  0  0  0  0  0  0
    8.1773  -13.3659   17.6244 C   0  0  0  0  0  0  0  0  0  0  0  0
    7.3285  -12.4357   17.8873 N   0  0  0  0  0  0  0  0  0  0  0  0
    8.3969  -14.3702   18.5963 N   0  0  0  0  0  0  0  0  0  0  0  0
    9.5323  -14.3899   19.4881 C   0  0  0  0  0  0  0  0  0  0  0  0
   10.4540  -15.5427   19.1742 C   0  0  0  0  0  0  0  0  0  0  0  0
   10.3013  -16.5985   20.2002 C   0  0  0  0  0  0  0  0  0  0  0  0
   11.4759  -17.5386   20.3025 C   0  0  2  0  0  0  0  0  0  0  0  0
   11.1803  -18.6383   21.1960 N   0  0  0  0  0  0  0  0  0  0  0  0
   12.7431  -16.8623   20.6436 C   0  0  0  0  0  0  0  0  0  0  0  0
   13.3492  -16.8766   21.8808 O   0  0  0  0  0  0  0  0  0  0  0  0
   13.3307  -16.2125   19.7325 O   0  0  0  0  0  0  0  0  0  0  0  0
  2  1  1  1
  2 13  1  0
  3  2  1  0
  3  4  1  0
  4 12  1  0
  4  5  2  0
  5  6  1  0
  7  6  1  0
  7  8  2  0
  9  8  1  0
 10  9  2  0
 11 10  1  0
 11 12  2  0
 12  7  1  0
 13 14  2  0
 16 15  1  6
 17 13  1  0
 17 16  1  0
 18 16  1  0
 18 19  2  0
 20 21  1  0
 21 22  2  0
 21 23  1  0
 23 24  1  0
 24 25  1  0
 25 26  1  0
 27 26  1  1
 27 28  1  0
 28 18  1  0
 29 27  1  0
 30 29  1  0
 31 29  2  0
M  END
$$$$
