WAR.pdb
     RDKit          3D

 31 32  0  0  1  0  0  0  0  0999 V2000
    8.0669  -17.0221   24.1587 N   0  0  0  0  0  0  0  0  0  0  0  0
    9.1343  -16.0779   24.5214 C   0  0  1  0  0  0  0  0  0  0  0  0
    9.0408  -15.7272   25.9638 C   0  0  0  0  0  0  0  0  0  0  0  0
    7.8257  -15.0374   26.3969 C   0  0  0  0  0  0  0  0  0  0  0  0
    6.6383  -15.5834   26.8686 C   0  0  0  0  0  0  0  0  0  0  0  0
    5.7807  -14.6117   27.1510 N   0  0  0  0  0  0  0  0  0  0  0  0
    6.3400  -13.4361   26.8900 C   0  0  0  0  0  0  0  0  0  0  0  0
    5.8836  -12.1428   27.0228 C   0  0  0  0  0  0  0  0  0  0  0  0
    6.6807  -11.0580   26.6912 C   0  0  0  0  0  0  0  0  0  0  0  0
    7.9558  -11.2808   26.2186 C   0  0  0  0  0  0  0  0  0  0  0  0
    8.4004  -12.5818   26.0903 C   0  0  0  0  0  0  0  0  0  0  0  0
    7.6129  -13.6624   26.4184 C   0  0  0  0  0  0  0  0  0  0  0  0
   10.3894  -16.6736   24.0597 C   0  0  0  0  0  0  0  0  0  0  0  0
   11.5028  -16.0638   24.1629 O   0  0  0  0  0  0  0  0  0  0  0  0
   11.4782  -20.0526   23.0698 C   0  0  0  0  0  0  0  0  0  0  0  0
   11.6448  -18.5196   22.9827 C   0  0  2  0  0  0  0  0  0  0  0  0
   10.3942  -17.9616   23.4867 N   0  0  0  0  0  0  0  0  0  0  0  0
   11.7663  -18.2141   21.5519 C   0  0  0  0  0  0  0  0  0  0  0  0
   12.7159  -18.5921   20.8283 O   0  0  0  0  0  0  0  0  0  0  0  0
    9.4336  -15.0733   15.2686 N   0  0  0  0  0  0  0  0  0  0  0  0
    8.5687  -14.0390   15.7132 C   0  0  0  0  0  0  0  0  0  0  0  0
    8.3631  -13.0315   14.9402 N   0  0  0  0  0  0  0  0  0  0  0  0
    7.9208  -14.0651   16.9706 N   0  0  0  0  0  0  0  0  0  0  0  0
    7.9703  -15.1885   17.8762 C   0  0  0  0  0  0  0  0  0  0  0  0
    9.3854  -15.6782   18.0628 C   0  0  0  0  0  0  0  0  0  0  0  0
    9.3961  -16.8372   18.9834 C   0  0  0  0  0  0  0  0  0  0  0  0
   10.7675  -17.2261   19.4751 C   0  0  2  0  0  0  0  0  0  0  0  0
   10.7607  -17.4402   20.9066 N   0  0  0  0  0  0  0  0  0  0  0  0
   11.8311  -16.2943   19.0512 C   0  0  0  0  0  0  0  0  0  0  0  0
   12.4807  -16.3216   17.8364 O   0  0  0  0  0  0  0  0  0  0  0  0
   12.1841  -15.3911   19.8619 O   0  0  0  0  0  0  0  0  0  0  0  0
  2  1  1  1
  2 13  1  0
  3  2  1  0
  3  4  1  0
  4 12  1  0
  4  5  2  0
  5  6  1  0
  7  6  1  0
  7  8  2  0
  9  8  1  0
 10  9  2  0
 11 10  1  0
 11 12  2  0
 12  7  1  0
 13 14  2  0
 16 15  1  6
 17 13  1  0
 17 16  1  0
 18 16  1  0
 18 19  2  0
 20 21  1  0
 21 22  2  0
 21 23  1  0
 23 24  1  0
 24 25  1  0
 25 26  1  0
 27 26  1  1
 27 28  1  0
 28 18  1  0
 29 27  1  0
 30 29  1  0
 31 29  2  0
M  END
$$$$
