ASC.pdb
     RDKit          3D

 18 17  0  0  1  0  0  0  0  0999 V2000
   11.0319  -17.7610   21.4360 C   0  0  0  0  0  0  0  0  0  0  0  0
    9.8697  -17.6440   20.4864 C   0  0  2  0  0  0  0  0  0  0  0  0
   10.2452  -17.1165   19.2100 N   0  0  0  0  0  0  0  0  0  0  0  0
    8.7922  -16.8242   21.0780 C   0  0  0  0  0  0  0  0  0  0  0  0
    7.7029  -16.6059   20.4696 O   0  0  0  0  0  0  0  0  0  0  0  0
    7.1290  -17.5138   24.5672 O   0  0  0  0  0  0  0  0  0  0  0  0
    6.8856  -16.8411   23.3986 C   0  0  0  0  0  0  0  0  0  0  0  0
    7.8613  -15.7199   23.1360 C   0  0  2  0  0  0  0  0  0  0  0  0
    8.9732  -16.2640   22.3581 N   0  0  0  0  0  0  0  0  0  0  0  0
    8.4033  -15.1346   24.3805 C   0  0  0  0  0  0  0  0  0  0  0  0
    9.4351  -15.6084   24.9170 O   0  0  0  0  0  0  0  0  0  0  0  0
    7.7565  -14.0312   24.9750 N   0  0  0  0  0  0  0  0  0  0  0  0
    8.3317  -13.3117   26.1231 C   0  0  1  0  0  0  0  0  0  0  0  0
    7.4000  -12.1239   26.3571 C   0  0  0  0  0  0  0  0  0  0  0  0
    5.7509  -12.7268   26.7236 S   0  0  0  0  0  0  0  0  0  0  0  0
    8.4059  -14.2017   27.2903 C   0  0  0  0  0  0  0  0  0  0  0  0
    7.7742  -15.2837   27.2702 O   0  0  0  0  0  0  0  0  0  0  0  0
    9.1344  -13.9271   28.4280 O   0  0  0  0  0  0  0  0  0  0  0  0
  2  1  1  1
  2  3  1  0
  4  2  1  0
  5  4  2  0
  7  6  1  0
  8  7  1  1
  8  9  1  0
  9  4  1  0
 10  8  1  0
 10 12  1  0
 11 10  2  0
 13 14  1  1
 13 12  1  0
 13 16  1  0
 14 15  1  0
 16 18  1  0
 17 16  2  0
M  END
$$$$
