ASC.pdb
     RDKit          3D

 18 17  0  0  1  0  0  0  0  0999 V2000
    8.2851  -19.9628   19.5929 C   0  0  0  0  0  0  0  0  0  0  0  0
    8.3202  -19.3254   20.9563 C   0  0  2  0  0  0  0  0  0  0  0  0
    7.0514  -19.3569   21.6178 N   0  0  0  0  0  0  0  0  0  0  0  0
    8.8144  -17.9356   20.8707 C   0  0  0  0  0  0  0  0  0  0  0  0
    9.9947  -17.6638   20.5000 O   0  0  0  0  0  0  0  0  0  0  0  0
    6.0206  -14.9062   21.0268 O   0  0  0  0  0  0  0  0  0  0  0  0
    7.2404  -14.7141   20.4331 C   0  0  0  0  0  0  0  0  0  0  0  0
    8.3605  -15.4735   21.1016 C   0  0  2  0  0  0  0  0  0  0  0  0
    7.9530  -16.8734   21.2098 N   0  0  0  0  0  0  0  0  0  0  0  0
    8.6605  -14.9673   22.4577 C   0  0  0  0  0  0  0  0  0  0  0  0
    9.0661  -13.7913   22.6291 O   0  0  0  0  0  0  0  0  0  0  0  0
    8.4905  -15.8124   23.5740 N   0  0  0  0  0  0  0  0  0  0  0  0
    8.8460  -15.3887   24.9381 C   0  0  1  0  0  0  0  0  0  0  0  0
    7.5149  -15.2653   25.6773 C   0  0  0  0  0  0  0  0  0  0  0  0
    6.8403  -13.6242   25.4144 S   0  0  0  0  0  0  0  0  0  0  0  0
    9.7389  -16.3785   25.5570 C   0  0  0  0  0  0  0  0  0  0  0  0
   10.0135  -17.4265   24.9274 O   0  0  0  0  0  0  0  0  0  0  0  0
   10.3075  -16.2347   26.8047 O   0  0  0  0  0  0  0  0  0  0  0  0
  2  1  1  6
  2  3  1  0
  4  2  1  0
  5  4  2  0
  7  6  1  0
  8  7  1  1
  8  9  1  0
  9  4  1  0
 10  8  1  0
 10 12  1  0
 11 10  2  0
 13 14  1  1
 13 12  1  0
 13 16  1  0
 14 15  1  0
 16 18  1  0
 17 16  2  0
M  END
$$$$
