ASC.pdb
     RDKit          3D

 18 17  0  0  1  0  0  0  0  0999 V2000
    8.8118  -20.4287   19.2624 C   0  0  0  0  0  0  0  0  0  0  0  0
    8.4457  -19.0570   18.7617 C   0  0  2  0  0  0  0  0  0  0  0  0
    8.8747  -18.8231   17.4164 N   0  0  0  0  0  0  0  0  0  0  0  0
    8.9863  -18.0128   19.6563 C   0  0  0  0  0  0  0  0  0  0  0  0
   10.1082  -17.4634   19.4467 O   0  0  0  0  0  0  0  0  0  0  0  0
    6.9084  -17.0714   23.2334 O   0  0  0  0  0  0  0  0  0  0  0  0
    7.5446  -16.0955   22.5122 C   0  0  0  0  0  0  0  0  0  0  0  0
    8.7262  -16.6051   21.7232 C   0  0  2  0  0  0  0  0  0  0  0  0
    8.2378  -17.6095   20.7799 N   0  0  0  0  0  0  0  0  0  0  0  0
    9.7556  -17.2298   22.5805 C   0  0  0  0  0  0  0  0  0  0  0  0
    9.7342  -18.4634   22.8148 O   0  0  0  0  0  0  0  0  0  0  0  0
   10.7751  -16.4342   23.1435 N   0  0  0  0  0  0  0  0  0  0  0  0
   11.8062  -16.9956   24.0314 C   0  0  1  0  0  0  0  0  0  0  0  0
   12.9827  -16.0255   23.9401 C   0  0  0  0  0  0  0  0  0  0  0  0
   14.4389  -16.7903   24.6556 S   0  0  0  0  0  0  0  0  0  0  0  0
   11.2837  -17.1127   25.4001 C   0  0  0  0  0  0  0  0  0  0  0  0
   11.7904  -17.9583   26.1735 O   0  0  0  0  0  0  0  0  0  0  0  0
   10.2562  -16.3444   25.9047 O   0  0  0  0  0  0  0  0  0  0  0  0
  2  1  1  1
  2  3  1  0
  4  2  1  0
  5  4  2  0
  7  6  1  0
  8  7  1  1
  8  9  1  0
  9  4  1  0
 10  8  1  0
 10 12  1  0
 11 10  2  0
 13 14  1  1
 13 12  1  0
 13 16  1  0
 14 15  1  0
 16 18  1  0
 17 16  2  0
M  END
$$$$
