ASC.pdb
     RDKit          3D

 18 17  0  0  1  0  0  0  0  0999 V2000
    8.4329  -12.3844   18.6922 C   0  0  0  0  0  0  0  0  0  0  0  0
    8.5611  -13.7824   18.1488 C   0  0  2  0  0  0  0  0  0  0  0  0
    7.7066  -14.0234   17.0262 N   0  0  0  0  0  0  0  0  0  0  0  0
    8.3028  -14.7802   19.2075 C   0  0  0  0  0  0  0  0  0  0  0  0
    7.1281  -15.1022   19.5551 O   0  0  0  0  0  0  0  0  0  0  0  0
   11.3567  -17.3867   20.4021 O   0  0  0  0  0  0  0  0  0  0  0  0
   10.0114  -17.6291   20.4951 C   0  0  0  0  0  0  0  0  0  0  0  0
    9.2076  -16.4144   20.8905 C   0  0  2  0  0  0  0  0  0  0  0  0
    9.3907  -15.3976   19.8561 N   0  0  0  0  0  0  0  0  0  0  0  0
    9.6359  -15.8461   22.1861 C   0  0  0  0  0  0  0  0  0  0  0  0
   10.6261  -15.0767   22.2541 O   0  0  0  0  0  0  0  0  0  0  0  0
    8.9266  -16.1697   23.3614 N   0  0  0  0  0  0  0  0  0  0  0  0
    9.3365  -15.6733   24.6851 C   0  0  1  0  0  0  0  0  0  0  0  0
    8.0320  -15.3536   25.4129 C   0  0  0  0  0  0  0  0  0  0  0  0
    7.2135  -13.9860   24.5901 S   0  0  0  0  0  0  0  0  0  0  0  0
   10.1298  -16.6947   25.3833 C   0  0  0  0  0  0  0  0  0  0  0  0
   10.1670  -17.8576   24.9184 O   0  0  0  0  0  0  0  0  0  0  0  0
   10.8501  -16.4614   26.5354 O   0  0  0  0  0  0  0  0  0  0  0  0
  2  1  1  1
  2  3  1  0
  4  2  1  0
  5  4  2  0
  7  6  1  0
  8  7  1  6
  8  9  1  0
  9  4  1  0
 10  8  1  0
 10 12  1  0
 11 10  2  0
 13 14  1  1
 13 12  1  0
 13 16  1  0
 14 15  1  0
 16 18  1  0
 17 16  2  0
M  END
$$$$
