ASC.pdb
     RDKit          3D

 18 17  0  0  1  0  0  0  0  0999 V2000
   10.7645  -20.8015   13.6191 C   0  0  0  0  0  0  0  0  0  0  0  0
   10.3964  -19.3631   13.8675 C   0  0  2  0  0  0  0  0  0  0  0  0
   11.1247  -18.4514   13.0387 N   0  0  0  0  0  0  0  0  0  0  0  0
   10.5820  -19.0148   15.2913 C   0  0  0  0  0  0  0  0  0  0  0  0
   11.5667  -18.3258   15.6916 O   0  0  0  0  0  0  0  0  0  0  0  0
    7.6043  -20.0734   18.2074 O   0  0  0  0  0  0  0  0  0  0  0  0
    8.3729  -18.9391   18.2148 C   0  0  0  0  0  0  0  0  0  0  0  0
    9.7622  -19.1509   17.6642 C   0  0  2  0  0  0  0  0  0  0  0  0
    9.6397  -19.4585   16.2402 N   0  0  0  0  0  0  0  0  0  0  0  0
   10.4716  -20.2670   18.3247 C   0  0  0  0  0  0  0  0  0  0  0  0
   10.4644  -21.4186   17.8239 O   0  0  0  0  0  0  0  0  0  0  0  0
   11.1654  -20.0394   19.5313 N   0  0  0  0  0  0  0  0  0  0  0  0
   11.8512  -21.1214   20.2563 C   0  0  1  0  0  0  0  0  0  0  0  0
   13.1082  -20.4774   20.8385 C   0  0  0  0  0  0  0  0  0  0  0  0
   14.1464  -19.8871   19.5002 S   0  0  0  0  0  0  0  0  0  0  0  0
   10.9701  -21.6680   21.2979 C   0  0  0  0  0  0  0  0  0  0  0  0
    9.9024  -21.0696   21.5658 O   0  0  0  0  0  0  0  0  0  0  0  0
   11.2386  -22.8140   22.0156 O   0  0  0  0  0  0  0  0  0  0  0  0
  2  1  1  1
  2  3  1  0
  4  2  1  0
  5  4  2  0
  7  6  1  0
  8  7  1  1
  8  9  1  0
  9  4  1  0
 10  8  1  0
 10 12  1  0
 11 10  2  0
 13 14  1  1
 13 12  1  0
 13 16  1  0
 14 15  1  0
 16 18  1  0
 17 16  2  0
M  END
$$$$
