ASC.pdb
     RDKit          3D

 18 17  0  0  1  0  0  0  0  0999 V2000
   -1.8677  -26.6004   34.3843 C   0  0  0  0  0  0  0  0  0  0  0  0
   -2.7151  -27.5394   33.5681 C   0  0  2  0  0  0  0  0  0  0  0  0
   -2.0724  -28.7934   33.3175 N   0  0  0  0  0  0  0  0  0  0  0  0
   -3.1136  -26.9088   32.2927 C   0  0  0  0  0  0  0  0  0  0  0  0
   -2.2926  -26.7348   31.3439 O   0  0  0  0  0  0  0  0  0  0  0  0
   -6.9905  -27.1227   30.9974 O   0  0  0  0  0  0  0  0  0  0  0  0
   -5.8822  -26.8741   30.2311 C   0  0  0  0  0  0  0  0  0  0  0  0
   -4.9198  -25.8991   30.8646 C   0  0  2  0  0  0  0  0  0  0  0  0
   -4.4457  -26.4846   32.1175 N   0  0  0  0  0  0  0  0  0  0  0  0
   -5.5473  -24.5950   31.1656 C   0  0  0  0  0  0  0  0  0  0  0  0
   -5.9278  -24.3188   32.3300 O   0  0  0  0  0  0  0  0  0  0  0  0
   -5.7223  -23.6477   30.1354 N   0  0  0  0  0  0  0  0  0  0  0  0
   -6.3313  -22.3299   30.3786 C   0  0  1  0  0  0  0  0  0  0  0  0
   -5.8256  -21.4410   29.2438 C   0  0  0  0  0  0  0  0  0  0  0  0
   -4.1190  -20.9886   29.5604 S   0  0  0  0  0  0  0  0  0  0  0  0
   -7.7965  -22.4454   30.3871 C   0  0  0  0  0  0  0  0  0  0  0  0
   -8.3303  -23.4427   29.8483 O   0  0  0  0  0  0  0  0  0  0  0  0
   -8.6427  -21.5175   30.9560 O   0  0  0  0  0  0  0  0  0  0  0  0
  2  1  1  6
  2  3  1  0
  4  2  1  0
  5  4  2  0
  7  6  1  0
  8  7  1  1
  8  9  1  0
  9  4  1  0
 10  8  1  0
 10 12  1  0
 11 10  2  0
 13 14  1  6
 13 12  1  0
 13 16  1  0
 14 15  1  0
 16 18  1  0
 17 16  2  0
M  END
$$$$
