ASC.pdb
     RDKit          3D

 18 17  0  0  1  0  0  0  0  0999 V2000
    8.3546  -12.4994   20.4554 C   0  0  0  0  0  0  0  0  0  0  0  0
    7.9852  -13.9429   20.2415 C   0  0  2  0  0  0  0  0  0  0  0  0
    6.7354  -14.1025   19.5624 N   0  0  0  0  0  0  0  0  0  0  0  0
    7.9621  -14.6721   21.5264 C   0  0  0  0  0  0  0  0  0  0  0  0
    6.9575  -14.6433   22.2974 O   0  0  0  0  0  0  0  0  0  0  0  0
   11.2723  -17.2136   22.7494 O   0  0  0  0  0  0  0  0  0  0  0  0
    9.9306  -17.4736   22.8460 C   0  0  0  0  0  0  0  0  0  0  0  0
    9.0988  -16.2454   23.1246 C   0  0  2  0  0  0  0  0  0  0  0  0
    9.0879  -15.4254   21.9142 N   0  0  0  0  0  0  0  0  0  0  0  0
    9.6387  -15.4329   24.2352 C   0  0  0  0  0  0  0  0  0  0  0  0
   10.1000  -14.2840   24.0253 O   0  0  0  0  0  0  0  0  0  0  0  0
    9.6372  -15.9511   25.5470 N   0  0  0  0  0  0  0  0  0  0  0  0
   10.0964  -15.1615   26.7013 C   0  0  1  0  0  0  0  0  0  0  0  0
    9.0143  -14.1053   26.9181 C   0  0  0  0  0  0  0  0  0  0  0  0
    9.4210  -13.1281   28.3663 S   0  0  0  0  0  0  0  0  0  0  0  0
   10.2687  -16.0332   27.8720 C   0  0  0  0  0  0  0  0  0  0  0  0
    9.5952  -17.0869   27.9492 O   0  0  0  0  0  0  0  0  0  0  0  0
   11.1347  -15.7702   28.9119 O   0  0  0  0  0  0  0  0  0  0  0  0
  2  1  1  1
  2  3  1  0
  4  2  1  0
  5  4  2  0
  7  6  1  0
  8  7  1  6
  8  9  1  0
  9  4  1  0
 10  8  1  0
 10 12  1  0
 11 10  2  0
 13 14  1  1
 13 12  1  0
 13 16  1  0
 14 15  1  0
 16 18  1  0
 17 16  2  0
M  END
$$$$
