ASC.pdb
     RDKit          3D

 18 17  0  0  1  0  0  0  0  0999 V2000
    7.2778  -13.6145   21.1960 C   0  0  0  0  0  0  0  0  0  0  0  0
    7.4338  -15.0929   20.9589 C   0  0  2  0  0  0  0  0  0  0  0  0
    6.2093  -15.7272   20.5760 N   0  0  0  0  0  0  0  0  0  0  0  0
    7.9984  -15.7566   22.1521 C   0  0  0  0  0  0  0  0  0  0  0  0
    7.2656  -16.1881   23.0908 O   0  0  0  0  0  0  0  0  0  0  0  0
   12.2846  -16.0308   22.7832 O   0  0  0  0  0  0  0  0  0  0  0  0
   11.3857  -17.0429   22.9949 C   0  0  0  0  0  0  0  0  0  0  0  0
   10.0202  -16.5560   23.4150 C   0  0  2  0  0  0  0  0  0  0  0  0
    9.3941  -15.9188   22.2577 N   0  0  0  0  0  0  0  0  0  0  0  0
   10.0815  -15.5708   24.5153 C   0  0  0  0  0  0  0  0  0  0  0  0
    9.9409  -14.3438   24.2875 O   0  0  0  0  0  0  0  0  0  0  0  0
   10.3005  -16.0103   25.8375 N   0  0  0  0  0  0  0  0  0  0  0  0
   10.3817  -15.0742   26.9705 C   0  0  1  0  0  0  0  0  0  0  0  0
    8.9817  -14.4757   27.0947 C   0  0  0  0  0  0  0  0  0  0  0  0
    8.8999  -13.4596   28.5706 S   0  0  0  0  0  0  0  0  0  0  0  0
   10.7934  -15.7892   28.1868 C   0  0  0  0  0  0  0  0  0  0  0  0
   10.6116  -17.0271   28.2547 O   0  0  0  0  0  0  0  0  0  0  0  0
   11.3765  -15.1847   29.2800 O   0  0  0  0  0  0  0  0  0  0  0  0
  2  1  1  1
  2  3  1  0
  4  2  1  0
  5  4  2  0
  7  6  1  0
  8  7  1  6
  8  9  1  0
  9  4  1  0
 10  8  1  0
 10 12  1  0
 11 10  2  0
 13 14  1  1
 13 12  1  0
 13 16  1  0
 14 15  1  0
 16 18  1  0
 17 16  2  0
M  END
$$$$
