ASC.pdb
     RDKit          3D

 18 17  0  0  1  0  0  0  0  0999 V2000
    8.3700  -16.1510   18.1239 C   0  0  0  0  0  0  0  0  0  0  0  0
    9.0216  -16.1605   19.4809 C   0  0  2  0  0  0  0  0  0  0  0  0
    9.5452  -17.4439   19.8376 N   0  0  0  0  0  0  0  0  0  0  0  0
    8.0783  -15.6908   20.5166 C   0  0  0  0  0  0  0  0  0  0  0  0
    7.4992  -14.5669   20.4380 O   0  0  0  0  0  0  0  0  0  0  0  0
    7.3168  -17.9695   24.1594 O   0  0  0  0  0  0  0  0  0  0  0  0
    6.3807  -17.3604   23.3658 C   0  0  0  0  0  0  0  0  0  0  0  0
    6.8872  -16.1090   22.6910 C   0  0  2  0  0  0  0  0  0  0  0  0
    7.8085  -16.5116   21.6296 N   0  0  0  0  0  0  0  0  0  0  0  0
    7.6073  -15.2133   23.6207 C   0  0  0  0  0  0  0  0  0  0  0  0
    8.8623  -15.2102   23.6669 O   0  0  0  0  0  0  0  0  0  0  0  0
    6.8797  -14.3510   24.4670 N   0  0  0  0  0  0  0  0  0  0  0  0
    7.5354  -13.5234   25.4925 C   0  0  1  0  0  0  0  0  0  0  0  0
    6.4299  -12.6286   26.0501 C   0  0  0  0  0  0  0  0  0  0  0  0
    7.1106  -11.5729   27.3305 S   0  0  0  0  0  0  0  0  0  0  0  0
    8.1343  -14.3806   26.5253 C   0  0  0  0  0  0  0  0  0  0  0  0
    9.2293  -14.0449   27.0334 O   0  0  0  0  0  0  0  0  0  0  0  0
    7.5673  -15.5504   26.9845 O   0  0  0  0  0  0  0  0  0  0  0  0
  2  1  1  6
  2  3  1  0
  4  2  1  0
  5  4  2  0
  7  6  1  0
  8  7  1  1
  8  9  1  0
  9  4  1  0
 10  8  1  0
 10 12  1  0
 11 10  2  0
 13 14  1  1
 13 12  1  0
 13 16  1  0
 14 15  1  0
 16 18  1  0
 17 16  2  0
M  END
$$$$
