ASC.pdb
     RDKit          3D

 18 17  0  0  1  0  0  0  0  0999 V2000
   10.8624  -18.5164   17.8579 C   0  0  0  0  0  0  0  0  0  0  0  0
   11.1368  -17.0374   17.9169 C   0  0  2  0  0  0  0  0  0  0  0  0
   12.1493  -16.6223   16.9944 N   0  0  0  0  0  0  0  0  0  0  0  0
   11.5007  -16.6280   19.2891 C   0  0  0  0  0  0  0  0  0  0  0  0
   12.7068  -16.5345   19.6648 O   0  0  0  0  0  0  0  0  0  0  0  0
    8.4478  -16.0183   22.2412 O   0  0  0  0  0  0  0  0  0  0  0  0
    9.5653  -15.2313   22.1456 C   0  0  0  0  0  0  0  0  0  0  0  0
   10.7690  -15.9604   21.6000 C   0  0  2  0  0  0  0  0  0  0  0  0
   10.4814  -16.3304   20.2152 N   0  0  0  0  0  0  0  0  0  0  0  0
   11.0805  -17.1906   22.3580 C   0  0  0  0  0  0  0  0  0  0  0  0
   10.6282  -18.3031   21.9908 O   0  0  0  0  0  0  0  0  0  0  0  0
   11.8946  -17.1178   23.5074 N   0  0  0  0  0  0  0  0  0  0  0  0
   12.1669  -18.2937   24.3500 C   0  0  1  0  0  0  0  0  0  0  0  0
   13.6691  -18.2491   24.6238 C   0  0  0  0  0  0  0  0  0  0  0  0
   14.5256  -19.2354   23.3945 S   0  0  0  0  0  0  0  0  0  0  0  0
   11.3718  -18.2247   25.5841 C   0  0  0  0  0  0  0  0  0  0  0  0
   10.7421  -17.1728   25.8430 O   0  0  0  0  0  0  0  0  0  0  0  0
   11.2667  -19.2536   26.4956 O   0  0  0  0  0  0  0  0  0  0  0  0
  2  1  1  1
  2  3  1  0
  4  2  1  0
  5  4  2  0
  7  6  1  0
  8  7  1  1
  8  9  1  0
  9  4  1  0
 10  8  1  0
 10 12  1  0
 11 10  2  0
 13 14  1  1
 13 12  1  0
 13 16  1  0
 14 15  1  0
 16 18  1  0
 17 16  2  0
M  END
$$$$
