ASC.pdb
     RDKit          3D

 18 17  0  0  1  0  0  0  0  0999 V2000
    8.3072  -12.3855   19.1600 C   0  0  0  0  0  0  0  0  0  0  0  0
    8.5148  -13.8713   19.0363 C   0  0  2  0  0  0  0  0  0  0  0  0
    7.9251  -14.4188   17.8527 N   0  0  0  0  0  0  0  0  0  0  0  0
    8.0005  -14.5719   20.2311 C   0  0  0  0  0  0  0  0  0  0  0  0
    6.8087  -14.9954   20.3007 O   0  0  0  0  0  0  0  0  0  0  0  0
    8.9900  -17.3133   23.9435 O   0  0  0  0  0  0  0  0  0  0  0  0
    9.2097  -16.6932   22.7417 C   0  0  0  0  0  0  0  0  0  0  0  0
    8.4014  -15.4316   22.5596 C   0  0  2  0  0  0  0  0  0  0  0  0
    8.8550  -14.7800   21.3320 N   0  0  0  0  0  0  0  0  0  0  0  0
    8.5669  -14.4833   23.6814 C   0  0  0  0  0  0  0  0  0  0  0  0
    9.6028  -13.7804   23.7806 O   0  0  0  0  0  0  0  0  0  0  0  0
    7.5518  -14.3641   24.6532 N   0  0  0  0  0  0  0  0  0  0  0  0
    7.6893  -13.4844   25.8253 C   0  0  1  0  0  0  0  0  0  0  0  0
    6.3328  -12.7969   25.9695 C   0  0  0  0  0  0  0  0  0  0  0  0
    6.3481  -11.7550   27.4295 S   0  0  0  0  0  0  0  0  0  0  0  0
    8.0429  -14.2766   27.0117 C   0  0  0  0  0  0  0  0  0  0  0  0
    7.6414  -15.4607   27.0932 O   0  0  0  0  0  0  0  0  0  0  0  0
    8.7991  -13.8019   28.0621 O   0  0  0  0  0  0  0  0  0  0  0  0
  2  1  1  1
  2  3  1  0
  4  2  1  0
  5  4  2  0
  7  6  1  0
  8  7  1  1
  8  9  1  0
  9  4  1  0
 10  8  1  0
 10 12  1  0
 11 10  2  0
 13 14  1  1
 13 12  1  0
 13 16  1  0
 14 15  1  0
 16 18  1  0
 17 16  2  0
M  END
$$$$
