FGT.pdb
     RDKit          3D

 23 23  0  0  1  0  0  0  0  0999 V2000
    7.0257  -15.3757   23.8361 N   0  0  0  0  0  0  0  0  0  0  0  0
    7.7483  -15.6891   25.0320 C   0  0  1  0  0  0  0  0  0  0  0  0
    6.8690  -15.2389   26.2068 C   0  0  0  0  0  0  0  0  0  0  0  0
    6.8273  -13.7676   26.2892 C   0  0  0  0  0  0  0  0  0  0  0  0
    5.6121  -13.1463   26.4785 C   0  0  0  0  0  0  0  0  0  0  0  0
    5.5598  -11.7597   26.5577 C   0  0  0  0  0  0  0  0  0  0  0  0
    6.7124  -10.9947   26.4491 C   0  0  0  0  0  0  0  0  0  0  0  0
    7.9308  -11.6516   26.2575 C   0  0  0  0  0  0  0  0  0  0  0  0
    7.9884  -13.0292   26.1781 C   0  0  0  0  0  0  0  0  0  0  0  0
    7.9628  -17.1410   25.2167 C   0  0  0  0  0  0  0  0  0  0  0  0
    8.4773  -17.5355   26.2885 O   0  0  0  0  0  0  0  0  0  0  0  0
    7.5808  -18.0277   24.1811 N   0  0  0  0  0  0  0  0  0  0  0  0
    7.9217  -19.4590   24.2373 C   0  0  0  0  0  0  0  0  0  0  0  0
    9.2502  -19.6362   23.6081 C   0  0  0  0  0  0  0  0  0  0  0  0
    9.8238  -20.7571   23.5827 O   0  0  0  0  0  0  0  0  0  0  0  0
    9.9515  -18.2030   20.2229 C   0  0  0  0  0  0  0  0  0  0  0  0
   11.1286  -17.8566   21.1056 C   0  0  1  0  0  0  0  0  0  0  0  0
   11.0128  -16.5084   21.4384 O   0  0  0  0  0  0  0  0  0  0  0  0
   11.1756  -18.7247   22.3470 C   0  0  2  0  0  0  0  0  0  0  0  0
    9.9058  -18.5460   23.0199 N   0  0  0  0  0  0  0  0  0  0  0  0
   12.3209  -18.4160   23.2070 C   0  0  0  0  0  0  0  0  0  0  0  0
   12.1788  -17.9659   24.3702 O   0  0  0  0  0  0  0  0  0  0  0  0
   13.6128  -18.6162   22.7508 O   0  0  0  0  0  0  0  0  0  0  0  0
  2  1  1  6
  2 10  1  0
  3  2  1  0
  4  5  2  0
  4  3  1  0
  6  5  1  0
  7  6  2  0
  8  7  1  0
  8  9  2  0
  9  4  1  0
 10 11  2  0
 10 12  1  0
 12 13  1  0
 13 14  1  0
 14 15  2  0
 17 16  1  6
 18 17  1  0
 19 17  1  0
 20 14  1  0
 19 20  1  1
 21 23  1  0
 21 19  1  0
 22 21  2  0
M  END
$$$$
