FGT.pdb
     RDKit          3D

 23 23  0  0  1  0  0  0  0  0999 V2000
    6.4890  -18.2142   20.8066 N   0  0  0  0  0  0  0  0  0  0  0  0
    7.2505  -17.0018   20.8340 C   0  0  1  0  0  0  0  0  0  0  0  0
    6.2388  -15.8476   20.8155 C   0  0  0  0  0  0  0  0  0  0  0  0
    6.9346  -14.5486   20.7758 C   0  0  0  0  0  0  0  0  0  0  0  0
    7.1151  -13.8546   21.9523 C   0  0  0  0  0  0  0  0  0  0  0  0
    7.7696  -12.6287   21.9277 C   0  0  0  0  0  0  0  0  0  0  0  0
    8.2424  -12.0959   20.7369 C   0  0  0  0  0  0  0  0  0  0  0  0
    8.0453  -12.8217   19.5592 C   0  0  0  0  0  0  0  0  0  0  0  0
    7.3956  -14.0403   19.5779 C   0  0  0  0  0  0  0  0  0  0  0  0
    8.0341  -16.8367   22.0777 C   0  0  0  0  0  0  0  0  0  0  0  0
    7.4676  -17.0587   23.1726 O   0  0  0  0  0  0  0  0  0  0  0  0
    9.3890  -16.4360   21.9863 N   0  0  0  0  0  0  0  0  0  0  0  0
   10.2240  -16.2877   23.1899 C   0  0  0  0  0  0  0  0  0  0  0  0
   11.3799  -17.2035   23.0584 C   0  0  0  0  0  0  0  0  0  0  0  0
   11.3823  -18.1471   22.2244 O   0  0  0  0  0  0  0  0  0  0  0  0
   13.0623  -17.5937   21.2020 C   0  0  0  0  0  0  0  0  0  0  0  0
   14.1698  -17.4148   22.2151 C   0  0  1  0  0  0  0  0  0  0  0  0
   14.5713  -16.0817   22.1571 O   0  0  0  0  0  0  0  0  0  0  0  0
   13.7201  -17.7908   23.6127 C   0  0  2  0  0  0  0  0  0  0  0  0
   12.5104  -17.0374   23.8700 N   0  0  0  0  0  0  0  0  0  0  0  0
   14.7580  -17.5573   24.6200 C   0  0  0  0  0  0  0  0  0  0  0  0
   14.7070  -16.5894   25.4176 O   0  0  0  0  0  0  0  0  0  0  0  0
   15.8414  -18.4138   24.7202 O   0  0  0  0  0  0  0  0  0  0  0  0
  2  1  1  1
  2 10  1  0
  3  2  1  0
  4  5  2  0
  4  3  1  0
  6  5  1  0
  7  6  2  0
  8  7  1  0
  8  9  2  0
  9  4  1  0
 10 11  2  0
 10 12  1  0
 12 13  1  0
 13 14  1  0
 14 15  2  0
 17 16  1  6
 18 17  1  0
 19 17  1  0
 20 14  1  0
 19 20  1  1
 21 23  1  0
 21 19  1  0
 22 21  2  0
M  END
$$$$
