FGT.pdb
     RDKit          3D

 23 23  0  0  1  0  0  0  0  0999 V2000
    8.4746  -14.6811   21.7540 N   0  0  0  0  0  0  0  0  0  0  0  0
    8.1847  -14.5136   23.1463 C   0  0  1  0  0  0  0  0  0  0  0  0
    7.5673  -13.1168   23.3010 C   0  0  0  0  0  0  0  0  0  0  0  0
    7.1416  -12.8893   24.6939 C   0  0  0  0  0  0  0  0  0  0  0  0
    5.7989  -12.7373   24.9625 C   0  0  0  0  0  0  0  0  0  0  0  0
    5.3851  -12.5221   26.2718 C   0  0  0  0  0  0  0  0  0  0  0  0
    6.3042  -12.4586   27.3094 C   0  0  0  0  0  0  0  0  0  0  0  0
    7.6595  -12.6163   27.0076 C   0  0  0  0  0  0  0  0  0  0  0  0
    8.0761  -12.8303   25.7084 C   0  0  0  0  0  0  0  0  0  0  0  0
    7.1689  -15.4656   23.6461 C   0  0  0  0  0  0  0  0  0  0  0  0
    5.9953  -15.3623   23.2205 O   0  0  0  0  0  0  0  0  0  0  0  0
    7.5574  -16.4539   24.5825 N   0  0  0  0  0  0  0  0  0  0  0  0
    6.5668  -17.3497   25.2022 C   0  0  0  0  0  0  0  0  0  0  0  0
    7.2931  -18.2940   26.0814 C   0  0  0  0  0  0  0  0  0  0  0  0
    6.6819  -19.1018   26.8296 O   0  0  0  0  0  0  0  0  0  0  0  0
    9.8769  -20.5027   24.7483 C   0  0  0  0  0  0  0  0  0  0  0  0
   10.4761  -19.8732   25.9849 C   0  0  1  0  0  0  0  0  0  0  0  0
   11.3691  -18.8924   25.5580 O   0  0  0  0  0  0  0  0  0  0  0  0
    9.4114  -19.2875   26.8905 C   0  0  2  0  0  0  0  0  0  0  0  0
    8.6945  -18.3088   26.0996 N   0  0  0  0  0  0  0  0  0  0  0  0
    9.9683  -18.7224   28.1222 C   0  0  0  0  0  0  0  0  0  0  0  0
   10.4965  -19.4407   29.0057 O   0  0  0  0  0  0  0  0  0  0  0  0
    9.9255  -17.3568   28.3476 O   0  0  0  0  0  0  0  0  0  0  0  0
  2  1  1  6
  2 10  1  0
  3  2  1  0
  4  5  2  0
  4  3  1  0
  6  5  1  0
  7  6  2  0
  8  7  1  0
  8  9  2  0
  9  4  1  0
 10 11  2  0
 10 12  1  0
 12 13  1  0
 13 14  1  0
 14 15  2  0
 17 16  1  6
 18 17  1  0
 19 17  1  0
 20 14  1  0
 19 20  1  6
 21 23  1  0
 21 19  1  0
 22 21  2  0
M  END
$$$$
