FGT.pdb
     RDKit          3D

 23 23  0  0  1  0  0  0  0  0999 V2000
    7.6864  -16.2706   26.5489 N   0  0  0  0  0  0  0  0  0  0  0  0
    6.9379  -16.4455   25.3407 C   0  0  1  0  0  0  0  0  0  0  0  0
    5.9391  -15.2821   25.2708 C   0  0  0  0  0  0  0  0  0  0  0  0
    6.5158  -14.0667   25.8738 C   0  0  0  0  0  0  0  0  0  0  0  0
    5.7884  -13.3878   26.8269 C   0  0  0  0  0  0  0  0  0  0  0  0
    6.3213  -12.2405   27.4026 C   0  0  0  0  0  0  0  0  0  0  0  0
    7.5731  -11.7710   27.0311 C   0  0  0  0  0  0  0  0  0  0  0  0
    8.2883  -12.4796   26.0621 C   0  0  0  0  0  0  0  0  0  0  0  0
    7.7635  -13.6203   25.4868 C   0  0  0  0  0  0  0  0  0  0  0  0
    7.7703  -16.3416   24.1223 C   0  0  0  0  0  0  0  0  0  0  0  0
    8.7330  -15.5403   24.1252 O   0  0  0  0  0  0  0  0  0  0  0  0
    7.4506  -17.1472   23.0027 N   0  0  0  0  0  0  0  0  0  0  0  0
    6.3577  -16.7815   22.0863 C   0  0  0  0  0  0  0  0  0  0  0  0
    6.9631  -16.3089   20.8205 C   0  0  0  0  0  0  0  0  0  0  0  0
    6.2621  -16.0762   19.8006 O   0  0  0  0  0  0  0  0  0  0  0  0
    6.7500  -14.0246   20.1810 C   0  0  0  0  0  0  0  0  0  0  0  0
    8.2309  -13.8820   19.9140 C   0  0  1  0  0  0  0  0  0  0  0  0
    8.7815  -13.1963   20.9949 O   0  0  0  0  0  0  0  0  0  0  0  0
    8.9001  -15.2280   19.7212 C   0  0  2  0  0  0  0  0  0  0  0  0
    8.3473  -16.1082   20.7297 N   0  0  0  0  0  0  0  0  0  0  0  0
   10.3615  -15.1442   19.7821 C   0  0  0  0  0  0  0  0  0  0  0  0
   11.0216  -15.6749   20.7085 O   0  0  0  0  0  0  0  0  0  0  0  0
   11.0650  -14.4652   18.8016 O   0  0  0  0  0  0  0  0  0  0  0  0
  2  1  1  1
  2 10  1  0
  3  2  1  0
  4  5  2  0
  4  3  1  0
  6  5  1  0
  7  6  2  0
  8  7  1  0
  8  9  2  0
  9  4  1  0
 10 11  2  0
 10 12  1  0
 12 13  1  0
 13 14  1  0
 14 15  2  0
 17 16  1  1
 18 17  1  0
 19 17  1  0
 20 14  1  0
 19 20  1  1
 21 23  1  0
 21 19  1  0
 22 21  2  0
M  END
$$$$
