FGT.pdb
     RDKit          3D

 23 23  0  0  1  0  0  0  0  0999 V2000
    7.5185  -16.0458   25.1532 N   0  0  0  0  0  0  0  0  0  0  0  0
    7.4115  -16.1023   23.7263 C   0  0  1  0  0  0  0  0  0  0  0  0
    6.9765  -14.7050   23.2632 C   0  0  0  0  0  0  0  0  0  0  0  0
    6.8413  -13.7955   24.4155 C   0  0  0  0  0  0  0  0  0  0  0  0
    6.0541  -14.1812   25.4784 C   0  0  0  0  0  0  0  0  0  0  0  0
    5.9187  -13.3323   26.5706 C   0  0  0  0  0  0  0  0  0  0  0  0
    6.5644  -12.1046   26.6045 C   0  0  0  0  0  0  0  0  0  0  0  0
    7.3563  -11.7395   25.5126 C   0  0  0  0  0  0  0  0  0  0  0  0
    7.4943  -12.5792   24.4248 C   0  0  0  0  0  0  0  0  0  0  0  0
    8.7038  -16.3690   23.0577 C   0  0  0  0  0  0  0  0  0  0  0  0
    8.6922  -16.9594   21.9531 O   0  0  0  0  0  0  0  0  0  0  0  0
    9.9008  -15.9495   23.6870 N   0  0  0  0  0  0  0  0  0  0  0  0
   10.9167  -16.9229   24.1207 C   0  0  0  0  0  0  0  0  0  0  0  0
   11.4144  -16.5007   25.4497 C   0  0  0  0  0  0  0  0  0  0  0  0
   12.0324  -15.4149   25.6082 O   0  0  0  0  0  0  0  0  0  0  0  0
   11.2407  -14.4977   27.0477 C   0  0  0  0  0  0  0  0  0  0  0  0
   10.8181  -15.5177   28.0799 C   0  0  1  0  0  0  0  0  0  0  0  0
    9.4397  -15.6819   27.9584 O   0  0  0  0  0  0  0  0  0  0  0  0
   11.5444  -16.8355   27.8991 C   0  0  2  0  0  0  0  0  0  0  0  0
   11.2056  -17.3112   26.5739 N   0  0  0  0  0  0  0  0  0  0  0  0
   11.2214  -17.8052   28.9488 C   0  0  0  0  0  0  0  0  0  0  0  0
   10.5363  -18.8318   28.7200 O   0  0  0  0  0  0  0  0  0  0  0  0
   11.6717  -17.6109   30.2437 O   0  0  0  0  0  0  0  0  0  0  0  0
  2  1  1  1
  2 10  1  0
  3  2  1  0
  4  5  2  0
  4  3  1  0
  6  5  1  0
  7  6  2  0
  8  7  1  0
  8  9  2  0
  9  4  1  0
 10 11  2  0
 10 12  1  0
 12 13  1  0
 13 14  1  0
 14 15  2  0
 17 16  1  6
 18 17  1  0
 19 17  1  0
 20 14  1  0
 19 20  1  6
 21 23  1  0
 21 19  1  0
 22 21  2  0
M  END
$$$$
