FGT.pdb
     RDKit          3D

 23 23  0  0  1  0  0  0  0  0999 V2000
    6.4008  -17.4220   23.4863 N   0  0  0  0  0  0  0  0  0  0  0  0
    7.2209  -16.3724   24.0120 C   0  0  1  0  0  0  0  0  0  0  0  0
    6.6034  -15.9650   25.3569 C   0  0  0  0  0  0  0  0  0  0  0  0
    6.6718  -14.5035   25.5374 C   0  0  0  0  0  0  0  0  0  0  0  0
    5.5056  -13.8063   25.7663 C   0  0  0  0  0  0  0  0  0  0  0  0
    5.5571  -12.4280   25.9379 C   0  0  0  0  0  0  0  0  0  0  0  0
    6.7646  -11.7466   25.8820 C   0  0  0  0  0  0  0  0  0  0  0  0
    7.9313  -12.4793   25.6485 C   0  0  0  0  0  0  0  0  0  0  0  0
    7.8858  -13.8489   25.4772 C   0  0  0  0  0  0  0  0  0  0  0  0
    8.6012  -16.8103   24.3136 C   0  0  0  0  0  0  0  0  0  0  0  0
    8.7645  -17.9083   24.8940 O   0  0  0  0  0  0  0  0  0  0  0  0
    9.6825  -15.9772   23.9373 N   0  0  0  0  0  0  0  0  0  0  0  0
   11.0757  -16.4431   24.0371 C   0  0  0  0  0  0  0  0  0  0  0  0
   11.5632  -16.1338   25.4005 C   0  0  0  0  0  0  0  0  0  0  0  0
   12.6141  -15.4661   25.5895 O   0  0  0  0  0  0  0  0  0  0  0  0
   10.5003  -14.0806   27.8447 C   0  0  0  0  0  0  0  0  0  0  0  0
   10.5177  -15.4118   28.5603 C   0  0  1  0  0  0  0  0  0  0  0  0
    9.2004  -15.8613   28.6288 O   0  0  0  0  0  0  0  0  0  0  0  0
   11.4036  -16.4187   27.8544 C   0  0  2  0  0  0  0  0  0  0  0  0
   10.8562  -16.5837   26.5239 N   0  0  0  0  0  0  0  0  0  0  0  0
   11.5098  -17.6846   28.5843 C   0  0  0  0  0  0  0  0  0  0  0  0
   11.0898  -18.7667   28.1066 O   0  0  0  0  0  0  0  0  0  0  0  0
   12.0867  -17.7207   29.8427 O   0  0  0  0  0  0  0  0  0  0  0  0
  2  1  1  1
  2 10  1  0
  3  2  1  0
  4  5  2  0
  4  3  1  0
  6  5  1  0
  7  6  2  0
  8  7  1  0
  8  9  2  0
  9  4  1  0
 10 11  2  0
 10 12  1  0
 12 13  1  0
 13 14  1  0
 14 15  2  0
 17 16  1  6
 18 17  1  0
 19 17  1  0
 20 14  1  0
 19 20  1  6
 21 23  1  0
 21 19  1  0
 22 21  2  0
M  END
$$$$
