FGT.pdb
     RDKit          3D

 23 23  0  0  1  0  0  0  0  0999 V2000
    6.9475  -16.0974   24.4785 N   0  0  0  0  0  0  0  0  0  0  0  0
    7.9684  -15.2694   23.9102 C   0  0  1  0  0  0  0  0  0  0  0  0
    8.4381  -14.3246   25.0250 C   0  0  0  0  0  0  0  0  0  0  0  0
    7.3717  -13.3704   25.3796 C   0  0  0  0  0  0  0  0  0  0  0  0
    7.5608  -12.0321   25.1121 C   0  0  0  0  0  0  0  0  0  0  0  0
    6.5628  -11.1228   25.4419 C   0  0  0  0  0  0  0  0  0  0  0  0
    5.3814  -11.5439   26.0356 C   0  0  0  0  0  0  0  0  0  0  0  0
    5.2170  -12.9070   26.2953 C   0  0  0  0  0  0  0  0  0  0  0  0
    6.2055  -13.8149   25.9696 C   0  0  0  0  0  0  0  0  0  0  0  0
    9.1653  -16.0301   23.4898 C   0  0  0  0  0  0  0  0  0  0  0  0
   10.0073  -15.4595   22.7588 O   0  0  0  0  0  0  0  0  0  0  0  0
    9.3153  -17.3687   23.9264 N   0  0  0  0  0  0  0  0  0  0  0  0
   10.6463  -17.9849   24.0552 C   0  0  0  0  0  0  0  0  0  0  0  0
   11.2867  -17.4361   25.2721 C   0  0  0  0  0  0  0  0  0  0  0  0
   12.3740  -16.8030   25.2169 O   0  0  0  0  0  0  0  0  0  0  0  0
   10.8705  -14.8412   29.0301 C   0  0  0  0  0  0  0  0  0  0  0  0
   10.4658  -15.6205   27.7997 C   0  0  1  0  0  0  0  0  0  0  0  0
   10.7181  -14.8091   26.6952 O   0  0  0  0  0  0  0  0  0  0  0  0
   11.2128  -16.9350   27.6953 C   0  0  2  0  0  0  0  0  0  0  0  0
   10.6886  -17.6120   26.5274 N   0  0  0  0  0  0  0  0  0  0  0  0
   11.1056  -17.7419   28.9135 C   0  0  0  0  0  0  0  0  0  0  0  0
   10.2512  -18.6531   29.0364 O   0  0  0  0  0  0  0  0  0  0  0  0
   11.9595  -17.5160   29.9800 O   0  0  0  0  0  0  0  0  0  0  0  0
  2  1  1  1
  2 10  1  0
  3  2  1  0
  4  5  2  0
  4  3  1  0
  6  5  1  0
  7  6  2  0
  8  7  1  0
  8  9  2  0
  9  4  1  0
 10 11  2  0
 10 12  1  0
 12 13  1  0
 13 14  1  0
 14 15  2  0
 17 16  1  1
 18 17  1  0
 19 17  1  0
 20 14  1  0
 19 20  1  6
 21 23  1  0
 21 19  1  0
 22 21  2  0
M  END
$$$$
