FGT.pdb
     RDKit          3D

 23 23  0  0  1  0  0  0  0  0999 V2000
    7.7824  -16.6386   26.4992 N   0  0  0  0  0  0  0  0  0  0  0  0
    6.9483  -16.2459   25.4035 C   0  0  1  0  0  0  0  0  0  0  0  0
    7.5120  -14.9191   24.8764 C   0  0  0  0  0  0  0  0  0  0  0  0
    7.2982  -13.8389   25.8567 C   0  0  0  0  0  0  0  0  0  0  0  0
    8.3877  -13.3166   26.5188 C   0  0  0  0  0  0  0  0  0  0  0  0
    8.1990  -12.2979   27.4454 C   0  0  0  0  0  0  0  0  0  0  0  0
    6.9310  -11.8014   27.7117 C   0  0  0  0  0  0  0  0  0  0  0  0
    5.8445  -12.3500   27.0254 C   0  0  0  0  0  0  0  0  0  0  0  0
    6.0263  -13.3624   26.1036 C   0  0  0  0  0  0  0  0  0  0  0  0
    7.0005  -17.1909   24.2668 C   0  0  0  0  0  0  0  0  0  0  0  0
    7.9602  -17.9932   24.2027 O   0  0  0  0  0  0  0  0  0  0  0  0
    5.9692  -17.1548   23.2972 N   0  0  0  0  0  0  0  0  0  0  0  0
    6.0362  -17.9813   22.0805 C   0  0  0  0  0  0  0  0  0  0  0  0
    6.8611  -17.2603   21.0846 C   0  0  0  0  0  0  0  0  0  0  0  0
    7.0779  -17.7363   19.9390 O   0  0  0  0  0  0  0  0  0  0  0  0
    8.4555  -13.1006   19.3106 C   0  0  0  0  0  0  0  0  0  0  0  0
    7.5754  -14.0182   20.1280 C   0  0  1  0  0  0  0  0  0  0  0  0
    6.4092  -14.2325   19.3959 O   0  0  0  0  0  0  0  0  0  0  0  0
    8.2698  -15.3271   20.4469 C   0  0  2  0  0  0  0  0  0  0  0  0
    7.4254  -16.0168   21.4000 N   0  0  0  0  0  0  0  0  0  0  0  0
    9.6370  -15.1344   20.9368 C   0  0  0  0  0  0  0  0  0  0  0  0
    9.9811  -15.4621   22.0986 O   0  0  0  0  0  0  0  0  0  0  0  0
   10.6023  -14.5758   20.1161 O   0  0  0  0  0  0  0  0  0  0  0  0
  2  1  1  1
  2 10  1  0
  3  2  1  0
  4  5  2  0
  4  3  1  0
  6  5  1  0
  7  6  2  0
  8  7  1  0
  8  9  2  0
  9  4  1  0
 10 11  2  0
 10 12  1  0
 12 13  1  0
 13 14  1  0
 14 15  2  0
 17 16  1  6
 18 17  1  0
 19 17  1  0
 20 14  1  0
 19 20  1  1
 21 23  1  0
 21 19  1  0
 22 21  2  0
M  END
$$$$
