FGT.pdb
     RDKit          3D

 23 23  0  0  1  0  0  0  0  0999 V2000
    6.8489  -16.3634   24.7371 N   0  0  0  0  0  0  0  0  0  0  0  0
    7.3410  -16.0663   23.4255 C   0  0  1  0  0  0  0  0  0  0  0  0
    7.0976  -14.5685   23.1944 C   0  0  0  0  0  0  0  0  0  0  0  0
    7.0257  -13.8504   24.4798 C   0  0  0  0  0  0  0  0  0  0  0  0
    6.0717  -14.2274   25.3997 C   0  0  0  0  0  0  0  0  0  0  0  0
    5.9938  -13.5579   26.6152 C   0  0  0  0  0  0  0  0  0  0  0  0
    6.8620  -12.5175   26.9138 C   0  0  0  0  0  0  0  0  0  0  0  0
    7.8194  -12.1566   25.9621 C   0  0  0  0  0  0  0  0  0  0  0  0
    7.9012  -12.8185   24.7527 C   0  0  0  0  0  0  0  0  0  0  0  0
    8.8006  -16.2669   23.2941 C   0  0  0  0  0  0  0  0  0  0  0  0
    9.3690  -15.8463   22.2602 O   0  0  0  0  0  0  0  0  0  0  0  0
    9.4989  -16.9236   24.3361 N   0  0  0  0  0  0  0  0  0  0  0  0
   10.9414  -17.2000   24.2324 C   0  0  0  0  0  0  0  0  0  0  0  0
   11.5644  -16.8651   25.5331 C   0  0  0  0  0  0  0  0  0  0  0  0
   12.8094  -16.9411   25.7072 O   0  0  0  0  0  0  0  0  0  0  0  0
   11.1764  -13.8033   27.5443 C   0  0  0  0  0  0  0  0  0  0  0  0
   10.8204  -14.9559   28.4550 C   0  0  1  0  0  0  0  0  0  0  0  0
    9.4316  -14.9802   28.5671 O   0  0  0  0  0  0  0  0  0  0  0  0
   11.3502  -16.2742   27.9276 C   0  0  2  0  0  0  0  0  0  0  0  0
   10.7713  -16.4511   26.6120 N   0  0  0  0  0  0  0  0  0  0  0  0
   11.0662  -17.3955   28.8268 C   0  0  0  0  0  0  0  0  0  0  0  0
   10.3650  -18.3740   28.4712 O   0  0  0  0  0  0  0  0  0  0  0  0
   11.5730  -17.4049   30.1154 O   0  0  0  0  0  0  0  0  0  0  0  0
  2  1  1  1
  2 10  1  0
  3  2  1  0
  4  5  2  0
  4  3  1  0
  6  5  1  0
  7  6  2  0
  8  7  1  0
  8  9  2  0
  9  4  1  0
 10 11  2  0
 10 12  1  0
 12 13  1  0
 13 14  1  0
 14 15  2  0
 17 16  1  6
 18 17  1  0
 19 17  1  0
 20 14  1  0
 19 20  1  6
 21 23  1  0
 21 19  1  0
 22 21  2  0
M  END
$$$$
