FGT.pdb
     RDKit          3D

 23 23  0  0  1  0  0  0  0  0999 V2000
    7.1727  -15.4480   24.3756 N   0  0  0  0  0  0  0  0  0  0  0  0
    8.0569  -14.8225   23.4389 C   0  0  1  0  0  0  0  0  0  0  0  0
    8.6137  -13.5701   24.1300 C   0  0  0  0  0  0  0  0  0  0  0  0
    7.6415  -13.0391   25.1027 C   0  0  0  0  0  0  0  0  0  0  0  0
    6.9044  -11.9249   24.7657 C   0  0  0  0  0  0  0  0  0  0  0  0
    5.9847  -11.4148   25.6744 C   0  0  0  0  0  0  0  0  0  0  0  0
    5.7996  -12.0114   26.9135 C   0  0  0  0  0  0  0  0  0  0  0  0
    6.5608  -13.1401   27.2283 C   0  0  0  0  0  0  0  0  0  0  0  0
    7.4761  -13.6511   26.3291 C   0  0  0  0  0  0  0  0  0  0  0  0
    9.2304  -15.6575   23.1020 C   0  0  0  0  0  0  0  0  0  0  0  0
    9.9521  -15.3100   22.1390 O   0  0  0  0  0  0  0  0  0  0  0  0
    9.4944  -16.8134   23.8760 N   0  0  0  0  0  0  0  0  0  0  0  0
   10.6012  -17.7231   23.5363 C   0  0  0  0  0  0  0  0  0  0  0  0
   10.6618  -18.7753   24.5761 C   0  0  0  0  0  0  0  0  0  0  0  0
    9.7639  -18.8900   25.4517 O   0  0  0  0  0  0  0  0  0  0  0  0
   11.9786  -22.4426   23.7398 C   0  0  0  0  0  0  0  0  0  0  0  0
   12.6173  -21.8501   24.9750 C   0  0  1  0  0  0  0  0  0  0  0  0
   13.8694  -21.3662   24.6010 O   0  0  0  0  0  0  0  0  0  0  0  0
   11.7640  -20.7525   25.5783 C   0  0  2  0  0  0  0  0  0  0  0  0
   11.7338  -19.6777   24.6083 N   0  0  0  0  0  0  0  0  0  0  0  0
   12.2503  -20.3181   26.8902 C   0  0  0  0  0  0  0  0  0  0  0  0
   12.9187  -19.2660   27.0384 O   0  0  0  0  0  0  0  0  0  0  0  0
   11.9804  -21.0703   28.0210 O   0  0  0  0  0  0  0  0  0  0  0  0
  2  1  1  1
  2 10  1  0
  3  2  1  0
  4  5  2  0
  4  3  1  0
  6  5  1  0
  7  6  2  0
  8  7  1  0
  8  9  2  0
  9  4  1  0
 10 11  2  0
 10 12  1  0
 12 13  1  0
 13 14  1  0
 14 15  2  0
 17 16  1  6
 18 17  1  0
 19 17  1  0
 20 14  1  0
 19 20  1  6
 21 23  1  0
 21 19  1  0
 22 21  2  0
M  END
$$$$
