FGT.pdb
     RDKit          3D

 23 23  0  0  1  0  0  0  0  0999 V2000
    6.9571  -15.5594   23.7384 N   0  0  0  0  0  0  0  0  0  0  0  0
    8.1649  -14.8058   23.8927 C   0  0  1  0  0  0  0  0  0  0  0  0
    8.2950  -14.4867   25.3885 C   0  0  0  0  0  0  0  0  0  0  0  0
    7.3745  -13.3999   25.7688 C   0  0  0  0  0  0  0  0  0  0  0  0
    6.1214  -13.7242   26.2408 C   0  0  0  0  0  0  0  0  0  0  0  0
    5.2445  -12.7084   26.6025 C   0  0  0  0  0  0  0  0  0  0  0  0
    5.6136  -11.3751   26.4948 C   0  0  0  0  0  0  0  0  0  0  0  0
    6.8906  -11.0756   26.0130 C   0  0  0  0  0  0  0  0  0  0  0  0
    7.7659  -12.0811   25.6522 C   0  0  0  0  0  0  0  0  0  0  0  0
    9.3774  -15.5730   23.5330 C   0  0  0  0  0  0  0  0  0  0  0  0
   10.4918  -15.0116   23.6424 O   0  0  0  0  0  0  0  0  0  0  0  0
    9.2355  -16.9071   23.0804 N   0  0  0  0  0  0  0  0  0  0  0  0
   10.3959  -17.6803   22.6077 C   0  0  0  0  0  0  0  0  0  0  0  0
   10.9464  -18.4273   23.7614 C   0  0  0  0  0  0  0  0  0  0  0  0
   10.3443  -18.4715   24.8666 O   0  0  0  0  0  0  0  0  0  0  0  0
   12.6631  -21.9118   23.1360 C   0  0  0  0  0  0  0  0  0  0  0  0
   13.4800  -21.0416   24.0635 C   0  0  1  0  0  0  0  0  0  0  0  0
   14.5089  -20.4837   23.3072 O   0  0  0  0  0  0  0  0  0  0  0  0
   12.6348  -19.9659   24.7157 C   0  0  2  0  0  0  0  0  0  0  0  0
   12.1652  -19.1097   23.6463 N   0  0  0  0  0  0  0  0  0  0  0  0
   13.3623  -19.2297   25.7527 C   0  0  0  0  0  0  0  0  0  0  0  0
   13.9204  -18.1294   25.5218 O   0  0  0  0  0  0  0  0  0  0  0  0
   13.4546  -19.7380   27.0375 O   0  0  0  0  0  0  0  0  0  0  0  0
  2  1  1  1
  2 10  1  0
  3  2  1  0
  4  5  2  0
  4  3  1  0
  6  5  1  0
  7  6  2  0
  8  7  1  0
  8  9  2  0
  9  4  1  0
 10 11  2  0
 10 12  1  0
 12 13  1  0
 13 14  1  0
 14 15  2  0
 17 16  1  6
 18 17  1  0
 19 17  1  0
 20 14  1  0
 19 20  1  6
 21 23  1  0
 21 19  1  0
 22 21  2  0
M  END
$$$$
