FGT.pdb
     RDKit          3D

 23 23  0  0  1  0  0  0  0  0999 V2000
    7.8680  -18.2782   19.3729 N   0  0  0  0  0  0  0  0  0  0  0  0
    8.6332  -17.1474   19.8045 C   0  0  1  0  0  0  0  0  0  0  0  0
    7.7153  -16.3172   20.7125 C   0  0  0  0  0  0  0  0  0  0  0  0
    7.6851  -14.9105   20.2726 C   0  0  0  0  0  0  0  0  0  0  0  0
    6.4791  -14.3539   19.9067 C   0  0  0  0  0  0  0  0  0  0  0  0
    6.4377  -13.0286   19.4900 C   0  0  0  0  0  0  0  0  0  0  0  0
    7.5922  -12.2606   19.4377 C   0  0  0  0  0  0  0  0  0  0  0  0
    8.8012  -12.8513   19.8146 C   0  0  0  0  0  0  0  0  0  0  0  0
    8.8480  -14.1678   20.2294 C   0  0  0  0  0  0  0  0  0  0  0  0
    9.7997  -17.5187   20.6347 C   0  0  0  0  0  0  0  0  0  0  0  0
   10.2406  -18.6884   20.5534 O   0  0  0  0  0  0  0  0  0  0  0  0
   10.3730  -16.5441   21.4868 N   0  0  0  0  0  0  0  0  0  0  0  0
   11.6853  -16.7596   22.1187 C   0  0  0  0  0  0  0  0  0  0  0  0
   11.4894  -16.7633   23.5863 C   0  0  0  0  0  0  0  0  0  0  0  0
   12.4412  -16.9936   24.3782 O   0  0  0  0  0  0  0  0  0  0  0  0
    9.1714  -14.1417   25.3484 C   0  0  0  0  0  0  0  0  0  0  0  0
    8.8735  -15.5433   25.8295 C   0  0  1  0  0  0  0  0  0  0  0  0
    7.7193  -15.9684   25.1745 O   0  0  0  0  0  0  0  0  0  0  0  0
   10.0305  -16.4862   25.5671 C   0  0  2  0  0  0  0  0  0  0  0  0
   10.2241  -16.5073   24.1321 N   0  0  0  0  0  0  0  0  0  0  0  0
    9.8076  -17.8211   26.1283 C   0  0  0  0  0  0  0  0  0  0  0  0
    9.6430  -18.0080   27.3585 O   0  0  0  0  0  0  0  0  0  0  0  0
    9.7720  -18.9310   25.3011 O   0  0  0  0  0  0  0  0  0  0  0  0
  2  1  1  1
  2 10  1  0
  3  2  1  0
  4  5  2  0
  4  3  1  0
  6  5  1  0
  7  6  2  0
  8  7  1  0
  8  9  2  0
  9  4  1  0
 10 11  2  0
 10 12  1  0
 12 13  1  0
 13 14  1  0
 14 15  2  0
 17 16  1  6
 18 17  1  0
 19 17  1  0
 20 14  1  0
 19 20  1  6
 21 23  1  0
 21 19  1  0
 22 21  2  0
M  END
$$$$
