FGT.pdb
     RDKit          3D

 23 23  0  0  1  0  0  0  0  0999 V2000
    8.1598  -15.9756   25.7124 N   0  0  0  0  0  0  0  0  0  0  0  0
    6.9096  -16.3966   25.1554 C   0  0  1  0  0  0  0  0  0  0  0  0
    6.0822  -15.1248   24.9231 C   0  0  0  0  0  0  0  0  0  0  0  0
    6.5884  -14.0177   25.7544 C   0  0  0  0  0  0  0  0  0  0  0  0
    7.7656  -14.1919   26.4489 C   0  0  0  0  0  0  0  0  0  0  0  0
    8.2531  -13.1555   27.2362 C   0  0  0  0  0  0  0  0  0  0  0  0
    7.5715  -11.9506   27.3319 C   0  0  0  0  0  0  0  0  0  0  0  0
    6.3803  -11.8020   26.6167 C   0  0  0  0  0  0  0  0  0  0  0  0
    5.8914  -12.8287   25.8328 C   0  0  0  0  0  0  0  0  0  0  0  0
    7.0514  -17.0381   23.8302 C   0  0  0  0  0  0  0  0  0  0  0  0
    6.6580  -18.2196   23.6950 O   0  0  0  0  0  0  0  0  0  0  0  0
    7.6238  -16.2976   22.7677 N   0  0  0  0  0  0  0  0  0  0  0  0
    8.9798  -15.7338   22.8740 C   0  0  0  0  0  0  0  0  0  0  0  0
    9.9485  -16.8362   22.6780 C   0  0  0  0  0  0  0  0  0  0  0  0
   10.0504  -17.7797   23.5059 O   0  0  0  0  0  0  0  0  0  0  0  0
   13.5480  -18.7380   19.8869 C   0  0  0  0  0  0  0  0  0  0  0  0
   12.3723  -17.8054   20.0681 C   0  0  1  0  0  0  0  0  0  0  0  0
   11.3274  -18.3020   19.2914 O   0  0  0  0  0  0  0  0  0  0  0  0
   11.9654  -17.6892   21.5234 C   0  0  2  0  0  0  0  0  0  0  0  0
   10.7833  -16.8531   21.5523 N   0  0  0  0  0  0  0  0  0  0  0  0
   13.0442  -17.1743   22.3704 C   0  0  0  0  0  0  0  0  0  0  0  0
   13.2570  -15.9446   22.5048 O   0  0  0  0  0  0  0  0  0  0  0  0
   13.8719  -18.0467   23.0569 O   0  0  0  0  0  0  0  0  0  0  0  0
  2  1  1  6
  2 10  1  0
  3  2  1  0
  4  5  2  0
  4  3  1  0
  6  5  1  0
  7  6  2  0
  8  7  1  0
  8  9  2  0
  9  4  1  0
 10 11  2  0
 10 12  1  0
 12 13  1  0
 13 14  1  0
 14 15  2  0
 17 16  1  1
 18 17  1  0
 19 17  1  0
 20 14  1  0
 19 20  1  6
 21 23  1  0
 21 19  1  0
 22 21  2  0
M  END
$$$$
