KTM.pdb
     RDKit          3D

 25 24  0  0  1  0  0  0  0  0999 V2000
   16.6534  -15.0972  -17.1448 N   0  0  0  0  0  0  0  0  0  0  0  0
   17.0673  -14.3369  -16.0374 C   0  0  1  0  0  0  0  0  0  0  0  0
   17.7570  -15.0670  -14.9672 C   0  0  0  0  0  0  0  0  0  0  0  0
   18.4469  -16.3011  -15.2663 C   0  0  0  0  0  0  0  0  0  0  0  0
   18.8479  -17.2567  -14.2545 C   0  0  0  0  0  0  0  0  0  0  0  0
   19.5462  -18.5149  -14.5040 C   0  0  0  0  0  0  0  0  0  0  0  0
   19.8685  -19.2957  -13.3315 N   0  0  0  0  0  0  0  0  0  0  0  0
   17.9099  -13.2010  -16.5691 C   0  0  0  0  0  0  0  0  0  0  0  0
   18.6569  -13.3537  -17.5689 O   0  0  0  0  0  0  0  0  0  0  0  0
   16.4899   -9.8772  -17.5334 C   0  0  0  0  0  0  0  0  0  0  0  0
   17.5792   -9.5824  -16.5146 C   0  0  1  0  0  0  0  0  0  0  0  0
   16.9903   -9.4265  -15.2668 O   0  0  0  0  0  0  0  0  0  0  0  0
   18.5340  -10.7683  -16.4601 C   0  0  2  0  0  0  0  0  0  0  0  0
   17.8672  -11.9403  -15.9414 N   0  0  0  0  0  0  0  0  0  0  0  0
   19.6973  -10.4451  -15.5963 C   0  0  0  0  0  0  0  0  0  0  0  0
   19.7458  -10.8656  -14.4065 O   0  0  0  0  0  0  0  0  0  0  0  0
   27.1699  -10.5139  -14.8596 C   0  0  0  0  0  0  0  0  0  0  0  0
   25.9746   -9.7083  -15.9662 S   0  0  0  0  0  0  0  0  0  0  0  0
   24.4156   -9.3651  -15.1000 C   0  0  0  0  0  0  0  0  0  0  0  0
   23.2416   -9.7362  -15.9463 C   0  0  0  0  0  0  0  0  0  0  0  0
   21.9552   -9.3926  -15.2308 C   0  0  2  0  0  0  0  0  0  0  0  0
   20.7916   -9.6662  -16.0455 N   0  0  0  0  0  0  0  0  0  0  0  0
   21.9435   -7.9419  -14.9018 C   0  0  0  0  0  0  0  0  0  0  0  0
   21.4323   -7.1181  -15.7051 O   0  0  0  0  0  0  0  0  0  0  0  0
   22.4884   -7.4534  -13.7134 O   0  0  0  0  0  0  0  0  0  0  0  0
  2  1  1  6
  3  2  1  0
  4  3  1  0
  5  6  1  0
  5  4  1  0
  7  6  1  0
  8  2  1  0
  8  9  2  0
 11 10  1  6
 11 13  1  0
 12 11  1  0
 13 14  1  1
 14  8  1  0
 15 13  1  0
 16 15  2  0
 18 19  1  0
 18 17  1  0
 19 20  1  0
 21 20  1  6
 21 23  1  0
 21 22  1  0
 22 15  1  0
 23 25  1  0
 24 23  2  0
M  END
$$$$
