KTM.pdb
     RDKit          3D

 25 24  0  0  1  0  0  0  0  0999 V2000
   17.9420  -12.1778  -15.1239 N   0  0  0  0  0  0  0  0  0  0  0  0
   18.9235  -11.5801  -15.9333 C   0  0  1  0  0  0  0  0  0  0  0  0
   18.9571  -12.0052  -17.3377 C   0  0  0  0  0  0  0  0  0  0  0  0
   19.0595  -13.4096  -17.6626 C   0  0  0  0  0  0  0  0  0  0  0  0
   19.1080  -13.9132  -19.0197 C   0  0  0  0  0  0  0  0  0  0  0  0
   19.2368  -15.3174  -19.4002 C   0  0  0  0  0  0  0  0  0  0  0  0
   19.1193  -15.5968  -20.8132 N   0  0  0  0  0  0  0  0  0  0  0  0
   18.7509  -10.0843  -15.8083 C   0  0  0  0  0  0  0  0  0  0  0  0
   18.0902   -9.4295  -16.6542 O   0  0  0  0  0  0  0  0  0  0  0  0
   16.8726   -8.2544  -13.5944 C   0  0  0  0  0  0  0  0  0  0  0  0
   18.2690   -7.7399  -13.2828 C   0  0  1  0  0  0  0  0  0  0  0  0
   18.7754   -8.4539  -12.2048 O   0  0  0  0  0  0  0  0  0  0  0  0
   19.1624   -7.9819  -14.4929 C   0  0  2  0  0  0  0  0  0  0  0  0
   19.3369   -9.3968  -14.7269 N   0  0  0  0  0  0  0  0  0  0  0  0
   20.4905   -7.3543  -14.2778 C   0  0  0  0  0  0  0  0  0  0  0  0
   21.4575   -8.0394  -13.8414 O   0  0  0  0  0  0  0  0  0  0  0  0
   25.5303   -6.2919  -17.3408 C   0  0  0  0  0  0  0  0  0  0  0  0
   25.2335   -4.6039  -16.7366 S   0  0  0  0  0  0  0  0  0  0  0  0
   24.1667   -4.6177  -15.2668 C   0  0  0  0  0  0  0  0  0  0  0  0
   22.8857   -5.3353  -15.5436 C   0  0  0  0  0  0  0  0  0  0  0  0
   22.0230   -5.3568  -14.3027 C   0  0  2  0  0  0  0  0  0  0  0  0
   20.7428   -5.9862  -14.5428 N   0  0  0  0  0  0  0  0  0  0  0  0
   21.7621   -3.9619  -13.8562 C   0  0  0  0  0  0  0  0  0  0  0  0
   20.6384   -3.4337  -14.0646 O   0  0  0  0  0  0  0  0  0  0  0  0
   22.7361   -3.2051  -13.2031 O   0  0  0  0  0  0  0  0  0  0  0  0
  2  1  1  1
  3  2  1  0
  4  3  1  0
  5  6  1  0
  5  4  1  0
  7  6  1  0
  8  2  1  0
  8  9  2  0
 11 10  1  6
 11 13  1  0
 12 11  1  0
 13 14  1  1
 14  8  1  0
 15 13  1  0
 16 15  2  0
 18 19  1  0
 18 17  1  0
 19 20  1  0
 21 20  1  6
 21 23  1  0
 21 22  1  0
 22 15  1  0
 23 25  1  0
 24 23  2  0
M  END
$$$$
