KTM.pdb
     RDKit          3D

 25 24  0  0  1  0  0  0  0  0999 V2000
   16.9926  -13.7521  -19.6096 N   0  0  0  0  0  0  0  0  0  0  0  0
   16.7938  -12.7333  -18.6619 C   0  0  1  0  0  0  0  0  0  0  0  0
   16.3702  -13.1621  -17.3237 C   0  0  0  0  0  0  0  0  0  0  0  0
   16.6603  -14.5040  -16.8721 C   0  0  0  0  0  0  0  0  0  0  0  0
   16.2729  -15.0094  -15.5713 C   0  0  0  0  0  0  0  0  0  0  0  0
   15.0440  -15.7416  -15.2764 C   0  0  0  0  0  0  0  0  0  0  0  0
   14.9236  -16.2456  -13.9274 N   0  0  0  0  0  0  0  0  0  0  0  0
   18.0672  -11.9217  -18.6093 C   0  0  0  0  0  0  0  0  0  0  0  0
   19.1739  -12.4198  -18.9379 O   0  0  0  0  0  0  0  0  0  0  0  0
   18.0515   -8.3878  -20.0893 C   0  0  0  0  0  0  0  0  0  0  0  0
   18.6958   -8.2886  -18.7157 C   0  0  1  0  0  0  0  0  0  0  0  0
   17.7462   -7.8322  -17.8113 O   0  0  0  0  0  0  0  0  0  0  0  0
   19.1524   -9.6773  -18.2865 C   0  0  2  0  0  0  0  0  0  0  0  0
   18.0278  -10.5785  -18.1855 N   0  0  0  0  0  0  0  0  0  0  0  0
   19.8392   -9.6029  -16.9725 C   0  0  0  0  0  0  0  0  0  0  0  0
   19.2608  -10.0082  -15.9256 O   0  0  0  0  0  0  0  0  0  0  0  0
   26.3867   -9.7350  -16.2157 C   0  0  0  0  0  0  0  0  0  0  0  0
   25.6957  -10.2343  -14.6109 S   0  0  0  0  0  0  0  0  0  0  0  0
   23.9899   -9.6395  -14.4242 C   0  0  0  0  0  0  0  0  0  0  0  0
   23.2659   -9.6755  -15.7307 C   0  0  0  0  0  0  0  0  0  0  0  0
   21.8714   -9.1154  -15.5683 C   0  0  2  0  0  0  0  0  0  0  0  0
   21.1491   -9.0862  -16.8213 N   0  0  0  0  0  0  0  0  0  0  0  0
   21.9542   -7.7184  -15.0637 C   0  0  0  0  0  0  0  0  0  0  0  0
   21.9512   -6.7549  -15.8743 O   0  0  0  0  0  0  0  0  0  0  0  0
   22.0362   -7.4332  -13.7000 O   0  0  0  0  0  0  0  0  0  0  0  0
  2  1  1  6
  3  2  1  0
  4  3  1  0
  5  6  1  0
  5  4  1  0
  7  6  1  0
  8  2  1  0
  8  9  2  0
 11 10  1  6
 11 13  1  0
 12 11  1  0
 13 14  1  1
 14  8  1  0
 15 13  1  0
 16 15  2  0
 18 19  1  0
 18 17  1  0
 19 20  1  0
 21 20  1  6
 21 23  1  0
 21 22  1  0
 22 15  1  0
 23 25  1  0
 24 23  2  0
M  END
$$$$
