KTM.pdb
     RDKit          3D

 25 24  0  0  1  0  0  0  0  0999 V2000
   21.5119  -19.9178  -16.9329 N   0  0  0  0  0  0  0  0  0  0  0  0
   22.2220  -18.8546  -16.3490 C   0  0  1  0  0  0  0  0  0  0  0  0
   22.8607  -19.1299  -15.0565 C   0  0  0  0  0  0  0  0  0  0  0  0
   22.8187  -20.4640  -14.5023 C   0  0  0  0  0  0  0  0  0  0  0  0
   23.5055  -21.5948  -15.0915 C   0  0  0  0  0  0  0  0  0  0  0  0
   23.4681  -22.9662  -14.5905 C   0  0  0  0  0  0  0  0  0  0  0  0
   23.8013  -23.1322  -13.1941 N   0  0  0  0  0  0  0  0  0  0  0  0
   23.2232  -18.3740  -17.3735 C   0  0  0  0  0  0  0  0  0  0  0  0
   24.0049  -19.1734  -17.9486 O   0  0  0  0  0  0  0  0  0  0  0  0
   22.7235  -17.5118  -20.5293 C   0  0  0  0  0  0  0  0  0  0  0  0
   23.2832  -16.1982  -20.0068 C   0  0  1  0  0  0  0  0  0  0  0  0
   22.2238  -15.3725  -19.6546 O   0  0  0  0  0  0  0  0  0  0  0  0
   24.1177  -16.4802  -18.7638 C   0  0  2  0  0  0  0  0  0  0  0  0
   23.2927  -17.0052  -17.7004 N   0  0  0  0  0  0  0  0  0  0  0  0
   24.7776  -15.2336  -18.3010 C   0  0  0  0  0  0  0  0  0  0  0  0
   24.2435  -14.5235  -17.4036 O   0  0  0  0  0  0  0  0  0  0  0  0
   31.4724  -10.9777  -17.9851 C   0  0  0  0  0  0  0  0  0  0  0  0
   30.6499  -12.5108  -18.5098 S   0  0  0  0  0  0  0  0  0  0  0  0
   28.8901  -12.4908  -18.0613 C   0  0  0  0  0  0  0  0  0  0  0  0
   28.2140  -13.7503  -18.4958 C   0  0  0  0  0  0  0  0  0  0  0  0
   26.7193  -13.6308  -18.3053 C   0  0  2  0  0  0  0  0  0  0  0  0
   26.0124  -14.7805  -18.8260 N   0  0  0  0  0  0  0  0  0  0  0  0
   26.2218  -12.4303  -19.0295 C   0  0  0  0  0  0  0  0  0  0  0  0
   25.8360  -12.5304  -20.2238 O   0  0  0  0  0  0  0  0  0  0  0  0
   26.1667  -11.1755  -18.4211 O   0  0  0  0  0  0  0  0  0  0  0  0
  2  1  1  6
  3  2  1  0
  4  3  1  0
  5  6  1  0
  5  4  1  0
  7  6  1  0
  8  2  1  0
  8  9  2  0
 11 10  1  1
 11 13  1  0
 12 11  1  0
 13 14  1  1
 14  8  1  0
 15 13  1  0
 16 15  2  0
 18 19  1  0
 18 17  1  0
 19 20  1  0
 21 20  1  6
 21 23  1  0
 21 22  1  0
 22 15  1  0
 23 25  1  0
 24 23  2  0
M  END
$$$$
