KTM.pdb
     RDKit          3D

 25 24  0  0  1  0  0  0  0  0999 V2000
   19.9404  -13.7932  -18.2698 N   0  0  0  0  0  0  0  0  0  0  0  0
   21.3383  -13.6983  -18.3820 C   0  0  1  0  0  0  0  0  0  0  0  0
   21.9555  -14.4457  -19.4840 C   0  0  0  0  0  0  0  0  0  0  0  0
   21.7693  -15.8758  -19.5774 C   0  0  0  0  0  0  0  0  0  0  0  0
   20.5034  -16.5337  -19.3279 C   0  0  0  0  0  0  0  0  0  0  0  0
   20.2682  -17.9738  -19.3891 C   0  0  0  0  0  0  0  0  0  0  0  0
   20.9963  -18.7688  -18.4266 N   0  0  0  0  0  0  0  0  0  0  0  0
   21.6793  -12.2278  -18.4468 C   0  0  0  0  0  0  0  0  0  0  0  0
   22.8587  -11.8383  -18.6423 O   0  0  0  0  0  0  0  0  0  0  0  0
   20.0848   -9.8115  -20.7815 C   0  0  0  0  0  0  0  0  0  0  0  0
   19.8600   -9.2378  -19.3916 C   0  0  1  0  0  0  0  0  0  0  0  0
   18.5879   -9.5942  -18.9640 O   0  0  0  0  0  0  0  0  0  0  0  0
   20.8836   -9.8432  -18.4394 C   0  0  2  0  0  0  0  0  0  0  0  0
   20.6650  -11.2630  -18.2865 N   0  0  0  0  0  0  0  0  0  0  0  0
   20.7912   -9.1882  -17.1104 C   0  0  0  0  0  0  0  0  0  0  0  0
   20.2805   -9.8001  -16.1308 O   0  0  0  0  0  0  0  0  0  0  0  0
   23.8857   -3.5545  -15.5671 C   0  0  0  0  0  0  0  0  0  0  0  0
   22.7843   -3.7413  -14.1338 S   0  0  0  0  0  0  0  0  0  0  0  0
   21.9301   -5.3435  -14.1748 C   0  0  0  0  0  0  0  0  0  0  0  0
   21.9433   -5.9206  -15.5529 C   0  0  0  0  0  0  0  0  0  0  0  0
   21.2003   -7.2367  -15.5729 C   0  0  2  0  0  0  0  0  0  0  0  0
   21.2585   -7.8729  -16.8708 N   0  0  0  0  0  0  0  0  0  0  0  0
   19.7672   -7.0016  -15.2506 C   0  0  0  0  0  0  0  0  0  0  0  0
   19.4154   -6.7941  -14.0596 O   0  0  0  0  0  0  0  0  0  0  0  0
   18.7818   -7.0030  -16.2390 O   0  0  0  0  0  0  0  0  0  0  0  0
  2  1  1  6
  3  2  1  0
  4  3  1  0
  5  6  1  0
  5  4  1  0
  7  6  1  0
  8  2  1  0
  8  9  2  0
 11 10  1  6
 11 13  1  0
 12 11  1  0
 13 14  1  1
 14  8  1  0
 15 13  1  0
 16 15  2  0
 18 19  1  0
 18 17  1  0
 19 20  1  0
 21 20  1  6
 21 23  1  0
 21 22  1  0
 22 15  1  0
 23 25  1  0
 24 23  2  0
M  END
$$$$
