KTM.pdb
     RDKit          3D

 25 24  0  0  1  0  0  0  0  0999 V2000
   24.9103  -21.1171   -8.6353 N   0  0  0  0  0  0  0  0  0  0  0  0
   24.4399  -21.0314   -9.9570 C   0  0  1  0  0  0  0  0  0  0  0  0
   23.0887  -20.4862  -10.1334 C   0  0  0  0  0  0  0  0  0  0  0  0
   21.9516  -21.1879   -9.5827 C   0  0  0  0  0  0  0  0  0  0  0  0
   21.6640  -21.2524   -8.1647 C   0  0  0  0  0  0  0  0  0  0  0  0
   20.4981  -21.8941   -7.5631 C   0  0  0  0  0  0  0  0  0  0  0  0
   20.7112  -23.2299   -7.0543 N   0  0  0  0  0  0  0  0  0  0  0  0
   25.4641  -20.2456  -10.7422 C   0  0  0  0  0  0  0  0  0  0  0  0
   26.2201  -19.4127  -10.1805 O   0  0  0  0  0  0  0  0  0  0  0  0
   28.3015  -21.3297  -12.8559 C   0  0  0  0  0  0  0  0  0  0  0  0
   27.3694  -20.5820  -13.7959 C   0  0  1  0  0  0  0  0  0  0  0  0
   26.5746  -21.5058  -14.4615 O   0  0  0  0  0  0  0  0  0  0  0  0
   26.4713  -19.6679  -12.9719 C   0  0  2  0  0  0  0  0  0  0  0  0
   25.5850  -20.4405  -12.1325 N   0  0  0  0  0  0  0  0  0  0  0  0
   25.6648  -18.8036  -13.8699 C   0  0  0  0  0  0  0  0  0  0  0  0
   24.4977  -19.1474  -14.2084 O   0  0  0  0  0  0  0  0  0  0  0  0
   24.8728  -11.8843  -17.7204 C   0  0  0  0  0  0  0  0  0  0  0  0
   25.8063  -12.8516  -16.4977 S   0  0  0  0  0  0  0  0  0  0  0  0
   25.1865  -14.5563  -16.4068 C   0  0  0  0  0  0  0  0  0  0  0  0
   25.9681  -15.3566  -15.4164 C   0  0  0  0  0  0  0  0  0  0  0  0
   25.3824  -16.7443  -15.2908 C   0  0  2  0  0  0  0  0  0  0  0  0
   26.1456  -17.5754  -14.3855 N   0  0  0  0  0  0  0  0  0  0  0  0
   25.3875  -17.4068  -16.6227 C   0  0  0  0  0  0  0  0  0  0  0  0
   26.4469  -17.9242  -17.0647 O   0  0  0  0  0  0  0  0  0  0  0  0
   24.2395  -17.4764  -17.4133 O   0  0  0  0  0  0  0  0  0  0  0  0
  2  1  1  1
  3  2  1  0
  4  3  1  0
  5  6  1  0
  5  4  1  0
  7  6  1  0
  8  2  1  0
  8  9  2  0
 11 10  1  1
 11 13  1  0
 12 11  1  0
 13 14  1  6
 14  8  1  0
 15 13  1  0
 16 15  2  0
 18 19  1  0
 18 17  1  0
 19 20  1  0
 21 20  1  6
 21 23  1  0
 21 22  1  0
 22 15  1  0
 23 25  1  0
 24 23  2  0
M  END
$$$$
