KTM.pdb
     RDKit          3D

 25 24  0  0  1  0  0  0  0  0999 V2000
   23.9825  -21.8368  -10.6941 N   0  0  0  0  0  0  0  0  0  0  0  0
   23.7727  -21.1977  -11.9283 C   0  0  1  0  0  0  0  0  0  0  0  0
   22.5368  -20.4163  -12.0554 C   0  0  0  0  0  0  0  0  0  0  0  0
   21.3433  -21.0374  -12.5831 C   0  0  0  0  0  0  0  0  0  0  0  0
   20.4003  -21.7748  -11.7678 C   0  0  0  0  0  0  0  0  0  0  0  0
   19.1749  -22.4072  -12.2489 C   0  0  0  0  0  0  0  0  0  0  0  0
   18.3098  -22.9537  -11.2285 N   0  0  0  0  0  0  0  0  0  0  0  0
   24.9955  -20.3542  -12.2046 C   0  0  0  0  0  0  0  0  0  0  0  0
   25.6901  -19.8835  -11.2683 O   0  0  0  0  0  0  0  0  0  0  0  0
   28.2599  -20.8522  -13.5291 C   0  0  0  0  0  0  0  0  0  0  0  0
   27.5898  -19.9592  -14.5612 C   0  0  1  0  0  0  0  0  0  0  0  0
   27.0522  -20.7603  -15.5599 O   0  0  0  0  0  0  0  0  0  0  0  0
   26.4588  -19.1930  -13.8869 C   0  0  2  0  0  0  0  0  0  0  0  0
   25.3762  -20.0821  -13.5336 N   0  0  0  0  0  0  0  0  0  0  0  0
   25.9474  -18.1368  -14.7962 C   0  0  0  0  0  0  0  0  0  0  0  0
   24.9272  -18.3476  -15.5100 O   0  0  0  0  0  0  0  0  0  0  0  0
   28.8782  -12.1632  -16.0796 C   0  0  0  0  0  0  0  0  0  0  0  0
   27.0910  -11.8832  -16.2513 S   0  0  0  0  0  0  0  0  0  0  0  0
   26.2029  -13.4547  -16.4515 C   0  0  0  0  0  0  0  0  0  0  0  0
   26.7831  -14.5120  -15.5694 C   0  0  0  0  0  0  0  0  0  0  0  0
   26.0516  -15.8188  -15.7736 C   0  0  2  0  0  0  0  0  0  0  0  0
   26.5588  -16.8647  -14.9125 N   0  0  0  0  0  0  0  0  0  0  0  0
   26.2258  -16.2698  -17.1804 C   0  0  0  0  0  0  0  0  0  0  0  0
   27.2782  -16.8697  -17.5236 O   0  0  0  0  0  0  0  0  0  0  0  0
   25.2468  -16.0476  -18.1500 O   0  0  0  0  0  0  0  0  0  0  0  0
  2  1  1  1
  3  2  1  0
  4  3  1  0
  5  6  1  0
  5  4  1  0
  7  6  1  0
  8  2  1  0
  8  9  2  0
 11 10  1  1
 11 13  1  0
 12 11  1  0
 13 14  1  6
 14  8  1  0
 15 13  1  0
 16 15  2  0
 18 19  1  0
 18 17  1  0
 19 20  1  0
 21 20  1  6
 21 23  1  0
 21 22  1  0
 22 15  1  0
 23 25  1  0
 24 23  2  0
M  END
$$$$
