KTM.pdb
     RDKit          3D

 25 24  0  0  1  0  0  0  0  0999 V2000
   22.5843  -19.4966  -14.4446 N   0  0  0  0  0  0  0  0  0  0  0  0
   22.4271  -18.6831  -15.5801 C   0  0  1  0  0  0  0  0  0  0  0  0
   21.0564  -18.5175  -16.0780 C   0  0  0  0  0  0  0  0  0  0  0  0
   20.2034  -19.6733  -16.2366 C   0  0  0  0  0  0  0  0  0  0  0  0
   19.2118  -20.0734  -15.2597 C   0  0  0  0  0  0  0  0  0  0  0  0
   18.1981  -21.1069  -15.4531 C   0  0  0  0  0  0  0  0  0  0  0  0
   18.6679  -22.4703  -15.3597 N   0  0  0  0  0  0  0  0  0  0  0  0
   23.0695  -17.3524  -15.2648 C   0  0  0  0  0  0  0  0  0  0  0  0
   22.8812  -16.7808  -14.1610 O   0  0  0  0  0  0  0  0  0  0  0  0
   26.1087  -16.1843  -14.3093 C   0  0  0  0  0  0  0  0  0  0  0  0
   25.9749  -15.5547  -15.6867 C   0  0  1  0  0  0  0  0  0  0  0  0
   26.5752  -16.3914  -16.6182 O   0  0  0  0  0  0  0  0  0  0  0  0
   24.4951  -15.4268  -16.0261 C   0  0  2  0  0  0  0  0  0  0  0  0
   23.8987  -16.7286  -16.2181 N   0  0  0  0  0  0  0  0  0  0  0  0
   24.3248  -14.6235  -17.2628 C   0  0  0  0  0  0  0  0  0  0  0  0
   24.1407  -15.1936  -18.3745 O   0  0  0  0  0  0  0  0  0  0  0  0
   21.7161   -7.9398  -20.4739 C   0  0  0  0  0  0  0  0  0  0  0  0
   22.2361   -8.8063  -18.9636 S   0  0  0  0  0  0  0  0  0  0  0  0
   23.0576  -10.3756  -19.3647 C   0  0  0  0  0  0  0  0  0  0  0  0
   23.2127  -11.2241  -18.1446 C   0  0  0  0  0  0  0  0  0  0  0  0
   24.0952  -12.4134  -18.4469 C   0  0  2  0  0  0  0  0  0  0  0  0
   24.3582  -13.2077  -17.2668 N   0  0  0  0  0  0  0  0  0  0  0  0
   25.4040  -11.9389  -18.9711 C   0  0  0  0  0  0  0  0  0  0  0  0
   25.4931  -11.5171  -20.1541 O   0  0  0  0  0  0  0  0  0  0  0  0
   26.5566  -11.9447  -18.1842 O   0  0  0  0  0  0  0  0  0  0  0  0
  2  1  1  1
  3  2  1  0
  4  3  1  0
  5  6  1  0
  5  4  1  0
  7  6  1  0
  8  2  1  0
  8  9  2  0
 11 10  1  1
 11 13  1  0
 12 11  1  0
 13 14  1  6
 14  8  1  0
 15 13  1  0
 16 15  2  0
 18 19  1  0
 18 17  1  0
 19 20  1  0
 21 20  1  1
 21 23  1  0
 21 22  1  0
 22 15  1  0
 23 25  1  0
 24 23  2  0
M  END
$$$$
