KTM.pdb
     RDKit          3D

 25 24  0  0  1  0  0  0  0  0999 V2000
   29.2999  -23.9941  -16.9474 N   0  0  0  0  0  0  0  0  0  0  0  0
   28.7264  -22.7653  -17.3172 C   0  0  1  0  0  0  0  0  0  0  0  0
   28.0718  -22.7208  -18.6300 C   0  0  0  0  0  0  0  0  0  0  0  0
   27.1264  -23.7499  -18.9984 C   0  0  0  0  0  0  0  0  0  0  0  0
   25.8274  -23.9000  -18.3758 C   0  0  0  0  0  0  0  0  0  0  0  0
   24.5404  -23.7620  -19.0524 C   0  0  0  0  0  0  0  0  0  0  0  0
   24.3497  -24.6015  -20.2131 N   0  0  0  0  0  0  0  0  0  0  0  0
   27.7797  -22.3663  -16.2092 C   0  0  0  0  0  0  0  0  0  0  0  0
   27.6654  -23.0588  -15.1660 O   0  0  0  0  0  0  0  0  0  0  0  0
   27.9455  -19.1963  -14.4121 C   0  0  0  0  0  0  0  0  0  0  0  0
   26.5270  -19.2354  -14.9578 C   0  0  1  0  0  0  0  0  0  0  0  0
   26.4814  -18.4934  -16.1306 O   0  0  0  0  0  0  0  0  0  0  0  0
   26.1643  -20.6799  -15.2786 C   0  0  2  0  0  0  0  0  0  0  0  0
   27.0035  -21.1971  -16.3347 N   0  0  0  0  0  0  0  0  0  0  0  0
   24.7426  -20.7661  -15.6971 C   0  0  0  0  0  0  0  0  0  0  0  0
   24.4228  -21.3888  -16.7482 O   0  0  0  0  0  0  0  0  0  0  0  0
   19.3218  -25.2279  -14.6970 C   0  0  0  0  0  0  0  0  0  0  0  0
   20.8671  -24.4317  -14.1677 S   0  0  0  0  0  0  0  0  0  0  0  0
   21.0157  -22.7657  -14.8756 C   0  0  0  0  0  0  0  0  0  0  0  0
   22.2822  -22.1083  -14.4325 C   0  0  0  0  0  0  0  0  0  0  0  0
   22.3397  -20.6889  -14.9489 C   0  0  2  0  0  0  0  0  0  0  0  0
   23.6901  -20.1702  -14.9604 N   0  0  0  0  0  0  0  0  0  0  0  0
   21.5264  -19.8079  -14.0685 C   0  0  0  0  0  0  0  0  0  0  0  0
   22.0367  -19.3109  -13.0303 O   0  0  0  0  0  0  0  0  0  0  0  0
   20.1944  -19.5075  -14.3578 O   0  0  0  0  0  0  0  0  0  0  0  0
  2  1  1  1
  3  2  1  0
  4  3  1  0
  5  6  1  0
  5  4  1  0
  7  6  1  0
  8  2  1  0
  8  9  2  0
 11 10  1  6
 11 13  1  0
 12 11  1  0
 13 14  1  6
 14  8  1  0
 15 13  1  0
 16 15  2  0
 18 19  1  0
 18 17  1  0
 19 20  1  0
 21 20  1  1
 21 23  1  0
 21 22  1  0
 22 15  1  0
 23 25  1  0
 24 23  2  0
M  END
$$$$
