KTM.pdb
     RDKit          3D

 25 24  0  0  1  0  0  0  0  0999 V2000
   26.0612  -23.9315  -17.1594 N   0  0  0  0  0  0  0  0  0  0  0  0
   25.3682  -23.8401  -15.9399 C   0  0  1  0  0  0  0  0  0  0  0  0
   25.0368  -25.1097  -15.2823 C   0  0  0  0  0  0  0  0  0  0  0  0
   23.7524  -25.7289  -15.5182 C   0  0  0  0  0  0  0  0  0  0  0  0
   23.0935  -25.7333  -16.8079 C   0  0  0  0  0  0  0  0  0  0  0  0
   21.8106  -26.3656  -17.1038 C   0  0  0  0  0  0  0  0  0  0  0  0
   21.1505  -26.9972  -15.9841 N   0  0  0  0  0  0  0  0  0  0  0  0
   26.1778  -22.9397  -15.0360 C   0  0  0  0  0  0  0  0  0  0  0  0
   27.4302  -22.8773  -15.1272 O   0  0  0  0  0  0  0  0  0  0  0  0
   26.7680  -19.5290  -14.8542 C   0  0  0  0  0  0  0  0  0  0  0  0
   26.0043  -19.8044  -13.5687 C   0  0  1  0  0  0  0  0  0  0  0  0
   24.6502  -19.6081  -13.8055 O   0  0  0  0  0  0  0  0  0  0  0  0
   26.2253  -21.2576  -13.1684 C   0  0  2  0  0  0  0  0  0  0  0  0
   25.5287  -22.1488  -14.0672 N   0  0  0  0  0  0  0  0  0  0  0  0
   25.7405  -21.4827  -11.7834 C   0  0  0  0  0  0  0  0  0  0  0  0
   24.6566  -22.0974  -11.5781 O   0  0  0  0  0  0  0  0  0  0  0  0
   28.6097  -18.7203   -6.4147 C   0  0  0  0  0  0  0  0  0  0  0  0
   27.3303  -19.7860   -5.6870 S   0  0  0  0  0  0  0  0  0  0  0  0
   26.1651  -20.3618   -6.9555 C   0  0  0  0  0  0  0  0  0  0  0  0
   26.8196  -20.4134   -8.2977 C   0  0  0  0  0  0  0  0  0  0  0  0
   25.8795  -21.0239   -9.3117 C   0  0  2  0  0  0  0  0  0  0  0  0
   26.4477  -21.0324  -10.6420 N   0  0  0  0  0  0  0  0  0  0  0  0
   24.6229  -20.2294   -9.3638 C   0  0  0  0  0  0  0  0  0  0  0  0
   24.5160  -19.2728  -10.1755 O   0  0  0  0  0  0  0  0  0  0  0  0
   23.5397  -20.5119   -8.5304 O   0  0  0  0  0  0  0  0  0  0  0  0
  2  1  1  6
  3  2  1  0
  4  3  1  0
  5  6  1  0
  5  4  1  0
  7  6  1  0
  8  2  1  0
  8  9  2  0
 11 10  1  6
 11 13  1  0
 12 11  1  0
 13 14  1  6
 14  8  1  0
 15 13  1  0
 16 15  2  0
 18 19  1  0
 18 17  1  0
 19 20  1  0
 21 20  1  1
 21 23  1  0
 21 22  1  0
 22 15  1  0
 23 25  1  0
 24 23  2  0
M  END
$$$$
