GAA.pdb
     RDKit          3D

 15 14  0  0  1  0  0  0  0  0999 V2000
    4.6274  -18.5622   21.0559 N   0  0  0  0  0  0  0  0  0  0  0  0
    4.6515  -17.1347   21.1695 C   0  0  0  0  0  0  0  0  0  0  0  0
    5.9942  -16.5762   20.9174 C   0  0  0  0  0  0  0  0  0  0  0  0
    7.0466  -17.2863   20.8639 O   0  0  0  0  0  0  0  0  0  0  0  0
    7.2904  -13.1324   19.9839 C   0  0  0  0  0  0  0  0  0  0  0  0
    7.4193  -14.5588   20.5034 C   0  0  2  0  0  0  0  0  0  0  0  0
    6.1612  -15.1850   20.7200 N   0  0  0  0  0  0  0  0  0  0  0  0
    8.2849  -14.5103   21.7020 C   0  0  0  0  0  0  0  0  0  0  0  0
    9.5074  -14.2629   21.5624 O   0  0  0  0  0  0  0  0  0  0  0  0
    7.9529  -14.0447   25.3799 C   0  0  0  0  0  0  0  0  0  0  0  0
    8.6981  -14.6186   24.1944 C   0  0  2  0  0  0  0  0  0  0  0  0
    7.8376  -14.7253   23.0289 N   0  0  0  0  0  0  0  0  0  0  0  0
    9.1069  -15.9948   24.5566 C   0  0  0  0  0  0  0  0  0  0  0  0
    8.5615  -16.9511   23.9615 O   0  0  0  0  0  0  0  0  0  0  0  0
   10.0585  -16.2783   25.5166 O   0  0  0  0  0  0  0  0  0  0  0  0
  2  3  1  0
  2  1  1  0
  3  7  1  0
  4  3  2  0
  6  5  1  1
  7  6  1  0
  8  6  1  0
  8 12  1  0
  9  8  2  0
 11 10  1  1
 11 12  1  0
 11 13  1  0
 13 15  1  0
 14 13  2  0
M  END
$$$$
