GAA.pdb
     RDKit          3D

 15 14  0  0  1  0  0  0  0  0999 V2000
    5.3304  -24.2169   19.6670 N   0  0  0  0  0  0  0  0  0  0  0  0
    5.3010  -22.8281   19.3185 C   0  0  0  0  0  0  0  0  0  0  0  0
    5.7712  -21.9650   20.4194 C   0  0  0  0  0  0  0  0  0  0  0  0
    6.9556  -22.0024   20.8783 O   0  0  0  0  0  0  0  0  0  0  0  0
    4.3802  -18.9399   22.1955 C   0  0  0  0  0  0  0  0  0  0  0  0
    5.2499  -20.1874   22.1049 C   0  0  2  0  0  0  0  0  0  0  0  0
    4.8905  -21.0356   21.0217 N   0  0  0  0  0  0  0  0  0  0  0  0
    5.2073  -20.8463   23.4287 C   0  0  0  0  0  0  0  0  0  0  0  0
    5.5563  -20.1977   24.4449 O   0  0  0  0  0  0  0  0  0  0  0  0
    3.6516  -23.8706   25.0112 C   0  0  0  0  0  0  0  0  0  0  0  0
    4.7097  -22.7896   24.9684 C   0  0  2  0  0  0  0  0  0  0  0  0
    4.7947  -22.1832   23.6511 N   0  0  0  0  0  0  0  0  0  0  0  0
    6.0138  -23.4406   25.2288 C   0  0  0  0  0  0  0  0  0  0  0  0
    6.7450  -23.7153   24.2510 O   0  0  0  0  0  0  0  0  0  0  0  0
    6.4655  -23.7607   26.4941 O   0  0  0  0  0  0  0  0  0  0  0  0
  2  3  1  0
  2  1  1  0
  3  7  1  0
  4  3  2  0
  6  5  1  1
  7  6  1  0
  8  6  1  0
  8 12  1  0
  9  8  2  0
 11 10  1  6
 11 12  1  0
 11 13  1  0
 13 15  1  0
 14 13  2  0
M  END
$$$$
