GAA.pdb
     RDKit          3D

 15 14  0  0  1  0  0  0  0  0999 V2000
    7.8454  -18.3793   18.5492 N   0  0  0  0  0  0  0  0  0  0  0  0
    7.0704  -17.2511   18.9706 C   0  0  0  0  0  0  0  0  0  0  0  0
    7.9145  -16.1460   19.4651 C   0  0  0  0  0  0  0  0  0  0  0  0
    9.1574  -16.2681   19.6991 O   0  0  0  0  0  0  0  0  0  0  0  0
    7.3015  -12.4558   20.1473 C   0  0  0  0  0  0  0  0  0  0  0  0
    8.0770  -13.7649   20.2243 C   0  0  2  0  0  0  0  0  0  0  0  0
    7.3500  -14.8705   19.7036 N   0  0  0  0  0  0  0  0  0  0  0  0
    8.5105  -13.9335   21.6285 C   0  0  0  0  0  0  0  0  0  0  0  0
    9.4110  -13.1867   22.0832 O   0  0  0  0  0  0  0  0  0  0  0  0
    7.2080  -15.3106   24.8139 C   0  0  0  0  0  0  0  0  0  0  0  0
    8.3871  -15.0029   23.9167 C   0  0  2  0  0  0  0  0  0  0  0  0
    7.9805  -14.8925   22.5265 N   0  0  0  0  0  0  0  0  0  0  0  0
    9.3175  -16.1514   24.0043 C   0  0  0  0  0  0  0  0  0  0  0  0
    9.8363  -16.4106   25.1134 O   0  0  0  0  0  0  0  0  0  0  0  0
    9.6427  -16.9515   22.9266 O   0  0  0  0  0  0  0  0  0  0  0  0
  2  3  1  0
  2  1  1  0
  3  7  1  0
  4  3  2  0
  6  5  1  1
  7  6  1  0
  8  6  1  0
  8 12  1  0
  9  8  2  0
 11 10  1  1
 11 12  1  0
 11 13  1  0
 13 15  1  0
 14 13  2  0
M  END
$$$$
