GAA.pdb
     RDKit          3D

 15 14  0  0  1  0  0  0  0  0999 V2000
    5.1628  -19.0214   17.3230 N   0  0  0  0  0  0  0  0  0  0  0  0
    4.1893  -19.6902   18.1329 C   0  0  0  0  0  0  0  0  0  0  0  0
    4.0416  -19.0643   19.4613 C   0  0  0  0  0  0  0  0  0  0  0  0
    4.7658  -18.1006   19.8630 O   0  0  0  0  0  0  0  0  0  0  0  0
    1.5326  -19.3640   22.2816 C   0  0  0  0  0  0  0  0  0  0  0  0
    2.9003  -19.0463   21.6906 C   0  0  2  0  0  0  0  0  0  0  0  0
    3.0561  -19.5313   20.3630 N   0  0  0  0  0  0  0  0  0  0  0  0
    3.9148  -19.5510   22.6416 C   0  0  0  0  0  0  0  0  0  0  0  0
    3.9654  -19.0623   23.7965 O   0  0  0  0  0  0  0  0  0  0  0  0
    6.0293  -22.5298   23.2327 C   0  0  0  0  0  0  0  0  0  0  0  0
    5.8613  -21.0271   23.2951 C   0  0  2  0  0  0  0  0  0  0  0  0
    4.8587  -20.5665   22.3502 N   0  0  0  0  0  0  0  0  0  0  0  0
    7.1498  -20.4235   22.8859 C   0  0  0  0  0  0  0  0  0  0  0  0
    8.1587  -20.6438   23.5929 O   0  0  0  0  0  0  0  0  0  0  0  0
    7.2967  -19.6301   21.7650 O   0  0  0  0  0  0  0  0  0  0  0  0
  2  3  1  0
  2  1  1  0
  3  7  1  0
  4  3  2  0
  6  5  1  1
  7  6  1  0
  8  6  1  0
  8 12  1  0
  9  8  2  0
 11 10  1  6
 11 12  1  0
 11 13  1  0
 13 15  1  0
 14 13  2  0
M  END
$$$$
