GAA.pdb
     RDKit          3D

 15 14  0  0  1  0  0  0  0  0999 V2000
    7.5227  -18.3073   18.5420 N   0  0  0  0  0  0  0  0  0  0  0  0
    6.8058  -17.2368   19.1674 C   0  0  0  0  0  0  0  0  0  0  0  0
    7.6841  -16.1025   19.5137 C   0  0  0  0  0  0  0  0  0  0  0  0
    8.9524  -16.1799   19.5242 O   0  0  0  0  0  0  0  0  0  0  0  0
    7.0582  -12.4344   20.3019 C   0  0  0  0  0  0  0  0  0  0  0  0
    7.8958  -13.7027   20.1983 C   0  0  2  0  0  0  0  0  0  0  0  0
    7.1258  -14.8484   19.8573 N   0  0  0  0  0  0  0  0  0  0  0  0
    8.6470  -13.8344   21.4658 C   0  0  0  0  0  0  0  0  0  0  0  0
    9.5385  -12.9937   21.7373 O   0  0  0  0  0  0  0  0  0  0  0  0
    8.3823  -15.6304   24.7484 C   0  0  0  0  0  0  0  0  0  0  0  0
    9.1969  -14.9684   23.6582 C   0  0  2  0  0  0  0  0  0  0  0  0
    8.4389  -14.8570   22.4240 N   0  0  0  0  0  0  0  0  0  0  0  0
   10.3529  -15.8496   23.3768 C   0  0  0  0  0  0  0  0  0  0  0  0
   11.1682  -16.0709   24.3002 O   0  0  0  0  0  0  0  0  0  0  0  0
   10.5786  -16.4402   22.1490 O   0  0  0  0  0  0  0  0  0  0  0  0
  2  3  1  0
  2  1  1  0
  3  7  1  0
  4  3  2  0
  6  5  1  1
  7  6  1  0
  8  6  1  0
  8 12  1  0
  9  8  2  0
 11 10  1  1
 11 12  1  0
 11 13  1  0
 13 15  1  0
 14 13  2  0
M  END
$$$$
