GAA.pdb
     RDKit          3D

 15 14  0  0  1  0  0  0  0  0999 V2000
    8.2948  -14.8946   16.4327 N   0  0  0  0  0  0  0  0  0  0  0  0
    7.5619  -14.3672   17.5444 C   0  0  0  0  0  0  0  0  0  0  0  0
    8.3675  -14.3345   18.7805 C   0  0  0  0  0  0  0  0  0  0  0  0
    9.5283  -14.8433   18.8706 O   0  0  0  0  0  0  0  0  0  0  0  0
    7.8710  -12.7654   22.2109 C   0  0  0  0  0  0  0  0  0  0  0  0
    8.5508  -13.6659   21.1872 C   0  0  2  0  0  0  0  0  0  0  0  0
    7.8581  -13.7150   19.9463 N   0  0  0  0  0  0  0  0  0  0  0  0
    8.7414  -14.9865   21.8258 C   0  0  0  0  0  0  0  0  0  0  0  0
    7.7653  -15.7711   21.9087 O   0  0  0  0  0  0  0  0  0  0  0  0
   11.4131  -17.4287   22.3375 C   0  0  0  0  0  0  0  0  0  0  0  0
   10.1550  -16.7938   22.8890 C   0  0  2  0  0  0  0  0  0  0  0  0
    9.9657  -15.4519   22.3660 N   0  0  0  0  0  0  0  0  0  0  0  0
   10.3332  -16.6653   24.3532 C   0  0  0  0  0  0  0  0  0  0  0  0
   10.4012  -15.5158   24.8434 O   0  0  0  0  0  0  0  0  0  0  0  0
   10.4282  -17.7472   25.2063 O   0  0  0  0  0  0  0  0  0  0  0  0
  2  3  1  0
  2  1  1  0
  3  7  1  0
  4  3  2  0
  6  5  1  1
  7  6  1  0
  8  6  1  0
  8 12  1  0
  9  8  2  0
 11 10  1  6
 11 12  1  0
 11 13  1  0
 13 15  1  0
 14 13  2  0
M  END
$$$$
