GAA.pdb
     RDKit          3D

 15 14  0  0  1  0  0  0  0  0999 V2000
    7.3787  -17.2553   15.7830 N   0  0  0  0  0  0  0  0  0  0  0  0
    6.7820  -16.3718   16.7393 C   0  0  0  0  0  0  0  0  0  0  0  0
    7.7767  -15.7942   17.6641 C   0  0  0  0  0  0  0  0  0  0  0  0
    8.9255  -16.3012   17.8587 O   0  0  0  0  0  0  0  0  0  0  0  0
    7.8142  -12.7331   19.9275 C   0  0  0  0  0  0  0  0  0  0  0  0
    8.3055  -14.0798   19.4115 C   0  0  2  0  0  0  0  0  0  0  0  0
    7.4754  -14.6174   18.3897 N   0  0  0  0  0  0  0  0  0  0  0  0
    8.4685  -14.9642   20.5859 C   0  0  0  0  0  0  0  0  0  0  0  0
    7.4517  -15.3109   21.2348 O   0  0  0  0  0  0  0  0  0  0  0  0
   10.1899  -17.7649   21.7492 C   0  0  0  0  0  0  0  0  0  0  0  0
    9.8382  -16.3602   22.1889 C   0  0  2  0  0  0  0  0  0  0  0  0
    9.7089  -15.4658   21.0517 N   0  0  0  0  0  0  0  0  0  0  0  0
   10.9674  -15.8598   23.0055 C   0  0  0  0  0  0  0  0  0  0  0  0
   11.7222  -14.9952   22.5066 O   0  0  0  0  0  0  0  0  0  0  0  0
   11.2312  -16.2970   24.2887 O   0  0  0  0  0  0  0  0  0  0  0  0
  2  3  1  0
  2  1  1  0
  3  7  1  0
  4  3  2  0
  6  5  1  1
  7  6  1  0
  8  6  1  0
  8 12  1  0
  9  8  2  0
 11 10  1  6
 11 12  1  0
 11 13  1  0
 13 15  1  0
 14 13  2  0
M  END
$$$$
