GAA.pdb
     RDKit          3D

 15 14  0  0  1  0  0  0  0  0999 V2000
   -2.0534  -27.2495   27.1513 N   0  0  0  0  0  0  0  0  0  0  0  0
   -2.6632  -26.1405   26.4809 C   0  0  0  0  0  0  0  0  0  0  0  0
   -3.1448  -25.1128   27.4243 C   0  0  0  0  0  0  0  0  0  0  0  0
   -3.4280  -25.3579   28.6385 O   0  0  0  0  0  0  0  0  0  0  0  0
   -3.6665  -21.3551   27.2179 C   0  0  0  0  0  0  0  0  0  0  0  0
   -3.8762  -22.7472   27.8004 C   0  0  2  0  0  0  0  0  0  0  0  0
   -3.3134  -23.7750   26.9950 N   0  0  0  0  0  0  0  0  0  0  0  0
   -5.3258  -22.9013   28.0517 C   0  0  0  0  0  0  0  0  0  0  0  0
   -6.0869  -23.1695   27.0905 O   0  0  0  0  0  0  0  0  0  0  0  0
   -7.5607  -24.0566   30.6339 C   0  0  0  0  0  0  0  0  0  0  0  0
   -7.3550  -23.0140   29.5565 C   0  0  2  0  0  0  0  0  0  0  0  0
   -5.9430  -22.7681   29.3200 N   0  0  0  0  0  0  0  0  0  0  0  0
   -7.9364  -21.7467   30.0546 C   0  0  0  0  0  0  0  0  0  0  0  0
   -7.1554  -20.8363   30.4118 O   0  0  0  0  0  0  0  0  0  0  0  0
   -9.2951  -21.5166   30.1458 O   0  0  0  0  0  0  0  0  0  0  0  0
  2  3  1  0
  2  1  1  0
  3  7  1  0
  4  3  2  0
  6  5  1  6
  7  6  1  0
  8  6  1  0
  8 12  1  0
  9  8  2  0
 11 10  1  1
 11 12  1  0
 11 13  1  0
 13 15  1  0
 14 13  2  0
M  END
$$$$
