GAA.pdb
     RDKit          3D

 15 14  0  0  1  0  0  0  0  0999 V2000
    5.8961  -14.5696   21.3170 N   0  0  0  0  0  0  0  0  0  0  0  0
    6.8349  -15.3227   20.5406 C   0  0  0  0  0  0  0  0  0  0  0  0
    6.5023  -16.7600   20.5010 C   0  0  0  0  0  0  0  0  0  0  0  0
    5.4766  -17.2548   21.0647 O   0  0  0  0  0  0  0  0  0  0  0  0
    7.8560  -19.6885   18.5161 C   0  0  0  0  0  0  0  0  0  0  0  0
    7.0469  -19.0465   19.6360 C   0  0  2  0  0  0  0  0  0  0  0  0
    7.3419  -17.6665   19.8112 N   0  0  0  0  0  0  0  0  0  0  0  0
    7.2527  -19.8675   20.8492 C   0  0  0  0  0  0  0  0  0  0  0  0
    6.7419  -21.0125   20.9051 O   0  0  0  0  0  0  0  0  0  0  0  0
    9.4862  -20.0547   23.8355 C   0  0  0  0  0  0  0  0  0  0  0  0
    8.1348  -20.2606   23.1862 C   0  0  2  0  0  0  0  0  0  0  0  0
    7.9975  -19.4587   21.9828 N   0  0  0  0  0  0  0  0  0  0  0  0
    7.1105  -19.7828   24.1426 C   0  0  0  0  0  0  0  0  0  0  0  0
    6.4792  -18.7390   23.8626 O   0  0  0  0  0  0  0  0  0  0  0  0
    6.8151  -20.4284   25.3272 O   0  0  0  0  0  0  0  0  0  0  0  0
  2  3  1  0
  2  1  1  0
  3  7  1  0
  4  3  2  0
  6  5  1  6
  7  6  1  0
  8  6  1  0
  8 12  1  0
  9  8  2  0
 11 10  1  1
 11 12  1  0
 11 13  1  0
 13 15  1  0
 14 13  2  0
M  END
$$$$
