GAA.pdb
     RDKit          3D

 15 14  0  0  1  0  0  0  0  0999 V2000
    6.8121  -18.2446   18.3603 N   0  0  0  0  0  0  0  0  0  0  0  0
    6.5386  -17.2299   19.3332 C   0  0  0  0  0  0  0  0  0  0  0  0
    7.5740  -16.1784   19.3510 C   0  0  0  0  0  0  0  0  0  0  0  0
    8.8133  -16.4167   19.2027 O   0  0  0  0  0  0  0  0  0  0  0  0
    7.5216  -12.3964   19.7406 C   0  0  0  0  0  0  0  0  0  0  0  0
    8.1366  -13.7869   19.8377 C   0  0  2  0  0  0  0  0  0  0  0  0
    7.2104  -14.8239   19.5400 N   0  0  0  0  0  0  0  0  0  0  0  0
    8.7581  -13.8969   21.1755 C   0  0  0  0  0  0  0  0  0  0  0  0
    9.7735  -13.2066   21.4355 O   0  0  0  0  0  0  0  0  0  0  0  0
    7.9347  -15.0423   24.6202 C   0  0  0  0  0  0  0  0  0  0  0  0
    8.9434  -14.8575   23.5074 C   0  0  2  0  0  0  0  0  0  0  0  0
    8.2908  -14.7382   22.2151 N   0  0  0  0  0  0  0  0  0  0  0  0
    9.7745  -16.0820   23.4599 C   0  0  0  0  0  0  0  0  0  0  0  0
    9.6590  -16.8387   22.4697 O   0  0  0  0  0  0  0  0  0  0  0  0
   10.6703  -16.4328   24.4507 O   0  0  0  0  0  0  0  0  0  0  0  0
  2  3  1  0
  2  1  1  0
  3  7  1  0
  4  3  2  0
  6  5  1  1
  7  6  1  0
  8  6  1  0
  8 12  1  0
  9  8  2  0
 11 10  1  1
 11 12  1  0
 11 13  1  0
 13 15  1  0
 14 13  2  0
M  END
$$$$
