GAA.pdb
     RDKit          3D

 15 14  0  0  1  0  0  0  0  0999 V2000
    6.4429  -21.5919   24.2236 N   0  0  0  0  0  0  0  0  0  0  0  0
    6.1199  -20.2046   24.3727 C   0  0  0  0  0  0  0  0  0  0  0  0
    6.5171  -19.4082   23.1953 C   0  0  0  0  0  0  0  0  0  0  0  0
    7.6500  -19.5157   22.6300 O   0  0  0  0  0  0  0  0  0  0  0  0
    4.7743  -16.7480   21.1006 C   0  0  0  0  0  0  0  0  0  0  0  0
    5.9597  -17.5748   21.5828 C   0  0  2  0  0  0  0  0  0  0  0  0
    5.6204  -18.4665   22.6371 N   0  0  0  0  0  0  0  0  0  0  0  0
    7.0452  -16.6274   21.9179 C   0  0  0  0  0  0  0  0  0  0  0  0
    7.6155  -16.0004   20.9923 O   0  0  0  0  0  0  0  0  0  0  0  0
    8.2425  -14.4075   24.5127 C   0  0  0  0  0  0  0  0  0  0  0  0
    8.6293  -15.4882   23.5265 C   0  0  2  0  0  0  0  0  0  0  0  0
    7.5070  -16.3618   23.2306 N   0  0  0  0  0  0  0  0  0  0  0  0
    9.6670  -16.3227   24.1738 C   0  0  0  0  0  0  0  0  0  0  0  0
    9.3440  -17.4622   24.5783 O   0  0  0  0  0  0  0  0  0  0  0  0
   10.9724  -15.9097   24.3544 O   0  0  0  0  0  0  0  0  0  0  0  0
  2  3  1  0
  2  1  1  0
  3  7  1  0
  4  3  2  0
  6  5  1  1
  7  6  1  0
  8  6  1  0
  8 12  1  0
  9  8  2  0
 11 10  1  1
 11 12  1  0
 11 13  1  0
 13 15  1  0
 14 13  2  0
M  END
$$$$
