GAA.pdb
     RDKit          3D

 15 14  0  0  1  0  0  0  0  0999 V2000
   11.7771  -18.9064   18.8613 N   0  0  0  0  0  0  0  0  0  0  0  0
   11.8913  -18.9041   20.2889 C   0  0  0  0  0  0  0  0  0  0  0  0
   12.6922  -17.7677   20.7842 C   0  0  0  0  0  0  0  0  0  0  0  0
   13.4526  -17.0730   20.0401 O   0  0  0  0  0  0  0  0  0  0  0  0
   12.8462  -15.8950   24.0786 C   0  0  0  0  0  0  0  0  0  0  0  0
   13.3656  -16.3136   22.7089 C   0  0  2  0  0  0  0  0  0  0  0  0
   12.6390  -17.4005   22.1498 N   0  0  0  0  0  0  0  0  0  0  0  0
   14.8164  -16.5652   22.8504 C   0  0  0  0  0  0  0  0  0  0  0  0
   15.2062  -17.7003   23.2175 O   0  0  0  0  0  0  0  0  0  0  0  0
   18.0696  -14.7926   22.0326 C   0  0  0  0  0  0  0  0  0  0  0  0
   17.2496  -15.9082   22.6435 C   0  0  2  0  0  0  0  0  0  0  0  0
   15.8292  -15.6068   22.5997 N   0  0  0  0  0  0  0  0  0  0  0  0
   17.6276  -15.9999   24.0721 C   0  0  0  0  0  0  0  0  0  0  0  0
   16.9357  -15.3781   24.9094 O   0  0  0  0  0  0  0  0  0  0  0  0
   18.7034  -16.7355   24.5290 O   0  0  0  0  0  0  0  0  0  0  0  0
  2  3  1  0
  2  1  1  0
  3  7  1  0
  4  3  2  0
  6  5  1  1
  7  6  1  0
  8  6  1  0
  8 12  1  0
  9  8  2  0
 11 10  1  1
 11 12  1  0
 11 13  1  0
 13 15  1  0
 14 13  2  0
M  END
$$$$
