GAA.pdb
     RDKit          3D

 15 14  0  0  1  0  0  0  0  0999 V2000
   -6.0049  -28.2663   29.4755 N   0  0  0  0  0  0  0  0  0  0  0  0
   -6.2581  -27.9334   30.8453 C   0  0  0  0  0  0  0  0  0  0  0  0
   -5.5449  -26.7114   31.2650 C   0  0  0  0  0  0  0  0  0  0  0  0
   -5.5880  -26.2498   32.4481 O   0  0  0  0  0  0  0  0  0  0  0  0
   -2.8239  -24.5883   29.7753 C   0  0  0  0  0  0  0  0  0  0  0  0
   -4.0559  -24.7946   30.6474 C   0  0  2  0  0  0  0  0  0  0  0  0
   -4.7628  -25.9879   30.3338 N   0  0  0  0  0  0  0  0  0  0  0  0
   -4.8718  -23.5647   30.5485 C   0  0  0  0  0  0  0  0  0  0  0  0
   -4.4173  -22.4916   31.0141 O   0  0  0  0  0  0  0  0  0  0  0  0
   -7.4168  -22.0156   28.4639 C   0  0  0  0  0  0  0  0  0  0  0  0
   -6.9402  -22.2743   29.8768 C   0  0  2  0  0  0  0  0  0  0  0  0
   -6.1571  -23.4951   29.9566 N   0  0  0  0  0  0  0  0  0  0  0  0
   -8.1430  -22.4774   30.7160 C   0  0  0  0  0  0  0  0  0  0  0  0
   -8.8775  -21.4909   30.9478 O   0  0  0  0  0  0  0  0  0  0  0  0
   -8.4968  -23.6981   31.2563 O   0  0  0  0  0  0  0  0  0  0  0  0
  2  3  1  0
  2  1  1  0
  3  7  1  0
  4  3  2  0
  6  5  1  6
  7  6  1  0
  8  6  1  0
  8 12  1  0
  9  8  2  0
 11 10  1  6
 11 12  1  0
 11 13  1  0
 13 15  1  0
 14 13  2  0
M  END
$$$$
