GAA.pdb
     RDKit          3D

 15 14  0  0  1  0  0  0  0  0999 V2000
    8.6436  -13.9333   15.9034 N   0  0  0  0  0  0  0  0  0  0  0  0
    7.7404  -13.8859   17.0139 C   0  0  0  0  0  0  0  0  0  0  0  0
    8.4382  -14.0125   18.3082 C   0  0  0  0  0  0  0  0  0  0  0  0
    9.6661  -14.3226   18.4116 O   0  0  0  0  0  0  0  0  0  0  0  0
    7.4041  -13.3569   21.9127 C   0  0  0  0  0  0  0  0  0  0  0  0
    8.3562  -13.7776   20.8003 C   0  0  2  0  0  0  0  0  0  0  0  0
    7.7409  -13.7854   19.5184 N   0  0  0  0  0  0  0  0  0  0  0  0
    8.9443  -15.0757   21.1967 C   0  0  0  0  0  0  0  0  0  0  0  0
    8.3110  -16.1320   20.9549 O   0  0  0  0  0  0  0  0  0  0  0  0
   12.2759  -16.4726   22.2066 C   0  0  0  0  0  0  0  0  0  0  0  0
   10.7633  -16.5198   22.1969 C   0  0  2  0  0  0  0  0  0  0  0  0
   10.1953  -15.2304   21.8433 N   0  0  0  0  0  0  0  0  0  0  0  0
   10.3241  -16.8208   23.5784 C   0  0  0  0  0  0  0  0  0  0  0  0
   10.6918  -17.8995   24.0955 O   0  0  0  0  0  0  0  0  0  0  0  0
    9.5302  -15.9736   24.3263 O   0  0  0  0  0  0  0  0  0  0  0  0
  2  3  1  0
  2  1  1  0
  3  7  1  0
  4  3  2  0
  6  5  1  1
  7  6  1  0
  8  6  1  0
  8 12  1  0
  9  8  2  0
 11 10  1  1
 11 12  1  0
 11 13  1  0
 13 15  1  0
 14 13  2  0
M  END
$$$$
