AVC.pdb
     RDKit          3D

 19 18  0  0  1  0  0  0  0  0999 V2000
   10.3646  -19.1956   20.7883 C   0  0  0  0  0  0  0  0  0  0  0  0
   10.0657  -17.8383   20.2007 C   0  0  2  0  0  0  0  0  0  0  0  0
   10.8983  -17.4957   19.0998 N   0  0  0  0  0  0  0  0  0  0  0  0
   10.1139  -16.7644   21.2174 C   0  0  0  0  0  0  0  0  0  0  0  0
   11.1466  -16.0778   21.4375 O   0  0  0  0  0  0  0  0  0  0  0  0
    7.2890  -14.2358   21.4558 C   0  0  0  0  0  0  0  0  0  0  0  0
    7.4650  -14.8546   22.8282 C   0  0  2  0  0  0  0  0  0  0  0  0
    7.1424  -13.8270   23.8534 C   0  0  0  0  0  0  0  0  0  0  0  0
    8.8201  -15.4597   22.9353 C   0  0  2  0  0  0  0  0  0  0  0  0
    8.9305  -16.5180   21.9632 N   0  0  0  0  0  0  0  0  0  0  0  0
    9.2048  -15.9612   24.2389 C   0  0  0  0  0  0  0  0  0  0  0  0
    9.0936  -17.1538   24.6297 O   0  0  0  0  0  0  0  0  0  0  0  0
    9.7616  -15.0667   25.1953 N   0  0  0  0  0  0  0  0  0  0  0  0
   10.2468  -15.5267   26.4830 C   0  0  1  0  0  0  0  0  0  0  0  0
   10.8076  -14.4006   27.3138 C   0  0  0  0  0  0  0  0  0  0  0  0
    9.7429  -12.9574   27.3527 S   0  0  0  0  0  0  0  0  0  0  0  0
    9.1538  -16.1862   27.2159 C   0  0  0  0  0  0  0  0  0  0  0  0
    7.9489  -15.9673   26.9119 O   0  0  0  0  0  0  0  0  0  0  0  0
    9.3848  -17.0640   28.2566 O   0  0  0  0  0  0  0  0  0  0  0  0
  2  1  1  1
  2  3  1  0
  4  2  1  0
  5  4  2  0
  7  6  1  6
  7  9  1  0
  8  7  1  0
  9 10  1  6
 10  4  1  0
 11  9  1  0
 11 12  2  0
 13 14  1  0
 13 11  1  0
 14 15  1  1
 16 15  1  0
 17 14  1  0
 18 17  2  0
 19 17  1  0
M  END
$$$$
