AVC.pdb
     RDKit          3D

 19 18  0  0  1  0  0  0  0  0999 V2000
    6.9978  -18.9175   25.9028 C   0  0  0  0  0  0  0  0  0  0  0  0
    6.7160  -18.7639   24.4284 C   0  0  2  0  0  0  0  0  0  0  0  0
    6.6311  -20.0002   23.7305 N   0  0  0  0  0  0  0  0  0  0  0  0
    7.6947  -17.8783   23.7599 C   0  0  0  0  0  0  0  0  0  0  0  0
    8.5704  -18.3068   22.9624 O   0  0  0  0  0  0  0  0  0  0  0  0
    6.9105  -13.7269   23.5574 C   0  0  0  0  0  0  0  0  0  0  0  0
    7.8582  -14.5421   22.7004 C   0  0  2  0  0  0  0  0  0  0  0  0
    7.0906  -15.1148   21.5628 C   0  0  0  0  0  0  0  0  0  0  0  0
    8.5759  -15.5318   23.5486 C   0  0  2  0  0  0  0  0  0  0  0  0
    7.6214  -16.4894   24.0477 N   0  0  0  0  0  0  0  0  0  0  0  0
    9.3471  -14.9999   24.6537 C   0  0  0  0  0  0  0  0  0  0  0  0
    9.5861  -13.7808   24.8637 O   0  0  0  0  0  0  0  0  0  0  0  0
    9.9035  -15.8932   25.6115 N   0  0  0  0  0  0  0  0  0  0  0  0
   10.1711  -15.4828   26.9772 C   0  0  1  0  0  0  0  0  0  0  0  0
    8.9883  -14.7893   27.6038 C   0  0  0  0  0  0  0  0  0  0  0  0
    9.0822  -13.0012   27.4945 S   0  0  0  0  0  0  0  0  0  0  0  0
   10.5403  -16.6580   27.7829 C   0  0  0  0  0  0  0  0  0  0  0  0
   10.2811  -17.8248   27.3785 O   0  0  0  0  0  0  0  0  0  0  0  0
   11.1786  -16.5482   29.0025 O   0  0  0  0  0  0  0  0  0  0  0  0
  2  1  1  1
  2  3  1  0
  4  2  1  0
  5  4  2  0
  7  6  1  1
  7  9  1  0
  8  7  1  0
  9 10  1  1
 10  4  1  0
 11  9  1  0
 11 12  2  0
 13 14  1  0
 13 11  1  0
 14 15  1  1
 16 15  1  0
 17 14  1  0
 18 17  2  0
 19 17  1  0
M  END
$$$$
