AVC.pdb
     RDKit          3D

 19 18  0  0  1  0  0  0  0  0999 V2000
    6.3434  -18.7507   24.7142 C   0  0  0  0  0  0  0  0  0  0  0  0
    6.4067  -17.5640   23.7844 C   0  0  2  0  0  0  0  0  0  0  0  0
    6.7605  -17.9020   22.4489 N   0  0  0  0  0  0  0  0  0  0  0  0
    7.3088  -16.5048   24.2879 C   0  0  0  0  0  0  0  0  0  0  0  0
    8.4962  -16.3722   23.8892 O   0  0  0  0  0  0  0  0  0  0  0  0
    6.3415  -12.8163   24.7205 C   0  0  0  0  0  0  0  0  0  0  0  0
    6.7319  -13.3761   26.0738 C   0  0  2  0  0  0  0  0  0  0  0  0
    7.3431  -12.2842   26.8771 C   0  0  0  0  0  0  0  0  0  0  0  0
    7.5797  -14.5851   25.8907 C   0  0  2  0  0  0  0  0  0  0  0  0
    6.7879  -15.6125   25.2625 N   0  0  0  0  0  0  0  0  0  0  0  0
    8.2089  -15.1219   27.0802 C   0  0  0  0  0  0  0  0  0  0  0  0
    7.6209  -15.7393   28.0077 O   0  0  0  0  0  0  0  0  0  0  0  0
    9.6113  -14.9627   27.2612 N   0  0  0  0  0  0  0  0  0  0  0  0
   10.3037  -15.5182   28.4089 C   0  0  1  0  0  0  0  0  0  0  0  0
   11.5895  -16.2023   28.0200 C   0  0  0  0  0  0  0  0  0  0  0  0
   11.3819  -17.3851   26.6875 S   0  0  0  0  0  0  0  0  0  0  0  0
   10.5855  -14.4493   29.3808 C   0  0  0  0  0  0  0  0  0  0  0  0
   10.3873  -13.2389   29.0843 O   0  0  0  0  0  0  0  0  0  0  0  0
   11.0731  -14.7095   30.6463 O   0  0  0  0  0  0  0  0  0  0  0  0
  2  1  1  1
  2  3  1  0
  4  2  1  0
  5  4  2  0
  7  6  1  6
  7  9  1  0
  8  7  1  0
  9 10  1  1
 10  4  1  0
 11  9  1  0
 11 12  2  0
 13 14  1  0
 13 11  1  0
 14 15  1  6
 16 15  1  0
 17 14  1  0
 18 17  2  0
 19 17  1  0
M  END
$$$$
