AVC.pdb
     RDKit          3D

 19 18  0  0  1  0  0  0  0  0999 V2000
    4.1792  -17.7457   21.4647 C   0  0  0  0  0  0  0  0  0  0  0  0
    5.0666  -17.3096   20.3248 C   0  0  2  0  0  0  0  0  0  0  0  0
    5.2032  -18.2865   19.3003 N   0  0  0  0  0  0  0  0  0  0  0  0
    6.4045  -16.8806   20.7884 C   0  0  0  0  0  0  0  0  0  0  0  0
    7.4109  -17.6377   20.7652 O   0  0  0  0  0  0  0  0  0  0  0  0
    6.9892  -12.6766   21.9043 C   0  0  0  0  0  0  0  0  0  0  0  0
    7.9105  -13.6169   21.1532 C   0  0  2  0  0  0  0  0  0  0  0  0
    7.6294  -13.4900   19.6985 C   0  0  0  0  0  0  0  0  0  0  0  0
    7.7863  -14.9913   21.7097 C   0  0  2  0  0  0  0  0  0  0  0  0
    6.5317  -15.5526   21.2759 N   0  0  0  0  0  0  0  0  0  0  0  0
    7.9002  -15.1209   23.1481 C   0  0  0  0  0  0  0  0  0  0  0  0
    6.9689  -14.9440   23.9780 O   0  0  0  0  0  0  0  0  0  0  0  0
    9.1533  -15.4773   23.7206 N   0  0  0  0  0  0  0  0  0  0  0  0
    9.2467  -16.1399   25.0080 C   0  0  1  0  0  0  0  0  0  0  0  0
    8.4547  -17.4220   25.0456 C   0  0  0  0  0  0  0  0  0  0  0  0
    7.3094  -17.5012   26.4240 S   0  0  0  0  0  0  0  0  0  0  0  0
   10.6581  -16.4203   25.3180 C   0  0  0  0  0  0  0  0  0  0  0  0
   11.5459  -16.3244   24.4265 O   0  0  0  0  0  0  0  0  0  0  0  0
   11.0783  -16.7964   26.5785 O   0  0  0  0  0  0  0  0  0  0  0  0
  2  1  1  1
  2  3  1  0
  4  2  1  0
  5  4  2  0
  7  6  1  1
  7  9  1  0
  8  7  1  0
  9 10  1  1
 10  4  1  0
 11  9  1  0
 11 12  2  0
 13 14  1  0
 13 11  1  0
 14 15  1  6
 16 15  1  0
 17 14  1  0
 18 17  2  0
 19 17  1  0
M  END
$$$$
