AVC.pdb
     RDKit          3D

 19 18  0  0  1  0  0  0  0  0999 V2000
    6.5952  -19.0761   20.0695 C   0  0  0  0  0  0  0  0  0  0  0  0
    7.0823  -18.0259   19.1017 C   0  0  2  0  0  0  0  0  0  0  0  0
    7.7911  -18.5579   17.9894 N   0  0  0  0  0  0  0  0  0  0  0  0
    7.9007  -16.9878   19.7662 C   0  0  0  0  0  0  0  0  0  0  0  0
    9.1425  -17.1051   19.9414 O   0  0  0  0  0  0  0  0  0  0  0  0
    7.6377  -13.2573   19.1269 C   0  0  0  0  0  0  0  0  0  0  0  0
    7.3590  -13.4733   20.6010 C   0  0  2  0  0  0  0  0  0  0  0  0
    7.9027  -12.3148   21.3582 C   0  0  0  0  0  0  0  0  0  0  0  0
    7.8723  -14.8062   21.0182 C   0  0  2  0  0  0  0  0  0  0  0  0
    7.2321  -15.8183   20.2164 N   0  0  0  0  0  0  0  0  0  0  0  0
    7.7344  -15.1440   22.4203 C   0  0  0  0  0  0  0  0  0  0  0  0
    6.6484  -15.2222   23.0541 O   0  0  0  0  0  0  0  0  0  0  0  0
    8.8988  -15.4199   23.1903 N   0  0  0  0  0  0  0  0  0  0  0  0
    8.8178  -15.8782   24.5646 C   0  0  1  0  0  0  0  0  0  0  0  0
    8.1344  -17.2172   24.6772 C   0  0  0  0  0  0  0  0  0  0  0  0
    6.3642  -17.0840   24.9348 S   0  0  0  0  0  0  0  0  0  0  0  0
   10.1709  -15.9629   25.1378 C   0  0  0  0  0  0  0  0  0  0  0  0
   11.1884  -15.7380   24.4261 O   0  0  0  0  0  0  0  0  0  0  0  0
   10.3950  -16.2871   26.4612 O   0  0  0  0  0  0  0  0  0  0  0  0
  2  1  1  1
  2  3  1  0
  4  2  1  0
  5  4  2  0
  7  6  1  6
  7  9  1  0
  8  7  1  0
  9 10  1  6
 10  4  1  0
 11  9  1  0
 11 12  2  0
 13 14  1  0
 13 11  1  0
 14 15  1  6
 16 15  1  0
 17 14  1  0
 18 17  2  0
 19 17  1  0
M  END
$$$$
