AVC.pdb
     RDKit          3D

 19 18  0  0  1  0  0  0  0  0999 V2000
    6.8778  -17.5386   22.8019 C   0  0  0  0  0  0  0  0  0  0  0  0
    7.2623  -16.1282   22.4276 C   0  0  2  0  0  0  0  0  0  0  0  0
    7.9943  -16.0386   21.2116 N   0  0  0  0  0  0  0  0  0  0  0  0
    8.0038  -15.4435   23.5094 C   0  0  0  0  0  0  0  0  0  0  0  0
    9.2610  -15.4491   23.5856 O   0  0  0  0  0  0  0  0  0  0  0  0
    6.5992  -12.0692   25.0248 C   0  0  0  0  0  0  0  0  0  0  0  0
    6.8880  -13.0670   26.1285 C   0  0  2  0  0  0  0  0  0  0  0  0
    7.3372  -12.3202   27.3333 C   0  0  0  0  0  0  0  0  0  0  0  0
    7.8318  -14.1046   25.6320 C   0  0  2  0  0  0  0  0  0  0  0  0
    7.2404  -14.7578   24.4915 N   0  0  0  0  0  0  0  0  0  0  0  0
    8.2602  -15.1031   26.5903 C   0  0  0  0  0  0  0  0  0  0  0  0
    7.5597  -16.0586   27.0189 O   0  0  0  0  0  0  0  0  0  0  0  0
    9.5785  -15.0409   27.1222 N   0  0  0  0  0  0  0  0  0  0  0  0
   10.0812  -16.0431   28.0432 C   0  0  1  0  0  0  0  0  0  0  0  0
   11.3173  -16.7279   27.5179 C   0  0  0  0  0  0  0  0  0  0  0  0
   11.9416  -15.9901   26.0067 S   0  0  0  0  0  0  0  0  0  0  0  0
   10.3761  -15.4167   29.3422 C   0  0  0  0  0  0  0  0  0  0  0  0
   10.3104  -14.1647   29.4846 O   0  0  0  0  0  0  0  0  0  0  0  0
   10.7340  -16.1528   30.4544 O   0  0  0  0  0  0  0  0  0  0  0  0
  2  1  1  1
  2  3  1  0
  4  2  1  0
  5  4  2  0
  7  6  1  6
  7  9  1  0
  8  7  1  0
  9 10  1  6
 10  4  1  0
 11  9  1  0
 11 12  2  0
 13 14  1  0
 13 11  1  0
 14 15  1  6
 16 15  1  0
 17 14  1  0
 18 17  2  0
 19 17  1  0
M  END
$$$$
