AVC.pdb
     RDKit          3D

 19 18  0  0  1  0  0  0  0  0999 V2000
    7.0182  -16.9391   22.1238 C   0  0  0  0  0  0  0  0  0  0  0  0
    7.3894  -15.4876   21.9444 C   0  0  2  0  0  0  0  0  0  0  0  0
    8.1579  -15.2342   20.7748 N   0  0  0  0  0  0  0  0  0  0  0  0
    8.0841  -14.9361   23.1286 C   0  0  0  0  0  0  0  0  0  0  0  0
    9.3382  -14.8479   23.2054 O   0  0  0  0  0  0  0  0  0  0  0  0
    6.5471  -11.9155   25.0493 C   0  0  0  0  0  0  0  0  0  0  0  0
    6.8462  -13.0275   26.0348 C   0  0  2  0  0  0  0  0  0  0  0  0
    7.2553  -12.4151   27.3266 C   0  0  0  0  0  0  0  0  0  0  0  0
    7.8264  -13.9752   25.4389 C   0  0  2  0  0  0  0  0  0  0  0  0
    7.2780  -14.4944   24.2114 N   0  0  0  0  0  0  0  0  0  0  0  0
    8.2564  -15.0755   26.2776 C   0  0  0  0  0  0  0  0  0  0  0  0
    7.5939  -16.1203   26.5161 O   0  0  0  0  0  0  0  0  0  0  0  0
    9.5304  -15.0168   26.9087 N   0  0  0  0  0  0  0  0  0  0  0  0
   10.0748  -16.1440   27.6423 C   0  0  1  0  0  0  0  0  0  0  0  0
   11.3905  -16.6101   27.0729 C   0  0  0  0  0  0  0  0  0  0  0  0
   12.5841  -15.2844   26.8834 S   0  0  0  0  0  0  0  0  0  0  0  0
   10.2500  -15.7750   29.0564 C   0  0  0  0  0  0  0  0  0  0  0  0
   10.0799  -14.5844   29.4384 O   0  0  0  0  0  0  0  0  0  0  0  0
   10.6035  -16.6955   30.0231 O   0  0  0  0  0  0  0  0  0  0  0  0
  2  1  1  1
  2  3  1  0
  4  2  1  0
  5  4  2  0
  7  6  1  6
  7  9  1  0
  8  7  1  0
  9 10  1  6
 10  4  1  0
 11  9  1  0
 11 12  2  0
 13 14  1  0
 13 11  1  0
 14 15  1  6
 16 15  1  0
 17 14  1  0
 18 17  2  0
 19 17  1  0
M  END
$$$$
