AVC.pdb
     RDKit          3D

 19 18  0  0  1  0  0  0  0  0999 V2000
    6.2209  -15.7700   21.1538 C   0  0  0  0  0  0  0  0  0  0  0  0
    7.1292  -14.5781   21.3311 C   0  0  2  0  0  0  0  0  0  0  0  0
    8.1620  -14.4962   20.3568 N   0  0  0  0  0  0  0  0  0  0  0  0
    7.7156  -14.5171   22.6880 C   0  0  0  0  0  0  0  0  0  0  0  0
    8.8832  -14.9130   22.9462 O   0  0  0  0  0  0  0  0  0  0  0  0
    7.0114  -11.4853   25.1128 C   0  0  0  0  0  0  0  0  0  0  0  0
    6.6211  -12.7953   25.7676 C   0  0  2  0  0  0  0  0  0  0  0  0
    6.8478  -12.6760   27.2323 C   0  0  0  0  0  0  0  0  0  0  0  0
    7.3318  -13.9201   25.1013 C   0  0  2  0  0  0  0  0  0  0  0  0
    6.9055  -13.9846   23.7260 N   0  0  0  0  0  0  0  0  0  0  0  0
    7.1918  -15.2270   25.7106 C   0  0  0  0  0  0  0  0  0  0  0  0
    6.1609  -15.9502   25.6700 O   0  0  0  0  0  0  0  0  0  0  0  0
    8.2869  -15.7844   26.4281 N   0  0  0  0  0  0  0  0  0  0  0  0
    8.3128  -17.1801   26.8239 C   0  0  1  0  0  0  0  0  0  0  0  0
    8.2070  -18.1079   25.6405 C   0  0  0  0  0  0  0  0  0  0  0  0
    7.6323  -19.7488   26.0824 S   0  0  0  0  0  0  0  0  0  0  0  0
    9.5538  -17.4608   27.5640 C   0  0  0  0  0  0  0  0  0  0  0  0
   10.6109  -16.8167   27.3191 O   0  0  0  0  0  0  0  0  0  0  0  0
    9.6261  -18.4266   28.5483 O   0  0  0  0  0  0  0  0  0  0  0  0
  2  1  1  1
  2  3  1  0
  4  2  1  0
  5  4  2  0
  7  6  1  6
  7  9  1  0
  8  7  1  0
  9 10  1  6
 10  4  1  0
 11  9  1  0
 11 12  2  0
 13 14  1  0
 13 11  1  0
 14 15  1  6
 16 15  1  0
 17 14  1  0
 18 17  2  0
 19 17  1  0
M  END
$$$$
