AVC.pdb
     RDKit          3D

 19 18  0  0  1  0  0  0  0  0999 V2000
    6.7189  -18.8816   19.3027 C   0  0  0  0  0  0  0  0  0  0  0  0
    7.4666  -17.7673   18.6126 C   0  0  2  0  0  0  0  0  0  0  0  0
    8.4211  -18.2224   17.6615 N   0  0  0  0  0  0  0  0  0  0  0  0
    8.1167  -16.8492   19.5736 C   0  0  0  0  0  0  0  0  0  0  0  0
    9.2944  -17.0158   19.9879 O   0  0  0  0  0  0  0  0  0  0  0  0
    7.5676  -13.0938   19.0947 C   0  0  0  0  0  0  0  0  0  0  0  0
    7.2785  -13.4179   20.5468 C   0  0  2  0  0  0  0  0  0  0  0  0
    7.7045  -12.2633   21.3813 C   0  0  0  0  0  0  0  0  0  0  0  0
    7.8963  -14.7242   20.9015 C   0  0  2  0  0  0  0  0  0  0  0  0
    7.3575  -15.7401   20.0326 N   0  0  0  0  0  0  0  0  0  0  0  0
    7.7649  -15.1504   22.2799 C   0  0  0  0  0  0  0  0  0  0  0  0
    6.6793  -15.3255   22.8948 O   0  0  0  0  0  0  0  0  0  0  0  0
    8.9359  -15.4057   23.0470 N   0  0  0  0  0  0  0  0  0  0  0  0
    8.8706  -15.9885   24.3742 C   0  0  1  0  0  0  0  0  0  0  0  0
    8.1975  -17.3373   24.3695 C   0  0  0  0  0  0  0  0  0  0  0  0
    6.4508  -17.2532   24.7697 S   0  0  0  0  0  0  0  0  0  0  0  0
   10.2294  -16.1148   24.9257 C   0  0  0  0  0  0  0  0  0  0  0  0
   10.4126  -16.5445   26.0979 O   0  0  0  0  0  0  0  0  0  0  0  0
   11.3560  -15.7759   24.2027 O   0  0  0  0  0  0  0  0  0  0  0  0
  2  1  1  1
  2  3  1  0
  4  2  1  0
  5  4  2  0
  7  6  1  6
  7  9  1  0
  8  7  1  0
  9 10  1  6
 10  4  1  0
 11  9  1  0
 11 12  2  0
 13 14  1  0
 13 11  1  0
 14 15  1  6
 16 15  1  0
 17 14  1  0
 18 17  2  0
 19 17  1  0
M  END
$$$$
