AVC.pdb
     RDKit          3D

 19 18  0  0  1  0  0  0  0  0999 V2000
    7.5760  -18.8096   18.3958 C   0  0  0  0  0  0  0  0  0  0  0  0
    8.2106  -17.6040   17.7473 C   0  0  2  0  0  0  0  0  0  0  0  0
    9.1622  -17.9300   16.7418 N   0  0  0  0  0  0  0  0  0  0  0  0
    8.8227  -16.6915   18.7382 C   0  0  0  0  0  0  0  0  0  0  0  0
   10.0458  -16.7281   19.0365 O   0  0  0  0  0  0  0  0  0  0  0  0
    7.6679  -12.9995   18.7869 C   0  0  0  0  0  0  0  0  0  0  0  0
    7.5980  -13.5457   20.1990 C   0  0  2  0  0  0  0  0  0  0  0  0
    7.9309  -12.4484   21.1458 C   0  0  0  0  0  0  0  0  0  0  0  0
    8.4471  -14.7627   20.3085 C   0  0  2  0  0  0  0  0  0  0  0  0
    7.9715  -15.7430   19.3652 N   0  0  0  0  0  0  0  0  0  0  0  0
    8.5478  -15.3669   21.6214 C   0  0  0  0  0  0  0  0  0  0  0  0
    7.5818  -15.7827   22.3151 O   0  0  0  0  0  0  0  0  0  0  0  0
    9.8285  -15.5259   22.2211 N   0  0  0  0  0  0  0  0  0  0  0  0
    9.9988  -16.1921   23.4987 C   0  0  1  0  0  0  0  0  0  0  0  0
    9.8169  -17.6846   23.3896 C   0  0  0  0  0  0  0  0  0  0  0  0
    8.1402  -18.2165   23.7418 S   0  0  0  0  0  0  0  0  0  0  0  0
   11.3361  -15.8941   24.0369 C   0  0  0  0  0  0  0  0  0  0  0  0
   12.1931  -15.2882   23.3364 O   0  0  0  0  0  0  0  0  0  0  0  0
   11.7171  -16.2553   25.3140 O   0  0  0  0  0  0  0  0  0  0  0  0
  2  1  1  1
  2  3  1  0
  4  2  1  0
  5  4  2  0
  7  6  1  6
  7  9  1  0
  8  7  1  0
  9 10  1  6
 10  4  1  0
 11  9  1  0
 11 12  2  0
 13 14  1  0
 13 11  1  0
 14 15  1  6
 16 15  1  0
 17 14  1  0
 18 17  2  0
 19 17  1  0
M  END
$$$$
