AVC.pdb
     RDKit          3D

 19 18  0  0  1  0  0  0  0  0999 V2000
    7.2244  -16.7908   21.8699 C   0  0  0  0  0  0  0  0  0  0  0  0
    7.4930  -15.3076   21.8002 C   0  0  2  0  0  0  0  0  0  0  0  0
    8.2286  -14.9131   20.6486 N   0  0  0  0  0  0  0  0  0  0  0  0
    8.1621  -14.8012   23.0187 C   0  0  0  0  0  0  0  0  0  0  0  0
    9.4148  -14.7487   23.1386 O   0  0  0  0  0  0  0  0  0  0  0  0
    6.4767  -11.8440   25.0623 C   0  0  0  0  0  0  0  0  0  0  0  0
    6.8154  -13.0080   25.9720 C   0  0  2  0  0  0  0  0  0  0  0  0
    7.1700  -12.4708   27.3125 C   0  0  0  0  0  0  0  0  0  0  0  0
    7.8533  -13.8599   25.3309 C   0  0  2  0  0  0  0  0  0  0  0  0
    7.3322  -14.3616   24.0843 N   0  0  0  0  0  0  0  0  0  0  0  0
    8.3633  -14.9636   26.1187 C   0  0  0  0  0  0  0  0  0  0  0  0
    7.7653  -16.0516   26.3331 O   0  0  0  0  0  0  0  0  0  0  0  0
    9.6472  -14.8562   26.7229 N   0  0  0  0  0  0  0  0  0  0  0  0
   10.2228  -15.9402   27.4968 C   0  0  1  0  0  0  0  0  0  0  0  0
   11.5141  -16.4401   26.9008 C   0  0  0  0  0  0  0  0  0  0  0  0
   12.2867  -17.7308   27.8781 S   0  0  0  0  0  0  0  0  0  0  0  0
   10.4564  -15.4908   28.8789 C   0  0  0  0  0  0  0  0  0  0  0  0
   10.5494  -14.2621   29.1508 O   0  0  0  0  0  0  0  0  0  0  0  0
   10.5839  -16.3740   29.9327 O   0  0  0  0  0  0  0  0  0  0  0  0
  2  1  1  1
  2  3  1  0
  4  2  1  0
  5  4  2  0
  7  6  1  6
  7  9  1  0
  8  7  1  0
  9 10  1  6
 10  4  1  0
 11  9  1  0
 11 12  2  0
 13 14  1  0
 13 11  1  0
 14 15  1  6
 16 15  1  0
 17 14  1  0
 18 17  2  0
 19 17  1  0
M  END
$$$$
