GDP.pdb
     RDKit          3D

 20 20  0  0  1  0  0  0  0  0999 V2000
    7.7165  -12.6951   19.0586 N   0  0  0  0  0  0  0  0  0  0  0  0
    8.5303  -13.2375   20.1052 C   0  0  0  0  0  0  0  0  0  0  0  0
    7.6698  -13.8446   21.1977 C   0  0  0  0  0  0  0  0  0  0  0  0
    6.4510  -13.5702   21.1807 O   0  0  0  0  0  0  0  0  0  0  0  0
    8.2507  -14.6749   22.1696 N   0  0  0  0  0  0  0  0  0  0  0  0
    7.6641  -15.2918   23.3136 C   0  0  1  0  0  0  0  0  0  0  0  0
    7.1497  -16.6629   23.1972 C   0  0  0  0  0  0  0  0  0  0  0  0
    6.6599  -17.1591   24.5415 C   0  0  0  0  0  0  0  0  0  0  0  0
    5.4949  -17.0086   24.9586 O   0  0  0  0  0  0  0  0  0  0  0  0
    8.2400  -14.7902   24.5360 C   0  0  0  0  0  0  0  0  0  0  0  0
    9.2782  -15.4684   24.9567 O   0  0  0  0  0  0  0  0  0  0  0  0
    7.5830  -17.8128   25.3293 O   0  0  0  0  0  0  0  0  0  0  0  0
    7.9070  -13.7092   25.3682 N   0  0  0  0  0  0  0  0  0  0  0  0
    7.1337  -12.5438   24.8967 C   0  0  0  0  0  0  0  0  0  0  0  0
    6.1536  -12.3029   26.0590 C   0  0  0  0  0  0  0  0  0  0  0  0
    6.5756  -13.2749   27.1564 C   0  0  0  0  0  0  0  0  0  0  0  0
    8.0641  -13.4529   26.7659 C   0  0  1  0  0  0  0  0  0  0  0  0
    8.6961  -14.3922   27.6482 C   0  0  0  0  0  0  0  0  0  0  0  0
    9.5036  -13.7868   28.6748 O   0  0  0  0  0  0  0  0  0  0  0  0
    8.6880  -15.6245   27.7064 O   0  0  0  0  0  0  0  0  0  0  0  0
  1  2  1  0
  3  4  2  0
  3  2  1  0
  5  3  1  0
  6  5  1  0
  6  7  1  6
  7  8  1  0
  8  9  2  0
  8 12  1  0
 10  6  1  0
 11 10  2  0
 13 10  1  0
 13 17  1  0
 14 15  1  0
 14 13  1  0
 15 16  1  0
 16 17  1  0
 18 19  1  0
 17 18  1  1
 20 18  2  0
M  END
$$$$
