GDP.pdb
     RDKit          3D

 20 20  0  0  1  0  0  0  0  0999 V2000
    8.1366  -15.2274   19.3852 N   0  0  0  0  0  0  0  0  0  0  0  0
    8.7635  -15.7538   20.5606 C   0  0  0  0  0  0  0  0  0  0  0  0
    7.9552  -15.4170   21.7997 C   0  0  0  0  0  0  0  0  0  0  0  0
    7.1644  -14.4530   21.7188 O   0  0  0  0  0  0  0  0  0  0  0  0
    8.1136  -16.1766   22.9699 N   0  0  0  0  0  0  0  0  0  0  0  0
    7.5434  -15.9918   24.2639 C   0  0  1  0  0  0  0  0  0  0  0  0
    6.8252  -17.1093   24.8911 C   0  0  0  0  0  0  0  0  0  0  0  0
    6.1538  -17.9639   23.8366 C   0  0  0  0  0  0  0  0  0  0  0  0
    6.6912  -18.9460   23.2884 O   0  0  0  0  0  0  0  0  0  0  0  0
    8.2899  -15.0303   25.0358 C   0  0  0  0  0  0  0  0  0  0  0  0
    9.5429  -15.3569   25.2311 O   0  0  0  0  0  0  0  0  0  0  0  0
    4.8702  -17.6079   23.4823 O   0  0  0  0  0  0  0  0  0  0  0  0
    7.9369  -13.8034   25.6208 N   0  0  0  0  0  0  0  0  0  0  0  0
    7.0828  -12.8089   24.9427 C   0  0  0  0  0  0  0  0  0  0  0  0
    6.1434  -12.3515   26.0732 C   0  0  0  0  0  0  0  0  0  0  0  0
    6.6643  -13.0305   27.3361 C   0  0  0  0  0  0  0  0  0  0  0  0
    8.1416  -13.2302   26.9144 C   0  0  1  0  0  0  0  0  0  0  0  0
    8.8608  -13.9173   27.9492 C   0  0  0  0  0  0  0  0  0  0  0  0
    9.7398  -13.0745   28.7169 O   0  0  0  0  0  0  0  0  0  0  0  0
    8.8790  -15.0943   28.3181 O   0  0  0  0  0  0  0  0  0  0  0  0
  1  2  1  0
  3  4  2  0
  3  2  1  0
  5  3  1  0
  6  5  1  0
  6  7  1  1
  7  8  1  0
  8  9  2  0
  8 12  1  0
 10  6  1  0
 11 10  2  0
 13 10  1  0
 13 17  1  0
 14 15  1  0
 14 13  1  0
 15 16  1  0
 16 17  1  0
 18 19  1  0
 17 18  1  1
 20 18  2  0
M  END
$$$$
