GDP.pdb
     RDKit          3D

 20 20  0  0  1  0  0  0  0  0999 V2000
    8.7015  -14.2745   13.7472 N   0  0  0  0  0  0  0  0  0  0  0  0
    9.2723  -15.3695   14.4731 C   0  0  0  0  0  0  0  0  0  0  0  0
    8.7831  -15.3778   15.9094 C   0  0  0  0  0  0  0  0  0  0  0  0
    8.2014  -14.3505   16.3185 O   0  0  0  0  0  0  0  0  0  0  0  0
    8.9913  -16.5081   16.7159 N   0  0  0  0  0  0  0  0  0  0  0  0
    8.6211  -16.7435   18.0728 C   0  0  1  0  0  0  0  0  0  0  0  0
    8.2033  -18.0940   18.4722 C   0  0  0  0  0  0  0  0  0  0  0  0
    7.4517  -18.7695   17.3444 C   0  0  0  0  0  0  0  0  0  0  0  0
    7.9961  -19.2406   16.3268 O   0  0  0  0  0  0  0  0  0  0  0  0
    9.3226  -15.8609   18.9709 C   0  0  0  0  0  0  0  0  0  0  0  0
   10.5628  -16.2101   19.2049 O   0  0  0  0  0  0  0  0  0  0  0  0
    6.0825  -18.8524   17.4808 O   0  0  0  0  0  0  0  0  0  0  0  0
    8.9368  -14.6916   19.6460 N   0  0  0  0  0  0  0  0  0  0  0  0
    8.0849  -13.6552   19.0307 C   0  0  0  0  0  0  0  0  0  0  0  0
    7.1110  -13.3056   20.1703 C   0  0  0  0  0  0  0  0  0  0  0  0
    7.6106  -14.0804   21.3858 C   0  0  0  0  0  0  0  0  0  0  0  0
    9.1007  -14.2253   20.9876 C   0  0  1  0  0  0  0  0  0  0  0  0
    9.8042  -14.9867   21.9802 C   0  0  0  0  0  0  0  0  0  0  0  0
   10.5783  -14.1903   22.8962 O   0  0  0  0  0  0  0  0  0  0  0  0
    9.8813  -16.1962   22.2104 O   0  0  0  0  0  0  0  0  0  0  0  0
  1  2  1  0
  3  4  2  0
  3  2  1  0
  5  3  1  0
  6  5  1  0
  6  7  1  1
  7  8  1  0
  8  9  2  0
  8 12  1  0
 10  6  1  0
 11 10  2  0
 13 10  1  0
 13 17  1  0
 14 15  1  0
 14 13  1  0
 15 16  1  0
 16 17  1  0
 18 19  1  0
 17 18  1  1
 20 18  2  0
M  END
$$$$
