GDP.pdb
     RDKit          3D

 20 20  0  0  1  0  0  0  0  0999 V2000
    8.3543  -12.2575   19.3924 N   0  0  0  0  0  0  0  0  0  0  0  0
    8.6793  -13.5214   19.9831 C   0  0  0  0  0  0  0  0  0  0  0  0
    8.0286  -13.6627   21.3465 C   0  0  0  0  0  0  0  0  0  0  0  0
    7.4161  -12.6684   21.7907 O   0  0  0  0  0  0  0  0  0  0  0  0
    8.1296  -14.8729   22.0512 N   0  0  0  0  0  0  0  0  0  0  0  0
    7.5976  -15.2372   23.3232 C   0  0  1  0  0  0  0  0  0  0  0  0
    7.0530  -16.5892   23.5058 C   0  0  0  0  0  0  0  0  0  0  0  0
    6.3995  -17.0724   22.2281 C   0  0  0  0  0  0  0  0  0  0  0  0
    7.0135  -17.6314   21.2984 O   0  0  0  0  0  0  0  0  0  0  0  0
    8.2507  -14.5229   24.3913 C   0  0  0  0  0  0  0  0  0  0  0  0
    9.4878  -14.8946   24.6063 O   0  0  0  0  0  0  0  0  0  0  0  0
    5.0411  -16.8663   22.1162 O   0  0  0  0  0  0  0  0  0  0  0  0
    7.8201  -13.4985   25.2500 N   0  0  0  0  0  0  0  0  0  0  0  0
    7.0196  -12.3483   24.7867 C   0  0  0  0  0  0  0  0  0  0  0  0
    5.9654  -12.2072   25.8995 C   0  0  0  0  0  0  0  0  0  0  0  0
    6.3712  -13.2100   26.9753 C   0  0  0  0  0  0  0  0  0  0  0  0
    7.8861  -13.3017   26.6645 C   0  0  1  0  0  0  0  0  0  0  0  0
    8.5119  -14.2521   27.5394 C   0  0  0  0  0  0  0  0  0  0  0  0
    9.1201  -13.6688   28.7067 O   0  0  0  0  0  0  0  0  0  0  0  0
    8.6358  -15.4787   27.4943 O   0  0  0  0  0  0  0  0  0  0  0  0
  1  2  1  0
  3  4  2  0
  3  2  1  0
  5  3  1  0
  6  5  1  0
  6  7  1  1
  7  8  1  0
  8  9  2  0
  8 12  1  0
 10  6  1  0
 11 10  2  0
 13 10  1  0
 13 17  1  0
 14 15  1  0
 14 13  1  0
 15 16  1  0
 16 17  1  0
 18 19  1  0
 17 18  1  1
 20 18  2  0
M  END
$$$$
