GDP.pdb
     RDKit          3D

 20 20  0  0  1  0  0  0  0  0999 V2000
    7.8360  -12.7486   18.9647 N   0  0  0  0  0  0  0  0  0  0  0  0
    8.4768  -13.6897   19.8338 C   0  0  0  0  0  0  0  0  0  0  0  0
    7.5681  -14.0605   20.9911 C   0  0  0  0  0  0  0  0  0  0  0  0
    6.3532  -14.2040   20.7373 O   0  0  0  0  0  0  0  0  0  0  0  0
    8.1028  -14.2277   22.2785 N   0  0  0  0  0  0  0  0  0  0  0  0
    7.6515  -15.0447   23.3567 C   0  0  1  0  0  0  0  0  0  0  0  0
    7.3363  -16.4557   23.0965 C   0  0  0  0  0  0  0  0  0  0  0  0
    6.7972  -17.1159   24.3481 C   0  0  0  0  0  0  0  0  0  0  0  0
    5.7476  -16.7681   24.9237 O   0  0  0  0  0  0  0  0  0  0  0  0
    8.1915  -14.5995   24.6167 C   0  0  0  0  0  0  0  0  0  0  0  0
    9.1798  -15.3325   25.0649 O   0  0  0  0  0  0  0  0  0  0  0  0
    7.5354  -18.1624   24.8581 O   0  0  0  0  0  0  0  0  0  0  0  0
    7.8667  -13.5263   25.4622 N   0  0  0  0  0  0  0  0  0  0  0  0
    7.1692  -12.3153   24.9876 C   0  0  0  0  0  0  0  0  0  0  0  0
    6.1457  -12.0602   26.1087 C   0  0  0  0  0  0  0  0  0  0  0  0
    6.4710  -13.0784   27.1972 C   0  0  0  0  0  0  0  0  0  0  0  0
    7.9673  -13.3136   26.8724 C   0  0  1  0  0  0  0  0  0  0  0  0
    8.5140  -14.3030   27.7568 C   0  0  0  0  0  0  0  0  0  0  0  0
    9.3457  -13.7658   28.8019 O   0  0  0  0  0  0  0  0  0  0  0  0
    8.4152  -15.5318   27.8042 O   0  0  0  0  0  0  0  0  0  0  0  0
  1  2  1  0
  3  4  2  0
  3  2  1  0
  5  3  1  0
  6  5  1  0
  6  7  1  6
  7  8  1  0
  8  9  2  0
  8 12  1  0
 10  6  1  0
 11 10  2  0
 13 10  1  0
 13 17  1  0
 14 15  1  0
 14 13  1  0
 15 16  1  0
 16 17  1  0
 18 19  1  0
 17 18  1  1
 20 18  2  0
M  END
$$$$
