GDP.pdb
     RDKit          3D

 20 20  0  0  1  0  0  0  0  0999 V2000
    8.6451  -15.5777   19.1314 N   0  0  0  0  0  0  0  0  0  0  0  0
    9.0382  -15.9752   20.4502 C   0  0  0  0  0  0  0  0  0  0  0  0
    7.9839  -15.5829   21.4685 C   0  0  0  0  0  0  0  0  0  0  0  0
    6.9112  -15.1186   21.0271 O   0  0  0  0  0  0  0  0  0  0  0  0
    8.2358  -15.7481   22.8399 N   0  0  0  0  0  0  0  0  0  0  0  0
    7.3665  -15.5725   23.9565 C   0  0  1  0  0  0  0  0  0  0  0  0
    6.3367  -16.5858   24.2227 C   0  0  0  0  0  0  0  0  0  0  0  0
    6.9739  -17.8726   24.7038 C   0  0  0  0  0  0  0  0  0  0  0  0
    8.0593  -18.3149   24.2795 O   0  0  0  0  0  0  0  0  0  0  0  0
    8.0116  -14.8383   25.0159 C   0  0  0  0  0  0  0  0  0  0  0  0
    9.0554  -15.4417   25.5272 O   0  0  0  0  0  0  0  0  0  0  0  0
    6.2865  -18.5753   25.6701 O   0  0  0  0  0  0  0  0  0  0  0  0
    7.7417  -13.5946   25.6095 N   0  0  0  0  0  0  0  0  0  0  0  0
    7.0352  -12.5071   24.9047 C   0  0  0  0  0  0  0  0  0  0  0  0
    6.0719  -11.9820   25.9844 C   0  0  0  0  0  0  0  0  0  0  0  0
    6.4393  -12.7344   27.2596 C   0  0  0  0  0  0  0  0  0  0  0  0
    7.9148  -13.0705   26.9283 C   0  0  1  0  0  0  0  0  0  0  0  0
    8.4935  -13.8461   27.9884 C   0  0  0  0  0  0  0  0  0  0  0  0
    9.3059  -13.0850   28.9012 O   0  0  0  0  0  0  0  0  0  0  0  0
    8.4358  -15.0436   28.2793 O   0  0  0  0  0  0  0  0  0  0  0  0
  1  2  1  0
  3  4  2  0
  3  2  1  0
  5  3  1  0
  6  5  1  0
  6  7  1  1
  7  8  1  0
  8  9  2  0
  8 12  1  0
 10  6  1  0
 11 10  2  0
 13 10  1  0
 13 17  1  0
 14 15  1  0
 14 13  1  0
 15 16  1  0
 16 17  1  0
 18 19  1  0
 17 18  1  1
 20 18  2  0
M  END
$$$$
