GDP.pdb
     RDKit          3D

 20 20  0  0  1  0  0  0  0  0999 V2000
    7.9923  -12.6494   19.0430 N   0  0  0  0  0  0  0  0  0  0  0  0
    8.5638  -13.7397   19.7754 C   0  0  0  0  0  0  0  0  0  0  0  0
    7.6179  -14.2132   20.8633 C   0  0  0  0  0  0  0  0  0  0  0  0
    6.4730  -14.5657   20.5083 O   0  0  0  0  0  0  0  0  0  0  0  0
    8.0437  -14.2417   22.2010 N   0  0  0  0  0  0  0  0  0  0  0  0
    7.5971  -15.0533   23.2852 C   0  0  1  0  0  0  0  0  0  0  0  0
    7.3311  -16.4779   23.0451 C   0  0  0  0  0  0  0  0  0  0  0  0
    6.7363  -17.1197   24.2810 C   0  0  0  0  0  0  0  0  0  0  0  0
    5.5868  -16.8874   24.7034 O   0  0  0  0  0  0  0  0  0  0  0  0
    8.0983  -14.5690   24.5469 C   0  0  0  0  0  0  0  0  0  0  0  0
    9.0635  -15.2944   25.0538 O   0  0  0  0  0  0  0  0  0  0  0  0
    7.5407  -18.0106   24.9588 O   0  0  0  0  0  0  0  0  0  0  0  0
    7.7556  -13.4641   25.3429 N   0  0  0  0  0  0  0  0  0  0  0  0
    6.9772  -12.3190   24.8318 C   0  0  0  0  0  0  0  0  0  0  0  0
    5.9911  -12.0473   25.9821 C   0  0  0  0  0  0  0  0  0  0  0  0
    6.4146  -12.9813   27.1115 C   0  0  0  0  0  0  0  0  0  0  0  0
    7.9057  -13.1626   26.7324 C   0  0  1  0  0  0  0  0  0  0  0  0
    8.5398  -14.0694   27.6465 C   0  0  0  0  0  0  0  0  0  0  0  0
    8.2827  -15.4593   27.3731 O   0  0  0  0  0  0  0  0  0  0  0  0
    9.2672  -13.8986   28.6281 O   0  0  0  0  0  0  0  0  0  0  0  0
  1  2  1  0
  3  4  2  0
  3  2  1  0
  5  3  1  0
  6  5  1  0
  6  7  1  6
  7  8  1  0
  8  9  2  0
  8 12  1  0
 10  6  1  0
 11 10  2  0
 13 10  1  0
 13 17  1  0
 14 15  1  0
 14 13  1  0
 15 16  1  0
 16 17  1  0
 18 19  1  0
 17 18  1  1
 20 18  2  0
M  END
$$$$
