GDP.pdb
     RDKit          3D

 20 20  0  0  1  0  0  0  0  0999 V2000
    7.4960  -12.7270   19.1694 N   0  0  0  0  0  0  0  0  0  0  0  0
    8.5086  -13.2656   20.0275 C   0  0  0  0  0  0  0  0  0  0  0  0
    7.8980  -13.8151   21.3033 C   0  0  0  0  0  0  0  0  0  0  0  0
    6.7407  -13.4400   21.5879 O   0  0  0  0  0  0  0  0  0  0  0  0
    8.6297  -14.7051   22.1057 N   0  0  0  0  0  0  0  0  0  0  0  0
    8.3146  -15.2540   23.3836 C   0  0  1  0  0  0  0  0  0  0  0  0
    8.2731  -16.7140   23.5402 C   0  0  0  0  0  0  0  0  0  0  0  0
    7.9674  -17.3789   22.2144 C   0  0  0  0  0  0  0  0  0  0  0  0
    8.7653  -18.1162   21.6032 O   0  0  0  0  0  0  0  0  0  0  0  0
    8.7345  -14.3801   24.4502 C   0  0  0  0  0  0  0  0  0  0  0  0
   10.0003  -14.4913   24.7669 O   0  0  0  0  0  0  0  0  0  0  0  0
    6.7224  -17.1336   21.6761 O   0  0  0  0  0  0  0  0  0  0  0  0
    8.0503  -13.4250   25.2194 N   0  0  0  0  0  0  0  0  0  0  0  0
    7.0755  -12.4796   24.6410 C   0  0  0  0  0  0  0  0  0  0  0  0
    5.9362  -12.5021   25.6758 C   0  0  0  0  0  0  0  0  0  0  0  0
    6.4516  -13.3546   26.8313 C   0  0  0  0  0  0  0  0  0  0  0  0
    7.9735  -13.1560   26.6214 C   0  0  1  0  0  0  0  0  0  0  0  0
    8.7083  -13.9222   27.5874 C   0  0  0  0  0  0  0  0  0  0  0  0
    8.7890  -15.3281   27.2882 O   0  0  0  0  0  0  0  0  0  0  0  0
    9.2902  -13.6184   28.6318 O   0  0  0  0  0  0  0  0  0  0  0  0
  1  2  1  0
  3  4  2  0
  3  2  1  0
  5  3  1  0
  6  5  1  0
  6  7  1  1
  7  8  1  0
  8  9  2  0
  8 12  1  0
 10  6  1  0
 11 10  2  0
 13 10  1  0
 13 17  1  0
 14 15  1  0
 14 13  1  0
 15 16  1  0
 16 17  1  0
 18 19  1  0
 17 18  1  1
 20 18  2  0
M  END
$$$$
