GDP.pdb
     RDKit          3D

 20 20  0  0  1  0  0  0  0  0999 V2000
    7.7433  -13.4235   14.7761 N   0  0  0  0  0  0  0  0  0  0  0  0
    8.7946  -14.0237   15.5417 C   0  0  0  0  0  0  0  0  0  0  0  0
    8.2275  -14.9177   16.6287 C   0  0  0  0  0  0  0  0  0  0  0  0
    6.9846  -15.0350   16.6782 O   0  0  0  0  0  0  0  0  0  0  0  0
    9.0909  -15.5700   17.5234 N   0  0  0  0  0  0  0  0  0  0  0  0
    8.7993  -16.5180   18.5481 C   0  0  1  0  0  0  0  0  0  0  0  0
    8.6551  -17.9345   18.1867 C   0  0  0  0  0  0  0  0  0  0  0  0
    8.3091  -18.7588   19.4090 C   0  0  0  0  0  0  0  0  0  0  0  0
    9.1523  -19.2041   20.2119 O   0  0  0  0  0  0  0  0  0  0  0  0
    9.3369  -16.1019   19.8190 C   0  0  0  0  0  0  0  0  0  0  0  0
   10.4271  -16.7354   20.1727 O   0  0  0  0  0  0  0  0  0  0  0  0
    6.9712  -19.0160   19.6187 O   0  0  0  0  0  0  0  0  0  0  0  0
    8.9213  -15.1430   20.7570 N   0  0  0  0  0  0  0  0  0  0  0  0
    8.0952  -13.9745   20.3958 C   0  0  0  0  0  0  0  0  0  0  0  0
    7.0731  -13.9217   21.5457 C   0  0  0  0  0  0  0  0  0  0  0  0
    7.5214  -14.9892   22.5391 C   0  0  0  0  0  0  0  0  0  0  0  0
    9.0273  -15.0409   22.1791 C   0  0  1  0  0  0  0  0  0  0  0  0
    9.6888  -16.0399   22.9693 C   0  0  0  0  0  0  0  0  0  0  0  0
   10.5787  -15.5086   23.9685 O   0  0  0  0  0  0  0  0  0  0  0  0
    9.6497  -17.2729   22.9665 O   0  0  0  0  0  0  0  0  0  0  0  0
  1  2  1  0
  3  4  2  0
  3  2  1  0
  5  3  1  0
  6  5  1  0
  6  7  1  6
  7  8  1  0
  8  9  2  0
  8 12  1  0
 10  6  1  0
 11 10  2  0
 13 10  1  0
 13 17  1  0
 14 15  1  0
 14 13  1  0
 15 16  1  0
 16 17  1  0
 18 19  1  0
 17 18  1  1
 20 18  2  0
M  END
$$$$
