GDP.pdb
     RDKit          3D

 20 20  0  0  1  0  0  0  0  0999 V2000
    8.3166  -12.2762   19.2176 N   0  0  0  0  0  0  0  0  0  0  0  0
    8.7915  -13.3832   19.9926 C   0  0  0  0  0  0  0  0  0  0  0  0
    7.9503  -13.5673   21.2419 C   0  0  0  0  0  0  0  0  0  0  0  0
    7.0562  -12.7212   21.4558 O   0  0  0  0  0  0  0  0  0  0  0  0
    8.1929  -14.6530   22.0986 N   0  0  0  0  0  0  0  0  0  0  0  0
    7.5557  -15.0114   23.3230 C   0  0  1  0  0  0  0  0  0  0  0  0
    6.9483  -16.3433   23.4457 C   0  0  0  0  0  0  0  0  0  0  0  0
    7.1578  -17.1384   22.1740 C   0  0  0  0  0  0  0  0  0  0  0  0
    6.2502  -17.4115   21.3643 O   0  0  0  0  0  0  0  0  0  0  0  0
    8.1553  -14.3358   24.4462 C   0  0  0  0  0  0  0  0  0  0  0  0
    9.3422  -14.7846   24.7699 O   0  0  0  0  0  0  0  0  0  0  0  0
    8.4419  -17.5733   21.9252 O   0  0  0  0  0  0  0  0  0  0  0  0
    7.7163  -13.2827   25.2648 N   0  0  0  0  0  0  0  0  0  0  0  0
    6.8718  -12.1793   24.7668 C   0  0  0  0  0  0  0  0  0  0  0  0
    5.8412  -12.0128   25.8981 C   0  0  0  0  0  0  0  0  0  0  0  0
    6.3017  -12.9497   27.0105 C   0  0  0  0  0  0  0  0  0  0  0  0
    7.8107  -13.0147   26.6660 C   0  0  1  0  0  0  0  0  0  0  0  0
    8.4845  -13.9031   27.5697 C   0  0  0  0  0  0  0  0  0  0  0  0
    8.2538  -15.2996   27.3068 O   0  0  0  0  0  0  0  0  0  0  0  0
    9.2283  -13.7117   28.5352 O   0  0  0  0  0  0  0  0  0  0  0  0
  1  2  1  0
  3  4  2  0
  3  2  1  0
  5  3  1  0
  6  5  1  0
  6  7  1  1
  7  8  1  0
  8  9  2  0
  8 12  1  0
 10  6  1  0
 11 10  2  0
 13 10  1  0
 13 17  1  0
 14 15  1  0
 14 13  1  0
 15 16  1  0
 16 17  1  0
 18 19  1  0
 17 18  1  1
 20 18  2  0
M  END
$$$$
