LNI.pdb
     RDKit          3D

 25 24  0  0  1  0  0  0  0  0999 V2000
   21.6137  -16.6967  -15.3676 C   0  0  0  0  0  0  0  0  0  0  0  0
   22.0069  -17.8001  -16.3256 C   0  0  2  0  0  0  0  0  0  0  0  0
   20.7407  -18.2091  -17.0559 C   0  0  0  0  0  0  0  0  0  0  0  0
   22.5806  -18.9945  -15.6222 C   0  0  0  0  0  0  0  0  0  0  0  0
   23.7633  -18.6720  -14.7736 C   0  0  2  0  0  0  0  0  0  0  0  0
   24.8003  -17.9768  -15.4931 N   0  0  0  0  0  0  0  0  0  0  0  0
   24.3570  -19.9324  -14.1830 C   0  0  0  0  0  0  0  0  0  0  0  0
   23.6224  -20.9386  -14.0130 O   0  0  0  0  0  0  0  0  0  0  0  0
   27.9697  -22.5637  -15.8917 N   0  0  0  0  0  0  0  0  0  0  0  0
   27.9701  -21.3258  -15.2137 C   0  0  0  0  0  0  0  0  0  0  0  0
   28.0436  -20.2684  -15.9365 O   0  0  0  0  0  0  0  0  0  0  0  0
   27.8897  -21.2259  -13.7237 C   0  0  0  0  0  0  0  0  0  0  0  0
   26.4479  -21.0884  -13.2900 C   0  0  2  0  0  0  0  0  0  0  0  0
   25.7116  -20.0040  -13.8198 N   0  0  0  0  0  0  0  0  0  0  0  0
   26.1821  -21.4175  -11.8891 C   0  0  0  0  0  0  0  0  0  0  0  0
   26.4555  -22.5923  -11.5182 O   0  0  0  0  0  0  0  0  0  0  0  0
   27.9071  -19.0672   -7.6505 C   0  0  0  0  0  0  0  0  0  0  0  0
   27.3340  -20.1210   -8.5620 C   0  0  0  0  0  0  0  0  0  0  0  0
   25.8353  -20.2323   -8.4669 C   0  0  2  0  0  0  0  0  0  0  0  0
   25.4098  -20.7723   -7.1078 C   0  0  0  0  0  0  0  0  0  0  0  0
   25.2039  -20.9684   -9.5960 C   0  0  2  0  0  0  0  0  0  0  0  0
   25.6502  -20.5594  -10.8987 N   0  0  0  0  0  0  0  0  0  0  0  0
   23.7507  -21.1210   -9.4708 C   0  0  0  0  0  0  0  0  0  0  0  0
   23.1207  -21.9145   -8.5280 O   0  0  0  0  0  0  0  0  0  0  0  0
   22.9962  -20.4940  -10.2703 O   0  0  0  0  0  0  0  0  0  0  0  0
  2  1  1  1
  3  2  1  0
  4  2  1  0
  5  4  1  0
  5  6  1  6
  7  5  1  0
  7  8  2  0
 10 12  1  0
 10  9  1  0
 11 10  2  0
 13 12  1  1
 13 14  1  0
 14  7  1  0
 15 13  1  0
 16 15  2  0
 18 19  1  0
 18 17  1  0
 19 21  1  0
 19 20  1  1
 21 22  1  6
 21 23  1  0
 22 15  1  0
 23 24  1  0
 25 23  2  0
M  END
$$$$
