LNI.pdb
     RDKit          3D

 25 24  0  0  1  0  0  0  0  0999 V2000
   13.3187  -12.2997  -11.9360 C   0  0  0  0  0  0  0  0  0  0  0  0
   12.9041  -11.3499  -10.8333 C   0  0  2  0  0  0  0  0  0  0  0  0
   11.3901  -11.2583  -10.8892 C   0  0  0  0  0  0  0  0  0  0  0  0
   13.4898   -9.9795  -11.0049 C   0  0  0  0  0  0  0  0  0  0  0  0
   14.9614   -9.9296  -10.7711 C   0  0  2  0  0  0  0  0  0  0  0  0
   15.3443  -10.4399   -9.4791 N   0  0  0  0  0  0  0  0  0  0  0  0
   15.4742   -8.5111  -10.8934 C   0  0  0  0  0  0  0  0  0  0  0  0
   15.3079   -7.8866  -11.9719 O   0  0  0  0  0  0  0  0  0  0  0  0
   14.2081   -6.1733   -7.0757 N   0  0  0  0  0  0  0  0  0  0  0  0
   14.8561   -5.6807   -8.2287 C   0  0  0  0  0  0  0  0  0  0  0  0
   14.1186   -5.1083   -9.1088 O   0  0  0  0  0  0  0  0  0  0  0  0
   16.3313   -5.8084   -8.4375 C   0  0  0  0  0  0  0  0  0  0  0  0
   16.6110   -6.5491   -9.7255 C   0  0  2  0  0  0  0  0  0  0  0  0
   16.1326   -7.8755   -9.8283 N   0  0  0  0  0  0  0  0  0  0  0  0
   17.9236   -6.2953  -10.3206 C   0  0  0  0  0  0  0  0  0  0  0  0
   18.9078   -6.2516   -9.5319 O   0  0  0  0  0  0  0  0  0  0  0  0
   20.8699   -9.4273  -12.7507 C   0  0  0  0  0  0  0  0  0  0  0  0
   20.3086   -8.2326  -12.0245 C   0  0  0  0  0  0  0  0  0  0  0  0
   20.1307   -7.0308  -12.9142 C   0  0  2  0  0  0  0  0  0  0  0  0
   21.4278   -6.6822  -13.6324 C   0  0  0  0  0  0  0  0  0  0  0  0
   19.5195   -5.8543  -12.2378 C   0  0  2  0  0  0  0  0  0  0  0  0
   18.2132   -6.0930  -11.6901 N   0  0  0  0  0  0  0  0  0  0  0  0
   19.6442   -4.6017  -12.9903 C   0  0  0  0  0  0  0  0  0  0  0  0
   20.7764   -3.8060  -13.0126 O   0  0  0  0  0  0  0  0  0  0  0  0
   18.6604   -4.1963  -13.6754 O   0  0  0  0  0  0  0  0  0  0  0  0
  2  1  1  6
  3  2  1  0
  4  2  1  0
  5  4  1  0
  5  6  1  1
  7  5  1  0
  7  8  2  0
 10 12  1  0
 10  9  1  0
 11 10  2  0
 13 12  1  1
 13 14  1  0
 14  7  1  0
 15 13  1  0
 16 15  2  0
 18 19  1  0
 18 17  1  0
 19 21  1  0
 19 20  1  1
 21 22  1  6
 21 23  1  0
 22 15  1  0
 23 24  1  0
 25 23  2  0
M  END
$$$$
