LNI.pdb
     RDKit          3D

 25 24  0  0  1  0  0  0  0  0999 V2000
   17.4631  -15.1697  -19.3171 C   0  0  0  0  0  0  0  0  0  0  0  0
   18.5489  -15.3929  -18.2870 C   0  0  2  0  0  0  0  0  0  0  0  0
   17.8696  -15.9835  -17.0649 C   0  0  0  0  0  0  0  0  0  0  0  0
   19.2447  -14.1211  -17.9007 C   0  0  0  0  0  0  0  0  0  0  0  0
   19.9543  -13.4646  -19.0356 C   0  0  2  0  0  0  0  0  0  0  0  0
   21.0885  -14.2200  -19.5037 N   0  0  0  0  0  0  0  0  0  0  0  0
   20.4323  -12.0843  -18.6403 C   0  0  0  0  0  0  0  0  0  0  0  0
   21.5168  -11.9632  -18.0158 O   0  0  0  0  0  0  0  0  0  0  0  0
   20.8610   -7.7830  -21.5025 N   0  0  0  0  0  0  0  0  0  0  0  0
   19.9001   -8.6751  -20.9803 C   0  0  0  0  0  0  0  0  0  0  0  0
   19.5086   -9.6227  -21.7516 O   0  0  0  0  0  0  0  0  0  0  0  0
   19.3491   -8.5425  -19.5964 C   0  0  0  0  0  0  0  0  0  0  0  0
   19.9758   -9.5752  -18.6873 C   0  0  2  0  0  0  0  0  0  0  0  0
   19.6911  -10.9339  -18.9554 N   0  0  0  0  0  0  0  0  0  0  0  0
   20.0456   -9.2039  -17.2735 C   0  0  0  0  0  0  0  0  0  0  0  0
   19.0612   -9.5233  -16.5514 O   0  0  0  0  0  0  0  0  0  0  0  0
   23.7244  -10.7971  -14.1097 C   0  0  0  0  0  0  0  0  0  0  0  0
   22.4833  -10.2477  -14.7635 C   0  0  0  0  0  0  0  0  0  0  0  0
   22.2557   -8.7891  -14.4663 C   0  0  2  0  0  0  0  0  0  0  0  0
   22.1438   -8.5450  -12.9671 C   0  0  0  0  0  0  0  0  0  0  0  0
   21.1334   -8.1776  -15.2289 C   0  0  2  0  0  0  0  0  0  0  0  0
   21.1008   -8.5233  -16.6228 N   0  0  0  0  0  0  0  0  0  0  0  0
   20.9293   -6.7521  -14.9506 C   0  0  0  0  0  0  0  0  0  0  0  0
   21.2464   -5.7262  -15.8237 O   0  0  0  0  0  0  0  0  0  0  0  0
   20.4301   -6.4086  -13.8396 O   0  0  0  0  0  0  0  0  0  0  0  0
  2  1  1  6
  3  2  1  0
  4  2  1  0
  5  4  1  0
  5  6  1  1
  7  5  1  0
  7  8  2  0
 10 12  1  0
 10  9  1  0
 11 10  2  0
 13 12  1  6
 13 14  1  0
 14  7  1  0
 15 13  1  0
 16 15  2  0
 18 19  1  0
 18 17  1  0
 19 21  1  0
 19 20  1  1
 21 22  1  6
 21 23  1  0
 22 15  1  0
 23 24  1  0
 25 23  2  0
M  END
$$$$
