LNI.pdb
     RDKit          3D

 25 24  0  0  1  0  0  0  0  0999 V2000
   24.3193  -21.4279  -10.0048 C   0  0  0  0  0  0  0  0  0  0  0  0
   25.7596  -21.2198   -9.5898 C   0  0  2  0  0  0  0  0  0  0  0  0
   25.7381  -20.2349   -8.4352 C   0  0  0  0  0  0  0  0  0  0  0  0
   26.6027  -20.6640  -10.6993 C   0  0  0  0  0  0  0  0  0  0  0  0
   26.6456  -21.5375  -11.9067 C   0  0  2  0  0  0  0  0  0  0  0  0
   27.9805  -21.9548  -12.2531 N   0  0  0  0  0  0  0  0  0  0  0  0
   26.0438  -20.8287  -13.1007 C   0  0  0  0  0  0  0  0  0  0  0  0
   26.5701  -19.7648  -13.5154 O   0  0  0  0  0  0  0  0  0  0  0  0
   24.6459  -20.6151  -18.2329 N   0  0  0  0  0  0  0  0  0  0  0  0
   23.7781  -21.2939  -17.3508 C   0  0  0  0  0  0  0  0  0  0  0  0
   22.5374  -21.3351  -17.6747 O   0  0  0  0  0  0  0  0  0  0  0  0
   24.2586  -21.9423  -16.0918 C   0  0  0  0  0  0  0  0  0  0  0  0
   24.3152  -20.9262  -14.9737 C   0  0  2  0  0  0  0  0  0  0  0  0
   24.9092  -21.3328  -13.7569 N   0  0  0  0  0  0  0  0  0  0  0  0
   23.1403  -20.0621  -14.8539 C   0  0  0  0  0  0  0  0  0  0  0  0
   22.3358  -20.3212  -13.9168 O   0  0  0  0  0  0  0  0  0  0  0  0
   21.1639  -14.3305  -14.9438 C   0  0  0  0  0  0  0  0  0  0  0  0
   20.8078  -15.7912  -15.0403 C   0  0  0  0  0  0  0  0  0  0  0  0
   21.9736  -16.6581  -15.4365 C   0  0  2  0  0  0  0  0  0  0  0  0
   22.6321  -16.1444  -16.7102 C   0  0  0  0  0  0  0  0  0  0  0  0
   21.6601  -18.1115  -15.5030 C   0  0  2  0  0  0  0  0  0  0  0  0
   22.8049  -18.9616  -15.6765 N   0  0  0  0  0  0  0  0  0  0  0  0
   20.5229  -18.4379  -16.3698 C   0  0  0  0  0  0  0  0  0  0  0  0
   19.1973  -18.1972  -16.0534 O   0  0  0  0  0  0  0  0  0  0  0  0
   20.7420  -18.9799  -17.4922 O   0  0  0  0  0  0  0  0  0  0  0  0
  2  1  1  6
  3  2  1  0
  4  2  1  0
  5  4  1  0
  5  6  1  6
  7  5  1  0
  7  8  2  0
 10 12  1  0
 10  9  1  0
 11 10  2  0
 13 12  1  1
 13 14  1  0
 14  7  1  0
 15 13  1  0
 16 15  2  0
 18 19  1  0
 18 17  1  0
 19 21  1  0
 19 20  1  6
 21 22  1  6
 21 23  1  0
 22 15  1  0
 23 24  1  0
 25 23  2  0
M  END
$$$$
