LNI.pdb
     RDKit          3D

 25 24  0  0  1  0  0  0  0  0999 V2000
   13.8095  -12.5948  -15.8192 C   0  0  0  0  0  0  0  0  0  0  0  0
   14.9425  -13.1637  -14.9932 C   0  0  2  0  0  0  0  0  0  0  0  0
   14.5273  -13.0281  -13.5396 C   0  0  0  0  0  0  0  0  0  0  0  0
   16.2347  -12.4327  -15.2093 C   0  0  0  0  0  0  0  0  0  0  0  0
   16.7424  -12.5261  -16.6080 C   0  0  2  0  0  0  0  0  0  0  0  0
   17.2720  -13.8270  -16.9296 N   0  0  0  0  0  0  0  0  0  0  0  0
   17.8252  -11.4978  -16.8532 C   0  0  0  0  0  0  0  0  0  0  0  0
   19.0284  -11.8148  -16.6723 O   0  0  0  0  0  0  0  0  0  0  0  0
   18.9441   -5.8599  -18.9177 N   0  0  0  0  0  0  0  0  0  0  0  0
   19.1202   -7.2574  -19.0082 C   0  0  0  0  0  0  0  0  0  0  0  0
   20.2869   -7.6748  -19.3407 O   0  0  0  0  0  0  0  0  0  0  0  0
   18.0141   -8.2258  -18.7343 C   0  0  0  0  0  0  0  0  0  0  0  0
   18.3775   -9.1111  -17.5639 C   0  0  2  0  0  0  0  0  0  0  0  0
   17.5164  -10.1956  -17.2786 N   0  0  0  0  0  0  0  0  0  0  0  0
   18.9355   -8.4159  -16.4034 C   0  0  0  0  0  0  0  0  0  0  0  0
   18.1392   -8.1511  -15.4608 O   0  0  0  0  0  0  0  0  0  0  0  0
   23.1388  -10.2000  -13.9250 C   0  0  0  0  0  0  0  0  0  0  0  0
   21.8581   -9.5298  -14.3498 C   0  0  0  0  0  0  0  0  0  0  0  0
   21.9784   -8.0316  -14.4427 C   0  0  2  0  0  0  0  0  0  0  0  0
   22.3703   -7.4278  -13.1005 C   0  0  0  0  0  0  0  0  0  0  0  0
   20.7958   -7.3595  -15.0467 C   0  0  2  0  0  0  0  0  0  0  0  0
   20.2765   -8.0060  -16.2197 N   0  0  0  0  0  0  0  0  0  0  0  0
   20.9315   -5.9039  -15.1639 C   0  0  0  0  0  0  0  0  0  0  0  0
   20.6367   -5.0020  -14.1564 O   0  0  0  0  0  0  0  0  0  0  0  0
   21.3448   -5.4114  -16.2540 O   0  0  0  0  0  0  0  0  0  0  0  0
  2  1  1  6
  3  2  1  0
  4  2  1  0
  5  4  1  0
  5  6  1  1
  7  5  1  0
  7  8  2  0
 10 12  1  0
 10  9  1  0
 11 10  2  0
 13 12  1  1
 13 14  1  0
 14  7  1  0
 15 13  1  0
 16 15  2  0
 18 19  1  0
 18 17  1  0
 19 21  1  0
 19 20  1  1
 21 22  1  6
 21 23  1  0
 22 15  1  0
 23 24  1  0
 25 23  2  0
M  END
$$$$
