LNI.pdb
     RDKit          3D

 25 24  0  0  1  0  0  0  0  0999 V2000
   28.5888  -21.2120  -14.6236 C   0  0  0  0  0  0  0  0  0  0  0  0
   28.0943  -20.4906  -13.3887 C   0  0  2  0  0  0  0  0  0  0  0  0
   29.1246  -20.7388  -12.3022 C   0  0  0  0  0  0  0  0  0  0  0  0
   26.7575  -20.9914  -12.9273 C   0  0  0  0  0  0  0  0  0  0  0  0
   25.6718  -20.7947  -13.9299 C   0  0  2  0  0  0  0  0  0  0  0  0
   25.5767  -19.4353  -14.3982 N   0  0  0  0  0  0  0  0  0  0  0  0
   24.3315  -21.1934  -13.3514 C   0  0  0  0  0  0  0  0  0  0  0  0
   24.1895  -22.3422  -12.8603 O   0  0  0  0  0  0  0  0  0  0  0  0
   23.0157  -20.6164  -10.3863 N   0  0  0  0  0  0  0  0  0  0  0  0
   22.0133  -19.6537  -10.6322 C   0  0  0  0  0  0  0  0  0  0  0  0
   21.7128  -18.8685   -9.6632 O   0  0  0  0  0  0  0  0  0  0  0  0
   21.3197  -19.5354  -11.9518 C   0  0  0  0  0  0  0  0  0  0  0  0
   21.9062  -20.5212  -12.9366 C   0  0  2  0  0  0  0  0  0  0  0  0
   23.2412  -20.3085  -13.3507 N   0  0  0  0  0  0  0  0  0  0  0  0
   20.9850  -20.9969  -13.9693 C   0  0  0  0  0  0  0  0  0  0  0  0
   21.3020  -20.7612  -15.1678 O   0  0  0  0  0  0  0  0  0  0  0  0
   17.7417  -25.0179  -16.8312 C   0  0  0  0  0  0  0  0  0  0  0  0
   17.6048  -23.6489  -16.2171 C   0  0  0  0  0  0  0  0  0  0  0  0
   18.6041  -23.3912  -15.1205 C   0  0  2  0  0  0  0  0  0  0  0  0
   18.3065  -24.2445  -13.8945 C   0  0  0  0  0  0  0  0  0  0  0  0
   18.7849  -21.9528  -14.7837 C   0  0  2  0  0  0  0  0  0  0  0  0
   19.7718  -21.6964  -13.7718 N   0  0  0  0  0  0  0  0  0  0  0  0
   17.5278  -21.2183  -14.6076 C   0  0  0  0  0  0  0  0  0  0  0  0
   17.1572  -20.5583  -13.4490 O   0  0  0  0  0  0  0  0  0  0  0  0
   16.7050  -21.1700  -15.5680 O   0  0  0  0  0  0  0  0  0  0  0  0
  2  1  1  6
  3  2  1  0
  4  2  1  0
  5  4  1  0
  5  6  1  1
  7  5  1  0
  7  8  2  0
 10 12  1  0
 10  9  1  0
 11 10  2  0
 13 12  1  6
 13 14  1  0
 14  7  1  0
 15 13  1  0
 16 15  2  0
 18 19  1  0
 18 17  1  0
 19 21  1  0
 19 20  1  1
 21 22  1  1
 21 23  1  0
 22 15  1  0
 23 24  1  0
 25 23  2  0
M  END
$$$$
