LNI.pdb
     RDKit          3D

 25 24  0  0  1  0  0  0  0  0999 V2000
   17.5644  -15.2641  -18.8839 C   0  0  0  0  0  0  0  0  0  0  0  0
   17.9468  -15.4303  -17.4293 C   0  0  2  0  0  0  0  0  0  0  0  0
   17.2502  -16.6871  -16.9406 C   0  0  0  0  0  0  0  0  0  0  0  0
   17.5177  -14.2664  -16.5856 C   0  0  0  0  0  0  0  0  0  0  0  0
   18.0625  -12.9604  -17.0550 C   0  0  2  0  0  0  0  0  0  0  0  0
   19.4891  -12.8510  -16.8846 N   0  0  0  0  0  0  0  0  0  0  0  0
   17.4061  -11.8122  -16.3197 C   0  0  0  0  0  0  0  0  0  0  0  0
   16.1523  -11.7721  -16.2335 O   0  0  0  0  0  0  0  0  0  0  0  0
   16.6785   -7.3914  -13.7776 N   0  0  0  0  0  0  0  0  0  0  0  0
   17.1043   -8.4611  -12.9612 C   0  0  0  0  0  0  0  0  0  0  0  0
   16.9750   -8.3107  -11.6937 O   0  0  0  0  0  0  0  0  0  0  0  0
   17.6823   -9.7203  -13.5239 C   0  0  0  0  0  0  0  0  0  0  0  0
   17.7404   -9.6358  -15.0323 C   0  0  2  0  0  0  0  0  0  0  0  0
   18.1663  -10.7889  -15.7309 N   0  0  0  0  0  0  0  0  0  0  0  0
   18.2033   -8.3558  -15.5697 C   0  0  0  0  0  0  0  0  0  0  0  0
   19.4186   -8.0679  -15.3885 O   0  0  0  0  0  0  0  0  0  0  0  0
   16.3536   -6.6576  -20.3851 C   0  0  0  0  0  0  0  0  0  0  0  0
   17.1364   -7.0164  -19.1488 C   0  0  0  0  0  0  0  0  0  0  0  0
   17.2887   -5.8641  -18.1913 C   0  0  2  0  0  0  0  0  0  0  0  0
   17.9376   -4.6662  -18.8723 C   0  0  0  0  0  0  0  0  0  0  0  0
   17.9532   -6.2194  -16.9078 C   0  0  2  0  0  0  0  0  0  0  0  0
   17.4351   -7.4002  -16.2746 N   0  0  0  0  0  0  0  0  0  0  0  0
   18.1526   -5.0819  -16.0039 C   0  0  0  0  0  0  0  0  0  0  0  0
   19.3119   -4.3297  -15.9289 O   0  0  0  0  0  0  0  0  0  0  0  0
   17.2136   -4.7438  -15.2257 O   0  0  0  0  0  0  0  0  0  0  0  0
  2  1  1  6
  3  2  1  0
  4  2  1  0
  5  4  1  0
  5  6  1  1
  7  5  1  0
  7  8  2  0
 10 12  1  0
 10  9  1  0
 11 10  2  0
 13 12  1  1
 13 14  1  0
 14  7  1  0
 15 13  1  0
 16 15  2  0
 18 19  1  0
 18 17  1  0
 19 21  1  0
 19 20  1  6
 21 22  1  1
 21 23  1  0
 22 15  1  0
 23 24  1  0
 25 23  2  0
M  END
$$$$
