LNI.pdb
     RDKit          3D

 25 24  0  0  1  0  0  0  0  0999 V2000
   19.0145  -17.0311  -17.1253 C   0  0  0  0  0  0  0  0  0  0  0  0
   19.7418  -16.5806  -18.3735 C   0  0  2  0  0  0  0  0  0  0  0  0
   20.7902  -17.6381  -18.6675 C   0  0  0  0  0  0  0  0  0  0  0  0
   20.4147  -15.2513  -18.1984 C   0  0  0  0  0  0  0  0  0  0  0  0
   19.4778  -14.1586  -17.8098 C   0  0  2  0  0  0  0  0  0  0  0  0
   18.4593  -13.9114  -18.7987 N   0  0  0  0  0  0  0  0  0  0  0  0
   20.2315  -12.8684  -17.5704 C   0  0  0  0  0  0  0  0  0  0  0  0
   21.2412  -12.8746  -16.8211 O   0  0  0  0  0  0  0  0  0  0  0  0
   22.0240   -8.6327  -20.6343 N   0  0  0  0  0  0  0  0  0  0  0  0
   21.3831   -8.6146  -19.3769 C   0  0  0  0  0  0  0  0  0  0  0  0
   21.9363   -7.9162  -18.4538 O   0  0  0  0  0  0  0  0  0  0  0  0
   20.1182   -9.3660  -19.1091 C   0  0  0  0  0  0  0  0  0  0  0  0
   20.3296  -10.3534  -17.9838 C   0  0  2  0  0  0  0  0  0  0  0  0
   19.8283  -11.6626  -18.1666 N   0  0  0  0  0  0  0  0  0  0  0  0
   20.1987   -9.8016  -16.6348 C   0  0  0  0  0  0  0  0  0  0  0  0
   19.0914   -9.9730  -16.0542 O   0  0  0  0  0  0  0  0  0  0  0  0
   21.9577  -10.1051  -11.0992 C   0  0  0  0  0  0  0  0  0  0  0  0
   21.3686   -9.1512  -12.1056 C   0  0  0  0  0  0  0  0  0  0  0  0
   21.6267   -9.5631  -13.5308 C   0  0  2  0  0  0  0  0  0  0  0  0
   23.1072   -9.8332  -13.7650 C   0  0  0  0  0  0  0  0  0  0  0  0
   21.0470   -8.6436  -14.5476 C   0  0  2  0  0  0  0  0  0  0  0  0
   21.1819   -9.0938  -15.9050 N   0  0  0  0  0  0  0  0  0  0  0  0
   21.3858   -7.2322  -14.3381 C   0  0  0  0  0  0  0  0  0  0  0  0
   20.9135   -6.4556  -13.2944 O   0  0  0  0  0  0  0  0  0  0  0  0
   22.1627   -6.6590  -15.1564 O   0  0  0  0  0  0  0  0  0  0  0  0
  2  1  1  1
  3  2  1  0
  4  2  1  0
  5  4  1  0
  5  6  1  6
  7  5  1  0
  7  8  2  0
 10 12  1  0
 10  9  1  0
 11 10  2  0
 13 12  1  6
 13 14  1  0
 14  7  1  0
 15 13  1  0
 16 15  2  0
 18 19  1  0
 18 17  1  0
 19 21  1  0
 19 20  1  6
 21 22  1  6
 21 23  1  0
 22 15  1  0
 23 24  1  0
 25 23  2  0
M  END
$$$$
