LNI.pdb
     RDKit          3D

 25 24  0  0  1  0  0  0  0  0999 V2000
   28.4392  -17.5900  -16.5566 C   0  0  0  0  0  0  0  0  0  0  0  0
   27.2022  -16.7753  -16.2470 C   0  0  2  0  0  0  0  0  0  0  0  0
   27.6631  -15.3394  -16.0746 C   0  0  0  0  0  0  0  0  0  0  0  0
   26.5144  -17.2286  -14.9932 C   0  0  0  0  0  0  0  0  0  0  0  0
   26.3055  -18.7034  -14.9310 C   0  0  2  0  0  0  0  0  0  0  0  0
   25.6448  -19.2287  -16.0988 N   0  0  0  0  0  0  0  0  0  0  0  0
   25.4877  -19.0765  -13.7136 C   0  0  0  0  0  0  0  0  0  0  0  0
   24.6522  -18.2552  -13.2572 O   0  0  0  0  0  0  0  0  0  0  0  0
   22.3247  -19.9112  -12.4872 N   0  0  0  0  0  0  0  0  0  0  0  0
   22.5217  -21.3038  -12.6049 C   0  0  0  0  0  0  0  0  0  0  0  0
   21.4902  -22.0142  -12.8829 O   0  0  0  0  0  0  0  0  0  0  0  0
   23.8601  -21.9444  -12.4186 C   0  0  0  0  0  0  0  0  0  0  0  0
   24.8858  -20.9014  -12.0363 C   0  0  2  0  0  0  0  0  0  0  0  0
   25.6411  -20.3208  -13.0810 N   0  0  0  0  0  0  0  0  0  0  0  0
   25.6112  -21.1640  -10.7929 C   0  0  0  0  0  0  0  0  0  0  0  0
   26.2003  -22.2762  -10.7010 O   0  0  0  0  0  0  0  0  0  0  0  0
   29.0579  -20.3087   -8.2545 C   0  0  0  0  0  0  0  0  0  0  0  0
   28.0058  -19.2371   -8.1339 C   0  0  0  0  0  0  0  0  0  0  0  0
   26.7302  -19.7305   -7.5039 C   0  0  2  0  0  0  0  0  0  0  0  0
   26.9727  -20.2173   -6.0812 C   0  0  0  0  0  0  0  0  0  0  0  0
   25.9856  -20.7223   -8.3267 C   0  0  2  0  0  0  0  0  0  0  0  0
   25.7266  -20.3037   -9.6762 N   0  0  0  0  0  0  0  0  0  0  0  0
   24.8338  -21.3203   -7.6435 C   0  0  0  0  0  0  0  0  0  0  0  0
   24.9187  -22.2832   -6.6531 O   0  0  0  0  0  0  0  0  0  0  0  0
   23.6678  -20.9475   -7.9645 O   0  0  0  0  0  0  0  0  0  0  0  0
  2  1  1  1
  3  2  1  0
  4  2  1  0
  5  4  1  0
  5  6  1  6
  7  5  1  0
  7  8  2  0
 10 12  1  0
 10  9  1  0
 11 10  2  0
 13 12  1  6
 13 14  1  0
 14  7  1  0
 15 13  1  0
 16 15  2  0
 18 19  1  0
 18 17  1  0
 19 21  1  0
 19 20  1  1
 21 22  1  6
 21 23  1  0
 22 15  1  0
 23 24  1  0
 25 23  2  0
M  END
$$$$
