CIH.pdb
     RDKit          3D

 25 25  0  0  1  0  0  0  0  0999 V2000
    9.8168  -15.8596   13.7774 N   0  0  0  0  0  0  0  0  0  0  0  0
    8.9844  -16.2048   14.8840 C   0  0  1  0  0  0  0  0  0  0  0  0
    8.8070  -17.7063   14.9697 C   0  0  0  0  0  0  0  0  0  0  0  0
    7.7208  -18.3209   13.6605 S   0  0  0  0  0  0  0  0  0  0  0  0
    9.5241  -15.7310   16.1849 C   0  0  0  0  0  0  0  0  0  0  0  0
   10.7667  -15.6245   16.3436 O   0  0  0  0  0  0  0  0  0  0  0  0
    7.9183  -11.8564   20.5658 C   0  0  0  0  0  0  0  0  0  0  0  0
    8.9199  -12.9509   20.1917 C   0  0  0  0  0  0  0  0  0  0  0  0
    8.3244  -13.7297   19.0718 C   0  0  2  0  0  0  0  0  0  0  0  0
    7.0224  -14.3309   19.5037 C   0  0  0  0  0  0  0  0  0  0  0  0
    9.2160  -14.7870   18.5026 C   0  0  2  0  0  0  0  0  0  0  0  0
    8.7111  -15.3788   17.2972 N   0  0  0  0  0  0  0  0  0  0  0  0
    9.6310  -15.8105   19.5025 C   0  0  0  0  0  0  0  0  0  0  0  0
    8.8746  -16.7932   19.6951 O   0  0  0  0  0  0  0  0  0  0  0  0
   10.8392  -15.7124   20.2360 N   0  0  0  0  0  0  0  0  0  0  0  0
   11.2918  -16.7495   21.1832 C   0  0  1  0  0  0  0  0  0  0  0  0
   12.7373  -17.0337   21.0128 C   0  0  0  0  0  0  0  0  0  0  0  0
   13.0176  -17.9317   19.8789 C   0  0  0  0  0  0  0  0  0  0  0  0
   12.1900  -18.5561   18.9755 C   0  0  0  0  0  0  0  0  0  0  0  0
   12.9196  -19.2311   18.0472 N   0  0  0  0  0  0  0  0  0  0  0  0
   14.1880  -19.0223   18.3759 C   0  0  0  0  0  0  0  0  0  0  0  0
   14.2898  -18.2522   19.4619 N   0  0  0  0  0  0  0  0  0  0  0  0
   11.0050  -16.1952   22.5699 C   0  0  0  0  0  0  0  0  0  0  0  0
   10.8233  -14.9383   22.7193 O   0  0  0  0  0  0  0  0  0  0  0  0
   10.9232  -16.9329   23.7095 O   0  0  0  0  0  0  0  0  0  0  0  0
  2  3  1  0
  2  1  1  6
  3  4  1  0
  5  2  1  0
  6  5  2  0
  7  8  1  0
  8  9  1  0
  9 11  1  0
  9 10  1  1
 11 12  1  6
 12  5  1  0
 13 11  1  0
 13 15  1  0
 14 13  2  0
 16 15  1  0
 16 23  1  0
 16 17  1  1
 18 17  1  0
 18 19  2  0
 20 19  1  0
 21 22  2  0
 21 20  1  0
 22 18  1  0
 23 25  1  0
 24 23  2  0
M  END
$$$$
