CIH.pdb
     RDKit          3D

 25 25  0  0  1  0  0  0  0  0999 V2000
    9.2376  -15.5043   20.1572 N   0  0  0  0  0  0  0  0  0  0  0  0
    8.2976  -15.7295   21.2071 C   0  0  1  0  0  0  0  0  0  0  0  0
    7.9880  -17.2061   21.3379 C   0  0  0  0  0  0  0  0  0  0  0  0
    7.7923  -17.9879   19.7187 S   0  0  0  0  0  0  0  0  0  0  0  0
    8.7755  -15.2417   22.5269 C   0  0  0  0  0  0  0  0  0  0  0  0
   10.0091  -15.1861   22.7625 O   0  0  0  0  0  0  0  0  0  0  0  0
    6.9390  -11.7584   27.2484 C   0  0  0  0  0  0  0  0  0  0  0  0
    7.9778  -12.7703   26.7605 C   0  0  0  0  0  0  0  0  0  0  0  0
    7.4865  -13.3177   25.4666 C   0  0  2  0  0  0  0  0  0  0  0  0
    6.0974  -13.8523   25.6328 C   0  0  0  0  0  0  0  0  0  0  0  0
    8.3685  -14.3581   24.8532 C   0  0  2  0  0  0  0  0  0  0  0  0
    7.9110  -14.8204   23.5744 N   0  0  0  0  0  0  0  0  0  0  0  0
    8.6874  -15.4818   25.7781 C   0  0  0  0  0  0  0  0  0  0  0  0
    7.7856  -16.3175   26.0299 O   0  0  0  0  0  0  0  0  0  0  0  0
    9.9620  -15.6367   26.3770 N   0  0  0  0  0  0  0  0  0  0  0  0
   10.3263  -16.8043   27.2027 C   0  0  1  0  0  0  0  0  0  0  0  0
   11.6961  -17.2759   26.8854 C   0  0  0  0  0  0  0  0  0  0  0  0
   11.7737  -17.9980   25.6035 C   0  0  0  0  0  0  0  0  0  0  0  0
   10.8136  -18.3290   24.6763 C   0  0  0  0  0  0  0  0  0  0  0  0
   11.3798  -18.9356   23.5987 N   0  0  0  0  0  0  0  0  0  0  0  0
   12.6801  -18.9763   23.8601 C   0  0  0  0  0  0  0  0  0  0  0  0
   12.9565  -18.4272   25.0454 N   0  0  0  0  0  0  0  0  0  0  0  0
   10.2322  -16.3344   28.6459 C   0  0  0  0  0  0  0  0  0  0  0  0
   10.1996  -15.0812   28.8981 O   0  0  0  0  0  0  0  0  0  0  0  0
   10.1809  -17.1471   29.7351 O   0  0  0  0  0  0  0  0  0  0  0  0
  2  3  1  0
  2  1  1  6
  3  4  1  0
  5  2  1  0
  6  5  2  0
  7  8  1  0
  8  9  1  0
  9 11  1  0
  9 10  1  1
 11 12  1  6
 12  5  1  0
 13 11  1  0
 13 15  1  0
 14 13  2  0
 16 15  1  0
 16 23  1  0
 16 17  1  6
 18 17  1  0
 18 19  2  0
 20 19  1  0
 21 22  2  0
 21 20  1  0
 22 18  1  0
 23 25  1  0
 24 23  2  0
M  END
$$$$
