CIH.pdb
     RDKit          3D

 25 25  0  0  1  0  0  0  0  0999 V2000
    8.4633  -15.0312   20.2793 N   0  0  0  0  0  0  0  0  0  0  0  0
    7.5905  -15.3122   21.3729 C   0  0  1  0  0  0  0  0  0  0  0  0
    7.1669  -16.7661   21.3569 C   0  0  0  0  0  0  0  0  0  0  0  0
    5.9841  -17.0969   20.0292 S   0  0  0  0  0  0  0  0  0  0  0  0
    8.2078  -15.0282   22.6944 C   0  0  0  0  0  0  0  0  0  0  0  0
    9.4467  -15.1751   22.8492 O   0  0  0  0  0  0  0  0  0  0  0  0
    5.7949  -11.6731   26.4425 C   0  0  0  0  0  0  0  0  0  0  0  0
    6.8833  -12.2555   25.5384 C   0  0  0  0  0  0  0  0  0  0  0  0
    7.2173  -13.6070   26.0647 C   0  0  2  0  0  0  0  0  0  0  0  0
    7.8960  -13.4840   27.3940 C   0  0  0  0  0  0  0  0  0  0  0  0
    8.0392  -14.4507   25.1431 C   0  0  2  0  0  0  0  0  0  0  0  0
    7.4752  -14.5886   23.8312 N   0  0  0  0  0  0  0  0  0  0  0  0
    8.4258  -15.7637   25.7317 C   0  0  0  0  0  0  0  0  0  0  0  0
    7.5306  -16.6280   25.8943 O   0  0  0  0  0  0  0  0  0  0  0  0
    9.7572  -16.0659   26.1103 N   0  0  0  0  0  0  0  0  0  0  0  0
   10.1809  -17.4057   26.5614 C   0  0  1  0  0  0  0  0  0  0  0  0
   11.3737  -17.8687   25.8116 C   0  0  0  0  0  0  0  0  0  0  0  0
   11.8884  -19.1632   26.2911 C   0  0  0  0  0  0  0  0  0  0  0  0
   11.3891  -20.0725   27.1938 C   0  0  0  0  0  0  0  0  0  0  0  0
   12.1866  -21.1725   27.2539 N   0  0  0  0  0  0  0  0  0  0  0  0
   13.1695  -20.9427   26.3926 C   0  0  0  0  0  0  0  0  0  0  0  0
   13.0284  -19.7559   25.7973 N   0  0  0  0  0  0  0  0  0  0  0  0
   10.4900  -17.2634   28.0434 C   0  0  0  0  0  0  0  0  0  0  0  0
   10.7411  -16.1057   28.5250 O   0  0  0  0  0  0  0  0  0  0  0  0
   10.5302  -18.2857   28.9393 O   0  0  0  0  0  0  0  0  0  0  0  0
  2  3  1  0
  2  1  1  6
  3  4  1  0
  5  2  1  0
  6  5  2  0
  7  8  1  0
  8  9  1  0
  9 11  1  0
  9 10  1  1
 11 12  1  6
 12  5  1  0
 13 11  1  0
 13 15  1  0
 14 13  2  0
 16 15  1  0
 16 23  1  0
 16 17  1  6
 18 17  1  0
 18 19  2  0
 20 19  1  0
 21 22  2  0
 21 20  1  0
 22 18  1  0
 23 25  1  0
 24 23  2  0
M  END
$$$$
