CIH.pdb
     RDKit          3D

 25 25  0  0  1  0  0  0  0  0999 V2000
    7.3552  -14.5444   20.4440 N   0  0  0  0  0  0  0  0  0  0  0  0
    6.8064  -15.0900   21.6431 C   0  0  1  0  0  0  0  0  0  0  0  0
    6.6328  -16.5891   21.5161 C   0  0  0  0  0  0  0  0  0  0  0  0
    5.9580  -17.3086   23.0321 S   0  0  0  0  0  0  0  0  0  0  0  0
    7.6483  -14.8247   22.8385 C   0  0  0  0  0  0  0  0  0  0  0  0
    8.8988  -14.7706   22.7217 O   0  0  0  0  0  0  0  0  0  0  0  0
    5.7194  -11.7118   26.7926 C   0  0  0  0  0  0  0  0  0  0  0  0
    6.7711  -12.2181   25.8033 C   0  0  0  0  0  0  0  0  0  0  0  0
    7.2827  -13.5135   26.3280 C   0  0  2  0  0  0  0  0  0  0  0  0
    8.2201  -13.2675   27.4698 C   0  0  0  0  0  0  0  0  0  0  0  0
    7.9356  -14.3877   25.3051 C   0  0  2  0  0  0  0  0  0  0  0  0
    7.1248  -14.6216   24.1450 N   0  0  0  0  0  0  0  0  0  0  0  0
    8.4861  -15.6506   25.8725 C   0  0  0  0  0  0  0  0  0  0  0  0
    7.6787  -16.5076   26.3071 O   0  0  0  0  0  0  0  0  0  0  0  0
    9.8767  -15.9136   25.9373 N   0  0  0  0  0  0  0  0  0  0  0  0
   10.4324  -17.1852   26.4395 C   0  0  1  0  0  0  0  0  0  0  0  0
   11.7690  -17.4513   25.8548 C   0  0  0  0  0  0  0  0  0  0  0  0
   11.7361  -17.6054   24.3899 C   0  0  0  0  0  0  0  0  0  0  0  0
   10.7166  -17.9193   23.5221 C   0  0  0  0  0  0  0  0  0  0  0  0
   11.1525  -17.8672   22.2349 N   0  0  0  0  0  0  0  0  0  0  0  0
   12.4314  -17.5217   22.3096 C   0  0  0  0  0  0  0  0  0  0  0  0
   12.8184  -17.3557   23.5767 N   0  0  0  0  0  0  0  0  0  0  0  0
   10.5192  -17.0295   27.9497 C   0  0  0  0  0  0  0  0  0  0  0  0
   10.8975  -18.0210   28.6632 O   0  0  0  0  0  0  0  0  0  0  0  0
   10.2192  -15.8977   28.6414 O   0  0  0  0  0  0  0  0  0  0  0  0
  2  3  1  0
  2  1  1  6
  3  4  1  0
  5  2  1  0
  6  5  2  0
  7  8  1  0
  8  9  1  0
  9 11  1  0
  9 10  1  1
 11 12  1  6
 12  5  1  0
 13 11  1  0
 13 15  1  0
 14 13  2  0
 16 15  1  0
 16 23  1  0
 16 17  1  6
 18 17  1  0
 18 19  2  0
 20 19  1  0
 21 22  2  0
 21 20  1  0
 22 18  1  0
 23 25  1  0
 24 23  2  0
M  END
$$$$
