CIH.pdb
     RDKit          3D

 25 25  0  0  1  0  0  0  0  0999 V2000
   10.2786  -17.6887   16.7149 N   0  0  0  0  0  0  0  0  0  0  0  0
    9.2965  -17.8381   17.7396 C   0  0  1  0  0  0  0  0  0  0  0  0
    9.2299  -19.2766   18.2085 C   0  0  0  0  0  0  0  0  0  0  0  0
    8.0276  -19.4830   19.5439 S   0  0  0  0  0  0  0  0  0  0  0  0
    9.5601  -16.9806   18.9242 C   0  0  0  0  0  0  0  0  0  0  0  0
   10.7384  -16.8300   19.3359 O   0  0  0  0  0  0  0  0  0  0  0  0
    6.8434  -12.3207   19.9917 C   0  0  0  0  0  0  0  0  0  0  0  0
    7.9431  -13.3628   19.7780 C   0  0  0  0  0  0  0  0  0  0  0  0
    7.8819  -14.3101   20.9244 C   0  0  2  0  0  0  0  0  0  0  0  0
    8.1462  -13.5797   22.2050 C   0  0  0  0  0  0  0  0  0  0  0  0
    8.7918  -15.4912   20.8082 C   0  0  2  0  0  0  0  0  0  0  0  0
    8.5442  -16.2973   19.6475 N   0  0  0  0  0  0  0  0  0  0  0  0
    8.8659  -16.3045   22.0543 C   0  0  0  0  0  0  0  0  0  0  0  0
    7.8679  -16.9959   22.3721 O   0  0  0  0  0  0  0  0  0  0  0  0
   10.0139  -16.3230   22.8843 N   0  0  0  0  0  0  0  0  0  0  0  0
   10.0908  -17.1046   24.1337 C   0  0  1  0  0  0  0  0  0  0  0  0
    9.9015  -18.5517   23.8704 C   0  0  0  0  0  0  0  0  0  0  0  0
   10.8990  -19.1022   22.9363 C   0  0  0  0  0  0  0  0  0  0  0  0
   11.9914  -18.5370   22.3213 C   0  0  0  0  0  0  0  0  0  0  0  0
   12.6678  -19.4696   21.5985 N   0  0  0  0  0  0  0  0  0  0  0  0
   11.9972  -20.6018   21.7687 C   0  0  0  0  0  0  0  0  0  0  0  0
   10.9362  -20.4258   22.5600 N   0  0  0  0  0  0  0  0  0  0  0  0
   11.4724  -16.8310   24.7071 C   0  0  0  0  0  0  0  0  0  0  0  0
   12.2848  -16.0845   24.0607 O   0  0  0  0  0  0  0  0  0  0  0  0
   11.9471  -17.3240   25.8823 O   0  0  0  0  0  0  0  0  0  0  0  0
  2  3  1  0
  2  1  1  6
  3  4  1  0
  5  2  1  0
  6  5  2  0
  7  8  1  0
  8  9  1  0
  9 11  1  0
  9 10  1  1
 11 12  1  6
 12  5  1  0
 13 11  1  0
 13 15  1  0
 14 13  2  0
 16 15  1  0
 16 23  1  0
 16 17  1  6
 18 17  1  0
 18 19  2  0
 20 19  1  0
 21 22  2  0
 21 20  1  0
 22 18  1  0
 23 25  1  0
 24 23  2  0
M  END
$$$$
