CIH.pdb
     RDKit          3D

 25 25  0  0  1  0  0  0  0  0999 V2000
    8.2073  -15.0929   20.4281 N   0  0  0  0  0  0  0  0  0  0  0  0
    7.5422  -15.5720   21.5963 C   0  0  1  0  0  0  0  0  0  0  0  0
    7.4783  -17.0851   21.5907 C   0  0  0  0  0  0  0  0  0  0  0  0
    5.8782  -17.6783   20.9915 S   0  0  0  0  0  0  0  0  0  0  0  0
    8.2045  -15.1449   22.8562 C   0  0  0  0  0  0  0  0  0  0  0  0
    9.4593  -15.0957   22.9161 O   0  0  0  0  0  0  0  0  0  0  0  0
    5.9506  -11.6237   26.4370 C   0  0  0  0  0  0  0  0  0  0  0  0
    6.9531  -12.3149   25.5106 C   0  0  0  0  0  0  0  0  0  0  0  0
    7.3648  -13.5823   26.1734 C   0  0  2  0  0  0  0  0  0  0  0  0
    8.1487  -13.2790   27.4130 C   0  0  0  0  0  0  0  0  0  0  0  0
    8.1287  -14.5251   25.2991 C   0  0  2  0  0  0  0  0  0  0  0  0
    7.4992  -14.7767   24.0347 N   0  0  0  0  0  0  0  0  0  0  0  0
    8.5253  -15.7830   25.9919 C   0  0  0  0  0  0  0  0  0  0  0  0
    7.6194  -16.5739   26.3511 O   0  0  0  0  0  0  0  0  0  0  0  0
    9.8775  -16.1129   26.2564 N   0  0  0  0  0  0  0  0  0  0  0  0
   10.2858  -17.3734   26.9063 C   0  0  1  0  0  0  0  0  0  0  0  0
   11.5421  -17.8955   26.3160 C   0  0  0  0  0  0  0  0  0  0  0  0
   11.3966  -18.2818   24.9017 C   0  0  0  0  0  0  0  0  0  0  0  0
   10.3238  -18.7585   24.1856 C   0  0  0  0  0  0  0  0  0  0  0  0
   10.6509  -18.8997   22.8730 N   0  0  0  0  0  0  0  0  0  0  0  0
   11.9163  -18.5107   22.7814 C   0  0  0  0  0  0  0  0  0  0  0  0
   12.3977  -18.1342   23.9685 N   0  0  0  0  0  0  0  0  0  0  0  0
   10.4732  -17.0371   28.3774 C   0  0  0  0  0  0  0  0  0  0  0  0
   10.7538  -17.9707   29.2049 O   0  0  0  0  0  0  0  0  0  0  0  0
   10.3639  -15.7946   28.9194 O   0  0  0  0  0  0  0  0  0  0  0  0
  2  3  1  0
  2  1  1  6
  3  4  1  0
  5  2  1  0
  6  5  2  0
  7  8  1  0
  8  9  1  0
  9 11  1  0
  9 10  1  1
 11 12  1  6
 12  5  1  0
 13 11  1  0
 13 15  1  0
 14 13  2  0
 16 15  1  0
 16 23  1  0
 16 17  1  6
 18 17  1  0
 18 19  2  0
 20 19  1  0
 21 22  2  0
 21 20  1  0
 22 18  1  0
 23 25  1  0
 24 23  2  0
M  END
$$$$
