CIH.pdb
     RDKit          3D

 25 25  0  0  1  0  0  0  0  0999 V2000
    8.4331  -15.1425   20.7395 N   0  0  0  0  0  0  0  0  0  0  0  0
    7.6298  -15.3597   21.8989 C   0  0  1  0  0  0  0  0  0  0  0  0
    7.3535  -16.8368   22.0869 C   0  0  0  0  0  0  0  0  0  0  0  0
    8.8621  -17.7456   22.4991 S   0  0  0  0  0  0  0  0  0  0  0  0
    8.2591  -14.8480   23.1439 C   0  0  0  0  0  0  0  0  0  0  0  0
    9.4908  -14.5971   23.1631 O   0  0  0  0  0  0  0  0  0  0  0  0
    5.3899  -11.8347   26.7339 C   0  0  0  0  0  0  0  0  0  0  0  0
    6.4936  -12.2940   25.7790 C   0  0  0  0  0  0  0  0  0  0  0  0
    7.2339  -13.3931   26.4565 C   0  0  2  0  0  0  0  0  0  0  0  0
    7.9826  -12.8532   27.6359 C   0  0  0  0  0  0  0  0  0  0  0  0
    8.1584  -14.1638   25.5687 C   0  0  2  0  0  0  0  0  0  0  0  0
    7.5462  -14.6145   24.3520 N   0  0  0  0  0  0  0  0  0  0  0  0
    8.8804  -15.2583   26.2760 C   0  0  0  0  0  0  0  0  0  0  0  0
    8.2326  -16.2823   26.6031 O   0  0  0  0  0  0  0  0  0  0  0  0
   10.2602  -15.1825   26.5887 N   0  0  0  0  0  0  0  0  0  0  0  0
   11.0134  -16.3042   27.1822 C   0  0  1  0  0  0  0  0  0  0  0  0
   12.4565  -16.2114   26.8531 C   0  0  0  0  0  0  0  0  0  0  0  0
   12.7267  -16.3334   25.4099 C   0  0  0  0  0  0  0  0  0  0  0  0
   11.9024  -16.5904   24.3397 C   0  0  0  0  0  0  0  0  0  0  0  0
   12.6001  -16.5277   23.1739 N   0  0  0  0  0  0  0  0  0  0  0  0
   13.8454  -16.2323   23.5240 C   0  0  0  0  0  0  0  0  0  0  0  0
   13.9630  -16.1077   24.8482 N   0  0  0  0  0  0  0  0  0  0  0  0
   10.7889  -16.2037   28.6828 C   0  0  0  0  0  0  0  0  0  0  0  0
   10.4370  -15.0848   29.1923 O   0  0  0  0  0  0  0  0  0  0  0  0
   10.9347  -17.2247   29.5692 O   0  0  0  0  0  0  0  0  0  0  0  0
  2  3  1  0
  2  1  1  6
  3  4  1  0
  5  2  1  0
  6  5  2  0
  7  8  1  0
  8  9  1  0
  9 11  1  0
  9 10  1  1
 11 12  1  6
 12  5  1  0
 13 11  1  0
 13 15  1  0
 14 13  2  0
 16 15  1  0
 16 23  1  0
 16 17  1  1
 18 17  1  0
 18 19  2  0
 20 19  1  0
 21 22  2  0
 21 20  1  0
 22 18  1  0
 23 25  1  0
 24 23  2  0
M  END
$$$$
