CIH.pdb
     RDKit          3D

 25 25  0  0  1  0  0  0  0  0999 V2000
    7.6487  -14.6719   20.2062 N   0  0  0  0  0  0  0  0  0  0  0  0
    7.0065  -15.1483   21.3882 C   0  0  1  0  0  0  0  0  0  0  0  0
    6.7553  -16.6388   21.2945 C   0  0  0  0  0  0  0  0  0  0  0  0
    5.9655  -17.2729   22.7931 S   0  0  0  0  0  0  0  0  0  0  0  0
    7.7968  -14.8923   22.6202 C   0  0  0  0  0  0  0  0  0  0  0  0
    9.0519  -14.9514   22.5802 O   0  0  0  0  0  0  0  0  0  0  0  0
    6.0256  -11.4479   26.4999 C   0  0  0  0  0  0  0  0  0  0  0  0
    6.9255  -12.1387   25.4734 C   0  0  0  0  0  0  0  0  0  0  0  0
    7.3346  -13.4464   26.0545 C   0  0  2  0  0  0  0  0  0  0  0  0
    8.2382  -13.2235   27.2279 C   0  0  0  0  0  0  0  0  0  0  0  0
    7.9734  -14.3887   25.0846 C   0  0  2  0  0  0  0  0  0  0  0  0
    7.2174  -14.5754   23.8797 N   0  0  0  0  0  0  0  0  0  0  0  0
    8.3821  -15.6824   25.7002 C   0  0  0  0  0  0  0  0  0  0  0  0
    7.4817  -16.4787   26.0613 O   0  0  0  0  0  0  0  0  0  0  0  0
    9.7398  -16.0402   25.8898 N   0  0  0  0  0  0  0  0  0  0  0  0
   10.1586  -17.3380   26.4538 C   0  0  1  0  0  0  0  0  0  0  0  0
   11.5160  -17.7099   25.9864 C   0  0  0  0  0  0  0  0  0  0  0  0
   11.5607  -18.0376   24.5507 C   0  0  0  0  0  0  0  0  0  0  0  0
   10.5732  -18.1271   23.5979 C   0  0  0  0  0  0  0  0  0  0  0  0
   11.1112  -18.3847   22.3756 N   0  0  0  0  0  0  0  0  0  0  0  0
   12.4214  -18.4516   22.5743 C   0  0  0  0  0  0  0  0  0  0  0  0
   12.7309  -18.2499   23.8575 N   0  0  0  0  0  0  0  0  0  0  0  0
   10.1318  -17.1596   27.9637 C   0  0  0  0  0  0  0  0  0  0  0  0
   10.1554  -15.9804   28.4579 O   0  0  0  0  0  0  0  0  0  0  0  0
   10.0869  -18.1693   28.8735 O   0  0  0  0  0  0  0  0  0  0  0  0
  2  3  1  0
  2  1  1  6
  3  4  1  0
  5  2  1  0
  6  5  2  0
  7  8  1  0
  8  9  1  0
  9 11  1  0
  9 10  1  1
 11 12  1  6
 12  5  1  0
 13 11  1  0
 13 15  1  0
 14 13  2  0
 16 15  1  0
 16 23  1  0
 16 17  1  6
 18 17  1  0
 18 19  2  0
 20 19  1  0
 21 22  2  0
 21 20  1  0
 22 18  1  0
 23 25  1  0
 24 23  2  0
M  END
$$$$
