CIH.pdb
     RDKit          3D

 25 25  0  0  1  0  0  0  0  0999 V2000
    8.2856  -14.7332   19.7225 N   0  0  0  0  0  0  0  0  0  0  0  0
    7.4818  -15.0779   20.8502 C   0  0  1  0  0  0  0  0  0  0  0  0
    7.1659  -16.5591   20.8470 C   0  0  0  0  0  0  0  0  0  0  0  0
    6.0654  -16.9987   19.4806 S   0  0  0  0  0  0  0  0  0  0  0  0
    8.1306  -14.7495   22.1461 C   0  0  0  0  0  0  0  0  0  0  0  0
    9.3824  -14.8027   22.2486 O   0  0  0  0  0  0  0  0  0  0  0  0
    7.1049  -11.7042   27.3904 C   0  0  0  0  0  0  0  0  0  0  0  0
    7.9812  -12.7448   26.6902 C   0  0  0  0  0  0  0  0  0  0  0  0
    7.3030  -13.1070   25.4158 C   0  0  2  0  0  0  0  0  0  0  0  0
    5.9102  -13.5812   25.6955 C   0  0  0  0  0  0  0  0  0  0  0  0
    8.0322  -14.1136   24.5841 C   0  0  2  0  0  0  0  0  0  0  0  0
    7.4150  -14.3675   23.3142 N   0  0  0  0  0  0  0  0  0  0  0  0
    8.3471  -15.3705   25.3195 C   0  0  0  0  0  0  0  0  0  0  0  0
    7.4253  -16.2047   25.4912 O   0  0  0  0  0  0  0  0  0  0  0  0
    9.6396  -15.6525   25.8267 N   0  0  0  0  0  0  0  0  0  0  0  0
    9.9933  -16.9391   26.4571 C   0  0  1  0  0  0  0  0  0  0  0  0
   11.3424  -17.3873   26.0346 C   0  0  0  0  0  0  0  0  0  0  0  0
   11.3768  -17.8804   24.6467 C   0  0  0  0  0  0  0  0  0  0  0  0
   10.3985  -17.9898   23.6865 C   0  0  0  0  0  0  0  0  0  0  0  0
   10.9275  -18.4332   22.5146 N   0  0  0  0  0  0  0  0  0  0  0  0
   12.2232  -18.5940   22.7513 C   0  0  0  0  0  0  0  0  0  0  0  0
   12.5320  -18.2749   24.0106 N   0  0  0  0  0  0  0  0  0  0  0  0
    9.9461  -16.6906   27.9565 C   0  0  0  0  0  0  0  0  0  0  0  0
    9.9560  -15.4895   28.3953 O   0  0  0  0  0  0  0  0  0  0  0  0
    9.8959  -17.6571   28.9120 O   0  0  0  0  0  0  0  0  0  0  0  0
  2  3  1  0
  2  1  1  6
  3  4  1  0
  5  2  1  0
  6  5  2  0
  7  8  1  0
  8  9  1  0
  9 11  1  0
  9 10  1  1
 11 12  1  6
 12  5  1  0
 13 11  1  0
 13 15  1  0
 14 13  2  0
 16 15  1  0
 16 23  1  0
 16 17  1  6
 18 17  1  0
 18 19  2  0
 20 19  1  0
 21 22  2  0
 21 20  1  0
 22 18  1  0
 23 25  1  0
 24 23  2  0
M  END
$$$$
