CIH.pdb
     RDKit          3D

 25 25  0  0  1  0  0  0  0  0999 V2000
    7.8845  -15.1464   20.4604 N   0  0  0  0  0  0  0  0  0  0  0  0
    7.1561  -15.5329   21.6251 C   0  0  1  0  0  0  0  0  0  0  0  0
    6.8335  -17.0121   21.5858 C   0  0  0  0  0  0  0  0  0  0  0  0
    5.8695  -17.5185   23.0299 S   0  0  0  0  0  0  0  0  0  0  0  0
    7.8916  -15.2566   22.8865 C   0  0  0  0  0  0  0  0  0  0  0  0
    9.1409  -15.3915   22.9229 O   0  0  0  0  0  0  0  0  0  0  0  0
    5.7402  -11.7742   26.5343 C   0  0  0  0  0  0  0  0  0  0  0  0
    6.7966  -12.3837   25.6105 C   0  0  0  0  0  0  0  0  0  0  0  0
    7.2539  -13.6525   26.2399 C   0  0  2  0  0  0  0  0  0  0  0  0
    8.1087  -13.3519   27.4324 C   0  0  0  0  0  0  0  0  0  0  0  0
    7.9692  -14.5860   25.3159 C   0  0  2  0  0  0  0  0  0  0  0  0
    7.2643  -14.8378   24.0920 N   0  0  0  0  0  0  0  0  0  0  0  0
    8.4176  -15.8433   25.9775 C   0  0  0  0  0  0  0  0  0  0  0  0
    7.5429  -16.6617   26.3518 O   0  0  0  0  0  0  0  0  0  0  0  0
    9.7850  -16.1428   26.1962 N   0  0  0  0  0  0  0  0  0  0  0  0
   10.2446  -17.4077   26.8018 C   0  0  1  0  0  0  0  0  0  0  0  0
   11.5602  -17.8155   26.2520 C   0  0  0  0  0  0  0  0  0  0  0  0
   11.4848  -18.2611   24.8497 C   0  0  0  0  0  0  0  0  0  0  0  0
   10.4192  -18.4434   24.0000 C   0  0  0  0  0  0  0  0  0  0  0  0
   10.8524  -18.7944   22.7595 N   0  0  0  0  0  0  0  0  0  0  0  0
   12.1762  -18.8263   22.8445 C   0  0  0  0  0  0  0  0  0  0  0  0
   12.5934  -18.5141   24.0739 N   0  0  0  0  0  0  0  0  0  0  0  0
   10.3375  -17.1398   28.2958 C   0  0  0  0  0  0  0  0  0  0  0  0
   10.3276  -15.9335   28.7201 O   0  0  0  0  0  0  0  0  0  0  0  0
   10.4372  -18.0933   29.2603 O   0  0  0  0  0  0  0  0  0  0  0  0
  2  3  1  0
  2  1  1  6
  3  4  1  0
  5  2  1  0
  6  5  2  0
  7  8  1  0
  8  9  1  0
  9 11  1  0
  9 10  1  1
 11 12  1  6
 12  5  1  0
 13 11  1  0
 13 15  1  0
 14 13  2  0
 16 15  1  0
 16 23  1  0
 16 17  1  6
 18 17  1  0
 18 19  2  0
 20 19  1  0
 21 22  2  0
 21 20  1  0
 22 18  1  0
 23 25  1  0
 24 23  2  0
M  END
$$$$
