CIH.pdb
     RDKit          3D

 25 25  0  0  1  0  0  0  0  0999 V2000
    7.7596  -14.9832   20.3417 N   0  0  0  0  0  0  0  0  0  0  0  0
    7.1465  -15.4028   21.5602 C   0  0  1  0  0  0  0  0  0  0  0  0
    6.9383  -16.9028   21.5632 C   0  0  0  0  0  0  0  0  0  0  0  0
    5.5114  -17.3714   22.5711 S   0  0  0  0  0  0  0  0  0  0  0  0
    7.9443  -15.0473   22.7624 C   0  0  0  0  0  0  0  0  0  0  0  0
    9.1977  -15.1393   22.7294 O   0  0  0  0  0  0  0  0  0  0  0  0
    6.1423  -11.2774   26.2526 C   0  0  0  0  0  0  0  0  0  0  0  0
    7.0734  -12.0448   25.3116 C   0  0  0  0  0  0  0  0  0  0  0  0
    7.5285  -13.2619   26.0372 C   0  0  2  0  0  0  0  0  0  0  0  0
    8.4823  -12.8800   27.1270 C   0  0  0  0  0  0  0  0  0  0  0  0
    8.1355  -14.3170   25.1682 C   0  0  2  0  0  0  0  0  0  0  0  0
    7.3742  -14.5970   23.9848 N   0  0  0  0  0  0  0  0  0  0  0  0
    8.4997  -15.5561   25.9109 C   0  0  0  0  0  0  0  0  0  0  0  0
    7.5748  -16.3175   26.2850 O   0  0  0  0  0  0  0  0  0  0  0  0
    9.8420  -15.9002   26.2060 N   0  0  0  0  0  0  0  0  0  0  0  0
   10.2300  -17.1992   26.7891 C   0  0  1  0  0  0  0  0  0  0  0  0
   11.6101  -17.5708   26.3934 C   0  0  0  0  0  0  0  0  0  0  0  0
   11.7490  -17.8110   24.9464 C   0  0  0  0  0  0  0  0  0  0  0  0
   10.8493  -18.2292   23.9943 C   0  0  0  0  0  0  0  0  0  0  0  0
   11.4238  -18.2282   22.7616 N   0  0  0  0  0  0  0  0  0  0  0  0
   12.6686  -17.8106   22.9533 C   0  0  0  0  0  0  0  0  0  0  0  0
   12.9027  -17.5508   24.2419 N   0  0  0  0  0  0  0  0  0  0  0  0
   10.1236  -17.0233   28.2958 C   0  0  0  0  0  0  0  0  0  0  0  0
    9.9630  -15.8516   28.7822 O   0  0  0  0  0  0  0  0  0  0  0  0
   10.1883  -18.0275   29.2105 O   0  0  0  0  0  0  0  0  0  0  0  0
  2  3  1  0
  2  1  1  6
  3  4  1  0
  5  2  1  0
  6  5  2  0
  7  8  1  0
  8  9  1  0
  9 11  1  0
  9 10  1  1
 11 12  1  6
 12  5  1  0
 13 11  1  0
 13 15  1  0
 14 13  2  0
 16 15  1  0
 16 23  1  0
 16 17  1  1
 18 17  1  0
 18 19  2  0
 20 19  1  0
 21 22  2  0
 21 20  1  0
 22 18  1  0
 23 25  1  0
 24 23  2  0
M  END
$$$$
