TAA.pdb
     RDKit          3D

 18 17  0  0  1  0  0  0  0  0999 V2000
   16.3071   -8.3993  -15.8624 C   0  0  0  0  0  0  0  0  0  0  0  0
   16.5226   -9.7976  -15.3895 C   0  0  1  0  0  0  0  0  0  0  0  0
   15.3674  -10.5273  -15.7610 O   0  0  0  0  0  0  0  0  0  0  0  0
   17.6780  -10.5113  -16.0509 C   0  0  2  0  0  0  0  0  0  0  0  0
   17.6982  -11.8551  -15.4492 N   0  0  0  0  0  0  0  0  0  0  0  0
   18.9877   -9.8981  -15.7939 C   0  0  0  0  0  0  0  0  0  0  0  0
   19.4529   -9.8091  -14.6054 O   0  0  0  0  0  0  0  0  0  0  0  0
   21.8489   -8.5373  -17.7952 C   0  0  0  0  0  0  0  0  0  0  0  0
   21.0950   -8.7009  -16.4931 C   0  0  2  0  0  0  0  0  0  0  0  0
   19.8451   -9.3598  -16.7946 N   0  0  0  0  0  0  0  0  0  0  0  0
   20.8847   -7.3983  -15.8106 C   0  0  0  0  0  0  0  0  0  0  0  0
   19.8886   -6.7263  -16.1551 O   0  0  0  0  0  0  0  0  0  0  0  0
   22.2453   -5.6248  -12.7609 C   0  0  0  0  0  0  0  0  0  0  0  0
   21.4824   -5.6992  -14.0482 C   0  0  2  0  0  0  0  0  0  0  0  0
   21.7351   -6.8875  -14.8109 N   0  0  0  0  0  0  0  0  0  0  0  0
   21.6384   -4.4626  -14.8589 C   0  0  0  0  0  0  0  0  0  0  0  0
   21.0122   -3.3171  -14.3952 O   0  0  0  0  0  0  0  0  0  0  0  0
   22.2948   -4.4178  -15.9139 O   0  0  0  0  0  0  0  0  0  0  0  0
  2  1  1  6
  3  2  1  0
  4  6  1  0
  4  5  1  1
  4  2  1  0
  6  7  2  0
  9  8  1  6
  9 11  1  0
 10  9  1  0
 10  6  1  0
 11 15  1  0
 11 12  2  0
 14 13  1  1
 14 16  1  0
 15 14  1  0
 16 18  2  0
 16 17  1  0
M  END
$$$$
