TAA.pdb
     RDKit          3D

 18 17  0  0  1  0  0  0  0  0999 V2000
   25.6039  -21.2113  -20.7134 C   0  0  0  0  0  0  0  0  0  0  0  0
   26.0095  -19.7885  -20.5234 C   0  0  1  0  0  0  0  0  0  0  0  0
   24.9097  -19.0005  -20.9409 O   0  0  0  0  0  0  0  0  0  0  0  0
   26.2621  -19.3958  -19.0868 C   0  0  2  0  0  0  0  0  0  0  0  0
   26.6230  -17.9689  -19.1334 N   0  0  0  0  0  0  0  0  0  0  0  0
   27.3818  -20.1090  -18.4583 C   0  0  0  0  0  0  0  0  0  0  0  0
   28.5677  -20.0222  -18.9303 O   0  0  0  0  0  0  0  0  0  0  0  0
   28.2228  -21.7058  -15.2554 C   0  0  0  0  0  0  0  0  0  0  0  0
   28.3886  -21.6785  -16.7595 C   0  0  2  0  0  0  0  0  0  0  0  0
   27.2750  -20.9379  -17.3060 N   0  0  0  0  0  0  0  0  0  0  0  0
   28.4773  -23.0475  -17.3292 C   0  0  0  0  0  0  0  0  0  0  0  0
   27.4020  -23.6373  -17.5707 O   0  0  0  0  0  0  0  0  0  0  0  0
   31.0700  -25.2144  -18.9790 C   0  0  0  0  0  0  0  0  0  0  0  0
   29.7987  -25.0018  -18.2152 C   0  0  2  0  0  0  0  0  0  0  0  0
   29.6903  -23.7069  -17.6076 N   0  0  0  0  0  0  0  0  0  0  0  0
   29.5392  -26.1030  -17.2505 C   0  0  0  0  0  0  0  0  0  0  0  0
   29.4618  -25.7658  -15.9090 O   0  0  0  0  0  0  0  0  0  0  0  0
   29.3920  -27.2890  -17.5937 O   0  0  0  0  0  0  0  0  0  0  0  0
  2  1  1  1
  3  2  1  0
  4  6  1  0
  4  5  1  6
  4  2  1  0
  6  7  2  0
  9  8  1  1
  9 11  1  0
 10  9  1  0
 10  6  1  0
 11 15  1  0
 11 12  2  0
 14 13  1  1
 14 16  1  0
 15 14  1  0
 16 18  2  0
 16 17  1  0
M  END
$$$$
