TAA.pdb
     RDKit          3D

 18 17  0  0  1  0  0  0  0  0999 V2000
   16.8368  -10.0459  -14.2813 C   0  0  0  0  0  0  0  0  0  0  0  0
   17.7830  -11.1233  -14.6923 C   0  0  1  0  0  0  0  0  0  0  0  0
   17.0415  -12.3295  -14.6869 O   0  0  0  0  0  0  0  0  0  0  0  0
   18.3154  -10.9859  -16.0993 C   0  0  2  0  0  0  0  0  0  0  0  0
   19.1565  -12.1757  -16.3125 N   0  0  0  0  0  0  0  0  0  0  0  0
   19.1666   -9.8068  -16.3057 C   0  0  0  0  0  0  0  0  0  0  0  0
   20.3379   -9.7409  -15.7953 O   0  0  0  0  0  0  0  0  0  0  0  0
   19.0628   -6.6361  -18.2999 C   0  0  0  0  0  0  0  0  0  0  0  0
   19.6462   -7.4979  -17.2009 C   0  0  2  0  0  0  0  0  0  0  0  0
   18.7980   -8.6593  -17.0630 N   0  0  0  0  0  0  0  0  0  0  0  0
   19.7749   -6.7502  -15.9238 C   0  0  0  0  0  0  0  0  0  0  0  0
   18.7647   -6.6943  -15.1895 O   0  0  0  0  0  0  0  0  0  0  0  0
   22.5596   -5.2526  -13.8434 C   0  0  0  0  0  0  0  0  0  0  0  0
   21.1285   -5.4578  -14.2363 C   0  0  2  0  0  0  0  0  0  0  0  0
   20.9565   -6.1103  -15.5021 N   0  0  0  0  0  0  0  0  0  0  0  0
   20.3389   -4.2019  -14.1353 C   0  0  0  0  0  0  0  0  0  0  0  0
   19.8572   -3.6590  -15.3153 O   0  0  0  0  0  0  0  0  0  0  0  0
   20.0996   -3.6325  -13.0562 O   0  0  0  0  0  0  0  0  0  0  0  0
  2  1  1  6
  3  2  1  0
  4  6  1  0
  4  5  1  1
  4  2  1  0
  6  7  2  0
  9  8  1  6
  9 11  1  0
 10  9  1  0
 10  6  1  0
 11 15  1  0
 11 12  2  0
 14 13  1  6
 14 16  1  0
 15 14  1  0
 16 18  2  0
 16 17  1  0
M  END
$$$$
