TAA.pdb
     RDKit          3D

 18 17  0  0  1  0  0  0  0  0999 V2000
   16.0064   -8.7841  -14.9939 C   0  0  0  0  0  0  0  0  0  0  0  0
   15.8855   -9.1740  -13.5592 C   0  0  1  0  0  0  0  0  0  0  0  0
   15.0269  -10.2992  -13.5221 O   0  0  0  0  0  0  0  0  0  0  0  0
   17.1768   -9.6334  -12.9241 C   0  0  2  0  0  0  0  0  0  0  0  0
   16.8293   -9.9545  -11.5296 N   0  0  0  0  0  0  0  0  0  0  0  0
   18.2257   -8.6058  -12.8873 C   0  0  0  0  0  0  0  0  0  0  0  0
   18.0391   -7.4939  -12.2826 O   0  0  0  0  0  0  0  0  0  0  0  0
   21.7711   -8.2163  -14.0477 C   0  0  0  0  0  0  0  0  0  0  0  0
   20.4586   -7.6433  -13.5581 C   0  0  2  0  0  0  0  0  0  0  0  0
   19.5078   -8.7291  -13.4930 N   0  0  0  0  0  0  0  0  0  0  0  0
   19.9805   -6.5388  -14.4288 C   0  0  0  0  0  0  0  0  0  0  0  0
   19.3733   -6.8566  -15.4743 O   0  0  0  0  0  0  0  0  0  0  0  0
   19.3614   -2.8498  -14.2030 C   0  0  0  0  0  0  0  0  0  0  0  0
   19.7101   -4.0915  -14.9654 C   0  0  2  0  0  0  0  0  0  0  0  0
   20.1716   -5.1729  -14.1437 N   0  0  0  0  0  0  0  0  0  0  0  0
   20.6311   -3.8082  -16.0978 C   0  0  0  0  0  0  0  0  0  0  0  0
   21.8739   -4.4198  -16.0726 O   0  0  0  0  0  0  0  0  0  0  0  0
   20.3354   -3.0600  -17.0457 O   0  0  0  0  0  0  0  0  0  0  0  0
  2  1  1  6
  3  2  1  0
  4  6  1  0
  4  5  1  1
  4  2  1  0
  6  7  2  0
  9  8  1  6
  9 11  1  0
 10  9  1  0
 10  6  1  0
 11 15  1  0
 11 12  2  0
 14 13  1  1
 14 16  1  0
 15 14  1  0
 16 18  2  0
 16 17  1  0
M  END
$$$$
