TAA.pdb
     RDKit          3D

 18 17  0  0  1  0  0  0  0  0999 V2000
   15.8999  -11.6027  -15.8503 C   0  0  0  0  0  0  0  0  0  0  0  0
   17.0548  -10.7067  -15.5529 C   0  0  1  0  0  0  0  0  0  0  0  0
   17.4245  -10.9639  -14.2105 O   0  0  0  0  0  0  0  0  0  0  0  0
   18.2929  -10.9885  -16.3711 C   0  0  2  0  0  0  0  0  0  0  0  0
   18.7846  -12.2915  -15.8926 N   0  0  0  0  0  0  0  0  0  0  0  0
   19.3753  -10.0149  -16.1755 C   0  0  0  0  0  0  0  0  0  0  0  0
   20.0411   -9.9788  -15.0836 O   0  0  0  0  0  0  0  0  0  0  0  0
   21.2916   -7.6121  -18.3023 C   0  0  0  0  0  0  0  0  0  0  0  0
   20.9228   -8.1791  -16.9484 C   0  0  2  0  0  0  0  0  0  0  0  0
   19.7841   -9.0480  -17.1368 N   0  0  0  0  0  0  0  0  0  0  0  0
   20.6445   -7.1066  -15.9590 C   0  0  0  0  0  0  0  0  0  0  0  0
   19.4686   -6.6892  -15.8835 O   0  0  0  0  0  0  0  0  0  0  0  0
   22.4429   -5.4439  -13.0714 C   0  0  0  0  0  0  0  0  0  0  0  0
   21.3584   -5.5648  -14.0980 C   0  0  2  0  0  0  0  0  0  0  0  0
   21.6200   -6.5432  -15.1138 N   0  0  0  0  0  0  0  0  0  0  0  0
   20.9831   -4.2438  -14.6680 C   0  0  0  0  0  0  0  0  0  0  0  0
   20.3892   -3.3298  -13.8129 O   0  0  0  0  0  0  0  0  0  0  0  0
   21.1774   -3.9344  -15.8565 O   0  0  0  0  0  0  0  0  0  0  0  0
  2  1  1  6
  3  2  1  0
  4  6  1  0
  4  5  1  1
  4  2  1  0
  6  7  2  0
  9  8  1  6
  9 11  1  0
 10  9  1  0
 10  6  1  0
 11 15  1  0
 11 12  2  0
 14 13  1  6
 14 16  1  0
 15 14  1  0
 16 18  2  0
 16 17  1  0
M  END
$$$$
