TAA.pdb
     RDKit          3D

 18 17  0  0  1  0  0  0  0  0999 V2000
   14.6154   -9.7660  -16.1807 C   0  0  0  0  0  0  0  0  0  0  0  0
   15.9383   -9.1670  -15.8394 C   0  0  1  0  0  0  0  0  0  0  0  0
   15.9401   -8.9760  -14.4364 O   0  0  0  0  0  0  0  0  0  0  0  0
   17.1225  -10.0606  -16.1242 C   0  0  2  0  0  0  0  0  0  0  0  0
   16.9391  -11.2348  -15.2548 N   0  0  0  0  0  0  0  0  0  0  0  0
   18.4202   -9.4631  -15.7830 C   0  0  0  0  0  0  0  0  0  0  0  0
   18.8666   -9.4949  -14.5844 O   0  0  0  0  0  0  0  0  0  0  0  0
   21.3086   -7.9225  -17.6057 C   0  0  0  0  0  0  0  0  0  0  0  0
   20.5572   -8.2401  -16.3309 C   0  0  2  0  0  0  0  0  0  0  0  0
   19.2851   -8.8123  -16.7074 N   0  0  0  0  0  0  0  0  0  0  0  0
   20.3927   -7.0379  -15.4740 C   0  0  0  0  0  0  0  0  0  0  0  0
   19.3788   -6.3325  -15.6667 O   0  0  0  0  0  0  0  0  0  0  0  0
   21.9673   -5.4614  -12.4237 C   0  0  0  0  0  0  0  0  0  0  0  0
   21.2476   -5.4245  -13.7371 C   0  0  2  0  0  0  0  0  0  0  0  0
   21.3045   -6.6558  -14.4708 N   0  0  0  0  0  0  0  0  0  0  0  0
   21.6543   -4.2555  -14.5611 C   0  0  0  0  0  0  0  0  0  0  0  0
   22.2702   -4.5181  -15.7739 O   0  0  0  0  0  0  0  0  0  0  0  0
   21.4670   -3.0772  -14.2114 O   0  0  0  0  0  0  0  0  0  0  0  0
  2  1  1  1
  3  2  1  0
  4  6  1  0
  4  5  1  1
  4  2  1  0
  6  7  2  0
  9  8  1  6
  9 11  1  0
 10  9  1  0
 10  6  1  0
 11 15  1  0
 11 12  2  0
 14 13  1  1
 14 16  1  0
 15 14  1  0
 16 18  2  0
 16 17  1  0
M  END
$$$$
