TAA.pdb
     RDKit          3D

 18 17  0  0  1  0  0  0  0  0999 V2000
   16.2429   -6.6067   -9.8952 C   0  0  0  0  0  0  0  0  0  0  0  0
   15.8846   -8.0542   -9.9324 C   0  0  1  0  0  0  0  0  0  0  0  0
   14.6396   -8.1747   -9.2690 O   0  0  0  0  0  0  0  0  0  0  0  0
   15.6553   -8.6071  -11.3194 C   0  0  2  0  0  0  0  0  0  0  0  0
   15.5397  -10.0642  -11.1408 N   0  0  0  0  0  0  0  0  0  0  0  0
   16.7654   -8.3682  -12.2511 C   0  0  0  0  0  0  0  0  0  0  0  0
   17.8904   -8.9591  -12.1026 O   0  0  0  0  0  0  0  0  0  0  0  0
   17.3340   -6.7214  -15.5430 C   0  0  0  0  0  0  0  0  0  0  0  0
   17.8563   -7.2135  -14.2105 C   0  0  2  0  0  0  0  0  0  0  0  0
   16.7134   -7.4922  -13.3718 N   0  0  0  0  0  0  0  0  0  0  0  0
   18.7783   -6.2320  -13.5834 C   0  0  0  0  0  0  0  0  0  0  0  0
   18.2634   -5.3100  -12.9145 O   0  0  0  0  0  0  0  0  0  0  0  0
   22.5097   -5.8270  -13.0486 C   0  0  0  0  0  0  0  0  0  0  0  0
   21.0890   -5.3536  -13.0938 C   0  0  2  0  0  0  0  0  0  0  0  0
   20.1809   -6.2837  -13.7004 N   0  0  0  0  0  0  0  0  0  0  0  0
   20.9757   -3.9903  -13.6763 C   0  0  0  0  0  0  0  0  0  0  0  0
   21.3511   -2.9249  -12.8744 O   0  0  0  0  0  0  0  0  0  0  0  0
   20.5659   -3.7743  -14.8301 O   0  0  0  0  0  0  0  0  0  0  0  0
  2  1  1  6
  3  2  1  0
  4  6  1  0
  4  5  1  1
  4  2  1  0
  6  7  2  0
  9  8  1  6
  9 11  1  0
 10  9  1  0
 10  6  1  0
 11 15  1  0
 11 12  2  0
 14 13  1  6
 14 16  1  0
 15 14  1  0
 16 18  2  0
 16 17  1  0
M  END
$$$$
