TTK.pdb
     RDKit          3D

 24 23  0  0  1  0  0  0  0  0999 V2000
   11.8282   -8.5316  -10.6853 C   0  0  0  0  0  0  0  0  0  0  0  0
   12.6571   -9.0547   -9.5478 C   0  0  1  0  0  0  0  0  0  0  0  0
   12.0664  -10.1753   -8.9678 O   0  0  0  0  0  0  0  0  0  0  0  0
   13.9881   -9.5230  -10.1244 C   0  0  2  0  0  0  0  0  0  0  0  0
   14.6732  -10.2424   -9.0736 N   0  0  0  0  0  0  0  0  0  0  0  0
   14.7906   -8.3670  -10.6134 C   0  0  0  0  0  0  0  0  0  0  0  0
   14.3760   -7.5975  -11.5170 O   0  0  0  0  0  0  0  0  0  0  0  0
   15.8041   -5.3443   -9.1568 C   0  0  0  0  0  0  0  0  0  0  0  0
   17.1537   -5.9276   -9.5276 C   0  0  1  0  0  0  0  0  0  0  0  0
   17.7574   -6.4209   -8.3906 O   0  0  0  0  0  0  0  0  0  0  0  0
   16.9057   -6.9828  -10.5765 C   0  0  2  0  0  0  0  0  0  0  0  0
   16.0859   -8.0645  -10.0799 N   0  0  0  0  0  0  0  0  0  0  0  0
   18.1501   -7.4550  -11.2253 C   0  0  0  0  0  0  0  0  0  0  0  0
   18.4022   -8.6794  -11.1419 O   0  0  0  0  0  0  0  0  0  0  0  0
   19.0507   -6.6160  -11.9196 N   0  0  0  0  0  0  0  0  0  0  0  0
   20.1045   -7.1099  -12.8303 C   0  0  1  0  0  0  0  0  0  0  0  0
   19.6147   -8.0553  -13.8119 C   0  0  0  0  0  0  0  0  0  0  0  0
   20.5109   -8.5629  -14.8718 C   0  0  0  0  0  0  0  0  0  0  0  0
   20.0284   -9.5906  -15.8187 C   0  0  0  0  0  0  0  0  0  0  0  0
   20.8473  -10.1077  -16.9159 C   0  0  0  0  0  0  0  0  0  0  0  0
   20.2436  -11.0359  -17.8207 N   0  0  0  0  0  0  0  0  0  0  0  0
   20.7414   -5.8813  -13.4551 C   0  0  0  0  0  0  0  0  0  0  0  0
   22.1051   -5.7679  -13.6507 O   0  0  0  0  0  0  0  0  0  0  0  0
   20.0212   -4.9487  -13.8048 O   0  0  0  0  0  0  0  0  0  0  0  0
  2  3  1  0
  2  1  1  6
  4  2  1  0
  4  5  1  1
  6  7  2  0
  6  4  1  0
  9  8  1  1
  9 10  1  0
  9 11  1  0
 11 12  1  1
 12  6  1  0
 13 11  1  0
 13 15  1  0
 14 13  2  0
 16 15  1  0
 16 22  1  0
 16 17  1  6
 17 18  1  0
 19 18  1  0
 20 19  1  0
 20 21  1  0
 22 23  1  0
 24 22  2  0
M  END
$$$$
