TTK.pdb
     RDKit          3D

 24 23  0  0  1  0  0  0  0  0999 V2000
   23.1606  -13.5651  -18.6263 C   0  0  0  0  0  0  0  0  0  0  0  0
   21.9211  -12.7615  -18.3575 C   0  0  1  0  0  0  0  0  0  0  0  0
   21.3469  -13.1139  -17.1380 O   0  0  0  0  0  0  0  0  0  0  0  0
   22.3376  -11.3010  -18.2278 C   0  0  2  0  0  0  0  0  0  0  0  0
   23.2905  -11.2289  -17.1425 N   0  0  0  0  0  0  0  0  0  0  0  0
   21.1536  -10.4317  -17.9790 C   0  0  0  0  0  0  0  0  0  0  0  0
   20.2286  -10.3018  -18.8206 O   0  0  0  0  0  0  0  0  0  0  0  0
   18.6231  -10.8152  -15.4972 C   0  0  0  0  0  0  0  0  0  0  0  0
   19.1259   -9.4146  -15.2056 C   0  0  1  0  0  0  0  0  0  0  0  0
   19.9562   -9.4556  -14.1058 O   0  0  0  0  0  0  0  0  0  0  0  0
   19.8147   -8.9237  -16.4545 C   0  0  2  0  0  0  0  0  0  0  0  0
   21.0003   -9.6908  -16.7618 N   0  0  0  0  0  0  0  0  0  0  0  0
   20.0613   -7.4637  -16.4413 C   0  0  0  0  0  0  0  0  0  0  0  0
   21.1954   -7.0849  -16.0670 O   0  0  0  0  0  0  0  0  0  0  0  0
   19.1058   -6.4941  -16.8204 N   0  0  0  0  0  0  0  0  0  0  0  0
   19.3485   -5.0368  -16.7831 C   0  0  1  0  0  0  0  0  0  0  0  0
   18.7926   -4.3354  -17.9216 C   0  0  0  0  0  0  0  0  0  0  0  0
   18.8589   -2.8609  -17.9953 C   0  0  0  0  0  0  0  0  0  0  0  0
   18.1785   -2.1441  -19.0947 C   0  0  0  0  0  0  0  0  0  0  0  0
   18.2339   -0.6898  -19.2499 C   0  0  0  0  0  0  0  0  0  0  0  0
   17.3413   -0.0832  -20.1880 N   0  0  0  0  0  0  0  0  0  0  0  0
   18.7991   -4.5446  -15.4560 C   0  0  0  0  0  0  0  0  0  0  0  0
   19.2851   -3.4167  -14.8215 O   0  0  0  0  0  0  0  0  0  0  0  0
   17.8847   -5.1679  -14.9210 O   0  0  0  0  0  0  0  0  0  0  0  0
  2  3  1  0
  2  1  1  1
  4  2  1  0
  4  5  1  1
  6  7  2  0
  6  4  1  0
  9  8  1  6
  9 10  1  0
  9 11  1  0
 11 12  1  1
 12  6  1  0
 13 11  1  0
 13 15  1  0
 14 13  2  0
 16 15  1  0
 16 22  1  0
 16 17  1  6
 17 18  1  0
 19 18  1  0
 20 19  1  0
 20 21  1  0
 22 23  1  0
 24 22  2  0
M  END
$$$$
