TTK.pdb
     RDKit          3D

 24 23  0  0  1  0  0  0  0  0999 V2000
   26.2036  -21.7094   -9.7604 C   0  0  0  0  0  0  0  0  0  0  0  0
   25.4104  -22.0016  -11.0013 C   0  0  1  0  0  0  0  0  0  0  0  0
   24.0444  -21.8491  -10.7735 O   0  0  0  0  0  0  0  0  0  0  0  0
   25.7887  -20.9588  -12.0465 C   0  0  2  0  0  0  0  0  0  0  0  0
   25.4939  -19.6632  -11.4756 N   0  0  0  0  0  0  0  0  0  0  0  0
   25.0410  -21.1838  -13.3154 C   0  0  0  0  0  0  0  0  0  0  0  0
   25.5456  -21.7951  -14.2913 O   0  0  0  0  0  0  0  0  0  0  0  0
   22.5660  -23.2117  -14.4411 C   0  0  0  0  0  0  0  0  0  0  0  0
   21.8952  -21.8740  -14.6862 C   0  0  1  0  0  0  0  0  0  0  0  0
   20.9798  -21.6401  -13.6823 O   0  0  0  0  0  0  0  0  0  0  0  0
   22.9884  -20.8367  -14.7497 C   0  0  2  0  0  0  0  0  0  0  0  0
   23.6990  -20.7149  -13.4970 N   0  0  0  0  0  0  0  0  0  0  0  0
   22.5180  -19.5341  -15.2734 C   0  0  0  0  0  0  0  0  0  0  0  0
   22.3325  -18.6211  -14.4356 O   0  0  0  0  0  0  0  0  0  0  0  0
   22.2719  -19.2704  -16.6397 N   0  0  0  0  0  0  0  0  0  0  0  0
   21.8534  -17.9537  -17.1643 C   0  0  1  0  0  0  0  0  0  0  0  0
   22.4004  -17.6595  -18.4725 C   0  0  0  0  0  0  0  0  0  0  0  0
   22.0743  -16.3867  -19.1491 C   0  0  0  0  0  0  0  0  0  0  0  0
   22.5695  -16.1289  -20.5180 C   0  0  0  0  0  0  0  0  0  0  0  0
   22.4008  -14.8425  -21.1954 C   0  0  0  0  0  0  0  0  0  0  0  0
   22.8792  -14.7262  -22.5379 N   0  0  0  0  0  0  0  0  0  0  0  0
   20.3353  -17.9452  -17.1395 C   0  0  0  0  0  0  0  0  0  0  0  0
   19.5881  -19.0866  -16.9161 O   0  0  0  0  0  0  0  0  0  0  0  0
   19.7417  -16.8846  -17.3225 O   0  0  0  0  0  0  0  0  0  0  0  0
  2  3  1  0
  2  1  1  1
  4  2  1  0
  4  5  1  1
  6  7  2  0
  6  4  1  0
  9  8  1  1
  9 10  1  0
  9 11  1  0
 11 12  1  1
 12  6  1  0
 13 11  1  0
 13 15  1  0
 14 13  2  0
 16 15  1  0
 16 22  1  0
 16 17  1  6
 17 18  1  0
 19 18  1  0
 20 19  1  0
 20 21  1  0
 22 23  1  0
 24 22  2  0
M  END
$$$$
