TTK.pdb
     RDKit          3D

 24 23  0  0  1  0  0  0  0  0999 V2000
   23.2864   -9.9787  -14.3497 C   0  0  0  0  0  0  0  0  0  0  0  0
   21.9902   -9.3167  -13.9804 C   0  0  1  0  0  0  0  0  0  0  0  0
   22.1327   -7.9324  -13.9132 O   0  0  0  0  0  0  0  0  0  0  0  0
   20.9966   -9.5902  -15.1035 C   0  0  2  0  0  0  0  0  0  0  0  0
   21.5266   -8.9679  -16.2964 N   0  0  0  0  0  0  0  0  0  0  0  0
   19.6476   -9.0599  -14.7592 C   0  0  0  0  0  0  0  0  0  0  0  0
   19.1565   -8.0542  -15.3319 O   0  0  0  0  0  0  0  0  0  0  0  0
   15.0987   -9.5419  -13.4720 C   0  0  0  0  0  0  0  0  0  0  0  0
   16.4327  -10.1826  -13.8027 C   0  0  1  0  0  0  0  0  0  0  0  0
   16.4497  -10.5199  -15.1393 O   0  0  0  0  0  0  0  0  0  0  0  0
   17.5047   -9.1912  -13.4244 C   0  0  2  0  0  0  0  0  0  0  0  0
   18.8293   -9.6677  -13.7518 N   0  0  0  0  0  0  0  0  0  0  0  0
   17.3908   -8.7249  -12.0237 C   0  0  0  0  0  0  0  0  0  0  0  0
   18.0551   -9.3487  -11.1639 O   0  0  0  0  0  0  0  0  0  0  0  0
   16.5894   -7.6360  -11.6126 N   0  0  0  0  0  0  0  0  0  0  0  0
   16.4842   -7.1697  -10.2142 C   0  0  1  0  0  0  0  0  0  0  0  0
   15.5991   -6.0345  -10.0552 C   0  0  0  0  0  0  0  0  0  0  0  0
   15.2867   -5.5144   -8.7077 C   0  0  0  0  0  0  0  0  0  0  0  0
   14.3738   -4.3619   -8.5532 C   0  0  0  0  0  0  0  0  0  0  0  0
   14.0370   -3.7832   -7.2517 C   0  0  0  0  0  0  0  0  0  0  0  0
   13.0662   -2.7340   -7.2178 N   0  0  0  0  0  0  0  0  0  0  0  0
   16.0599   -8.3735   -9.3918 C   0  0  0  0  0  0  0  0  0  0  0  0
   15.1403   -9.2996   -9.8475 O   0  0  0  0  0  0  0  0  0  0  0  0
   16.5515   -8.5377   -8.2773 O   0  0  0  0  0  0  0  0  0  0  0  0
  2  3  1  0
  2  1  1  6
  4  2  1  0
  4  5  1  6
  6  7  2  0
  6  4  1  0
  9  8  1  6
  9 10  1  0
  9 11  1  0
 11 12  1  1
 12  6  1  0
 13 11  1  0
 13 15  1  0
 14 13  2  0
 16 15  1  0
 16 22  1  0
 16 17  1  6
 17 18  1  0
 19 18  1  0
 20 19  1  0
 20 21  1  0
 22 23  1  0
 24 22  2  0
M  END
$$$$
