TTK.pdb
     RDKit          3D

 24 23  0  0  1  0  0  0  0  0999 V2000
   31.7540  -13.0163  -17.9478 C   0  0  0  0  0  0  0  0  0  0  0  0
   31.8425  -11.5849  -17.5033 C   0  0  1  0  0  0  0  0  0  0  0  0
   32.9549  -10.9537  -18.0559 O   0  0  0  0  0  0  0  0  0  0  0  0
   30.6211  -10.8558  -18.0509 C   0  0  2  0  0  0  0  0  0  0  0  0
   30.7228  -10.8870  -19.4931 N   0  0  0  0  0  0  0  0  0  0  0  0
   30.5604   -9.4599  -17.5337 C   0  0  0  0  0  0  0  0  0  0  0  0
   30.4651   -9.2033  -16.3067 O   0  0  0  0  0  0  0  0  0  0  0  0
   32.1344   -5.2977  -16.8491 C   0  0  0  0  0  0  0  0  0  0  0  0
   31.9402   -6.7896  -17.0387 C   0  0  1  0  0  0  0  0  0  0  0  0
   31.8001   -7.3848  -15.8032 O   0  0  0  0  0  0  0  0  0  0  0  0
   30.7343   -6.9687  -17.9269 C   0  0  2  0  0  0  0  0  0  0  0  0
   30.6072   -8.3255  -18.4083 N   0  0  0  0  0  0  0  0  0  0  0  0
   30.6628   -5.9640  -19.0121 C   0  0  0  0  0  0  0  0  0  0  0  0
   31.6856   -5.8243  -19.7221 O   0  0  0  0  0  0  0  0  0  0  0  0
   29.5260   -5.1701  -19.2849 N   0  0  0  0  0  0  0  0  0  0  0  0
   29.3263   -4.4177  -20.5411 C   0  0  1  0  0  0  0  0  0  0  0  0
   27.9309   -4.1983  -20.8604 C   0  0  0  0  0  0  0  0  0  0  0  0
   27.0469   -3.5003  -19.9036 C   0  0  0  0  0  0  0  0  0  0  0  0
   25.6281   -3.2638  -20.2450 C   0  0  0  0  0  0  0  0  0  0  0  0
   24.7319   -2.4636  -19.4091 C   0  0  0  0  0  0  0  0  0  0  0  0
   23.4347   -2.1547  -19.9251 N   0  0  0  0  0  0  0  0  0  0  0  0
   30.1129   -3.1269  -20.3972 C   0  0  0  0  0  0  0  0  0  0  0  0
   30.6672   -2.7229  -19.1970 O   0  0  0  0  0  0  0  0  0  0  0  0
   30.2681   -2.4100  -21.3835 O   0  0  0  0  0  0  0  0  0  0  0  0
  2  3  1  0
  2  1  1  6
  4  2  1  0
  4  5  1  6
  6  7  2  0
  6  4  1  0
  9  8  1  1
  9 10  1  0
  9 11  1  0
 11 12  1  6
 12  6  1  0
 13 11  1  0
 13 15  1  0
 14 13  2  0
 16 15  1  0
 16 22  1  0
 16 17  1  1
 17 18  1  0
 19 18  1  0
 20 19  1  0
 20 21  1  0
 22 23  1  0
 24 22  2  0
M  END
$$$$
