TTK.pdb
     RDKit          3D

 24 23  0  0  1  0  0  0  0  0999 V2000
   23.7740  -20.4793   -9.5760 C   0  0  0  0  0  0  0  0  0  0  0  0
   25.2529  -20.3505   -9.3503 C   0  0  1  0  0  0  0  0  0  0  0  0
   25.6235  -20.8892   -8.1201 O   0  0  0  0  0  0  0  0  0  0  0  0
   25.9559  -21.1872  -10.4129 C   0  0  2  0  0  0  0  0  0  0  0  0
   27.3735  -21.1155  -10.1363 N   0  0  0  0  0  0  0  0  0  0  0  0
   25.6360  -20.6872  -11.7793 C   0  0  0  0  0  0  0  0  0  0  0  0
   26.1663  -19.6515  -12.2554 O   0  0  0  0  0  0  0  0  0  0  0  0
   26.0215  -22.0395  -15.0901 C   0  0  0  0  0  0  0  0  0  0  0  0
   24.5267  -21.7896  -15.0403 C   0  0  1  0  0  0  0  0  0  0  0  0
   23.8751  -22.9945  -14.8848 O   0  0  0  0  0  0  0  0  0  0  0  0
   24.2774  -20.8263  -13.9067 C   0  0  2  0  0  0  0  0  0  0  0  0
   24.7020  -21.3606  -12.6327 N   0  0  0  0  0  0  0  0  0  0  0  0
   22.8890  -20.3124  -13.8813 C   0  0  0  0  0  0  0  0  0  0  0  0
   22.1503  -20.7236  -12.9566 O   0  0  0  0  0  0  0  0  0  0  0  0
   22.3627  -19.4014  -14.8247 N   0  0  0  0  0  0  0  0  0  0  0  0
   20.9603  -18.9355  -14.8294 C   0  0  1  0  0  0  0  0  0  0  0  0
   20.7194  -17.8567  -15.7649 C   0  0  0  0  0  0  0  0  0  0  0  0
   19.3586  -17.3059  -15.9352 C   0  0  0  0  0  0  0  0  0  0  0  0
   19.0990  -16.2836  -16.9711 C   0  0  0  0  0  0  0  0  0  0  0  0
   17.7855  -15.6694  -17.1703 C   0  0  0  0  0  0  0  0  0  0  0  0
   17.7039  -14.5303  -18.0307 N   0  0  0  0  0  0  0  0  0  0  0  0
   20.1030  -20.1591  -15.1002 C   0  0  0  0  0  0  0  0  0  0  0  0
   18.9844  -20.4655  -14.3481 O   0  0  0  0  0  0  0  0  0  0  0  0
   20.4093  -20.9092  -16.0245 O   0  0  0  0  0  0  0  0  0  0  0  0
  2  3  1  0
  2  1  1  6
  4  2  1  0
  4  5  1  1
  6  7  2  0
  6  4  1  0
  9  8  1  1
  9 10  1  0
  9 11  1  0
 11 12  1  1
 12  6  1  0
 13 11  1  0
 13 15  1  0
 14 13  2  0
 16 15  1  0
 16 22  1  0
 16 17  1  6
 17 18  1  0
 19 18  1  0
 20 19  1  0
 20 21  1  0
 22 23  1  0
 24 22  2  0
M  END
$$$$
