TTK.pdb
     RDKit          3D

 24 23  0  0  1  0  0  0  0  0999 V2000
   23.0436  -12.3771  -14.8394 C   0  0  0  0  0  0  0  0  0  0  0  0
   23.2985  -10.8996  -14.7582 C   0  0  1  0  0  0  0  0  0  0  0  0
   24.3745  -10.5291  -15.5621 O   0  0  0  0  0  0  0  0  0  0  0  0
   22.0757  -10.1889  -15.3264 C   0  0  2  0  0  0  0  0  0  0  0  0
   21.9108  -10.6546  -16.6855 N   0  0  0  0  0  0  0  0  0  0  0  0
   22.2468   -8.7101  -15.2685 C   0  0  0  0  0  0  0  0  0  0  0  0
   22.3078   -8.0846  -14.1796 O   0  0  0  0  0  0  0  0  0  0  0  0
   24.8865   -6.6115  -16.7630 C   0  0  0  0  0  0  0  0  0  0  0  0
   23.6123   -5.9847  -17.2949 C   0  0  1  0  0  0  0  0  0  0  0  0
   23.4640   -6.3264  -18.6222 O   0  0  0  0  0  0  0  0  0  0  0  0
   22.4823   -6.4738  -16.4236 C   0  0  2  0  0  0  0  0  0  0  0  0
   22.3522   -7.9129  -16.4547 N   0  0  0  0  0  0  0  0  0  0  0  0
   21.2046   -5.7745  -16.6895 C   0  0  0  0  0  0  0  0  0  0  0  0
   20.3386   -6.4058  -17.3385 O   0  0  0  0  0  0  0  0  0  0  0  0
   20.9150   -4.4600  -16.2594 N   0  0  0  0  0  0  0  0  0  0  0  0
   19.6553   -3.7500  -16.5644 C   0  0  1  0  0  0  0  0  0  0  0  0
   18.4724   -4.5058  -16.2081 C   0  0  0  0  0  0  0  0  0  0  0  0
   17.1359   -3.8794  -16.2815 C   0  0  0  0  0  0  0  0  0  0  0  0
   15.9324   -4.6611  -15.9267 C   0  0  0  0  0  0  0  0  0  0  0  0
   14.5725   -4.1457  -16.0913 C   0  0  0  0  0  0  0  0  0  0  0  0
   13.4842   -5.0250  -15.7963 N   0  0  0  0  0  0  0  0  0  0  0  0
   19.7378   -2.4083  -15.8585 C   0  0  0  0  0  0  0  0  0  0  0  0
   20.7694   -2.0821  -14.9981 O   0  0  0  0  0  0  0  0  0  0  0  0
   18.8569   -1.5744  -16.0575 O   0  0  0  0  0  0  0  0  0  0  0  0
  2  3  1  0
  2  1  1  6
  4  2  1  0
  4  5  1  6
  6  7  2  0
  6  4  1  0
  9  8  1  1
  9 10  1  0
  9 11  1  0
 11 12  1  6
 12  6  1  0
 13 11  1  0
 13 15  1  0
 14 13  2  0
 16 15  1  0
 16 22  1  0
 16 17  1  1
 17 18  1  0
 19 18  1  0
 20 19  1  0
 20 21  1  0
 22 23  1  0
 24 22  2  0
M  END
$$$$
