TTK.pdb
     RDKit          3D

 24 23  0  0  1  0  0  0  0  0999 V2000
   20.2664  -13.6351  -17.9233 C   0  0  0  0  0  0  0  0  0  0  0  0
   20.6473  -14.7001  -16.9357 C   0  0  1  0  0  0  0  0  0  0  0  0
   20.4818  -15.9726  -17.4783 O   0  0  0  0  0  0  0  0  0  0  0  0
   22.1361  -14.5490  -16.6462 C   0  0  2  0  0  0  0  0  0  0  0  0
   22.5421  -15.7205  -15.9020 N   0  0  0  0  0  0  0  0  0  0  0  0
   22.4045  -13.2951  -15.8877 C   0  0  0  0  0  0  0  0  0  0  0  0
   21.8651  -13.0546  -14.7779 O   0  0  0  0  0  0  0  0  0  0  0  0
   25.7971  -11.6530  -15.2166 C   0  0  0  0  0  0  0  0  0  0  0  0
   24.9310  -10.5546  -15.8019 C   0  0  1  0  0  0  0  0  0  0  0  0
   25.3395  -10.3012  -17.0940 O   0  0  0  0  0  0  0  0  0  0  0  0
   23.5004  -11.0239  -15.7102 C   0  0  2  0  0  0  0  0  0  0  0  0
   23.2961  -12.2875  -16.3813 N   0  0  0  0  0  0  0  0  0  0  0  0
   22.5261   -9.9886  -16.1237 C   0  0  0  0  0  0  0  0  0  0  0  0
   21.8266  -10.2405  -17.1322 O   0  0  0  0  0  0  0  0  0  0  0  0
   22.3460   -8.7564  -15.4557 N   0  0  0  0  0  0  0  0  0  0  0  0
   21.3220   -7.7577  -15.8270 C   0  0  1  0  0  0  0  0  0  0  0  0
   19.9824   -8.3053  -15.8812 C   0  0  0  0  0  0  0  0  0  0  0  0
   18.8244   -7.4221  -16.1320 C   0  0  0  0  0  0  0  0  0  0  0  0
   17.4579   -7.9854  -16.1625 C   0  0  0  0  0  0  0  0  0  0  0  0
   16.2851   -7.2052  -16.5599 C   0  0  0  0  0  0  0  0  0  0  0  0
   16.3589   -5.7818  -16.4452 N   0  0  0  0  0  0  0  0  0  0  0  0
   21.4573   -6.6160  -14.8352 C   0  0  0  0  0  0  0  0  0  0  0  0
   21.0294   -5.3317  -15.1156 O   0  0  0  0  0  0  0  0  0  0  0  0
   21.9644   -6.8364  -13.7375 O   0  0  0  0  0  0  0  0  0  0  0  0
  2  3  1  0
  2  1  1  6
  4  2  1  0
  4  5  1  1
  6  7  2  0
  6  4  1  0
  9  8  1  6
  9 10  1  0
  9 11  1  0
 11 12  1  6
 12  6  1  0
 13 11  1  0
 13 15  1  0
 14 13  2  0
 16 15  1  0
 16 22  1  0
 16 17  1  1
 17 18  1  0
 19 18  1  0
 20 19  1  0
 20 21  1  0
 22 23  1  0
 24 22  2  0
M  END
$$$$
