TTK.pdb
     RDKit          3D

 24 23  0  0  1  0  0  0  0  0999 V2000
   15.4805  -13.5909  -16.8660 C   0  0  0  0  0  0  0  0  0  0  0  0
   16.1526  -12.2811  -17.1612 C   0  0  1  0  0  0  0  0  0  0  0  0
   15.2627  -11.2173  -17.0297 O   0  0  0  0  0  0  0  0  0  0  0  0
   17.2319  -12.0687  -16.1061 C   0  0  2  0  0  0  0  0  0  0  0  0
   16.5687  -12.0557  -14.8211 N   0  0  0  0  0  0  0  0  0  0  0  0
   17.9748  -10.8014  -16.3546 C   0  0  0  0  0  0  0  0  0  0  0  0
   18.7022  -10.6384  -17.3670 O   0  0  0  0  0  0  0  0  0  0  0  0
   16.6639   -7.3997  -16.7177 C   0  0  0  0  0  0  0  0  0  0  0  0
   17.6776   -7.2546  -15.5994 C   0  0  1  0  0  0  0  0  0  0  0  0
   17.0096   -7.1637  -14.3968 O   0  0  0  0  0  0  0  0  0  0  0  0
   18.5989   -8.4461  -15.6809 C   0  0  2  0  0  0  0  0  0  0  0  0
   17.9026   -9.6915  -15.4508 N   0  0  0  0  0  0  0  0  0  0  0  0
   19.8082   -8.2989  -14.8394 C   0  0  0  0  0  0  0  0  0  0  0  0
   20.0733   -9.2432  -14.0598 O   0  0  0  0  0  0  0  0  0  0  0  0
   20.6623   -7.1735  -14.8675 N   0  0  0  0  0  0  0  0  0  0  0  0
   22.0802   -7.2023  -14.4518 C   0  0  1  0  0  0  0  0  0  0  0  0
   22.8640   -8.1917  -15.1616 C   0  0  0  0  0  0  0  0  0  0  0  0
   24.3153   -8.3145  -14.9110 C   0  0  0  0  0  0  0  0  0  0  0  0
   25.0976   -9.3652  -15.5962 C   0  0  0  0  0  0  0  0  0  0  0  0
   26.5399   -9.5312  -15.4102 C   0  0  0  0  0  0  0  0  0  0  0  0
   27.1759  -10.6317  -16.0651 N   0  0  0  0  0  0  0  0  0  0  0  0
   22.6071   -5.7892  -14.6277 C   0  0  0  0  0  0  0  0  0  0  0  0
   23.5060   -5.2152  -13.7482 O   0  0  0  0  0  0  0  0  0  0  0  0
   22.2249   -5.1254  -15.5890 O   0  0  0  0  0  0  0  0  0  0  0  0
  2  3  1  0
  2  1  1  1
  4  2  1  0
  4  5  1  1
  6  7  2  0
  6  4  1  0
  9  8  1  6
  9 10  1  0
  9 11  1  0
 11 12  1  1
 12  6  1  0
 13 11  1  0
 13 15  1  0
 14 13  2  0
 16 15  1  0
 16 22  1  0
 16 17  1  6
 17 18  1  0
 19 18  1  0
 20 19  1  0
 20 21  1  0
 22 23  1  0
 24 22  2  0
M  END
$$$$
