TTK.pdb
     RDKit          3D

 24 23  0  0  1  0  0  0  0  0999 V2000
   27.0132  -11.1372  -22.2657 C   0  0  0  0  0  0  0  0  0  0  0  0
   27.7297  -12.3979  -21.8760 C   0  0  1  0  0  0  0  0  0  0  0  0
   28.2359  -13.0560  -22.9948 O   0  0  0  0  0  0  0  0  0  0  0  0
   28.9350  -12.0009  -21.0316 C   0  0  2  0  0  0  0  0  0  0  0  0
   29.6642  -13.2152  -20.7404 N   0  0  0  0  0  0  0  0  0  0  0  0
   28.5045  -11.3055  -19.7864 C   0  0  0  0  0  0  0  0  0  0  0  0
   28.0302  -11.9265  -18.8016 O   0  0  0  0  0  0  0  0  0  0  0  0
   30.5039   -8.9566  -17.7450 C   0  0  0  0  0  0  0  0  0  0  0  0
   29.2159   -8.1899  -17.9740 C   0  0  1  0  0  0  0  0  0  0  0  0
   29.4505   -7.1790  -18.8815 O   0  0  0  0  0  0  0  0  0  0  0  0
   28.1862   -9.1866  -18.4447 C   0  0  2  0  0  0  0  0  0  0  0  0
   28.6069   -9.8836  -19.6389 N   0  0  0  0  0  0  0  0  0  0  0  0
   26.8313   -8.6022  -18.5667 C   0  0  0  0  0  0  0  0  0  0  0  0
   26.4685   -8.2488  -19.7127 O   0  0  0  0  0  0  0  0  0  0  0  0
   25.9429   -8.4251  -17.4820 N   0  0  0  0  0  0  0  0  0  0  0  0
   24.6154   -7.7863  -17.5977 C   0  0  1  0  0  0  0  0  0  0  0  0
   23.7066   -8.1595  -16.5337 C   0  0  0  0  0  0  0  0  0  0  0  0
   22.3491   -7.5786  -16.4731 C   0  0  0  0  0  0  0  0  0  0  0  0
   21.4627   -7.8882  -15.3312 C   0  0  0  0  0  0  0  0  0  0  0  0
   20.0954   -7.3770  -15.2247 C   0  0  0  0  0  0  0  0  0  0  0  0
   19.3370   -7.7331  -14.0660 N   0  0  0  0  0  0  0  0  0  0  0  0
   24.8644   -6.2901  -17.6686 C   0  0  0  0  0  0  0  0  0  0  0  0
   25.8605   -5.6661  -16.9411 O   0  0  0  0  0  0  0  0  0  0  0  0
   24.1574   -5.6018  -18.4016 O   0  0  0  0  0  0  0  0  0  0  0  0
  2  3  1  0
  2  1  1  6
  4  2  1  0
  4  5  1  1
  6  7  2  0
  6  4  1  0
  9  8  1  6
  9 10  1  0
  9 11  1  0
 11 12  1  6
 12  6  1  0
 13 11  1  0
 13 15  1  0
 14 13  2  0
 16 15  1  0
 16 22  1  0
 16 17  1  1
 17 18  1  0
 19 18  1  0
 20 19  1  0
 20 21  1  0
 22 23  1  0
 24 22  2  0
M  END
$$$$
