TTK.pdb
     RDKit          3D

 24 23  0  0  1  0  0  0  0  0999 V2000
   24.6463  -15.1606  -19.0958 C   0  0  0  0  0  0  0  0  0  0  0  0
   24.3929  -14.3773  -17.8400 C   0  0  1  0  0  0  0  0  0  0  0  0
   25.5616  -13.7771  -17.3762 O   0  0  0  0  0  0  0  0  0  0  0  0
   23.4386  -13.2415  -18.1898 C   0  0  2  0  0  0  0  0  0  0  0  0
   24.0548  -12.4869  -19.2585 N   0  0  0  0  0  0  0  0  0  0  0  0
   23.1695  -12.3886  -16.9983 C   0  0  0  0  0  0  0  0  0  0  0  0
   22.6105  -12.8371  -15.9654 O   0  0  0  0  0  0  0  0  0  0  0  0
   25.6311  -10.1429  -15.2960 C   0  0  0  0  0  0  0  0  0  0  0  0
   24.4219   -9.2498  -15.4949 C   0  0  1  0  0  0  0  0  0  0  0  0
   24.7002   -8.3310  -16.4843 O   0  0  0  0  0  0  0  0  0  0  0  0
   23.2580  -10.1498  -15.8274 C   0  0  2  0  0  0  0  0  0  0  0  0
   23.5337  -11.0030  -16.9609 N   0  0  0  0  0  0  0  0  0  0  0  0
   21.9794   -9.4147  -15.9581 C   0  0  0  0  0  0  0  0  0  0  0  0
   21.5605   -9.2104  -17.1211 O   0  0  0  0  0  0  0  0  0  0  0  0
   21.2212   -8.9406  -14.8639 N   0  0  0  0  0  0  0  0  0  0  0  0
   19.9941   -8.1284  -14.9996 C   0  0  1  0  0  0  0  0  0  0  0  0
   18.7794   -8.8879  -14.7874 C   0  0  0  0  0  0  0  0  0  0  0  0
   17.4652   -8.2122  -14.7963 C   0  0  0  0  0  0  0  0  0  0  0  0
   16.2288   -8.9972  -14.5944 C   0  0  0  0  0  0  0  0  0  0  0  0
   14.8903   -8.4296  -14.7632 C   0  0  0  0  0  0  0  0  0  0  0  0
   13.7732   -9.3193  -14.6921 N   0  0  0  0  0  0  0  0  0  0  0  0
   20.1423   -6.9638  -14.0366 C   0  0  0  0  0  0  0  0  0  0  0  0
   19.4668   -5.7693  -14.2036 O   0  0  0  0  0  0  0  0  0  0  0  0
   20.8888   -7.0825  -13.0674 O   0  0  0  0  0  0  0  0  0  0  0  0
  2  3  1  0
  2  1  1  6
  4  2  1  0
  4  5  1  6
  6  7  2  0
  6  4  1  0
  9  8  1  6
  9 10  1  0
  9 11  1  0
 11 12  1  6
 12  6  1  0
 13 11  1  0
 13 15  1  0
 14 13  2  0
 16 15  1  0
 16 22  1  0
 16 17  1  1
 17 18  1  0
 19 18  1  0
 20 19  1  0
 20 21  1  0
 22 23  1  0
 24 22  2  0
M  END
$$$$
