TTK.pdb
     RDKit          3D

 24 23  0  0  1  0  0  0  0  0999 V2000
   16.5786  -11.3825  -17.8889 C   0  0  0  0  0  0  0  0  0  0  0  0
   17.3466  -10.6053  -16.8589 C   0  0  1  0  0  0  0  0  0  0  0  0
   16.5783  -10.3853  -15.7177 O   0  0  0  0  0  0  0  0  0  0  0  0
   18.5278  -11.4631  -16.4204 C   0  0  2  0  0  0  0  0  0  0  0  0
   17.9821  -12.6936  -15.8917 N   0  0  0  0  0  0  0  0  0  0  0  0
   19.3555  -10.7488  -15.4083 C   0  0  0  0  0  0  0  0  0  0  0  0
   19.3091  -11.0314  -14.1842 O   0  0  0  0  0  0  0  0  0  0  0  0
   22.8962  -10.6324  -15.1087 C   0  0  0  0  0  0  0  0  0  0  0  0
   22.5647   -9.1534  -15.1531 C   0  0  1  0  0  0  0  0  0  0  0  0
   22.8845   -8.6589  -16.3996 O   0  0  0  0  0  0  0  0  0  0  0  0
   21.1007   -9.0185  -14.8159 C   0  0  2  0  0  0  0  0  0  0  0  0
   20.2552   -9.6947  -15.7733 N   0  0  0  0  0  0  0  0  0  0  0  0
   20.6909   -7.6161  -14.5759 C   0  0  0  0  0  0  0  0  0  0  0  0
   20.1055   -7.0290  -15.5152 O   0  0  0  0  0  0  0  0  0  0  0  0
   20.9198   -6.9180  -13.3687 N   0  0  0  0  0  0  0  0  0  0  0  0
   20.5510   -5.5038  -13.1498 C   0  0  1  0  0  0  0  0  0  0  0  0
   19.8883   -5.2754  -11.8826 C   0  0  0  0  0  0  0  0  0  0  0  0
   18.5029   -5.7435  -11.6693 C   0  0  0  0  0  0  0  0  0  0  0  0
   17.8024   -5.4291  -10.4061 C   0  0  0  0  0  0  0  0  0  0  0  0
   16.4223   -5.8373  -10.1394 C   0  0  0  0  0  0  0  0  0  0  0  0
   15.8843   -5.5676   -8.8424 N   0  0  0  0  0  0  0  0  0  0  0  0
   21.8287   -4.6985  -13.3057 C   0  0  0  0  0  0  0  0  0  0  0  0
   23.0790   -5.2868  -13.3462 O   0  0  0  0  0  0  0  0  0  0  0  0
   21.7549   -3.4754  -13.4023 O   0  0  0  0  0  0  0  0  0  0  0  0
  2  3  1  0
  2  1  1  6
  4  2  1  0
  4  5  1  1
  6  7  2  0
  6  4  1  0
  9  8  1  6
  9 10  1  0
  9 11  1  0
 11 12  1  6
 12  6  1  0
 13 11  1  0
 13 15  1  0
 14 13  2  0
 16 15  1  0
 16 22  1  0
 16 17  1  1
 17 18  1  0
 19 18  1  0
 20 19  1  0
 20 21  1  0
 22 23  1  0
 24 22  2  0
M  END
$$$$
