HTN.pdb
     RDKit          3D

 26 26  0  0  1  0  0  0  0  0999 V2000
   10.3489  -15.6980   17.2613 N   0  0  0  0  0  0  0  0  0  0  0  0
   11.0172  -14.8244   18.1987 C   0  0  1  0  0  0  0  0  0  0  0  0
   10.0090  -14.2938   19.1564 C   0  0  0  0  0  0  0  0  0  0  0  0
    8.8527  -13.6414   18.5067 C   0  0  0  0  0  0  0  0  0  0  0  0
    8.6286  -12.2991   18.3272 C   0  0  0  0  0  0  0  0  0  0  0  0
    7.4506  -12.1652   17.6763 N   0  0  0  0  0  0  0  0  0  0  0  0
    6.9368  -13.3783   17.4459 C   0  0  0  0  0  0  0  0  0  0  0  0
    7.7869  -14.2831   17.9497 N   0  0  0  0  0  0  0  0  0  0  0  0
   12.1426  -15.5698   18.8237 C   0  0  0  0  0  0  0  0  0  0  0  0
   11.9508  -16.6950   19.3747 O   0  0  0  0  0  0  0  0  0  0  0  0
   14.9062  -16.9228   17.0192 C   0  0  0  0  0  0  0  0  0  0  0  0
   15.5424  -16.0636   18.0822 C   0  0  1  0  0  0  0  0  0  0  0  0
   16.0503  -14.9479   17.4495 O   0  0  0  0  0  0  0  0  0  0  0  0
   14.6581  -15.7564   19.2282 C   0  0  2  0  0  0  0  0  0  0  0  0
   13.4544  -15.0451   18.8230 N   0  0  0  0  0  0  0  0  0  0  0  0
   15.2978  -15.1948   20.4354 C   0  0  0  0  0  0  0  0  0  0  0  0
   15.5165  -13.9382   20.5841 O   0  0  0  0  0  0  0  0  0  0  0  0
   14.1439  -17.8298   24.2383 N   0  0  0  0  0  0  0  0  0  0  0  0
   14.7456  -16.5692   24.1734 C   0  0  0  0  0  0  0  0  0  0  0  0
   13.9802  -15.5667   24.4202 O   0  0  0  0  0  0  0  0  0  0  0  0
   16.1300  -16.2380   23.8637 C   0  0  0  0  0  0  0  0  0  0  0  0
   16.3791  -15.3400   22.7110 C   0  0  2  0  0  0  0  0  0  0  0  0
   15.7339  -15.9612   21.5475 N   0  0  0  0  0  0  0  0  0  0  0  0
   17.8218  -15.2526   22.4232 C   0  0  0  0  0  0  0  0  0  0  0  0
   18.6661  -14.7994   23.2094 O   0  0  0  0  0  0  0  0  0  0  0  0
   18.3323  -15.7015   21.1828 O   0  0  0  0  0  0  0  0  0  0  0  0
  2  1  1  6
  2  9  1  0
  3  4  1  0
  3  2  1  0
  4  8  1  0
  5  4  2  0
  5  6  1  0
  6  7  1  0
  8  7  2  0
  9 10  2  0
 12 11  1  6
 12 14  1  0
 13 12  1  0
 14 16  1  0
 14 15  1  6
 15  9  1  0
 16 17  2  0
 16 23  1  0
 18 19  1  0
 19 21  1  0
 20 19  2  0
 22 21  1  1
 22 24  1  0
 23 22  1  0
 24 25  2  0
 24 26  1  0
M  END
$$$$
