HTN.pdb
     RDKit          3D

 26 26  0  0  1  0  0  0  0  0999 V2000
    9.4172  -15.8616   15.2210 N   0  0  0  0  0  0  0  0  0  0  0  0
    8.6286  -16.2497   16.3680 C   0  0  1  0  0  0  0  0  0  0  0  0
    8.5566  -17.7355   16.4152 C   0  0  0  0  0  0  0  0  0  0  0  0
    7.6796  -18.3246   15.3814 C   0  0  0  0  0  0  0  0  0  0  0  0
    7.0158  -17.6807   14.3670 C   0  0  0  0  0  0  0  0  0  0  0  0
    6.3437  -18.6173   13.6596 N   0  0  0  0  0  0  0  0  0  0  0  0
    6.5681  -19.8197   14.2004 C   0  0  0  0  0  0  0  0  0  0  0  0
    7.3821  -19.6483   15.2508 N   0  0  0  0  0  0  0  0  0  0  0  0
    9.2081  -15.6124   17.5809 C   0  0  0  0  0  0  0  0  0  0  0  0
   10.4494  -15.3679   17.6568 O   0  0  0  0  0  0  0  0  0  0  0  0
    7.4882  -12.5987   19.4646 C   0  0  0  0  0  0  0  0  0  0  0  0
    7.8876  -13.6656   20.4521 C   0  0  1  0  0  0  0  0  0  0  0  0
    6.7229  -14.2197   20.9413 O   0  0  0  0  0  0  0  0  0  0  0  0
    8.8507  -14.6567   19.9229 C   0  0  2  0  0  0  0  0  0  0  0  0
    8.3935  -15.2641   18.6814 N   0  0  0  0  0  0  0  0  0  0  0  0
    9.4078  -15.6286   20.8858 C   0  0  0  0  0  0  0  0  0  0  0  0
    9.1589  -16.8869   20.8244 O   0  0  0  0  0  0  0  0  0  0  0  0
   13.0856  -17.0123   21.2121 N   0  0  0  0  0  0  0  0  0  0  0  0
   13.1655  -16.2829   22.4024 C   0  0  0  0  0  0  0  0  0  0  0  0
   14.3364  -15.8665   22.7301 O   0  0  0  0  0  0  0  0  0  0  0  0
   12.0948  -15.9287   23.3246 C   0  0  0  0  0  0  0  0  0  0  0  0
   10.7105  -16.2951   22.9418 C   0  0  2  0  0  0  0  0  0  0  0  0
   10.2654  -15.2927   21.9656 N   0  0  0  0  0  0  0  0  0  0  0  0
    9.8103  -16.2102   24.1056 C   0  0  0  0  0  0  0  0  0  0  0  0
    9.7960  -17.0241   25.0402 O   0  0  0  0  0  0  0  0  0  0  0  0
    8.8805  -15.1498   24.2149 O   0  0  0  0  0  0  0  0  0  0  0  0
  2  1  1  6
  2  9  1  0
  3  4  1  0
  3  2  1  0
  4  8  1  0
  5  4  2  0
  5  6  1  0
  6  7  1  0
  8  7  2  0
  9 10  2  0
 12 11  1  6
 12 14  1  0
 13 12  1  0
 14 16  1  0
 14 15  1  6
 15  9  1  0
 16 17  2  0
 16 23  1  0
 18 19  1  0
 19 21  1  0
 20 19  2  0
 22 21  1  1
 22 24  1  0
 23 22  1  0
 24 25  2  0
 24 26  1  0
M  END
$$$$
