HTN.pdb
     RDKit          3D

 26 26  0  0  1  0  0  0  0  0999 V2000
   10.4910  -15.3289   14.0606 N   0  0  0  0  0  0  0  0  0  0  0  0
   10.1146  -16.0435   15.2589 C   0  0  1  0  0  0  0  0  0  0  0  0
   10.7388  -17.3941   15.2233 C   0  0  0  0  0  0  0  0  0  0  0  0
   10.5534  -18.1047   13.9404 C   0  0  0  0  0  0  0  0  0  0  0  0
    9.4005  -18.2438   13.2086 C   0  0  0  0  0  0  0  0  0  0  0  0
    9.7030  -18.9610   12.1025 N   0  0  0  0  0  0  0  0  0  0  0  0
   11.0037  -19.2711   12.1234 C   0  0  0  0  0  0  0  0  0  0  0  0
   11.5284  -18.7518   13.2416 N   0  0  0  0  0  0  0  0  0  0  0  0
   10.4797  -15.2163   16.4401 C   0  0  0  0  0  0  0  0  0  0  0  0
   11.6157  -14.6595   16.5179 O   0  0  0  0  0  0  0  0  0  0  0  0
    8.0989  -12.6464   18.5503 C   0  0  0  0  0  0  0  0  0  0  0  0
    8.6941  -13.7496   19.3879 C   0  0  1  0  0  0  0  0  0  0  0  0
    7.6695  -14.6201   19.6967 O   0  0  0  0  0  0  0  0  0  0  0  0
    9.8780  -14.4017   18.7855 C   0  0  2  0  0  0  0  0  0  0  0  0
    9.5736  -15.0295   17.5078 N   0  0  0  0  0  0  0  0  0  0  0  0
   10.7036  -15.2435   19.6753 C   0  0  0  0  0  0  0  0  0  0  0  0
   10.5877  -16.5214   19.7260 O   0  0  0  0  0  0  0  0  0  0  0  0
   14.8436  -13.3799   19.8304 N   0  0  0  0  0  0  0  0  0  0  0  0
   14.6049  -14.6353   20.3981 C   0  0  0  0  0  0  0  0  0  0  0  0
   15.1473  -15.6357   19.8006 O   0  0  0  0  0  0  0  0  0  0  0  0
   13.8218  -14.9633   21.5819 C   0  0  0  0  0  0  0  0  0  0  0  0
   12.5228  -15.6472   21.3771 C   0  0  2  0  0  0  0  0  0  0  0  0
   11.7001  -14.7493   20.5568 N   0  0  0  0  0  0  0  0  0  0  0  0
   11.8266  -15.8349   22.6625 C   0  0  0  0  0  0  0  0  0  0  0  0
   10.7906  -15.2390   22.9909 O   0  0  0  0  0  0  0  0  0  0  0  0
   12.3303  -16.7431   23.6228 O   0  0  0  0  0  0  0  0  0  0  0  0
  2  1  1  6
  2  9  1  0
  3  4  1  0
  3  2  1  0
  4  8  1  0
  5  4  2  0
  5  6  1  0
  6  7  1  0
  8  7  2  0
  9 10  2  0
 12 11  1  6
 12 14  1  0
 13 12  1  0
 14 16  1  0
 14 15  1  6
 15  9  1  0
 16 17  2  0
 16 23  1  0
 18 19  1  0
 19 21  1  0
 20 19  2  0
 22 21  1  1
 22 24  1  0
 23 22  1  0
 24 25  2  0
 24 26  1  0
M  END
$$$$
