HTN.pdb
     RDKit          3D

 26 26  0  0  1  0  0  0  0  0999 V2000
   14.0713  -14.1602   18.5359 N   0  0  0  0  0  0  0  0  0  0  0  0
   12.7885  -14.7762   18.2846 C   0  0  1  0  0  0  0  0  0  0  0  0
   13.0060  -16.2119   17.9580 C   0  0  0  0  0  0  0  0  0  0  0  0
   13.8176  -16.4321   16.7424 C   0  0  0  0  0  0  0  0  0  0  0  0
   13.4072  -16.3992   15.4329 C   0  0  0  0  0  0  0  0  0  0  0  0
   14.4889  -16.6469   14.6597 N   0  0  0  0  0  0  0  0  0  0  0  0
   15.5557  -16.8321   15.4446 C   0  0  0  0  0  0  0  0  0  0  0  0
   15.1533  -16.7023   16.7160 N   0  0  0  0  0  0  0  0  0  0  0  0
   11.9045  -14.5276   19.4550 C   0  0  0  0  0  0  0  0  0  0  0  0
   12.3860  -14.4214   20.6226 O   0  0  0  0  0  0  0  0  0  0  0  0
    8.3483  -12.3337   19.0519 C   0  0  0  0  0  0  0  0  0  0  0  0
    8.2579  -13.6222   19.8294 C   0  0  1  0  0  0  0  0  0  0  0  0
    7.6016  -14.5327   19.0275 O   0  0  0  0  0  0  0  0  0  0  0  0
    9.5520  -14.1075   20.3581 C   0  0  2  0  0  0  0  0  0  0  0  0
   10.5056  -14.4051   19.2992 N   0  0  0  0  0  0  0  0  0  0  0  0
    9.4989  -15.1406   21.4126 C   0  0  0  0  0  0  0  0  0  0  0  0
    8.6937  -15.0728   22.4107 O   0  0  0  0  0  0  0  0  0  0  0  0
    8.7625  -19.8274   21.1760 N   0  0  0  0  0  0  0  0  0  0  0  0
   10.0395  -19.2718   21.0500 C   0  0  0  0  0  0  0  0  0  0  0  0
   10.6105  -19.4261   19.9089 O   0  0  0  0  0  0  0  0  0  0  0  0
   10.8128  -18.5371   22.0422 C   0  0  0  0  0  0  0  0  0  0  0  0
   10.2448  -17.2659   22.5507 C   0  0  2  0  0  0  0  0  0  0  0  0
   10.3120  -16.3034   21.4438 N   0  0  0  0  0  0  0  0  0  0  0  0
   11.0676  -16.7332   23.6513 C   0  0  0  0  0  0  0  0  0  0  0  0
   11.8107  -15.7459   23.5551 O   0  0  0  0  0  0  0  0  0  0  0  0
   11.0464  -17.3506   24.9238 O   0  0  0  0  0  0  0  0  0  0  0  0
  2  1  1  1
  2  9  1  0
  3  4  1  0
  3  2  1  0
  4  8  1  0
  5  4  2  0
  5  6  1  0
  6  7  1  0
  8  7  2  0
  9 10  2  0
 12 11  1  6
 12 14  1  0
 13 12  1  0
 14 16  1  0
 14 15  1  6
 15  9  1  0
 16 17  2  0
 16 23  1  0
 18 19  1  0
 19 21  1  0
 20 19  2  0
 22 21  1  6
 22 24  1  0
 23 22  1  0
 24 25  2  0
 24 26  1  0
M  END
$$$$
