HTN.pdb
     RDKit          3D

 26 26  0  0  1  0  0  0  0  0999 V2000
    7.6910  -17.0531   20.2446 N   0  0  0  0  0  0  0  0  0  0  0  0
    8.1838  -16.1574   21.2659 C   0  0  1  0  0  0  0  0  0  0  0  0
    7.4718  -14.8564   21.1416 C   0  0  0  0  0  0  0  0  0  0  0  0
    7.7778  -14.1243   19.8945 C   0  0  0  0  0  0  0  0  0  0  0  0
    8.6292  -14.4935   18.8832 C   0  0  0  0  0  0  0  0  0  0  0  0
    8.5867  -13.5254   17.9396 N   0  0  0  0  0  0  0  0  0  0  0  0
    7.7380  -12.5688   18.3311 C   0  0  0  0  0  0  0  0  0  0  0  0
    7.2411  -12.9279   19.5225 N   0  0  0  0  0  0  0  0  0  0  0  0
    8.0449  -16.8230   22.5891 C   0  0  0  0  0  0  0  0  0  0  0  0
    6.9255  -17.2748   22.9753 O   0  0  0  0  0  0  0  0  0  0  0  0
    8.1065  -19.6984   23.6925 C   0  0  0  0  0  0  0  0  0  0  0  0
    9.1995  -19.1371   24.5662 C   0  0  1  0  0  0  0  0  0  0  0  0
   10.3963  -19.6118   24.0711 O   0  0  0  0  0  0  0  0  0  0  0  0
    9.1553  -17.6670   24.7294 C   0  0  2  0  0  0  0  0  0  0  0  0
    9.1539  -16.9684   23.4522 N   0  0  0  0  0  0  0  0  0  0  0  0
   10.0733  -17.0763   25.7246 C   0  0  0  0  0  0  0  0  0  0  0  0
   11.2055  -16.5614   25.4048 O   0  0  0  0  0  0  0  0  0  0  0  0
    9.8898  -13.9594   26.6543 N   0  0  0  0  0  0  0  0  0  0  0  0
    9.7595  -14.1875   28.0277 C   0  0  0  0  0  0  0  0  0  0  0  0
    9.2358  -13.2323   28.7099 O   0  0  0  0  0  0  0  0  0  0  0  0
   10.1380  -15.3680   28.7928 C   0  0  0  0  0  0  0  0  0  0  0  0
   10.8041  -16.4734   28.0636 C   0  0  2  0  0  0  0  0  0  0  0  0
    9.8159  -17.0088   27.1187 N   0  0  0  0  0  0  0  0  0  0  0  0
   11.1667  -17.5615   28.9891 C   0  0  0  0  0  0  0  0  0  0  0  0
   10.5681  -18.6442   29.0651 O   0  0  0  0  0  0  0  0  0  0  0  0
   12.2622  -17.4146   29.8717 O   0  0  0  0  0  0  0  0  0  0  0  0
  2  1  1  6
  2  9  1  0
  3  4  1  0
  3  2  1  0
  4  8  1  0
  5  4  2  0
  5  6  1  0
  6  7  1  0
  8  7  2  0
  9 10  2  0
 12 11  1  6
 12 14  1  0
 13 12  1  0
 14 16  1  0
 14 15  1  6
 15  9  1  0
 16 17  2  0
 16 23  1  0
 18 19  1  0
 19 21  1  0
 20 19  2  0
 22 21  1  1
 22 24  1  0
 23 22  1  0
 24 25  2  0
 24 26  1  0
M  END
$$$$
