HTN.pdb
     RDKit          3D

 26 26  0  0  1  0  0  0  0  0999 V2000
   10.9316  -15.6107   13.7631 N   0  0  0  0  0  0  0  0  0  0  0  0
    9.8907  -15.9756   14.6967 C   0  0  1  0  0  0  0  0  0  0  0  0
    9.8680  -17.4579   14.8286 C   0  0  0  0  0  0  0  0  0  0  0  0
    9.3427  -18.1561   13.6363 C   0  0  0  0  0  0  0  0  0  0  0  0
    8.9108  -17.6064   12.4551 C   0  0  0  0  0  0  0  0  0  0  0  0
    8.5282  -18.6220   11.6479 N   0  0  0  0  0  0  0  0  0  0  0  0
    8.7083  -19.7823   12.2879 C   0  0  0  0  0  0  0  0  0  0  0  0
    9.2049  -19.5054   13.5012 N   0  0  0  0  0  0  0  0  0  0  0  0
   10.1132  -15.2375   15.9690 C   0  0  0  0  0  0  0  0  0  0  0  0
   11.2861  -14.9872   16.3789 O   0  0  0  0  0  0  0  0  0  0  0  0
    7.9780  -12.6857   19.7305 C   0  0  0  0  0  0  0  0  0  0  0  0
    7.8680  -13.5040   18.4690 C   0  0  1  0  0  0  0  0  0  0  0  0
    7.3516  -12.6759   17.4941 O   0  0  0  0  0  0  0  0  0  0  0  0
    9.1187  -14.1904   18.0763 C   0  0  2  0  0  0  0  0  0  0  0  0
    9.0259  -14.7970   16.7562 N   0  0  0  0  0  0  0  0  0  0  0  0
    9.7463  -15.0669   19.0862 C   0  0  0  0  0  0  0  0  0  0  0  0
    9.7283  -16.3481   19.0006 O   0  0  0  0  0  0  0  0  0  0  0  0
   13.0470  -16.8031   23.1027 N   0  0  0  0  0  0  0  0  0  0  0  0
   13.2929  -15.6136   22.4100 C   0  0  0  0  0  0  0  0  0  0  0  0
   14.4450  -15.0777   22.6028 O   0  0  0  0  0  0  0  0  0  0  0  0
   12.4153  -14.8975   21.4938 C   0  0  0  0  0  0  0  0  0  0  0  0
   11.1171  -15.5272   21.1545 C   0  0  2  0  0  0  0  0  0  0  0  0
   10.4290  -14.6055   20.2418 N   0  0  0  0  0  0  0  0  0  0  0  0
   10.2779  -15.6676   22.3579 C   0  0  0  0  0  0  0  0  0  0  0  0
   10.5557  -16.3925   23.3241 O   0  0  0  0  0  0  0  0  0  0  0  0
    9.0639  -14.9505   22.4710 O   0  0  0  0  0  0  0  0  0  0  0  0
  2  1  1  6
  2  9  1  0
  3  4  1  0
  3  2  1  0
  4  8  1  0
  5  4  2  0
  5  6  1  0
  6  7  1  0
  8  7  2  0
  9 10  2  0
 12 11  1  1
 12 14  1  0
 13 12  1  0
 14 16  1  0
 14 15  1  6
 15  9  1  0
 16 17  2  0
 16 23  1  0
 18 19  1  0
 19 21  1  0
 20 19  2  0
 22 21  1  1
 22 24  1  0
 23 22  1  0
 24 25  2  0
 24 26  1  0
M  END
$$$$
