HTN.pdb
     RDKit          3D

 26 26  0  0  1  0  0  0  0  0999 V2000
    9.3286  -15.4345   13.6620 N   0  0  0  0  0  0  0  0  0  0  0  0
    9.1880  -16.0736   14.9505 C   0  0  1  0  0  0  0  0  0  0  0  0
    9.7049  -17.4656   14.8500 C   0  0  0  0  0  0  0  0  0  0  0  0
    8.8673  -18.3557   14.0185 C   0  0  0  0  0  0  0  0  0  0  0  0
    7.7217  -19.0204   14.3789 C   0  0  0  0  0  0  0  0  0  0  0  0
    7.2901  -19.7066   13.2962 N   0  0  0  0  0  0  0  0  0  0  0  0
    8.1285  -19.4900   12.2771 C   0  0  0  0  0  0  0  0  0  0  0  0
    9.0927  -18.6669   12.7108 N   0  0  0  0  0  0  0  0  0  0  0  0
    9.8588  -15.2294   15.9754 C   0  0  0  0  0  0  0  0  0  0  0  0
   11.0087  -14.7402   15.7636 O   0  0  0  0  0  0  0  0  0  0  0  0
    7.7912  -12.7560   18.4737 C   0  0  0  0  0  0  0  0  0  0  0  0
    8.8070  -13.6024   19.1982 C   0  0  1  0  0  0  0  0  0  0  0  0
    8.1045  -14.5113   19.9620 O   0  0  0  0  0  0  0  0  0  0  0  0
    9.8281  -14.2150   18.3198 C   0  0  2  0  0  0  0  0  0  0  0  0
    9.2357  -14.9512   17.2124 N   0  0  0  0  0  0  0  0  0  0  0  0
   10.9357  -14.9342   18.9817 C   0  0  0  0  0  0  0  0  0  0  0  0
   11.0176  -16.2156   19.0012 O   0  0  0  0  0  0  0  0  0  0  0  0
   15.5731  -15.9525   21.7727 N   0  0  0  0  0  0  0  0  0  0  0  0
   15.4285  -14.7373   21.0961 C   0  0  0  0  0  0  0  0  0  0  0  0
   16.4522  -13.9604   21.1090 O   0  0  0  0  0  0  0  0  0  0  0  0
   14.2687  -14.2318   20.3739 C   0  0  0  0  0  0  0  0  0  0  0  0
   13.0555  -15.0830   20.3428 C   0  0  2  0  0  0  0  0  0  0  0  0
   12.0152  -14.3068   19.6564 N   0  0  0  0  0  0  0  0  0  0  0  0
   12.5763  -15.3540   21.7099 C   0  0  0  0  0  0  0  0  0  0  0  0
   11.6770  -14.7157   22.2757 O   0  0  0  0  0  0  0  0  0  0  0  0
   13.1450  -16.4005   22.4730 O   0  0  0  0  0  0  0  0  0  0  0  0
  2  1  1  6
  2  9  1  0
  3  4  1  0
  3  2  1  0
  4  8  1  0
  5  4  2  0
  5  6  1  0
  6  7  1  0
  8  7  2  0
  9 10  2  0
 12 11  1  6
 12 14  1  0
 13 12  1  0
 14 16  1  0
 14 15  1  6
 15  9  1  0
 16 17  2  0
 16 23  1  0
 18 19  1  0
 19 21  1  0
 20 19  2  0
 22 21  1  1
 22 24  1  0
 23 22  1  0
 24 25  2  0
 24 26  1  0
M  END
$$$$
