HTN.pdb
     RDKit          3D

 26 26  0  0  1  0  0  0  0  0999 V2000
   12.4317  -14.5644   17.2085 N   0  0  0  0  0  0  0  0  0  0  0  0
   12.5228  -15.3245   18.4342 C   0  0  1  0  0  0  0  0  0  0  0  0
   13.9585  -15.4667   18.8001 C   0  0  0  0  0  0  0  0  0  0  0  0
   14.7757  -16.1347   17.7653 C   0  0  0  0  0  0  0  0  0  0  0  0
   14.8075  -17.4683   17.4419 C   0  0  0  0  0  0  0  0  0  0  0  0
   15.6913  -17.6220   16.4296 N   0  0  0  0  0  0  0  0  0  0  0  0
   16.2083  -16.4297   16.1142 C   0  0  0  0  0  0  0  0  0  0  0  0
   15.6541  -15.5181   16.9250 N   0  0  0  0  0  0  0  0  0  0  0  0
   11.6764  -14.6666   19.4655 C   0  0  0  0  0  0  0  0  0  0  0  0
   12.0043  -13.5454   19.9573 O   0  0  0  0  0  0  0  0  0  0  0  0
    8.0848  -13.5978   19.3180 C   0  0  0  0  0  0  0  0  0  0  0  0
    8.2176  -14.5618   20.4696 C   0  0  1  0  0  0  0  0  0  0  0  0
    7.5977  -15.7338   20.0889 O   0  0  0  0  0  0  0  0  0  0  0  0
    9.6032  -14.7433   20.9563 C   0  0  2  0  0  0  0  0  0  0  0  0
   10.4863  -15.2723   19.9270 N   0  0  0  0  0  0  0  0  0  0  0  0
    9.7706  -15.3963   22.2707 C   0  0  0  0  0  0  0  0  0  0  0  0
   10.5120  -16.4307   22.4423 O   0  0  0  0  0  0  0  0  0  0  0  0
    5.8603  -15.0529   25.5951 N   0  0  0  0  0  0  0  0  0  0  0  0
    7.1205  -14.4975   25.3527 C   0  0  0  0  0  0  0  0  0  0  0  0
    7.1306  -13.3793   24.7192 O   0  0  0  0  0  0  0  0  0  0  0  0
    8.4295  -15.0176   25.7245 C   0  0  0  0  0  0  0  0  0  0  0  0
    9.1850  -15.7723   24.6964 C   0  0  2  0  0  0  0  0  0  0  0  0
    9.1471  -14.9650   23.4705 N   0  0  0  0  0  0  0  0  0  0  0  0
    8.5220  -17.0552   24.4025 C   0  0  0  0  0  0  0  0  0  0  0  0
    8.4209  -17.9916   25.2083 O   0  0  0  0  0  0  0  0  0  0  0  0
    7.9452  -17.2878   23.1321 O   0  0  0  0  0  0  0  0  0  0  0  0
  2  1  1  6
  2  9  1  0
  3  4  1  0
  3  2  1  0
  4  8  1  0
  5  4  2  0
  5  6  1  0
  6  7  1  0
  8  7  2  0
  9 10  2  0
 12 11  1  6
 12 14  1  0
 13 12  1  0
 14 16  1  0
 14 15  1  6
 15  9  1  0
 16 17  2  0
 16 23  1  0
 18 19  1  0
 19 21  1  0
 20 19  2  0
 22 21  1  1
 22 24  1  0
 23 22  1  0
 24 25  2  0
 24 26  1  0
M  END
$$$$
