HTN.pdb
     RDKit          3D

 26 26  0  0  1  0  0  0  0  0999 V2000
   11.5244  -14.2141   17.3659 N   0  0  0  0  0  0  0  0  0  0  0  0
   12.0238  -14.7025   18.6310 C   0  0  1  0  0  0  0  0  0  0  0  0
   13.4608  -14.3335   18.7496 C   0  0  0  0  0  0  0  0  0  0  0  0
   14.3360  -15.0172   17.7741 C   0  0  0  0  0  0  0  0  0  0  0  0
   13.9692  -15.8421   16.7402 C   0  0  0  0  0  0  0  0  0  0  0  0
   15.0993  -16.2293   16.1060 N   0  0  0  0  0  0  0  0  0  0  0  0
   16.1541  -15.6726   16.7110 C   0  0  0  0  0  0  0  0  0  0  0  0
   15.6956  -14.9320   17.7291 N   0  0  0  0  0  0  0  0  0  0  0  0
   11.1523  -14.1825   19.7187 C   0  0  0  0  0  0  0  0  0  0  0  0
   11.1503  -12.9508   20.0176 O   0  0  0  0  0  0  0  0  0  0  0  0
    7.6222  -13.8480   20.1116 C   0  0  0  0  0  0  0  0  0  0  0  0
    8.0343  -14.7147   21.2744 C   0  0  1  0  0  0  0  0  0  0  0  0
    7.5549  -15.9834   21.0224 O   0  0  0  0  0  0  0  0  0  0  0  0
    9.4798  -14.6677   21.5878 C   0  0  2  0  0  0  0  0  0  0  0  0
   10.3052  -15.0452   20.4496 N   0  0  0  0  0  0  0  0  0  0  0  0
    9.9092  -15.2849   22.8593 C   0  0  0  0  0  0  0  0  0  0  0  0
   10.7353  -16.2668   22.9099 O   0  0  0  0  0  0  0  0  0  0  0  0
   10.3538  -16.4065   28.2337 N   0  0  0  0  0  0  0  0  0  0  0  0
    9.8852  -15.1488   27.8413 C   0  0  0  0  0  0  0  0  0  0  0  0
    9.6627  -14.3101   28.7894 O   0  0  0  0  0  0  0  0  0  0  0  0
    9.6155  -14.6586   26.4963 C   0  0  0  0  0  0  0  0  0  0  0  0
    9.8752  -15.5808   25.3652 C   0  0  2  0  0  0  0  0  0  0  0  0
    9.4701  -14.8726   24.1444 N   0  0  0  0  0  0  0  0  0  0  0  0
    9.0363  -16.7875   25.4761 C   0  0  0  0  0  0  0  0  0  0  0  0
    9.2394  -17.7096   26.2792 O   0  0  0  0  0  0  0  0  0  0  0  0
    7.9118  -16.9567   24.6350 O   0  0  0  0  0  0  0  0  0  0  0  0
  2  1  1  6
  2  9  1  0
  3  4  1  0
  3  2  1  0
  4  8  1  0
  5  4  2  0
  5  6  1  0
  6  7  1  0
  8  7  2  0
  9 10  2  0
 12 11  1  6
 12 14  1  0
 13 12  1  0
 14 16  1  0
 14 15  1  6
 15  9  1  0
 16 17  2  0
 16 23  1  0
 18 19  1  0
 19 21  1  0
 20 19  2  0
 22 21  1  1
 22 24  1  0
 23 22  1  0
 24 25  2  0
 24 26  1  0
M  END
$$$$
