HTN.pdb
     RDKit          3D

 26 26  0  0  1  0  0  0  0  0999 V2000
   10.2951  -15.2608   14.5897 N   0  0  0  0  0  0  0  0  0  0  0  0
    9.7886  -15.9419   15.7593 C   0  0  1  0  0  0  0  0  0  0  0  0
   10.2801  -17.3466   15.7420 C   0  0  0  0  0  0  0  0  0  0  0  0
    9.7258  -18.1603   14.6394 C   0  0  0  0  0  0  0  0  0  0  0  0
    8.7403  -17.8181   13.7473 C   0  0  0  0  0  0  0  0  0  0  0  0
    8.5658  -18.8658   12.9099 N   0  0  0  0  0  0  0  0  0  0  0  0
    9.4093  -19.8456   13.2520 C   0  0  0  0  0  0  0  0  0  0  0  0
   10.1198  -19.4218   14.3060 N   0  0  0  0  0  0  0  0  0  0  0  0
   10.1695  -15.1605   16.9665 C   0  0  0  0  0  0  0  0  0  0  0  0
   11.3207  -14.6398   17.0675 O   0  0  0  0  0  0  0  0  0  0  0  0
    7.8912  -12.5765   19.1018 C   0  0  0  0  0  0  0  0  0  0  0  0
    8.4314  -13.7064   19.9412 C   0  0  1  0  0  0  0  0  0  0  0  0
    7.3649  -14.5238   20.2530 O   0  0  0  0  0  0  0  0  0  0  0  0
    9.5805  -14.4181   19.3389 C   0  0  2  0  0  0  0  0  0  0  0  0
    9.2617  -14.9784   18.0336 N   0  0  0  0  0  0  0  0  0  0  0  0
   10.3261  -15.3459   20.2137 C   0  0  0  0  0  0  0  0  0  0  0  0
   10.2233  -16.6225   20.1194 O   0  0  0  0  0  0  0  0  0  0  0  0
   14.3676  -15.8184   20.2983 N   0  0  0  0  0  0  0  0  0  0  0  0
   14.2922  -15.2434   21.5706 C   0  0  0  0  0  0  0  0  0  0  0  0
   15.3345  -14.6003   21.9604 O   0  0  0  0  0  0  0  0  0  0  0  0
   13.1857  -15.2742   22.5177 C   0  0  0  0  0  0  0  0  0  0  0  0
   11.9255  -15.9200   22.0794 C   0  0  2  0  0  0  0  0  0  0  0  0
   11.2243  -14.9436   21.2363 N   0  0  0  0  0  0  0  0  0  0  0  0
   11.0600  -16.2081   23.2369 C   0  0  0  0  0  0  0  0  0  0  0  0
   10.0630  -15.5408   23.5485 O   0  0  0  0  0  0  0  0  0  0  0  0
   11.3388  -17.3071   24.0826 O   0  0  0  0  0  0  0  0  0  0  0  0
  2  1  1  6
  2  9  1  0
  3  4  1  0
  3  2  1  0
  4  8  1  0
  5  4  2  0
  5  6  1  0
  6  7  1  0
  8  7  2  0
  9 10  2  0
 12 11  1  6
 12 14  1  0
 13 12  1  0
 14 16  1  0
 14 15  1  6
 15  9  1  0
 16 17  2  0
 16 23  1  0
 18 19  1  0
 19 21  1  0
 20 19  2  0
 22 21  1  1
 22 24  1  0
 23 22  1  0
 24 25  2  0
 24 26  1  0
M  END
$$$$
