HTN.pdb
     RDKit          3D

 26 26  0  0  1  0  0  0  0  0999 V2000
   10.3653  -15.2692   14.1230 N   0  0  0  0  0  0  0  0  0  0  0  0
    9.9271  -15.9586   15.3150 C   0  0  1  0  0  0  0  0  0  0  0  0
   10.4457  -17.3531   15.2759 C   0  0  0  0  0  0  0  0  0  0  0  0
    9.8998  -18.1630   14.1664 C   0  0  0  0  0  0  0  0  0  0  0  0
    8.5844  -18.3477   13.8206 C   0  0  0  0  0  0  0  0  0  0  0  0
    8.5568  -19.1555   12.7361 N   0  0  0  0  0  0  0  0  0  0  0  0
    9.8098  -19.4778   12.3977 C   0  0  0  0  0  0  0  0  0  0  0  0
   10.6338  -18.8757   13.2659 N   0  0  0  0  0  0  0  0  0  0  0  0
   10.3472  -15.1678   16.5029 C   0  0  0  0  0  0  0  0  0  0  0  0
   11.4813  -14.6031   16.5402 O   0  0  0  0  0  0  0  0  0  0  0  0
    7.9941  -12.7185   18.7095 C   0  0  0  0  0  0  0  0  0  0  0  0
    8.6861  -13.7650   19.5457 C   0  0  1  0  0  0  0  0  0  0  0  0
    7.7183  -14.6573   19.9582 O   0  0  0  0  0  0  0  0  0  0  0  0
    9.8500  -14.3995   18.8880 C   0  0  2  0  0  0  0  0  0  0  0  0
    9.4968  -15.0255   17.6221 N   0  0  0  0  0  0  0  0  0  0  0  0
   10.7246  -15.2347   19.7362 C   0  0  0  0  0  0  0  0  0  0  0  0
   10.7724  -16.5140   19.6358 O   0  0  0  0  0  0  0  0  0  0  0  0
   14.9146  -17.0317   22.3408 N   0  0  0  0  0  0  0  0  0  0  0  0
   14.7399  -15.6445   22.3585 C   0  0  0  0  0  0  0  0  0  0  0  0
   15.7820  -14.9495   22.6466 O   0  0  0  0  0  0  0  0  0  0  0  0
   13.5305  -14.8774   22.0917 C   0  0  0  0  0  0  0  0  0  0  0  0
   12.3302  -15.6230   21.6440 C   0  0  2  0  0  0  0  0  0  0  0  0
   11.5961  -14.7316   20.7371 N   0  0  0  0  0  0  0  0  0  0  0  0
   11.4466  -15.9182   22.7860 C   0  0  0  0  0  0  0  0  0  0  0  0
   10.4922  -15.2081   23.1344 O   0  0  0  0  0  0  0  0  0  0  0  0
   11.6556  -17.0757   23.5716 O   0  0  0  0  0  0  0  0  0  0  0  0
  2  1  1  6
  2  9  1  0
  3  4  1  0
  3  2  1  0
  4  8  1  0
  5  4  2  0
  5  6  1  0
  6  7  1  0
  8  7  2  0
  9 10  2  0
 12 11  1  6
 12 14  1  0
 13 12  1  0
 14 16  1  0
 14 15  1  6
 15  9  1  0
 16 17  2  0
 16 23  1  0
 18 19  1  0
 19 21  1  0
 20 19  2  0
 22 21  1  1
 22 24  1  0
 23 22  1  0
 24 25  2  0
 24 26  1  0
M  END
$$$$
