HTN.pdb
     RDKit          3D

 26 26  0  0  1  0  0  0  0  0999 V2000
   10.1443  -15.4137   14.0378 N   0  0  0  0  0  0  0  0  0  0  0  0
    9.3952  -15.8013   15.2112 C   0  0  1  0  0  0  0  0  0  0  0  0
    9.3808  -17.2871   15.2971 C   0  0  0  0  0  0  0  0  0  0  0  0
    8.5234  -17.9362   14.2829 C   0  0  0  0  0  0  0  0  0  0  0  0
    7.9255  -17.3637   13.1879 C   0  0  0  0  0  0  0  0  0  0  0  0
    7.2465  -18.3364   12.5382 N   0  0  0  0  0  0  0  0  0  0  0  0
    7.4031  -19.4922   13.1925 C   0  0  0  0  0  0  0  0  0  0  0  0
    8.1809  -19.2552   14.2575 N   0  0  0  0  0  0  0  0  0  0  0  0
    9.9753  -15.1117   16.3947 C   0  0  0  0  0  0  0  0  0  0  0  0
   11.1932  -14.7610   16.4107 O   0  0  0  0  0  0  0  0  0  0  0  0
    7.6771  -12.7271   18.8088 C   0  0  0  0  0  0  0  0  0  0  0  0
    8.5759  -13.6581   19.5823 C   0  0  1  0  0  0  0  0  0  0  0  0
    7.7618  -14.5830   20.2024 O   0  0  0  0  0  0  0  0  0  0  0  0
    9.6675  -14.2564   18.7822 C   0  0  2  0  0  0  0  0  0  0  0  0
    9.1877  -14.8302   17.5333 N   0  0  0  0  0  0  0  0  0  0  0  0
   10.6263  -15.1214   19.4996 C   0  0  0  0  0  0  0  0  0  0  0  0
   10.7328  -16.3801   19.2686 O   0  0  0  0  0  0  0  0  0  0  0  0
   14.6683  -16.8418   22.7956 N   0  0  0  0  0  0  0  0  0  0  0  0
   14.7525  -15.6274   22.1075 C   0  0  0  0  0  0  0  0  0  0  0  0
   15.8995  -15.0478   22.1266 O   0  0  0  0  0  0  0  0  0  0  0  0
   13.7106  -14.9282   21.3674 C   0  0  0  0  0  0  0  0  0  0  0  0
   12.3957  -15.5993   21.2344 C   0  0  2  0  0  0  0  0  0  0  0  0
   11.5227  -14.6718   20.5039 N   0  0  0  0  0  0  0  0  0  0  0  0
   11.7917  -15.8251   22.5596 C   0  0  0  0  0  0  0  0  0  0  0  0
   10.8115  -15.2053   22.9968 O   0  0  0  0  0  0  0  0  0  0  0  0
   12.3258  -16.8022   23.4320 O   0  0  0  0  0  0  0  0  0  0  0  0
  2  1  1  6
  2  9  1  0
  3  4  1  0
  3  2  1  0
  4  8  1  0
  5  4  2  0
  5  6  1  0
  6  7  1  0
  8  7  2  0
  9 10  2  0
 12 11  1  6
 12 14  1  0
 13 12  1  0
 14 16  1  0
 14 15  1  6
 15  9  1  0
 16 17  2  0
 16 23  1  0
 18 19  1  0
 19 21  1  0
 20 19  2  0
 22 21  1  1
 22 24  1  0
 23 22  1  0
 24 25  2  0
 24 26  1  0
M  END
$$$$
