HTN.pdb
     RDKit          3D

 26 26  0  0  1  0  0  0  0  0999 V2000
   10.9177  -16.8064   17.7738 N   0  0  0  0  0  0  0  0  0  0  0  0
    9.9355  -17.3007   18.7115 C   0  0  1  0  0  0  0  0  0  0  0  0
   10.1285  -18.7675   18.8736 C   0  0  0  0  0  0  0  0  0  0  0  0
    9.2911  -19.5841   17.9698 C   0  0  0  0  0  0  0  0  0  0  0  0
    8.4364  -19.1519   16.9866 C   0  0  0  0  0  0  0  0  0  0  0  0
    7.8914  -20.2468   16.4090 N   0  0  0  0  0  0  0  0  0  0  0  0
    8.3789  -21.3428   17.0002 C   0  0  0  0  0  0  0  0  0  0  0  0
    9.2333  -20.9458   17.9529 N   0  0  0  0  0  0  0  0  0  0  0  0
   10.0403  -16.5129   19.9691 C   0  0  0  0  0  0  0  0  0  0  0  0
   11.1714  -16.2143   20.4569 O   0  0  0  0  0  0  0  0  0  0  0  0
    7.4546  -13.5249   21.1606 C   0  0  0  0  0  0  0  0  0  0  0  0
    7.6412  -14.6280   22.1713 C   0  0  1  0  0  0  0  0  0  0  0  0
    6.4715  -15.3589   22.1922 O   0  0  0  0  0  0  0  0  0  0  0  0
    8.8584  -15.4440   21.9657 C   0  0  2  0  0  0  0  0  0  0  0  0
    8.8847  -16.0777   20.6554 N   0  0  0  0  0  0  0  0  0  0  0  0
    9.2526  -16.3468   23.0664 C   0  0  0  0  0  0  0  0  0  0  0  0
    8.7414  -17.5144   23.2232 O   0  0  0  0  0  0  0  0  0  0  0  0
   13.8817  -16.0617   23.7566 N   0  0  0  0  0  0  0  0  0  0  0  0
   12.9095  -16.9603   24.2068 C   0  0  0  0  0  0  0  0  0  0  0  0
   12.7748  -18.0363   23.5169 O   0  0  0  0  0  0  0  0  0  0  0  0
   12.0256  -16.8410   25.3587 C   0  0  0  0  0  0  0  0  0  0  0  0
   10.5691  -16.9832   25.1232 C   0  0  2  0  0  0  0  0  0  0  0  0
   10.2218  -16.0367   24.0557 N   0  0  0  0  0  0  0  0  0  0  0  0
    9.8086  -16.5944   26.3243 C   0  0  0  0  0  0  0  0  0  0  0  0
    9.8931  -17.1653   27.4213 O   0  0  0  0  0  0  0  0  0  0  0  0
    8.9082  -15.5046   26.2792 O   0  0  0  0  0  0  0  0  0  0  0  0
  2  1  1  6
  2  9  1  0
  3  4  1  0
  3  2  1  0
  4  8  1  0
  5  4  2  0
  5  6  1  0
  6  7  1  0
  8  7  2  0
  9 10  2  0
 12 11  1  6
 12 14  1  0
 13 12  1  0
 14 16  1  0
 14 15  1  6
 15  9  1  0
 16 17  2  0
 16 23  1  0
 18 19  1  0
 19 21  1  0
 20 19  2  0
 22 21  1  1
 22 24  1  0
 23 22  1  0
 24 25  2  0
 24 26  1  0
M  END
$$$$
