HTN.pdb
     RDKit          3D

 26 26  0  0  1  0  0  0  0  0999 V2000
   10.3472  -15.3477   13.3166 N   0  0  0  0  0  0  0  0  0  0  0  0
   10.1839  -16.0907   14.5453 C   0  0  1  0  0  0  0  0  0  0  0  0
   10.8378  -17.4185   14.3888 C   0  0  0  0  0  0  0  0  0  0  0  0
   10.3223  -18.2081   13.2505 C   0  0  0  0  0  0  0  0  0  0  0  0
    9.0219  -18.3402   12.8315 C   0  0  0  0  0  0  0  0  0  0  0  0
    9.0223  -19.1488   11.7473 N   0  0  0  0  0  0  0  0  0  0  0  0
   10.2783  -19.5223   11.4795 C   0  0  0  0  0  0  0  0  0  0  0  0
   11.0761  -18.9520   12.3925 N   0  0  0  0  0  0  0  0  0  0  0  0
   10.7011  -15.2671   15.6710 C   0  0  0  0  0  0  0  0  0  0  0  0
   11.7898  -14.6273   15.5619 O   0  0  0  0  0  0  0  0  0  0  0  0
    8.3985  -13.1381   18.1994 C   0  0  0  0  0  0  0  0  0  0  0  0
    9.3749  -14.0134   18.9433 C   0  0  1  0  0  0  0  0  0  0  0  0
    8.6376  -14.9883   19.5827 O   0  0  0  0  0  0  0  0  0  0  0  0
   10.4781  -14.5414   18.1102 C   0  0  2  0  0  0  0  0  0  0  0  0
    9.9963  -15.1764   16.8921 N   0  0  0  0  0  0  0  0  0  0  0  0
   11.5292  -15.3141   18.8031 C   0  0  0  0  0  0  0  0  0  0  0  0
   12.1315  -16.3093   18.2592 O   0  0  0  0  0  0  0  0  0  0  0  0
   16.2690  -14.2905   21.4974 N   0  0  0  0  0  0  0  0  0  0  0  0
   15.6277  -14.2482   20.2555 C   0  0  0  0  0  0  0  0  0  0  0  0
   16.3962  -14.2276   19.2255 O   0  0  0  0  0  0  0  0  0  0  0  0
   14.1992  -14.2257   19.9708 C   0  0  0  0  0  0  0  0  0  0  0  0
   13.3715  -15.3220   20.5278 C   0  0  2  0  0  0  0  0  0  0  0  0
   11.9869  -15.0514   20.1206 N   0  0  0  0  0  0  0  0  0  0  0  0
   13.4111  -15.3054   22.0009 C   0  0  0  0  0  0  0  0  0  0  0  0
   14.4177  -15.5626   22.6769 O   0  0  0  0  0  0  0  0  0  0  0  0
   12.2522  -14.9809   22.7441 O   0  0  0  0  0  0  0  0  0  0  0  0
  2  1  1  6
  2  9  1  0
  3  4  1  0
  3  2  1  0
  4  8  1  0
  5  4  2  0
  5  6  1  0
  6  7  1  0
  8  7  2  0
  9 10  2  0
 12 11  1  6
 12 14  1  0
 13 12  1  0
 14 16  1  0
 14 15  1  6
 15  9  1  0
 16 17  2  0
 16 23  1  0
 18 19  1  0
 19 21  1  0
 20 19  2  0
 22 21  1  6
 22 24  1  0
 23 22  1  0
 24 25  2  0
 24 26  1  0
M  END
$$$$
