CWY.pdb
     RDKit          3D

 33 35  0  0  1  0  0  0  0  0999 V2000
   24.6313  -20.4587  -15.3423 N   0  0  0  0  0  0  0  0  0  0  0  0
   23.8776  -21.6365  -14.9244 C   0  0  1  0  0  0  0  0  0  0  0  0
   24.8379  -22.4880  -14.1283 C   0  0  0  0  0  0  0  0  0  0  0  0
   24.0852  -24.0925  -13.7850 S   0  0  0  0  0  0  0  0  0  0  0  0
   22.7215  -21.1569  -14.1258 C   0  0  0  0  0  0  0  0  0  0  0  0
   22.8985  -20.2944  -13.1951 O   0  0  0  0  0  0  0  0  0  0  0  0
   21.3883  -21.5760  -14.2998 N   0  0  0  0  0  0  0  0  0  0  0  0
   20.2765  -21.1320  -13.4815 C   0  0  1  0  0  0  0  0  0  0  0  0
   19.2270  -20.4471  -14.3159 C   0  0  0  0  0  0  0  0  0  0  0  0
   19.5797  -19.1103  -14.8010 C   0  0  0  0  0  0  0  0  0  0  0  0
   20.2489  -18.8577  -16.0100 C   0  0  0  0  0  0  0  0  0  0  0  0
   20.4106  -17.5420  -16.1791 N   0  0  0  0  0  0  0  0  0  0  0  0
   19.8731  -16.8938  -15.1245 C   0  0  0  0  0  0  0  0  0  0  0  0
   19.7975  -15.5543  -14.8454 C   0  0  0  0  0  0  0  0  0  0  0  0
   19.1901  -15.1238  -13.6734 C   0  0  0  0  0  0  0  0  0  0  0  0
   18.6882  -16.0905  -12.8408 C   0  0  0  0  0  0  0  0  0  0  0  0
   18.7573  -17.4485  -13.1095 C   0  0  0  0  0  0  0  0  0  0  0  0
   19.3595  -17.8790  -14.2736 C   0  0  0  0  0  0  0  0  0  0  0  0
   19.7946  -22.1187  -12.5172 C   0  0  0  0  0  0  0  0  0  0  0  0
   19.7993  -23.3767  -12.7605 O   0  0  0  0  0  0  0  0  0  0  0  0
   16.8690  -25.4673   -4.9659 O   0  0  0  0  0  0  0  0  0  0  0  0
   17.3357  -24.6217   -5.9591 C   0  0  0  0  0  0  0  0  0  0  0  0
   18.6524  -24.7115   -6.3029 C   0  0  0  0  0  0  0  0  0  0  0  0
   19.1279  -23.8823   -7.2828 C   0  0  0  0  0  0  0  0  0  0  0  0
   18.2618  -22.9809   -7.8931 C   0  0  0  0  0  0  0  0  0  0  0  0
   18.7970  -22.0906   -8.9309 C   0  0  0  0  0  0  0  0  0  0  0  0
   18.8159  -22.8001  -10.2994 C   0  0  2  0  0  0  0  0  0  0  0  0
   19.2881  -21.7537  -11.2244 N   0  0  0  0  0  0  0  0  0  0  0  0
   17.4303  -23.1636  -10.6413 C   0  0  0  0  0  0  0  0  0  0  0  0
   16.5801  -22.3368  -11.0640 O   0  0  0  0  0  0  0  0  0  0  0  0
   16.9390  -22.8910   -7.5472 C   0  0  0  0  0  0  0  0  0  0  0  0
   16.4614  -23.7369   -6.5503 C   0  0  0  0  0  0  0  0  0  0  0  0
   16.9842  -24.4735  -10.5105 O   0  0  0  0  0  0  0  0  0  0  0  0
  2  1  1  1
  3  2  1  0
  4  3  1  0
  5  2  1  0
  5  6  2  0
  7  5  1  0
  8  7  1  0
  8  9  1  6
 10  9  1  0
 10 18  1  0
 11 12  1  0
 11 10  2  0
 12 13  1  0
 13 14  2  0
 13 18  1  0
 14 15  1  0
 15 16  2  0
 17 16  1  0
 18 17  2  0
 19  8  1  0
 20 19  2  0
 22 23  2  0
 22 21  1  0
 24 23  1  0
 25 24  2  0
 27 26  1  1
 26 25  1  0
 27 28  1  0
 28 19  1  0
 29 27  1  0
 29 33  1  0
 30 29  2  0
 31 25  1  0
 31 32  2  0
 32 22  1  0
M  END
$$$$
