CWY.pdb
     RDKit          3D

 33 35  0  0  1  0  0  0  0  0999 V2000
   29.0139  -21.1316  -16.0150 N   0  0  0  0  0  0  0  0  0  0  0  0
   28.7506  -20.1818  -14.9387 C   0  0  1  0  0  0  0  0  0  0  0  0
   28.1471  -18.9623  -15.5940 C   0  0  0  0  0  0  0  0  0  0  0  0
   29.3923  -17.6611  -15.7183 S   0  0  0  0  0  0  0  0  0  0  0  0
   27.8304  -20.8471  -13.9821 C   0  0  0  0  0  0  0  0  0  0  0  0
   26.8167  -21.4998  -14.4156 O   0  0  0  0  0  0  0  0  0  0  0  0
   27.9696  -20.8304  -12.5807 N   0  0  0  0  0  0  0  0  0  0  0  0
   26.9875  -21.3583  -11.6535 C   0  0  1  0  0  0  0  0  0  0  0  0
   27.6171  -21.6944  -10.3279 C   0  0  0  0  0  0  0  0  0  0  0  0
   27.1240  -20.9258   -9.1821 C   0  0  0  0  0  0  0  0  0  0  0  0
   25.8331  -20.3794   -9.0916 C   0  0  0  0  0  0  0  0  0  0  0  0
   25.6813  -19.7512   -7.9219 N   0  0  0  0  0  0  0  0  0  0  0  0
   26.8270  -19.8534   -7.2160 C   0  0  0  0  0  0  0  0  0  0  0  0
   27.1556  -19.3730   -5.9755 C   0  0  0  0  0  0  0  0  0  0  0  0
   28.4215  -19.6066   -5.4549 C   0  0  0  0  0  0  0  0  0  0  0  0
   29.2926  -20.3235   -6.2339 C   0  0  0  0  0  0  0  0  0  0  0  0
   28.9745  -20.8156   -7.4901 C   0  0  0  0  0  0  0  0  0  0  0  0
   27.7173  -20.5857   -8.0095 C   0  0  0  0  0  0  0  0  0  0  0  0
   25.7314  -20.6129  -11.6033 C   0  0  0  0  0  0  0  0  0  0  0  0
   25.6920  -19.3322  -11.6018 O   0  0  0  0  0  0  0  0  0  0  0  0
   23.7091  -25.3994  -15.8973 O   0  0  0  0  0  0  0  0  0  0  0  0
   23.6252  -24.1497  -15.3053 C   0  0  0  0  0  0  0  0  0  0  0  0
   24.7808  -23.4432  -15.1465 C   0  0  0  0  0  0  0  0  0  0  0  0
   24.7135  -22.2066  -14.5631 C   0  0  0  0  0  0  0  0  0  0  0  0
   23.4795  -21.7122  -14.1532 C   0  0  0  0  0  0  0  0  0  0  0  0
   23.4330  -20.3901  -13.5160 C   0  0  0  0  0  0  0  0  0  0  0  0
   23.2451  -20.5270  -11.9920 C   0  0  2  0  0  0  0  0  0  0  0  0
   24.4499  -21.2585  -11.5598 N   0  0  0  0  0  0  0  0  0  0  0  0
   22.0561  -21.3632  -11.7547 C   0  0  0  0  0  0  0  0  0  0  0  0
   20.8846  -21.0003  -12.0390 O   0  0  0  0  0  0  0  0  0  0  0  0
   22.3188  -22.4226  -14.3128 C   0  0  0  0  0  0  0  0  0  0  0  0
   22.3937  -23.6791  -14.9068 C   0  0  0  0  0  0  0  0  0  0  0  0
   22.1754  -22.6279  -11.1907 O   0  0  0  0  0  0  0  0  0  0  0  0
  2  1  1  6
  3  2  1  0
  4  3  1  0
  5  2  1  0
  5  6  2  0
  7  5  1  0
  8  7  1  0
  8  9  1  1
 10  9  1  0
 10 18  1  0
 11 12  1  0
 11 10  2  0
 12 13  1  0
 13 14  2  0
 13 18  1  0
 14 15  1  0
 15 16  2  0
 17 16  1  0
 18 17  2  0
 19  8  1  0
 20 19  2  0
 22 23  2  0
 22 21  1  0
 24 23  1  0
 25 24  2  0
 27 26  1  6
 26 25  1  0
 27 28  1  0
 28 19  1  0
 29 27  1  0
 29 33  1  0
 30 29  2  0
 31 25  1  0
 31 32  2  0
 32 22  1  0
M  END
$$$$
