CWY.pdb
     RDKit          3D

 33 35  0  0  1  0  0  0  0  0999 V2000
   27.0368  -24.9345  -16.3780 N   0  0  0  0  0  0  0  0  0  0  0  0
   26.3473  -23.6938  -16.7172 C   0  0  1  0  0  0  0  0  0  0  0  0
   25.7231  -23.9183  -18.0739 C   0  0  0  0  0  0  0  0  0  0  0  0
   27.0193  -24.0617  -19.3222 S   0  0  0  0  0  0  0  0  0  0  0  0
   25.3479  -23.4411  -15.6486 C   0  0  0  0  0  0  0  0  0  0  0  0
   24.7487  -24.4236  -15.0856 O   0  0  0  0  0  0  0  0  0  0  0  0
   24.9779  -22.1689  -15.1711 N   0  0  0  0  0  0  0  0  0  0  0  0
   23.9869  -21.9380  -14.1380 C   0  0  1  0  0  0  0  0  0  0  0  0
   24.2248  -20.6252  -13.4403 C   0  0  0  0  0  0  0  0  0  0  0  0
   23.3862  -20.3738  -12.2655 C   0  0  0  0  0  0  0  0  0  0  0  0
   23.6761  -20.8377  -10.9717 C   0  0  0  0  0  0  0  0  0  0  0  0
   22.7331  -20.4316  -10.1162 N   0  0  0  0  0  0  0  0  0  0  0  0
   21.8130  -19.7076  -10.7873 C   0  0  0  0  0  0  0  0  0  0  0  0
   20.6710  -19.0905  -10.3484 C   0  0  0  0  0  0  0  0  0  0  0  0
   19.8693  -18.3972  -11.2455 C   0  0  0  0  0  0  0  0  0  0  0  0
   20.2782  -18.3702  -12.5538 C   0  0  0  0  0  0  0  0  0  0  0  0
   21.4303  -18.9895  -13.0123 C   0  0  0  0  0  0  0  0  0  0  0  0
   22.2291  -19.6783  -12.1231 C   0  0  0  0  0  0  0  0  0  0  0  0
   22.6095  -22.2181  -14.5382 C   0  0  0  0  0  0  0  0  0  0  0  0
   22.1267  -21.8278  -15.6591 O   0  0  0  0  0  0  0  0  0  0  0  0
   15.0397  -25.9890  -15.9750 O   0  0  0  0  0  0  0  0  0  0  0  0
   16.3266  -25.6586  -15.5830 C   0  0  0  0  0  0  0  0  0  0  0  0
   16.6285  -25.7452  -14.2559 C   0  0  0  0  0  0  0  0  0  0  0  0
   17.8964  -25.4219  -13.8536 C   0  0  0  0  0  0  0  0  0  0  0  0
   18.8306  -25.0181  -14.8020 C   0  0  0  0  0  0  0  0  0  0  0  0
   20.1800  -24.6614  -14.3460 C   0  0  0  0  0  0  0  0  0  0  0  0
   20.2998  -23.1384  -14.1399 C   0  0  2  0  0  0  0  0  0  0  0  0
   21.6984  -22.9569  -13.7105 N   0  0  0  0  0  0  0  0  0  0  0  0
   19.3987  -22.7572  -13.0391 C   0  0  0  0  0  0  0  0  0  0  0  0
   19.7195  -22.8278  -11.8237 O   0  0  0  0  0  0  0  0  0  0  0  0
   18.5267  -24.9310  -16.1352 C   0  0  0  0  0  0  0  0  0  0  0  0
   17.2360  -25.2613  -16.5380 C   0  0  0  0  0  0  0  0  0  0  0  0
   18.1164  -22.2875  -13.2979 O   0  0  0  0  0  0  0  0  0  0  0  0
  2  1  1  1
  3  2  1  0
  4  3  1  0
  5  2  1  0
  5  6  2  0
  7  5  1  0
  8  7  1  0
  8  9  1  6
 10  9  1  0
 10 18  1  0
 11 12  1  0
 11 10  2  0
 12 13  1  0
 13 14  2  0
 13 18  1  0
 14 15  1  0
 15 16  2  0
 17 16  1  0
 18 17  2  0
 19  8  1  0
 20 19  2  0
 22 23  2  0
 22 21  1  0
 24 23  1  0
 25 24  2  0
 27 26  1  1
 26 25  1  0
 27 28  1  0
 28 19  1  0
 29 27  1  0
 29 33  1  0
 30 29  2  0
 31 25  1  0
 31 32  2  0
 32 22  1  0
M  END
$$$$
