CWY.pdb
     RDKit          3D

 33 35  0  0  1  0  0  0  0  0999 V2000
   27.2005  -24.2954  -17.5483 N   0  0  0  0  0  0  0  0  0  0  0  0
   26.7326  -25.6482  -17.2641 C   0  0  1  0  0  0  0  0  0  0  0  0
   27.7347  -26.2456  -16.3050 C   0  0  0  0  0  0  0  0  0  0  0  0
   29.2419  -26.6839  -17.1969 S   0  0  0  0  0  0  0  0  0  0  0  0
   25.3701  -25.5287  -16.6865 C   0  0  0  0  0  0  0  0  0  0  0  0
   25.0936  -24.5645  -15.8894 O   0  0  0  0  0  0  0  0  0  0  0  0
   24.3029  -26.4117  -16.9413 N   0  0  0  0  0  0  0  0  0  0  0  0
   22.9803  -26.2877  -16.3599 C   0  0  1  0  0  0  0  0  0  0  0  0
   21.9473  -25.9971  -17.4159 C   0  0  0  0  0  0  0  0  0  0  0  0
   22.0082  -24.6577  -18.0067 C   0  0  0  0  0  0  0  0  0  0  0  0
   22.9719  -24.2483  -18.9431 C   0  0  0  0  0  0  0  0  0  0  0  0
   22.7525  -22.9803  -19.3034 N   0  0  0  0  0  0  0  0  0  0  0  0
   21.6717  -22.5160  -18.6419 C   0  0  0  0  0  0  0  0  0  0  0  0
   21.0665  -21.2870  -18.6746 C   0  0  0  0  0  0  0  0  0  0  0  0
   19.9502  -21.0431  -17.8858 C   0  0  0  0  0  0  0  0  0  0  0  0
   19.5067  -22.0742  -17.0986 C   0  0  0  0  0  0  0  0  0  0  0  0
   20.1083  -23.3221  -17.0550 C   0  0  0  0  0  0  0  0  0  0  0  0
   21.2171  -23.5675  -17.8382 C   0  0  0  0  0  0  0  0  0  0  0  0
   22.6394  -27.3255  -15.3890 C   0  0  0  0  0  0  0  0  0  0  0  0
   22.7928  -28.5736  -15.6348 O   0  0  0  0  0  0  0  0  0  0  0  0
   20.0235  -30.9934   -7.8848 O   0  0  0  0  0  0  0  0  0  0  0  0
   20.4850  -30.1162   -8.8527 C   0  0  0  0  0  0  0  0  0  0  0  0
   19.6147  -29.1802   -9.3286 C   0  0  0  0  0  0  0  0  0  0  0  0
   20.0566  -28.3065  -10.2853 C   0  0  0  0  0  0  0  0  0  0  0  0
   21.3682  -28.3987  -10.7395 C   0  0  0  0  0  0  0  0  0  0  0  0
   21.8161  -27.4612  -11.7771 C   0  0  0  0  0  0  0  0  0  0  0  0
   21.7568  -28.1211  -13.1690 C   0  0  2  0  0  0  0  0  0  0  0  0
   22.1153  -27.0245  -14.0868 N   0  0  0  0  0  0  0  0  0  0  0  0
   20.3640  -28.5297  -13.4185 C   0  0  0  0  0  0  0  0  0  0  0  0
   19.9630  -29.7196  -13.3276 O   0  0  0  0  0  0  0  0  0  0  0  0
   22.2420  -29.3394  -10.2612 C   0  0  0  0  0  0  0  0  0  0  0  0
   21.7869  -30.2248   -9.2884 C   0  0  0  0  0  0  0  0  0  0  0  0
   19.3999  -27.5942  -13.7752 O   0  0  0  0  0  0  0  0  0  0  0  0
  2  1  1  1
  3  2  1  0
  4  3  1  0
  5  2  1  0
  5  6  2  0
  7  5  1  0
  8  7  1  0
  8  9  1  6
 10  9  1  0
 10 18  1  0
 11 12  1  0
 11 10  2  0
 12 13  1  0
 13 14  2  0
 13 18  1  0
 14 15  1  0
 15 16  2  0
 17 16  1  0
 18 17  2  0
 19  8  1  0
 20 19  2  0
 22 23  2  0
 22 21  1  0
 24 23  1  0
 25 24  2  0
 27 26  1  1
 26 25  1  0
 27 28  1  0
 28 19  1  0
 29 27  1  0
 29 33  1  0
 30 29  2  0
 31 25  1  0
 31 32  2  0
 32 22  1  0
M  END
$$$$
