CWY.pdb
     RDKit          3D

 33 35  0  0  1  0  0  0  0  0999 V2000
   28.2686  -21.1921  -12.9892 N   0  0  0  0  0  0  0  0  0  0  0  0
   27.4126  -20.1571  -12.4182 C   0  0  1  0  0  0  0  0  0  0  0  0
   26.4130  -19.8000  -13.4925 C   0  0  0  0  0  0  0  0  0  0  0  0
   27.0953  -18.5061  -14.5505 S   0  0  0  0  0  0  0  0  0  0  0  0
   26.7835  -20.7303  -11.2016 C   0  0  0  0  0  0  0  0  0  0  0  0
   26.5584  -21.9894  -11.1284 O   0  0  0  0  0  0  0  0  0  0  0  0
   26.3927  -19.9914  -10.0681 N   0  0  0  0  0  0  0  0  0  0  0  0
   25.7161  -20.5551   -8.9160 C   0  0  1  0  0  0  0  0  0  0  0  0
   25.6571  -19.5658   -7.7826 C   0  0  0  0  0  0  0  0  0  0  0  0
   26.9372  -19.2737   -7.1325 C   0  0  0  0  0  0  0  0  0  0  0  0
   27.6788  -18.0982   -7.3364 C   0  0  0  0  0  0  0  0  0  0  0  0
   28.7883  -18.1203   -6.5919 N   0  0  0  0  0  0  0  0  0  0  0  0
   28.8237  -19.2723   -5.8897 C   0  0  0  0  0  0  0  0  0  0  0  0
   29.7536  -19.7471   -5.0022 C   0  0  0  0  0  0  0  0  0  0  0  0
   29.5688  -20.9849   -4.4008 C   0  0  0  0  0  0  0  0  0  0  0  0
   28.4361  -21.6789   -4.7398 C   0  0  0  0  0  0  0  0  0  0  0  0
   27.4871  -21.2117   -5.6355 C   0  0  0  0  0  0  0  0  0  0  0  0
   27.6678  -19.9819   -6.2339 C   0  0  0  0  0  0  0  0  0  0  0  0
   24.4753  -21.2641   -9.2219 C   0  0  0  0  0  0  0  0  0  0  0  0
   24.2074  -21.7058  -10.3944 O   0  0  0  0  0  0  0  0  0  0  0  0
   16.6881  -23.2264  -11.3821 O   0  0  0  0  0  0  0  0  0  0  0  0
   17.9980  -23.0585  -10.9634 C   0  0  0  0  0  0  0  0  0  0  0  0
   18.7443  -22.0987  -11.5812 C   0  0  0  0  0  0  0  0  0  0  0  0
   20.0403  -21.9212  -11.1780 C   0  0  0  0  0  0  0  0  0  0  0  0
   20.5529  -22.7181  -10.1594 C   0  0  0  0  0  0  0  0  0  0  0  0
   21.9502  -22.5207   -9.7536 C   0  0  0  0  0  0  0  0  0  0  0  0
   22.0441  -21.4934   -8.6080 C   0  0  2  0  0  0  0  0  0  0  0  0
   23.4692  -21.5250   -8.2317 N   0  0  0  0  0  0  0  0  0  0  0  0
   21.2323  -21.9912   -7.4845 C   0  0  0  0  0  0  0  0  0  0  0  0
   19.9779  -22.0907   -7.5254 O   0  0  0  0  0  0  0  0  0  0  0  0
   19.8027  -23.6823   -9.5392 C   0  0  0  0  0  0  0  0  0  0  0  0
   18.4855  -23.8579   -9.9534 C   0  0  0  0  0  0  0  0  0  0  0  0
   21.8299  -22.3861   -6.2934 O   0  0  0  0  0  0  0  0  0  0  0  0
  2  1  1  6
  3  2  1  0
  4  3  1  0
  5  2  1  0
  5  6  2  0
  7  5  1  0
  8  7  1  0
  8  9  1  1
 10  9  1  0
 10 18  1  0
 11 12  1  0
 11 10  2  0
 12 13  1  0
 13 14  2  0
 13 18  1  0
 14 15  1  0
 15 16  2  0
 17 16  1  0
 18 17  2  0
 19  8  1  0
 20 19  2  0
 22 23  2  0
 22 21  1  0
 24 23  1  0
 25 24  2  0
 27 26  1  6
 26 25  1  0
 27 28  1  0
 28 19  1  0
 29 27  1  0
 29 33  1  0
 30 29  2  0
 31 25  1  0
 31 32  2  0
 32 22  1  0
M  END
$$$$
