CWY.pdb
     RDKit          3D

 33 35  0  0  1  0  0  0  0  0999 V2000
   32.6358  -25.0112  -14.9882 N   0  0  0  0  0  0  0  0  0  0  0  0
   32.0533  -25.0305  -16.3262 C   0  0  1  0  0  0  0  0  0  0  0  0
   33.0570  -25.7315  -17.2104 C   0  0  0  0  0  0  0  0  0  0  0  0
   34.5435  -24.7184  -17.3629 S   0  0  0  0  0  0  0  0  0  0  0  0
   30.7572  -25.7484  -16.2298 C   0  0  0  0  0  0  0  0  0  0  0  0
   30.5155  -26.5033  -15.2233 O   0  0  0  0  0  0  0  0  0  0  0  0
   29.7201  -25.6770  -17.1799 N   0  0  0  0  0  0  0  0  0  0  0  0
   28.4856  -26.4341  -17.1037 C   0  0  1  0  0  0  0  0  0  0  0  0
   27.3267  -25.6400  -17.6450 C   0  0  0  0  0  0  0  0  0  0  0  0
   26.8991  -24.5061  -16.8215 C   0  0  0  0  0  0  0  0  0  0  0  0
   27.5755  -23.2767  -16.7543 C   0  0  0  0  0  0  0  0  0  0  0  0
   26.9315  -22.4428  -15.9322 N   0  0  0  0  0  0  0  0  0  0  0  0
   25.8407  -23.0662  -15.4394 C   0  0  0  0  0  0  0  0  0  0  0  0
   24.8817  -22.6268  -14.5648 C   0  0  0  0  0  0  0  0  0  0  0  0
   23.8406  -23.4689  -14.1976 C   0  0  0  0  0  0  0  0  0  0  0  0
   23.8328  -24.7253  -14.7463 C   0  0  0  0  0  0  0  0  0  0  0  0
   24.7955  -25.1836  -15.6319 C   0  0  0  0  0  0  0  0  0  0  0  0
   25.8307  -24.3488  -15.9991 C   0  0  0  0  0  0  0  0  0  0  0  0
   28.5891  -27.8196  -17.5569 C   0  0  0  0  0  0  0  0  0  0  0  0
   29.3373  -28.1680  -18.5370 O   0  0  0  0  0  0  0  0  0  0  0  0
   31.2291  -35.7391  -17.6817 O   0  0  0  0  0  0  0  0  0  0  0  0
   30.8248  -34.4308  -17.4720 C   0  0  0  0  0  0  0  0  0  0  0  0
   30.6548  -34.0172  -16.1836 C   0  0  0  0  0  0  0  0  0  0  0  0
   30.2557  -32.7269  -15.9608 C   0  0  0  0  0  0  0  0  0  0  0  0
   30.0371  -31.8837  -17.0454 C   0  0  0  0  0  0  0  0  0  0  0  0
   29.5946  -30.5083  -16.7834 C   0  0  0  0  0  0  0  0  0  0  0  0
   28.1618  -30.2886  -17.3079 C   0  0  2  0  0  0  0  0  0  0  0  0
   27.8674  -28.8931  -16.9343 N   0  0  0  0  0  0  0  0  0  0  0  0
   27.2640  -31.1911  -16.5672 C   0  0  0  0  0  0  0  0  0  0  0  0
   26.9843  -31.0449  -15.3485 O   0  0  0  0  0  0  0  0  0  0  0  0
   30.2078  -32.2998  -18.3396 C   0  0  0  0  0  0  0  0  0  0  0  0
   30.6140  -33.6127  -18.5597 C   0  0  0  0  0  0  0  0  0  0  0  0
   26.6662  -32.2763  -17.1970 O   0  0  0  0  0  0  0  0  0  0  0  0
  2  1  1  1
  3  2  1  0
  4  3  1  0
  5  2  1  0
  5  6  2  0
  7  5  1  0
  8  7  1  0
  8  9  1  6
 10  9  1  0
 10 18  1  0
 11 12  1  0
 11 10  2  0
 12 13  1  0
 13 14  2  0
 13 18  1  0
 14 15  1  0
 15 16  2  0
 17 16  1  0
 18 17  2  0
 19  8  1  0
 20 19  2  0
 22 23  2  0
 22 21  1  0
 24 23  1  0
 25 24  2  0
 27 26  1  1
 26 25  1  0
 27 28  1  0
 28 19  1  0
 29 27  1  0
 29 33  1  0
 30 29  2  0
 31 25  1  0
 31 32  2  0
 32 22  1  0
M  END
$$$$
