CWY.pdb
     RDKit          3D

 33 35  0  0  1  0  0  0  0  0999 V2000
   28.5887  -21.7037  -15.0110 N   0  0  0  0  0  0  0  0  0  0  0  0
   28.2453  -20.5372  -14.2041 C   0  0  1  0  0  0  0  0  0  0  0  0
   27.8386  -19.4580  -15.1791 C   0  0  0  0  0  0  0  0  0  0  0  0
   27.4386  -17.9455  -14.2783 S   0  0  0  0  0  0  0  0  0  0  0  0
   27.1478  -20.9435  -13.2905 C   0  0  0  0  0  0  0  0  0  0  0  0
   26.2836  -21.8093  -13.6714 O   0  0  0  0  0  0  0  0  0  0  0  0
   26.9553  -20.4481  -11.9864 N   0  0  0  0  0  0  0  0  0  0  0  0
   25.7982  -20.7387  -11.1620 C   0  0  1  0  0  0  0  0  0  0  0  0
   25.9979  -20.2481   -9.7527 C   0  0  0  0  0  0  0  0  0  0  0  0
   27.2540  -20.6521   -9.1158 C   0  0  0  0  0  0  0  0  0  0  0  0
   28.1898  -21.5257   -9.6941 C   0  0  0  0  0  0  0  0  0  0  0  0
   29.2355  -21.6845   -8.8773 N   0  0  0  0  0  0  0  0  0  0  0  0
   29.0397  -20.9474   -7.7639 C   0  0  0  0  0  0  0  0  0  0  0  0
   29.8219  -20.7902   -6.6498 C   0  0  0  0  0  0  0  0  0  0  0  0
   29.3967  -19.9679   -5.6149 C   0  0  0  0  0  0  0  0  0  0  0  0
   28.1858  -19.3447   -5.7723 C   0  0  0  0  0  0  0  0  0  0  0  0
   27.3838  -19.4941   -6.8929 C   0  0  0  0  0  0  0  0  0  0  0  0
   27.8042  -20.3098   -7.9230 C   0  0  0  0  0  0  0  0  0  0  0  0
   24.5121  -20.4244  -11.7809 C   0  0  0  0  0  0  0  0  0  0  0  0
   24.2721  -19.2917  -12.3298 O   0  0  0  0  0  0  0  0  0  0  0  0
   17.1638  -21.0463  -16.2432 O   0  0  0  0  0  0  0  0  0  0  0  0
   18.3592  -21.2705  -15.5800 C   0  0  0  0  0  0  0  0  0  0  0  0
   19.4196  -20.4727  -15.8947 C   0  0  0  0  0  0  0  0  0  0  0  0
   20.6074  -20.6824  -15.2474 C   0  0  0  0  0  0  0  0  0  0  0  0
   20.6967  -21.6939  -14.2966 C   0  0  0  0  0  0  0  0  0  0  0  0
   21.9848  -21.9109  -13.6258 C   0  0  0  0  0  0  0  0  0  0  0  0
   22.1367  -20.9627  -12.4200 C   0  0  2  0  0  0  0  0  0  0  0  0
   23.4260  -21.3621  -11.8268 N   0  0  0  0  0  0  0  0  0  0  0  0
   21.0508  -21.2588  -11.4701 C   0  0  0  0  0  0  0  0  0  0  0  0
   19.9751  -20.6066  -11.4207 O   0  0  0  0  0  0  0  0  0  0  0  0
   19.6311  -22.4953  -13.9809 C   0  0  0  0  0  0  0  0  0  0  0  0
   18.4260  -22.2771  -14.6423 C   0  0  0  0  0  0  0  0  0  0  0  0
   21.1658  -22.3021  -10.5590 O   0  0  0  0  0  0  0  0  0  0  0  0
  2  1  1  6
  3  2  1  0
  4  3  1  0
  5  2  1  0
  5  6  2  0
  7  5  1  0
  8  7  1  0
  8  9  1  1
 10  9  1  0
 10 18  1  0
 11 12  1  0
 11 10  2  0
 12 13  1  0
 13 14  2  0
 13 18  1  0
 14 15  1  0
 15 16  2  0
 17 16  1  0
 18 17  2  0
 19  8  1  0
 20 19  2  0
 22 23  2  0
 22 21  1  0
 24 23  1  0
 25 24  2  0
 27 26  1  6
 26 25  1  0
 27 28  1  0
 28 19  1  0
 29 27  1  0
 29 33  1  0
 30 29  2  0
 31 25  1  0
 31 32  2  0
 32 22  1  0
M  END
$$$$
