CWY.pdb
     RDKit          3D

 33 35  0  0  1  0  0  0  0  0999 V2000
   26.7291   -7.5877  -20.4832 N   0  0  0  0  0  0  0  0  0  0  0  0
   25.4293   -7.0891  -20.0453 C   0  0  1  0  0  0  0  0  0  0  0  0
   24.6033   -6.9151  -21.2976 C   0  0  0  0  0  0  0  0  0  0  0  0
   22.9392   -6.3717  -20.8565 S   0  0  0  0  0  0  0  0  0  0  0  0
   24.8667   -8.0946  -19.1089 C   0  0  0  0  0  0  0  0  0  0  0  0
   25.0120   -9.3450  -19.3473 O   0  0  0  0  0  0  0  0  0  0  0  0
   24.1570   -7.7945  -17.9300 N   0  0  0  0  0  0  0  0  0  0  0  0
   23.6678   -8.7873  -16.9930 C   0  0  1  0  0  0  0  0  0  0  0  0
   24.1059   -8.4708  -15.5878 C   0  0  0  0  0  0  0  0  0  0  0  0
   23.3050   -7.4624  -14.8891 C   0  0  0  0  0  0  0  0  0  0  0  0
   22.3422   -7.7556  -13.9091 C   0  0  0  0  0  0  0  0  0  0  0  0
   21.7958   -6.6259  -13.4497 N   0  0  0  0  0  0  0  0  0  0  0  0
   22.3561   -5.5759  -14.0861 C   0  0  0  0  0  0  0  0  0  0  0  0
   22.1246   -4.2311  -13.9617 C   0  0  0  0  0  0  0  0  0  0  0  0
   22.8356   -3.3303  -14.7435 C   0  0  0  0  0  0  0  0  0  0  0  0
   23.7525   -3.8533  -15.6182 C   0  0  0  0  0  0  0  0  0  0  0  0
   23.9975   -5.2107  -15.7550 C   0  0  0  0  0  0  0  0  0  0  0  0
   23.2931   -6.1079  -14.9791 C   0  0  0  0  0  0  0  0  0  0  0  0
   22.2633   -9.1523  -17.1667 C   0  0  0  0  0  0  0  0  0  0  0  0
   21.3687   -8.3001  -17.5058 O   0  0  0  0  0  0  0  0  0  0  0  0
   15.0013  -14.0386  -17.3363 O   0  0  0  0  0  0  0  0  0  0  0  0
   16.3163  -13.6096  -17.2601 C   0  0  0  0  0  0  0  0  0  0  0  0
   16.9071  -13.5877  -16.0312 C   0  0  0  0  0  0  0  0  0  0  0  0
   18.2064  -13.1662  -15.9403 C   0  0  0  0  0  0  0  0  0  0  0  0
   18.8791  -12.7761  -17.0938 C   0  0  0  0  0  0  0  0  0  0  0  0
   20.2671  -12.3131  -16.9707 C   0  0  0  0  0  0  0  0  0  0  0  0
   20.3423  -10.7788  -17.1006 C   0  0  2  0  0  0  0  0  0  0  0  0
   21.7832  -10.4920  -16.9781 N   0  0  0  0  0  0  0  0  0  0  0  0
   19.6293  -10.1909  -15.9538 C   0  0  0  0  0  0  0  0  0  0  0  0
   20.1206  -10.1125  -14.7974 O   0  0  0  0  0  0  0  0  0  0  0  0
   18.2849  -12.7982  -18.3282 C   0  0  0  0  0  0  0  0  0  0  0  0
   16.9639  -13.2279  -18.4142 C   0  0  0  0  0  0  0  0  0  0  0  0
   18.3449   -9.6799  -16.0992 O   0  0  0  0  0  0  0  0  0  0  0  0
  2  1  1  6
  3  2  1  0
  4  3  1  0
  5  2  1  0
  5  6  2  0
  7  5  1  0
  8  7  1  0
  8  9  1  1
 10  9  1  0
 10 18  1  0
 11 12  1  0
 11 10  2  0
 12 13  1  0
 13 14  2  0
 13 18  1  0
 14 15  1  0
 15 16  2  0
 17 16  1  0
 18 17  2  0
 19  8  1  0
 20 19  2  0
 22 23  2  0
 22 21  1  0
 24 23  1  0
 25 24  2  0
 27 26  1  1
 26 25  1  0
 27 28  1  0
 28 19  1  0
 29 27  1  0
 29 33  1  0
 30 29  2  0
 31 25  1  0
 31 32  2  0
 32 22  1  0
M  END
$$$$
