CWY.pdb
     RDKit          3D

 33 35  0  0  1  0  0  0  0  0999 V2000
   24.8113  -11.9871  -16.3259 N   0  0  0  0  0  0  0  0  0  0  0  0
   23.6426  -11.4667  -17.0281 C   0  0  1  0  0  0  0  0  0  0  0  0
   22.4802  -12.3345  -16.6079 C   0  0  0  0  0  0  0  0  0  0  0  0
   22.5763  -13.9280  -17.4509 S   0  0  0  0  0  0  0  0  0  0  0  0
   23.4864  -10.0458  -16.6268 C   0  0  0  0  0  0  0  0  0  0  0  0
   23.6406   -9.7048  -15.4015 O   0  0  0  0  0  0  0  0  0  0  0  0
   23.1715   -8.9879  -17.5014 N   0  0  0  0  0  0  0  0  0  0  0  0
   22.9247   -7.6224  -17.0801 C   0  0  1  0  0  0  0  0  0  0  0  0
   22.9448   -6.6795  -18.2536 C   0  0  0  0  0  0  0  0  0  0  0  0
   22.7580   -5.2631  -17.9284 C   0  0  0  0  0  0  0  0  0  0  0  0
   23.6851   -4.4855  -17.2151 C   0  0  0  0  0  0  0  0  0  0  0  0
   23.2366   -3.2324  -17.0940 N   0  0  0  0  0  0  0  0  0  0  0  0
   22.0356   -3.1347  -17.7016 C   0  0  0  0  0  0  0  0  0  0  0  0
   21.1902   -2.0649  -17.8385 C   0  0  0  0  0  0  0  0  0  0  0  0
   19.9860   -2.2152  -18.5133 C   0  0  0  0  0  0  0  0  0  0  0  0
   19.7054   -3.4592  -19.0166 C   0  0  0  0  0  0  0  0  0  0  0  0
   20.5503   -4.5501  -18.8860 C   0  0  0  0  0  0  0  0  0  0  0  0
   21.7477   -4.4035  -18.2168 C   0  0  0  0  0  0  0  0  0  0  0  0
   21.8166   -7.4633  -16.1406 C   0  0  0  0  0  0  0  0  0  0  0  0
   20.6867   -8.0445  -16.3057 O   0  0  0  0  0  0  0  0  0  0  0  0
   17.1031   -6.9746   -8.9923 O   0  0  0  0  0  0  0  0  0  0  0  0
   18.1241   -6.9913   -9.9285 C   0  0  0  0  0  0  0  0  0  0  0  0
   18.2912   -8.1262  -10.6659 C   0  0  0  0  0  0  0  0  0  0  0  0
   19.2960   -8.1574  -11.5951 C   0  0  0  0  0  0  0  0  0  0  0  0
   20.1095   -7.0407  -11.7576 C   0  0  0  0  0  0  0  0  0  0  0  0
   21.1907   -7.1019  -12.7493 C   0  0  0  0  0  0  0  0  0  0  0  0
   20.7377   -6.4840  -14.0870 C   0  0  2  0  0  0  0  0  0  0  0  0
   21.9134   -6.6514  -14.9605 N   0  0  0  0  0  0  0  0  0  0  0  0
   20.4963   -5.0482  -13.8648 C   0  0  0  0  0  0  0  0  0  0  0  0
   19.3465   -4.5388  -13.8062 O   0  0  0  0  0  0  0  0  0  0  0  0
   19.9413   -5.9007  -11.0163 C   0  0  0  0  0  0  0  0  0  0  0  0
   18.9177   -5.8751  -10.0734 C   0  0  0  0  0  0  0  0  0  0  0  0
   21.5564   -4.1638  -13.7042 O   0  0  0  0  0  0  0  0  0  0  0  0
  2  1  1  1
  3  2  1  0
  4  3  1  0
  5  2  1  0
  5  6  2  0
  7  5  1  0
  8  7  1  0
  8  9  1  6
 10  9  1  0
 10 18  1  0
 11 12  1  0
 11 10  2  0
 12 13  1  0
 13 14  2  0
 13 18  1  0
 14 15  1  0
 15 16  2  0
 17 16  1  0
 18 17  2  0
 19  8  1  0
 20 19  2  0
 22 23  2  0
 22 21  1  0
 24 23  1  0
 25 24  2  0
 27 26  1  1
 26 25  1  0
 27 28  1  0
 28 19  1  0
 29 27  1  0
 29 33  1  0
 30 29  2  0
 31 25  1  0
 31 32  2  0
 32 22  1  0
M  END
$$$$
