CWY.pdb
     RDKit          3D

 33 35  0  0  1  0  0  0  0  0999 V2000
   28.7403  -20.7303  -15.5878 N   0  0  0  0  0  0  0  0  0  0  0  0
   28.4408  -19.9217  -14.4104 C   0  0  1  0  0  0  0  0  0  0  0  0
   27.7737  -18.6671  -14.9222 C   0  0  0  0  0  0  0  0  0  0  0  0
   29.0295  -17.4949  -15.4770 S   0  0  0  0  0  0  0  0  0  0  0  0
   27.5621  -20.7345  -13.5321 C   0  0  0  0  0  0  0  0  0  0  0  0
   26.5962  -21.4078  -14.0373 O   0  0  0  0  0  0  0  0  0  0  0  0
   27.6927  -20.8430  -12.1340 N   0  0  0  0  0  0  0  0  0  0  0  0
   26.7200  -21.4797  -11.2672 C   0  0  1  0  0  0  0  0  0  0  0  0
   27.3376  -21.8684   -9.9504 C   0  0  0  0  0  0  0  0  0  0  0  0
   27.1453  -20.9128   -8.8565 C   0  0  0  0  0  0  0  0  0  0  0  0
   26.0813  -19.9988   -8.7815 C   0  0  0  0  0  0  0  0  0  0  0  0
   26.1735  -19.2778   -7.6601 N   0  0  0  0  0  0  0  0  0  0  0  0
   27.2653  -19.6727   -6.9720 C   0  0  0  0  0  0  0  0  0  0  0  0
   27.7745  -19.2321   -5.7786 C   0  0  0  0  0  0  0  0  0  0  0  0
   28.9337  -19.8005   -5.2677 C   0  0  0  0  0  0  0  0  0  0  0  0
   29.5173  -20.7962   -6.0075 C   0  0  0  0  0  0  0  0  0  0  0  0
   29.0141  -21.2521   -7.2159 C   0  0  0  0  0  0  0  0  0  0  0  0
   27.8620  -20.6898   -7.7255 C   0  0  0  0  0  0  0  0  0  0  0  0
   25.4255  -20.8045  -11.2010 C   0  0  0  0  0  0  0  0  0  0  0  0
   25.3175  -19.5438  -10.9991 O   0  0  0  0  0  0  0  0  0  0  0  0
   19.5021  -17.4421  -15.8869 O   0  0  0  0  0  0  0  0  0  0  0  0
   20.4851  -18.1808  -15.2488 C   0  0  0  0  0  0  0  0  0  0  0  0
   21.2854  -17.5340  -14.3537 C   0  0  0  0  0  0  0  0  0  0  0  0
   22.2611  -18.2511  -13.7153 C   0  0  0  0  0  0  0  0  0  0  0  0
   22.4062  -19.6058  -13.9962 C   0  0  0  0  0  0  0  0  0  0  0  0
   23.4694  -20.3518  -13.3110 C   0  0  0  0  0  0  0  0  0  0  0  0
   23.0085  -20.7898  -11.9067 C   0  0  2  0  0  0  0  0  0  0  0  0
   24.1807  -21.5007  -11.3646 N   0  0  0  0  0  0  0  0  0  0  0  0
   21.8951  -21.7399  -12.0703 C   0  0  0  0  0  0  0  0  0  0  0  0
   22.0329  -22.8933  -12.5556 O   0  0  0  0  0  0  0  0  0  0  0  0
   21.6020  -20.2551  -14.8957 C   0  0  0  0  0  0  0  0  0  0  0  0
   20.6115  -19.5207  -15.5414 C   0  0  0  0  0  0  0  0  0  0  0  0
   20.6041  -21.3982  -11.6849 O   0  0  0  0  0  0  0  0  0  0  0  0
  2  1  1  6
  3  2  1  0
  4  3  1  0
  5  2  1  0
  5  6  2  0
  7  5  1  0
  8  7  1  0
  8  9  1  1
 10  9  1  0
 10 18  1  0
 11 12  1  0
 11 10  2  0
 12 13  1  0
 13 14  2  0
 13 18  1  0
 14 15  1  0
 15 16  2  0
 17 16  1  0
 18 17  2  0
 19  8  1  0
 20 19  2  0
 22 23  2  0
 22 21  1  0
 24 23  1  0
 25 24  2  0
 27 26  1  6
 26 25  1  0
 27 28  1  0
 28 19  1  0
 29 27  1  0
 29 33  1  0
 30 29  2  0
 31 25  1  0
 31 32  2  0
 32 22  1  0
M  END
$$$$
