CWY.pdb
     RDKit          3D

 33 35  0  0  1  0  0  0  0  0999 V2000
   32.4074  -24.5565  -15.0865 N   0  0  0  0  0  0  0  0  0  0  0  0
   32.1799  -24.8804  -16.4912 C   0  0  1  0  0  0  0  0  0  0  0  0
   33.0891  -26.0445  -16.8057 C   0  0  0  0  0  0  0  0  0  0  0  0
   32.7470  -26.6491  -18.4720 S   0  0  0  0  0  0  0  0  0  0  0  0
   30.7391  -25.2077  -16.6379 C   0  0  0  0  0  0  0  0  0  0  0  0
   30.1483  -25.9155  -15.7483 O   0  0  0  0  0  0  0  0  0  0  0  0
   29.9209  -24.7969  -17.7081 N   0  0  0  0  0  0  0  0  0  0  0  0
   28.5587  -25.2476  -17.9177 C   0  0  1  0  0  0  0  0  0  0  0  0
   27.9400  -24.5709  -19.1119 C   0  0  0  0  0  0  0  0  0  0  0  0
   26.5030  -24.7948  -19.2900 C   0  0  0  0  0  0  0  0  0  0  0  0
   25.5122  -24.3077  -18.4215 C   0  0  0  0  0  0  0  0  0  0  0  0
   24.3013  -24.6634  -18.8609 N   0  0  0  0  0  0  0  0  0  0  0  0
   24.4383  -25.3760  -19.9988 C   0  0  0  0  0  0  0  0  0  0  0  0
   23.4952  -25.9537  -20.8079 C   0  0  0  0  0  0  0  0  0  0  0  0
   23.8888  -26.6526  -21.9413 C   0  0  0  0  0  0  0  0  0  0  0  0
   25.2347  -26.7262  -22.1914 C   0  0  0  0  0  0  0  0  0  0  0  0
   26.1999  -26.1472  -21.3824 C   0  0  0  0  0  0  0  0  0  0  0  0
   25.8117  -25.4516  -20.2561 C   0  0  0  0  0  0  0  0  0  0  0  0
   28.3719  -26.6940  -17.8244 C   0  0  0  0  0  0  0  0  0  0  0  0
   29.2258  -27.5286  -18.2893 O   0  0  0  0  0  0  0  0  0  0  0  0
   27.5852  -34.4919  -14.5957 O   0  0  0  0  0  0  0  0  0  0  0  0
   27.5426  -33.1308  -14.8506 C   0  0  0  0  0  0  0  0  0  0  0  0
   28.6840  -32.5320  -15.2963 C   0  0  0  0  0  0  0  0  0  0  0  0
   28.6571  -31.1876  -15.5525 C   0  0  0  0  0  0  0  0  0  0  0  0
   27.4771  -30.4786  -15.3522 C   0  0  0  0  0  0  0  0  0  0  0  0
   27.4754  -29.0346  -15.6188 C   0  0  0  0  0  0  0  0  0  0  0  0
   27.1221  -28.7540  -17.0928 C   0  0  2  0  0  0  0  0  0  0  0  0
   27.2237  -27.2871  -17.1991 N   0  0  0  0  0  0  0  0  0  0  0  0
   25.7240  -29.1626  -17.3101 C   0  0  0  0  0  0  0  0  0  0  0  0
   24.7362  -28.4376  -17.0209 O   0  0  0  0  0  0  0  0  0  0  0  0
   26.3307  -31.0807  -14.9042 C   0  0  0  0  0  0  0  0  0  0  0  0
   26.3643  -32.4480  -14.6457 C   0  0  0  0  0  0  0  0  0  0  0  0
   25.4212  -30.4023  -17.8610 O   0  0  0  0  0  0  0  0  0  0  0  0
  2  1  1  1
  3  2  1  0
  4  3  1  0
  5  2  1  0
  5  6  2  0
  7  5  1  0
  8  7  1  0
  8  9  1  6
 10  9  1  0
 10 18  1  0
 11 12  1  0
 11 10  2  0
 12 13  1  0
 13 14  2  0
 13 18  1  0
 14 15  1  0
 15 16  2  0
 17 16  1  0
 18 17  2  0
 19  8  1  0
 20 19  2  0
 22 23  2  0
 22 21  1  0
 24 23  1  0
 25 24  2  0
 27 26  1  1
 26 25  1  0
 27 28  1  0
 28 19  1  0
 29 27  1  0
 29 33  1  0
 30 29  2  0
 31 25  1  0
 31 32  2  0
 32 22  1  0
M  END
$$$$
