CWY.pdb
     RDKit          3D

 33 35  0  0  1  0  0  0  0  0999 V2000
   28.3311  -21.4842  -18.4455 N   0  0  0  0  0  0  0  0  0  0  0  0
   28.3205  -20.4321  -17.4342 C   0  0  1  0  0  0  0  0  0  0  0  0
   27.8614  -19.1778  -18.1389 C   0  0  0  0  0  0  0  0  0  0  0  0
   27.9951  -17.7686  -17.0185 S   0  0  0  0  0  0  0  0  0  0  0  0
   27.3969  -20.8687  -16.3568 C   0  0  0  0  0  0  0  0  0  0  0  0
   26.2792  -21.4197  -16.6543 O   0  0  0  0  0  0  0  0  0  0  0  0
   27.6408  -20.7305  -14.9766 N   0  0  0  0  0  0  0  0  0  0  0  0
   26.6426  -20.9312  -13.9441 C   0  0  1  0  0  0  0  0  0  0  0  0
   27.2867  -21.2068  -12.6115 C   0  0  0  0  0  0  0  0  0  0  0  0
   26.3647  -21.3438  -11.4812 C   0  0  0  0  0  0  0  0  0  0  0  0
   25.3074  -22.2673  -11.4292 C   0  0  0  0  0  0  0  0  0  0  0  0
   24.6606  -22.1596  -10.2647 N   0  0  0  0  0  0  0  0  0  0  0  0
   25.2443  -21.1934   -9.5252 C   0  0  0  0  0  0  0  0  0  0  0  0
   24.9396  -20.7205   -8.2757 C   0  0  0  0  0  0  0  0  0  0  0  0
   25.6965  -19.6989   -7.7177 C   0  0  0  0  0  0  0  0  0  0  0  0
   26.7326  -19.2093   -8.4703 C   0  0  0  0  0  0  0  0  0  0  0  0
   27.0526  -19.6773   -9.7351 C   0  0  0  0  0  0  0  0  0  0  0  0
   26.3028  -20.6928  -10.2916 C   0  0  0  0  0  0  0  0  0  0  0  0
   25.5543  -19.9557  -13.9479 C   0  0  0  0  0  0  0  0  0  0  0  0
   25.7602  -18.6961  -13.8359 O   0  0  0  0  0  0  0  0  0  0  0  0
   21.3491  -23.2124  -18.3791 O   0  0  0  0  0  0  0  0  0  0  0  0
   21.6595  -22.1279  -17.5749 C   0  0  0  0  0  0  0  0  0  0  0  0
   22.9347  -21.6467  -17.6219 C   0  0  0  0  0  0  0  0  0  0  0  0
   23.2563  -20.5753  -16.8328 C   0  0  0  0  0  0  0  0  0  0  0  0
   22.2816  -20.0146  -16.0138 C   0  0  0  0  0  0  0  0  0  0  0  0
   22.6528  -18.8758  -15.1644 C   0  0  0  0  0  0  0  0  0  0  0  0
   23.1138  -19.3605  -13.7755 C   0  0  2  0  0  0  0  0  0  0  0  0
   24.1764  -20.3346  -14.0847 N   0  0  0  0  0  0  0  0  0  0  0  0
   21.9830  -20.0583  -13.1401 C   0  0  0  0  0  0  0  0  0  0  0  0
   20.9209  -19.4812  -12.7882 O   0  0  0  0  0  0  0  0  0  0  0  0
   21.0006  -20.4987  -15.9668 C   0  0  0  0  0  0  0  0  0  0  0  0
   20.6797  -21.5880  -16.7716 C   0  0  0  0  0  0  0  0  0  0  0  0
   22.0370  -21.4250  -12.8931 O   0  0  0  0  0  0  0  0  0  0  0  0
  2  1  1  6
  3  2  1  0
  4  3  1  0
  5  2  1  0
  5  6  2  0
  7  5  1  0
  8  7  1  0
  8  9  1  1
 10  9  1  0
 10 18  1  0
 11 12  1  0
 11 10  2  0
 12 13  1  0
 13 14  2  0
 13 18  1  0
 14 15  1  0
 15 16  2  0
 17 16  1  0
 18 17  2  0
 19  8  1  0
 20 19  2  0
 22 23  2  0
 22 21  1  0
 24 23  1  0
 25 24  2  0
 27 26  1  6
 26 25  1  0
 27 28  1  0
 28 19  1  0
 29 27  1  0
 29 33  1  0
 30 29  2  0
 31 25  1  0
 31 32  2  0
 32 22  1  0
M  END
$$$$
