CWY.pdb
     RDKit          3D

 33 35  0  0  1  0  0  0  0  0999 V2000
   23.3585  -18.8623  -19.9819 N   0  0  0  0  0  0  0  0  0  0  0  0
   23.7159  -20.2520  -19.7161 C   0  0  1  0  0  0  0  0  0  0  0  0
   25.1517  -20.4075  -20.1577 C   0  0  0  0  0  0  0  0  0  0  0  0
   25.2869  -20.0463  -21.9213 S   0  0  0  0  0  0  0  0  0  0  0  0
   23.5230  -20.4842  -18.2624 C   0  0  0  0  0  0  0  0  0  0  0  0
   23.7569  -21.6396  -17.7608 O   0  0  0  0  0  0  0  0  0  0  0  0
   23.0886  -19.5139  -17.3386 N   0  0  0  0  0  0  0  0  0  0  0  0
   22.9240  -19.7512  -15.9176 C   0  0  1  0  0  0  0  0  0  0  0  0
   23.7393  -18.7798  -15.1062 C   0  0  0  0  0  0  0  0  0  0  0  0
   25.1135  -18.5688  -15.5685 C   0  0  0  0  0  0  0  0  0  0  0  0
   25.5352  -17.4577  -16.3173 C   0  0  0  0  0  0  0  0  0  0  0  0
   26.8445  -17.5448  -16.5707 N   0  0  0  0  0  0  0  0  0  0  0  0
   27.3246  -18.6788  -16.0185 C   0  0  0  0  0  0  0  0  0  0  0  0
   28.5918  -19.2003  -16.0125 C   0  0  0  0  0  0  0  0  0  0  0  0
   28.8421  -20.4057  -15.3704 C   0  0  0  0  0  0  0  0  0  0  0  0
   27.7775  -21.0208  -14.7638 C   0  0  0  0  0  0  0  0  0  0  0  0
   26.4908  -20.5057  -14.7616 C   0  0  0  0  0  0  0  0  0  0  0  0
   26.2394  -19.3078  -15.3981 C   0  0  0  0  0  0  0  0  0  0  0  0
   21.5421  -19.9540  -15.4876 C   0  0  0  0  0  0  0  0  0  0  0  0
   20.6252  -19.0816  -15.6872 O   0  0  0  0  0  0  0  0  0  0  0  0
   13.5076  -22.0984  -15.2184 O   0  0  0  0  0  0  0  0  0  0  0  0
   14.8738  -21.9256  -15.3697 C   0  0  0  0  0  0  0  0  0  0  0  0
   15.3681  -20.6581  -15.2747 C   0  0  0  0  0  0  0  0  0  0  0  0
   16.7162  -20.4719  -15.4219 C   0  0  0  0  0  0  0  0  0  0  0  0
   17.5343  -21.5711  -15.6621 C   0  0  0  0  0  0  0  0  0  0  0  0
   18.9754  -21.3459  -15.8319 C   0  0  0  0  0  0  0  0  0  0  0  0
   19.6859  -21.3134  -14.4643 C   0  0  2  0  0  0  0  0  0  0  0  0
   21.1076  -21.1470  -14.8174 N   0  0  0  0  0  0  0  0  0  0  0  0
   19.4937  -22.6247  -13.8218 C   0  0  0  0  0  0  0  0  0  0  0  0
   20.1128  -23.6646  -14.1685 O   0  0  0  0  0  0  0  0  0  0  0  0
   17.0371  -22.8442  -15.7576 C   0  0  0  0  0  0  0  0  0  0  0  0
   15.6656  -23.0272  -15.6068 C   0  0  0  0  0  0  0  0  0  0  0  0
   18.5953  -22.7794  -12.7726 O   0  0  0  0  0  0  0  0  0  0  0  0
  2  1  1  1
  3  2  1  0
  4  3  1  0
  5  2  1  0
  5  6  2  0
  7  5  1  0
  8  7  1  0
  8  9  1  1
 10  9  1  0
 10 18  1  0
 11 12  1  0
 11 10  2  0
 12 13  1  0
 13 14  2  0
 13 18  1  0
 14 15  1  0
 15 16  2  0
 17 16  1  0
 18 17  2  0
 19  8  1  0
 20 19  2  0
 22 23  2  0
 22 21  1  0
 24 23  1  0
 25 24  2  0
 27 26  1  6
 26 25  1  0
 27 28  1  0
 28 19  1  0
 29 27  1  0
 29 33  1  0
 30 29  2  0
 31 25  1  0
 31 32  2  0
 32 22  1  0
M  END
$$$$
