CWY.pdb
     RDKit          3D

 33 35  0  0  1  0  0  0  0  0999 V2000
   25.1714  -11.8293  -20.2987 N   0  0  0  0  0  0  0  0  0  0  0  0
   25.5968  -10.5392  -19.7655 C   0  0  1  0  0  0  0  0  0  0  0  0
   25.6343   -9.5915  -20.9408 C   0  0  0  0  0  0  0  0  0  0  0  0
   26.1516   -7.9541  -20.3840 S   0  0  0  0  0  0  0  0  0  0  0  0
   24.6094  -10.1460  -18.7288 C   0  0  0  0  0  0  0  0  0  0  0  0
   23.3577  -10.1469  -19.0020 O   0  0  0  0  0  0  0  0  0  0  0  0
   24.9289   -9.7547  -17.4141 N   0  0  0  0  0  0  0  0  0  0  0  0
   23.9614   -9.2863  -16.4408 C   0  0  1  0  0  0  0  0  0  0  0  0
   23.9478  -10.1678  -15.2203 C   0  0  0  0  0  0  0  0  0  0  0  0
   23.5548  -11.5602  -15.4518 C   0  0  0  0  0  0  0  0  0  0  0  0
   24.2858  -12.6738  -15.0061 C   0  0  0  0  0  0  0  0  0  0  0  0
   23.6628  -13.8026  -15.3578 N   0  0  0  0  0  0  0  0  0  0  0  0
   22.5333  -13.4912  -16.0275 C   0  0  0  0  0  0  0  0  0  0  0  0
   21.5762  -14.2980  -16.5850 C   0  0  0  0  0  0  0  0  0  0  0  0
   20.4890  -13.7336  -17.2387 C   0  0  0  0  0  0  0  0  0  0  0  0
   20.4353  -12.3646  -17.2900 C   0  0  0  0  0  0  0  0  0  0  0  0
   21.3955  -11.5359  -16.7310 C   0  0  0  0  0  0  0  0  0  0  0  0
   22.4764  -12.0939  -16.0803 C   0  0  0  0  0  0  0  0  0  0  0  0
   23.9864   -7.8453  -16.1984 C   0  0  0  0  0  0  0  0  0  0  0  0
   25.0792   -7.1823  -16.1094 O   0  0  0  0  0  0  0  0  0  0  0  0
   16.7177   -6.5210  -16.4618 O   0  0  0  0  0  0  0  0  0  0  0  0
   18.0475   -6.1467  -16.5655 C   0  0  0  0  0  0  0  0  0  0  0  0
   18.4594   -5.0608  -15.8506 C   0  0  0  0  0  0  0  0  0  0  0  0
   19.7708   -4.6792  -15.9430 C   0  0  0  0  0  0  0  0  0  0  0  0
   20.6362   -5.4038  -16.7561 C   0  0  0  0  0  0  0  0  0  0  0  0
   22.0350   -4.9673  -16.8520 C   0  0  0  0  0  0  0  0  0  0  0  0
   22.8871   -5.6250  -15.7485 C   0  0  2  0  0  0  0  0  0  0  0  0
   22.7905   -7.0650  -16.0498 N   0  0  0  0  0  0  0  0  0  0  0  0
   22.2402   -5.3538  -14.4535 C   0  0  0  0  0  0  0  0  0  0  0  0
   21.6642   -6.2379  -13.7669 O   0  0  0  0  0  0  0  0  0  0  0  0
   20.2218   -6.4946  -17.4742 C   0  0  0  0  0  0  0  0  0  0  0  0
   18.8874   -6.8778  -17.3760 C   0  0  0  0  0  0  0  0  0  0  0  0
   22.2362   -4.0732  -13.9133 O   0  0  0  0  0  0  0  0  0  0  0  0
  2  1  1  6
  3  2  1  0
  4  3  1  0
  5  2  1  0
  5  6  2  0
  7  5  1  0
  8  7  1  0
  8  9  1  1
 10  9  1  0
 10 18  1  0
 11 12  1  0
 11 10  2  0
 12 13  1  0
 13 14  2  0
 13 18  1  0
 14 15  1  0
 15 16  2  0
 17 16  1  0
 18 17  2  0
 19  8  1  0
 20 19  2  0
 22 23  2  0
 22 21  1  0
 24 23  1  0
 25 24  2  0
 27 26  1  6
 26 25  1  0
 27 28  1  0
 28 19  1  0
 29 27  1  0
 29 33  1  0
 30 29  2  0
 31 25  1  0
 31 32  2  0
 32 22  1  0
M  END
$$$$
