CWY.pdb
     RDKit          3D

 33 35  0  0  1  0  0  0  0  0999 V2000
   40.2939  -25.5846    5.5270 N   0  0  0  0  0  0  0  0  0  0  0  0
   38.9788  -25.9096    4.9842 C   0  0  1  0  0  0  0  0  0  0  0  0
   38.8200  -27.4038    5.1364 C   0  0  0  0  0  0  0  0  0  0  0  0
   37.1996  -27.9079    4.5206 S   0  0  0  0  0  0  0  0  0  0  0  0
   37.9796  -25.1335    5.7610 C   0  0  0  0  0  0  0  0  0  0  0  0
   38.0476  -25.0991    7.0399 O   0  0  0  0  0  0  0  0  0  0  0  0
   36.9160  -24.3972    5.2040 N   0  0  0  0  0  0  0  0  0  0  0  0
   35.8998  -23.7118    5.9788 C   0  0  1  0  0  0  0  0  0  0  0  0
   35.1172  -22.7530    5.1215 C   0  0  0  0  0  0  0  0  0  0  0  0
   34.1217  -21.9429    5.8281 C   0  0  0  0  0  0  0  0  0  0  0  0
   34.2123  -21.5805    7.1822 C   0  0  0  0  0  0  0  0  0  0  0  0
   33.1627  -20.8288    7.5276 N   0  0  0  0  0  0  0  0  0  0  0  0
   32.3630  -20.6696    6.4522 C   0  0  0  0  0  0  0  0  0  0  0  0
   31.1808  -19.9908    6.3131 C   0  0  0  0  0  0  0  0  0  0  0  0
   30.5306  -19.9758    5.0863 C   0  0  0  0  0  0  0  0  0  0  0  0
   31.1254  -20.6599    4.0579 C   0  0  0  0  0  0  0  0  0  0  0  0
   32.3204  -21.3508    4.1836 C   0  0  0  0  0  0  0  0  0  0  0  0
   32.9690  -21.3668    5.4011 C   0  0  0  0  0  0  0  0  0  0  0  0
   35.1193  -24.5749    6.8630 C   0  0  0  0  0  0  0  0  0  0  0  0
   34.5377  -25.6383    6.4475 O   0  0  0  0  0  0  0  0  0  0  0  0
   33.4752  -30.4991   12.3529 O   0  0  0  0  0  0  0  0  0  0  0  0
   33.8463  -29.2705   11.8314 C   0  0  0  0  0  0  0  0  0  0  0  0
   34.9077  -29.2381   10.9756 C   0  0  0  0  0  0  0  0  0  0  0  0
   35.2859  -28.0311   10.4521 C   0  0  0  0  0  0  0  0  0  0  0  0
   34.5829  -26.8840   10.8056 C   0  0  0  0  0  0  0  0  0  0  0  0
   35.0157  -25.5981   10.2441 C   0  0  0  0  0  0  0  0  0  0  0  0
   34.0940  -25.1734    9.0836 C   0  0  2  0  0  0  0  0  0  0  0  0
   34.9526  -24.3006    8.2623 N   0  0  0  0  0  0  0  0  0  0  0  0
   32.9900  -24.3789    9.6484 C   0  0  0  0  0  0  0  0  0  0  0  0
   31.7749  -24.6635    9.4829 O   0  0  0  0  0  0  0  0  0  0  0  0
   33.5167  -26.9171   11.6656 C   0  0  0  0  0  0  0  0  0  0  0  0
   33.1368  -28.1473   12.1943 C   0  0  0  0  0  0  0  0  0  0  0  0
   33.2453  -23.2463   10.4126 O   0  0  0  0  0  0  0  0  0  0  0  0
  2  1  1  1
  3  2  1  0
  4  3  1  0
  5  2  1  0
  5  6  2  0
  7  5  1  0
  8  7  1  0
  8  9  1  6
 10  9  1  0
 10 18  1  0
 11 12  1  0
 11 10  2  0
 12 13  1  0
 13 14  2  0
 13 18  1  0
 14 15  1  0
 15 16  2  0
 17 16  1  0
 18 17  2  0
 19  8  1  0
 20 19  2  0
 22 23  2  0
 22 21  1  0
 24 23  1  0
 25 24  2  0
 27 26  1  1
 26 25  1  0
 27 28  1  0
 28 19  1  0
 29 27  1  0
 29 33  1  0
 30 29  2  0
 31 25  1  0
 31 32  2  0
 32 22  1  0
M  END
$$$$
