NHF.pdb
     RDKit          3D

 30 31  0  0  1  0  0  0  0  0999 V2000
   27.1793  -26.7166  -19.3448 N   0  0  0  0  0  0  0  0  0  0  0  0
   28.5432  -26.7060  -19.0492 C   0  0  0  0  0  0  0  0  0  0  0  0
   29.2957  -25.8746  -19.6214 O   0  0  0  0  0  0  0  0  0  0  0  0
   29.2017  -27.6215  -18.0872 C   0  0  0  0  0  0  0  0  0  0  0  0
   28.2456  -28.5678  -17.4355 C   0  0  2  0  0  0  0  0  0  0  0  0
   27.5906  -27.9582  -16.2881 N   0  0  0  0  0  0  0  0  0  0  0  0
   28.9703  -29.7712  -16.9798 C   0  0  0  0  0  0  0  0  0  0  0  0
   29.7898  -29.7253  -15.9993 O   0  0  0  0  0  0  0  0  0  0  0  0
   28.8265  -31.0463  -17.5713 N   0  0  0  0  0  0  0  0  0  0  0  0
   29.5391  -32.2431  -17.1159 C   0  0  1  0  0  0  0  0  0  0  0  0
   28.6545  -33.4304  -17.0971 C   0  0  0  0  0  0  0  0  0  0  0  0
   27.6116  -33.3150  -16.0674 C   0  0  0  0  0  0  0  0  0  0  0  0
   27.8085  -32.6814  -14.8155 C   0  0  0  0  0  0  0  0  0  0  0  0
   26.6778  -32.7368  -14.0962 N   0  0  0  0  0  0  0  0  0  0  0  0
   25.7684  -33.3780  -14.8348 C   0  0  0  0  0  0  0  0  0  0  0  0
   26.3354  -33.7083  -15.9859 N   0  0  0  0  0  0  0  0  0  0  0  0
   30.7550  -32.3722  -17.9533 C   0  0  0  0  0  0  0  0  0  0  0  0
   30.8254  -31.9908  -19.1397 O   0  0  0  0  0  0  0  0  0  0  0  0
   31.9271  -32.9684  -17.3801 N   0  0  0  0  0  0  0  0  0  0  0  0
   33.1636  -33.1192  -18.1307 C   0  0  1  0  0  0  0  0  0  0  0  0
   34.3484  -32.7666  -17.2568 C   0  0  0  0  0  0  0  0  0  0  0  0
   34.5786  -31.3079  -17.1908 C   0  0  0  0  0  0  0  0  0  0  0  0
   35.1755  -30.6372  -18.2340 C   0  0  0  0  0  0  0  0  0  0  0  0
   35.3956  -29.2774  -18.1887 C   0  0  0  0  0  0  0  0  0  0  0  0
   35.0200  -28.5490  -17.0874 C   0  0  0  0  0  0  0  0  0  0  0  0
   34.4203  -29.2013  -16.0309 C   0  0  0  0  0  0  0  0  0  0  0  0
   34.2037  -30.5718  -16.0880 C   0  0  0  0  0  0  0  0  0  0  0  0
   33.2425  -34.4765  -18.6775 C   0  0  0  0  0  0  0  0  0  0  0  0
   34.2062  -34.8477  -19.6034 O   0  0  0  0  0  0  0  0  0  0  0  0
   32.4200  -35.3445  -18.3077 O   0  0  0  0  0  0  0  0  0  0  0  0
  2  1  1  0
  3  2  2  0
  4  2  1  0
  4  5  1  0
  5  6  1  1
  7  5  1  0
  7  8  2  0
  9  7  1  0
 10  9  1  0
 10 11  1  6
 12 11  1  0
 12 13  2  0
 14 13  1  0
 15 16  2  0
 15 14  1  0
 16 12  1  0
 17 10  1  0
 18 17  2  0
 19 17  1  0
 20 19  1  0
 20 21  1  1
 22 21  1  0
 23 22  2  0
 24 23  1  0
 25 26  1  0
 25 24  2  0
 26 27  2  0
 27 22  1  0
 28 20  1  0
 29 28  1  0
 30 28  2  0
M  END
$$$$
