NHF.pdb
     RDKit          3D

 30 31  0  0  1  0  0  0  0  0999 V2000
   19.8556  -14.6936  -20.1815 N   0  0  0  0  0  0  0  0  0  0  0  0
   19.5264  -14.5680  -18.8311 C   0  0  0  0  0  0  0  0  0  0  0  0
   19.9061  -15.4486  -18.0154 O   0  0  0  0  0  0  0  0  0  0  0  0
   18.7414  -13.4489  -18.2580 C   0  0  0  0  0  0  0  0  0  0  0  0
   19.5277  -12.6188  -17.2950 C   0  0  2  0  0  0  0  0  0  0  0  0
   19.9629  -13.4014  -16.1481 N   0  0  0  0  0  0  0  0  0  0  0  0
   18.6970  -11.4972  -16.8122 C   0  0  0  0  0  0  0  0  0  0  0  0
   18.1716  -10.6590  -17.6224 O   0  0  0  0  0  0  0  0  0  0  0  0
   18.4165  -11.2571  -15.4484 N   0  0  0  0  0  0  0  0  0  0  0  0
   17.5647  -10.1651  -14.9696 C   0  0  1  0  0  0  0  0  0  0  0  0
   16.5327  -10.6522  -14.0259 C   0  0  0  0  0  0  0  0  0  0  0  0
   15.5135  -11.4640  -14.7066 C   0  0  0  0  0  0  0  0  0  0  0  0
   14.5676  -10.9359  -15.6197 C   0  0  0  0  0  0  0  0  0  0  0  0
   13.7749  -11.9192  -16.0712 N   0  0  0  0  0  0  0  0  0  0  0  0
   14.1741  -13.0513  -15.4859 C   0  0  0  0  0  0  0  0  0  0  0  0
   15.1937  -12.7631  -14.6904 N   0  0  0  0  0  0  0  0  0  0  0  0
   18.4621   -9.1121  -14.4386 C   0  0  0  0  0  0  0  0  0  0  0  0
   19.2140   -9.2709  -13.4550 O   0  0  0  0  0  0  0  0  0  0  0  0
   18.4783   -7.8305  -15.0827 N   0  0  0  0  0  0  0  0  0  0  0  0
   19.3173   -6.7395  -14.6127 C   0  0  1  0  0  0  0  0  0  0  0  0
   20.3272   -6.3650  -15.6765 C   0  0  0  0  0  0  0  0  0  0  0  0
   21.0689   -5.1334  -15.3330 C   0  0  0  0  0  0  0  0  0  0  0  0
   22.1774   -5.1782  -14.5185 C   0  0  0  0  0  0  0  0  0  0  0  0
   22.8808   -4.0393  -14.1903 C   0  0  0  0  0  0  0  0  0  0  0  0
   22.4880   -2.8162  -14.6741 C   0  0  0  0  0  0  0  0  0  0  0  0
   21.3799   -2.7488  -15.4921 C   0  0  0  0  0  0  0  0  0  0  0  0
   20.6790   -3.9032  -15.8158 C   0  0  0  0  0  0  0  0  0  0  0  0
   18.4735   -5.6126  -14.2058 C   0  0  0  0  0  0  0  0  0  0  0  0
   18.7692   -4.8258  -13.1024 O   0  0  0  0  0  0  0  0  0  0  0  0
   17.4462   -5.3354  -14.8649 O   0  0  0  0  0  0  0  0  0  0  0  0
  2  1  1  0
  3  2  2  0
  4  2  1  0
  4  5  1  0
  5  6  1  1
  7  5  1  0
  7  8  2  0
  9  7  1  0
 10  9  1  0
 10 11  1  1
 12 11  1  0
 12 13  2  0
 14 13  1  0
 15 16  2  0
 15 14  1  0
 16 12  1  0
 17 10  1  0
 18 17  2  0
 19 17  1  0
 20 19  1  0
 20 21  1  6
 22 21  1  0
 23 22  2  0
 24 23  1  0
 25 26  1  0
 25 24  2  0
 26 27  2  0
 27 22  1  0
 28 20  1  0
 29 28  1  0
 30 28  2  0
M  END
$$$$
