NHF.pdb
     RDKit          3D

 30 31  0  0  1  0  0  0  0  0999 V2000
   27.4091  -40.0836  -10.1746 N   0  0  0  0  0  0  0  0  0  0  0  0
   27.7115  -38.8349  -10.7196 C   0  0  0  0  0  0  0  0  0  0  0  0
   27.5985  -38.6557  -11.9606 O   0  0  0  0  0  0  0  0  0  0  0  0
   28.1699  -37.6641   -9.9346 C   0  0  0  0  0  0  0  0  0  0  0  0
   28.2907  -37.9537   -8.4730 C   0  0  2  0  0  0  0  0  0  0  0  0
   26.9859  -38.1440   -7.8576 N   0  0  0  0  0  0  0  0  0  0  0  0
   28.9704  -36.8295   -7.7983 C   0  0  0  0  0  0  0  0  0  0  0  0
   30.1516  -36.4685   -8.1292 O   0  0  0  0  0  0  0  0  0  0  0  0
   28.3913  -36.0733   -6.7547 N   0  0  0  0  0  0  0  0  0  0  0  0
   29.0698  -34.9672   -6.0737 C   0  0  1  0  0  0  0  0  0  0  0  0
   28.1038  -34.0519   -5.4244 C   0  0  0  0  0  0  0  0  0  0  0  0
   27.3496  -33.2674   -6.4127 C   0  0  0  0  0  0  0  0  0  0  0  0
   27.5866  -33.3233   -7.8085 C   0  0  0  0  0  0  0  0  0  0  0  0
   26.7430  -32.4975   -8.4453 N   0  0  0  0  0  0  0  0  0  0  0  0
   25.9784  -31.9175   -7.5165 C   0  0  0  0  0  0  0  0  0  0  0  0
   26.3496  -32.3820   -6.3325 N   0  0  0  0  0  0  0  0  0  0  0  0
   30.0812  -35.5653   -5.1706 C   0  0  0  0  0  0  0  0  0  0  0  0
   29.9217  -36.6465   -4.5678 O   0  0  0  0  0  0  0  0  0  0  0  0
   31.3207  -34.8722   -4.9680 N   0  0  0  0  0  0  0  0  0  0  0  0
   32.3677  -35.3967   -4.1056 C   0  0  1  0  0  0  0  0  0  0  0  0
   33.6554  -34.6321   -4.3274 C   0  0  0  0  0  0  0  0  0  0  0  0
   34.7797  -35.1951   -3.5502 C   0  0  0  0  0  0  0  0  0  0  0  0
   35.5680  -36.1969   -4.0694 C   0  0  0  0  0  0  0  0  0  0  0  0
   36.6209  -36.7311   -3.3584 C   0  0  0  0  0  0  0  0  0  0  0  0
   36.9131  -36.2712   -2.0984 C   0  0  0  0  0  0  0  0  0  0  0  0
   36.1359  -35.2679   -1.5594 C   0  0  0  0  0  0  0  0  0  0  0  0
   35.0775  -34.7374   -2.2852 C   0  0  0  0  0  0  0  0  0  0  0  0
   31.9173  -35.3624   -2.7115 C   0  0  0  0  0  0  0  0  0  0  0  0
   32.0989  -36.4321   -1.8475 O   0  0  0  0  0  0  0  0  0  0  0  0
   31.3467  -34.3407   -2.2675 O   0  0  0  0  0  0  0  0  0  0  0  0
  2  1  1  0
  3  2  2  0
  4  2  1  0
  4  5  1  0
  5  6  1  1
  7  5  1  0
  7  8  2  0
  9  7  1  0
 10  9  1  0
 10 11  1  1
 12 11  1  0
 12 13  2  0
 14 13  1  0
 15 16  2  0
 15 14  1  0
 16 12  1  0
 17 10  1  0
 18 17  2  0
 19 17  1  0
 20 19  1  0
 20 21  1  1
 22 21  1  0
 23 22  2  0
 24 23  1  0
 25 26  1  0
 25 24  2  0
 26 27  2  0
 27 22  1  0
 28 20  1  0
 29 28  1  0
 30 28  2  0
M  END
$$$$
