NHF.pdb
     RDKit          3D

 30 31  0  0  1  0  0  0  0  0999 V2000
   22.7390   -8.1480  -21.9706 N   0  0  0  0  0  0  0  0  0  0  0  0
   21.4686   -8.5221  -21.5302 C   0  0  0  0  0  0  0  0  0  0  0  0
   20.7810   -9.3173  -22.2229 O   0  0  0  0  0  0  0  0  0  0  0  0
   20.8405   -8.0462  -20.2748 C   0  0  0  0  0  0  0  0  0  0  0  0
   20.3536   -9.1621  -19.4074 C   0  0  2  0  0  0  0  0  0  0  0  0
   19.1604   -9.7852  -19.9598 N   0  0  0  0  0  0  0  0  0  0  0  0
   20.0343   -8.6428  -18.0622 C   0  0  0  0  0  0  0  0  0  0  0  0
   18.9710   -7.9674  -17.8428 O   0  0  0  0  0  0  0  0  0  0  0  0
   20.8537   -8.8410  -16.9284 N   0  0  0  0  0  0  0  0  0  0  0  0
   20.5378   -8.3280  -15.5925 C   0  0  1  0  0  0  0  0  0  0  0  0
   20.5787   -9.4008  -14.5727 C   0  0  0  0  0  0  0  0  0  0  0  0
   19.4605  -10.3423  -14.7289 C   0  0  0  0  0  0  0  0  0  0  0  0
   18.4477  -10.2053  -15.7102 C   0  0  0  0  0  0  0  0  0  0  0  0
   17.5712  -11.2147  -15.6015 N   0  0  0  0  0  0  0  0  0  0  0  0
   17.9810  -11.9895  -14.5938 C   0  0  0  0  0  0  0  0  0  0  0  0
   19.0893  -11.4611  -14.0960 N   0  0  0  0  0  0  0  0  0  0  0  0
   21.4407   -7.1800  -15.3410 C   0  0  0  0  0  0  0  0  0  0  0  0
   21.4593   -6.5312  -14.2749 O   0  0  0  0  0  0  0  0  0  0  0  0
   22.3519   -6.7801  -16.3741 N   0  0  0  0  0  0  0  0  0  0  0  0
   23.2223   -5.6236  -16.2322 C   0  0  1  0  0  0  0  0  0  0  0  0
   24.5293   -5.8646  -16.9570 C   0  0  0  0  0  0  0  0  0  0  0  0
   25.3903   -4.6631  -16.9696 C   0  0  0  0  0  0  0  0  0  0  0  0
   26.2032   -4.3632  -15.9002 C   0  0  0  0  0  0  0  0  0  0  0  0
   27.0130   -3.2480  -15.8971 C   0  0  0  0  0  0  0  0  0  0  0  0
   27.0290   -2.3977  -16.9747 C   0  0  0  0  0  0  0  0  0  0  0  0
   26.2221   -2.6796  -18.0568 C   0  0  0  0  0  0  0  0  0  0  0  0
   25.4102   -3.8063  -18.0484 C   0  0  0  0  0  0  0  0  0  0  0  0
   22.5233   -4.4238  -16.7008 C   0  0  0  0  0  0  0  0  0  0  0  0
   22.6411   -3.1995  -16.0596 O   0  0  0  0  0  0  0  0  0  0  0  0
   21.7902   -4.4870  -17.7133 O   0  0  0  0  0  0  0  0  0  0  0  0
  2  1  1  0
  3  2  2  0
  4  2  1  0
  4  5  1  0
  5  6  1  6
  7  5  1  0
  7  8  2  0
  9  7  1  0
 10  9  1  0
 10 11  1  1
 12 11  1  0
 12 13  2  0
 14 13  1  0
 15 16  2  0
 15 14  1  0
 16 12  1  0
 17 10  1  0
 18 17  2  0
 19 17  1  0
 20 19  1  0
 20 21  1  6
 22 21  1  0
 23 22  2  0
 24 23  1  0
 25 26  1  0
 25 24  2  0
 26 27  2  0
 27 22  1  0
 28 20  1  0
 29 28  1  0
 30 28  2  0
M  END
$$$$
