NHF.pdb
     RDKit          3D

 30 31  0  0  1  0  0  0  0  0999 V2000
   30.1557  -24.3419  -17.4066 N   0  0  0  0  0  0  0  0  0  0  0  0
   30.1830  -23.5354  -16.2679 C   0  0  0  0  0  0  0  0  0  0  0  0
   30.9972  -23.7947  -15.3434 O   0  0  0  0  0  0  0  0  0  0  0  0
   29.3052  -22.3614  -16.0483 C   0  0  0  0  0  0  0  0  0  0  0  0
   28.2894  -22.1830  -17.1304 C   0  0  2  0  0  0  0  0  0  0  0  0
   28.8598  -21.5199  -18.2932 N   0  0  0  0  0  0  0  0  0  0  0  0
   27.1655  -21.3676  -16.6272 C   0  0  0  0  0  0  0  0  0  0  0  0
   27.3614  -20.2360  -16.0649 O   0  0  0  0  0  0  0  0  0  0  0  0
   25.8100  -21.7552  -16.7200 N   0  0  0  0  0  0  0  0  0  0  0  0
   24.6980  -20.9764  -16.1681 C   0  0  1  0  0  0  0  0  0  0  0  0
   23.4752  -21.1124  -16.9920 C   0  0  0  0  0  0  0  0  0  0  0  0
   22.4237  -20.1793  -16.5623 C   0  0  0  0  0  0  0  0  0  0  0  0
   22.6056  -19.1973  -15.5574 C   0  0  0  0  0  0  0  0  0  0  0  0
   21.4697  -18.5041  -15.3895 N   0  0  0  0  0  0  0  0  0  0  0  0
   20.5713  -19.0013  -16.2435 C   0  0  0  0  0  0  0  0  0  0  0  0
   21.1500  -19.9817  -16.9212 N   0  0  0  0  0  0  0  0  0  0  0  0
   24.5516  -21.3711  -14.7472 C   0  0  0  0  0  0  0  0  0  0  0  0
   24.7284  -22.5330  -14.3269 O   0  0  0  0  0  0  0  0  0  0  0  0
   24.1859  -20.3696  -13.7874 N   0  0  0  0  0  0  0  0  0  0  0  0
   24.0592  -20.6673  -12.3696 C   0  0  1  0  0  0  0  0  0  0  0  0
   24.9431  -19.7403  -11.5628 C   0  0  0  0  0  0  0  0  0  0  0  0
   26.3748  -20.0869  -11.6860 C   0  0  0  0  0  0  0  0  0  0  0  0
   27.1604  -19.5158  -12.6612 C   0  0  0  0  0  0  0  0  0  0  0  0
   28.4970  -19.8269  -12.7882 C   0  0  0  0  0  0  0  0  0  0  0  0
   29.0854  -20.7260  -11.9339 C   0  0  0  0  0  0  0  0  0  0  0  0
   28.3165  -21.3100  -10.9495 C   0  0  0  0  0  0  0  0  0  0  0  0
   26.9706  -20.9887  -10.8313 C   0  0  0  0  0  0  0  0  0  0  0  0
   22.6490  -20.5946  -11.9777 C   0  0  0  0  0  0  0  0  0  0  0  0
   22.1468  -21.2855  -10.8849 O   0  0  0  0  0  0  0  0  0  0  0  0
   21.8552  -19.8894  -12.6404 O   0  0  0  0  0  0  0  0  0  0  0  0
  2  1  1  0
  3  2  2  0
  4  2  1  0
  4  5  1  0
  5  6  1  6
  7  5  1  0
  7  8  2  0
  9  7  1  0
 10  9  1  0
 10 11  1  6
 12 11  1  0
 12 13  2  0
 14 13  1  0
 15 16  2  0
 15 14  1  0
 16 12  1  0
 17 10  1  0
 18 17  2  0
 19 17  1  0
 20 19  1  0
 20 21  1  1
 22 21  1  0
 23 22  2  0
 24 23  1  0
 25 26  1  0
 25 24  2  0
 26 27  2  0
 27 22  1  0
 28 20  1  0
 29 28  1  0
 30 28  2  0
M  END
$$$$
