NHF.pdb
     RDKit          3D

 30 31  0  0  1  0  0  0  0  0999 V2000
   23.3041  -13.7228  -20.7392 N   0  0  0  0  0  0  0  0  0  0  0  0
   23.8702  -12.6536  -20.0434 C   0  0  0  0  0  0  0  0  0  0  0  0
   25.1090  -12.6454  -19.8194 O   0  0  0  0  0  0  0  0  0  0  0  0
   23.1107  -11.4893  -19.5290 C   0  0  0  0  0  0  0  0  0  0  0  0
   23.3178  -11.2585  -18.0667 C   0  0  2  0  0  0  0  0  0  0  0  0
   22.9465  -12.4279  -17.2845 N   0  0  0  0  0  0  0  0  0  0  0  0
   22.4960  -10.1145  -17.6229 C   0  0  0  0  0  0  0  0  0  0  0  0
   22.7077   -8.9315  -18.0597 O   0  0  0  0  0  0  0  0  0  0  0  0
   21.4310  -10.2227  -16.7007 N   0  0  0  0  0  0  0  0  0  0  0  0
   20.5620   -9.1054  -16.3215 C   0  0  1  0  0  0  0  0  0  0  0  0
   19.2166   -9.5737  -15.9174 C   0  0  0  0  0  0  0  0  0  0  0  0
   18.3762   -8.4661  -15.4399 C   0  0  0  0  0  0  0  0  0  0  0  0
   18.8117   -7.1194  -15.3745 C   0  0  0  0  0  0  0  0  0  0  0  0
   17.8244   -6.3459  -14.8990 N   0  0  0  0  0  0  0  0  0  0  0  0
   16.7785   -7.1406  -14.6583 C   0  0  0  0  0  0  0  0  0  0  0  0
   17.1222   -8.3786  -14.9818 N   0  0  0  0  0  0  0  0  0  0  0  0
   21.2896   -8.3130  -15.3022 C   0  0  0  0  0  0  0  0  0  0  0  0
   21.9002   -8.8160  -14.3367 O   0  0  0  0  0  0  0  0  0  0  0  0
   21.3015   -6.8834  -15.4193 N   0  0  0  0  0  0  0  0  0  0  0  0
   22.0535   -6.0389  -14.5047 C   0  0  1  0  0  0  0  0  0  0  0  0
   23.5372   -6.1738  -14.7737 C   0  0  0  0  0  0  0  0  0  0  0  0
   23.9134   -5.6487  -16.1033 C   0  0  0  0  0  0  0  0  0  0  0  0
   24.0800   -6.4933  -17.1771 C   0  0  0  0  0  0  0  0  0  0  0  0
   24.4288   -6.0194  -18.4234 C   0  0  0  0  0  0  0  0  0  0  0  0
   24.6212   -4.6756  -18.6270 C   0  0  0  0  0  0  0  0  0  0  0  0
   24.4593   -3.8116  -17.5646 C   0  0  0  0  0  0  0  0  0  0  0  0
   24.1077   -4.3008  -16.3133 C   0  0  0  0  0  0  0  0  0  0  0  0
   21.5782   -4.6568  -14.6108 C   0  0  0  0  0  0  0  0  0  0  0  0
   21.9337   -3.6784  -13.6942 O   0  0  0  0  0  0  0  0  0  0  0  0
   20.8244   -4.3293  -15.5548 O   0  0  0  0  0  0  0  0  0  0  0  0
  2  1  1  0
  3  2  2  0
  4  2  1  0
  4  5  1  0
  5  6  1  1
  7  5  1  0
  7  8  2  0
  9  7  1  0
 10  9  1  0
 10 11  1  1
 12 11  1  0
 12 13  2  0
 14 13  1  0
 15 16  2  0
 15 14  1  0
 16 12  1  0
 17 10  1  0
 18 17  2  0
 19 17  1  0
 20 19  1  0
 20 21  1  6
 22 21  1  0
 23 22  2  0
 24 23  1  0
 25 26  1  0
 25 24  2  0
 26 27  2  0
 27 22  1  0
 28 20  1  0
 29 28  1  0
 30 28  2  0
M  END
$$$$
