NHF.pdb
     RDKit          3D

 30 31  0  0  1  0  0  0  0  0999 V2000
   17.8434  -13.7166  -18.4583 N   0  0  0  0  0  0  0  0  0  0  0  0
   18.3324  -12.4104  -18.5085 C   0  0  0  0  0  0  0  0  0  0  0  0
   17.9068  -11.6221  -19.3930 O   0  0  0  0  0  0  0  0  0  0  0  0
   19.3440  -11.8554  -17.5781 C   0  0  0  0  0  0  0  0  0  0  0  0
   20.1664  -10.7687  -18.1922 C   0  0  2  0  0  0  0  0  0  0  0  0
   20.9315  -11.2570  -19.3296 N   0  0  0  0  0  0  0  0  0  0  0  0
   21.1063  -10.2294  -17.1888 C   0  0  0  0  0  0  0  0  0  0  0  0
   20.7268   -9.9540  -15.9992 O   0  0  0  0  0  0  0  0  0  0  0  0
   22.4721   -9.9764  -17.4474 N   0  0  0  0  0  0  0  0  0  0  0  0
   23.4127   -9.4677  -16.4453 C   0  0  1  0  0  0  0  0  0  0  0  0
   24.7385  -10.1167  -16.5629 C   0  0  0  0  0  0  0  0  0  0  0  0
   24.6789  -11.5426  -16.2105 C   0  0  0  0  0  0  0  0  0  0  0  0
   23.5104  -12.1876  -15.7351 C   0  0  0  0  0  0  0  0  0  0  0  0
   23.7701  -13.4825  -15.5014 N   0  0  0  0  0  0  0  0  0  0  0  0
   25.0533  -13.6914  -15.8070 C   0  0  0  0  0  0  0  0  0  0  0  0
   25.5677  -12.5426  -16.2204 N   0  0  0  0  0  0  0  0  0  0  0  0
   23.4179   -7.9903  -16.5618 C   0  0  0  0  0  0  0  0  0  0  0  0
   23.8724   -7.3726  -17.5466 O   0  0  0  0  0  0  0  0  0  0  0  0
   22.8719   -7.2119  -15.4878 N   0  0  0  0  0  0  0  0  0  0  0  0
   22.7755   -5.7623  -15.5548 C   0  0  1  0  0  0  0  0  0  0  0  0
   21.9358   -5.3518  -16.7457 C   0  0  0  0  0  0  0  0  0  0  0  0
   21.7584   -3.8864  -16.8248 C   0  0  0  0  0  0  0  0  0  0  0  0
   20.5521   -3.3012  -16.5136 C   0  0  0  0  0  0  0  0  0  0  0  0
   20.3710   -1.9366  -16.5807 C   0  0  0  0  0  0  0  0  0  0  0  0
   21.4028   -1.1167  -16.9646 C   0  0  0  0  0  0  0  0  0  0  0  0
   22.6200   -1.6823  -17.2808 C   0  0  0  0  0  0  0  0  0  0  0  0
   22.7906   -3.0587  -17.2096 C   0  0  0  0  0  0  0  0  0  0  0  0
   22.2554   -5.2466  -14.2856 C   0  0  0  0  0  0  0  0  0  0  0  0
   22.5529   -3.9722  -13.8258 O   0  0  0  0  0  0  0  0  0  0  0  0
   21.5154   -5.9669  -13.5783 O   0  0  0  0  0  0  0  0  0  0  0  0
  2  1  1  0
  3  2  2  0
  4  2  1  0
  4  5  1  0
  5  6  1  6
  7  5  1  0
  7  8  2  0
  9  7  1  0
 10  9  1  0
 10 11  1  6
 12 11  1  0
 12 13  2  0
 14 13  1  0
 15 16  2  0
 15 14  1  0
 16 12  1  0
 17 10  1  0
 18 17  2  0
 19 17  1  0
 20 19  1  0
 20 21  1  6
 22 21  1  0
 23 22  2  0
 24 23  1  0
 25 26  1  0
 25 24  2  0
 26 27  2  0
 27 22  1  0
 28 20  1  0
 29 28  1  0
 30 28  2  0
M  END
$$$$
