NHF.pdb
     RDKit          3D

 30 31  0  0  1  0  0  0  0  0999 V2000
   29.8892  -20.4788  -17.2758 N   0  0  0  0  0  0  0  0  0  0  0  0
   29.1918  -21.2224  -16.3227 C   0  0  0  0  0  0  0  0  0  0  0  0
   29.1943  -22.4794  -16.3930 O   0  0  0  0  0  0  0  0  0  0  0  0
   28.4230  -20.6376  -15.1984 C   0  0  0  0  0  0  0  0  0  0  0  0
   26.9492  -20.6189  -15.4477 C   0  0  2  0  0  0  0  0  0  0  0  0
   26.5959  -19.6609  -16.4844 N   0  0  0  0  0  0  0  0  0  0  0  0
   26.2397  -20.2520  -14.2055 C   0  0  0  0  0  0  0  0  0  0  0  0
   26.1323  -19.0334  -13.8335 O   0  0  0  0  0  0  0  0  0  0  0  0
   25.6326  -21.1902  -13.3408 N   0  0  0  0  0  0  0  0  0  0  0  0
   24.8377  -20.8230  -12.1658 C   0  0  1  0  0  0  0  0  0  0  0  0
   23.4549  -21.3446  -12.2583 C   0  0  0  0  0  0  0  0  0  0  0  0
   22.6591  -20.9879  -11.0748 C   0  0  0  0  0  0  0  0  0  0  0  0
   23.1114  -20.1121  -10.0571 C   0  0  0  0  0  0  0  0  0  0  0  0
   22.1657  -19.9849   -9.1145 N   0  0  0  0  0  0  0  0  0  0  0  0
   21.1300  -20.7415   -9.4868 C   0  0  0  0  0  0  0  0  0  0  0  0
   21.4391  -21.3206  -10.6377 N   0  0  0  0  0  0  0  0  0  0  0  0
   25.5995  -21.2561  -10.9706 C   0  0  0  0  0  0  0  0  0  0  0  0
   26.1141  -22.3865  -10.8466 O   0  0  0  0  0  0  0  0  0  0  0  0
   25.7632  -20.3327   -9.8852 N   0  0  0  0  0  0  0  0  0  0  0  0
   26.4657  -20.6922   -8.6636 C   0  0  1  0  0  0  0  0  0  0  0  0
   27.3476  -19.5466   -8.2147 C   0  0  0  0  0  0  0  0  0  0  0  0
   27.9977  -19.8186   -6.9153 C   0  0  0  0  0  0  0  0  0  0  0  0
   29.0913  -20.6500   -6.8309 C   0  0  0  0  0  0  0  0  0  0  0  0
   29.7097  -20.9124   -5.6275 C   0  0  0  0  0  0  0  0  0  0  0  0
   29.2440  -20.3435   -4.4682 C   0  0  0  0  0  0  0  0  0  0  0  0
   28.1494  -19.5072   -4.5303 C   0  0  0  0  0  0  0  0  0  0  0  0
   27.5344  -19.2504   -5.7487 C   0  0  0  0  0  0  0  0  0  0  0  0
   25.4965  -21.0995   -7.6427 C   0  0  0  0  0  0  0  0  0  0  0  0
   25.8040  -22.0242   -6.6557 O   0  0  0  0  0  0  0  0  0  0  0  0
   24.3461  -20.6062   -7.6457 O   0  0  0  0  0  0  0  0  0  0  0  0
  2  1  1  0
  3  2  2  0
  4  2  1  0
  4  5  1  0
  5  6  1  6
  7  5  1  0
  7  8  2  0
  9  7  1  0
 10  9  1  0
 10 11  1  6
 12 11  1  0
 12 13  2  0
 14 13  1  0
 15 16  2  0
 15 14  1  0
 16 12  1  0
 17 10  1  0
 18 17  2  0
 19 17  1  0
 20 19  1  0
 20 21  1  1
 22 21  1  0
 23 22  2  0
 24 23  1  0
 25 26  1  0
 25 24  2  0
 26 27  2  0
 27 22  1  0
 28 20  1  0
 29 28  1  0
 30 28  2  0
M  END
$$$$
