NHF.pdb
     RDKit          3D

 30 31  0  0  1  0  0  0  0  0999 V2000
   17.9555  -20.3254  -11.8242 N   0  0  0  0  0  0  0  0  0  0  0  0
   19.0721  -20.9672  -11.2866 C   0  0  0  0  0  0  0  0  0  0  0  0
   19.0424  -21.3690  -10.0939 O   0  0  0  0  0  0  0  0  0  0  0  0
   20.3311  -21.2234  -12.0258 C   0  0  0  0  0  0  0  0  0  0  0  0
   20.3013  -20.7007  -13.4259 C   0  0  2  0  0  0  0  0  0  0  0  0
   19.3795  -21.4586  -14.2585 N   0  0  0  0  0  0  0  0  0  0  0  0
   21.6516  -20.7882  -14.0178 C   0  0  0  0  0  0  0  0  0  0  0  0
   22.1124  -21.8926  -14.4683 O   0  0  0  0  0  0  0  0  0  0  0  0
   22.5308  -19.6885  -14.1357 N   0  0  0  0  0  0  0  0  0  0  0  0
   23.7947  -19.7288  -14.8763 C   0  0  1  0  0  0  0  0  0  0  0  0
   23.8464  -18.6835  -15.9239 C   0  0  0  0  0  0  0  0  0  0  0  0
   23.2648  -19.1532  -17.1896 C   0  0  0  0  0  0  0  0  0  0  0  0
   22.0352  -18.6826  -17.7132 C   0  0  0  0  0  0  0  0  0  0  0  0
   21.7722  -19.2972  -18.8759 N   0  0  0  0  0  0  0  0  0  0  0  0
   22.7805  -20.1393  -19.1167 C   0  0  0  0  0  0  0  0  0  0  0  0
   23.6443  -20.0398  -18.1170 N   0  0  0  0  0  0  0  0  0  0  0  0
   24.8879  -19.6789  -13.8770 C   0  0  0  0  0  0  0  0  0  0  0  0
   24.9358  -18.8556  -12.9400 O   0  0  0  0  0  0  0  0  0  0  0  0
   25.9603  -20.6260  -13.9801 N   0  0  0  0  0  0  0  0  0  0  0  0
   27.1017  -20.6027  -13.0791 C   0  0  1  0  0  0  0  0  0  0  0  0
   26.9231  -21.6357  -11.9870 C   0  0  0  0  0  0  0  0  0  0  0  0
   26.6745  -21.0163  -10.6681 C   0  0  0  0  0  0  0  0  0  0  0  0
   25.3928  -20.7660  -10.2334 C   0  0  0  0  0  0  0  0  0  0  0  0
   25.1442  -20.1908   -9.0059 C   0  0  0  0  0  0  0  0  0  0  0  0
   26.1826  -19.8488   -8.1757 C   0  0  0  0  0  0  0  0  0  0  0  0
   27.4747  -20.0909   -8.5917 C   0  0  0  0  0  0  0  0  0  0  0  0
   27.7129  -20.6709   -9.8308 C   0  0  0  0  0  0  0  0  0  0  0  0
   28.3357  -20.7919  -13.8465 C   0  0  0  0  0  0  0  0  0  0  0  0
   28.3381  -20.9123  -15.2283 O   0  0  0  0  0  0  0  0  0  0  0  0
   29.4353  -20.8493  -13.2514 O   0  0  0  0  0  0  0  0  0  0  0  0
  2  1  1  0
  3  2  2  0
  4  2  1  0
  4  5  1  0
  5  6  1  6
  7  5  1  0
  7  8  2  0
  9  7  1  0
 10  9  1  0
 10 11  1  6
 12 11  1  0
 12 13  2  0
 14 13  1  0
 15 16  2  0
 15 14  1  0
 16 12  1  0
 17 10  1  0
 18 17  2  0
 19 17  1  0
 20 19  1  0
 20 21  1  1
 22 21  1  0
 23 22  2  0
 24 23  1  0
 25 26  1  0
 25 24  2  0
 26 27  2  0
 27 22  1  0
 28 20  1  0
 29 28  1  0
 30 28  2  0
M  END
$$$$
