NHF.pdb
     RDKit          3D

 30 31  0  0  1  0  0  0  0  0999 V2000
   29.3088  -19.1800  -16.6282 N   0  0  0  0  0  0  0  0  0  0  0  0
   28.5556  -18.1287  -16.1037 C   0  0  0  0  0  0  0  0  0  0  0  0
   28.5475  -17.0166  -16.6935 O   0  0  0  0  0  0  0  0  0  0  0  0
   27.7380  -18.2143  -14.8703 C   0  0  0  0  0  0  0  0  0  0  0  0
   27.8608  -19.5347  -14.1803 C   0  0  2  0  0  0  0  0  0  0  0  0
   27.4072  -20.6249  -15.0306 N   0  0  0  0  0  0  0  0  0  0  0  0
   27.0473  -19.5288  -12.9477 C   0  0  0  0  0  0  0  0  0  0  0  0
   26.9041  -18.4683  -12.2478 O   0  0  0  0  0  0  0  0  0  0  0  0
   26.3730  -20.6644  -12.4456 N   0  0  0  0  0  0  0  0  0  0  0  0
   25.5653  -20.6605  -11.2229 C   0  0  1  0  0  0  0  0  0  0  0  0
   24.4019  -21.5698  -11.3351 C   0  0  0  0  0  0  0  0  0  0  0  0
   23.3531  -21.0067  -12.1976 C   0  0  0  0  0  0  0  0  0  0  0  0
   23.3857  -19.6896  -12.7186 C   0  0  0  0  0  0  0  0  0  0  0  0
   22.2936  -19.4700  -13.4657 N   0  0  0  0  0  0  0  0  0  0  0  0
   21.5659  -20.5897  -13.4437 C   0  0  0  0  0  0  0  0  0  0  0  0
   22.2040  -21.4776  -12.6955 N   0  0  0  0  0  0  0  0  0  0  0  0
   26.4822  -20.9414  -10.0931 C   0  0  0  0  0  0  0  0  0  0  0  0
   27.3352  -21.8526  -10.1004 O   0  0  0  0  0  0  0  0  0  0  0  0
   26.3959  -20.1264   -8.9158 N   0  0  0  0  0  0  0  0  0  0  0  0
   27.1198  -20.4500   -7.6966 C   0  0  1  0  0  0  0  0  0  0  0  0
   27.6879  -19.1898   -7.0794 C   0  0  0  0  0  0  0  0  0  0  0  0
   28.3795  -19.4574   -5.8007 C   0  0  0  0  0  0  0  0  0  0  0  0
   28.1636  -18.6617   -4.6987 C   0  0  0  0  0  0  0  0  0  0  0  0
   28.7992  -18.8989   -3.4990 C   0  0  0  0  0  0  0  0  0  0  0  0
   29.6748  -19.9485   -3.3720 C   0  0  0  0  0  0  0  0  0  0  0  0
   29.9055  -20.7584   -4.4639 C   0  0  0  0  0  0  0  0  0  0  0  0
   29.2593  -20.5095   -5.6677 C   0  0  0  0  0  0  0  0  0  0  0  0
   26.2393  -21.1848   -6.7843 C   0  0  0  0  0  0  0  0  0  0  0  0
   26.7310  -21.9801   -5.7598 O   0  0  0  0  0  0  0  0  0  0  0  0
   24.9976  -21.1039   -6.9190 O   0  0  0  0  0  0  0  0  0  0  0  0
  2  1  1  0
  3  2  2  0
  4  2  1  0
  4  5  1  0
  5  6  1  6
  7  5  1  0
  7  8  2  0
  9  7  1  0
 10  9  1  0
 10 11  1  6
 12 11  1  0
 12 13  2  0
 14 13  1  0
 15 16  2  0
 15 14  1  0
 16 12  1  0
 17 10  1  0
 18 17  2  0
 19 17  1  0
 20 19  1  0
 20 21  1  1
 22 21  1  0
 23 22  2  0
 24 23  1  0
 25 26  1  0
 25 24  2  0
 26 27  2  0
 27 22  1  0
 28 20  1  0
 29 28  1  0
 30 28  2  0
M  END
$$$$
