NHF.pdb
     RDKit          3D

 30 31  0  0  1  0  0  0  0  0999 V2000
   21.1762  -20.4211  -12.8732 N   0  0  0  0  0  0  0  0  0  0  0  0
   21.5546  -19.3030  -13.6177 C   0  0  0  0  0  0  0  0  0  0  0  0
   20.8141  -18.2850  -13.6282 O   0  0  0  0  0  0  0  0  0  0  0  0
   22.7953  -19.2104  -14.4235 C   0  0  0  0  0  0  0  0  0  0  0  0
   23.5887  -20.4774  -14.4192 C   0  0  2  0  0  0  0  0  0  0  0  0
   24.0683  -20.8017  -13.0843 N   0  0  0  0  0  0  0  0  0  0  0  0
   24.7529  -20.3377  -15.3171 C   0  0  0  0  0  0  0  0  0  0  0  0
   24.6298  -19.8727  -16.5018 O   0  0  0  0  0  0  0  0  0  0  0  0
   26.0711  -20.6959  -14.9563 N   0  0  0  0  0  0  0  0  0  0  0  0
   27.2221  -20.5895  -15.8570 C   0  0  1  0  0  0  0  0  0  0  0  0
   28.1927  -19.5760  -15.3841 C   0  0  0  0  0  0  0  0  0  0  0  0
   27.7269  -18.2086  -15.6566 C   0  0  0  0  0  0  0  0  0  0  0  0
   27.2095  -17.3409  -14.6632 C   0  0  0  0  0  0  0  0  0  0  0  0
   26.8702  -16.1676  -15.2176 N   0  0  0  0  0  0  0  0  0  0  0  0
   27.1488  -16.2493  -16.5212 C   0  0  0  0  0  0  0  0  0  0  0  0
   27.6498  -17.4528  -16.7579 N   0  0  0  0  0  0  0  0  0  0  0  0
   27.7678  -21.9563  -16.0314 C   0  0  0  0  0  0  0  0  0  0  0  0
   28.0672  -22.7112  -15.0835 O   0  0  0  0  0  0  0  0  0  0  0  0
   27.9687  -22.4541  -17.3616 N   0  0  0  0  0  0  0  0  0  0  0  0
   28.2663  -23.8528  -17.6269 C   0  0  1  0  0  0  0  0  0  0  0  0
   27.0299  -24.5588  -18.1412 C   0  0  0  0  0  0  0  0  0  0  0  0
   25.9772  -24.6640  -17.1088 C   0  0  0  0  0  0  0  0  0  0  0  0
   26.1190  -25.5159  -16.0371 C   0  0  0  0  0  0  0  0  0  0  0  0
   25.1477  -25.6243  -15.0653 C   0  0  0  0  0  0  0  0  0  0  0  0
   23.9999  -24.8754  -15.1434 C   0  0  0  0  0  0  0  0  0  0  0  0
   23.8376  -24.0154  -16.2090 C   0  0  0  0  0  0  0  0  0  0  0  0
   24.8232  -23.9148  -17.1822 C   0  0  0  0  0  0  0  0  0  0  0  0
   29.4012  -23.9458  -18.5494 C   0  0  0  0  0  0  0  0  0  0  0  0
   30.3438  -24.9598  -18.4649 O   0  0  0  0  0  0  0  0  0  0  0  0
   29.5409  -23.0894  -19.4514 O   0  0  0  0  0  0  0  0  0  0  0  0
  2  1  1  0
  3  2  2  0
  4  2  1  0
  4  5  1  0
  5  6  1  1
  7  5  1  0
  7  8  2  0
  9  7  1  0
 10  9  1  0
 10 11  1  1
 12 11  1  0
 12 13  2  0
 14 13  1  0
 15 16  2  0
 15 14  1  0
 16 12  1  0
 17 10  1  0
 18 17  2  0
 19 17  1  0
 20 19  1  0
 20 21  1  6
 22 21  1  0
 23 22  2  0
 24 23  1  0
 25 26  1  0
 25 24  2  0
 26 27  2  0
 27 22  1  0
 28 20  1  0
 29 28  1  0
 30 28  2  0
M  END
$$$$
