NHF.pdb
     RDKit          3D

 30 31  0  0  1  0  0  0  0  0999 V2000
   25.6389  -12.9106  -16.0004 N   0  0  0  0  0  0  0  0  0  0  0  0
   24.4381  -13.4673  -15.5578 C   0  0  0  0  0  0  0  0  0  0  0  0
   23.4626  -12.7143  -15.3006 O   0  0  0  0  0  0  0  0  0  0  0  0
   24.2076  -14.9179  -15.3582 C   0  0  0  0  0  0  0  0  0  0  0  0
   25.4401  -15.7378  -15.5659 C   0  0  2  0  0  0  0  0  0  0  0  0
   25.9461  -15.6053  -16.9237 N   0  0  0  0  0  0  0  0  0  0  0  0
   25.1387  -17.1611  -15.3121 C   0  0  0  0  0  0  0  0  0  0  0  0
   23.9628  -17.6344  -15.4800 O   0  0  0  0  0  0  0  0  0  0  0  0
   26.0976  -18.1013  -14.8730 N   0  0  0  0  0  0  0  0  0  0  0  0
   25.8263  -19.5330  -14.7174 C   0  0  1  0  0  0  0  0  0  0  0  0
   26.5423  -20.3374  -15.7337 C   0  0  0  0  0  0  0  0  0  0  0  0
   26.2982  -21.7764  -15.5587 C   0  0  0  0  0  0  0  0  0  0  0  0
   27.2620  -22.6821  -15.0506 C   0  0  0  0  0  0  0  0  0  0  0  0
   26.7452  -23.9191  -15.0100 N   0  0  0  0  0  0  0  0  0  0  0  0
   25.4938  -23.8418  -15.4702 C   0  0  0  0  0  0  0  0  0  0  0  0
   25.2514  -22.5781  -15.7861 N   0  0  0  0  0  0  0  0  0  0  0  0
   26.1231  -19.8829  -13.3082 C   0  0  0  0  0  0  0  0  0  0  0  0
   27.2082  -19.6333  -12.7440 O   0  0  0  0  0  0  0  0  0  0  0  0
   25.1138  -20.5474  -12.5353 N   0  0  0  0  0  0  0  0  0  0  0  0
   25.3469  -20.9774  -11.1657 C   0  0  1  0  0  0  0  0  0  0  0  0
   25.5265  -19.7730  -10.2662 C   0  0  0  0  0  0  0  0  0  0  0  0
   26.6910  -19.9166   -9.3671 C   0  0  0  0  0  0  0  0  0  0  0  0
   27.5355  -20.9986   -9.4694 C   0  0  0  0  0  0  0  0  0  0  0  0
   28.6263  -21.1462   -8.6400 C   0  0  0  0  0  0  0  0  0  0  0  0
   28.9010  -20.2053   -7.6789 C   0  0  0  0  0  0  0  0  0  0  0  0
   28.0676  -19.1133   -7.5594 C   0  0  0  0  0  0  0  0  0  0  0  0
   26.9713  -18.9754   -8.4007 C   0  0  0  0  0  0  0  0  0  0  0  0
   24.2541  -21.8532  -10.7343 C   0  0  0  0  0  0  0  0  0  0  0  0
   24.4278  -22.8352   -9.7702 O   0  0  0  0  0  0  0  0  0  0  0  0
   23.1174  -21.7253  -11.2424 O   0  0  0  0  0  0  0  0  0  0  0  0
  2  1  1  0
  3  2  2  0
  4  2  1  0
  4  5  1  0
  5  6  1  6
  7  5  1  0
  7  8  2  0
  9  7  1  0
 10  9  1  0
 10 11  1  6
 12 11  1  0
 12 13  2  0
 14 13  1  0
 15 16  2  0
 15 14  1  0
 16 12  1  0
 17 10  1  0
 18 17  2  0
 19 17  1  0
 20 19  1  0
 20 21  1  1
 22 21  1  0
 23 22  2  0
 24 23  1  0
 25 26  1  0
 25 24  2  0
 26 27  2  0
 27 22  1  0
 28 20  1  0
 29 28  1  0
 30 28  2  0
M  END
$$$$
