IEN.pdb
     RDKit          3D

 26 25  0  0  1  0  0  0  0  0999 V2000
   26.0495  -14.5003  -15.4272 C   0  0  0  0  0  0  0  0  0  0  0  0
   24.6226  -14.4882  -15.8578 C   0  0  0  0  0  0  0  0  0  0  0  0
   24.0852  -13.1184  -16.2247 C   0  0  2  0  0  0  0  0  0  0  0  0
   24.1895  -12.2758  -14.9639 C   0  0  0  0  0  0  0  0  0  0  0  0
   22.6617  -13.2728  -16.6338 C   0  0  2  0  0  0  0  0  0  0  0  0
   22.5925  -14.3009  -17.6413 N   0  0  0  0  0  0  0  0  0  0  0  0
   21.9821  -12.0089  -17.0253 C   0  0  0  0  0  0  0  0  0  0  0  0
   22.4292  -11.3638  -18.0053 O   0  0  0  0  0  0  0  0  0  0  0  0
   20.8544  -11.5105  -16.3352 N   0  0  0  0  0  0  0  0  0  0  0  0
   20.1295  -10.2843  -16.6665 C   0  0  1  0  0  0  0  0  0  0  0  0
   18.6425  -10.6128  -16.7745 C   0  0  0  0  0  0  0  0  0  0  0  0
   18.2288  -11.2703  -18.0379 C   0  0  0  0  0  0  0  0  0  0  0  0
   16.7544  -11.5063  -17.9403 C   0  0  0  0  0  0  0  0  0  0  0  0
   15.9951  -10.8338  -18.6651 O   0  0  0  0  0  0  0  0  0  0  0  0
   20.3455   -9.2339  -15.7048 C   0  0  0  0  0  0  0  0  0  0  0  0
   20.3484   -9.6028  -14.4599 O   0  0  0  0  0  0  0  0  0  0  0  0
   16.2642  -12.4376  -17.0718 O   0  0  0  0  0  0  0  0  0  0  0  0
   21.3411   -5.0705  -12.7937 N   0  0  0  0  0  0  0  0  0  0  0  0
   22.2544   -5.1232  -13.8687 C   0  0  0  0  0  0  0  0  0  0  0  0
   23.2390   -4.3320  -13.8808 O   0  0  0  0  0  0  0  0  0  0  0  0
   22.0421   -6.0945  -14.9500 C   0  0  0  0  0  0  0  0  0  0  0  0
   20.7986   -6.9469  -14.7659 C   0  0  2  0  0  0  0  0  0  0  0  0
   20.5654   -7.8552  -15.8718 N   0  0  0  0  0  0  0  0  0  0  0  0
   19.6589   -6.0012  -14.7024 C   0  0  0  0  0  0  0  0  0  0  0  0
   19.3002   -5.2960  -13.5652 O   0  0  0  0  0  0  0  0  0  0  0  0
   18.9374   -5.7907  -15.7205 O   0  0  0  0  0  0  0  0  0  0  0  0
  2  1  1  0
  3  5  1  0
  3  2  1  0
  3  4  1  1
  5  6  1  6
  7  5  1  0
  7  8  2  0
  9  7  1  0
 10  9  1  0
 10 11  1  1
 12 11  1  0
 12 13  1  0
 13 14  2  0
 15 10  1  0
 16 15  2  0
 17 13  1  0
 18 19  1  0
 19 20  2  0
 19 21  1  0
 22 21  1  6
 22 23  1  0
 22 24  1  0
 23 15  1  0
 24 25  1  0
 26 24  2  0
M  END
$$$$
