IEN.pdb
     RDKit          3D

 26 25  0  0  1  0  0  0  0  0999 V2000
   23.7567  -16.2420  -15.9963 C   0  0  0  0  0  0  0  0  0  0  0  0
   22.6993  -15.3307  -15.4738 C   0  0  0  0  0  0  0  0  0  0  0  0
   22.7214  -13.9339  -16.0639 C   0  0  2  0  0  0  0  0  0  0  0  0
   24.0628  -13.3351  -15.6733 C   0  0  0  0  0  0  0  0  0  0  0  0
   21.6056  -13.1564  -15.4573 C   0  0  2  0  0  0  0  0  0  0  0  0
   20.4050  -13.9486  -15.5466 N   0  0  0  0  0  0  0  0  0  0  0  0
   21.4471  -11.7741  -15.9835 C   0  0  0  0  0  0  0  0  0  0  0  0
   22.4610  -11.0369  -16.0533 O   0  0  0  0  0  0  0  0  0  0  0  0
   20.1994  -11.2633  -16.4062 N   0  0  0  0  0  0  0  0  0  0  0  0
   19.9646   -9.9158  -16.9237 C   0  0  1  0  0  0  0  0  0  0  0  0
   18.5372   -9.8429  -17.4601 C   0  0  0  0  0  0  0  0  0  0  0  0
   18.2979  -10.5761  -18.7270 C   0  0  0  0  0  0  0  0  0  0  0  0
   16.8322  -10.4805  -19.0121 C   0  0  0  0  0  0  0  0  0  0  0  0
   16.2669  -11.4508  -19.5535 O   0  0  0  0  0  0  0  0  0  0  0  0
   20.1838   -8.8938  -15.9325 C   0  0  0  0  0  0  0  0  0  0  0  0
   19.7569   -9.1684  -14.7374 O   0  0  0  0  0  0  0  0  0  0  0  0
   16.1413   -9.3504  -18.6844 O   0  0  0  0  0  0  0  0  0  0  0  0
   22.5401   -5.4749  -12.4301 N   0  0  0  0  0  0  0  0  0  0  0  0
   22.4518   -5.0744  -13.7807 C   0  0  0  0  0  0  0  0  0  0  0  0
   22.4814   -3.8434  -14.0622 O   0  0  0  0  0  0  0  0  0  0  0  0
   22.3268   -6.0947  -14.8300 C   0  0  0  0  0  0  0  0  0  0  0  0
   20.9534   -6.7403  -14.8897 C   0  0  2  0  0  0  0  0  0  0  0  0
   20.7944   -7.6304  -16.0231 N   0  0  0  0  0  0  0  0  0  0  0  0
   19.9841   -5.6290  -15.0411 C   0  0  0  0  0  0  0  0  0  0  0  0
   19.4202   -4.9430  -13.9778 O   0  0  0  0  0  0  0  0  0  0  0  0
   19.6156   -5.2461  -16.1896 O   0  0  0  0  0  0  0  0  0  0  0  0
  2  1  1  0
  3  5  1  0
  3  2  1  0
  3  4  1  1
  5  6  1  6
  7  5  1  0
  7  8  2  0
  9  7  1  0
 10  9  1  0
 10 11  1  1
 12 11  1  0
 12 13  1  0
 13 14  2  0
 15 10  1  0
 16 15  2  0
 17 13  1  0
 18 19  1  0
 19 20  2  0
 19 21  1  0
 22 21  1  6
 22 23  1  0
 22 24  1  0
 23 15  1  0
 24 25  1  0
 26 24  2  0
M  END
$$$$
