IEN.pdb
     RDKit          3D

 26 25  0  0  1  0  0  0  0  0999 V2000
   29.5823  -11.9646  -16.6846 C   0  0  0  0  0  0  0  0  0  0  0  0
   28.1870  -12.4803  -16.5910 C   0  0  0  0  0  0  0  0  0  0  0  0
   27.1128  -11.4549  -16.8987 C   0  0  2  0  0  0  0  0  0  0  0  0
   27.1352  -10.4654  -15.7451 C   0  0  0  0  0  0  0  0  0  0  0  0
   25.8022  -12.1595  -16.9575 C   0  0  2  0  0  0  0  0  0  0  0  0
   25.9417  -13.2960  -17.8326 N   0  0  0  0  0  0  0  0  0  0  0  0
   24.6396  -11.2926  -17.2883 C   0  0  0  0  0  0  0  0  0  0  0  0
   24.6106  -10.7264  -18.4085 O   0  0  0  0  0  0  0  0  0  0  0  0
   23.5700  -11.0848  -16.3887 N   0  0  0  0  0  0  0  0  0  0  0  0
   22.4105  -10.2273  -16.6316 C   0  0  1  0  0  0  0  0  0  0  0  0
   21.1495  -10.9911  -16.2352 C   0  0  0  0  0  0  0  0  0  0  0  0
   19.8736  -10.2702  -16.4637 C   0  0  0  0  0  0  0  0  0  0  0  0
   18.7780  -11.1631  -15.9724 C   0  0  0  0  0  0  0  0  0  0  0  0
   18.3153  -10.9647  -14.8320 O   0  0  0  0  0  0  0  0  0  0  0  0
   22.4862   -8.9760  -15.9220 C   0  0  0  0  0  0  0  0  0  0  0  0
   23.0058   -9.0337  -14.7336 O   0  0  0  0  0  0  0  0  0  0  0  0
   18.3064  -12.1700  -16.7633 O   0  0  0  0  0  0  0  0  0  0  0  0
   23.9362   -3.8918  -14.5814 N   0  0  0  0  0  0  0  0  0  0  0  0
   22.7808   -4.0678  -15.3728 C   0  0  0  0  0  0  0  0  0  0  0  0
   21.8724   -3.1906  -15.3415 O   0  0  0  0  0  0  0  0  0  0  0  0
   22.6574   -5.2650  -16.2149 C   0  0  0  0  0  0  0  0  0  0  0  0
   22.2857   -6.5173  -15.4403 C   0  0  2  0  0  0  0  0  0  0  0  0
   22.0989   -7.6758  -16.2919 N   0  0  0  0  0  0  0  0  0  0  0  0
   20.9921   -6.2220  -14.7793 C   0  0  0  0  0  0  0  0  0  0  0  0
   20.8662   -5.8749  -13.4441 O   0  0  0  0  0  0  0  0  0  0  0  0
   19.9078   -6.2774  -15.4294 O   0  0  0  0  0  0  0  0  0  0  0  0
  2  1  1  0
  3  5  1  0
  3  2  1  0
  3  4  1  1
  5  6  1  6
  7  5  1  0
  7  8  2  0
  9  7  1  0
 10  9  1  0
 10 11  1  1
 12 11  1  0
 12 13  1  0
 13 14  2  0
 15 10  1  0
 16 15  2  0
 17 13  1  0
 18 19  1  0
 19 20  2  0
 19 21  1  0
 22 21  1  6
 22 23  1  0
 22 24  1  0
 23 15  1  0
 24 25  1  0
 26 24  2  0
M  END
$$$$
