IEN.pdb
     RDKit          3D

 26 25  0  0  1  0  0  0  0  0999 V2000
   22.8133  -14.2479  -20.4108 C   0  0  0  0  0  0  0  0  0  0  0  0
   22.4512  -13.7516  -19.0528 C   0  0  0  0  0  0  0  0  0  0  0  0
   22.0616  -12.2869  -18.9989 C   0  0  2  0  0  0  0  0  0  0  0  0
   23.2990  -11.5085  -19.4150 C   0  0  0  0  0  0  0  0  0  0  0  0
   21.6847  -11.9586  -17.5962 C   0  0  2  0  0  0  0  0  0  0  0  0
   20.8976  -13.0477  -17.0754 N   0  0  0  0  0  0  0  0  0  0  0  0
   21.0506  -10.6254  -17.4139 C   0  0  0  0  0  0  0  0  0  0  0  0
   21.7069   -9.5999  -17.7202 O   0  0  0  0  0  0  0  0  0  0  0  0
   19.7394  -10.4733  -16.9098 N   0  0  0  0  0  0  0  0  0  0  0  0
   19.0127   -9.2089  -16.8014 C   0  0  1  0  0  0  0  0  0  0  0  0
   17.5218   -9.5140  -16.6786 C   0  0  0  0  0  0  0  0  0  0  0  0
   16.6406   -8.3280  -16.5495 C   0  0  0  0  0  0  0  0  0  0  0  0
   15.2398   -8.8406  -16.4311 C   0  0  0  0  0  0  0  0  0  0  0  0
   14.5319   -8.8792  -17.4565 O   0  0  0  0  0  0  0  0  0  0  0  0
   19.4564   -8.4062  -15.6906 C   0  0  0  0  0  0  0  0  0  0  0  0
   20.2566   -8.9954  -14.8549 O   0  0  0  0  0  0  0  0  0  0  0  0
   14.7590   -9.2513  -15.2221 O   0  0  0  0  0  0  0  0  0  0  0  0
   23.1632   -4.5294  -14.4822 N   0  0  0  0  0  0  0  0  0  0  0  0
   22.2805   -5.4588  -13.8910 C   0  0  0  0  0  0  0  0  0  0  0  0
   22.2063   -5.5240  -12.6317 O   0  0  0  0  0  0  0  0  0  0  0  0
   21.4678   -6.3303  -14.7499 C   0  0  0  0  0  0  0  0  0  0  0  0
   19.9878   -6.3102  -14.4093 C   0  0  2  0  0  0  0  0  0  0  0  0
   19.1812   -7.0718  -15.3429 N   0  0  0  0  0  0  0  0  0  0  0  0
   19.5670   -4.8913  -14.4925 C   0  0  0  0  0  0  0  0  0  0  0  0
   18.6358   -4.4117  -15.3992 O   0  0  0  0  0  0  0  0  0  0  0  0
   20.0588   -4.0255  -13.7116 O   0  0  0  0  0  0  0  0  0  0  0  0
  2  1  1  0
  3  5  1  0
  3  2  1  0
  3  4  1  1
  5  6  1  6
  7  5  1  0
  7  8  2  0
  9  7  1  0
 10  9  1  0
 10 11  1  1
 12 11  1  0
 12 13  1  0
 13 14  2  0
 15 10  1  0
 16 15  2  0
 17 13  1  0
 18 19  1  0
 19 20  2  0
 19 21  1  0
 22 21  1  6
 22 23  1  0
 22 24  1  0
 23 15  1  0
 24 25  1  0
 26 24  2  0
M  END
$$$$
