IEN.pdb
     RDKit          3D

 26 25  0  0  1  0  0  0  0  0999 V2000
   23.6149  -17.0028  -16.9179 C   0  0  0  0  0  0  0  0  0  0  0  0
   24.6444  -15.9410  -16.7325 C   0  0  0  0  0  0  0  0  0  0  0  0
   24.1249  -14.6598  -16.1093 C   0  0  2  0  0  0  0  0  0  0  0  0
   23.0436  -14.1465  -17.0461 C   0  0  0  0  0  0  0  0  0  0  0  0
   25.2530  -13.6907  -16.0326 C   0  0  2  0  0  0  0  0  0  0  0  0
   26.3007  -14.2823  -15.2393 N   0  0  0  0  0  0  0  0  0  0  0  0
   24.8735  -12.3216  -15.5920 C   0  0  0  0  0  0  0  0  0  0  0  0
   24.7732  -12.0916  -14.3618 O   0  0  0  0  0  0  0  0  0  0  0  0
   24.6228  -11.2742  -16.5065 N   0  0  0  0  0  0  0  0  0  0  0  0
   24.2396   -9.9087  -16.1497 C   0  0  1  0  0  0  0  0  0  0  0  0
   24.9568   -8.9415  -17.0883 C   0  0  0  0  0  0  0  0  0  0  0  0
   24.6786   -7.5042  -16.8507 C   0  0  0  0  0  0  0  0  0  0  0  0
   25.5042   -6.7354  -17.8336 C   0  0  0  0  0  0  0  0  0  0  0  0
   26.6098   -6.2932  -17.4646 O   0  0  0  0  0  0  0  0  0  0  0  0
   22.8153   -9.6995  -16.2019 C   0  0  0  0  0  0  0  0  0  0  0  0
   22.2165  -10.1659  -17.2553 O   0  0  0  0  0  0  0  0  0  0  0  0
   25.0452   -6.5276  -19.1017 O   0  0  0  0  0  0  0  0  0  0  0  0
   17.7416   -8.9408  -15.7783 N   0  0  0  0  0  0  0  0  0  0  0  0
   18.2461   -8.9701  -14.4604 C   0  0  0  0  0  0  0  0  0  0  0  0
   17.4389   -8.9242  -13.4899 O   0  0  0  0  0  0  0  0  0  0  0  0
   19.6966   -9.0526  -14.2438 C   0  0  0  0  0  0  0  0  0  0  0  0
   20.5083   -8.9674  -15.5246 C   0  0  2  0  0  0  0  0  0  0  0  0
   21.9364   -9.0760  -15.2987 N   0  0  0  0  0  0  0  0  0  0  0  0
   20.2357   -7.6264  -16.0945 C   0  0  0  0  0  0  0  0  0  0  0  0
   19.3697   -7.3953  -17.1508 O   0  0  0  0  0  0  0  0  0  0  0  0
   20.8039   -6.5979  -15.6246 O   0  0  0  0  0  0  0  0  0  0  0  0
  2  1  1  0
  3  5  1  0
  3  2  1  0
  3  4  1  6
  5  6  1  1
  7  5  1  0
  7  8  2  0
  9  7  1  0
 10  9  1  0
 10 11  1  6
 12 11  1  0
 12 13  1  0
 13 14  2  0
 15 10  1  0
 16 15  2  0
 17 13  1  0
 18 19  1  0
 19 20  2  0
 19 21  1  0
 22 21  1  1
 22 23  1  0
 22 24  1  0
 23 15  1  0
 24 25  1  0
 26 24  2  0
M  END
$$$$
