IEN.pdb
     RDKit          3D

 26 25  0  0  1  0  0  0  0  0999 V2000
   16.6448  -14.4894  -16.3918 C   0  0  0  0  0  0  0  0  0  0  0  0
   16.5308  -13.0141  -16.2128 C   0  0  0  0  0  0  0  0  0  0  0  0
   17.8573  -12.2839  -16.1278 C   0  0  2  0  0  0  0  0  0  0  0  0
   18.5633  -12.8390  -14.9015 C   0  0  0  0  0  0  0  0  0  0  0  0
   17.5770  -10.8314  -15.9567 C   0  0  2  0  0  0  0  0  0  0  0  0
   16.8262  -10.3806  -17.1013 N   0  0  0  0  0  0  0  0  0  0  0  0
   18.7702   -9.9942  -15.6601 C   0  0  0  0  0  0  0  0  0  0  0  0
   19.4113  -10.2133  -14.6031 O   0  0  0  0  0  0  0  0  0  0  0  0
   19.2061   -8.9643  -16.5237 N   0  0  0  0  0  0  0  0  0  0  0  0
   20.3342   -8.0677  -16.2745 C   0  0  1  0  0  0  0  0  0  0  0  0
   20.6518   -7.3157  -17.5646 C   0  0  0  0  0  0  0  0  0  0  0  0
   21.7673   -6.3426  -17.4728 C   0  0  0  0  0  0  0  0  0  0  0  0
   21.8873   -5.6940  -18.8159 C   0  0  0  0  0  0  0  0  0  0  0  0
   21.9090   -4.4490  -18.8755 O   0  0  0  0  0  0  0  0  0  0  0  0
   20.0816   -7.1419  -15.2001 C   0  0  0  0  0  0  0  0  0  0  0  0
   18.9534   -6.5023  -15.2623 O   0  0  0  0  0  0  0  0  0  0  0  0
   21.9680   -6.4590  -19.9429 O   0  0  0  0  0  0  0  0  0  0  0  0
   20.0200   -5.5752   -9.4662 N   0  0  0  0  0  0  0  0  0  0  0  0
   19.5583   -5.4177  -10.7907 C   0  0  0  0  0  0  0  0  0  0  0  0
   18.8394   -4.4198  -11.0787 O   0  0  0  0  0  0  0  0  0  0  0  0
   19.9215   -6.4153  -11.8058 C   0  0  0  0  0  0  0  0  0  0  0  0
   20.4338   -5.8072  -13.0998 C   0  0  2  0  0  0  0  0  0  0  0  0
   20.8460   -6.8030  -14.0697 N   0  0  0  0  0  0  0  0  0  0  0  0
   21.6253   -5.0053  -12.7326 C   0  0  0  0  0  0  0  0  0  0  0  0
   21.5765   -3.8519  -11.9669 O   0  0  0  0  0  0  0  0  0  0  0  0
   22.7799   -5.3516  -13.1177 O   0  0  0  0  0  0  0  0  0  0  0  0
  2  1  1  0
  3  5  1  0
  3  2  1  0
  3  4  1  1
  5  6  1  6
  7  5  1  0
  7  8  2  0
  9  7  1  0
 10  9  1  0
 10 11  1  6
 12 11  1  0
 12 13  1  0
 13 14  2  0
 15 10  1  0
 16 15  2  0
 17 13  1  0
 18 19  1  0
 19 20  2  0
 19 21  1  0
 22 21  1  1
 22 23  1  0
 22 24  1  0
 23 15  1  0
 24 25  1  0
 26 24  2  0
M  END
$$$$
