IEN.pdb
     RDKit          3D

 26 25  0  0  1  0  0  0  0  0999 V2000
   11.2398  -13.3798  -11.2642 C   0  0  0  0  0  0  0  0  0  0  0  0
   12.5778  -13.0990  -11.8579 C   0  0  0  0  0  0  0  0  0  0  0  0
   13.4964  -12.2701  -10.9811 C   0  0  2  0  0  0  0  0  0  0  0  0
   12.7959  -10.9358  -10.7836 C   0  0  0  0  0  0  0  0  0  0  0  0
   14.7840  -12.0823  -11.7053 C   0  0  2  0  0  0  0  0  0  0  0  0
   15.3555  -13.3823  -11.9508 N   0  0  0  0  0  0  0  0  0  0  0  0
   15.7287  -11.1278  -11.0656 C   0  0  0  0  0  0  0  0  0  0  0  0
   16.4143  -11.5221  -10.0906 O   0  0  0  0  0  0  0  0  0  0  0  0
   15.8811   -9.7971  -11.5156 N   0  0  0  0  0  0  0  0  0  0  0  0
   16.7295   -8.7819  -10.8927 C   0  0  1  0  0  0  0  0  0  0  0  0
   17.8450   -8.4151  -11.8685 C   0  0  0  0  0  0  0  0  0  0  0  0
   18.8605   -7.4699  -11.3441 C   0  0  0  0  0  0  0  0  0  0  0  0
   19.8319   -7.2187  -12.4541 C   0  0  0  0  0  0  0  0  0  0  0  0
   20.0500   -6.0406  -12.7984 O   0  0  0  0  0  0  0  0  0  0  0  0
   15.9943   -7.6063  -10.5023 C   0  0  0  0  0  0  0  0  0  0  0  0
   15.1227   -7.1761  -11.3632 O   0  0  0  0  0  0  0  0  0  0  0  0
   20.4566   -8.2641  -13.0694 O   0  0  0  0  0  0  0  0  0  0  0  0
   13.9576   -3.8008   -6.0698 N   0  0  0  0  0  0  0  0  0  0  0  0
   13.8875   -4.4565   -7.3178 C   0  0  0  0  0  0  0  0  0  0  0  0
   13.0412   -4.0687   -8.1716 O   0  0  0  0  0  0  0  0  0  0  0  0
   14.7978   -5.5746   -7.5985 C   0  0  0  0  0  0  0  0  0  0  0  0
   15.1391   -5.7258   -9.0707 C   0  0  2  0  0  0  0  0  0  0  0  0
   16.0441   -6.8280   -9.3322 N   0  0  0  0  0  0  0  0  0  0  0  0
   15.8216   -4.4702   -9.4644 C   0  0  0  0  0  0  0  0  0  0  0  0
   15.1590   -3.3217   -9.8659 O   0  0  0  0  0  0  0  0  0  0  0  0
   17.0845   -4.3907   -9.4518 O   0  0  0  0  0  0  0  0  0  0  0  0
  2  1  1  0
  3  5  1  0
  3  2  1  0
  3  4  1  6
  5  6  1  1
  7  5  1  0
  7  8  2  0
  9  7  1  0
 10  9  1  0
 10 11  1  6
 12 11  1  0
 12 13  1  0
 13 14  2  0
 15 10  1  0
 16 15  2  0
 17 13  1  0
 18 19  1  0
 19 20  2  0
 19 21  1  0
 22 21  1  1
 22 23  1  0
 22 24  1  0
 23 15  1  0
 24 25  1  0
 26 24  2  0
M  END
$$$$
