IEN.pdb
     RDKit          3D

 26 25  0  0  1  0  0  0  0  0999 V2000
   21.5803  -14.7880  -18.4510 C   0  0  0  0  0  0  0  0  0  0  0  0
   20.6042  -14.2552  -17.4586 C   0  0  0  0  0  0  0  0  0  0  0  0
   20.3047  -12.7752  -17.5992 C   0  0  2  0  0  0  0  0  0  0  0  0
   21.5940  -12.0514  -17.2471 C   0  0  0  0  0  0  0  0  0  0  0  0
   19.2281  -12.4258  -16.6315 C   0  0  2  0  0  0  0  0  0  0  0  0
   18.1747  -13.4009  -16.7595 N   0  0  0  0  0  0  0  0  0  0  0  0
   18.7500  -11.0193  -16.7077 C   0  0  0  0  0  0  0  0  0  0  0  0
   18.8705  -10.4008  -17.7936 O   0  0  0  0  0  0  0  0  0  0  0  0
   18.1665  -10.3571  -15.6043 N   0  0  0  0  0  0  0  0  0  0  0  0
   17.6561   -8.9867  -15.6091 C   0  0  1  0  0  0  0  0  0  0  0  0
   16.2304   -8.9971  -15.0631 C   0  0  0  0  0  0  0  0  0  0  0  0
   15.5882   -7.6656  -14.9425 C   0  0  0  0  0  0  0  0  0  0  0  0
   14.2066   -7.8976  -14.4168 C   0  0  0  0  0  0  0  0  0  0  0  0
   13.8929   -9.0490  -14.0564 O   0  0  0  0  0  0  0  0  0  0  0  0
   18.4810   -8.0836  -14.8483 C   0  0  0  0  0  0  0  0  0  0  0  0
   19.2105   -8.6311  -13.9243 O   0  0  0  0  0  0  0  0  0  0  0  0
   13.3185   -6.8645  -14.3409 O   0  0  0  0  0  0  0  0  0  0  0  0
   21.9653   -4.6756  -13.2489 N   0  0  0  0  0  0  0  0  0  0  0  0
   22.2178   -5.6256  -14.2618 C   0  0  0  0  0  0  0  0  0  0  0  0
   23.3966   -5.7697  -14.6923 O   0  0  0  0  0  0  0  0  0  0  0  0
   21.1073   -6.4260  -14.7946 C   0  0  0  0  0  0  0  0  0  0  0  0
   19.7436   -5.9819  -14.2950 C   0  0  2  0  0  0  0  0  0  0  0  0
   18.6493   -6.6900  -14.9302 N   0  0  0  0  0  0  0  0  0  0  0  0
   19.6253   -4.5468  -14.6464 C   0  0  0  0  0  0  0  0  0  0  0  0
   20.0846   -3.5132  -13.8465 O   0  0  0  0  0  0  0  0  0  0  0  0
   19.0787   -4.1908  -15.7309 O   0  0  0  0  0  0  0  0  0  0  0  0
  2  1  1  0
  3  5  1  0
  3  2  1  0
  3  4  1  1
  5  6  1  6
  7  5  1  0
  7  8  2  0
  9  7  1  0
 10  9  1  0
 10 11  1  1
 12 11  1  0
 12 13  1  0
 13 14  2  0
 15 10  1  0
 16 15  2  0
 17 13  1  0
 18 19  1  0
 19 20  2  0
 19 21  1  0
 22 21  1  6
 22 23  1  0
 22 24  1  0
 23 15  1  0
 24 25  1  0
 26 24  2  0
M  END
$$$$
