IEN.pdb
     RDKit          3D

 26 25  0  0  1  0  0  0  0  0999 V2000
   23.8898  -20.1076  -16.2342 C   0  0  0  0  0  0  0  0  0  0  0  0
   23.0067  -19.9926  -15.0390 C   0  0  0  0  0  0  0  0  0  0  0  0
   21.8934  -21.0203  -14.9752 C   0  0  2  0  0  0  0  0  0  0  0  0
   21.0824  -20.8393  -16.2479 C   0  0  0  0  0  0  0  0  0  0  0  0
   21.0588  -20.7263  -13.7775 C   0  0  2  0  0  0  0  0  0  0  0  0
   21.9354  -20.5858  -12.6422 N   0  0  0  0  0  0  0  0  0  0  0  0
   19.9357  -21.6745  -13.5488 C   0  0  0  0  0  0  0  0  0  0  0  0
   19.0337  -21.7596  -14.4178 O   0  0  0  0  0  0  0  0  0  0  0  0
   19.8490  -22.4802  -12.3913 N   0  0  0  0  0  0  0  0  0  0  0  0
   18.7592  -23.4042  -12.0795 C   0  0  1  0  0  0  0  0  0  0  0  0
   19.0685  -24.0902  -10.7512 C   0  0  0  0  0  0  0  0  0  0  0  0
   18.0426  -25.0526  -10.2808 C   0  0  0  0  0  0  0  0  0  0  0  0
   18.6086  -25.7332   -9.0745 C   0  0  0  0  0  0  0  0  0  0  0  0
   19.7064  -25.3426   -8.6314 O   0  0  0  0  0  0  0  0  0  0  0  0
   17.4761  -22.7517  -12.0235 C   0  0  0  0  0  0  0  0  0  0  0  0
   17.4173  -21.6893  -11.2794 O   0  0  0  0  0  0  0  0  0  0  0  0
   17.9300  -26.7587   -8.4832 O   0  0  0  0  0  0  0  0  0  0  0  0
   12.6787  -20.8140  -12.5371 N   0  0  0  0  0  0  0  0  0  0  0  0
   13.3213  -20.9591  -13.7854 C   0  0  0  0  0  0  0  0  0  0  0  0
   12.7662  -20.4979  -14.8221 O   0  0  0  0  0  0  0  0  0  0  0  0
   14.6197  -21.6424  -13.8544 C   0  0  0  0  0  0  0  0  0  0  0  0
   15.0703  -22.2270  -12.5270 C   0  0  2  0  0  0  0  0  0  0  0  0
   16.2529  -23.0574  -12.6458 N   0  0  0  0  0  0  0  0  0  0  0  0
   13.9554  -23.0830  -12.0563 C   0  0  0  0  0  0  0  0  0  0  0  0
   12.9654  -22.6562  -11.1863 O   0  0  0  0  0  0  0  0  0  0  0  0
   13.8571  -24.2844  -12.4417 O   0  0  0  0  0  0  0  0  0  0  0  0
  2  1  1  0
  3  5  1  0
  3  2  1  0
  3  4  1  6
  5  6  1  1
  7  5  1  0
  7  8  2  0
  9  7  1  0
 10  9  1  0
 10 11  1  1
 12 11  1  0
 12 13  1  0
 13 14  2  0
 15 10  1  0
 16 15  2  0
 17 13  1  0
 18 19  1  0
 19 20  2  0
 19 21  1  0
 22 21  1  6
 22 23  1  0
 22 24  1  0
 23 15  1  0
 24 25  1  0
 26 24  2  0
M  END
$$$$
