IEN.pdb
     RDKit          3D

 26 25  0  0  1  0  0  0  0  0999 V2000
   19.1752  -15.1299  -18.3419 C   0  0  0  0  0  0  0  0  0  0  0  0
   19.1083  -14.2666  -17.1287 C   0  0  0  0  0  0  0  0  0  0  0  0
   19.0746  -12.7776  -17.4143 C   0  0  2  0  0  0  0  0  0  0  0  0
   20.3755  -12.4592  -18.1331 C   0  0  0  0  0  0  0  0  0  0  0  0
   19.0068  -12.0571  -16.1129 C   0  0  2  0  0  0  0  0  0  0  0  0
   18.0258  -12.7137  -15.2861 N   0  0  0  0  0  0  0  0  0  0  0  0
   18.8065  -10.5870  -16.2207 C   0  0  0  0  0  0  0  0  0  0  0  0
   19.6538   -9.9090  -16.8521 O   0  0  0  0  0  0  0  0  0  0  0  0
   17.6995   -9.9291  -15.6393 N   0  0  0  0  0  0  0  0  0  0  0  0
   17.4373   -8.4917  -15.7012 C   0  0  1  0  0  0  0  0  0  0  0  0
   15.9717   -8.2492  -15.3489 C   0  0  0  0  0  0  0  0  0  0  0  0
   15.5477   -6.8280  -15.3444 C   0  0  0  0  0  0  0  0  0  0  0  0
   14.0754   -6.8165  -15.0777 C   0  0  0  0  0  0  0  0  0  0  0  0
   13.4694   -5.7286  -15.1329 O   0  0  0  0  0  0  0  0  0  0  0  0
   18.2977   -7.7319  -14.8309 C   0  0  0  0  0  0  0  0  0  0  0  0
   18.9102   -8.4128  -13.9107 O   0  0  0  0  0  0  0  0  0  0  0  0
   13.4227   -7.9771  -14.7794 O   0  0  0  0  0  0  0  0  0  0  0  0
   22.2811   -4.8152  -13.4080 N   0  0  0  0  0  0  0  0  0  0  0  0
   22.3304   -5.8226  -14.3953 C   0  0  0  0  0  0  0  0  0  0  0  0
   23.4507   -6.1780  -14.8583 O   0  0  0  0  0  0  0  0  0  0  0  0
   21.0810   -6.4362  -14.8644 C   0  0  0  0  0  0  0  0  0  0  0  0
   19.8355   -5.8345  -14.2373 C   0  0  2  0  0  0  0  0  0  0  0  0
   18.6071   -6.3606  -14.8000 N   0  0  0  0  0  0  0  0  0  0  0  0
   19.8886   -4.3826  -14.5316 C   0  0  0  0  0  0  0  0  0  0  0  0
   20.3847   -3.4323  -13.6541 O   0  0  0  0  0  0  0  0  0  0  0  0
   19.4667   -3.9322  -15.6364 O   0  0  0  0  0  0  0  0  0  0  0  0
  2  1  1  0
  3  5  1  0
  3  2  1  0
  3  4  1  1
  5  6  1  1
  7  5  1  0
  7  8  2  0
  9  7  1  0
 10  9  1  0
 10 11  1  1
 12 11  1  0
 12 13  1  0
 13 14  2  0
 15 10  1  0
 16 15  2  0
 17 13  1  0
 18 19  1  0
 19 20  2  0
 19 21  1  0
 22 21  1  6
 22 23  1  0
 22 24  1  0
 23 15  1  0
 24 25  1  0
 26 24  2  0
M  END
$$$$
