IEN.pdb
     RDKit          3D

 26 25  0  0  1  0  0  0  0  0999 V2000
   27.8017  -14.5953  -18.7108 C   0  0  0  0  0  0  0  0  0  0  0  0
   27.3637  -13.6554  -17.6401 C   0  0  0  0  0  0  0  0  0  0  0  0
   26.2823  -12.6789  -18.0607 C   0  0  2  0  0  0  0  0  0  0  0  0
   26.8760  -11.8586  -19.1942 C   0  0  0  0  0  0  0  0  0  0  0  0
   25.9655  -11.8076  -16.8954 C   0  0  2  0  0  0  0  0  0  0  0  0
   25.7032  -12.6543  -15.7591 N   0  0  0  0  0  0  0  0  0  0  0  0
   24.9038  -10.7950  -17.1410 C   0  0  0  0  0  0  0  0  0  0  0  0
   25.0954   -9.9247  -18.0253 O   0  0  0  0  0  0  0  0  0  0  0  0
   23.6911  -10.7786  -16.4162 N   0  0  0  0  0  0  0  0  0  0  0  0
   22.5736   -9.8649  -16.6512 C   0  0  1  0  0  0  0  0  0  0  0  0
   21.2831  -10.5523  -16.2119 C   0  0  0  0  0  0  0  0  0  0  0  0
   20.0492   -9.7448  -16.3707 C   0  0  0  0  0  0  0  0  0  0  0  0
   18.9302  -10.5438  -15.7806 C   0  0  0  0  0  0  0  0  0  0  0  0
   18.1277   -9.9707  -15.0180 O   0  0  0  0  0  0  0  0  0  0  0  0
   22.7320   -8.6061  -15.9691 C   0  0  0  0  0  0  0  0  0  0  0  0
   23.1638   -8.6789  -14.7468 O   0  0  0  0  0  0  0  0  0  0  0  0
   18.8032  -11.8699  -16.0762 O   0  0  0  0  0  0  0  0  0  0  0  0
   23.3492   -3.7953  -14.1714 N   0  0  0  0  0  0  0  0  0  0  0  0
   22.8728   -3.6283  -15.4895 C   0  0  0  0  0  0  0  0  0  0  0  0
   22.6947   -2.4608  -15.9376 O   0  0  0  0  0  0  0  0  0  0  0  0
   22.5937   -4.8126  -16.3123 C   0  0  0  0  0  0  0  0  0  0  0  0
   22.7737   -6.1250  -15.5694 C   0  0  2  0  0  0  0  0  0  0  0  0
   22.5067   -7.2856  -16.3965 N   0  0  0  0  0  0  0  0  0  0  0  0
   21.7833   -6.1113  -14.4666 C   0  0  0  0  0  0  0  0  0  0  0  0
   22.1129   -5.9414  -13.1318 O   0  0  0  0  0  0  0  0  0  0  0  0
   20.5496   -6.2609  -14.7053 O   0  0  0  0  0  0  0  0  0  0  0  0
  2  1  1  0
  3  5  1  0
  3  2  1  0
  3  4  1  6
  5  6  1  1
  7  5  1  0
  7  8  2  0
  9  7  1  0
 10  9  1  0
 10 11  1  1
 12 11  1  0
 12 13  1  0
 13 14  2  0
 15 10  1  0
 16 15  2  0
 17 13  1  0
 18 19  1  0
 19 20  2  0
 19 21  1  0
 22 21  1  6
 22 23  1  0
 22 24  1  0
 23 15  1  0
 24 25  1  0
 26 24  2  0
M  END
$$$$
