IEN.pdb
     RDKit          3D

 26 25  0  0  1  0  0  0  0  0999 V2000
   14.7020  -13.4438  -18.7890 C   0  0  0  0  0  0  0  0  0  0  0  0
   15.9316  -13.0574  -18.0404 C   0  0  0  0  0  0  0  0  0  0  0  0
   15.7358  -11.9335  -17.0413 C   0  0  2  0  0  0  0  0  0  0  0  0
   15.3939  -10.6995  -17.8604 C   0  0  0  0  0  0  0  0  0  0  0  0
   17.0170  -11.7358  -16.3085 C   0  0  2  0  0  0  0  0  0  0  0  0
   17.3922  -12.9929  -15.7119 N   0  0  0  0  0  0  0  0  0  0  0  0
   17.0214  -10.5975  -15.3509 C   0  0  0  0  0  0  0  0  0  0  0  0
   16.3660  -10.7050  -14.2854 O   0  0  0  0  0  0  0  0  0  0  0  0
   17.7352   -9.4033  -15.5977 N   0  0  0  0  0  0  0  0  0  0  0  0
   17.8381   -8.2702  -14.6790 C   0  0  1  0  0  0  0  0  0  0  0  0
   19.3090   -8.0615  -14.3273 C   0  0  0  0  0  0  0  0  0  0  0  0
   20.2136   -7.8522  -15.4838 C   0  0  0  0  0  0  0  0  0  0  0  0
   21.6115   -7.8836  -14.9509 C   0  0  0  0  0  0  0  0  0  0  0  0
   22.1552   -6.8047  -14.6433 O   0  0  0  0  0  0  0  0  0  0  0  0
   17.2728   -7.0615  -15.2217 C   0  0  0  0  0  0  0  0  0  0  0  0
   17.2370   -6.9897  -16.5176 O   0  0  0  0  0  0  0  0  0  0  0  0
   22.2666   -9.0723  -14.8118 O   0  0  0  0  0  0  0  0  0  0  0  0
   13.2554   -2.6637  -15.3906 N   0  0  0  0  0  0  0  0  0  0  0  0
   14.1902   -3.5138  -16.0198 C   0  0  0  0  0  0  0  0  0  0  0  0
   14.5580   -3.2590  -17.2010 O   0  0  0  0  0  0  0  0  0  0  0  0
   14.7154   -4.6756  -15.2904 C   0  0  0  0  0  0  0  0  0  0  0  0
   16.2306   -4.7764  -15.3179 C   0  0  2  0  0  0  0  0  0  0  0  0
   16.7353   -5.9253  -14.5915 N   0  0  0  0  0  0  0  0  0  0  0  0
   16.7352   -3.5539  -14.6485 C   0  0  0  0  0  0  0  0  0  0  0  0
   17.2228   -2.4467  -15.3233 O   0  0  0  0  0  0  0  0  0  0  0  0
   16.7440   -3.4663  -13.3861 O   0  0  0  0  0  0  0  0  0  0  0  0
  2  1  1  0
  3  5  1  0
  3  2  1  0
  3  4  1  6
  5  6  1  1
  7  5  1  0
  7  8  2  0
  9  7  1  0
 10  9  1  0
 10 11  1  6
 12 11  1  0
 12 13  1  0
 13 14  2  0
 15 10  1  0
 16 15  2  0
 17 13  1  0
 18 19  1  0
 19 20  2  0
 19 21  1  0
 22 21  1  1
 22 23  1  0
 22 24  1  0
 23 15  1  0
 24 25  1  0
 26 24  2  0
M  END
$$$$
