RDK.pdb
     RDKit          3D

 29 28  0  0  1  0  0  0  0  0999 V2000
    8.0684  -13.3488   15.2613 N   0  0  0  0  0  0  0  0  0  0  0  0
    6.7434  -13.8021   15.5612 C   0  0  0  0  0  0  0  0  0  0  0  0
    5.9807  -14.2239   14.6234 N   0  0  0  0  0  0  0  0  0  0  0  0
    6.2402  -13.7966   16.8964 N   0  0  0  0  0  0  0  0  0  0  0  0
    7.0359  -13.3574   18.0207 C   0  0  0  0  0  0  0  0  0  0  0  0
    8.1707  -14.3456   18.1577 C   0  0  0  0  0  0  0  0  0  0  0  0
    9.1621  -13.9774   19.2168 C   0  0  0  0  0  0  0  0  0  0  0  0
   10.5048  -13.7961   18.5173 C   0  0  2  0  0  0  0  0  0  0  0  0
   10.3651  -13.9699   17.0866 N   0  0  0  0  0  0  0  0  0  0  0  0
   11.5068  -14.7761   18.9974 C   0  0  0  0  0  0  0  0  0  0  0  0
   11.2710  -16.0130   18.9833 O   0  0  0  0  0  0  0  0  0  0  0  0
    5.0238  -14.5480   14.7723 N   0  0  0  0  0  0  0  0  0  0  0  0
   12.7631  -14.3549   19.4879 C   0  0  1  0  0  0  0  0  0  0  0  0
   13.8835  -15.3157   19.7286 C   0  0  0  0  0  0  0  0  0  0  0  0
   15.1633  -14.5355   19.4937 C   0  0  0  0  0  0  0  0  0  0  0  0
   15.6306  -14.4923   18.1403 O   0  0  0  0  0  0  0  0  0  0  0  0
   15.6624  -15.3917   17.2974 C   0  0  0  0  0  0  0  0  0  0  0  0
   13.7894  -15.5423   21.2029 O   0  0  0  0  0  0  0  0  0  0  0  0
   13.9224  -14.5067   21.9402 O   0  0  0  0  0  0  0  0  0  0  0  0
   16.1358  -13.2427   17.6774 N   0  0  0  0  0  0  0  0  0  0  0  0
   13.5696  -16.7464   21.8662 C   0  0  2  0  0  0  0  0  0  0  0  0
   13.5194  -16.7503   23.3193 C   0  0  0  0  0  0  0  0  0  0  0  0
   12.9992  -18.0758   23.8729 C   0  0  0  0  0  0  0  0  0  0  0  0
   12.9579  -17.9877   25.3517 C   0  0  0  0  0  0  0  0  0  0  0  0
   12.3432  -19.1619   26.0409 C   0  0  0  0  0  0  0  0  0  0  0  0
   12.3158  -19.0815   27.5383 N   0  0  0  0  0  0  0  0  0  0  0  0
   11.6544  -20.2102   28.1111 C   0  0  0  0  0  0  0  0  0  0  0  0
   14.8870  -16.5494   23.8619 O   0  0  0  0  0  0  0  0  0  0  0  0
   15.8455  -17.1503   23.3504 O   0  0  0  0  0  0  0  0  0  0  0  0
  2  1  1  0
  3  2  2  0
  4  2  1  0
  5  4  1  0
  6  5  1  0
  7  6  1  0
  8 10  1  0
  8  7  1  0
  8  9  1  6
 10 11  2  0
 12 10  1  0
 13 12  1  0
 13 14  1  1
 15 14  1  0
 15 19  1  0
 16 15  2  0
 17 13  1  0
 18 17  2  0
 20 17  1  0
 21 27  1  0
 21 20  1  0
 21 22  1  6
 23 22  1  0
 24 23  1  0
 24 25  1  0
 25 26  1  0
 27 29  1  0
 28 27  2  0
M  END
$$$$
