RDK.pdb
     RDKit          3D

 29 28  0  0  1  0  0  0  0  0999 V2000
    8.4816  -14.0103   14.5489 N   0  0  0  0  0  0  0  0  0  0  0  0
    7.9270  -13.5164   15.7734 C   0  0  0  0  0  0  0  0  0  0  0  0
    6.6580  -13.4163   15.9100 N   0  0  0  0  0  0  0  0  0  0  0  0
    8.7611  -13.1256   16.8631 N   0  0  0  0  0  0  0  0  0  0  0  0
    8.3737  -13.3212   18.2422 C   0  0  0  0  0  0  0  0  0  0  0  0
    8.7122  -14.7531   18.5859 C   0  0  0  0  0  0  0  0  0  0  0  0
    8.2540  -15.1671   19.9493 C   0  0  0  0  0  0  0  0  0  0  0  0
    8.5540  -16.6563   20.0799 C   0  0  2  0  0  0  0  0  0  0  0  0
    7.5008  -17.4464   19.4773 N   0  0  0  0  0  0  0  0  0  0  0  0
    8.6733  -17.0665   21.4985 C   0  0  0  0  0  0  0  0  0  0  0  0
    7.6544  -17.3176   22.1947 O   0  0  0  0  0  0  0  0  0  0  0  0
    6.1974  -13.2010   16.7957 N   0  0  0  0  0  0  0  0  0  0  0  0
    9.9365  -17.1900   22.1190 C   0  0  2  0  0  0  0  0  0  0  0  0
   10.0806  -17.5929   23.5520 C   0  0  0  0  0  0  0  0  0  0  0  0
   11.5491  -17.9186   23.7508 C   0  0  0  0  0  0  0  0  0  0  0  0
   11.9228  -18.3468   25.0657 O   0  0  0  0  0  0  0  0  0  0  0  0
   13.0428  -18.6042   25.5129 C   0  0  0  0  0  0  0  0  0  0  0  0
    9.8317  -16.3035   24.2655 O   0  0  0  0  0  0  0  0  0  0  0  0
   10.4064  -15.2712   23.7776 O   0  0  0  0  0  0  0  0  0  0  0  0
   10.8681  -18.5055   26.0108 N   0  0  0  0  0  0  0  0  0  0  0  0
    9.0449  -16.0942   25.3947 C   0  0  2  0  0  0  0  0  0  0  0  0
    8.9539  -14.7536   25.9504 C   0  0  0  0  0  0  0  0  0  0  0  0
    7.5624  -14.1497   25.7696 C   0  0  0  0  0  0  0  0  0  0  0  0
    7.5463  -12.8036   26.3893 C   0  0  0  0  0  0  0  0  0  0  0  0
    6.1873  -12.2407   26.6500 C   0  0  0  0  0  0  0  0  0  0  0  0
    6.1669  -10.8309   27.1612 N   0  0  0  0  0  0  0  0  0  0  0  0
    4.8356  -10.3924   27.4347 C   0  0  0  0  0  0  0  0  0  0  0  0
    9.2298  -14.8030   27.4087 O   0  0  0  0  0  0  0  0  0  0  0  0
    9.3384  -13.7453   28.0498 O   0  0  0  0  0  0  0  0  0  0  0  0
  2  1  1  0
  3  2  2  0
  4  2  1  0
  5  4  1  0
  6  5  1  0
  7  6  1  0
  8 10  1  0
  8  7  1  0
  8  9  1  1
 10 11  2  0
 12 10  1  0
 13 12  1  0
 13 14  1  6
 15 14  1  0
 15 19  1  0
 16 15  2  0
 17 13  1  0
 18 17  2  0
 20 17  1  0
 21 27  1  0
 21 20  1  0
 21 22  1  1
 23 22  1  0
 24 23  1  0
 24 25  1  0
 25 26  1  0
 27 29  1  0
 28 27  2  0
M  END
$$$$
