RDK.pdb
     RDKit          3D

 29 28  0  0  1  0  0  0  0  0999 V2000
    8.9813  -13.2890   22.4562 N   0  0  0  0  0  0  0  0  0  0  0  0
    7.8682  -12.5407   21.9546 C   0  0  0  0  0  0  0  0  0  0  0  0
    7.3562  -11.6010   22.6574 N   0  0  0  0  0  0  0  0  0  0  0  0
    7.3035  -12.8167   20.6735 N   0  0  0  0  0  0  0  0  0  0  0  0
    8.0159  -13.5598   19.6585 C   0  0  0  0  0  0  0  0  0  0  0  0
    7.8692  -15.0216   20.0119 C   0  0  0  0  0  0  0  0  0  0  0  0
    8.5308  -15.9439   19.0363 C   0  0  0  0  0  0  0  0  0  0  0  0
    8.1440  -17.3621   19.4413 C   0  0  2  0  0  0  0  0  0  0  0  0
    6.7079  -17.5378   19.3849 N   0  0  0  0  0  0  0  0  0  0  0  0
    8.5852  -17.6752   20.8206 C   0  0  0  0  0  0  0  0  0  0  0  0
    7.7699  -18.0741   21.6935 O   0  0  0  0  0  0  0  0  0  0  0  0
    6.5930  -11.0032   22.3364 N   0  0  0  0  0  0  0  0  0  0  0  0
    9.9381  -17.5365   21.2035 C   0  0  2  0  0  0  0  0  0  0  0  0
   10.4202  -17.9192   22.5664 C   0  0  0  0  0  0  0  0  0  0  0  0
   11.9331  -17.9849   22.4734 C   0  0  0  0  0  0  0  0  0  0  0  0
   12.6208  -18.3190   23.6848 O   0  0  0  0  0  0  0  0  0  0  0  0
   13.7493  -17.9896   24.0569 C   0  0  0  0  0  0  0  0  0  0  0  0
   10.0969  -16.6989   23.3663 O   0  0  0  0  0  0  0  0  0  0  0  0
   10.7703  -15.6491   23.0867 O   0  0  0  0  0  0  0  0  0  0  0  0
   11.9225  -19.1494   24.6087 N   0  0  0  0  0  0  0  0  0  0  0  0
    9.1465  -16.5703   24.3754 C   0  0  2  0  0  0  0  0  0  0  0  0
    9.0341  -15.3026   25.0788 C   0  0  0  0  0  0  0  0  0  0  0  0
    7.5994  -14.7780   25.0922 C   0  0  0  0  0  0  0  0  0  0  0  0
    7.5718  -13.4937   25.8312 C   0  0  0  0  0  0  0  0  0  0  0  0
    6.3996  -12.6160   25.5357 C   0  0  0  0  0  0  0  0  0  0  0  0
    6.4157  -11.2786   26.2140 N   0  0  0  0  0  0  0  0  0  0  0  0
    5.3325  -10.4569   25.7770 C   0  0  0  0  0  0  0  0  0  0  0  0
    9.4538  -15.4823   26.4918 O   0  0  0  0  0  0  0  0  0  0  0  0
    9.4094  -16.6109   27.0074 O   0  0  0  0  0  0  0  0  0  0  0  0
  2  1  1  0
  3  2  2  0
  4  2  1  0
  5  4  1  0
  6  5  1  0
  7  6  1  0
  8 10  1  0
  8  7  1  0
  8  9  1  1
 10 11  2  0
 12 10  1  0
 13 12  1  0
 13 14  1  6
 15 14  1  0
 15 19  1  0
 16 15  2  0
 17 13  1  0
 18 17  2  0
 20 17  1  0
 21 27  1  0
 21 20  1  0
 21 22  1  1
 23 22  1  0
 24 23  1  0
 24 25  1  0
 25 26  1  0
 27 29  1  0
 28 27  2  0
M  END
$$$$
