RDK.pdb
     RDKit          3D

 29 28  0  0  1  0  0  0  0  0999 V2000
    7.6882  -12.8346   15.2569 N   0  0  0  0  0  0  0  0  0  0  0  0
    7.0084  -13.2240   16.4557 C   0  0  0  0  0  0  0  0  0  0  0  0
    6.0777  -12.4873   16.9351 N   0  0  0  0  0  0  0  0  0  0  0  0
    7.3442  -14.4287   17.1428 N   0  0  0  0  0  0  0  0  0  0  0  0
    8.6289  -14.6252   17.7761 C   0  0  0  0  0  0  0  0  0  0  0  0
    8.7012  -13.6396   18.9191 C   0  0  0  0  0  0  0  0  0  0  0  0
    8.1035  -14.1523   20.1919 C   0  0  0  0  0  0  0  0  0  0  0  0
    9.0637  -15.2050   20.7349 C   0  0  2  0  0  0  0  0  0  0  0  0
    9.2480  -16.2742   19.7761 N   0  0  0  0  0  0  0  0  0  0  0  0
    8.5605  -15.8056   21.9924 C   0  0  0  0  0  0  0  0  0  0  0  0
    8.1434  -15.0876   22.9391 O   0  0  0  0  0  0  0  0  0  0  0  0
    5.5199  -12.7375   17.7531 N   0  0  0  0  0  0  0  0  0  0  0  0
    8.5315  -17.2067   22.1717 C   0  0  1  0  0  0  0  0  0  0  0  0
    8.0221  -17.8352   23.4295 C   0  0  0  0  0  0  0  0  0  0  0  0
    7.6712  -19.2671   23.0710 C   0  0  0  0  0  0  0  0  0  0  0  0
    7.2690  -20.1048   24.1611 O   0  0  0  0  0  0  0  0  0  0  0  0
    7.2742  -19.8659   25.3709 C   0  0  0  0  0  0  0  0  0  0  0  0
    9.2568  -17.8986   24.2692 O   0  0  0  0  0  0  0  0  0  0  0  0
   10.3102  -18.3302   23.6880 O   0  0  0  0  0  0  0  0  0  0  0  0
    6.7906  -21.4047   23.8265 N   0  0  0  0  0  0  0  0  0  0  0  0
    9.3952  -17.5387   25.6069 C   0  0  2  0  0  0  0  0  0  0  0  0
   10.7019  -17.6521   26.2346 C   0  0  0  0  0  0  0  0  0  0  0  0
   11.2029  -16.3101   26.7655 C   0  0  0  0  0  0  0  0  0  0  0  0
   10.1446  -15.7112   27.6126 C   0  0  0  0  0  0  0  0  0  0  0  0
   10.4798  -14.3795   28.2008 C   0  0  0  0  0  0  0  0  0  0  0  0
    9.3690  -13.7195   28.9623 N   0  0  0  0  0  0  0  0  0  0  0  0
    9.7582  -12.4336   29.4465 C   0  0  0  0  0  0  0  0  0  0  0  0
   10.6168  -18.5819   27.3893 O   0  0  0  0  0  0  0  0  0  0  0  0
    9.5080  -18.9948   27.7655 O   0  0  0  0  0  0  0  0  0  0  0  0
  2  1  1  0
  3  2  2  0
  4  2  1  0
  5  4  1  0
  6  5  1  0
  7  6  1  0
  8 10  1  0
  8  7  1  0
  8  9  1  6
 10 11  2  0
 12 10  1  0
 13 12  1  0
 13 14  1  1
 15 14  1  0
 15 19  1  0
 16 15  2  0
 17 13  1  0
 18 17  2  0
 20 17  1  0
 21 27  1  0
 21 20  1  0
 21 22  1  6
 23 22  1  0
 24 23  1  0
 24 25  1  0
 25 26  1  0
 27 29  1  0
 28 27  2  0
M  END
$$$$
