RDK.pdb
     RDKit          3D

 29 28  0  0  1  0  0  0  0  0999 V2000
    9.3020  -13.7631   13.0236 N   0  0  0  0  0  0  0  0  0  0  0  0
    8.7723  -14.0835   14.3150 C   0  0  0  0  0  0  0  0  0  0  0  0
    9.0385  -15.2124   14.8569 N   0  0  0  0  0  0  0  0  0  0  0  0
    7.9426  -13.1663   15.0266 N   0  0  0  0  0  0  0  0  0  0  0  0
    7.2472  -13.5338   16.2396 C   0  0  0  0  0  0  0  0  0  0  0  0
    8.2862  -13.5765   17.3359 C   0  0  0  0  0  0  0  0  0  0  0  0
    7.7365  -13.9809   18.6679 C   0  0  0  0  0  0  0  0  0  0  0  0
    8.9168  -14.0357   19.6317 C   0  0  2  0  0  0  0  0  0  0  0  0
   10.1318  -14.4013   18.9341 N   0  0  0  0  0  0  0  0  0  0  0  0
    8.6961  -15.0288   20.7087 C   0  0  0  0  0  0  0  0  0  0  0  0
    7.5515  -15.2202   21.1974 O   0  0  0  0  0  0  0  0  0  0  0  0
    8.7268  -15.4812   15.7915 N   0  0  0  0  0  0  0  0  0  0  0  0
    9.7646  -15.7959   21.2246 C   0  0  1  0  0  0  0  0  0  0  0  0
    9.5539  -16.8552   22.2589 C   0  0  0  0  0  0  0  0  0  0  0  0
   10.8104  -17.7055   22.2511 C   0  0  0  0  0  0  0  0  0  0  0  0
   10.7012  -18.9777   21.6020 O   0  0  0  0  0  0  0  0  0  0  0  0
    9.7176  -19.7124   21.4870 C   0  0  0  0  0  0  0  0  0  0  0  0
    9.5848  -16.0643   23.5267 O   0  0  0  0  0  0  0  0  0  0  0  0
   10.5795  -15.2750   23.6725 O   0  0  0  0  0  0  0  0  0  0  0  0
   11.8843  -19.4897   20.9944 N   0  0  0  0  0  0  0  0  0  0  0  0
    8.6563  -16.0831   24.5639 C   0  0  1  0  0  0  0  0  0  0  0  0
    8.8668  -15.2165   25.7124 C   0  0  0  0  0  0  0  0  0  0  0  0
    7.5600  -14.6131   26.2242 C   0  0  0  0  0  0  0  0  0  0  0  0
    7.6506  -13.1370   26.1285 C   0  0  0  0  0  0  0  0  0  0  0  0
    6.4378  -12.3952   26.5873 C   0  0  0  0  0  0  0  0  0  0  0  0
    6.5146  -10.9030   26.4581 N   0  0  0  0  0  0  0  0  0  0  0  0
    5.3292  -10.2736   26.9461 C   0  0  0  0  0  0  0  0  0  0  0  0
    9.4570  -16.0041   26.8244 O   0  0  0  0  0  0  0  0  0  0  0  0
    9.5098  -17.2417   26.7406 O   0  0  0  0  0  0  0  0  0  0  0  0
  2  1  1  0
  3  2  2  0
  4  2  1  0
  5  4  1  0
  6  5  1  0
  7  6  1  0
  8 10  1  0
  8  7  1  0
  8  9  1  6
 10 11  2  0
 12 10  1  0
 13 12  1  0
 13 14  1  1
 15 14  1  0
 15 19  1  0
 16 15  2  0
 17 13  1  0
 18 17  2  0
 20 17  1  0
 21 27  1  0
 21 20  1  0
 21 22  1  1
 23 22  1  0
 24 23  1  0
 24 25  1  0
 25 26  1  0
 27 29  1  0
 28 27  2  0
M  END
$$$$
