RDK.pdb
     RDKit          3D

 29 28  0  0  1  0  0  0  0  0999 V2000
    8.6563  -12.9925   18.2523 N   0  0  0  0  0  0  0  0  0  0  0  0
    8.1056  -12.7742   19.5561 C   0  0  0  0  0  0  0  0  0  0  0  0
    8.2072  -11.6259   20.1128 N   0  0  0  0  0  0  0  0  0  0  0  0
    7.4365  -13.8166   20.2645 N   0  0  0  0  0  0  0  0  0  0  0  0
    8.1173  -15.0144   20.7024 C   0  0  0  0  0  0  0  0  0  0  0  0
    7.4859  -16.1664   19.9559 C   0  0  0  0  0  0  0  0  0  0  0  0
    8.0756  -17.4986   20.2989 C   0  0  0  0  0  0  0  0  0  0  0  0
    8.5690  -17.4028   21.7384 C   0  0  2  0  0  0  0  0  0  0  0  0
    9.2781  -16.1591   21.9557 N   0  0  0  0  0  0  0  0  0  0  0  0
    9.4894  -18.5140   22.0748 C   0  0  0  0  0  0  0  0  0  0  0  0
    9.1277  -19.7160   21.9745 O   0  0  0  0  0  0  0  0  0  0  0  0
    7.8688  -11.4191   21.0539 N   0  0  0  0  0  0  0  0  0  0  0  0
   10.8063  -18.2618   22.5200 C   0  0  2  0  0  0  0  0  0  0  0  0
   11.7433  -19.3665   22.8918 C   0  0  0  0  0  0  0  0  0  0  0  0
   13.1427  -18.8095   22.7084 C   0  0  0  0  0  0  0  0  0  0  0  0
   14.2178  -19.6979   23.0353 O   0  0  0  0  0  0  0  0  0  0  0  0
   14.1869  -20.9102   23.2584 C   0  0  0  0  0  0  0  0  0  0  0  0
   11.5221  -19.4811   24.3654 O   0  0  0  0  0  0  0  0  0  0  0  0
   11.3083  -18.3857   24.9884 O   0  0  0  0  0  0  0  0  0  0  0  0
   15.5191  -19.1232   23.1208 N   0  0  0  0  0  0  0  0  0  0  0  0
   11.5170  -20.6396   25.1373 C   0  0  2  0  0  0  0  0  0  0  0  0
   11.2922  -20.5299   26.5696 C   0  0  0  0  0  0  0  0  0  0  0  0
   10.5927  -21.7634   27.1378 C   0  0  0  0  0  0  0  0  0  0  0  0
    9.3390  -21.9879   26.3802 C   0  0  0  0  0  0  0  0  0  0  0  0
    8.6477  -23.2812   26.6650 C   0  0  0  0  0  0  0  0  0  0  0  0
    7.4084  -23.5342   25.8593 N   0  0  0  0  0  0  0  0  0  0  0  0
    6.7796  -24.7596   26.2368 C   0  0  0  0  0  0  0  0  0  0  0  0
   12.5970  -20.3997   27.2665 O   0  0  0  0  0  0  0  0  0  0  0  0
   13.6496  -20.4147   26.6081 O   0  0  0  0  0  0  0  0  0  0  0  0
  2  1  1  0
  3  2  2  0
  4  2  1  0
  5  4  1  0
  6  5  1  0
  7  6  1  0
  8 10  1  0
  8  7  1  0
  8  9  1  6
 10 11  2  0
 12 10  1  0
 13 12  1  0
 13 14  1  6
 15 14  1  0
 15 19  1  0
 16 15  2  0
 17 13  1  0
 18 17  2  0
 20 17  1  0
 21 27  1  0
 21 20  1  0
 21 22  1  6
 23 22  1  0
 24 23  1  0
 24 25  1  0
 25 26  1  0
 27 29  1  0
 28 27  2  0
M  END
$$$$
