RDK.pdb
     RDKit          3D

 29 28  0  0  1  0  0  0  0  0999 V2000
    6.9676  -13.3619   17.8449 N   0  0  0  0  0  0  0  0  0  0  0  0
    7.8091  -13.0927   18.9719 C   0  0  0  0  0  0  0  0  0  0  0  0
    7.6589  -12.0128   19.6429 N   0  0  0  0  0  0  0  0  0  0  0  0
    8.8272  -14.0076   19.3750 N   0  0  0  0  0  0  0  0  0  0  0  0
    9.6242  -14.7465   18.4216 C   0  0  0  0  0  0  0  0  0  0  0  0
   10.5637  -15.6143   19.2262 C   0  0  0  0  0  0  0  0  0  0  0  0
   10.5702  -15.2959   20.6886 C   0  0  0  0  0  0  0  0  0  0  0  0
   10.8462  -16.6042   21.4216 C   0  0  2  0  0  0  0  0  0  0  0  0
   10.1306  -17.6998   20.8021 N   0  0  0  0  0  0  0  0  0  0  0  0
   10.4266  -16.5335   22.8408 C   0  0  0  0  0  0  0  0  0  0  0  0
   11.0350  -15.8035   23.6671 O   0  0  0  0  0  0  0  0  0  0  0  0
    8.2682  -11.7335   20.4134 N   0  0  0  0  0  0  0  0  0  0  0  0
    9.3277  -17.2840   23.3154 C   0  0  1  0  0  0  0  0  0  0  0  0
    8.8696  -17.2078   24.7369 C   0  0  0  0  0  0  0  0  0  0  0  0
    7.4247  -17.6707   24.7376 C   0  0  0  0  0  0  0  0  0  0  0  0
    6.7793  -17.7059   26.0159 O   0  0  0  0  0  0  0  0  0  0  0  0
    7.2392  -17.4411   27.1290 C   0  0  0  0  0  0  0  0  0  0  0  0
    9.6645  -18.2978   25.3801 O   0  0  0  0  0  0  0  0  0  0  0  0
    9.3728  -19.4905   25.0250 O   0  0  0  0  0  0  0  0  0  0  0  0
    5.4098  -18.0997   26.0307 N   0  0  0  0  0  0  0  0  0  0  0  0
   10.6868  -18.1664   26.3158 C   0  0  1  0  0  0  0  0  0  0  0  0
   11.1799  -19.3560   26.9910 C   0  0  0  0  0  0  0  0  0  0  0  0
   12.6872  -19.5329   26.8164 C   0  0  0  0  0  0  0  0  0  0  0  0
   12.9690  -19.8112   25.3883 C   0  0  0  0  0  0  0  0  0  0  0  0
   14.4121  -19.9977   25.0503 C   0  0  0  0  0  0  0  0  0  0  0  0
   14.7080  -20.1822   23.5916 N   0  0  0  0  0  0  0  0  0  0  0  0
   16.1121  -20.2822   23.3509 C   0  0  0  0  0  0  0  0  0  0  0  0
   10.9124  -19.2447   28.4475 O   0  0  0  0  0  0  0  0  0  0  0  0
   10.3838  -18.2157   28.8983 O   0  0  0  0  0  0  0  0  0  0  0  0
  2  1  1  0
  3  2  2  0
  4  2  1  0
  5  4  1  0
  6  5  1  0
  7  6  1  0
  8 10  1  0
  8  7  1  0
  8  9  1  6
 10 11  2  0
 12 10  1  0
 13 12  1  0
 13 14  1  1
 15 14  1  0
 15 19  1  0
 16 15  2  0
 17 13  1  0
 18 17  2  0
 20 17  1  0
 21 27  1  0
 21 20  1  0
 21 22  1  1
 23 22  1  0
 24 23  1  0
 24 25  1  0
 25 26  1  0
 27 29  1  0
 28 27  2  0
M  END
$$$$
