RDK.pdb
     RDKit          3D

 29 28  0  0  1  0  0  0  0  0999 V2000
    7.4194  -13.8918   18.0065 N   0  0  0  0  0  0  0  0  0  0  0  0
    8.0767  -12.9563   18.8689 C   0  0  0  0  0  0  0  0  0  0  0  0
    7.5637  -11.8015   19.0744 N   0  0  0  0  0  0  0  0  0  0  0  0
    9.3069  -13.2789   19.5157 N   0  0  0  0  0  0  0  0  0  0  0  0
    9.8956  -14.5974   19.4441 C   0  0  0  0  0  0  0  0  0  0  0  0
    9.4673  -15.3291   20.6948 C   0  0  0  0  0  0  0  0  0  0  0  0
    9.9718  -16.7362   20.7691 C   0  0  0  0  0  0  0  0  0  0  0  0
    9.4480  -17.3220   22.0758 C   0  0  2  0  0  0  0  0  0  0  0  0
    8.0017  -17.3890   22.0642 N   0  0  0  0  0  0  0  0  0  0  0  0
    9.8546  -16.5039   23.2422 C   0  0  0  0  0  0  0  0  0  0  0  0
   11.0548  -16.1654   23.4172 O   0  0  0  0  0  0  0  0  0  0  0  0
    8.0230  -11.0634   19.6103 N   0  0  0  0  0  0  0  0  0  0  0  0
    8.9075  -16.0752   24.1989 C   0  0  1  0  0  0  0  0  0  0  0  0
    9.2847  -15.2012   25.3523 C   0  0  0  0  0  0  0  0  0  0  0  0
    8.0386  -14.4105   25.7049 C   0  0  0  0  0  0  0  0  0  0  0  0
    8.1734  -13.4781   26.7839 O   0  0  0  0  0  0  0  0  0  0  0  0
    9.1297  -13.2940   27.5403 C   0  0  0  0  0  0  0  0  0  0  0  0
    9.4792  -16.1978   26.4490 O   0  0  0  0  0  0  0  0  0  0  0  0
    8.5562  -17.0716   26.5843 O   0  0  0  0  0  0  0  0  0  0  0  0
    7.0569  -12.6305   27.0403 N   0  0  0  0  0  0  0  0  0  0  0  0
   10.5482  -16.2887   27.3361 C   0  0  1  0  0  0  0  0  0  0  0  0
   10.5135  -17.3020   28.3783 C   0  0  0  0  0  0  0  0  0  0  0  0
   11.5883  -18.3690   28.1786 C   0  0  0  0  0  0  0  0  0  0  0  0
   11.4567  -19.3806   29.2535 C   0  0  0  0  0  0  0  0  0  0  0  0
   12.4570  -20.4893   29.2082 C   0  0  0  0  0  0  0  0  0  0  0  0
   12.3730  -21.4722   30.3378 N   0  0  0  0  0  0  0  0  0  0  0  0
   13.3118  -22.5363   30.1768 C   0  0  0  0  0  0  0  0  0  0  0  0
   10.7612  -16.6643   29.6964 O   0  0  0  0  0  0  0  0  0  0  0  0
   11.1288  -15.4795   29.7465 O   0  0  0  0  0  0  0  0  0  0  0  0
  2  1  1  0
  3  2  2  0
  4  2  1  0
  5  4  1  0
  6  5  1  0
  7  6  1  0
  8 10  1  0
  8  7  1  0
  8  9  1  6
 10 11  2  0
 12 10  1  0
 13 12  1  0
 13 14  1  6
 15 14  1  0
 15 19  1  0
 16 15  2  0
 17 13  1  0
 18 17  2  0
 20 17  1  0
 21 27  1  0
 21 20  1  0
 21 22  1  1
 23 22  1  0
 24 23  1  0
 24 25  1  0
 25 26  1  0
 27 29  1  0
 28 27  2  0
M  END
$$$$
