RDK.pdb
     RDKit          3D

 29 28  0  0  1  0  0  0  0  0999 V2000
    8.3337  -11.5363   18.5283 N   0  0  0  0  0  0  0  0  0  0  0  0
    8.3049  -12.9536   18.7314 C   0  0  0  0  0  0  0  0  0  0  0  0
    9.1012  -13.7130   18.0771 N   0  0  0  0  0  0  0  0  0  0  0  0
    7.3993  -13.5538   19.6565 N   0  0  0  0  0  0  0  0  0  0  0  0
    7.4315  -14.9660   19.9643 C   0  0  0  0  0  0  0  0  0  0  0  0
    8.4486  -15.1435   21.0675 C   0  0  0  0  0  0  0  0  0  0  0  0
    8.1589  -16.3020   21.9697 C   0  0  0  0  0  0  0  0  0  0  0  0
    8.9612  -17.4843   21.4375 C   0  0  2  0  0  0  0  0  0  0  0  0
    8.0844  -18.4774   20.8530 N   0  0  0  0  0  0  0  0  0  0  0  0
    9.7398  -18.1433   22.5120 C   0  0  0  0  0  0  0  0  0  0  0  0
    9.1699  -18.7874   23.4319 O   0  0  0  0  0  0  0  0  0  0  0  0
    9.1166  -14.7303   18.1655 N   0  0  0  0  0  0  0  0  0  0  0  0
   11.1505  -18.0712   22.5406 C   0  0  2  0  0  0  0  0  0  0  0  0
   11.9491  -18.6045   23.6869 C   0  0  0  0  0  0  0  0  0  0  0  0
   13.4060  -18.4336   23.2991 C   0  0  0  0  0  0  0  0  0  0  0  0
   14.3667  -18.8998   24.2538 O   0  0  0  0  0  0  0  0  0  0  0  0
   14.1812  -19.4153   25.3585 C   0  0  0  0  0  0  0  0  0  0  0  0
   11.6735  -17.5966   24.7554 O   0  0  0  0  0  0  0  0  0  0  0  0
   11.7413  -16.3701   24.4019 O   0  0  0  0  0  0  0  0  0  0  0  0
   15.7401  -18.7594   23.9003 N   0  0  0  0  0  0  0  0  0  0  0  0
   11.3476  -17.8364   26.0875 C   0  0  1  0  0  0  0  0  0  0  0  0
   10.9529  -16.7174   26.9278 C   0  0  0  0  0  0  0  0  0  0  0  0
    9.5879  -16.1559   26.5335 C   0  0  0  0  0  0  0  0  0  0  0  0
    9.2878  -14.9901   27.3979 C   0  0  0  0  0  0  0  0  0  0  0  0
    7.9743  -14.3278   27.1375 C   0  0  0  0  0  0  0  0  0  0  0  0
    7.7062  -13.0979   27.9527 N   0  0  0  0  0  0  0  0  0  0  0  0
    6.4348  -12.5284   27.6384 C   0  0  0  0  0  0  0  0  0  0  0  0
   10.8556  -17.1689   28.3391 O   0  0  0  0  0  0  0  0  0  0  0  0
   10.6525  -18.3682   28.5881 O   0  0  0  0  0  0  0  0  0  0  0  0
  2  1  1  0
  3  2  2  0
  4  2  1  0
  5  4  1  0
  6  5  1  0
  7  6  1  0
  8 10  1  0
  8  7  1  0
  8  9  1  1
 10 11  2  0
 12 10  1  0
 13 12  1  0
 13 14  1  6
 15 14  1  0
 15 19  1  0
 16 15  2  0
 17 13  1  0
 18 17  2  0
 20 17  1  0
 21 27  1  0
 21 20  1  0
 21 22  1  1
 23 22  1  0
 24 23  1  0
 24 25  1  0
 25 26  1  0
 27 29  1  0
 28 27  2  0
M  END
$$$$
