RDK.pdb
     RDKit          3D

 29 28  0  0  1  0  0  0  0  0999 V2000
    9.3572  -13.2725   20.7609 N   0  0  0  0  0  0  0  0  0  0  0  0
    8.4985  -12.3093   20.1399 C   0  0  0  0  0  0  0  0  0  0  0  0
    8.6122  -11.0670   20.4272 N   0  0  0  0  0  0  0  0  0  0  0  0
    7.5032  -12.7004   19.1952 N   0  0  0  0  0  0  0  0  0  0  0  0
    7.5585  -13.9621   18.4915 C   0  0  0  0  0  0  0  0  0  0  0  0
    7.1432  -15.0259   19.4809 C   0  0  0  0  0  0  0  0  0  0  0  0
    8.2843  -15.8502   19.9896 C   0  0  0  0  0  0  0  0  0  0  0  0
    8.9099  -16.5299   18.7765 C   0  0  2  0  0  0  0  0  0  0  0  0
    8.2315  -17.7740   18.4792 N   0  0  0  0  0  0  0  0  0  0  0  0
   10.3418  -16.8367   19.0012 C   0  0  0  0  0  0  0  0  0  0  0  0
   10.7158  -17.9824   19.3662 O   0  0  0  0  0  0  0  0  0  0  0  0
    8.0049  -10.3386   20.0484 N   0  0  0  0  0  0  0  0  0  0  0  0
   11.3377  -15.8523   18.8129 C   0  0  2  0  0  0  0  0  0  0  0  0
   12.7778  -16.1115   19.1215 C   0  0  0  0  0  0  0  0  0  0  0  0
   13.5442  -14.9190   18.5805 C   0  0  0  0  0  0  0  0  0  0  0  0
   14.9558  -14.9194   18.8240 O   0  0  0  0  0  0  0  0  0  0  0  0
   15.6359  -15.7224   19.4667 C   0  0  0  0  0  0  0  0  0  0  0  0
   12.8045  -15.9926   20.6110 O   0  0  0  0  0  0  0  0  0  0  0  0
   12.2891  -14.9297   21.0992 O   0  0  0  0  0  0  0  0  0  0  0  0
   15.7039  -13.8495   18.2525 N   0  0  0  0  0  0  0  0  0  0  0  0
   13.3199  -16.9044   21.5281 C   0  0  2  0  0  0  0  0  0  0  0  0
   13.1452  -16.6486   22.9488 C   0  0  0  0  0  0  0  0  0  0  0  0
   12.6302  -17.8780   23.6951 C   0  0  0  0  0  0  0  0  0  0  0  0
   12.6485  -17.5915   25.1490 C   0  0  0  0  0  0  0  0  0  0  0  0
   12.2210  -18.7236   26.0249 C   0  0  0  0  0  0  0  0  0  0  0  0
   12.2199  -18.4286   27.4953 N   0  0  0  0  0  0  0  0  0  0  0  0
   11.6394  -19.4978   28.2433 C   0  0  0  0  0  0  0  0  0  0  0  0
   14.4525  -16.2807   23.5494 O   0  0  0  0  0  0  0  0  0  0  0  0
   15.5049  -16.6598   23.0105 O   0  0  0  0  0  0  0  0  0  0  0  0
  2  1  1  0
  3  2  2  0
  4  2  1  0
  5  4  1  0
  6  5  1  0
  7  6  1  0
  8 10  1  0
  8  7  1  0
  8  9  1  1
 10 11  2  0
 12 10  1  0
 13 12  1  0
 13 14  1  6
 15 14  1  0
 15 19  1  0
 16 15  2  0
 17 13  1  0
 18 17  2  0
 20 17  1  0
 21 27  1  0
 21 20  1  0
 21 22  1  6
 23 22  1  0
 24 23  1  0
 24 25  1  0
 25 26  1  0
 27 29  1  0
 28 27  2  0
M  END
$$$$
