RDK.pdb
     RDKit          3D

 29 28  0  0  1  0  0  0  0  0999 V2000
   10.3751  -13.4324   20.1237 N   0  0  0  0  0  0  0  0  0  0  0  0
    9.2506  -12.8546   19.4511 C   0  0  0  0  0  0  0  0  0  0  0  0
    9.2428  -11.6061   19.1680 N   0  0  0  0  0  0  0  0  0  0  0  0
    8.1199  -13.6428   19.0817 N   0  0  0  0  0  0  0  0  0  0  0  0
    7.8798  -14.9570   19.6341 C   0  0  0  0  0  0  0  0  0  0  0  0
    7.0749  -14.7533   20.8966 C   0  0  0  0  0  0  0  0  0  0  0  0
    7.8290  -15.0791   22.1477 C   0  0  0  0  0  0  0  0  0  0  0  0
    8.2625  -16.5364   22.0321 C   0  0  2  0  0  0  0  0  0  0  0  0
    7.1204  -17.3936   21.7927 N   0  0  0  0  0  0  0  0  0  0  0  0
    8.9309  -17.0064   23.2680 C   0  0  0  0  0  0  0  0  0  0  0  0
    8.2965  -17.6334   24.1569 O   0  0  0  0  0  0  0  0  0  0  0  0
    8.4775  -11.1397   18.6784 N   0  0  0  0  0  0  0  0  0  0  0  0
   10.3053  -16.7666   23.4910 C   0  0  2  0  0  0  0  0  0  0  0  0
   11.0268  -17.3278   24.6746 C   0  0  0  0  0  0  0  0  0  0  0  0
   12.5024  -17.2897   24.3236 C   0  0  0  0  0  0  0  0  0  0  0  0
   12.9612  -18.3155   23.4353 O   0  0  0  0  0  0  0  0  0  0  0  0
   12.6786  -19.5157   23.4182 C   0  0  0  0  0  0  0  0  0  0  0  0
   10.8084  -16.2676   25.7051 O   0  0  0  0  0  0  0  0  0  0  0  0
   11.3357  -15.1292   25.4606 O   0  0  0  0  0  0  0  0  0  0  0  0
   13.8755  -17.9182   22.4169 N   0  0  0  0  0  0  0  0  0  0  0  0
   10.0952  -16.3729   26.8960 C   0  0  1  0  0  0  0  0  0  0  0  0
   10.0386  -15.2246   27.7862 C   0  0  0  0  0  0  0  0  0  0  0  0
    8.6019  -14.8112   28.1005 C   0  0  0  0  0  0  0  0  0  0  0  0
    7.9281  -14.4401   26.8338 C   0  0  0  0  0  0  0  0  0  0  0  0
    7.2147  -13.1278   26.8547 C   0  0  0  0  0  0  0  0  0  0  0  0
    6.5744  -12.7279   25.5588 N   0  0  0  0  0  0  0  0  0  0  0  0
    5.8576  -11.4993   25.6863 C   0  0  0  0  0  0  0  0  0  0  0  0
   10.6940  -15.5649   29.0746 O   0  0  0  0  0  0  0  0  0  0  0  0
   10.9811  -16.7466   29.3248 O   0  0  0  0  0  0  0  0  0  0  0  0
  2  1  1  0
  3  2  2  0
  4  2  1  0
  5  4  1  0
  6  5  1  0
  7  6  1  0
  8 10  1  0
  8  7  1  0
  8  9  1  1
 10 11  2  0
 12 10  1  0
 13 12  1  0
 13 14  1  6
 15 14  1  0
 15 19  1  0
 16 15  2  0
 17 13  1  0
 18 17  2  0
 20 17  1  0
 21 27  1  0
 21 20  1  0
 21 22  1  1
 23 22  1  0
 24 23  1  0
 24 25  1  0
 25 26  1  0
 27 29  1  0
 28 27  2  0
M  END
$$$$
