ECN.pdb
     RDKit          3D

 24 23  0  0  1  0  0  0  0  0999 V2000
    9.0833  -15.8579   20.2465 N   0  0  0  0  0  0  0  0  0  0  0  0
    8.0509  -14.8503   20.5425 C   0  0  1  0  0  0  0  0  0  0  0  0
    6.7688  -15.2125   19.8063 C   0  0  0  0  0  0  0  0  0  0  0  0
    6.7789  -16.6465   19.4170 C   0  0  0  0  0  0  0  0  0  0  0  0
    7.5444  -16.9122   18.2008 C   0  0  0  0  0  0  0  0  0  0  0  0
    8.3683  -16.0424   17.7846 O   0  0  0  0  0  0  0  0  0  0  0  0
    7.7372  -14.9791   21.9861 C   0  0  0  0  0  0  0  0  0  0  0  0
    6.8042  -14.2792   22.4392 O   0  0  0  0  0  0  0  0  0  0  0  0
    7.4194  -18.0712   17.4734 O   0  0  0  0  0  0  0  0  0  0  0  0
    8.4326  -15.8386   22.8466 N   0  0  0  0  0  0  0  0  0  0  0  0
    8.1923  -15.8851   24.2858 C   0  0  1  0  0  0  0  0  0  0  0  0
    6.7990  -16.3951   24.5659 C   0  0  0  0  0  0  0  0  0  0  0  0
    6.6700  -18.1601   24.2928 S   0  0  0  0  0  0  0  0  0  0  0  0
    9.1650  -16.8669   24.8216 C   0  0  0  0  0  0  0  0  0  0  0  0
   10.1186  -17.2724   24.0999 O   0  0  0  0  0  0  0  0  0  0  0  0
   11.1932  -15.4591   29.1955 N   0  0  0  0  0  0  0  0  0  0  0  0
   10.2006  -14.7423   28.4530 C   0  0  0  0  0  0  0  0  0  0  0  0
    9.9720  -13.5459   28.7709 O   0  0  0  0  0  0  0  0  0  0  0  0
    9.5111  -15.4408   27.3702 C   0  0  0  0  0  0  0  0  0  0  0  0
    9.9897  -16.8587   27.1384 C   0  0  2  0  0  0  0  0  0  0  0  0
    9.1088  -17.4049   26.1288 N   0  0  0  0  0  0  0  0  0  0  0  0
    9.8787  -17.5933   28.4232 C   0  0  0  0  0  0  0  0  0  0  0  0
    8.8013  -18.4793   28.5685 O   0  0  0  0  0  0  0  0  0  0  0  0
   10.6649  -17.4838   29.3778 O   0  0  0  0  0  0  0  0  0  0  0  0
  2  1  1  6
  2  7  1  0
  3  2  1  0
  3  4  1  0
  5  4  1  0
  5  9  1  0
  6  5  2  0
  7  8  2  0
 10 11  1  0
 10  7  1  0
 11 14  1  0
 11 12  1  6
 13 12  1  0
 14 21  1  0
 15 14  2  0
 17 16  1  0
 18 17  2  0
 19 17  1  0
 20 19  1  1
 21 20  1  0
 22 23  1  0
 22 20  1  0
 24 22  2  0
M  END
$$$$
