ECN.pdb
     RDKit          3D

 24 23  0  0  1  0  0  0  0  0999 V2000
    6.3515  -20.4364   23.8605 N   0  0  0  0  0  0  0  0  0  0  0  0
    6.8755  -19.1807   24.4240 C   0  0  1  0  0  0  0  0  0  0  0  0
    8.1489  -19.4727   25.2051 C   0  0  0  0  0  0  0  0  0  0  0  0
    7.8462  -20.2906   26.4081 C   0  0  0  0  0  0  0  0  0  0  0  0
    7.9807  -19.5512   27.6614 C   0  0  0  0  0  0  0  0  0  0  0  0
    8.3079  -18.3263   27.6263 O   0  0  0  0  0  0  0  0  0  0  0  0
    7.2912  -18.3429   23.2733 C   0  0  0  0  0  0  0  0  0  0  0  0
    7.4887  -18.9193   22.1804 O   0  0  0  0  0  0  0  0  0  0  0  0
    7.7672  -20.1187   28.8944 O   0  0  0  0  0  0  0  0  0  0  0  0
    7.4682  -16.9559   23.3610 N   0  0  0  0  0  0  0  0  0  0  0  0
    8.0453  -16.1601   22.2817 C   0  0  1  0  0  0  0  0  0  0  0  0
    7.2512  -14.8905   22.0877 C   0  0  0  0  0  0  0  0  0  0  0  0
    8.0471  -13.7791   20.9311 S   0  0  0  0  0  0  0  0  0  0  0  0
    9.4066  -15.7935   22.7396 C   0  0  0  0  0  0  0  0  0  0  0  0
    9.6106  -15.5035   23.9517 O   0  0  0  0  0  0  0  0  0  0  0  0
   14.2736  -16.0161   23.7842 N   0  0  0  0  0  0  0  0  0  0  0  0
   13.3718  -17.1274   23.8312 C   0  0  0  0  0  0  0  0  0  0  0  0
   13.7610  -18.1828   24.3964 O   0  0  0  0  0  0  0  0  0  0  0  0
   12.0530  -16.9719   23.2208 C   0  0  0  0  0  0  0  0  0  0  0  0
   11.8503  -15.6551   22.5011 C   0  0  2  0  0  0  0  0  0  0  0  0
   10.5397  -15.7429   21.8942 N   0  0  0  0  0  0  0  0  0  0  0  0
   12.9219  -15.5222   21.4829 C   0  0  0  0  0  0  0  0  0  0  0  0
   13.9782  -14.6453   21.7691 O   0  0  0  0  0  0  0  0  0  0  0  0
   12.9549  -16.1266   20.3989 O   0  0  0  0  0  0  0  0  0  0  0  0
  2  1  1  6
  2  7  1  0
  3  2  1  0
  3  4  1  0
  5  4  1  0
  5  9  1  0
  6  5  2  0
  7  8  2  0
 10 11  1  0
 10  7  1  0
 11 14  1  0
 11 12  1  1
 13 12  1  0
 14 21  1  0
 15 14  2  0
 17 16  1  0
 18 17  2  0
 19 17  1  0
 20 19  1  6
 21 20  1  0
 22 23  1  0
 22 20  1  0
 24 22  2  0
M  END
$$$$
