ECN.pdb
     RDKit          3D

 24 23  0  0  1  0  0  0  0  0999 V2000
    8.2938  -12.7961   20.2409 N   0  0  0  0  0  0  0  0  0  0  0  0
    7.2248  -13.2899   21.1253 C   0  0  1  0  0  0  0  0  0  0  0  0
    6.8060  -14.6835   20.6788 C   0  0  0  0  0  0  0  0  0  0  0  0
    7.9983  -15.4997   20.3320 C   0  0  0  0  0  0  0  0  0  0  0  0
    7.6677  -16.8581   19.9066 C   0  0  0  0  0  0  0  0  0  0  0  0
    7.4105  -17.0797   18.6846 O   0  0  0  0  0  0  0  0  0  0  0  0
    7.8328  -13.4619   22.4669 C   0  0  0  0  0  0  0  0  0  0  0  0
    9.0744  -13.6061   22.5243 O   0  0  0  0  0  0  0  0  0  0  0  0
    7.6212  -17.9250   20.7712 O   0  0  0  0  0  0  0  0  0  0  0  0
    7.0842  -13.4689   23.6510 N   0  0  0  0  0  0  0  0  0  0  0  0
    7.6936  -13.5659   24.9741 C   0  0  1  0  0  0  0  0  0  0  0  0
    6.6940  -13.1809   26.0384 C   0  0  0  0  0  0  0  0  0  0  0  0
    6.2879  -11.4383   25.9693 S   0  0  0  0  0  0  0  0  0  0  0  0
    8.0365  -14.9970   25.1520 C   0  0  0  0  0  0  0  0  0  0  0  0
    7.4774  -15.8758   24.4380 O   0  0  0  0  0  0  0  0  0  0  0  0
   10.4309  -19.1055   23.6689 N   0  0  0  0  0  0  0  0  0  0  0  0
   11.0287  -18.1081   24.5045 C   0  0  0  0  0  0  0  0  0  0  0  0
   12.1518  -18.3584   25.0152 O   0  0  0  0  0  0  0  0  0  0  0  0
   10.3008  -16.8586   24.7159 C   0  0  0  0  0  0  0  0  0  0  0  0
    9.4492  -16.8371   25.9680 C   0  0  2  0  0  0  0  0  0  0  0  0
    8.9785  -15.4746   26.0932 N   0  0  0  0  0  0  0  0  0  0  0  0
   10.3097  -17.2307   27.1115 C   0  0  0  0  0  0  0  0  0  0  0  0
   10.5016  -18.6023   27.3319 O   0  0  0  0  0  0  0  0  0  0  0  0
   10.8715  -16.4403   27.8867 O   0  0  0  0  0  0  0  0  0  0  0  0
  2  1  1  6
  2  7  1  0
  3  2  1  0
  3  4  1  0
  5  4  1  0
  5  9  1  0
  6  5  2  0
  7  8  2  0
 10 11  1  0
 10  7  1  0
 11 14  1  0
 11 12  1  1
 13 12  1  0
 14 21  1  0
 15 14  2  0
 17 16  1  0
 18 17  2  0
 19 17  1  0
 20 19  1  6
 21 20  1  0
 22 23  1  0
 22 20  1  0
 24 22  2  0
M  END
$$$$
