ECN.pdb
     RDKit          3D

 24 23  0  0  1  0  0  0  0  0999 V2000
    9.2042  -16.7134   19.6314 N   0  0  0  0  0  0  0  0  0  0  0  0
    9.8187  -17.4220   20.7668 C   0  0  1  0  0  0  0  0  0  0  0  0
   11.1699  -17.9785   20.3408 C   0  0  0  0  0  0  0  0  0  0  0  0
   11.3818  -17.7739   18.8844 C   0  0  0  0  0  0  0  0  0  0  0  0
   12.6975  -18.2110   18.4224 C   0  0  0  0  0  0  0  0  0  0  0  0
   12.8550  -18.5197   17.2023 O   0  0  0  0  0  0  0  0  0  0  0  0
   10.1116  -16.3956   21.7963 C   0  0  0  0  0  0  0  0  0  0  0  0
   11.3083  -16.0720   21.9653 O   0  0  0  0  0  0  0  0  0  0  0  0
   13.7903  -18.3058   19.2499 O   0  0  0  0  0  0  0  0  0  0  0  0
    9.1179  -15.7854   22.5728 N   0  0  0  0  0  0  0  0  0  0  0  0
    9.3752  -15.2343   23.9000 C   0  0  1  0  0  0  0  0  0  0  0  0
    8.1785  -14.4480   24.3793 C   0  0  0  0  0  0  0  0  0  0  0  0
    6.6688  -15.4049   24.2731 S   0  0  0  0  0  0  0  0  0  0  0  0
    9.5515  -16.4053   24.7915 C   0  0  0  0  0  0  0  0  0  0  0  0
    9.3664  -17.5730   24.3476 O   0  0  0  0  0  0  0  0  0  0  0  0
   11.9483  -20.3405   26.3634 N   0  0  0  0  0  0  0  0  0  0  0  0
   12.4076  -19.0145   26.6482 C   0  0  0  0  0  0  0  0  0  0  0  0
   13.4166  -18.8833   27.3895 O   0  0  0  0  0  0  0  0  0  0  0  0
   11.6789  -17.8914   26.0621 C   0  0  0  0  0  0  0  0  0  0  0  0
   10.4215  -17.5043   26.8121 C   0  0  2  0  0  0  0  0  0  0  0  0
    9.9274  -16.3151   26.1524 N   0  0  0  0  0  0  0  0  0  0  0  0
   10.7962  -17.2370   28.2231 C   0  0  0  0  0  0  0  0  0  0  0  0
   10.7700  -15.9032   28.6556 O   0  0  0  0  0  0  0  0  0  0  0  0
   11.1307  -18.1020   29.0485 O   0  0  0  0  0  0  0  0  0  0  0  0
  2  1  1  6
  2  7  1  0
  3  2  1  0
  3  4  1  0
  5  4  1  0
  5  9  1  0
  6  5  2  0
  7  8  2  0
 10 11  1  0
 10  7  1  0
 11 14  1  0
 11 12  1  1
 13 12  1  0
 14 21  1  0
 15 14  2  0
 17 16  1  0
 18 17  2  0
 19 17  1  0
 20 19  1  6
 21 20  1  0
 22 23  1  0
 22 20  1  0
 24 22  2  0
M  END
$$$$
