ECN.pdb
     RDKit          3D

 24 23  0  0  1  0  0  0  0  0999 V2000
    7.5481  -13.3095   16.9483 N   0  0  0  0  0  0  0  0  0  0  0  0
    8.0705  -14.5538   17.5380 C   0  0  1  0  0  0  0  0  0  0  0  0
    9.2683  -15.0300   16.7285 C   0  0  0  0  0  0  0  0  0  0  0  0
    8.8545  -16.0638   15.7448 C   0  0  0  0  0  0  0  0  0  0  0  0
    9.1992  -15.7237   14.3660 C   0  0  0  0  0  0  0  0  0  0  0  0
   10.2736  -16.1760   13.8661 O   0  0  0  0  0  0  0  0  0  0  0  0
    8.6035  -14.1959   18.8748 C   0  0  0  0  0  0  0  0  0  0  0  0
    9.3261  -13.1777   18.9549 O   0  0  0  0  0  0  0  0  0  0  0  0
    8.4101  -14.9300   13.5689 O   0  0  0  0  0  0  0  0  0  0  0  0
    8.3340  -14.9406   20.0304 N   0  0  0  0  0  0  0  0  0  0  0  0
    8.7907  -14.5387   21.3575 C   0  0  1  0  0  0  0  0  0  0  0  0
    7.6384  -14.5562   22.3332 C   0  0  0  0  0  0  0  0  0  0  0  0
    6.6693  -16.0551   22.1903 S   0  0  0  0  0  0  0  0  0  0  0  0
    9.7694  -15.5715   21.7728 C   0  0  0  0  0  0  0  0  0  0  0  0
    9.8076  -16.6842   21.1769 O   0  0  0  0  0  0  0  0  0  0  0  0
   15.1152  -16.3248   24.1508 N   0  0  0  0  0  0  0  0  0  0  0  0
   14.1411  -16.7220   23.1793 C   0  0  0  0  0  0  0  0  0  0  0  0
   14.2995  -17.8279   22.5992 O   0  0  0  0  0  0  0  0  0  0  0  0
   13.0205  -15.8209   22.9178 C   0  0  0  0  0  0  0  0  0  0  0  0
   11.6566  -16.4597   23.0757 C   0  0  2  0  0  0  0  0  0  0  0  0
   10.7018  -15.4022   22.8233 N   0  0  0  0  0  0  0  0  0  0  0  0
   11.5530  -16.9767   24.4631 C   0  0  0  0  0  0  0  0  0  0  0  0
   11.0615  -16.1014   25.4424 O   0  0  0  0  0  0  0  0  0  0  0  0
   11.8678  -18.1225   24.8228 O   0  0  0  0  0  0  0  0  0  0  0  0
  2  1  1  6
  2  7  1  0
  3  2  1  0
  3  4  1  0
  5  4  1  0
  5  9  1  0
  6  5  2  0
  7  8  2  0
 10 11  1  0
 10  7  1  0
 11 14  1  0
 11 12  1  1
 13 12  1  0
 14 21  1  0
 15 14  2  0
 17 16  1  0
 18 17  2  0
 19 17  1  0
 20 19  1  1
 21 20  1  0
 22 23  1  0
 22 20  1  0
 24 22  2  0
M  END
$$$$
