ECN.pdb
     RDKit          3D

 24 23  0  0  1  0  0  0  0  0999 V2000
    7.8459  -13.1292   19.6096 N   0  0  0  0  0  0  0  0  0  0  0  0
    6.9654  -13.6518   20.6680 C   0  0  1  0  0  0  0  0  0  0  0  0
    6.5832  -15.0883   20.3408 C   0  0  0  0  0  0  0  0  0  0  0  0
    7.7961  -15.8985   20.0574 C   0  0  0  0  0  0  0  0  0  0  0  0
    7.5037  -17.3026   19.7774 C   0  0  0  0  0  0  0  0  0  0  0  0
    6.4084  -17.6075   19.2151 O   0  0  0  0  0  0  0  0  0  0  0  0
    7.7851  -13.7234   21.9017 C   0  0  0  0  0  0  0  0  0  0  0  0
    9.0040  -13.9742   21.7717 O   0  0  0  0  0  0  0  0  0  0  0  0
    8.3642  -18.3261   20.0935 O   0  0  0  0  0  0  0  0  0  0  0  0
    7.2568  -13.5249   23.1840 N   0  0  0  0  0  0  0  0  0  0  0  0
    8.0548  -13.6550   24.3995 C   0  0  1  0  0  0  0  0  0  0  0  0
    7.2874  -13.1244   25.5868 C   0  0  0  0  0  0  0  0  0  0  0  0
    5.6065  -13.7407   25.6208 S   0  0  0  0  0  0  0  0  0  0  0  0
    8.2593  -15.1108   24.5890 C   0  0  0  0  0  0  0  0  0  0  0  0
    7.7744  -15.9318   23.7610 O   0  0  0  0  0  0  0  0  0  0  0  0
   12.8138  -17.9788   24.2008 N   0  0  0  0  0  0  0  0  0  0  0  0
   11.3854  -18.0253   24.1116 C   0  0  0  0  0  0  0  0  0  0  0  0
   10.8480  -19.1119   23.7721 O   0  0  0  0  0  0  0  0  0  0  0  0
   10.6350  -16.8096   24.4195 C   0  0  0  0  0  0  0  0  0  0  0  0
    9.5753  -16.9842   25.4870 C   0  0  2  0  0  0  0  0  0  0  0  0
    8.9846  -15.6753   25.6646 N   0  0  0  0  0  0  0  0  0  0  0  0
   10.2467  -17.4586   26.7228 C   0  0  0  0  0  0  0  0  0  0  0  0
   10.1476  -18.8240   27.0270 O   0  0  0  0  0  0  0  0  0  0  0  0
   10.8882  -16.7406   27.5066 O   0  0  0  0  0  0  0  0  0  0  0  0
  2  1  1  6
  2  7  1  0
  3  2  1  0
  3  4  1  0
  5  4  1  0
  5  9  1  0
  6  5  2  0
  7  8  2  0
 10 11  1  0
 10  7  1  0
 11 14  1  0
 11 12  1  1
 13 12  1  0
 14 21  1  0
 15 14  2  0
 17 16  1  0
 18 17  2  0
 19 17  1  0
 20 19  1  6
 21 20  1  0
 22 23  1  0
 22 20  1  0
 24 22  2  0
M  END
$$$$
