ECN.pdb
     RDKit          3D

 24 23  0  0  1  0  0  0  0  0999 V2000
    9.6083  -16.3193   21.3592 N   0  0  0  0  0  0  0  0  0  0  0  0
   10.7367  -17.0135   22.0023 C   0  0  1  0  0  0  0  0  0  0  0  0
   11.9897  -16.8251   21.1589 C   0  0  0  0  0  0  0  0  0  0  0  0
   12.2734  -18.0499   20.3667 C   0  0  0  0  0  0  0  0  0  0  0  0
   13.5031  -17.9614   19.5820 C   0  0  0  0  0  0  0  0  0  0  0  0
   14.3325  -18.9203   19.6193 O   0  0  0  0  0  0  0  0  0  0  0  0
   10.9981  -16.3027   23.2773 C   0  0  0  0  0  0  0  0  0  0  0  0
   11.4235  -15.1281   23.2072 O   0  0  0  0  0  0  0  0  0  0  0  0
   13.8137  -16.8805   18.7927 O   0  0  0  0  0  0  0  0  0  0  0  0
   10.7908  -16.8852   24.5344 N   0  0  0  0  0  0  0  0  0  0  0  0
   10.8568  -16.1273   25.7804 C   0  0  1  0  0  0  0  0  0  0  0  0
    9.7455  -15.1061   25.8293 C   0  0  0  0  0  0  0  0  0  0  0  0
    9.6874  -14.2624   27.4076 S   0  0  0  0  0  0  0  0  0  0  0  0
   10.6300  -17.1156   26.8615 C   0  0  0  0  0  0  0  0  0  0  0  0
    9.5267  -17.7246   26.9421 O   0  0  0  0  0  0  0  0  0  0  0  0
   14.5665  -19.4818   27.7477 N   0  0  0  0  0  0  0  0  0  0  0  0
   13.1964  -19.7966   28.0198 C   0  0  0  0  0  0  0  0  0  0  0  0
   12.6145  -20.6153   27.2610 O   0  0  0  0  0  0  0  0  0  0  0  0
   12.5536  -19.1494   29.1617 C   0  0  0  0  0  0  0  0  0  0  0  0
   11.2513  -18.4509   28.8310 C   0  0  2  0  0  0  0  0  0  0  0  0
   11.5898  -17.4453   27.8473 N   0  0  0  0  0  0  0  0  0  0  0  0
   10.7283  -17.8456   30.0812 C   0  0  0  0  0  0  0  0  0  0  0  0
   10.3154  -18.7196   31.0972 O   0  0  0  0  0  0  0  0  0  0  0  0
   10.6282  -16.6269   30.2961 O   0  0  0  0  0  0  0  0  0  0  0  0
  2  1  1  6
  2  7  1  0
  3  2  1  0
  3  4  1  0
  5  4  1  0
  5  9  1  0
  6  5  2  0
  7  8  2  0
 10 11  1  0
 10  7  1  0
 11 14  1  0
 11 12  1  6
 13 12  1  0
 14 21  1  0
 15 14  2  0
 17 16  1  0
 18 17  2  0
 19 17  1  0
 20 19  1  1
 21 20  1  0
 22 23  1  0
 22 20  1  0
 24 22  2  0
M  END
$$$$
