ECN.pdb
     RDKit          3D

 24 23  0  0  1  0  0  0  0  0999 V2000
    7.7178  -13.0850   19.7701 N   0  0  0  0  0  0  0  0  0  0  0  0
    7.2354  -14.0967   20.7254 C   0  0  1  0  0  0  0  0  0  0  0  0
    7.6147  -15.4830   20.2242 C   0  0  0  0  0  0  0  0  0  0  0  0
    7.4868  -15.5554   18.7455 C   0  0  0  0  0  0  0  0  0  0  0  0
    7.7685  -16.8829   18.2031 C   0  0  0  0  0  0  0  0  0  0  0  0
    6.8195  -17.5654   17.7109 O   0  0  0  0  0  0  0  0  0  0  0  0
    8.0047  -13.8959   21.9772 C   0  0  0  0  0  0  0  0  0  0  0  0
    9.1657  -13.4408   21.8750 O   0  0  0  0  0  0  0  0  0  0  0  0
    9.0246  -17.4397   18.1957 O   0  0  0  0  0  0  0  0  0  0  0  0
    7.4908  -14.1908   23.2467 N   0  0  0  0  0  0  0  0  0  0  0  0
    8.2728  -14.0494   24.4713 C   0  0  1  0  0  0  0  0  0  0  0  0
    7.4117  -13.4902   25.5785 C   0  0  0  0  0  0  0  0  0  0  0  0
    5.8072  -14.2829   25.6373 S   0  0  0  0  0  0  0  0  0  0  0  0
    8.6798  -15.4245   24.8463 C   0  0  0  0  0  0  0  0  0  0  0  0
    7.9489  -16.4074   24.5393 O   0  0  0  0  0  0  0  0  0  0  0  0
   11.9821  -19.7309   24.6981 N   0  0  0  0  0  0  0  0  0  0  0  0
   12.0898  -18.6902   25.6758 C   0  0  0  0  0  0  0  0  0  0  0  0
   12.6401  -18.9640   26.7744 O   0  0  0  0  0  0  0  0  0  0  0  0
   11.5549  -17.3719   25.3418 C   0  0  0  0  0  0  0  0  0  0  0  0
   10.1499  -17.1221   25.8486 C   0  0  2  0  0  0  0  0  0  0  0  0
    9.8695  -15.7353   25.5460 N   0  0  0  0  0  0  0  0  0  0  0  0
   10.1397  -17.3807   27.3101 C   0  0  0  0  0  0  0  0  0  0  0  0
   10.1363  -18.7193   27.7281 O   0  0  0  0  0  0  0  0  0  0  0  0
   10.1338  -16.5044   28.1896 O   0  0  0  0  0  0  0  0  0  0  0  0
  2  1  1  6
  2  7  1  0
  3  2  1  0
  3  4  1  0
  5  4  1  0
  5  9  1  0
  6  5  2  0
  7  8  2  0
 10 11  1  0
 10  7  1  0
 11 14  1  0
 11 12  1  1
 13 12  1  0
 14 21  1  0
 15 14  2  0
 17 16  1  0
 18 17  2  0
 19 17  1  0
 20 19  1  1
 21 20  1  0
 22 23  1  0
 22 20  1  0
 24 22  2  0
M  END
$$$$
