ECN.pdb
     RDKit          3D

 24 23  0  0  1  0  0  0  0  0999 V2000
    8.1356  -12.7350   19.7513 N   0  0  0  0  0  0  0  0  0  0  0  0
    7.4543  -13.8304   20.4618 C   0  0  1  0  0  0  0  0  0  0  0  0
    7.8240  -15.1571   19.8135 C   0  0  0  0  0  0  0  0  0  0  0  0
    7.2346  -15.2542   18.4529 C   0  0  0  0  0  0  0  0  0  0  0  0
    7.6693  -16.4386   17.7154 C   0  0  0  0  0  0  0  0  0  0  0  0
    8.3122  -17.3465   18.3244 O   0  0  0  0  0  0  0  0  0  0  0  0
    8.0335  -13.8731   21.8263 C   0  0  0  0  0  0  0  0  0  0  0  0
    9.2574  -13.6401   21.9419 O   0  0  0  0  0  0  0  0  0  0  0  0
    7.4142  -16.6257   16.3783 O   0  0  0  0  0  0  0  0  0  0  0  0
    7.2768  -14.1589   22.9701 N   0  0  0  0  0  0  0  0  0  0  0  0
    7.8407  -14.1508   24.3167 C   0  0  1  0  0  0  0  0  0  0  0  0
    6.7629  -13.8545   25.3318 C   0  0  0  0  0  0  0  0  0  0  0  0
    6.3957  -12.1042   25.4195 S   0  0  0  0  0  0  0  0  0  0  0  0
    8.3359  -15.5282   24.5506 C   0  0  0  0  0  0  0  0  0  0  0  0
    7.5609  -16.5140   24.4011 O   0  0  0  0  0  0  0  0  0  0  0  0
   12.4398  -16.1439   22.7860 N   0  0  0  0  0  0  0  0  0  0  0  0
   11.5579  -17.1800   23.2322 C   0  0  0  0  0  0  0  0  0  0  0  0
   10.9508  -17.8570   22.3617 O   0  0  0  0  0  0  0  0  0  0  0  0
   11.4139  -17.3910   24.6711 C   0  0  0  0  0  0  0  0  0  0  0  0
   10.0004  -17.2227   25.1878 C   0  0  2  0  0  0  0  0  0  0  0  0
    9.6599  -15.8382   24.9410 N   0  0  0  0  0  0  0  0  0  0  0  0
   10.0041  -17.5398   26.6378 C   0  0  0  0  0  0  0  0  0  0  0  0
    9.8218  -16.4744   27.5313 O   0  0  0  0  0  0  0  0  0  0  0  0
   10.1562  -18.6738   27.1196 O   0  0  0  0  0  0  0  0  0  0  0  0
  2  1  1  6
  2  7  1  0
  3  2  1  0
  3  4  1  0
  5  4  1  0
  5  9  1  0
  6  5  2  0
  7  8  2  0
 10 11  1  0
 10  7  1  0
 11 14  1  0
 11 12  1  1
 13 12  1  0
 14 21  1  0
 15 14  2  0
 17 16  1  0
 18 17  2  0
 19 17  1  0
 20 19  1  1
 21 20  1  0
 22 23  1  0
 22 20  1  0
 24 22  2  0
M  END
$$$$
