ECN.pdb
     RDKit          3D

 24 23  0  0  1  0  0  0  0  0999 V2000
    7.9933  -12.6834   19.5768 N   0  0  0  0  0  0  0  0  0  0  0  0
    7.1029  -13.3364   20.5512 C   0  0  1  0  0  0  0  0  0  0  0  0
    6.8244  -14.7634   20.1007 C   0  0  0  0  0  0  0  0  0  0  0  0
    8.0964  -15.4803   19.8248 C   0  0  0  0  0  0  0  0  0  0  0  0
    7.8997  -16.8326   19.3070 C   0  0  0  0  0  0  0  0  0  0  0  0
    8.1796  -17.0789   18.0946 O   0  0  0  0  0  0  0  0  0  0  0  0
    7.8728  -13.4548   21.8131 C   0  0  0  0  0  0  0  0  0  0  0  0
    9.1209  -13.4180   21.7340 O   0  0  0  0  0  0  0  0  0  0  0  0
    7.4223  -17.8680   20.0738 O   0  0  0  0  0  0  0  0  0  0  0  0
    7.2673  -13.6037   23.0677 N   0  0  0  0  0  0  0  0  0  0  0  0
    8.0296  -13.7266   24.3067 C   0  0  1  0  0  0  0  0  0  0  0  0
    7.2993  -13.0439   25.4384 C   0  0  0  0  0  0  0  0  0  0  0  0
    5.5420  -13.3854   25.3971 S   0  0  0  0  0  0  0  0  0  0  0  0
    8.0874  -15.1788   24.5977 C   0  0  0  0  0  0  0  0  0  0  0  0
    7.5097  -16.0016   23.8334 O   0  0  0  0  0  0  0  0  0  0  0  0
   11.2214  -19.0329   24.8668 N   0  0  0  0  0  0  0  0  0  0  0  0
   11.4494  -17.7906   24.1923 C   0  0  0  0  0  0  0  0  0  0  0  0
   12.3736  -17.7405   23.3389 O   0  0  0  0  0  0  0  0  0  0  0  0
   10.5968  -16.6538   24.5336 C   0  0  0  0  0  0  0  0  0  0  0  0
    9.4914  -16.9763   25.5172 C   0  0  2  0  0  0  0  0  0  0  0  0
    8.7667  -15.7382   25.7054 N   0  0  0  0  0  0  0  0  0  0  0  0
   10.1234  -17.4425   26.7766 C   0  0  0  0  0  0  0  0  0  0  0  0
   10.2730  -16.5047   27.8086 O   0  0  0  0  0  0  0  0  0  0  0  0
   10.5294  -18.5969   26.9863 O   0  0  0  0  0  0  0  0  0  0  0  0
  2  1  1  6
  2  7  1  0
  3  2  1  0
  3  4  1  0
  5  4  1  0
  5  9  1  0
  6  5  2  0
  7  8  2  0
 10 11  1  0
 10  7  1  0
 11 14  1  0
 11 12  1  1
 13 12  1  0
 14 21  1  0
 15 14  2  0
 17 16  1  0
 18 17  2  0
 19 17  1  0
 20 19  1  6
 21 20  1  0
 22 23  1  0
 22 20  1  0
 24 22  2  0
M  END
$$$$
