ECN.pdb
     RDKit          3D

 24 23  0  0  1  0  0  0  0  0999 V2000
    8.6455  -17.7160   16.5563 N   0  0  0  0  0  0  0  0  0  0  0  0
    7.7240  -17.3425   17.6427 C   0  0  1  0  0  0  0  0  0  0  0  0
    7.3352  -18.5899   18.4236 C   0  0  0  0  0  0  0  0  0  0  0  0
    8.5365  -19.4104   18.7266 C   0  0  0  0  0  0  0  0  0  0  0  0
    8.2255  -20.6640   19.4102 C   0  0  0  0  0  0  0  0  0  0  0  0
    9.1733  -21.4305   19.7607 O   0  0  0  0  0  0  0  0  0  0  0  0
    8.5015  -16.5023   18.5854 C   0  0  0  0  0  0  0  0  0  0  0  0
    9.7384  -16.6841   18.6360 O   0  0  0  0  0  0  0  0  0  0  0  0
    6.9430  -21.0631   19.6996 O   0  0  0  0  0  0  0  0  0  0  0  0
    7.9150  -15.5306   19.4066 N   0  0  0  0  0  0  0  0  0  0  0  0
    8.6887  -14.6810   20.3071 C   0  0  1  0  0  0  0  0  0  0  0  0
    7.8050  -13.6116   20.9032 C   0  0  0  0  0  0  0  0  0  0  0  0
    7.4198  -12.3290   19.7145 S   0  0  0  0  0  0  0  0  0  0  0  0
    9.1466  -15.5708   21.4006 C   0  0  0  0  0  0  0  0  0  0  0  0
    8.3379  -16.3739   21.9445 O   0  0  0  0  0  0  0  0  0  0  0  0
   10.2792  -19.6209   23.9380 N   0  0  0  0  0  0  0  0  0  0  0  0
   11.1804  -19.0601   22.9769 C   0  0  0  0  0  0  0  0  0  0  0  0
   12.3229  -19.5763   22.8641 O   0  0  0  0  0  0  0  0  0  0  0  0
   10.7217  -17.9217   22.1835 C   0  0  0  0  0  0  0  0  0  0  0  0
   10.8141  -16.5880   22.8947 C   0  0  2  0  0  0  0  0  0  0  0  0
   10.4696  -15.5942   21.9011 N   0  0  0  0  0  0  0  0  0  0  0  0
   12.2079  -16.4247   23.3781 C   0  0  0  0  0  0  0  0  0  0  0  0
   13.0081  -15.4732   22.7292 O   0  0  0  0  0  0  0  0  0  0  0  0
   12.7189  -17.0647   24.3111 O   0  0  0  0  0  0  0  0  0  0  0  0
  2  1  1  6
  2  7  1  0
  3  2  1  0
  3  4  1  0
  5  4  1  0
  5  9  1  0
  6  5  2  0
  7  8  2  0
 10 11  1  0
 10  7  1  0
 11 14  1  0
 11 12  1  1
 13 12  1  0
 14 21  1  0
 15 14  2  0
 17 16  1  0
 18 17  2  0
 19 17  1  0
 20 19  1  6
 21 20  1  0
 22 23  1  0
 22 20  1  0
 24 22  2  0
M  END
$$$$
