ECN.pdb
     RDKit          3D

 24 23  0  0  1  0  0  0  0  0999 V2000
    8.0102  -13.9432   19.9453 N   0  0  0  0  0  0  0  0  0  0  0  0
    7.1717  -14.4125   21.0613 C   0  0  1  0  0  0  0  0  0  0  0  0
    6.9430  -15.9110   20.9231 C   0  0  0  0  0  0  0  0  0  0  0  0
    7.5942  -16.4260   19.6907 C   0  0  0  0  0  0  0  0  0  0  0  0
    7.1250  -17.7530   19.2976 C   0  0  0  0  0  0  0  0  0  0  0  0
    7.4664  -18.7607   19.9880 O   0  0  0  0  0  0  0  0  0  0  0  0
    7.9757  -14.2393   22.2952 C   0  0  0  0  0  0  0  0  0  0  0  0
    9.2215  -14.2501   22.1792 O   0  0  0  0  0  0  0  0  0  0  0  0
    6.3208  -17.9716   18.2052 O   0  0  0  0  0  0  0  0  0  0  0  0
    7.4045  -14.0670   23.5627 N   0  0  0  0  0  0  0  0  0  0  0  0
    8.2000  -13.9277   24.7789 C   0  0  1  0  0  0  0  0  0  0  0  0
    7.4743  -13.0616   25.7806 C   0  0  0  0  0  0  0  0  0  0  0  0
    5.7601  -13.5470   25.9602 S   0  0  0  0  0  0  0  0  0  0  0  0
    8.3140  -15.2947   25.3404 C   0  0  0  0  0  0  0  0  0  0  0  0
    7.6922  -16.2539   24.8037 O   0  0  0  0  0  0  0  0  0  0  0  0
   11.3294  -19.0176   24.4086 N   0  0  0  0  0  0  0  0  0  0  0  0
   11.7239  -17.9094   25.2252 C   0  0  0  0  0  0  0  0  0  0  0  0
   12.8377  -17.9703   25.8087 O   0  0  0  0  0  0  0  0  0  0  0  0
   10.8113  -16.7731   25.3336 C   0  0  0  0  0  0  0  0  0  0  0  0
    9.8182  -16.8772   26.4721 C   0  0  2  0  0  0  0  0  0  0  0  0
    9.0962  -15.6233   26.4725 N   0  0  0  0  0  0  0  0  0  0  0  0
   10.5837  -17.0733   27.7285 C   0  0  0  0  0  0  0  0  0  0  0  0
   11.1783  -18.3269   27.9323 O   0  0  0  0  0  0  0  0  0  0  0  0
   10.7376  -16.2143   28.6115 O   0  0  0  0  0  0  0  0  0  0  0  0
  2  1  1  6
  2  7  1  0
  3  2  1  0
  3  4  1  0
  5  4  1  0
  5  9  1  0
  6  5  2  0
  7  8  2  0
 10 11  1  0
 10  7  1  0
 11 14  1  0
 11 12  1  1
 13 12  1  0
 14 21  1  0
 15 14  2  0
 17 16  1  0
 18 17  2  0
 19 17  1  0
 20 19  1  6
 21 20  1  0
 22 23  1  0
 22 20  1  0
 24 22  2  0
M  END
$$$$
