PDP.pdb
     RDKit          3D

 23 24  0  0  1  0  0  0  0  0999 V2000
   22.1033  -11.8285  -17.8178 N   0  0  0  0  0  0  0  0  0  0  0  0
   21.1494  -12.8335  -17.4598 C   0  0  0  0  0  0  0  0  0  0  0  0
   20.0276  -12.7632  -18.4728 C   0  0  0  0  0  0  0  0  0  0  0  0
   20.6431  -11.9618  -19.5904 C   0  0  0  0  0  0  0  0  0  0  0  0
   21.5154  -10.9729  -18.8295 C   0  0  1  0  0  0  0  0  0  0  0  0
   20.7039   -9.9153  -18.1700 C   0  0  0  0  0  0  0  0  0  0  0  0
   19.9059   -9.2152  -18.8538 O   0  0  0  0  0  0  0  0  0  0  0  0
   20.7760   -9.6424  -16.7874 N   0  0  0  0  0  0  0  0  0  0  0  0
   20.0470   -8.5237  -16.1474 C   0  0  1  0  0  0  0  0  0  0  0  0
   19.5606   -9.1765  -14.8448 C   0  0  0  0  0  0  0  0  0  0  0  0
   18.3706   -9.9881  -14.9630 C   0  0  0  0  0  0  0  0  0  0  0  0
   17.2976   -9.4323  -15.3138 O   0  0  0  0  0  0  0  0  0  0  0  0
   20.9926   -7.4302  -15.9355 C   0  0  0  0  0  0  0  0  0  0  0  0
   22.1942   -7.7585  -15.6190 O   0  0  0  0  0  0  0  0  0  0  0  0
   18.3702  -11.3402  -14.7062 O   0  0  0  0  0  0  0  0  0  0  0  0
   20.7339   -6.0581  -16.0439 N   0  0  0  0  0  0  0  0  0  0  0  0
   19.5178   -5.4292  -16.5153 C   0  0  0  0  0  0  0  0  0  0  0  0
   20.0504   -4.1468  -17.2125 C   0  0  0  0  0  0  0  0  0  0  0  0
   21.0318   -3.6936  -16.1500 C   0  0  0  0  0  0  0  0  0  0  0  0
   21.6498   -4.9915  -15.7136 C   0  0  1  0  0  0  0  0  0  0  0  0
   22.0213   -4.9914  -14.2825 C   0  0  0  0  0  0  0  0  0  0  0  0
   21.3047   -5.6666  -13.5008 O   0  0  0  0  0  0  0  0  0  0  0  0
   23.0921   -4.3061  -13.7489 O   0  0  0  0  0  0  0  0  0  0  0  0
  1  2  1  0
  3  2  1  0
  4  5  1  0
  4  3  1  0
  5  1  1  0
  6  7  2  0
  5  6  1  1
  8  6  1  0
  9  8  1  0
  9 10  1  1
 11 15  1  0
 11 10  1  0
 12 11  2  0
 13  9  1  0
 14 13  2  0
 16 13  1  0
 16 17  1  0
 18 17  1  0
 19 18  1  0
 20 19  1  0
 20 16  1  0
 20 21  1  1
 22 21  2  0
 23 21  1  0
M  END
$$$$
