PDP.pdb
     RDKit          3D

 23 24  0  0  1  0  0  0  0  0999 V2000
   29.6434  -25.3476  -17.9010 N   0  0  0  0  0  0  0  0  0  0  0  0
   28.7255  -24.2558  -18.0177 C   0  0  0  0  0  0  0  0  0  0  0  0
   27.7653  -24.3555  -16.8525 C   0  0  0  0  0  0  0  0  0  0  0  0
   28.4782  -25.2982  -15.9181 C   0  0  0  0  0  0  0  0  0  0  0  0
   29.1500  -26.2599  -16.8884 C   0  0  1  0  0  0  0  0  0  0  0  0
   28.1717  -27.1964  -17.5030 C   0  0  0  0  0  0  0  0  0  0  0  0
   27.8034  -27.0275  -18.6989 O   0  0  0  0  0  0  0  0  0  0  0  0
   27.6171  -28.2922  -16.8082 N   0  0  0  0  0  0  0  0  0  0  0  0
   26.7984  -29.3346  -17.4683 C   0  0  1  0  0  0  0  0  0  0  0  0
   27.2531  -30.6007  -16.7269 C   0  0  0  0  0  0  0  0  0  0  0  0
   28.2714  -31.3797  -17.3941 C   0  0  0  0  0  0  0  0  0  0  0  0
   29.4083  -31.4632  -16.8615 O   0  0  0  0  0  0  0  0  0  0  0  0
   25.3906  -29.0063  -17.2553 C   0  0  0  0  0  0  0  0  0  0  0  0
   25.0851  -28.4796  -16.1235 O   0  0  0  0  0  0  0  0  0  0  0  0
   28.0419  -32.0294  -18.5855 O   0  0  0  0  0  0  0  0  0  0  0  0
   24.3339  -29.1993  -18.1537 N   0  0  0  0  0  0  0  0  0  0  0  0
   24.4137  -29.7158  -19.5042 C   0  0  0  0  0  0  0  0  0  0  0  0
   23.2826  -28.9363  -20.2302 C   0  0  0  0  0  0  0  0  0  0  0  0
   22.1889  -29.0908  -19.1921 C   0  0  0  0  0  0  0  0  0  0  0  0
   22.9423  -28.9029  -17.9060 C   0  0  1  0  0  0  0  0  0  0  0  0
   22.3842  -29.7066  -16.7976 C   0  0  0  0  0  0  0  0  0  0  0  0
   22.9633  -30.7875  -16.5207 O   0  0  0  0  0  0  0  0  0  0  0  0
   21.2794  -29.3552  -16.0514 O   0  0  0  0  0  0  0  0  0  0  0  0
  1  2  1  0
  3  2  1  0
  4  5  1  0
  4  3  1  0
  5  1  1  0
  6  7  2  0
  5  6  1  6
  8  6  1  0
  9  8  1  0
  9 10  1  1
 11 15  1  0
 11 10  1  0
 12 11  2  0
 13  9  1  0
 14 13  2  0
 16 13  1  0
 16 17  1  0
 18 17  1  0
 19 18  1  0
 20 19  1  0
 20 16  1  0
 20 21  1  1
 22 21  2  0
 23 21  1  0
M  END
$$$$
