PDP.pdb
     RDKit          3D

 23 24  0  0  1  0  0  0  0  0999 V2000
   43.1889  -17.6781  -10.9201 N   0  0  0  0  0  0  0  0  0  0  0  0
   44.3911  -17.9560  -10.1951 C   0  0  0  0  0  0  0  0  0  0  0  0
   44.2446  -17.3195   -8.8301 C   0  0  0  0  0  0  0  0  0  0  0  0
   42.7632  -17.0583   -8.7460 C   0  0  0  0  0  0  0  0  0  0  0  0
   42.4228  -16.6921  -10.1840 C   0  0  1  0  0  0  0  0  0  0  0  0
   42.9054  -15.3299  -10.5352 C   0  0  0  0  0  0  0  0  0  0  0  0
   44.0886  -15.1669  -10.9451 O   0  0  0  0  0  0  0  0  0  0  0  0
   42.0956  -14.1787  -10.4347 N   0  0  0  0  0  0  0  0  0  0  0  0
   42.5285  -12.8445  -10.9090 C   0  0  1  0  0  0  0  0  0  0  0  0
   41.3979  -12.4807  -11.8831 C   0  0  0  0  0  0  0  0  0  0  0  0
   41.4830  -13.0918  -13.1901 C   0  0  0  0  0  0  0  0  0  0  0  0
   40.4150  -13.3379  -13.8083 O   0  0  0  0  0  0  0  0  0  0  0  0
   42.6102  -11.9574   -9.7509 C   0  0  0  0  0  0  0  0  0  0  0  0
   41.8055  -12.2007   -8.7788 O   0  0  0  0  0  0  0  0  0  0  0  0
   42.6851  -13.4123  -13.7786 O   0  0  0  0  0  0  0  0  0  0  0  0
   43.4752  -10.8692   -9.5809 N   0  0  0  0  0  0  0  0  0  0  0  0
   44.4875  -10.4006  -10.5042 C   0  0  0  0  0  0  0  0  0  0  0  0
   45.5926   -9.8683   -9.5504 C   0  0  0  0  0  0  0  0  0  0  0  0
   44.7165   -9.0897   -8.5892 C   0  0  0  0  0  0  0  0  0  0  0  0
   43.5330  -10.0009   -8.4283 C   0  0  1  0  0  0  0  0  0  0  0  0
   42.2704   -9.2610   -8.2171 C   0  0  0  0  0  0  0  0  0  0  0  0
   41.6058   -8.9515   -9.2383 O   0  0  0  0  0  0  0  0  0  0  0  0
   41.7747   -8.8889   -6.9856 O   0  0  0  0  0  0  0  0  0  0  0  0
  1  2  1  0
  3  2  1  0
  4  5  1  0
  4  3  1  0
  5  1  1  0
  6  7  2  0
  5  6  1  6
  8  6  1  0
  9  8  1  0
  9 10  1  6
 11 15  1  0
 11 10  1  0
 12 11  2  0
 13  9  1  0
 14 13  2  0
 16 13  1  0
 16 17  1  0
 18 17  1  0
 19 18  1  0
 20 19  1  0
 20 16  1  0
 20 21  1  6
 22 21  2  0
 23 21  1  0
M  END
$$$$
