PDP.pdb
     RDKit          3D

 23 24  0  0  1  0  0  0  0  0999 V2000
   21.7636  -18.5842  -15.9840 N   0  0  0  0  0  0  0  0  0  0  0  0
   22.3362  -18.2541  -17.2533 C   0  0  0  0  0  0  0  0  0  0  0  0
   22.3535  -19.5232  -18.0771 C   0  0  0  0  0  0  0  0  0  0  0  0
   21.3977  -20.4149  -17.3280 C   0  0  0  0  0  0  0  0  0  0  0  0
   21.6687  -20.0269  -15.8810 C   0  0  1  0  0  0  0  0  0  0  0  0
   22.9644  -20.5731  -15.3969 C   0  0  0  0  0  0  0  0  0  0  0  0
   23.1343  -21.8223  -15.3250 O   0  0  0  0  0  0  0  0  0  0  0  0
   24.0439  -19.7539  -15.0033 N   0  0  0  0  0  0  0  0  0  0  0  0
   25.2199  -20.2690  -14.2655 C   0  0  1  0  0  0  0  0  0  0  0  0
   26.3389  -19.3582  -14.7924 C   0  0  0  0  0  0  0  0  0  0  0  0
   26.8486  -19.6941  -16.1024 C   0  0  0  0  0  0  0  0  0  0  0  0
   27.4187  -20.8051  -16.2578 O   0  0  0  0  0  0  0  0  0  0  0  0
   24.9618  -20.1109  -12.8361 C   0  0  0  0  0  0  0  0  0  0  0  0
   24.2007  -19.1345  -12.4909 O   0  0  0  0  0  0  0  0  0  0  0  0
   26.7331  -18.8455  -17.1797 O   0  0  0  0  0  0  0  0  0  0  0  0
   25.4509  -20.9118  -11.7966 N   0  0  0  0  0  0  0  0  0  0  0  0
   26.2307  -22.1260  -11.9172 C   0  0  0  0  0  0  0  0  0  0  0  0
   25.7462  -22.9596  -10.6987 C   0  0  0  0  0  0  0  0  0  0  0  0
   25.7913  -21.8749   -9.6408 C   0  0  0  0  0  0  0  0  0  0  0  0
   25.2568  -20.6836  -10.3839 C   0  0  1  0  0  0  0  0  0  0  0  0
   25.8614  -19.4128   -9.9306 C   0  0  0  0  0  0  0  0  0  0  0  0
   26.7356  -18.8941  -10.6704 O   0  0  0  0  0  0  0  0  0  0  0  0
   25.5353  -18.7613   -8.7601 O   0  0  0  0  0  0  0  0  0  0  0  0
  1  2  1  0
  3  2  1  0
  4  5  1  0
  4  3  1  0
  5  1  1  0
  6  7  2  0
  5  6  1  6
  8  6  1  0
  9  8  1  0
  9 10  1  6
 11 15  1  0
 11 10  1  0
 12 11  2  0
 13  9  1  0
 14 13  2  0
 16 13  1  0
 16 17  1  0
 18 17  1  0
 19 18  1  0
 20 19  1  0
 20 16  1  0
 20 21  1  1
 22 21  2  0
 23 21  1  0
M  END
$$$$
