PDP.pdb
     RDKit          3D

 23 24  0  0  1  0  0  0  0  0999 V2000
   22.0877  -12.6976  -15.0653 N   0  0  0  0  0  0  0  0  0  0  0  0
   22.3533  -13.3477  -16.3122 C   0  0  0  0  0  0  0  0  0  0  0  0
   23.8335  -13.1957  -16.5868 C   0  0  0  0  0  0  0  0  0  0  0  0
   24.3793  -12.7998  -15.2394 C   0  0  0  0  0  0  0  0  0  0  0  0
   23.2582  -11.9318  -14.6849 C   0  0  1  0  0  0  0  0  0  0  0  0
   23.2128  -10.6005  -15.3463 C   0  0  0  0  0  0  0  0  0  0  0  0
   24.2615   -9.9021  -15.4293 O   0  0  0  0  0  0  0  0  0  0  0  0
   22.0341  -10.0589  -15.9016 N   0  0  0  0  0  0  0  0  0  0  0  0
   21.9700   -8.7019  -16.4909 C   0  0  1  0  0  0  0  0  0  0  0  0
   21.1082   -8.9470  -17.7386 C   0  0  0  0  0  0  0  0  0  0  0  0
   21.7777   -9.6064  -18.8366 C   0  0  0  0  0  0  0  0  0  0  0  0
   21.2362  -10.6208  -19.3476 O   0  0  0  0  0  0  0  0  0  0  0  0
   21.3447   -7.8136  -15.5138 C   0  0  0  0  0  0  0  0  0  0  0  0
   20.4310   -8.3256  -14.7690 O   0  0  0  0  0  0  0  0  0  0  0  0
   22.9807   -9.1659  -19.3398 O   0  0  0  0  0  0  0  0  0  0  0  0
   21.6354   -6.4611  -15.2957 N   0  0  0  0  0  0  0  0  0  0  0  0
   22.6484   -5.6640  -15.9554 C   0  0  0  0  0  0  0  0  0  0  0  0
   23.0906   -4.6852  -14.8326 C   0  0  0  0  0  0  0  0  0  0  0  0
   21.7218   -4.2872  -14.3171 C   0  0  0  0  0  0  0  0  0  0  0  0
   20.9790   -5.5927  -14.3467 C   0  0  1  0  0  0  0  0  0  0  0  0
   19.5403   -5.4215  -14.6417 C   0  0  0  0  0  0  0  0  0  0  0  0
   19.1606   -5.6579  -15.8166 O   0  0  0  0  0  0  0  0  0  0  0  0
   18.5922   -5.0229  -13.7234 O   0  0  0  0  0  0  0  0  0  0  0  0
  1  2  1  0
  3  2  1  0
  4  5  1  0
  4  3  1  0
  5  1  1  0
  6  7  2  0
  5  6  1  6
  8  6  1  0
  9  8  1  0
  9 10  1  6
 11 15  1  0
 11 10  1  0
 12 11  2  0
 13  9  1  0
 14 13  2  0
 16 13  1  0
 16 17  1  0
 18 17  1  0
 19 18  1  0
 20 19  1  0
 20 16  1  0
 20 21  1  6
 22 21  2  0
 23 21  1  0
M  END
$$$$
