PDP.pdb
     RDKit          3D

 23 24  0  0  1  0  0  0  0  0999 V2000
   27.2306  -21.3574  -15.8851 N   0  0  0  0  0  0  0  0  0  0  0  0
   26.5131  -20.8797  -17.0275 C   0  0  0  0  0  0  0  0  0  0  0  0
   26.7699  -19.3916  -17.1238 C   0  0  0  0  0  0  0  0  0  0  0  0
   27.9680  -19.2058  -16.2295 C   0  0  0  0  0  0  0  0  0  0  0  0
   27.6990  -20.2166  -15.1233 C   0  0  1  0  0  0  0  0  0  0  0  0
   26.6201  -19.7584  -14.2079 C   0  0  0  0  0  0  0  0  0  0  0  0
   26.6240  -18.5729  -13.7731 O   0  0  0  0  0  0  0  0  0  0  0  0
   25.5641  -20.5942  -13.7867 N   0  0  0  0  0  0  0  0  0  0  0  0
   24.5345  -20.1640  -12.8134 C   0  0  1  0  0  0  0  0  0  0  0  0
   23.2389  -20.5487  -13.5433 C   0  0  0  0  0  0  0  0  0  0  0  0
   22.7947  -19.6161  -14.5541 C   0  0  0  0  0  0  0  0  0  0  0  0
   22.2443  -20.0711  -15.5902 O   0  0  0  0  0  0  0  0  0  0  0  0
   24.7480  -20.9047  -11.5721 C   0  0  0  0  0  0  0  0  0  0  0  0
   24.7648  -22.1868  -11.6598 O   0  0  0  0  0  0  0  0  0  0  0  0
   22.9522  -18.2551  -14.4236 O   0  0  0  0  0  0  0  0  0  0  0  0
   24.9415  -20.3692  -10.2926 N   0  0  0  0  0  0  0  0  0  0  0  0
   25.1330  -18.9768   -9.9440 C   0  0  0  0  0  0  0  0  0  0  0  0
   26.0944  -19.0638   -8.7264 C   0  0  0  0  0  0  0  0  0  0  0  0
   25.4010  -20.1726   -7.9600 C   0  0  0  0  0  0  0  0  0  0  0  0
   25.0011  -21.1165   -9.0582 C   0  0  1  0  0  0  0  0  0  0  0  0
   23.7361  -21.8243   -8.7670 C   0  0  0  0  0  0  0  0  0  0  0  0
   22.7430  -21.5503   -9.4875 O   0  0  0  0  0  0  0  0  0  0  0  0
   23.5710  -22.7579   -7.7660 O   0  0  0  0  0  0  0  0  0  0  0  0
  1  2  1  0
  3  2  1  0
  4  5  1  0
  4  3  1  0
  5  1  1  0
  6  7  2  0
  5  6  1  1
  8  6  1  0
  9  8  1  0
  9 10  1  6
 11 15  1  0
 11 10  1  0
 12 11  2  0
 13  9  1  0
 14 13  2  0
 16 13  1  0
 16 17  1  0
 18 17  1  0
 19 18  1  0
 20 19  1  0
 20 16  1  0
 20 21  1  1
 22 21  2  0
 23 21  1  0
M  END
$$$$
