PDP.pdb
     RDKit          3D

 23 24  0  0  1  0  0  0  0  0999 V2000
   18.4728  -13.8219  -19.0560 N   0  0  0  0  0  0  0  0  0  0  0  0
   19.1494  -15.0229  -19.4404 C   0  0  0  0  0  0  0  0  0  0  0  0
   19.3106  -15.8619  -18.1915 C   0  0  0  0  0  0  0  0  0  0  0  0
   18.3321  -15.2256  -17.2389 C   0  0  0  0  0  0  0  0  0  0  0  0
   18.4407  -13.7527  -17.6084 C   0  0  1  0  0  0  0  0  0  0  0  0
   19.7087  -13.1523  -17.1152 C   0  0  0  0  0  0  0  0  0  0  0  0
   20.2427  -13.5884  -16.0573 O   0  0  0  0  0  0  0  0  0  0  0  0
   20.3672  -12.0956  -17.7793 N   0  0  0  0  0  0  0  0  0  0  0  0
   21.5885  -11.4471  -17.2497 C   0  0  1  0  0  0  0  0  0  0  0  0
   22.2083  -10.8639  -18.5285 C   0  0  0  0  0  0  0  0  0  0  0  0
   22.9383  -11.8029  -19.3495 C   0  0  0  0  0  0  0  0  0  0  0  0
   22.6297  -11.9037  -20.5652 O   0  0  0  0  0  0  0  0  0  0  0  0
   21.1783  -10.4312  -16.2830 C   0  0  0  0  0  0  0  0  0  0  0  0
   20.0850   -9.8035  -16.5333 O   0  0  0  0  0  0  0  0  0  0  0  0
   23.9536  -12.5867  -18.8504 O   0  0  0  0  0  0  0  0  0  0  0  0
   21.8456  -10.0674  -15.1068 N   0  0  0  0  0  0  0  0  0  0  0  0
   23.0941  -10.6026  -14.6051 C   0  0  0  0  0  0  0  0  0  0  0  0
   22.8915  -10.5428  -13.0657 C   0  0  0  0  0  0  0  0  0  0  0  0
   22.3201   -9.1428  -12.9595 C   0  0  0  0  0  0  0  0  0  0  0  0
   21.4026   -9.0829  -14.1476 C   0  0  1  0  0  0  0  0  0  0  0  0
   21.3162   -7.7272  -14.7314 C   0  0  0  0  0  0  0  0  0  0  0  0
   21.8629   -7.5447  -15.8486 O   0  0  0  0  0  0  0  0  0  0  0  0
   20.6821   -6.6559  -14.1389 O   0  0  0  0  0  0  0  0  0  0  0  0
  1  2  1  0
  3  2  1  0
  4  5  1  0
  4  3  1  0
  5  1  1  0
  6  7  2  0
  5  6  1  1
  8  6  1  0
  9  8  1  0
  9 10  1  6
 11 15  1  0
 11 10  1  0
 12 11  2  0
 13  9  1  0
 14 13  2  0
 16 13  1  0
 16 17  1  0
 18 17  1  0
 19 18  1  0
 20 19  1  0
 20 16  1  0
 20 21  1  6
 22 21  2  0
 23 21  1  0
M  END
$$$$
