PDP.pdb
     RDKit          3D

 23 24  0  0  1  0  0  0  0  0999 V2000
   15.0483  -20.8751    1.7570 N   0  0  0  0  0  0  0  0  0  0  0  0
   15.7621  -22.0093    1.2548 C   0  0  0  0  0  0  0  0  0  0  0  0
   15.8381  -23.0202    2.3782 C   0  0  0  0  0  0  0  0  0  0  0  0
   14.7862  -22.5263    3.3372 C   0  0  0  0  0  0  0  0  0  0  0  0
   14.9087  -21.0157    3.1929 C   0  0  1  0  0  0  0  0  0  0  0  0
   16.1314  -20.4952    3.8605 C   0  0  0  0  0  0  0  0  0  0  0  0
   17.2307  -20.4808    3.2395 O   0  0  0  0  0  0  0  0  0  0  0  0
   16.1336  -20.0029    5.1830 N   0  0  0  0  0  0  0  0  0  0  0  0
   17.2800  -19.2715    5.7691 C   0  0  1  0  0  0  0  0  0  0  0  0
   16.5711  -18.2988    6.7234 C   0  0  0  0  0  0  0  0  0  0  0  0
   16.6505  -16.9024    6.3593 C   0  0  0  0  0  0  0  0  0  0  0  0
   17.4019  -16.5726    5.4054 O   0  0  0  0  0  0  0  0  0  0  0  0
   18.1341  -20.2412    6.4512 C   0  0  0  0  0  0  0  0  0  0  0  0
   17.5834  -21.3467    6.8066 O   0  0  0  0  0  0  0  0  0  0  0  0
   15.9369  -15.9261    7.0165 O   0  0  0  0  0  0  0  0  0  0  0  0
   19.4932  -20.0999    6.7578 N   0  0  0  0  0  0  0  0  0  0  0  0
   20.3596  -18.9919    6.4138 C   0  0  0  0  0  0  0  0  0  0  0  0
   21.7301  -19.6910    6.1964 C   0  0  0  0  0  0  0  0  0  0  0  0
   21.7330  -20.5852    7.4204 C   0  0  0  0  0  0  0  0  0  0  0  0
   20.3065  -21.0534    7.4755 C   0  0  1  0  0  0  0  0  0  0  0  0
   19.8321  -21.2692    8.8591 C   0  0  0  0  0  0  0  0  0  0  0  0
   19.0833  -20.3899    9.3557 O   0  0  0  0  0  0  0  0  0  0  0  0
   20.1522  -22.3610    9.6379 O   0  0  0  0  0  0  0  0  0  0  0  0
  1  2  1  0
  3  2  1  0
  4  5  1  0
  4  3  1  0
  5  1  1  0
  6  7  2  0
  5  6  1  1
  8  6  1  0
  9  8  1  0
  9 10  1  1
 11 15  1  0
 11 10  1  0
 12 11  2  0
 13  9  1  0
 14 13  2  0
 16 13  1  0
 16 17  1  0
 18 17  1  0
 19 18  1  0
 20 19  1  0
 20 16  1  0
 20 21  1  1
 22 21  2  0
 23 21  1  0
M  END
$$$$
