PDP.pdb
     RDKit          3D

 23 24  0  0  1  0  0  0  0  0999 V2000
   32.4302  -36.3343   -6.1784 N   0  0  0  0  0  0  0  0  0  0  0  0
   33.3798  -35.4260   -6.7452 C   0  0  0  0  0  0  0  0  0  0  0  0
   34.6891  -35.6398   -6.0175 C   0  0  0  0  0  0  0  0  0  0  0  0
   34.4767  -36.9694   -5.3415 C   0  0  0  0  0  0  0  0  0  0  0  0
   33.0003  -36.9076   -4.9752 C   0  0  1  0  0  0  0  0  0  0  0  0
   32.7542  -35.9929   -3.8287 C   0  0  0  0  0  0  0  0  0  0  0  0
   32.5615  -34.7621   -4.0347 O   0  0  0  0  0  0  0  0  0  0  0  0
   32.7224  -36.4331   -2.4884 N   0  0  0  0  0  0  0  0  0  0  0  0
   32.3260  -35.5581   -1.3616 C   0  0  1  0  0  0  0  0  0  0  0  0
   31.2079  -36.3835   -0.7074 C   0  0  0  0  0  0  0  0  0  0  0  0
   30.4740  -35.7140    0.3423 C   0  0  0  0  0  0  0  0  0  0  0  0
   29.9117  -34.6199    0.0777 O   0  0  0  0  0  0  0  0  0  0  0  0
   33.4930  -35.3704   -0.5026 C   0  0  0  0  0  0  0  0  0  0  0  0
   34.3070  -36.3605   -0.4093 O   0  0  0  0  0  0  0  0  0  0  0  0
   30.3698  -36.2286    1.6145 O   0  0  0  0  0  0  0  0  0  0  0  0
   33.8259  -34.2243    0.2301 N   0  0  0  0  0  0  0  0  0  0  0  0
   33.0781  -32.9869    0.3111 C   0  0  0  0  0  0  0  0  0  0  0  0
   34.2017  -31.9232    0.4532 C   0  0  0  0  0  0  0  0  0  0  0  0
   35.0503  -32.6179    1.4996 C   0  0  0  0  0  0  0  0  0  0  0  0
   35.0038  -34.0498    1.0472 C   0  0  1  0  0  0  0  0  0  0  0  0
   35.0528  -35.0042    2.1753 C   0  0  0  0  0  0  0  0  0  0  0  0
   34.0683  -35.7716    2.3245 O   0  0  0  0  0  0  0  0  0  0  0  0
   36.0967  -35.1102    3.0698 O   0  0  0  0  0  0  0  0  0  0  0  0
  1  2  1  0
  3  2  1  0
  4  5  1  0
  4  3  1  0
  5  1  1  0
  6  7  2  0
  5  6  1  1
  8  6  1  0
  9  8  1  0
  9 10  1  1
 11 15  1  0
 11 10  1  0
 12 11  2  0
 13  9  1  0
 14 13  2  0
 16 13  1  0
 16 17  1  0
 18 17  1  0
 19 18  1  0
 20 19  1  0
 20 16  1  0
 20 21  1  1
 22 21  2  0
 23 21  1  0
M  END
$$$$
