PDP.pdb
     RDKit          3D

 23 24  0  0  1  0  0  0  0  0999 V2000
   23.2834  -10.8126  -18.8019 N   0  0  0  0  0  0  0  0  0  0  0  0
   22.6537  -12.0520  -18.4622 C   0  0  0  0  0  0  0  0  0  0  0  0
   21.3970  -12.1564  -19.2987 C   0  0  0  0  0  0  0  0  0  0  0  0
   21.6257  -11.1191  -20.3671 C   0  0  0  0  0  0  0  0  0  0  0  0
   22.3611  -10.0291  -19.5998 C   0  0  1  0  0  0  0  0  0  0  0  0
   21.4476   -9.2757  -18.7000 C   0  0  0  0  0  0  0  0  0  0  0  0
   20.1975   -9.4140  -18.8120 O   0  0  0  0  0  0  0  0  0  0  0  0
   21.9097   -8.3922  -17.7015 N   0  0  0  0  0  0  0  0  0  0  0  0
   21.0007   -7.5926  -16.8489 C   0  0  1  0  0  0  0  0  0  0  0  0
   21.1659   -8.2839  -15.4872 C   0  0  0  0  0  0  0  0  0  0  0  0
   20.3562   -7.7488  -14.4163 C   0  0  0  0  0  0  0  0  0  0  0  0
   20.9110   -7.4869  -13.3177 O   0  0  0  0  0  0  0  0  0  0  0  0
   21.4689   -6.2085  -16.8625 C   0  0  0  0  0  0  0  0  0  0  0  0
   22.7314   -6.0241  -16.7081 O   0  0  0  0  0  0  0  0  0  0  0  0
   19.0067   -7.5175  -14.5556 O   0  0  0  0  0  0  0  0  0  0  0  0
   20.6909   -5.0562  -17.0299 N   0  0  0  0  0  0  0  0  0  0  0  0
   19.2552   -4.9848  -17.2051 C   0  0  0  0  0  0  0  0  0  0  0  0
   19.0915   -3.7592  -18.1461 C   0  0  0  0  0  0  0  0  0  0  0  0
   20.0357   -2.8007  -17.4478 C   0  0  0  0  0  0  0  0  0  0  0  0
   21.1809   -3.6984  -17.0739 C   0  0  1  0  0  0  0  0  0  0  0  0
   21.8312   -3.2934  -15.8094 C   0  0  0  0  0  0  0  0  0  0  0  0
   21.6581   -4.0346  -14.8088 O   0  0  0  0  0  0  0  0  0  0  0  0
   22.6093   -2.1661  -15.6522 O   0  0  0  0  0  0  0  0  0  0  0  0
  1  2  1  0
  3  2  1  0
  4  5  1  0
  4  3  1  0
  5  1  1  0
  6  7  2  0
  5  6  1  1
  8  6  1  0
  9  8  1  0
  9 10  1  1
 11 15  1  0
 11 10  1  0
 12 11  2  0
 13  9  1  0
 14 13  2  0
 16 13  1  0
 16 17  1  0
 18 17  1  0
 19 18  1  0
 20 19  1  0
 20 16  1  0
 20 21  1  1
 22 21  2  0
 23 21  1  0
M  END
$$$$
