PDP.pdb
     RDKit          3D

 23 24  0  0  1  0  0  0  0  0999 V2000
   26.9260  -21.0614  -13.5118 N   0  0  0  0  0  0  0  0  0  0  0  0
   27.2506  -19.8349  -14.1739 C   0  0  0  0  0  0  0  0  0  0  0  0
   28.5616  -19.3500  -13.5944 C   0  0  0  0  0  0  0  0  0  0  0  0
   29.0926  -20.5807  -12.9065 C   0  0  0  0  0  0  0  0  0  0  0  0
   27.8179  -21.2263  -12.3811 C   0  0  1  0  0  0  0  0  0  0  0  0
   27.2701  -20.4920  -11.2096 C   0  0  0  0  0  0  0  0  0  0  0  0
   27.3410  -19.2320  -11.1663 O   0  0  0  0  0  0  0  0  0  0  0  0
   26.6588  -21.1395  -10.1150 N   0  0  0  0  0  0  0  0  0  0  0  0
   26.1659  -20.4141   -8.9218 C   0  0  1  0  0  0  0  0  0  0  0  0
   24.7626  -21.0151   -8.7522 C   0  0  0  0  0  0  0  0  0  0  0  0
   23.7557  -20.5074   -9.6562 C   0  0  0  0  0  0  0  0  0  0  0  0
   23.4870  -19.2785   -9.6263 O   0  0  0  0  0  0  0  0  0  0  0  0
   27.0664  -20.7088   -7.8095 C   0  0  0  0  0  0  0  0  0  0  0  0
   27.4671  -21.9247   -7.6970 O   0  0  0  0  0  0  0  0  0  0  0  0
   23.0838  -21.3171  -10.5434 O   0  0  0  0  0  0  0  0  0  0  0  0
   27.5462  -19.8077   -6.8508 N   0  0  0  0  0  0  0  0  0  0  0  0
   27.3448  -18.3741   -6.8159 C   0  0  0  0  0  0  0  0  0  0  0  0
   28.6720  -17.8629   -6.1903 C   0  0  0  0  0  0  0  0  0  0  0  0
   28.7921  -18.8569   -5.0522 C   0  0  0  0  0  0  0  0  0  0  0  0
   28.3575  -20.1394   -5.7030 C   0  0  1  0  0  0  0  0  0  0  0  0
   27.6616  -21.0457   -4.7647 C   0  0  0  0  0  0  0  0  0  0  0  0
   26.4558  -21.3084   -5.0043 O   0  0  0  0  0  0  0  0  0  0  0  0
   28.2396  -21.6187   -3.6519 O   0  0  0  0  0  0  0  0  0  0  0  0
  1  2  1  0
  3  2  1  0
  4  5  1  0
  4  3  1  0
  5  1  1  0
  6  7  2  0
  5  6  1  1
  8  6  1  0
  9  8  1  0
  9 10  1  1
 11 15  1  0
 11 10  1  0
 12 11  2  0
 13  9  1  0
 14 13  2  0
 16 13  1  0
 16 17  1  0
 18 17  1  0
 19 18  1  0
 20 19  1  0
 20 16  1  0
 20 21  1  1
 22 21  2  0
 23 21  1  0
M  END
$$$$
