PDP.pdb
     RDKit          3D

 23 24  0  0  1  0  0  0  0  0999 V2000
   13.1813  -17.6066    3.2192 N   0  0  0  0  0  0  0  0  0  0  0  0
   13.5469  -17.8728    1.8614 C   0  0  0  0  0  0  0  0  0  0  0  0
   14.2240  -19.2258    1.8402 C   0  0  0  0  0  0  0  0  0  0  0  0
   13.8249  -19.8145    3.1684 C   0  0  0  0  0  0  0  0  0  0  0  0
   13.8218  -18.5888    4.0713 C   0  0  1  0  0  0  0  0  0  0  0  0
   15.2017  -18.1373    4.3933 C   0  0  0  0  0  0  0  0  0  0  0  0
   15.6071  -17.0121    3.9884 O   0  0  0  0  0  0  0  0  0  0  0  0
   16.1079  -18.9144    5.1457 N   0  0  0  0  0  0  0  0  0  0  0  0
   17.1291  -18.3223    6.0396 C   0  0  1  0  0  0  0  0  0  0  0  0
   16.2533  -17.5907    7.0678 C   0  0  0  0  0  0  0  0  0  0  0  0
   16.9432  -16.6347    7.9037 C   0  0  0  0  0  0  0  0  0  0  0  0
   17.9913  -16.0969    7.4613 O   0  0  0  0  0  0  0  0  0  0  0  0
   17.9158  -19.4123    6.6121 C   0  0  0  0  0  0  0  0  0  0  0  0
   17.2636  -20.4374    7.0312 O   0  0  0  0  0  0  0  0  0  0  0  0
   16.4964  -16.2943    9.1602 O   0  0  0  0  0  0  0  0  0  0  0  0
   19.3083  -19.4653    6.7512 N   0  0  0  0  0  0  0  0  0  0  0  0
   20.2752  -18.4997    6.2720 C   0  0  0  0  0  0  0  0  0  0  0  0
   21.4956  -19.3934    5.9165 C   0  0  0  0  0  0  0  0  0  0  0  0
   21.5200  -20.2606    7.1595 C   0  0  0  0  0  0  0  0  0  0  0  0
   20.0588  -20.5161    7.3978 C   0  0  1  0  0  0  0  0  0  0  0  0
   19.7303  -20.6408    8.8340 C   0  0  0  0  0  0  0  0  0  0  0  0
   19.3407  -19.6038    9.4284 O   0  0  0  0  0  0  0  0  0  0  0  0
   19.8214  -21.8080    9.5621 O   0  0  0  0  0  0  0  0  0  0  0  0
  1  2  1  0
  3  2  1  0
  4  5  1  0
  4  3  1  0
  5  1  1  0
  6  7  2  0
  5  6  1  6
  8  6  1  0
  9  8  1  0
  9 10  1  1
 11 15  1  0
 11 10  1  0
 12 11  2  0
 13  9  1  0
 14 13  2  0
 16 13  1  0
 16 17  1  0
 18 17  1  0
 19 18  1  0
 20 19  1  0
 20 16  1  0
 20 21  1  1
 22 21  2  0
 23 21  1  0
M  END
$$$$
