PDP.pdb
     RDKit          3D

 23 24  0  0  1  0  0  0  0  0999 V2000
   26.7799  -19.8417  -16.1809 N   0  0  0  0  0  0  0  0  0  0  0  0
   27.9950  -19.0975  -16.0471 C   0  0  0  0  0  0  0  0  0  0  0  0
   28.8708  -19.8483  -15.0678 C   0  0  0  0  0  0  0  0  0  0  0  0
   28.2231  -21.2078  -15.0221 C   0  0  0  0  0  0  0  0  0  0  0  0
   26.7464  -20.8609  -15.1507 C   0  0  1  0  0  0  0  0  0  0  0  0
   26.2060  -20.2752  -13.8950 C   0  0  0  0  0  0  0  0  0  0  0  0
   26.3203  -19.0367  -13.6772 O   0  0  0  0  0  0  0  0  0  0  0  0
   25.5551  -21.0444  -12.9070 N   0  0  0  0  0  0  0  0  0  0  0  0
   24.7684  -20.4434  -11.8059 C   0  0  1  0  0  0  0  0  0  0  0  0
   23.3417  -20.8803  -12.1707 C   0  0  0  0  0  0  0  0  0  0  0  0
   22.6985  -20.1017  -13.2045 C   0  0  0  0  0  0  0  0  0  0  0  0
   22.4461  -20.6572  -14.3049 O   0  0  0  0  0  0  0  0  0  0  0  0
   25.2486  -21.0079  -10.5466 C   0  0  0  0  0  0  0  0  0  0  0  0
   25.3921  -22.2843  -10.5031 O   0  0  0  0  0  0  0  0  0  0  0  0
   22.3548  -18.7807  -13.0281 O   0  0  0  0  0  0  0  0  0  0  0  0
   25.5750  -20.3081   -9.3783 N   0  0  0  0  0  0  0  0  0  0  0  0
   25.6703  -18.8727   -9.2131 C   0  0  0  0  0  0  0  0  0  0  0  0
   26.8075  -18.7293   -8.1640 C   0  0  0  0  0  0  0  0  0  0  0  0
   26.3566  -19.7940   -7.1838 C   0  0  0  0  0  0  0  0  0  0  0  0
   25.8971  -20.8939   -8.0982 C   0  0  1  0  0  0  0  0  0  0  0  0
   24.7711  -21.6687   -7.5344 C   0  0  0  0  0  0  0  0  0  0  0  0
   23.6441  -21.5221   -8.0717 O   0  0  0  0  0  0  0  0  0  0  0  0
   24.8706  -22.5351   -6.4665 O   0  0  0  0  0  0  0  0  0  0  0  0
  1  2  1  0
  3  2  1  0
  4  5  1  0
  4  3  1  0
  5  1  1  0
  6  7  2  0
  5  6  1  1
  8  6  1  0
  9  8  1  0
  9 10  1  6
 11 15  1  0
 11 10  1  0
 12 11  2  0
 13  9  1  0
 14 13  2  0
 16 13  1  0
 16 17  1  0
 18 17  1  0
 19 18  1  0
 20 19  1  0
 20 16  1  0
 20 21  1  1
 22 21  2  0
 23 21  1  0
M  END
$$$$
