PDP.pdb
     RDKit          3D

 23 24  0  0  1  0  0  0  0  0999 V2000
   27.3293  -10.4602  -16.3138 N   0  0  0  0  0  0  0  0  0  0  0  0
   27.2088  -11.5102  -15.3490 C   0  0  0  0  0  0  0  0  0  0  0  0
   26.6756  -12.7247  -16.0775 C   0  0  0  0  0  0  0  0  0  0  0  0
   26.9152  -12.3730  -17.5228 C   0  0  0  0  0  0  0  0  0  0  0  0
   26.6594  -10.8723  -17.5315 C   0  0  1  0  0  0  0  0  0  0  0  0
   25.2093  -10.5593  -17.4267 C   0  0  0  0  0  0  0  0  0  0  0  0
   24.4207  -10.9104  -18.3482 O   0  0  0  0  0  0  0  0  0  0  0  0
   24.6491   -9.8748  -16.3272 N   0  0  0  0  0  0  0  0  0  0  0  0
   23.2179   -9.5019  -16.2538 C   0  0  1  0  0  0  0  0  0  0  0  0
   22.7910  -10.1709  -14.9386 C   0  0  0  0  0  0  0  0  0  0  0  0
   21.3873  -10.0614  -14.6127 C   0  0  0  0  0  0  0  0  0  0  0  0
   21.0643   -9.5177  -13.5248 O   0  0  0  0  0  0  0  0  0  0  0  0
   23.1316   -8.0437  -16.2227 C   0  0  0  0  0  0  0  0  0  0  0  0
   23.9789   -7.4305  -15.4759 O   0  0  0  0  0  0  0  0  0  0  0  0
   20.3969  -10.5290  -15.4462 O   0  0  0  0  0  0  0  0  0  0  0  0
   22.2262   -7.2369  -16.9232 N   0  0  0  0  0  0  0  0  0  0  0  0
   21.1983   -7.6695  -17.8469 C   0  0  0  0  0  0  0  0  0  0  0  0
   21.1566   -6.5044  -18.8740 C   0  0  0  0  0  0  0  0  0  0  0  0
   21.1667   -5.3385  -17.9053 C   0  0  0  0  0  0  0  0  0  0  0  0
   22.1523   -5.7957  -16.8677 C   0  0  1  0  0  0  0  0  0  0  0  0
   21.8232   -5.3007  -15.5139 C   0  0  0  0  0  0  0  0  0  0  0  0
   21.2834   -6.1113  -14.7190 O   0  0  0  0  0  0  0  0  0  0  0  0
   22.0654   -4.0195  -15.0657 O   0  0  0  0  0  0  0  0  0  0  0  0
  1  2  1  0
  3  2  1  0
  4  5  1  0
  4  3  1  0
  5  1  1  0
  6  7  2  0
  5  6  1  1
  8  6  1  0
  9  8  1  0
  9 10  1  1
 11 15  1  0
 11 10  1  0
 12 11  2  0
 13  9  1  0
 14 13  2  0
 16 13  1  0
 16 17  1  0
 18 17  1  0
 19 18  1  0
 20 19  1  0
 20 16  1  0
 20 21  1  1
 22 21  2  0
 23 21  1  0
M  END
$$$$
