AFD.pdb
     RDKit          3D

 25 25  0  0  1  0  0  0  0  0999 V2000
   21.0063  -14.8447  -19.8956 C   0  0  0  0  0  0  0  0  0  0  0  0
   22.3894  -14.8861  -19.2854 C   0  0  2  0  0  0  0  0  0  0  0  0
   22.7843  -16.2768  -19.1608 N   0  0  0  0  0  0  0  0  0  0  0  0
   22.4295  -14.2238  -17.9522 C   0  0  0  0  0  0  0  0  0  0  0  0
   21.8095  -14.6732  -16.9570 O   0  0  0  0  0  0  0  0  0  0  0  0
   23.1856  -13.0488  -17.7820 N   0  0  0  0  0  0  0  0  0  0  0  0
   23.2586  -12.3098  -16.5319 C   0  0  1  0  0  0  0  0  0  0  0  0
   24.7308  -12.1117  -16.1883 C   0  0  0  0  0  0  0  0  0  0  0  0
   25.3877  -13.3995  -15.8421 C   0  0  0  0  0  0  0  0  0  0  0  0
   25.1648  -14.0217  -14.6241 C   0  0  0  0  0  0  0  0  0  0  0  0
   25.7577  -15.2156  -14.2716 C   0  0  0  0  0  0  0  0  0  0  0  0
   26.6154  -15.8249  -15.1710 C   0  0  0  0  0  0  0  0  0  0  0  0
   26.8628  -15.2406  -16.3891 C   0  0  0  0  0  0  0  0  0  0  0  0
   26.2533  -14.0411  -16.7163 C   0  0  0  0  0  0  0  0  0  0  0  0
   22.6077  -10.9988  -16.6140 C   0  0  0  0  0  0  0  0  0  0  0  0
   22.8172  -10.2678  -17.6055 O   0  0  0  0  0  0  0  0  0  0  0  0
   21.7482  -10.5664  -15.5757 N   0  0  0  0  0  0  0  0  0  0  0  0
   21.0501   -9.3013  -15.5998 C   0  0  1  0  0  0  0  0  0  0  0  0
   19.6667   -9.4600  -14.9519 C   0  0  0  0  0  0  0  0  0  0  0  0
   18.9840   -8.1500  -14.9023 C   0  0  0  0  0  0  0  0  0  0  0  0
   19.1194   -7.3402  -15.8489 O   0  0  0  0  0  0  0  0  0  0  0  0
   21.8457   -8.3007  -14.8453 C   0  0  0  0  0  0  0  0  0  0  0  0
   21.7411   -6.9426  -15.0283 O   0  0  0  0  0  0  0  0  0  0  0  0
   18.1751   -7.7364  -13.8456 O   0  0  0  0  0  0  0  0  0  0  0  0
   22.6638   -8.7447  -13.9865 O   0  0  0  0  0  0  0  0  0  0  0  0
  2  4  1  0
  2  1  1  1
  3  2  1  0
  4  5  2  0
  6  7  1  0
  6  4  1  0
  7  8  1  6
  8  9  1  0
  9 10  2  0
 10 11  1  0
 12 11  2  0
 13 12  1  0
 14 13  2  0
 14  9  1  0
 15 17  1  0
 15  7  1  0
 16 15  2  0
 18 17  1  0
 18 19  1  1
 19 20  1  0
 20 21  2  0
 20 24  1  0
 22 18  1  0
 22 23  1  0
 25 22  2  0
M  END
$$$$
