AFD.pdb
     RDKit          3D

 25 25  0  0  1  0  0  0  0  0999 V2000
   26.3807  -20.7060  -18.7514 C   0  0  0  0  0  0  0  0  0  0  0  0
   27.2986  -21.3511  -17.7372 C   0  0  2  0  0  0  0  0  0  0  0  0
   27.8603  -22.5474  -18.3362 N   0  0  0  0  0  0  0  0  0  0  0  0
   26.5809  -21.6999  -16.4798 C   0  0  0  0  0  0  0  0  0  0  0  0
   25.7352  -22.6262  -16.4207 O   0  0  0  0  0  0  0  0  0  0  0  0
   26.8473  -20.9748  -15.3032 N   0  0  0  0  0  0  0  0  0  0  0  0
   26.1317  -21.1734  -14.0531 C   0  0  1  0  0  0  0  0  0  0  0  0
   26.9616  -20.5556  -12.9332 C   0  0  0  0  0  0  0  0  0  0  0  0
   26.2787  -20.6766  -11.6183 C   0  0  0  0  0  0  0  0  0  0  0  0
   26.1078  -21.9057  -11.0015 C   0  0  0  0  0  0  0  0  0  0  0  0
   25.4794  -22.0531   -9.7831 C   0  0  0  0  0  0  0  0  0  0  0  0
   24.9951  -20.9257   -9.1424 C   0  0  0  0  0  0  0  0  0  0  0  0
   25.1445  -19.6888   -9.7204 C   0  0  0  0  0  0  0  0  0  0  0  0
   25.7800  -19.5708  -10.9450 C   0  0  0  0  0  0  0  0  0  0  0  0
   24.8035  -20.5529  -14.0600 C   0  0  0  0  0  0  0  0  0  0  0  0
   24.6806  -19.3642  -14.4248 O   0  0  0  0  0  0  0  0  0  0  0  0
   23.6697  -21.2977  -13.6556 N   0  0  0  0  0  0  0  0  0  0  0  0
   22.3334  -20.7489  -13.6171 C   0  0  1  0  0  0  0  0  0  0  0  0
   21.4560  -21.4458  -14.6675 C   0  0  0  0  0  0  0  0  0  0  0  0
   21.2420  -20.5440  -15.8188 C   0  0  0  0  0  0  0  0  0  0  0  0
   21.3125  -19.3030  -15.6602 O   0  0  0  0  0  0  0  0  0  0  0  0
   21.7647  -20.9675  -12.2634 C   0  0  0  0  0  0  0  0  0  0  0  0
   20.8113  -20.1585  -11.6929 O   0  0  0  0  0  0  0  0  0  0  0  0
   20.9581  -20.9873  -17.1091 O   0  0  0  0  0  0  0  0  0  0  0  0
   22.1965  -21.9637  -11.6116 O   0  0  0  0  0  0  0  0  0  0  0  0
  2  4  1  0
  2  1  1  6
  3  2  1  0
  4  5  2  0
  6  7  1  0
  6  4  1  0
  7  8  1  1
  8  9  1  0
  9 10  2  0
 10 11  1  0
 12 11  2  0
 13 12  1  0
 14 13  2  0
 14  9  1  0
 15 17  1  0
 15  7  1  0
 16 15  2  0
 18 17  1  0
 18 19  1  6
 19 20  1  0
 20 21  2  0
 20 24  1  0
 22 18  1  0
 22 23  1  0
 25 22  2  0
M  END
$$$$
