AFD.pdb
     RDKit          3D

 25 25  0  0  1  0  0  0  0  0999 V2000
   26.0448  -12.9174  -21.2370 C   0  0  0  0  0  0  0  0  0  0  0  0
   26.7727  -13.7659  -20.2185 C   0  0  2  0  0  0  0  0  0  0  0  0
   27.4847  -14.8108  -20.9304 N   0  0  0  0  0  0  0  0  0  0  0  0
   25.8389  -14.3697  -19.2280 C   0  0  0  0  0  0  0  0  0  0  0  0
   25.2098  -15.4325  -19.4550 O   0  0  0  0  0  0  0  0  0  0  0  0
   25.6411  -13.7395  -17.9851 N   0  0  0  0  0  0  0  0  0  0  0  0
   24.8567  -14.3145  -16.9041 C   0  0  1  0  0  0  0  0  0  0  0  0
   25.7197  -14.3173  -15.6472 C   0  0  0  0  0  0  0  0  0  0  0  0
   26.6267  -15.4945  -15.6114 C   0  0  0  0  0  0  0  0  0  0  0  0
   26.4029  -16.5551  -14.7481 C   0  0  0  0  0  0  0  0  0  0  0  0
   27.2240  -17.6613  -14.6895 C   0  0  0  0  0  0  0  0  0  0  0  0
   28.3232  -17.7204  -15.5286 C   0  0  0  0  0  0  0  0  0  0  0  0
   28.5800  -16.6897  -16.3991 C   0  0  0  0  0  0  0  0  0  0  0  0
   27.7381  -15.5909  -16.4363 C   0  0  0  0  0  0  0  0  0  0  0  0
   23.6281  -13.5605  -16.6372 C   0  0  0  0  0  0  0  0  0  0  0  0
   23.5959  -12.3330  -16.8687 O   0  0  0  0  0  0  0  0  0  0  0  0
   22.4877  -14.2210  -16.1207 N   0  0  0  0  0  0  0  0  0  0  0  0
   21.1802  -13.6091  -16.0527 C   0  0  1  0  0  0  0  0  0  0  0  0
   20.7156  -13.2202  -17.4640 C   0  0  0  0  0  0  0  0  0  0  0  0
   19.3506  -12.6567  -17.4039 C   0  0  0  0  0  0  0  0  0  0  0  0
   18.3701  -13.3607  -17.7402 O   0  0  0  0  0  0  0  0  0  0  0  0
   20.2268  -14.5806  -15.4605 C   0  0  0  0  0  0  0  0  0  0  0  0
   20.2063  -15.9197  -15.7693 O   0  0  0  0  0  0  0  0  0  0  0  0
   19.0652  -11.3577  -16.9875 O   0  0  0  0  0  0  0  0  0  0  0  0
   19.3906  -14.1293  -14.6233 O   0  0  0  0  0  0  0  0  0  0  0  0
  2  4  1  0
  2  1  1  6
  3  2  1  0
  4  5  2  0
  6  7  1  0
  6  4  1  0
  7  8  1  1
  8  9  1  0
  9 10  2  0
 10 11  1  0
 12 11  2  0
 13 12  1  0
 14 13  2  0
 14  9  1  0
 15 17  1  0
 15  7  1  0
 16 15  2  0
 18 17  1  0
 18 19  1  6
 19 20  1  0
 20 21  2  0
 20 24  1  0
 22 18  1  0
 22 23  1  0
 25 22  2  0
M  END
$$$$
