AFD.pdb
     RDKit          3D

 25 25  0  0  1  0  0  0  0  0999 V2000
   26.8017  -17.8617  -17.5050 C   0  0  0  0  0  0  0  0  0  0  0  0
   27.7214  -18.4686  -16.4692 C   0  0  2  0  0  0  0  0  0  0  0  0
   28.8336  -19.0895  -17.1642 N   0  0  0  0  0  0  0  0  0  0  0  0
   27.0213  -19.4766  -15.6256 C   0  0  0  0  0  0  0  0  0  0  0  0
   26.8058  -20.6503  -16.0164 O   0  0  0  0  0  0  0  0  0  0  0  0
   26.5770  -19.1184  -14.3390 N   0  0  0  0  0  0  0  0  0  0  0  0
   25.8830  -20.0286  -13.4421 C   0  0  1  0  0  0  0  0  0  0  0  0
   26.3725  -19.7555  -12.0242 C   0  0  0  0  0  0  0  0  0  0  0  0
   27.6975  -20.3819  -11.7750 C   0  0  0  0  0  0  0  0  0  0  0  0
   28.8697  -19.8046  -12.2367 C   0  0  0  0  0  0  0  0  0  0  0  0
   30.1140  -20.3589  -12.0232 C   0  0  0  0  0  0  0  0  0  0  0  0
   30.2024  -21.5457  -11.3164 C   0  0  0  0  0  0  0  0  0  0  0  0
   29.0640  -22.1498  -10.8416 C   0  0  0  0  0  0  0  0  0  0  0  0
   27.8275  -21.5703  -11.0711 C   0  0  0  0  0  0  0  0  0  0  0  0
   24.4273  -19.8600  -13.4846 C   0  0  0  0  0  0  0  0  0  0  0  0
   23.9230  -18.7700  -13.1398 O   0  0  0  0  0  0  0  0  0  0  0  0
   23.6012  -20.9263  -13.9137 N   0  0  0  0  0  0  0  0  0  0  0  0
   22.1574  -20.8648  -13.9015 C   0  0  1  0  0  0  0  0  0  0  0  0
   21.5802  -22.0840  -14.6359 C   0  0  0  0  0  0  0  0  0  0  0  0
   20.1034  -22.0367  -14.6002 C   0  0  0  0  0  0  0  0  0  0  0  0
   19.4443  -23.1015  -14.6461 O   0  0  0  0  0  0  0  0  0  0  0  0
   21.6900  -20.8602  -12.4926 C   0  0  0  0  0  0  0  0  0  0  0  0
   22.2710  -21.5992  -11.4900 O   0  0  0  0  0  0  0  0  0  0  0  0
   19.3668  -20.8567  -14.5168 O   0  0  0  0  0  0  0  0  0  0  0  0
   20.6957  -20.1254  -12.2183 O   0  0  0  0  0  0  0  0  0  0  0  0
  2  4  1  0
  2  1  1  6
  3  2  1  0
  4  5  2  0
  6  7  1  0
  6  4  1  0
  7  8  1  1
  8  9  1  0
  9 10  2  0
 10 11  1  0
 12 11  2  0
 13 12  1  0
 14 13  2  0
 14  9  1  0
 15 17  1  0
 15  7  1  0
 16 15  2  0
 18 17  1  0
 18 19  1  6
 19 20  1  0
 20 21  2  0
 20 24  1  0
 22 18  1  0
 22 23  1  0
 25 22  2  0
M  END
$$$$
