AFD.pdb
     RDKit          3D

 25 25  0  0  1  0  0  0  0  0999 V2000
   18.8006  -14.2115  -18.6165 C   0  0  0  0  0  0  0  0  0  0  0  0
   19.1561  -12.7800  -18.9504 C   0  0  2  0  0  0  0  0  0  0  0  0
   19.7420  -12.7603  -20.2778 N   0  0  0  0  0  0  0  0  0  0  0  0
   20.1089  -12.1987  -17.9645 C   0  0  0  0  0  0  0  0  0  0  0  0
   19.8227  -12.0629  -16.7494 O   0  0  0  0  0  0  0  0  0  0  0  0
   21.3828  -11.7800  -18.3922 N   0  0  0  0  0  0  0  0  0  0  0  0
   22.3579  -11.1435  -17.5214 C   0  0  1  0  0  0  0  0  0  0  0  0
   23.7483  -11.5562  -17.9919 C   0  0  0  0  0  0  0  0  0  0  0  0
   24.8094  -10.9924  -17.1167 C   0  0  0  0  0  0  0  0  0  0  0  0
   25.5752   -9.9079  -17.5140 C   0  0  0  0  0  0  0  0  0  0  0  0
   26.5667   -9.3608  -16.7273 C   0  0  0  0  0  0  0  0  0  0  0  0
   26.8128   -9.9160  -15.4835 C   0  0  0  0  0  0  0  0  0  0  0  0
   26.0757  -10.9918  -15.0525 C   0  0  0  0  0  0  0  0  0  0  0  0
   25.0861  -11.5206  -15.8640 C   0  0  0  0  0  0  0  0  0  0  0  0
   22.2620   -9.6808  -17.5430 C   0  0  0  0  0  0  0  0  0  0  0  0
   22.3922   -9.0707  -18.6257 O   0  0  0  0  0  0  0  0  0  0  0  0
   22.0236   -8.9670  -16.3442 N   0  0  0  0  0  0  0  0  0  0  0  0
   21.9395   -7.5256  -16.2832 C   0  0  1  0  0  0  0  0  0  0  0  0
   20.8074   -7.1120  -15.3313 C   0  0  0  0  0  0  0  0  0  0  0  0
   19.4987   -7.3957  -15.9570 C   0  0  0  0  0  0  0  0  0  0  0  0
   19.2967   -7.0768  -17.1519 O   0  0  0  0  0  0  0  0  0  0  0  0
   23.2325   -6.9909  -15.7873 C   0  0  0  0  0  0  0  0  0  0  0  0
   23.6658   -5.7057  -16.0089 O   0  0  0  0  0  0  0  0  0  0  0  0
   18.4390   -8.0115  -15.2938 O   0  0  0  0  0  0  0  0  0  0  0  0
   23.9655   -7.7815  -15.1229 O   0  0  0  0  0  0  0  0  0  0  0  0
  2  4  1  0
  2  1  1  1
  3  2  1  0
  4  5  2  0
  6  7  1  0
  6  4  1  0
  7  8  1  6
  8  9  1  0
  9 10  2  0
 10 11  1  0
 12 11  2  0
 13 12  1  0
 14 13  2  0
 14  9  1  0
 15 17  1  0
 15  7  1  0
 16 15  2  0
 18 17  1  0
 18 19  1  1
 19 20  1  0
 20 21  2  0
 20 24  1  0
 22 18  1  0
 22 23  1  0
 25 22  2  0
M  END
$$$$
