AFD.pdb
     RDKit          3D

 25 25  0  0  1  0  0  0  0  0999 V2000
   17.6837   -9.9595  -20.5532 C   0  0  0  0  0  0  0  0  0  0  0  0
   19.0667   -9.9957  -19.9425 C   0  0  2  0  0  0  0  0  0  0  0  0
   19.5214  -11.3737  -19.9407 N   0  0  0  0  0  0  0  0  0  0  0  0
   19.0768   -9.4542  -18.5552 C   0  0  0  0  0  0  0  0  0  0  0  0
   18.2342   -9.7993  -17.6904 O   0  0  0  0  0  0  0  0  0  0  0  0
   20.0601   -8.5192  -18.1810 N   0  0  0  0  0  0  0  0  0  0  0  0
   20.1128   -7.8820  -16.8750 C   0  0  1  0  0  0  0  0  0  0  0  0
   21.5752   -7.7962  -16.4525 C   0  0  0  0  0  0  0  0  0  0  0  0
   21.7158   -7.2209  -15.0890 C   0  0  0  0  0  0  0  0  0  0  0  0
   21.6189   -8.0124  -13.9556 C   0  0  0  0  0  0  0  0  0  0  0  0
   21.7442   -7.5112  -12.6772 C   0  0  0  0  0  0  0  0  0  0  0  0
   21.9772   -6.1568  -12.5124 C   0  0  0  0  0  0  0  0  0  0  0  0
   22.0799   -5.3380  -13.6103 C   0  0  0  0  0  0  0  0  0  0  0  0
   21.9498   -5.8691  -14.8825 C   0  0  0  0  0  0  0  0  0  0  0  0
   19.5390   -6.5330  -16.8832 C   0  0  0  0  0  0  0  0  0  0  0  0
   19.8467   -5.7381  -17.7969 O   0  0  0  0  0  0  0  0  0  0  0  0
   18.6429   -6.1362  -15.8619 N   0  0  0  0  0  0  0  0  0  0  0  0
   18.0505   -4.8198  -15.7945 C   0  0  1  0  0  0  0  0  0  0  0  0
   16.8273   -4.8484  -14.8661 C   0  0  0  0  0  0  0  0  0  0  0  0
   16.2295   -3.4992  -14.7843 C   0  0  0  0  0  0  0  0  0  0  0  0
   15.8496   -3.0517  -13.6772 O   0  0  0  0  0  0  0  0  0  0  0  0
   19.0590   -3.8672  -15.2663 C   0  0  0  0  0  0  0  0  0  0  0  0
   20.1849   -4.2476  -14.5761 O   0  0  0  0  0  0  0  0  0  0  0  0
   16.0517   -2.6615  -15.8837 O   0  0  0  0  0  0  0  0  0  0  0  0
   18.8517   -2.6352  -15.4743 O   0  0  0  0  0  0  0  0  0  0  0  0
  2  4  1  0
  2  1  1  1
  3  2  1  0
  4  5  2  0
  6  7  1  0
  6  4  1  0
  7  8  1  6
  8  9  1  0
  9 10  2  0
 10 11  1  0
 12 11  2  0
 13 12  1  0
 14 13  2  0
 14  9  1  0
 15 17  1  0
 15  7  1  0
 16 15  2  0
 18 17  1  0
 18 19  1  1
 19 20  1  0
 20 21  2  0
 20 24  1  0
 22 18  1  0
 22 23  1  0
 25 22  2  0
M  END
$$$$
