AFD.pdb
     RDKit          3D

 25 25  0  0  1  0  0  0  0  0999 V2000
   20.4338  -12.9049  -18.9415 C   0  0  0  0  0  0  0  0  0  0  0  0
   20.4738  -11.3997  -19.0823 C   0  0  2  0  0  0  0  0  0  0  0  0
   21.5450  -11.0624  -20.0012 N   0  0  0  0  0  0  0  0  0  0  0  0
   20.6940  -10.7241  -17.7735 C   0  0  0  0  0  0  0  0  0  0  0  0
   19.9181  -10.8750  -16.7977 O   0  0  0  0  0  0  0  0  0  0  0  0
   21.8082   -9.8808  -17.6051 N   0  0  0  0  0  0  0  0  0  0  0  0
   22.1451   -9.2291  -16.3496 C   0  0  1  0  0  0  0  0  0  0  0  0
   23.5742   -9.6174  -15.9872 C   0  0  0  0  0  0  0  0  0  0  0  0
   23.6785  -11.0624  -15.6540 C   0  0  0  0  0  0  0  0  0  0  0  0
   23.2564  -11.5556  -14.4297 C   0  0  0  0  0  0  0  0  0  0  0  0
   23.3390  -12.8891  -14.0889 C   0  0  0  0  0  0  0  0  0  0  0  0
   23.8666  -13.7801  -15.0073 C   0  0  0  0  0  0  0  0  0  0  0  0
   24.2963  -13.3315  -16.2322 C   0  0  0  0  0  0  0  0  0  0  0  0
   24.2012  -11.9864  -16.5473 C   0  0  0  0  0  0  0  0  0  0  0  0
   22.0543   -7.7682  -16.4315 C   0  0  0  0  0  0  0  0  0  0  0  0
   22.6265   -7.1666  -17.3653 O   0  0  0  0  0  0  0  0  0  0  0  0
   21.3227   -7.0465  -15.4580 N   0  0  0  0  0  0  0  0  0  0  0  0
   21.1197   -5.6169  -15.5178 C   0  0  1  0  0  0  0  0  0  0  0  0
   19.6178   -5.3032  -15.4507 C   0  0  0  0  0  0  0  0  0  0  0  0
   19.4094   -3.8407  -15.4977 C   0  0  0  0  0  0  0  0  0  0  0  0
   19.8137   -3.1847  -16.4859 O   0  0  0  0  0  0  0  0  0  0  0  0
   21.8159   -4.9858  -14.3687 C   0  0  0  0  0  0  0  0  0  0  0  0
   22.2957   -5.6835  -13.2862 O   0  0  0  0  0  0  0  0  0  0  0  0
   18.7762   -3.1146  -14.4908 O   0  0  0  0  0  0  0  0  0  0  0  0
   21.9669   -3.7289  -14.4068 O   0  0  0  0  0  0  0  0  0  0  0  0
  2  4  1  0
  2  1  1  1
  3  2  1  0
  4  5  2  0
  6  7  1  0
  6  4  1  0
  7  8  1  6
  8  9  1  0
  9 10  2  0
 10 11  1  0
 12 11  2  0
 13 12  1  0
 14 13  2  0
 14  9  1  0
 15 17  1  0
 15  7  1  0
 16 15  2  0
 18 17  1  0
 18 19  1  1
 19 20  1  0
 20 21  2  0
 20 24  1  0
 22 18  1  0
 22 23  1  0
 25 22  2  0
M  END
$$$$
