AFD.pdb
     RDKit          3D

 25 25  0  0  1  0  0  0  0  0999 V2000
   24.1473  -24.9794  -13.8170 C   0  0  0  0  0  0  0  0  0  0  0  0
   24.3527  -24.0266  -14.9733 C   0  0  2  0  0  0  0  0  0  0  0  0
   25.7623  -24.0346  -15.3175 N   0  0  0  0  0  0  0  0  0  0  0  0
   23.9182  -22.6423  -14.6376 C   0  0  0  0  0  0  0  0  0  0  0  0
   22.7470  -22.3726  -14.2736 O   0  0  0  0  0  0  0  0  0  0  0  0
   24.8411  -21.5833  -14.7259 N   0  0  0  0  0  0  0  0  0  0  0  0
   24.5240  -20.2055  -14.3859 C   0  0  1  0  0  0  0  0  0  0  0  0
   25.7145  -19.6210  -13.6338 C   0  0  0  0  0  0  0  0  0  0  0  0
   25.7989  -20.1537  -12.2486 C   0  0  0  0  0  0  0  0  0  0  0  0
   26.8442  -20.9714  -11.8496 C   0  0  0  0  0  0  0  0  0  0  0  0
   26.9526  -21.4821  -10.5735 C   0  0  0  0  0  0  0  0  0  0  0  0
   25.9759  -21.1673   -9.6446 C   0  0  0  0  0  0  0  0  0  0  0  0
   24.9234  -20.3598  -10.0001 C   0  0  0  0  0  0  0  0  0  0  0  0
   24.8403  -19.8610  -11.2892 C   0  0  0  0  0  0  0  0  0  0  0  0
   24.2557  -19.3813  -15.5682 C   0  0  0  0  0  0  0  0  0  0  0  0
   24.9923  -19.4857  -16.5722 O   0  0  0  0  0  0  0  0  0  0  0  0
   23.1691  -18.4742  -15.5698 N   0  0  0  0  0  0  0  0  0  0  0  0
   22.5770  -17.9486  -16.7788 C   0  0  1  0  0  0  0  0  0  0  0  0
   21.2735  -17.2107  -16.4396 C   0  0  0  0  0  0  0  0  0  0  0  0
   20.6816  -16.6483  -17.6717 C   0  0  0  0  0  0  0  0  0  0  0  0
   21.1818  -15.6240  -18.1922 O   0  0  0  0  0  0  0  0  0  0  0  0
   23.5356  -17.0085  -17.4121 C   0  0  0  0  0  0  0  0  0  0  0  0
   24.4334  -16.2407  -16.7097 O   0  0  0  0  0  0  0  0  0  0  0  0
   19.5723  -17.1912  -18.3172 O   0  0  0  0  0  0  0  0  0  0  0  0
   23.5088  -16.9231  -18.6754 O   0  0  0  0  0  0  0  0  0  0  0  0
  2  4  1  0
  2  1  1  1
  3  2  1  0
  4  5  2  0
  6  7  1  0
  6  4  1  0
  7  8  1  6
  8  9  1  0
  9 10  2  0
 10 11  1  0
 12 11  2  0
 13 12  1  0
 14 13  2  0
 14  9  1  0
 15 17  1  0
 15  7  1  0
 16 15  2  0
 18 17  1  0
 18 19  1  1
 19 20  1  0
 20 21  2  0
 20 24  1  0
 22 18  1  0
 22 23  1  0
 25 22  2  0
M  END
$$$$
