AFD.pdb
     RDKit          3D

 25 25  0  0  1  0  0  0  0  0999 V2000
   14.3679  -29.4666    2.8136 C   0  0  0  0  0  0  0  0  0  0  0  0
   15.0707  -28.6084    1.7857 C   0  0  2  0  0  0  0  0  0  0  0  0
   15.3447  -29.4327    0.6234 N   0  0  0  0  0  0  0  0  0  0  0  0
   16.3395  -28.0345    2.3137 C   0  0  0  0  0  0  0  0  0  0  0  0
   17.3569  -28.7368    2.5344 O   0  0  0  0  0  0  0  0  0  0  0  0
   16.4202  -26.6551    2.5815 N   0  0  0  0  0  0  0  0  0  0  0  0
   17.6208  -25.9966    3.0710 C   0  0  1  0  0  0  0  0  0  0  0  0
   18.0144  -24.9252    2.0602 C   0  0  0  0  0  0  0  0  0  0  0  0
   18.7116  -25.5131    0.8863 C   0  0  0  0  0  0  0  0  0  0  0  0
   20.0902  -25.6514    0.8574 C   0  0  0  0  0  0  0  0  0  0  0  0
   20.7679  -26.1921   -0.2147 C   0  0  0  0  0  0  0  0  0  0  0  0
   20.0437  -26.6177   -1.3149 C   0  0  0  0  0  0  0  0  0  0  0  0
   18.6755  -26.4982   -1.3256 C   0  0  0  0  0  0  0  0  0  0  0  0
   18.0214  -25.9512   -0.2346 C   0  0  0  0  0  0  0  0  0  0  0  0
   17.4238  -25.3674    4.3804 C   0  0  0  0  0  0  0  0  0  0  0  0
   16.4474  -24.6083    4.5585 O   0  0  0  0  0  0  0  0  0  0  0  0
   18.3349  -25.6199    5.4338 N   0  0  0  0  0  0  0  0  0  0  0  0
   18.1798  -25.0754    6.7635 C   0  0  1  0  0  0  0  0  0  0  0  0
   18.9674  -25.9290    7.7684 C   0  0  0  0  0  0  0  0  0  0  0  0
   18.7222  -25.4393    9.1413 C   0  0  0  0  0  0  0  0  0  0  0  0
   17.8741  -24.5385    9.3397 O   0  0  0  0  0  0  0  0  0  0  0  0
   18.6958  -23.6836    6.7743 C   0  0  0  0  0  0  0  0  0  0  0  0
   18.0730  -22.6403    7.4166 O   0  0  0  0  0  0  0  0  0  0  0  0
   19.3870  -25.9215   10.2672 O   0  0  0  0  0  0  0  0  0  0  0  0
   19.7752  -23.4649    6.1490 O   0  0  0  0  0  0  0  0  0  0  0  0
  2  4  1  0
  2  1  1  1
  3  2  1  0
  4  5  2  0
  6  7  1  0
  6  4  1  0
  7  8  1  6
  8  9  1  0
  9 10  2  0
 10 11  1  0
 12 11  2  0
 13 12  1  0
 14 13  2  0
 14  9  1  0
 15 17  1  0
 15  7  1  0
 16 15  2  0
 18 17  1  0
 18 19  1  1
 19 20  1  0
 20 21  2  0
 20 24  1  0
 22 18  1  0
 22 23  1  0
 25 22  2  0
M  END
$$$$
