AFD.pdb
     RDKit          3D

 25 25  0  0  1  0  0  0  0  0999 V2000
   18.7433  -11.4696  -20.1597 C   0  0  0  0  0  0  0  0  0  0  0  0
   19.5981  -11.8412  -18.9689 C   0  0  2  0  0  0  0  0  0  0  0  0
   19.2000  -13.1641  -18.5250 N   0  0  0  0  0  0  0  0  0  0  0  0
   19.4534  -10.8649  -17.8537 C   0  0  0  0  0  0  0  0  0  0  0  0
   18.3801  -10.7215  -17.2178 O   0  0  0  0  0  0  0  0  0  0  0  0
   20.5502  -10.0638  -17.4843 N   0  0  0  0  0  0  0  0  0  0  0  0
   20.4832   -9.0187  -16.4754 C   0  0  1  0  0  0  0  0  0  0  0  0
   21.8573   -8.9049  -15.8246 C   0  0  0  0  0  0  0  0  0  0  0  0
   21.8689   -7.8753  -14.7524 C   0  0  0  0  0  0  0  0  0  0  0  0
   22.2704   -6.5729  -15.0034 C   0  0  0  0  0  0  0  0  0  0  0  0
   22.2931   -5.5942  -14.0324 C   0  0  0  0  0  0  0  0  0  0  0  0
   21.8981   -5.9217  -12.7469 C   0  0  0  0  0  0  0  0  0  0  0  0
   21.4931   -7.2016  -12.4569 C   0  0  0  0  0  0  0  0  0  0  0  0
   21.4804   -8.1642  -13.4522 C   0  0  0  0  0  0  0  0  0  0  0  0
   20.1126   -7.7165  -17.0374 C   0  0  0  0  0  0  0  0  0  0  0  0
   20.6557   -7.3234  -18.0919 O   0  0  0  0  0  0  0  0  0  0  0  0
   19.1458   -6.9119  -16.3881 N   0  0  0  0  0  0  0  0  0  0  0  0
   18.7838   -5.5878  -16.8398 C   0  0  1  0  0  0  0  0  0  0  0  0
   17.2568   -5.4820  -16.9650 C   0  0  0  0  0  0  0  0  0  0  0  0
   16.8975   -4.2303  -17.6640 C   0  0  0  0  0  0  0  0  0  0  0  0
   17.7975   -3.4342  -18.0194 O   0  0  0  0  0  0  0  0  0  0  0  0
   19.2763   -4.5938  -15.8533 C   0  0  0  0  0  0  0  0  0  0  0  0
   20.0328   -3.4953  -16.1846 O   0  0  0  0  0  0  0  0  0  0  0  0
   15.5887   -3.8587  -17.9663 O   0  0  0  0  0  0  0  0  0  0  0  0
   18.9708   -4.7873  -14.6396 O   0  0  0  0  0  0  0  0  0  0  0  0
  2  4  1  0
  2  1  1  6
  3  2  1  0
  4  5  2  0
  6  7  1  0
  6  4  1  0
  7  8  1  6
  8  9  1  0
  9 10  2  0
 10 11  1  0
 12 11  2  0
 13 12  1  0
 14 13  2  0
 14  9  1  0
 15 17  1  0
 15  7  1  0
 16 15  2  0
 18 17  1  0
 18 19  1  1
 19 20  1  0
 20 21  2  0
 20 24  1  0
 22 18  1  0
 22 23  1  0
 25 22  2  0
M  END
$$$$
