AFD.pdb
     RDKit          3D

 25 25  0  0  1  0  0  0  0  0999 V2000
   21.3471  -10.6950  -19.3755 C   0  0  0  0  0  0  0  0  0  0  0  0
   22.7205  -11.0783  -18.8718 C   0  0  2  0  0  0  0  0  0  0  0  0
   22.8877  -12.5067  -19.0651 N   0  0  0  0  0  0  0  0  0  0  0  0
   22.9021  -10.7341  -17.4343 C   0  0  0  0  0  0  0  0  0  0  0  0
   22.3850  -11.4075  -16.5091 O   0  0  0  0  0  0  0  0  0  0  0  0
   23.6793   -9.6153  -17.0801 N   0  0  0  0  0  0  0  0  0  0  0  0
   23.8897   -9.1800  -15.7088 C   0  0  1  0  0  0  0  0  0  0  0  0
   25.3595   -8.8051  -15.5549 C   0  0  0  0  0  0  0  0  0  0  0  0
   26.2507   -9.9501  -15.8786 C   0  0  0  0  0  0  0  0  0  0  0  0
   26.7959  -10.1085  -17.1428 C   0  0  0  0  0  0  0  0  0  0  0  0
   27.6256  -11.1581  -17.4762 C   0  0  0  0  0  0  0  0  0  0  0  0
   27.9311  -12.0994  -16.5084 C   0  0  0  0  0  0  0  0  0  0  0  0
   27.4110  -11.9784  -15.2430 C   0  0  0  0  0  0  0  0  0  0  0  0
   26.5804  -10.9137  -14.9365 C   0  0  0  0  0  0  0  0  0  0  0  0
   23.0628   -8.0231  -15.3522 C   0  0  0  0  0  0  0  0  0  0  0  0
   23.0982   -7.5767  -14.1856 O   0  0  0  0  0  0  0  0  0  0  0  0
   22.2310   -7.4180  -16.3245 N   0  0  0  0  0  0  0  0  0  0  0  0
   21.3695   -6.2929  -16.0412 C   0  0  1  0  0  0  0  0  0  0  0  0
   21.3912   -5.3125  -17.2232 C   0  0  0  0  0  0  0  0  0  0  0  0
   20.4226   -4.2214  -16.9863 C   0  0  0  0  0  0  0  0  0  0  0  0
   20.4569   -3.5800  -15.9105 O   0  0  0  0  0  0  0  0  0  0  0  0
   19.9872   -6.7900  -15.8271 C   0  0  0  0  0  0  0  0  0  0  0  0
   19.4639   -7.8943  -16.4560 O   0  0  0  0  0  0  0  0  0  0  0  0
   19.4425   -3.8421  -17.9015 O   0  0  0  0  0  0  0  0  0  0  0  0
   19.2630   -6.1447  -15.0129 O   0  0  0  0  0  0  0  0  0  0  0  0
  2  4  1  0
  2  1  1  1
  3  2  1  0
  4  5  2  0
  6  7  1  0
  6  4  1  0
  7  8  1  6
  8  9  1  0
  9 10  2  0
 10 11  1  0
 12 11  2  0
 13 12  1  0
 14 13  2  0
 14  9  1  0
 15 17  1  0
 15  7  1  0
 16 15  2  0
 18 17  1  0
 18 19  1  6
 19 20  1  0
 20 21  2  0
 20 24  1  0
 22 18  1  0
 22 23  1  0
 25 22  2  0
M  END
$$$$
