AFD.pdb
     RDKit          3D

 25 25  0  0  1  0  0  0  0  0999 V2000
   18.7875  -11.8833  -17.8596 C   0  0  0  0  0  0  0  0  0  0  0  0
   20.0371  -11.4937  -17.1022 C   0  0  2  0  0  0  0  0  0  0  0  0
   20.5409  -12.6757  -16.4279 N   0  0  0  0  0  0  0  0  0  0  0  0
   19.7728  -10.4151  -16.1099 C   0  0  0  0  0  0  0  0  0  0  0  0
   18.9416  -10.5452  -15.1777 O   0  0  0  0  0  0  0  0  0  0  0  0
   20.4713   -9.1968  -16.2047 N   0  0  0  0  0  0  0  0  0  0  0  0
   20.2718   -8.0790  -15.2963 C   0  0  1  0  0  0  0  0  0  0  0  0
   21.6334   -7.6754  -14.7416 C   0  0  0  0  0  0  0  0  0  0  0  0
   22.0746   -8.5932  -13.6586 C   0  0  0  0  0  0  0  0  0  0  0  0
   23.0456   -9.5575  -13.8774 C   0  0  0  0  0  0  0  0  0  0  0  0
   23.4773  -10.4241  -12.8957 C   0  0  0  0  0  0  0  0  0  0  0  0
   22.9191  -10.3315  -11.6326 C   0  0  0  0  0  0  0  0  0  0  0  0
   21.9538   -9.3891  -11.3747 C   0  0  0  0  0  0  0  0  0  0  0  0
   21.5395   -8.5318  -12.3800 C   0  0  0  0  0  0  0  0  0  0  0  0
   19.6628   -6.9197  -15.9553 C   0  0  0  0  0  0  0  0  0  0  0  0
   20.1504   -6.4913  -17.0230 O   0  0  0  0  0  0  0  0  0  0  0  0
   18.5302   -6.2918  -15.3838 N   0  0  0  0  0  0  0  0  0  0  0  0
   17.8350   -5.1899  -16.0090 C   0  0  1  0  0  0  0  0  0  0  0  0
   16.4574   -5.0077  -15.3548 C   0  0  0  0  0  0  0  0  0  0  0  0
   15.7530   -3.8688  -15.9803 C   0  0  0  0  0  0  0  0  0  0  0  0
   15.7862   -3.7225  -17.2244 O   0  0  0  0  0  0  0  0  0  0  0  0
   18.6402   -3.9550  -15.8350 C   0  0  0  0  0  0  0  0  0  0  0  0
   18.6571   -2.9178  -16.7365 O   0  0  0  0  0  0  0  0  0  0  0  0
   15.0318   -2.9151  -15.2646 O   0  0  0  0  0  0  0  0  0  0  0  0
   19.3469   -3.8713  -14.7874 O   0  0  0  0  0  0  0  0  0  0  0  0
  2  4  1  0
  2  1  1  1
  3  2  1  0
  4  5  2  0
  6  7  1  0
  6  4  1  0
  7  8  1  6
  8  9  1  0
  9 10  2  0
 10 11  1  0
 12 11  2  0
 13 12  1  0
 14 13  2  0
 14  9  1  0
 15 17  1  0
 15  7  1  0
 16 15  2  0
 18 17  1  0
 18 19  1  1
 19 20  1  0
 20 21  2  0
 20 24  1  0
 22 18  1  0
 22 23  1  0
 25 22  2  0
M  END
$$$$
