AFD.pdb
     RDKit          3D

 25 25  0  0  1  0  0  0  0  0999 V2000
   29.6658  -23.2367  -17.2444 C   0  0  0  0  0  0  0  0  0  0  0  0
   28.4067  -22.4008  -17.2966 C   0  0  2  0  0  0  0  0  0  0  0  0
   28.7945  -21.0151  -17.4835 N   0  0  0  0  0  0  0  0  0  0  0  0
   27.5948  -22.5395  -16.0558 C   0  0  0  0  0  0  0  0  0  0  0  0
   27.0409  -23.6181  -15.7295 O   0  0  0  0  0  0  0  0  0  0  0  0
   27.4310  -21.4306  -15.2045 N   0  0  0  0  0  0  0  0  0  0  0  0
   26.6030  -21.4458  -14.0094 C   0  0  1  0  0  0  0  0  0  0  0  0
   27.2408  -20.5149  -12.9839 C   0  0  0  0  0  0  0  0  0  0  0  0
   26.4838  -20.5130  -11.7045 C   0  0  0  0  0  0  0  0  0  0  0  0
   26.8501  -21.3280  -10.6452 C   0  0  0  0  0  0  0  0  0  0  0  0
   26.1703  -21.3508   -9.4459 C   0  0  0  0  0  0  0  0  0  0  0  0
   25.0713  -20.5245   -9.2870 C   0  0  0  0  0  0  0  0  0  0  0  0
   24.6757  -19.7015  -10.3129 C   0  0  0  0  0  0  0  0  0  0  0  0
   25.3775  -19.6995  -11.5066 C   0  0  0  0  0  0  0  0  0  0  0  0
   25.2308  -21.0000  -14.2694 C   0  0  0  0  0  0  0  0  0  0  0  0
   25.0367  -19.9460  -14.9118 O   0  0  0  0  0  0  0  0  0  0  0  0
   24.1352  -21.7603  -13.7947 N   0  0  0  0  0  0  0  0  0  0  0  0
   22.7567  -21.4023  -14.0394 C   0  0  1  0  0  0  0  0  0  0  0  0
   21.9785  -22.6352  -14.5223 C   0  0  0  0  0  0  0  0  0  0  0  0
   20.5797  -22.2601  -14.8176 C   0  0  0  0  0  0  0  0  0  0  0  0
   19.6850  -22.4695  -13.9657 O   0  0  0  0  0  0  0  0  0  0  0  0
   22.1619  -20.8963  -12.7769 C   0  0  0  0  0  0  0  0  0  0  0  0
   21.2778  -19.8460  -12.7132 O   0  0  0  0  0  0  0  0  0  0  0  0
   20.1702  -21.6718  -16.0127 O   0  0  0  0  0  0  0  0  0  0  0  0
   22.5019  -21.4803  -11.7058 O   0  0  0  0  0  0  0  0  0  0  0  0
  2  4  1  0
  2  1  1  1
  3  2  1  0
  4  5  2  0
  6  7  1  0
  6  4  1  0
  7  8  1  1
  8  9  1  0
  9 10  2  0
 10 11  1  0
 12 11  2  0
 13 12  1  0
 14 13  2  0
 14  9  1  0
 15 17  1  0
 15  7  1  0
 16 15  2  0
 18 17  1  0
 18 19  1  1
 19 20  1  0
 20 21  2  0
 20 24  1  0
 22 18  1  0
 22 23  1  0
 25 22  2  0
M  END
$$$$
