AFD.pdb
     RDKit          3D

 25 25  0  0  1  0  0  0  0  0999 V2000
   24.2302  -13.8154  -18.3649 C   0  0  0  0  0  0  0  0  0  0  0  0
   23.3622  -12.6103  -18.6501 C   0  0  2  0  0  0  0  0  0  0  0  0
   23.8706  -11.9628  -19.8450 N   0  0  0  0  0  0  0  0  0  0  0  0
   23.3550  -11.6482  -17.5133 C   0  0  0  0  0  0  0  0  0  0  0  0
   23.0163  -11.9805  -16.3507 O   0  0  0  0  0  0  0  0  0  0  0  0
   23.7391  -10.3117  -17.7312 N   0  0  0  0  0  0  0  0  0  0  0  0
   23.6152   -9.2629  -16.7317 C   0  0  1  0  0  0  0  0  0  0  0  0
   24.9334   -8.4980  -16.6872 C   0  0  0  0  0  0  0  0  0  0  0  0
   26.0613   -9.3788  -16.2847 C   0  0  0  0  0  0  0  0  0  0  0  0
   27.0793   -9.7010  -17.1681 C   0  0  0  0  0  0  0  0  0  0  0  0
   28.1391  -10.5145  -16.8274 C   0  0  0  0  0  0  0  0  0  0  0  0
   28.1940  -11.0359  -15.5464 C   0  0  0  0  0  0  0  0  0  0  0  0
   27.2047  -10.7405  -14.6407 C   0  0  0  0  0  0  0  0  0  0  0  0
   26.1520   -9.9205  -15.0107 C   0  0  0  0  0  0  0  0  0  0  0  0
   22.5295   -8.3246  -17.0317 C   0  0  0  0  0  0  0  0  0  0  0  0
   22.4272   -7.8482  -18.1823 O   0  0  0  0  0  0  0  0  0  0  0  0
   21.6048   -7.9626  -16.0230 N   0  0  0  0  0  0  0  0  0  0  0  0
   20.4377   -7.1479  -16.2730 C   0  0  1  0  0  0  0  0  0  0  0  0
   19.3532   -7.4621  -15.2319 C   0  0  0  0  0  0  0  0  0  0  0  0
   18.1609   -6.6255  -15.4832 C   0  0  0  0  0  0  0  0  0  0  0  0
   17.4688   -6.8188  -16.5097 O   0  0  0  0  0  0  0  0  0  0  0  0
   20.8232   -5.7174  -16.1799 C   0  0  0  0  0  0  0  0  0  0  0  0
   20.1112   -4.6927  -16.7560 O   0  0  0  0  0  0  0  0  0  0  0  0
   17.7367   -5.6046  -14.6347 O   0  0  0  0  0  0  0  0  0  0  0  0
   21.8736   -5.4456  -15.5266 O   0  0  0  0  0  0  0  0  0  0  0  0
  2  4  1  0
  2  1  1  1
  3  2  1  0
  4  5  2  0
  6  7  1  0
  6  4  1  0
  7  8  1  6
  8  9  1  0
  9 10  2  0
 10 11  1  0
 12 11  2  0
 13 12  1  0
 14 13  2  0
 14  9  1  0
 15 17  1  0
 15  7  1  0
 16 15  2  0
 18 17  1  0
 18 19  1  1
 19 20  1  0
 20 21  2  0
 20 24  1  0
 22 18  1  0
 22 23  1  0
 25 22  2  0
M  END
$$$$
