WVA.pdb
     RDKit          3D

 27 28  0  0  1  0  0  0  0  0999 V2000
   28.3736  -21.7266  -10.9881 N   0  0  0  0  0  0  0  0  0  0  0  0
   27.1693  -21.2067  -10.3966 C   0  0  1  0  0  0  0  0  0  0  0  0
   27.3481  -20.0645   -9.4582 C   0  0  0  0  0  0  0  0  0  0  0  0
   28.3315  -20.3959   -8.4171 C   0  0  0  0  0  0  0  0  0  0  0  0
   29.5337  -21.0305   -8.6222 C   0  0  0  0  0  0  0  0  0  0  0  0
   30.1556  -21.1231   -7.4468 N   0  0  0  0  0  0  0  0  0  0  0  0
   29.3760  -20.5596   -6.4846 C   0  0  0  0  0  0  0  0  0  0  0  0
   29.5400  -20.4022   -5.1302 C   0  0  0  0  0  0  0  0  0  0  0  0
   28.5424  -19.7852   -4.4025 C   0  0  0  0  0  0  0  0  0  0  0  0
   27.3915  -19.3226   -4.9808 C   0  0  0  0  0  0  0  0  0  0  0  0
   27.2233  -19.4813   -6.3570 C   0  0  0  0  0  0  0  0  0  0  0  0
   28.2251  -20.0985   -7.0801 C   0  0  0  0  0  0  0  0  0  0  0  0
   26.2352  -20.7521  -11.4759 C   0  0  0  0  0  0  0  0  0  0  0  0
   26.5801  -19.8558  -12.2858 O   0  0  0  0  0  0  0  0  0  0  0  0
   23.5147  -23.3969  -13.0127 C   0  0  0  0  0  0  0  0  0  0  0  0
   23.9698  -22.1397  -13.6935 C   0  0  2  0  0  0  0  0  0  0  0  0
   25.2779  -22.4999  -14.4148 C   0  0  0  0  0  0  0  0  0  0  0  0
   24.1402  -20.9525  -12.8046 C   0  0  2  0  0  0  0  0  0  0  0  0
   24.9406  -21.3088  -11.6231 N   0  0  0  0  0  0  0  0  0  0  0  0
   22.8231  -20.5606  -12.2534 C   0  0  0  0  0  0  0  0  0  0  0  0
   22.6807  -20.4175  -10.9887 O   0  0  0  0  0  0  0  0  0  0  0  0
   20.6825  -18.3845  -11.8464 C   0  0  0  0  0  0  0  0  0  0  0  0
   20.4640  -19.7901  -12.3702 C   0  0  2  0  0  0  0  0  0  0  0  0
   21.6495  -20.3109  -13.0062 N   0  0  0  0  0  0  0  0  0  0  0  0
   19.3318  -19.8756  -13.2964 C   0  0  0  0  0  0  0  0  0  0  0  0
   19.5358  -20.0938  -14.5101 O   0  0  0  0  0  0  0  0  0  0  0  0
   18.0456  -19.7187  -12.8451 O   0  0  0  0  0  0  0  0  0  0  0  0
  2  1  1  6
  3  4  1  0
  3  2  1  0
  4  5  2  0
  6  5  1  0
  7  6  1  0
  8  7  2  0
  9  8  1  0
 10  9  2  0
 10 11  1  0
 11 12  2  0
 12  7  1  0
 12  4  1  0
 13  2  1  0
 13 14  2  0
 16 15  1  1
 16 17  1  0
 16 18  1  0
 18 19  1  1
 19 13  1  0
 20 18  1  0
 21 20  2  0
 23 22  1  6
 23 24  1  0
 23 25  1  0
 24 20  1  0
 25 27  1  0
 26 25  2  0
M  END
$$$$
