WVA.pdb
     RDKit          3D

 27 28  0  0  1  0  0  0  0  0999 V2000
   25.7881  -18.6046   -8.4623 N   0  0  0  0  0  0  0  0  0  0  0  0
   26.3983  -19.7812   -9.0224 C   0  0  1  0  0  0  0  0  0  0  0  0
   26.4597  -20.9692   -8.1267 C   0  0  0  0  0  0  0  0  0  0  0  0
   26.8662  -20.5768   -6.7697 C   0  0  0  0  0  0  0  0  0  0  0  0
   26.0182  -20.1950   -5.7572 C   0  0  0  0  0  0  0  0  0  0  0  0
   26.7554  -19.9481   -4.6744 N   0  0  0  0  0  0  0  0  0  0  0  0
   28.0662  -20.1632   -4.9693 C   0  0  0  0  0  0  0  0  0  0  0  0
   29.2163  -20.0479   -4.2277 C   0  0  0  0  0  0  0  0  0  0  0  0
   30.4284  -20.3314   -4.8242 C   0  0  0  0  0  0  0  0  0  0  0  0
   30.5288  -20.7245   -6.1312 C   0  0  0  0  0  0  0  0  0  0  0  0
   29.3611  -20.8426   -6.8862 C   0  0  0  0  0  0  0  0  0  0  0  0
   28.1511  -20.5585   -6.2840 C   0  0  0  0  0  0  0  0  0  0  0  0
   25.6554  -20.1937  -10.2561 C   0  0  0  0  0  0  0  0  0  0  0  0
   24.4219  -19.9804  -10.3622 O   0  0  0  0  0  0  0  0  0  0  0  0
   27.2293  -19.9911  -14.9349 C   0  0  0  0  0  0  0  0  0  0  0  0
   27.3448  -20.4075  -13.4981 C   0  0  2  0  0  0  0  0  0  0  0  0
   27.9214  -21.8316  -13.5161 C   0  0  0  0  0  0  0  0  0  0  0  0
   26.0827  -20.3346  -12.7040 C   0  0  2  0  0  0  0  0  0  0  0  0
   26.3078  -20.8338  -11.3388 N   0  0  0  0  0  0  0  0  0  0  0  0
   25.0879  -21.2685  -13.2789 C   0  0  0  0  0  0  0  0  0  0  0  0
   25.2779  -22.5320  -13.1917 O   0  0  0  0  0  0  0  0  0  0  0  0
   21.5084  -21.4411  -14.0884 C   0  0  0  0  0  0  0  0  0  0  0  0
   22.9308  -21.9029  -14.3359 C   0  0  2  0  0  0  0  0  0  0  0  0
   23.8914  -20.9012  -13.9421 N   0  0  0  0  0  0  0  0  0  0  0  0
   23.1635  -22.2849  -15.7313 C   0  0  0  0  0  0  0  0  0  0  0  0
   23.7459  -21.4939  -16.5042 O   0  0  0  0  0  0  0  0  0  0  0  0
   22.7481  -23.5053  -16.2009 O   0  0  0  0  0  0  0  0  0  0  0  0
  2  1  1  1
  3  4  1  0
  3  2  1  0
  4  5  2  0
  6  5  1  0
  7  6  1  0
  8  7  2  0
  9  8  1  0
 10  9  2  0
 10 11  1  0
 11 12  2  0
 12  7  1  0
 12  4  1  0
 13  2  1  0
 13 14  2  0
 16 15  1  6
 16 17  1  0
 16 18  1  0
 18 19  1  1
 19 13  1  0
 20 18  1  0
 21 20  2  0
 23 22  1  6
 23 24  1  0
 23 25  1  0
 24 20  1  0
 25 27  1  0
 26 25  2  0
M  END
$$$$
