WVA.pdb
     RDKit          3D

 27 28  0  0  1  0  0  0  0  0999 V2000
   28.5728  -20.3742  -15.7605 N   0  0  0  0  0  0  0  0  0  0  0  0
   27.4358  -19.7238  -15.1653 C   0  0  1  0  0  0  0  0  0  0  0  0
   26.4613  -19.1214  -16.1165 C   0  0  0  0  0  0  0  0  0  0  0  0
   27.0262  -17.9207  -16.7489 C   0  0  0  0  0  0  0  0  0  0  0  0
   27.4174  -17.8147  -18.0627 C   0  0  0  0  0  0  0  0  0  0  0  0
   27.8451  -16.5686  -18.2651 N   0  0  0  0  0  0  0  0  0  0  0  0
   27.7379  -15.8665  -17.1045 C   0  0  0  0  0  0  0  0  0  0  0  0
   28.0440  -14.5699  -16.7713 C   0  0  0  0  0  0  0  0  0  0  0  0
   27.8289  -14.1431  -15.4764 C   0  0  0  0  0  0  0  0  0  0  0  0
   27.3204  -14.9653  -14.5077 C   0  0  0  0  0  0  0  0  0  0  0  0
   27.0083  -16.2831  -14.8445 C   0  0  0  0  0  0  0  0  0  0  0  0
   27.2249  -16.7045  -16.1419 C   0  0  0  0  0  0  0  0  0  0  0  0
   26.6822  -20.7037  -14.3193 C   0  0  0  0  0  0  0  0  0  0  0  0
   26.6439  -21.9206  -14.6291 O   0  0  0  0  0  0  0  0  0  0  0  0
   25.1287  -19.8264  -10.3216 C   0  0  0  0  0  0  0  0  0  0  0  0
   25.5419  -21.1424  -10.9120 C   0  0  2  0  0  0  0  0  0  0  0  0
   27.0397  -21.2921  -10.6033 C   0  0  0  0  0  0  0  0  0  0  0  0
   25.2606  -21.3104  -12.3685 C   0  0  2  0  0  0  0  0  0  0  0  0
   25.9906  -20.3006  -13.1503 N   0  0  0  0  0  0  0  0  0  0  0  0
   23.8328  -21.0168  -12.6284 C   0  0  0  0  0  0  0  0  0  0  0  0
   23.4322  -19.8013  -12.6741 O   0  0  0  0  0  0  0  0  0  0  0  0
   20.7235  -22.6159  -13.9467 C   0  0  0  0  0  0  0  0  0  0  0  0
   21.4653  -21.5639  -13.1460 C   0  0  2  0  0  0  0  0  0  0  0  0
   22.8146  -21.9770  -12.8462 N   0  0  0  0  0  0  0  0  0  0  0  0
   20.7725  -21.2099  -11.9043 C   0  0  0  0  0  0  0  0  0  0  0  0
   19.7603  -20.4775  -11.9435 O   0  0  0  0  0  0  0  0  0  0  0  0
   21.2235  -21.6748  -10.6948 O   0  0  0  0  0  0  0  0  0  0  0  0
  2  1  1  6
  3  4  1  0
  3  2  1  0
  4  5  2  0
  6  5  1  0
  7  6  1  0
  8  7  2  0
  9  8  1  0
 10  9  2  0
 10 11  1  0
 11 12  2  0
 12  7  1  0
 12  4  1  0
 13  2  1  0
 13 14  2  0
 16 15  1  6
 16 17  1  0
 16 18  1  0
 18 19  1  6
 19 13  1  0
 20 18  1  0
 21 20  2  0
 23 22  1  1
 23 24  1  0
 23 25  1  0
 24 20  1  0
 25 27  1  0
 26 25  2  0
M  END
$$$$
