WVA.pdb
     RDKit          3D

 27 28  0  0  1  0  0  0  0  0999 V2000
   25.3310  -18.9033  -17.6653 N   0  0  0  0  0  0  0  0  0  0  0  0
   25.4712  -18.3356  -16.3506 C   0  0  1  0  0  0  0  0  0  0  0  0
   24.2756  -17.6239  -15.8203 C   0  0  0  0  0  0  0  0  0  0  0  0
   24.0081  -16.4057  -16.5981 C   0  0  0  0  0  0  0  0  0  0  0  0
   22.9210  -16.1972  -17.4136 C   0  0  0  0  0  0  0  0  0  0  0  0
   23.0154  -14.9671  -17.9181 N   0  0  0  0  0  0  0  0  0  0  0  0
   24.1453  -14.3761  -17.4434 C   0  0  0  0  0  0  0  0  0  0  0  0
   24.7061  -13.1403  -17.6536 C   0  0  0  0  0  0  0  0  0  0  0  0
   25.8946  -12.8289  -17.0245 C   0  0  0  0  0  0  0  0  0  0  0  0
   26.5385  -13.7076  -16.1961 C   0  0  0  0  0  0  0  0  0  0  0  0
   25.9699  -14.9638  -15.9810 C   0  0  0  0  0  0  0  0  0  0  0  0
   24.7802  -15.2696  -16.6124 C   0  0  0  0  0  0  0  0  0  0  0  0
   25.8154  -19.4155  -15.3712 C   0  0  0  0  0  0  0  0  0  0  0  0
   25.3484  -20.5741  -15.5050 O   0  0  0  0  0  0  0  0  0  0  0  0
   28.7322  -21.1819  -11.7847 C   0  0  0  0  0  0  0  0  0  0  0  0
   28.3763  -20.2633  -12.9163 C   0  0  2  0  0  0  0  0  0  0  0  0
   28.8398  -18.8631  -12.4853 C   0  0  0  0  0  0  0  0  0  0  0  0
   26.9391  -20.2673  -13.3202 C   0  0  2  0  0  0  0  0  0  0  0  0
   26.6710  -19.1747  -14.2678 N   0  0  0  0  0  0  0  0  0  0  0  0
   26.0988  -19.9495  -12.1433 C   0  0  0  0  0  0  0  0  0  0  0  0
   25.4174  -18.8653  -12.1233 O   0  0  0  0  0  0  0  0  0  0  0  0
   23.5940  -20.3337  -10.4971 C   0  0  0  0  0  0  0  0  0  0  0  0
   25.0087  -20.3971   -9.9561 C   0  0  2  0  0  0  0  0  0  0  0  0
   25.9560  -20.7517  -10.9847 N   0  0  0  0  0  0  0  0  0  0  0  0
   25.1386  -21.3233   -8.8281 C   0  0  0  0  0  0  0  0  0  0  0  0
   25.8581  -22.3396   -8.9372 O   0  0  0  0  0  0  0  0  0  0  0  0
   24.4774  -21.0870   -7.6494 O   0  0  0  0  0  0  0  0  0  0  0  0
  2  1  1  6
  3  4  1  0
  3  2  1  0
  4  5  2  0
  6  5  1  0
  7  6  1  0
  8  7  2  0
  9  8  1  0
 10  9  2  0
 10 11  1  0
 11 12  2  0
 12  7  1  0
 12  4  1  0
 13  2  1  0
 13 14  2  0
 16 15  1  1
 16 17  1  0
 16 18  1  0
 18 19  1  6
 19 13  1  0
 20 18  1  0
 21 20  2  0
 23 22  1  6
 23 24  1  0
 23 25  1  0
 24 20  1  0
 25 27  1  0
 26 25  2  0
M  END
$$$$
