WVA.pdb
     RDKit          3D

 27 28  0  0  1  0  0  0  0  0999 V2000
   27.3445  -20.7277  -13.1980 N   0  0  0  0  0  0  0  0  0  0  0  0
   26.0372  -21.3131  -13.0615 C   0  0  1  0  0  0  0  0  0  0  0  0
   24.9645  -20.3999  -12.5790 C   0  0  0  0  0  0  0  0  0  0  0  0
   25.3735  -19.7275  -11.3376 C   0  0  0  0  0  0  0  0  0  0  0  0
   25.6047  -18.3799  -11.1939 C   0  0  0  0  0  0  0  0  0  0  0  0
   25.9236  -18.1508   -9.9201 N   0  0  0  0  0  0  0  0  0  0  0  0
   25.9033  -19.3275   -9.2371 C   0  0  0  0  0  0  0  0  0  0  0  0
   26.1594  -19.6451   -7.9259 C   0  0  0  0  0  0  0  0  0  0  0  0
   26.0655  -20.9629   -7.5258 C   0  0  0  0  0  0  0  0  0  0  0  0
   25.7259  -21.9692   -8.3889 C   0  0  0  0  0  0  0  0  0  0  0  0
   25.4649  -21.6483   -9.7217 C   0  0  0  0  0  0  0  0  0  0  0  0
   25.5595  -20.3280  -10.1161 C   0  0  0  0  0  0  0  0  0  0  0  0
   25.5919  -21.8618  -14.3823 C   0  0  0  0  0  0  0  0  0  0  0  0
   25.9561  -21.3209  -15.4561 O   0  0  0  0  0  0  0  0  0  0  0  0
   24.5904  -25.6830  -17.1571 C   0  0  0  0  0  0  0  0  0  0  0  0
   25.0224  -24.9195  -15.9400 C   0  0  2  0  0  0  0  0  0  0  0  0
   24.6788  -25.8122  -14.7374 C   0  0  0  0  0  0  0  0  0  0  0  0
   24.4374  -23.5536  -15.7965 C   0  0  2  0  0  0  0  0  0  0  0  0
   24.7516  -22.9991  -14.4708 N   0  0  0  0  0  0  0  0  0  0  0  0
   22.9600  -23.6491  -15.8158 C   0  0  0  0  0  0  0  0  0  0  0  0
   22.3214  -23.8400  -14.7222 O   0  0  0  0  0  0  0  0  0  0  0  0
   20.0038  -22.8347  -17.9332 C   0  0  0  0  0  0  0  0  0  0  0  0
   20.7012  -23.6339  -16.8502 C   0  0  2  0  0  0  0  0  0  0  0  0
   22.1366  -23.5437  -16.9634 N   0  0  0  0  0  0  0  0  0  0  0  0
   20.2967  -25.0422  -16.8417 C   0  0  0  0  0  0  0  0  0  0  0  0
   21.0059  -25.8968  -17.4153 O   0  0  0  0  0  0  0  0  0  0  0  0
   19.1444  -25.4351  -16.2089 O   0  0  0  0  0  0  0  0  0  0  0  0
  2  1  1  6
  3  4  1  0
  3  2  1  0
  4  5  2  0
  6  5  1  0
  7  6  1  0
  8  7  2  0
  9  8  1  0
 10  9  2  0
 10 11  1  0
 11 12  2  0
 12  7  1  0
 12  4  1  0
 13  2  1  0
 13 14  2  0
 16 15  1  6
 16 17  1  0
 16 18  1  0
 18 19  1  1
 19 13  1  0
 20 18  1  0
 21 20  2  0
 23 22  1  6
 23 24  1  0
 23 25  1  0
 24 20  1  0
 25 27  1  0
 26 25  2  0
M  END
$$$$
