WVA.pdb
     RDKit          3D

 27 28  0  0  1  0  0  0  0  0999 V2000
   25.2418  -19.9123  -16.7200 N   0  0  0  0  0  0  0  0  0  0  0  0
   24.9591  -19.3482  -15.4269 C   0  0  1  0  0  0  0  0  0  0  0  0
   23.5291  -19.0351  -15.1542 C   0  0  0  0  0  0  0  0  0  0  0  0
   23.1414  -17.7718  -15.7980 C   0  0  0  0  0  0  0  0  0  0  0  0
   23.9953  -16.7484  -16.1355 C   0  0  0  0  0  0  0  0  0  0  0  0
   23.2782  -15.7924  -16.7258 N   0  0  0  0  0  0  0  0  0  0  0  0
   21.9747  -16.1795  -16.7756 C   0  0  0  0  0  0  0  0  0  0  0  0
   20.8433  -15.5725  -17.2629 C   0  0  0  0  0  0  0  0  0  0  0  0
   19.6331  -16.2277  -17.1552 C   0  0  0  0  0  0  0  0  0  0  0  0
   19.5167  -17.4637  -16.5791 C   0  0  0  0  0  0  0  0  0  0  0  0
   20.6654  -18.0821  -16.0838 C   0  0  0  0  0  0  0  0  0  0  0  0
   21.8736  -17.4223  -16.1951 C   0  0  0  0  0  0  0  0  0  0  0  0
   25.4191  -20.2898  -14.3565 C   0  0  0  0  0  0  0  0  0  0  0  0
   24.9669  -21.4603  -14.2957 O   0  0  0  0  0  0  0  0  0  0  0  0
   29.1225  -19.7209  -12.3285 C   0  0  0  0  0  0  0  0  0  0  0  0
   28.3779  -21.0029  -12.5587 C   0  0  2  0  0  0  0  0  0  0  0  0
   28.8143  -21.5017  -13.9450 C   0  0  0  0  0  0  0  0  0  0  0  0
   26.8918  -20.9120  -12.4490 C   0  0  2  0  0  0  0  0  0  0  0  0
   26.3709  -19.9009  -13.3817 N   0  0  0  0  0  0  0  0  0  0  0  0
   26.5303  -20.3981  -11.1082 C   0  0  0  0  0  0  0  0  0  0  0  0
   26.5095  -19.1353  -10.8962 O   0  0  0  0  0  0  0  0  0  0  0  0
   25.0738  -21.4432   -7.8172 C   0  0  0  0  0  0  0  0  0  0  0  0
   25.9453  -20.5718   -8.6999 C   0  0  2  0  0  0  0  0  0  0  0  0
   26.1850  -21.1861   -9.9830 N   0  0  0  0  0  0  0  0  0  0  0  0
   27.2246  -20.2346   -8.0701 C   0  0  0  0  0  0  0  0  0  0  0  0
   28.2554  -20.8730   -8.3743 O   0  0  0  0  0  0  0  0  0  0  0  0
   27.3046  -19.2226   -7.1470 O   0  0  0  0  0  0  0  0  0  0  0  0
  2  1  1  6
  3  4  1  0
  3  2  1  0
  4  5  2  0
  6  5  1  0
  7  6  1  0
  8  7  2  0
  9  8  1  0
 10  9  2  0
 10 11  1  0
 11 12  2  0
 12  7  1  0
 12  4  1  0
 13  2  1  0
 13 14  2  0
 16 15  1  6
 16 17  1  0
 16 18  1  0
 18 19  1  6
 19 13  1  0
 20 18  1  0
 21 20  2  0
 23 22  1  1
 23 24  1  0
 23 25  1  0
 24 20  1  0
 25 27  1  0
 26 25  2  0
M  END
$$$$
