WVA.pdb
     RDKit          3D

 27 28  0  0  1  0  0  0  0  0999 V2000
   24.6531  -20.5303  -18.4693 N   0  0  0  0  0  0  0  0  0  0  0  0
   24.1991  -20.0525  -17.1902 C   0  0  1  0  0  0  0  0  0  0  0  0
   22.7644  -20.2997  -16.8773 C   0  0  0  0  0  0  0  0  0  0  0  0
   22.3007  -19.3955  -15.8151 C   0  0  0  0  0  0  0  0  0  0  0  0
   22.2220  -18.0259  -15.9052 C   0  0  0  0  0  0  0  0  0  0  0  0
   21.7277  -17.5659  -14.7560 N   0  0  0  0  0  0  0  0  0  0  0  0
   21.4857  -18.6145  -13.9235 C   0  0  0  0  0  0  0  0  0  0  0  0
   20.9941  -18.6903  -12.6434 C   0  0  0  0  0  0  0  0  0  0  0  0
   20.8721  -19.9285  -12.0455 C   0  0  0  0  0  0  0  0  0  0  0  0
   21.2236  -21.0881  -12.6816 C   0  0  0  0  0  0  0  0  0  0  0  0
   21.7229  -21.0131  -13.9826 C   0  0  0  0  0  0  0  0  0  0  0  0
   21.8420  -19.7717  -14.5761 C   0  0  0  0  0  0  0  0  0  0  0  0
   25.0068  -20.6884  -16.1007 C   0  0  0  0  0  0  0  0  0  0  0  0
   25.1573  -21.9350  -16.0594 O   0  0  0  0  0  0  0  0  0  0  0  0
   27.8663  -18.4612  -13.8211 C   0  0  0  0  0  0  0  0  0  0  0  0
   27.8630  -19.9293  -14.1308 C   0  0  2  0  0  0  0  0  0  0  0  0
   28.5623  -20.0755  -15.4912 C   0  0  0  0  0  0  0  0  0  0  0  0
   26.5213  -20.5839  -14.1283 C   0  0  2  0  0  0  0  0  0  0  0  0
   25.6251  -19.9173  -15.0855 N   0  0  0  0  0  0  0  0  0  0  0  0
   25.8766  -20.3744  -12.8120 C   0  0  0  0  0  0  0  0  0  0  0  0
   25.3922  -19.2261  -12.5173 O   0  0  0  0  0  0  0  0  0  0  0  0
   24.7279  -22.1812   -9.7220 C   0  0  0  0  0  0  0  0  0  0  0  0
   25.2545  -20.9816  -10.4846 C   0  0  2  0  0  0  0  0  0  0  0  0
   25.7262  -21.3508  -11.7969 N   0  0  0  0  0  0  0  0  0  0  0  0
   26.3162  -20.2770   -9.7612 C   0  0  0  0  0  0  0  0  0  0  0  0
   27.5073  -20.4150  -10.1145 O   0  0  0  0  0  0  0  0  0  0  0  0
   26.0171  -19.4644   -8.6969 O   0  0  0  0  0  0  0  0  0  0  0  0
  2  1  1  6
  3  4  1  0
  3  2  1  0
  4  5  2  0
  6  5  1  0
  7  6  1  0
  8  7  2  0
  9  8  1  0
 10  9  2  0
 10 11  1  0
 11 12  2  0
 12  7  1  0
 12  4  1  0
 13  2  1  0
 13 14  2  0
 16 15  1  6
 16 17  1  0
 16 18  1  0
 18 19  1  6
 19 13  1  0
 20 18  1  0
 21 20  2  0
 23 22  1  1
 23 24  1  0
 23 25  1  0
 24 20  1  0
 25 27  1  0
 26 25  2  0
M  END
$$$$
