WVA.pdb
     RDKit          3D

 27 28  0  0  1  0  0  0  0  0999 V2000
   24.1423  -19.8078   -9.0643 N   0  0  0  0  0  0  0  0  0  0  0  0
   25.4850  -20.0968   -9.4931 C   0  0  1  0  0  0  0  0  0  0  0  0
   26.1374  -21.2651   -8.8399 C   0  0  0  0  0  0  0  0  0  0  0  0
   26.2146  -21.0713   -7.3849 C   0  0  0  0  0  0  0  0  0  0  0  0
   25.2966  -21.5217   -6.4658 C   0  0  0  0  0  0  0  0  0  0  0  0
   25.7284  -21.1803   -5.2519 N   0  0  0  0  0  0  0  0  0  0  0  0
   26.9100  -20.5160   -5.3698 C   0  0  0  0  0  0  0  0  0  0  0  0
   27.7548  -19.9516   -4.4458 C   0  0  0  0  0  0  0  0  0  0  0  0
   28.9014  -19.3207   -4.8847 C   0  0  0  0  0  0  0  0  0  0  0  0
   29.2302  -19.2354   -6.2104 C   0  0  0  0  0  0  0  0  0  0  0  0
   28.3732  -19.8086   -7.1508 C   0  0  0  0  0  0  0  0  0  0  0  0
   27.2279  -20.4393   -6.7058 C   0  0  0  0  0  0  0  0  0  0  0  0
   25.4974  -20.3498  -10.9695 C   0  0  0  0  0  0  0  0  0  0  0  0
   24.4754  -20.7903  -11.5524 O   0  0  0  0  0  0  0  0  0  0  0  0
   27.2929  -18.1633  -14.9676 C   0  0  0  0  0  0  0  0  0  0  0  0
   27.3969  -18.6385  -13.5483 C   0  0  2  0  0  0  0  0  0  0  0  0
   28.8716  -19.0142  -13.3358 C   0  0  0  0  0  0  0  0  0  0  0  0
   26.4841  -19.7599  -13.1771 C   0  0  2  0  0  0  0  0  0  0  0  0
   26.6497  -20.1056  -11.7569 N   0  0  0  0  0  0  0  0  0  0  0  0
   26.8908  -20.9837  -13.9045 C   0  0  0  0  0  0  0  0  0  0  0  0
   27.9372  -21.6236  -13.5361 O   0  0  0  0  0  0  0  0  0  0  0  0
   25.7017  -23.3782  -16.5603 C   0  0  0  0  0  0  0  0  0  0  0  0
   26.7404  -22.7255  -15.6697 C   0  0  2  0  0  0  0  0  0  0  0  0
   26.2163  -21.5533  -15.0122 N   0  0  0  0  0  0  0  0  0  0  0  0
   27.9641  -22.3756  -16.3959 C   0  0  0  0  0  0  0  0  0  0  0  0
   28.0464  -21.2748  -16.9824 O   0  0  0  0  0  0  0  0  0  0  0  0
   29.0245  -23.2452  -16.4394 O   0  0  0  0  0  0  0  0  0  0  0  0
  2  1  1  1
  3  4  1  0
  3  2  1  0
  4  5  2  0
  6  5  1  0
  7  6  1  0
  8  7  2  0
  9  8  1  0
 10  9  2  0
 10 11  1  0
 11 12  2  0
 12  7  1  0
 12  4  1  0
 13  2  1  0
 13 14  2  0
 16 15  1  6
 16 17  1  0
 16 18  1  0
 18 19  1  1
 19 13  1  0
 20 18  1  0
 21 20  2  0
 23 22  1  6
 23 24  1  0
 23 25  1  0
 24 20  1  0
 25 27  1  0
 26 25  2  0
M  END
$$$$
