WVA.pdb
     RDKit          3D

 27 28  0  0  1  0  0  0  0  0999 V2000
   26.6430  -19.4006  -11.3407 N   0  0  0  0  0  0  0  0  0  0  0  0
   25.9873  -20.6809  -11.3738 C   0  0  1  0  0  0  0  0  0  0  0  0
   26.0767  -21.4882  -10.1257 C   0  0  0  0  0  0  0  0  0  0  0  0
   27.4100  -21.3628   -9.5198 C   0  0  0  0  0  0  0  0  0  0  0  0
   28.5778  -21.8704  -10.0384 C   0  0  0  0  0  0  0  0  0  0  0  0
   29.5741  -21.5252   -9.2231 N   0  0  0  0  0  0  0  0  0  0  0  0
   29.0709  -20.8032   -8.1854 C   0  0  0  0  0  0  0  0  0  0  0  0
   29.6559  -20.2264   -7.0848 C   0  0  0  0  0  0  0  0  0  0  0  0
   28.8604  -19.5523   -6.1802 C   0  0  0  0  0  0  0  0  0  0  0  0
   27.5060  -19.4360   -6.3382 C   0  0  0  0  0  0  0  0  0  0  0  0
   26.9099  -20.0211   -7.4562 C   0  0  0  0  0  0  0  0  0  0  0  0
   27.7108  -20.6936   -8.3584 C   0  0  0  0  0  0  0  0  0  0  0  0
   24.5325  -20.4927  -11.6772 C   0  0  0  0  0  0  0  0  0  0  0  0
   23.8460  -19.6616  -11.0319 O   0  0  0  0  0  0  0  0  0  0  0  0
   23.6613  -19.5591  -15.2124 C   0  0  0  0  0  0  0  0  0  0  0  0
   22.6979  -20.5984  -14.7197 C   0  0  2  0  0  0  0  0  0  0  0  0
   21.3376  -20.2402  -15.3380 C   0  0  0  0  0  0  0  0  0  0  0  0
   22.6082  -20.7402  -13.2363 C   0  0  2  0  0  0  0  0  0  0  0  0
   23.8813  -21.2368  -12.6919 N   0  0  0  0  0  0  0  0  0  0  0  0
   21.6272  -21.7983  -12.9040 C   0  0  0  0  0  0  0  0  0  0  0  0
   21.7735  -22.9750  -13.3879 O   0  0  0  0  0  0  0  0  0  0  0  0
   18.5744  -22.4565  -10.7832 C   0  0  0  0  0  0  0  0  0  0  0  0
   19.5334  -22.7135  -11.9288 C   0  0  2  0  0  0  0  0  0  0  0  0
   20.4941  -21.6462  -12.0678 N   0  0  0  0  0  0  0  0  0  0  0  0
   18.8431  -22.9223  -13.2043 C   0  0  0  0  0  0  0  0  0  0  0  0
   18.4708  -21.9380  -13.8788 O   0  0  0  0  0  0  0  0  0  0  0  0
   18.5999  -24.1903  -13.6686 O   0  0  0  0  0  0  0  0  0  0  0  0
  2  1  1  1
  3  4  1  0
  3  2  1  0
  4  5  2  0
  6  5  1  0
  7  6  1  0
  8  7  2  0
  9  8  1  0
 10  9  2  0
 10 11  1  0
 11 12  2  0
 12  7  1  0
 12  4  1  0
 13  2  1  0
 13 14  2  0
 16 15  1  1
 16 17  1  0
 16 18  1  0
 18 19  1  6
 19 13  1  0
 20 18  1  0
 21 20  2  0
 23 22  1  1
 23 24  1  0
 23 25  1  0
 24 20  1  0
 25 27  1  0
 26 25  2  0
M  END
$$$$
