WVA.pdb
     RDKit          3D

 27 28  0  0  1  0  0  0  0  0999 V2000
   25.9436  -22.0949   -8.5638 N   0  0  0  0  0  0  0  0  0  0  0  0
   25.7813  -20.8606   -9.2852 C   0  0  1  0  0  0  0  0  0  0  0  0
   27.0352  -20.1173   -9.5897 C   0  0  0  0  0  0  0  0  0  0  0  0
   28.0701  -20.4111   -8.5881 C   0  0  0  0  0  0  0  0  0  0  0  0
   29.1364  -21.2614   -8.7621 C   0  0  0  0  0  0  0  0  0  0  0  0
   29.8659  -21.2398   -7.6467 N   0  0  0  0  0  0  0  0  0  0  0  0
   29.2895  -20.3904   -6.7536 C   0  0  0  0  0  0  0  0  0  0  0  0
   29.6254  -20.0186   -5.4750 C   0  0  0  0  0  0  0  0  0  0  0  0
   28.8162  -19.1241   -4.8037 C   0  0  0  0  0  0  0  0  0  0  0  0
   27.6876  -18.5914   -5.3653 C   0  0  0  0  0  0  0  0  0  0  0  0
   27.3449  -18.9677   -6.6647 C   0  0  0  0  0  0  0  0  0  0  0  0
   28.1587  -19.8623   -7.3318 C   0  0  0  0  0  0  0  0  0  0  0  0
   25.0959  -21.1277  -10.5901 C   0  0  0  0  0  0  0  0  0  0  0  0
   25.5067  -22.0353  -11.3553 O   0  0  0  0  0  0  0  0  0  0  0  0
   20.8022  -21.5709  -12.7441 C   0  0  0  0  0  0  0  0  0  0  0  0
   21.7647  -21.1600  -11.6690 C   0  0  2  0  0  0  0  0  0  0  0  0
   21.1309  -19.9432  -10.9772 C   0  0  0  0  0  0  0  0  0  0  0  0
   23.1555  -20.8701  -12.1275 C   0  0  2  0  0  0  0  0  0  0  0  0
   23.9705  -20.3748  -11.0076 N   0  0  0  0  0  0  0  0  0  0  0  0
   23.1293  -19.7455  -13.0903 C   0  0  0  0  0  0  0  0  0  0  0  0
   22.8096  -18.5724  -12.6883 O   0  0  0  0  0  0  0  0  0  0  0  0
   24.2219  -18.8022  -16.5499 C   0  0  0  0  0  0  0  0  0  0  0  0
   23.3574  -18.6592  -15.3129 C   0  0  2  0  0  0  0  0  0  0  0  0
   23.4370  -19.8276  -14.4704 N   0  0  0  0  0  0  0  0  0  0  0  0
   21.9554  -18.3809  -15.6356 C   0  0  0  0  0  0  0  0  0  0  0  0
   21.1284  -19.3174  -15.6757 O   0  0  0  0  0  0  0  0  0  0  0  0
   21.5384  -17.0998  -15.8951 O   0  0  0  0  0  0  0  0  0  0  0  0
  2  1  1  6
  3  4  1  0
  3  2  1  0
  4  5  2  0
  6  5  1  0
  7  6  1  0
  8  7  2  0
  9  8  1  0
 10  9  2  0
 10 11  1  0
 11 12  2  0
 12  7  1  0
 12  4  1  0
 13  2  1  0
 13 14  2  0
 16 15  1  6
 16 17  1  0
 16 18  1  0
 18 19  1  1
 19 13  1  0
 20 18  1  0
 21 20  2  0
 23 22  1  6
 23 24  1  0
 23 25  1  0
 24 20  1  0
 25 27  1  0
 26 25  2  0
M  END
$$$$
