WVA.pdb
     RDKit          3D

 27 28  0  0  1  0  0  0  0  0999 V2000
   28.2717  -20.7147   -9.7664 N   0  0  0  0  0  0  0  0  0  0  0  0
   26.9350  -21.2473   -9.7683 C   0  0  1  0  0  0  0  0  0  0  0  0
   26.1370  -21.0021   -8.5352 C   0  0  0  0  0  0  0  0  0  0  0  0
   26.8718  -20.1334   -7.6046 C   0  0  0  0  0  0  0  0  0  0  0  0
   26.9416  -18.7620   -7.6728 C   0  0  0  0  0  0  0  0  0  0  0  0
   27.6698  -18.3355   -6.6411 N   0  0  0  0  0  0  0  0  0  0  0  0
   28.0729  -19.4075   -5.9066 C   0  0  0  0  0  0  0  0  0  0  0  0
   28.8364  -19.5215   -4.7708 C   0  0  0  0  0  0  0  0  0  0  0  0
   29.0884  -20.7776   -4.2570 C   0  0  0  0  0  0  0  0  0  0  0  0
   28.6049  -21.9185   -4.8380 C   0  0  0  0  0  0  0  0  0  0  0  0
   27.8285  -21.8047   -5.9920 C   0  0  0  0  0  0  0  0  0  0  0  0
   27.5789  -20.5453   -6.5011 C   0  0  0  0  0  0  0  0  0  0  0  0
   26.1658  -20.6698  -10.9167 C   0  0  0  0  0  0  0  0  0  0  0  0
   26.4066  -19.5079  -11.3291 O   0  0  0  0  0  0  0  0  0  0  0  0
   24.7111  -23.2424  -13.8197 C   0  0  0  0  0  0  0  0  0  0  0  0
   25.0533  -21.7899  -13.9749 C   0  0  2  0  0  0  0  0  0  0  0  0
   26.5743  -21.7346  -14.1861 C   0  0  0  0  0  0  0  0  0  0  0  0
   24.6206  -20.9040  -12.8539 C   0  0  2  0  0  0  0  0  0  0  0  0
   25.1476  -21.4034  -11.5745 N   0  0  0  0  0  0  0  0  0  0  0  0
   23.1499  -20.9864  -12.7043 C   0  0  0  0  0  0  0  0  0  0  0  0
   22.6349  -21.9168  -11.9908 O   0  0  0  0  0  0  0  0  0  0  0  0
   19.9993  -19.0565  -13.4321 C   0  0  0  0  0  0  0  0  0  0  0  0
   20.7918  -20.2994  -13.0784 C   0  0  2  0  0  0  0  0  0  0  0  0
   22.2060  -20.1059  -13.2876 N   0  0  0  0  0  0  0  0  0  0  0  0
   20.3430  -21.4821  -13.8180 C   0  0  0  0  0  0  0  0  0  0  0  0
   20.9400  -21.8276  -14.8604 O   0  0  0  0  0  0  0  0  0  0  0  0
   19.2715  -22.2173  -13.3778 O   0  0  0  0  0  0  0  0  0  0  0  0
  2  1  1  1
  3  4  1  0
  3  2  1  0
  4  5  2  0
  6  5  1  0
  7  6  1  0
  8  7  2  0
  9  8  1  0
 10  9  2  0
 10 11  1  0
 11 12  2  0
 12  7  1  0
 12  4  1  0
 13  2  1  0
 13 14  2  0
 16 15  1  1
 16 17  1  0
 16 18  1  0
 18 19  1  1
 19 13  1  0
 20 18  1  0
 21 20  2  0
 23 22  1  6
 23 24  1  0
 23 25  1  0
 24 20  1  0
 25 27  1  0
 26 25  2  0
M  END
$$$$
