ICR.pdb
     RDKit          3D

 26 25  0  0  1  0  0  0  0  0999 V2000
    7.0446  -12.2368   17.3297 C   0  0  0  0  0  0  0  0  0  0  0  0
    7.5342  -13.5396   17.9783 C   0  0  0  0  0  0  0  0  0  0  0  0
    8.0800  -13.2715   19.3566 C   0  0  2  0  0  0  0  0  0  0  0  0
    9.0832  -12.1693   19.3826 C   0  0  0  0  0  0  0  0  0  0  0  0
    8.4826  -14.5280   20.0733 C   0  0  2  0  0  0  0  0  0  0  0  0
    7.4368  -15.5461   19.8278 N   0  0  0  0  0  0  0  0  0  0  0  0
    8.6590  -14.4243   21.5148 C   0  0  0  0  0  0  0  0  0  0  0  0
    9.6377  -13.7620   21.9530 O   0  0  0  0  0  0  0  0  0  0  0  0
    7.8129  -15.0105   22.4869 N   0  0  0  0  0  0  0  0  0  0  0  0
    8.1581  -14.9689   23.8675 C   0  0  1  0  0  0  0  0  0  0  0  0
    6.9703  -14.7951   24.7857 C   0  0  0  0  0  0  0  0  0  0  0  0
    7.3921  -14.9837   26.5207 S   0  0  0  0  0  0  0  0  0  0  0  0
    8.9437  -16.1793   24.2716 C   0  0  0  0  0  0  0  0  0  0  0  0
    8.3428  -17.2783   24.3306 O   0  0  0  0  0  0  0  0  0  0  0  0
   16.0412  -14.8341   21.1557 N   0  0  0  0  0  0  0  0  0  0  0  0
   14.8220  -15.0148   20.4796 C   0  0  0  0  0  0  0  0  0  0  0  0
   14.6570  -14.6556   19.2346 N   0  0  0  0  0  0  0  0  0  0  0  0
   13.6897  -15.6017   21.1071 N   0  0  0  0  0  0  0  0  0  0  0  0
   13.7325  -15.9772   22.5267 C   0  0  0  0  0  0  0  0  0  0  0  0
   12.5152  -16.7798   22.9055 C   0  0  0  0  0  0  0  0  0  0  0  0
   12.4754  -17.2236   24.3157 C   0  0  0  0  0  0  0  0  0  0  0  0
   11.1052  -17.3355   24.8894 C   0  0  2  0  0  0  0  0  0  0  0  0
   10.3257  -16.1332   24.5879 N   0  0  0  0  0  0  0  0  0  0  0  0
   11.2012  -17.5295   26.3598 C   0  0  0  0  0  0  0  0  0  0  0  0
   10.7285  -16.6449   27.0984 O   0  0  0  0  0  0  0  0  0  0  0  0
   11.7987  -18.6645   26.8495 O   0  0  0  0  0  0  0  0  0  0  0  0
  2  1  1  0
  3  4  1  6
  3  2  1  0
  5  3  1  0
  5  6  1  1
  7  8  2  0
  7  5  1  0
  9  7  1  0
 10  9  1  0
 11 12  1  0
 10 11  1  1
 13 14  2  0
 13 10  1  0
 16 15  1  0
 17 16  2  0
 18 16  1  0
 19 18  1  0
 20 21  1  0
 20 19  1  0
 22 21  1  1
 22 23  1  0
 23 13  1  0
 24 22  1  0
 25 24  2  0
 26 24  1  0
M  END
$$$$
