ICR.pdb
     RDKit          3D

 26 25  0  0  1  0  0  0  0  0999 V2000
    7.7115  -16.5874   18.3238 C   0  0  0  0  0  0  0  0  0  0  0  0
    8.3846  -15.4160   19.0535 C   0  0  0  0  0  0  0  0  0  0  0  0
    7.4380  -14.2495   19.1669 C   0  0  2  0  0  0  0  0  0  0  0  0
    6.7813  -13.9034   17.8743 C   0  0  0  0  0  0  0  0  0  0  0  0
    8.0323  -13.0939   19.9191 C   0  0  2  0  0  0  0  0  0  0  0  0
    9.2560  -12.6675   19.2041 N   0  0  0  0  0  0  0  0  0  0  0  0
    8.4028  -13.3437   21.3049 C   0  0  0  0  0  0  0  0  0  0  0  0
    9.5960  -13.6600   21.5588 O   0  0  0  0  0  0  0  0  0  0  0  0
    7.5265  -13.2598   22.4138 N   0  0  0  0  0  0  0  0  0  0  0  0
    7.9707  -13.6224   23.7169 C   0  0  1  0  0  0  0  0  0  0  0  0
    6.9738  -13.3067   24.8082 C   0  0  0  0  0  0  0  0  0  0  0  0
    7.5069  -13.8678   26.4282 S   0  0  0  0  0  0  0  0  0  0  0  0
    8.3571  -15.0688   23.7804 C   0  0  0  0  0  0  0  0  0  0  0  0
    7.5236  -15.9185   23.3861 O   0  0  0  0  0  0  0  0  0  0  0  0
   14.2578  -16.4406   19.0918 N   0  0  0  0  0  0  0  0  0  0  0  0
   13.5283  -15.4652   19.7937 C   0  0  0  0  0  0  0  0  0  0  0  0
   13.7999  -14.1910   19.6987 N   0  0  0  0  0  0  0  0  0  0  0  0
   12.4465  -15.8025   20.6516 N   0  0  0  0  0  0  0  0  0  0  0  0
   12.3199  -17.1609   21.1965 C   0  0  0  0  0  0  0  0  0  0  0  0
   11.0703  -17.2902   22.0280 C   0  0  0  0  0  0  0  0  0  0  0  0
   11.2675  -17.1057   23.4821 C   0  0  0  0  0  0  0  0  0  0  0  0
   10.0088  -16.9221   24.2575 C   0  0  2  0  0  0  0  0  0  0  0  0
    9.6147  -15.5120   24.2646 N   0  0  0  0  0  0  0  0  0  0  0  0
   10.2121  -17.4051   25.6483 C   0  0  0  0  0  0  0  0  0  0  0  0
   10.5180  -18.6012   25.8130 O   0  0  0  0  0  0  0  0  0  0  0  0
   10.0598  -16.5271   26.6928 O   0  0  0  0  0  0  0  0  0  0  0  0
  2  1  1  0
  3  4  1  6
  3  2  1  0
  5  3  1  0
  5  6  1  6
  7  8  2  0
  7  5  1  0
  9  7  1  0
 10  9  1  0
 11 12  1  0
 10 11  1  1
 13 14  2  0
 13 10  1  0
 16 15  1  0
 17 16  2  0
 18 16  1  0
 19 18  1  0
 20 21  1  0
 20 19  1  0
 22 21  1  6
 22 23  1  0
 23 13  1  0
 24 22  1  0
 25 24  2  0
 26 24  1  0
M  END
$$$$
