ICR.pdb
     RDKit          3D

 26 25  0  0  1  0  0  0  0  0999 V2000
    7.3787  -16.5736   18.3316 C   0  0  0  0  0  0  0  0  0  0  0  0
    7.1652  -15.1454   18.8536 C   0  0  0  0  0  0  0  0  0  0  0  0
    7.5714  -15.0450   20.3008 C   0  0  2  0  0  0  0  0  0  0  0  0
    7.0694  -16.1792   21.1276 C   0  0  0  0  0  0  0  0  0  0  0  0
    7.3388  -13.6764   20.8727 C   0  0  2  0  0  0  0  0  0  0  0  0
    8.0571  -12.7006   20.0227 N   0  0  0  0  0  0  0  0  0  0  0  0
    7.7771  -13.4638   22.2448 C   0  0  0  0  0  0  0  0  0  0  0  0
    9.0147  -13.4263   22.4799 O   0  0  0  0  0  0  0  0  0  0  0  0
    6.9214  -13.2904   23.3594 N   0  0  0  0  0  0  0  0  0  0  0  0
    7.4500  -13.2627   24.6810 C   0  0  1  0  0  0  0  0  0  0  0  0
    6.5580  -12.5588   25.6775 C   0  0  0  0  0  0  0  0  0  0  0  0
    7.1542  -12.6886   27.3660 S   0  0  0  0  0  0  0  0  0  0  0  0
    7.7736  -14.6419   25.1697 C   0  0  0  0  0  0  0  0  0  0  0  0
    6.8315  -15.4612   25.2860 O   0  0  0  0  0  0  0  0  0  0  0  0
   13.6363  -18.5748   21.2517 N   0  0  0  0  0  0  0  0  0  0  0  0
   12.4380  -19.1726   21.6795 C   0  0  0  0  0  0  0  0  0  0  0  0
   12.3120  -20.4668   21.8043 N   0  0  0  0  0  0  0  0  0  0  0  0
   11.2858  -18.4068   22.0053 N   0  0  0  0  0  0  0  0  0  0  0  0
   11.3835  -17.2605   22.9186 C   0  0  0  0  0  0  0  0  0  0  0  0
   10.1720  -17.1812   23.8105 C   0  0  0  0  0  0  0  0  0  0  0  0
   10.4679  -17.0341   25.2520 C   0  0  0  0  0  0  0  0  0  0  0  0
    9.3849  -16.3837   26.0415 C   0  0  2  0  0  0  0  0  0  0  0  0
    9.0890  -15.0543   25.5038 N   0  0  0  0  0  0  0  0  0  0  0  0
    9.8058  -16.2802   27.4632 C   0  0  0  0  0  0  0  0  0  0  0  0
   10.0867  -17.3322   28.0678 O   0  0  0  0  0  0  0  0  0  0  0  0
    9.8722  -15.0432   28.0551 O   0  0  0  0  0  0  0  0  0  0  0  0
  2  1  1  0
  3  4  1  1
  3  2  1  0
  5  3  1  0
  5  6  1  6
  7  8  2  0
  7  5  1  0
  9  7  1  0
 10  9  1  0
 11 12  1  0
 10 11  1  1
 13 14  2  0
 13 10  1  0
 16 15  1  0
 17 16  2  0
 18 16  1  0
 19 18  1  0
 20 21  1  0
 20 19  1  0
 22 21  1  6
 22 23  1  0
 23 13  1  0
 24 22  1  0
 25 24  2  0
 26 24  1  0
M  END
$$$$
