ICR.pdb
     RDKit          3D

 26 25  0  0  1  0  0  0  0  0999 V2000
    6.9132  -10.6499   26.2074 C   0  0  0  0  0  0  0  0  0  0  0  0
    7.2322  -12.1368   26.4193 C   0  0  0  0  0  0  0  0  0  0  0  0
    6.4024  -12.9923   25.4979 C   0  0  2  0  0  0  0  0  0  0  0  0
    4.9366  -12.8367   25.7198 C   0  0  0  0  0  0  0  0  0  0  0  0
    6.8973  -14.4078   25.4214 C   0  0  2  0  0  0  0  0  0  0  0  0
    6.3910  -15.1309   26.6094 N   0  0  0  0  0  0  0  0  0  0  0  0
    8.3415  -14.5889   25.3846 C   0  0  0  0  0  0  0  0  0  0  0  0
    8.9780  -14.1322   24.3973 O   0  0  0  0  0  0  0  0  0  0  0  0
    9.1096  -15.2429   26.3779 N   0  0  0  0  0  0  0  0  0  0  0  0
   10.5300  -15.2801   26.2874 C   0  0  1  0  0  0  0  0  0  0  0  0
   11.2304  -14.6196   27.4525 C   0  0  0  0  0  0  0  0  0  0  0  0
   10.4609  -14.9867   29.0326 S   0  0  0  0  0  0  0  0  0  0  0  0
   11.0308  -16.6823   26.1183 C   0  0  0  0  0  0  0  0  0  0  0  0
   10.4628  -17.5925   26.7673 O   0  0  0  0  0  0  0  0  0  0  0  0
   11.7759  -20.1155   19.7300 N   0  0  0  0  0  0  0  0  0  0  0  0
   12.6350  -19.0106   19.8616 C   0  0  0  0  0  0  0  0  0  0  0  0
   13.8595  -19.0234   19.4071 N   0  0  0  0  0  0  0  0  0  0  0  0
   12.2259  -17.8068   20.4971 N   0  0  0  0  0  0  0  0  0  0  0  0
   11.8332  -17.8047   21.9126 C   0  0  0  0  0  0  0  0  0  0  0  0
   12.4914  -18.9397   22.6530 C   0  0  0  0  0  0  0  0  0  0  0  0
   13.3236  -18.5323   23.8056 C   0  0  0  0  0  0  0  0  0  0  0  0
   12.5778  -18.3956   25.0879 C   0  0  2  0  0  0  0  0  0  0  0  0
   12.1113  -17.0188   25.2630 N   0  0  0  0  0  0  0  0  0  0  0  0
   13.4631  -18.7849   26.2166 C   0  0  0  0  0  0  0  0  0  0  0  0
   13.7668  -17.9105   27.0500 O   0  0  0  0  0  0  0  0  0  0  0  0
   13.9099  -20.0803   26.3032 O   0  0  0  0  0  0  0  0  0  0  0  0
  2  1  1  0
  3  4  1  1
  3  2  1  0
  5  3  1  0
  5  6  1  1
  7  8  2  0
  7  5  1  0
  9  7  1  0
 10  9  1  0
 11 12  1  0
 10 11  1  1
 13 14  2  0
 13 10  1  0
 16 15  1  0
 17 16  2  0
 18 16  1  0
 19 18  1  0
 20 21  1  0
 20 19  1  0
 22 21  1  6
 22 23  1  0
 23 13  1  0
 24 22  1  0
 25 24  2  0
 26 24  1  0
M  END
$$$$
