ICR.pdb
     RDKit          3D

 26 25  0  0  1  0  0  0  0  0999 V2000
    6.7389  -11.2693   26.5104 C   0  0  0  0  0  0  0  0  0  0  0  0
    6.3929  -12.7474   26.7414 C   0  0  0  0  0  0  0  0  0  0  0  0
    7.3151  -13.6366   25.9488 C   0  0  2  0  0  0  0  0  0  0  0  0
    7.4356  -13.2269   24.5207 C   0  0  0  0  0  0  0  0  0  0  0  0
    7.0520  -15.0964   26.1819 C   0  0  2  0  0  0  0  0  0  0  0  0
    6.9371  -15.3100   27.6419 N   0  0  0  0  0  0  0  0  0  0  0  0
    8.0576  -16.0242   25.6841 C   0  0  0  0  0  0  0  0  0  0  0  0
    9.1521  -16.1108   26.3030 O   0  0  0  0  0  0  0  0  0  0  0  0
    7.9127  -16.8549   24.5468 N   0  0  0  0  0  0  0  0  0  0  0  0
    8.9811  -17.6948   24.1226 C   0  0  1  0  0  0  0  0  0  0  0  0
    8.6002  -19.1533   24.0122 C   0  0  0  0  0  0  0  0  0  0  0  0
    9.8850  -20.1585   23.2623 S   0  0  0  0  0  0  0  0  0  0  0  0
    9.5688  -17.2207   22.8282 C   0  0  0  0  0  0  0  0  0  0  0  0
    8.7871  -16.9976   21.8736 O   0  0  0  0  0  0  0  0  0  0  0  0
    8.5646  -11.7199   18.3108 N   0  0  0  0  0  0  0  0  0  0  0  0
    8.4791  -13.1228   18.2775 C   0  0  0  0  0  0  0  0  0  0  0  0
    7.5002  -13.7461   17.6781 N   0  0  0  0  0  0  0  0  0  0  0  0
    9.4539  -13.9540   18.8933 N   0  0  0  0  0  0  0  0  0  0  0  0
   10.7419  -13.3986   19.3299 C   0  0  0  0  0  0  0  0  0  0  0  0
   11.6095  -14.4706   19.9363 C   0  0  0  0  0  0  0  0  0  0  0  0
   11.0609  -15.0998   21.1571 C   0  0  0  0  0  0  0  0  0  0  0  0
   11.5180  -16.4984   21.3896 C   0  0  2  0  0  0  0  0  0  0  0  0
   10.9599  -17.0167   22.6402 N   0  0  0  0  0  0  0  0  0  0  0  0
   13.0031  -16.5296   21.4386 C   0  0  0  0  0  0  0  0  0  0  0  0
   13.5464  -16.8279   22.5190 O   0  0  0  0  0  0  0  0  0  0  0  0
   13.7184  -16.2339   20.3046 O   0  0  0  0  0  0  0  0  0  0  0  0
  2  1  1  0
  3  4  1  6
  3  2  1  0
  5  3  1  0
  5  6  1  1
  7  8  2  0
  7  5  1  0
  9  7  1  0
 10  9  1  0
 11 12  1  0
 10 11  1  6
 13 14  2  0
 13 10  1  0
 16 15  1  0
 17 16  2  0
 18 16  1  0
 19 18  1  0
 20 21  1  0
 20 19  1  0
 22 21  1  1
 22 23  1  0
 23 13  1  0
 24 22  1  0
 25 24  2  0
 26 24  1  0
M  END
$$$$
