ICR.pdb
     RDKit          3D

 26 25  0  0  1  0  0  0  0  0999 V2000
    5.5919  -11.5589   27.5138 C   0  0  0  0  0  0  0  0  0  0  0  0
    5.6171  -12.8790   26.7299 C   0  0  0  0  0  0  0  0  0  0  0  0
    6.9664  -13.0911   26.0945 C   0  0  2  0  0  0  0  0  0  0  0  0
    7.4487  -11.9004   25.3382 C   0  0  0  0  0  0  0  0  0  0  0  0
    7.0632  -14.4009   25.3668 C   0  0  2  0  0  0  0  0  0  0  0  0
    6.1702  -15.3655   26.0469 N   0  0  0  0  0  0  0  0  0  0  0  0
    8.3850  -15.0072   25.2955 C   0  0  0  0  0  0  0  0  0  0  0  0
    9.2770  -14.4232   24.6235 O   0  0  0  0  0  0  0  0  0  0  0  0
    8.7658  -16.2159   25.9269 N   0  0  0  0  0  0  0  0  0  0  0  0
   10.0808  -16.7360   25.7622 C   0  0  1  0  0  0  0  0  0  0  0  0
   10.4414  -17.8053   26.7677 C   0  0  0  0  0  0  0  0  0  0  0  0
   10.1477  -17.2991   28.4650 S   0  0  0  0  0  0  0  0  0  0  0  0
   10.2958  -17.2493   24.3709 C   0  0  0  0  0  0  0  0  0  0  0  0
    9.5849  -18.2052   23.9798 O   0  0  0  0  0  0  0  0  0  0  0  0
    6.9994  -12.5193   20.3551 N   0  0  0  0  0  0  0  0  0  0  0  0
    8.2237  -12.8836   19.7680 C   0  0  0  0  0  0  0  0  0  0  0  0
    9.0897  -11.9961   19.3574 N   0  0  0  0  0  0  0  0  0  0  0  0
    8.5991  -14.2422   19.5843 N   0  0  0  0  0  0  0  0  0  0  0  0
    9.9920  -14.6660   19.7796 C   0  0  0  0  0  0  0  0  0  0  0  0
   10.0819  -15.7448   20.8273 C   0  0  0  0  0  0  0  0  0  0  0  0
   11.4524  -16.2185   21.1179 C   0  0  0  0  0  0  0  0  0  0  0  0
   11.5315  -17.2745   22.1657 C   0  0  2  0  0  0  0  0  0  0  0  0
   11.2620  -16.7039   23.4870 N   0  0  0  0  0  0  0  0  0  0  0  0
   12.8824  -17.8938   22.1400 C   0  0  0  0  0  0  0  0  0  0  0  0
   13.6156  -17.7390   23.1349 O   0  0  0  0  0  0  0  0  0  0  0  0
   13.2719  -18.6089   21.0346 O   0  0  0  0  0  0  0  0  0  0  0  0
  2  1  1  0
  3  4  1  6
  3  2  1  0
  5  3  1  0
  5  6  1  1
  7  8  2  0
  7  5  1  0
  9  7  1  0
 10  9  1  0
 11 12  1  0
 10 11  1  1
 13 14  2  0
 13 10  1  0
 16 15  1  0
 17 16  2  0
 18 16  1  0
 19 18  1  0
 20 21  1  0
 20 19  1  0
 22 21  1  6
 22 23  1  0
 23 13  1  0
 24 22  1  0
 25 24  2  0
 26 24  1  0
M  END
$$$$
