ICR.pdb
     RDKit          3D

 26 25  0  0  1  0  0  0  0  0999 V2000
    7.1116  -11.1861   28.3468 C   0  0  0  0  0  0  0  0  0  0  0  0
    6.1377  -11.7153   27.2841 C   0  0  0  0  0  0  0  0  0  0  0  0
    6.8321  -12.6899   26.3690 C   0  0  2  0  0  0  0  0  0  0  0  0
    8.1710  -12.2144   25.9182 C   0  0  0  0  0  0  0  0  0  0  0  0
    5.9314  -13.2066   25.2844 C   0  0  2  0  0  0  0  0  0  0  0  0
    4.7438  -13.8103   25.9291 N   0  0  0  0  0  0  0  0  0  0  0  0
    6.4986  -14.2080   24.3926 C   0  0  0  0  0  0  0  0  0  0  0  0
    6.4151  -15.4214   24.7231 O   0  0  0  0  0  0  0  0  0  0  0  0
    7.1463  -13.9360   23.1634 N   0  0  0  0  0  0  0  0  0  0  0  0
    7.5369  -14.9984   22.2999 C   0  0  1  0  0  0  0  0  0  0  0  0
    7.7817  -14.5630   20.8734 C   0  0  0  0  0  0  0  0  0  0  0  0
    9.1899  -13.4615   20.7086 S   0  0  0  0  0  0  0  0  0  0  0  0
    8.7402  -15.7184   22.8281 C   0  0  0  0  0  0  0  0  0  0  0  0
    9.5348  -15.0798   23.5582 O   0  0  0  0  0  0  0  0  0  0  0  0
   12.0114  -24.1723   21.8819 N   0  0  0  0  0  0  0  0  0  0  0  0
   12.9121  -23.4162   22.6524 C   0  0  0  0  0  0  0  0  0  0  0  0
   13.9992  -23.9337   23.1589 N   0  0  0  0  0  0  0  0  0  0  0  0
   12.6983  -22.0385   22.9291 N   0  0  0  0  0  0  0  0  0  0  0  0
   11.4332  -21.3893   22.5602 C   0  0  0  0  0  0  0  0  0  0  0  0
   11.4490  -19.9312   22.9386 C   0  0  0  0  0  0  0  0  0  0  0  0
   10.2253  -19.1814   22.5813 C   0  0  0  0  0  0  0  0  0  0  0  0
   10.2474  -17.7431   22.9685 C   0  0  2  0  0  0  0  0  0  0  0  0
    9.0151  -17.0795   22.5383 N   0  0  0  0  0  0  0  0  0  0  0  0
   11.4276  -17.0845   22.3501 C   0  0  0  0  0  0  0  0  0  0  0  0
   11.3305  -16.6993   21.1696 O   0  0  0  0  0  0  0  0  0  0  0  0
   12.5714  -16.9228   23.0921 O   0  0  0  0  0  0  0  0  0  0  0  0
  2  1  1  0
  3  4  1  6
  3  2  1  0
  5  3  1  0
  5  6  1  1
  7  8  2  0
  7  5  1  0
  9  7  1  0
 10  9  1  0
 11 12  1  0
 10 11  1  6
 13 14  2  0
 13 10  1  0
 16 15  1  0
 17 16  2  0
 18 16  1  0
 19 18  1  0
 20 21  1  0
 20 19  1  0
 22 21  1  6
 22 23  1  0
 23 13  1  0
 24 22  1  0
 25 24  2  0
 26 24  1  0
M  END
$$$$
