ICR.pdb
     RDKit          3D

 26 25  0  0  1  0  0  0  0  0999 V2000
    6.9653  -15.2795   15.9920 C   0  0  0  0  0  0  0  0  0  0  0  0
    8.2616  -14.4736   16.1593 C   0  0  0  0  0  0  0  0  0  0  0  0
    8.7741  -14.5833   17.5716 C   0  0  2  0  0  0  0  0  0  0  0  0
    9.1469  -15.9760   17.9503 C   0  0  0  0  0  0  0  0  0  0  0  0
    7.9081  -13.8555   18.5589 C   0  0  2  0  0  0  0  0  0  0  0  0
    7.8074  -12.4450   18.1219 N   0  0  0  0  0  0  0  0  0  0  0  0
    8.3637  -13.8511   19.9417 C   0  0  0  0  0  0  0  0  0  0  0  0
    9.4892  -13.3464   20.2005 O   0  0  0  0  0  0  0  0  0  0  0  0
    7.6414  -14.3712   21.0428 N   0  0  0  0  0  0  0  0  0  0  0  0
    8.2433  -14.4528   22.3304 C   0  0  1  0  0  0  0  0  0  0  0  0
    7.2639  -14.7570   23.4406 C   0  0  0  0  0  0  0  0  0  0  0  0
    8.0592  -14.9855   25.0339 S   0  0  0  0  0  0  0  0  0  0  0  0
    9.3625  -15.4491   22.3490 C   0  0  0  0  0  0  0  0  0  0  0  0
    9.1293  -16.6044   21.9211 O   0  0  0  0  0  0  0  0  0  0  0  0
   16.0920  -16.1663   18.0893 N   0  0  0  0  0  0  0  0  0  0  0  0
   16.1918  -15.1281   19.0320 C   0  0  0  0  0  0  0  0  0  0  0  0
   16.9203  -14.0646   18.8211 N   0  0  0  0  0  0  0  0  0  0  0  0
   15.5051  -15.1682   20.2757 N   0  0  0  0  0  0  0  0  0  0  0  0
   14.6535  -16.3136   20.6230 C   0  0  0  0  0  0  0  0  0  0  0  0
   14.1902  -16.2225   22.0537 C   0  0  0  0  0  0  0  0  0  0  0  0
   13.0147  -15.3525   22.2738 C   0  0  0  0  0  0  0  0  0  0  0  0
   11.7856  -16.0736   22.7081 C   0  0  2  0  0  0  0  0  0  0  0  0
   10.6623  -15.1420   22.8271 N   0  0  0  0  0  0  0  0  0  0  0  0
   12.0402  -16.7398   24.0121 C   0  0  0  0  0  0  0  0  0  0  0  0
   12.8725  -17.6659   24.0429 O   0  0  0  0  0  0  0  0  0  0  0  0
   11.3591  -16.3161   25.1265 O   0  0  0  0  0  0  0  0  0  0  0  0
  2  1  1  0
  3  4  1  1
  3  2  1  0
  5  3  1  0
  5  6  1  6
  7  8  2  0
  7  5  1  0
  9  7  1  0
 10  9  1  0
 11 12  1  0
 10 11  1  1
 13 14  2  0
 13 10  1  0
 16 15  1  0
 17 16  2  0
 18 16  1  0
 19 18  1  0
 20 21  1  0
 20 19  1  0
 22 21  1  1
 22 23  1  0
 23 13  1  0
 24 22  1  0
 25 24  2  0
 26 24  1  0
M  END
$$$$
