ICR.pdb
     RDKit          3D

 26 25  0  0  1  0  0  0  0  0999 V2000
    6.5192  -16.3948   18.8826 C   0  0  0  0  0  0  0  0  0  0  0  0
    6.5319  -14.9841   19.4888 C   0  0  0  0  0  0  0  0  0  0  0  0
    7.0795  -15.0164   20.8919 C   0  0  2  0  0  0  0  0  0  0  0  0
    6.4893  -16.1036   21.7235 C   0  0  0  0  0  0  0  0  0  0  0  0
    7.1102  -13.6584   21.5317 C   0  0  2  0  0  0  0  0  0  0  0  0
    7.8989  -12.7618   20.6572 N   0  0  0  0  0  0  0  0  0  0  0  0
    7.6876  -13.5830   22.8662 C   0  0  0  0  0  0  0  0  0  0  0  0
    8.9377  -13.6897   22.9855 O   0  0  0  0  0  0  0  0  0  0  0  0
    6.9569  -13.3955   24.0643 N   0  0  0  0  0  0  0  0  0  0  0  0
    7.6108  -13.4513   25.3277 C   0  0  1  0  0  0  0  0  0  0  0  0
    6.8125  -12.8339   26.4528 C   0  0  0  0  0  0  0  0  0  0  0  0
    6.4235  -11.1042   26.1692 S   0  0  0  0  0  0  0  0  0  0  0  0
    7.9941  -14.8556   25.6837 C   0  0  0  0  0  0  0  0  0  0  0  0
    7.1519  -15.7634   25.4867 O   0  0  0  0  0  0  0  0  0  0  0  0
   14.2559  -20.1163   22.9840 N   0  0  0  0  0  0  0  0  0  0  0  0
   13.6032  -20.8130   24.0160 C   0  0  0  0  0  0  0  0  0  0  0  0
   13.8470  -22.0712   24.2684 N   0  0  0  0  0  0  0  0  0  0  0  0
   12.6362  -20.1925   24.8527 N   0  0  0  0  0  0  0  0  0  0  0  0
   12.2350  -18.7978   24.6248 C   0  0  0  0  0  0  0  0  0  0  0  0
   11.2462  -18.3475   25.6684 C   0  0  0  0  0  0  0  0  0  0  0  0
   10.6618  -17.0089   25.4365 C   0  0  0  0  0  0  0  0  0  0  0  0
    9.6679  -16.5831   26.4612 C   0  0  2  0  0  0  0  0  0  0  0  0
    9.2580  -15.1966   26.2299 N   0  0  0  0  0  0  0  0  0  0  0  0
   10.2655  -16.7226   27.8149 C   0  0  0  0  0  0  0  0  0  0  0  0
   10.5070  -15.6832   28.4573 O   0  0  0  0  0  0  0  0  0  0  0  0
   10.5266  -17.9774   28.3072 O   0  0  0  0  0  0  0  0  0  0  0  0
  2  1  1  0
  3  4  1  1
  3  2  1  0
  5  3  1  0
  5  6  1  6
  7  8  2  0
  7  5  1  0
  9  7  1  0
 10  9  1  0
 11 12  1  0
 10 11  1  1
 13 14  2  0
 13 10  1  0
 16 15  1  0
 17 16  2  0
 18 16  1  0
 19 18  1  0
 20 21  1  0
 20 19  1  0
 22 21  1  6
 22 23  1  0
 23 13  1  0
 24 22  1  0
 25 24  2  0
 26 24  1  0
M  END
$$$$
