ICR.pdb
     RDKit          3D

 26 25  0  0  1  0  0  0  0  0999 V2000
    8.2918  -15.3309   14.6728 C   0  0  0  0  0  0  0  0  0  0  0  0
    7.6940  -14.3570   15.6985 C   0  0  0  0  0  0  0  0  0  0  0  0
    8.2977  -14.5860   17.0596 C   0  0  2  0  0  0  0  0  0  0  0  0
    8.4292  -16.0304   17.4038 C   0  0  0  0  0  0  0  0  0  0  0  0
    7.6765  -13.7234   18.1200 C   0  0  2  0  0  0  0  0  0  0  0  0
    7.9317  -12.3099   17.7630 N   0  0  0  0  0  0  0  0  0  0  0  0
    8.1556  -13.9219   19.4805 C   0  0  0  0  0  0  0  0  0  0  0  0
    9.3226  -13.5416   19.7666 O   0  0  0  0  0  0  0  0  0  0  0  0
    7.4134  -14.5135   20.5310 N   0  0  0  0  0  0  0  0  0  0  0  0
    8.0115  -14.7376   21.8034 C   0  0  1  0  0  0  0  0  0  0  0  0
    7.0381  -15.2145   22.8567 C   0  0  0  0  0  0  0  0  0  0  0  0
    7.8138  -15.4985   24.4508 S   0  0  0  0  0  0  0  0  0  0  0  0
    9.1653  -15.6887   21.7057 C   0  0  0  0  0  0  0  0  0  0  0  0
    9.2032  -16.4692   20.7251 O   0  0  0  0  0  0  0  0  0  0  0  0
   15.8399  -13.6705   18.1604 N   0  0  0  0  0  0  0  0  0  0  0  0
   16.0751  -15.0148   18.4978 C   0  0  0  0  0  0  0  0  0  0  0  0
   17.1724  -15.6360   18.1567 N   0  0  0  0  0  0  0  0  0  0  0  0
   15.1339  -15.7851   19.2334 N   0  0  0  0  0  0  0  0  0  0  0  0
   13.8059  -15.2416   19.5481 C   0  0  0  0  0  0  0  0  0  0  0  0
   13.5672  -15.2379   21.0355 C   0  0  0  0  0  0  0  0  0  0  0  0
   12.1641  -15.0049   21.4409 C   0  0  0  0  0  0  0  0  0  0  0  0
   11.5896  -16.0658   22.3148 C   0  0  2  0  0  0  0  0  0  0  0  0
   10.2060  -15.7424   22.6681 N   0  0  0  0  0  0  0  0  0  0  0  0
   12.4165  -16.1935   23.5432 C   0  0  0  0  0  0  0  0  0  0  0  0
   11.9108  -15.8462   24.6271 O   0  0  0  0  0  0  0  0  0  0  0  0
   13.6943  -16.6859   23.4439 O   0  0  0  0  0  0  0  0  0  0  0  0
  2  1  1  0
  3  4  1  1
  3  2  1  0
  5  3  1  0
  5  6  1  6
  7  8  2  0
  7  5  1  0
  9  7  1  0
 10  9  1  0
 11 12  1  0
 10 11  1  1
 13 14  2  0
 13 10  1  0
 16 15  1  0
 17 16  2  0
 18 16  1  0
 19 18  1  0
 20 21  1  0
 20 19  1  0
 22 21  1  6
 22 23  1  0
 23 13  1  0
 24 22  1  0
 25 24  2  0
 26 24  1  0
M  END
$$$$
