ICR.pdb
     RDKit          3D

 26 25  0  0  1  0  0  0  0  0999 V2000
    5.4019  -10.7605   26.4968 C   0  0  0  0  0  0  0  0  0  0  0  0
    5.8306  -12.0334   27.2411 C   0  0  0  0  0  0  0  0  0  0  0  0
    6.7531  -12.8613   26.3849 C   0  0  2  0  0  0  0  0  0  0  0  0
    7.9787  -12.1236   25.9658 C   0  0  0  0  0  0  0  0  0  0  0  0
    6.0284  -13.5856   25.2874 C   0  0  2  0  0  0  0  0  0  0  0  0
    4.9900  -14.4352   25.9122 N   0  0  0  0  0  0  0  0  0  0  0  0
    6.8365  -14.4437   24.4328 C   0  0  0  0  0  0  0  0  0  0  0  0
    7.1594  -15.5840   24.8616 O   0  0  0  0  0  0  0  0  0  0  0  0
    7.2995  -14.1063   23.1380 N   0  0  0  0  0  0  0  0  0  0  0  0
    8.0433  -15.0444   22.3675 C   0  0  1  0  0  0  0  0  0  0  0  0
    8.3516  -14.5705   20.9658 C   0  0  0  0  0  0  0  0  0  0  0  0
    9.2792  -15.7727   20.0077 S   0  0  0  0  0  0  0  0  0  0  0  0
    9.3099  -15.4415   23.0629 C   0  0  0  0  0  0  0  0  0  0  0  0
   10.1065  -14.5334   23.3991 O   0  0  0  0  0  0  0  0  0  0  0  0
    9.6571  -21.0355   29.1438 N   0  0  0  0  0  0  0  0  0  0  0  0
    9.3694  -20.0568   28.1766 C   0  0  0  0  0  0  0  0  0  0  0  0
    8.1990  -19.9681   27.6033 N   0  0  0  0  0  0  0  0  0  0  0  0
   10.3337  -19.0991   27.7605 N   0  0  0  0  0  0  0  0  0  0  0  0
   11.5265  -19.5159   27.0113 C   0  0  0  0  0  0  0  0  0  0  0  0
   11.8061  -18.5649   25.8768 C   0  0  0  0  0  0  0  0  0  0  0  0
   10.6253  -18.1993   25.0649 C   0  0  0  0  0  0  0  0  0  0  0  0
   10.8878  -17.1674   24.0230 C   0  0  2  0  0  0  0  0  0  0  0  0
    9.6419  -16.7898   23.3530 N   0  0  0  0  0  0  0  0  0  0  0  0
   11.8606  -17.7018   23.0345 C   0  0  0  0  0  0  0  0  0  0  0  0
   13.0747  -17.5555   23.2710 O   0  0  0  0  0  0  0  0  0  0  0  0
   11.3944  -18.3332   21.9080 O   0  0  0  0  0  0  0  0  0  0  0  0
  2  1  1  0
  3  4  1  6
  3  2  1  0
  5  3  1  0
  5  6  1  1
  7  8  2  0
  7  5  1  0
  9  7  1  0
 10  9  1  0
 11 12  1  0
 10 11  1  6
 13 14  2  0
 13 10  1  0
 16 15  1  0
 17 16  2  0
 18 16  1  0
 19 18  1  0
 20 21  1  0
 20 19  1  0
 22 21  1  1
 22 23  1  0
 23 13  1  0
 24 22  1  0
 25 24  2  0
 26 24  1  0
M  END
$$$$
