ICR.pdb
     RDKit          3D

 26 25  0  0  1  0  0  0  0  0999 V2000
    6.4569  -13.5500   18.2805 C   0  0  0  0  0  0  0  0  0  0  0  0
    7.5961  -14.5221   18.6198 C   0  0  0  0  0  0  0  0  0  0  0  0
    7.7445  -14.6626   20.1124 C   0  0  2  0  0  0  0  0  0  0  0  0
    6.5970  -15.3701   20.7486 C   0  0  0  0  0  0  0  0  0  0  0  0
    8.1607  -13.3812   20.7750 C   0  0  2  0  0  0  0  0  0  0  0  0
    9.4129  -12.9232   20.1325 N   0  0  0  0  0  0  0  0  0  0  0  0
    8.4044  -13.4419   22.2091 C   0  0  0  0  0  0  0  0  0  0  0  0
    9.4919  -13.9352   22.6121 O   0  0  0  0  0  0  0  0  0  0  0  0
    7.5132  -12.9864   23.2105 N   0  0  0  0  0  0  0  0  0  0  0  0
    7.8110  -13.1823   24.5888 C   0  0  1  0  0  0  0  0  0  0  0  0
    6.8435  -12.4932   25.5233 C   0  0  0  0  0  0  0  0  0  0  0  0
    7.2693  -12.7057   27.2545 S   0  0  0  0  0  0  0  0  0  0  0  0
    7.8990  -14.6394   24.9277 C   0  0  0  0  0  0  0  0  0  0  0  0
    7.2277  -15.4451   24.2405 O   0  0  0  0  0  0  0  0  0  0  0  0
   12.3154  -20.8484   25.0294 N   0  0  0  0  0  0  0  0  0  0  0  0
   11.7908  -20.8102   23.7257 C   0  0  0  0  0  0  0  0  0  0  0  0
   11.5358  -21.8963   23.0462 N   0  0  0  0  0  0  0  0  0  0  0  0
   11.5026  -19.5864   23.0627 N   0  0  0  0  0  0  0  0  0  0  0  0
   11.7557  -18.2997   23.7249 C   0  0  0  0  0  0  0  0  0  0  0  0
   10.7786  -18.0745   24.8492 C   0  0  0  0  0  0  0  0  0  0  0  0
   10.1606  -16.7312   24.8780 C   0  0  0  0  0  0  0  0  0  0  0  0
    9.2113  -16.5123   26.0050 C   0  0  2  0  0  0  0  0  0  0  0  0
    8.7022  -15.1396   25.9845 N   0  0  0  0  0  0  0  0  0  0  0  0
    9.9035  -16.7838   27.2919 C   0  0  0  0  0  0  0  0  0  0  0  0
   10.7082  -15.9320   27.7141 O   0  0  0  0  0  0  0  0  0  0  0  0
    9.6348  -17.9496   27.9656 O   0  0  0  0  0  0  0  0  0  0  0  0
  2  1  1  0
  3  4  1  1
  3  2  1  0
  5  3  1  0
  5  6  1  6
  7  8  2  0
  7  5  1  0
  9  7  1  0
 10  9  1  0
 11 12  1  0
 10 11  1  1
 13 14  2  0
 13 10  1  0
 16 15  1  0
 17 16  2  0
 18 16  1  0
 19 18  1  0
 20 21  1  0
 20 19  1  0
 22 21  1  6
 22 23  1  0
 23 13  1  0
 24 22  1  0
 25 24  2  0
 26 24  1  0
M  END
$$$$
