ICR.pdb
     RDKit          3D

 26 25  0  0  1  0  0  0  0  0999 V2000
    7.7659  -16.0273   19.1610 C   0  0  0  0  0  0  0  0  0  0  0  0
    8.3419  -14.8209   19.9163 C   0  0  0  0  0  0  0  0  0  0  0  0
    7.3420  -13.6947   19.9553 C   0  0  2  0  0  0  0  0  0  0  0  0
    6.8116  -13.3388   18.6085 C   0  0  0  0  0  0  0  0  0  0  0  0
    7.8064  -12.5383   20.7928 C   0  0  2  0  0  0  0  0  0  0  0  0
    9.0371  -11.9954   20.1755 N   0  0  0  0  0  0  0  0  0  0  0  0
    8.1102  -12.8278   22.1870 C   0  0  0  0  0  0  0  0  0  0  0  0
    9.3156  -12.9908   22.5166 O   0  0  0  0  0  0  0  0  0  0  0  0
    7.1549  -12.9431   23.2256 N   0  0  0  0  0  0  0  0  0  0  0  0
    7.5526  -13.3347   24.5353 C   0  0  1  0  0  0  0  0  0  0  0  0
    6.5238  -13.0291   25.5995 C   0  0  0  0  0  0  0  0  0  0  0  0
    6.9873  -13.6467   27.2204 S   0  0  0  0  0  0  0  0  0  0  0  0
    7.9224  -14.7861   24.5836 C   0  0  0  0  0  0  0  0  0  0  0  0
    7.0344  -15.6290   24.3129 O   0  0  0  0  0  0  0  0  0  0  0  0
   13.2174  -14.8042   19.7977 N   0  0  0  0  0  0  0  0  0  0  0  0
   12.3952  -15.9179   19.5529 C   0  0  0  0  0  0  0  0  0  0  0  0
   12.1492  -16.3489   18.3446 N   0  0  0  0  0  0  0  0  0  0  0  0
   11.7789  -16.6480   20.6052 N   0  0  0  0  0  0  0  0  0  0  0  0
   11.8694  -16.1783   21.9941 C   0  0  0  0  0  0  0  0  0  0  0  0
   10.5685  -16.4002   22.7206 C   0  0  0  0  0  0  0  0  0  0  0  0
   10.7026  -16.9693   24.0790 C   0  0  0  0  0  0  0  0  0  0  0  0
    9.5659  -16.6629   24.9919 C   0  0  2  0  0  0  0  0  0  0  0  0
    9.2229  -15.2412   24.9207 N   0  0  0  0  0  0  0  0  0  0  0  0
    9.9378  -17.0321   26.3827 C   0  0  0  0  0  0  0  0  0  0  0  0
   10.1983  -18.2265   26.6208 O   0  0  0  0  0  0  0  0  0  0  0  0
    9.9832  -16.0557   27.3470 O   0  0  0  0  0  0  0  0  0  0  0  0
  2  1  1  0
  3  4  1  6
  3  2  1  0
  5  3  1  0
  5  6  1  6
  7  8  2  0
  7  5  1  0
  9  7  1  0
 10  9  1  0
 11 12  1  0
 10 11  1  1
 13 14  2  0
 13 10  1  0
 16 15  1  0
 17 16  2  0
 18 16  1  0
 19 18  1  0
 20 21  1  0
 20 19  1  0
 22 21  1  6
 22 23  1  0
 23 13  1  0
 24 22  1  0
 25 24  2  0
 26 24  1  0
M  END
$$$$
