HNN.pdb
     RDKit          3D

 27 27  0  0  1  0  0  0  0  0999 V2000
    8.7348  -17.3776   17.6947 N   0  0  0  0  0  0  0  0  0  0  0  0
    9.7913  -16.6219   18.3098 C   0  0  1  0  0  0  0  0  0  0  0  0
    9.2362  -15.7929   19.4500 C   0  0  0  0  0  0  0  0  0  0  0  0
    8.3790  -14.7474   18.8575 C   0  0  0  0  0  0  0  0  0  0  0  0
    8.0883  -14.6108   17.5266 C   0  0  0  0  0  0  0  0  0  0  0  0
    7.2835  -13.5477   17.3895 N   0  0  0  0  0  0  0  0  0  0  0  0
    7.0886  -13.0467   18.6191 C   0  0  0  0  0  0  0  0  0  0  0  0
    7.7566  -13.7770   19.5208 N   0  0  0  0  0  0  0  0  0  0  0  0
   10.8338  -17.5237   18.8961 C   0  0  0  0  0  0  0  0  0  0  0  0
   10.5956  -18.7312   19.1495 O   0  0  0  0  0  0  0  0  0  0  0  0
   15.5215  -19.4523   20.3544 N   0  0  0  0  0  0  0  0  0  0  0  0
   15.6259  -18.2991   19.5346 C   0  0  0  0  0  0  0  0  0  0  0  0
   16.7624  -17.9875   19.1020 O   0  0  0  0  0  0  0  0  0  0  0  0
   14.4694  -17.4795   19.1857 C   0  0  0  0  0  0  0  0  0  0  0  0
   13.1524  -17.9688   19.7290 C   0  0  2  0  0  0  0  0  0  0  0  0
   12.1420  -17.0510   19.1927 N   0  0  0  0  0  0  0  0  0  0  0  0
   13.1264  -17.7762   21.2017 C   0  0  0  0  0  0  0  0  0  0  0  0
   13.0415  -16.6033   21.7068 O   0  0  0  0  0  0  0  0  0  0  0  0
   10.1244  -19.4748   25.9088 N   0  0  0  0  0  0  0  0  0  0  0  0
   11.1568  -18.7373   25.2865 C   0  0  0  0  0  0  0  0  0  0  0  0
   11.7580  -17.8728   25.9556 O   0  0  0  0  0  0  0  0  0  0  0  0
   11.5102  -18.9798   23.8994 C   0  0  0  0  0  0  0  0  0  0  0  0
   12.9266  -18.6145   23.5420 C   0  0  2  0  0  0  0  0  0  0  0  0
   13.1915  -18.8422   22.1358 N   0  0  0  0  0  0  0  0  0  0  0  0
   13.9155  -19.3327   24.3999 C   0  0  0  0  0  0  0  0  0  0  0  0
   14.8907  -20.1640   23.8756 O   0  0  0  0  0  0  0  0  0  0  0  0
   13.8956  -19.2041   25.6606 O   0  0  0  0  0  0  0  0  0  0  0  0
  2  1  1  1
  2  9  1  0
  3  2  1  0
  3  4  1  0
  4  5  2  0
  4  8  1  0
  5  6  1  0
  6  7  1  0
  8  7  2  0
  9 10  2  0
 11 12  1  0
 12 14  1  0
 13 12  2  0
 15 14  1  6
 15 17  1  0
 16  9  1  0
 16 15  1  0
 17 18  2  0
 19 20  1  0
 20 22  1  0
 21 20  2  0
 23 22  1  1
 23 25  1  0
 24 17  1  0
 24 23  1  0
 25 27  2  0
 25 26  1  0
M  END
$$$$
