HNN.pdb
     RDKit          3D

 27 27  0  0  1  0  0  0  0  0999 V2000
   13.4989  -22.5212   25.0597 N   0  0  0  0  0  0  0  0  0  0  0  0
   13.3933  -21.1230   25.3750 C   0  0  1  0  0  0  0  0  0  0  0  0
   12.4657  -20.4408   24.3903 C   0  0  0  0  0  0  0  0  0  0  0  0
   13.0516  -20.6070   23.0458 C   0  0  0  0  0  0  0  0  0  0  0  0
   14.1158  -19.9063   22.5448 C   0  0  0  0  0  0  0  0  0  0  0  0
   14.3447  -20.3432   21.2985 N   0  0  0  0  0  0  0  0  0  0  0  0
   13.4330  -21.2952   21.0469 C   0  0  0  0  0  0  0  0  0  0  0  0
   12.6395  -21.4604   22.1126 N   0  0  0  0  0  0  0  0  0  0  0  0
   12.8074  -20.9163   26.7380 C   0  0  0  0  0  0  0  0  0  0  0  0
   12.5829  -19.7667   27.1930 O   0  0  0  0  0  0  0  0  0  0  0  0
   10.8951  -21.8981   31.5794 N   0  0  0  0  0  0  0  0  0  0  0  0
   10.3491  -22.7009   30.5450 C   0  0  0  0  0  0  0  0  0  0  0  0
    9.3819  -23.4484   30.8307 O   0  0  0  0  0  0  0  0  0  0  0  0
   10.8707  -22.6823   29.1816 C   0  0  0  0  0  0  0  0  0  0  0  0
   12.0591  -21.7823   28.9647 C   0  0  2  0  0  0  0  0  0  0  0  0
   12.4792  -22.0154   27.5791 N   0  0  0  0  0  0  0  0  0  0  0  0
   13.1889  -22.2482   29.8090 C   0  0  0  0  0  0  0  0  0  0  0  0
   13.7145  -23.4000   29.6213 O   0  0  0  0  0  0  0  0  0  0  0  0
   17.1512  -21.0073   34.0820 N   0  0  0  0  0  0  0  0  0  0  0  0
   17.0019  -21.4274   32.7410 C   0  0  0  0  0  0  0  0  0  0  0  0
   17.8524  -22.2043   32.2620 O   0  0  0  0  0  0  0  0  0  0  0  0
   15.8840  -20.9652   31.9383 C   0  0  0  0  0  0  0  0  0  0  0  0
   14.8339  -22.0100   31.6683 C   0  0  2  0  0  0  0  0  0  0  0  0
   13.7573  -21.4789   30.8571 N   0  0  0  0  0  0  0  0  0  0  0  0
   14.3114  -22.6076   32.9331 C   0  0  0  0  0  0  0  0  0  0  0  0
   14.9288  -23.6752   33.5625 O   0  0  0  0  0  0  0  0  0  0  0  0
   13.2656  -22.1503   33.4838 O   0  0  0  0  0  0  0  0  0  0  0  0
  2  1  1  6
  2  9  1  0
  3  2  1  0
  3  4  1  0
  4  5  2  0
  4  8  1  0
  5  6  1  0
  6  7  1  0
  8  7  2  0
  9 10  2  0
 11 12  1  0
 12 14  1  0
 13 12  2  0
 15 14  1  1
 15 17  1  0
 16  9  1  0
 16 15  1  0
 17 18  2  0
 19 20  1  0
 20 22  1  0
 21 20  2  0
 23 22  1  1
 23 25  1  0
 24 17  1  0
 24 23  1  0
 25 27  2  0
 25 26  1  0
M  END
$$$$
