HNN.pdb
     RDKit          3D

 27 27  0  0  1  0  0  0  0  0999 V2000
    8.1302  -12.6520   17.4128 N   0  0  0  0  0  0  0  0  0  0  0  0
    8.3971  -13.9825   17.8862 C   0  0  1  0  0  0  0  0  0  0  0  0
    9.4617  -14.6322   17.0259 C   0  0  0  0  0  0  0  0  0  0  0  0
    8.7735  -15.3022   15.9051 C   0  0  0  0  0  0  0  0  0  0  0  0
    8.4421  -14.7235   14.7093 C   0  0  0  0  0  0  0  0  0  0  0  0
    7.8318  -15.6518   13.9594 N   0  0  0  0  0  0  0  0  0  0  0  0
    7.7935  -16.7773   14.6892 C   0  0  0  0  0  0  0  0  0  0  0  0
    8.3683  -16.5687   15.8804 N   0  0  0  0  0  0  0  0  0  0  0  0
    8.9235  -13.9646   19.2885 C   0  0  0  0  0  0  0  0  0  0  0  0
    9.6087  -13.0058   19.7245 O   0  0  0  0  0  0  0  0  0  0  0  0
    5.8141  -14.7555   21.8559 N   0  0  0  0  0  0  0  0  0  0  0  0
    6.9667  -14.7501   22.6830 C   0  0  0  0  0  0  0  0  0  0  0  0
    6.9757  -13.9774   23.6722 O   0  0  0  0  0  0  0  0  0  0  0  0
    8.1221  -15.6031   22.4209 C   0  0  0  0  0  0  0  0  0  0  0  0
    9.1914  -14.9833   21.5597 C   0  0  2  0  0  0  0  0  0  0  0  0
    8.6701  -15.0353   20.1899 N   0  0  0  0  0  0  0  0  0  0  0  0
   10.3931  -15.8565   21.5638 C   0  0  0  0  0  0  0  0  0  0  0  0
   10.3272  -17.0624   21.1399 O   0  0  0  0  0  0  0  0  0  0  0  0
   12.9614  -15.2832   19.3884 N   0  0  0  0  0  0  0  0  0  0  0  0
   14.0214  -15.0063   20.2809 C   0  0  0  0  0  0  0  0  0  0  0  0
   14.9200  -14.2226   19.9137 O   0  0  0  0  0  0  0  0  0  0  0  0
   14.0643  -15.6200   21.5959 C   0  0  0  0  0  0  0  0  0  0  0  0
   12.8021  -16.3393   21.9917 C   0  0  2  0  0  0  0  0  0  0  0  0
   11.6685  -15.4375   22.0232 N   0  0  0  0  0  0  0  0  0  0  0  0
   12.9587  -17.0538   23.2935 C   0  0  0  0  0  0  0  0  0  0  0  0
   13.8713  -18.0792   23.4748 O   0  0  0  0  0  0  0  0  0  0  0  0
   12.2485  -16.7410   24.2955 O   0  0  0  0  0  0  0  0  0  0  0  0
  2  1  1  6
  2  9  1  0
  3  2  1  0
  3  4  1  0
  4  5  2  0
  4  8  1  0
  5  6  1  0
  6  7  1  0
  8  7  2  0
  9 10  2  0
 11 12  1  0
 12 14  1  0
 13 12  2  0
 15 14  1  1
 15 17  1  0
 16  9  1  0
 16 15  1  0
 17 18  2  0
 19 20  1  0
 20 22  1  0
 21 20  2  0
 23 22  1  1
 23 25  1  0
 24 17  1  0
 24 23  1  0
 25 27  2  0
 25 26  1  0
M  END
$$$$
