HNN.pdb
     RDKit          3D

 27 27  0  0  1  0  0  0  0  0999 V2000
    7.4285  -12.8755   20.2814 N   0  0  0  0  0  0  0  0  0  0  0  0
    7.7584  -14.2677   20.4171 C   0  0  1  0  0  0  0  0  0  0  0  0
    9.0135  -14.5797   19.6279 C   0  0  0  0  0  0  0  0  0  0  0  0
    8.6458  -14.5807   18.1984 C   0  0  0  0  0  0  0  0  0  0  0  0
    8.6572  -13.4916   17.3689 C   0  0  0  0  0  0  0  0  0  0  0  0
    8.2610  -13.8969   16.1542 N   0  0  0  0  0  0  0  0  0  0  0  0
    8.0129  -15.2126   16.2453 C   0  0  0  0  0  0  0  0  0  0  0  0
    8.2468  -15.6359   17.4938 N   0  0  0  0  0  0  0  0  0  0  0  0
    8.0438  -14.6216   21.8444 C   0  0  0  0  0  0  0  0  0  0  0  0
    8.6541  -13.8345   22.6106 O   0  0  0  0  0  0  0  0  0  0  0  0
    6.6838  -18.7715   26.1080 N   0  0  0  0  0  0  0  0  0  0  0  0
    6.9767  -17.4458   25.6962 C   0  0  0  0  0  0  0  0  0  0  0  0
    7.3672  -16.6327   26.5691 O   0  0  0  0  0  0  0  0  0  0  0  0
    6.8396  -17.0085   24.3101 C   0  0  0  0  0  0  0  0  0  0  0  0
    8.0043  -16.2201   23.7708 C   0  0  2  0  0  0  0  0  0  0  0  0
    7.6357  -15.8675   22.3959 N   0  0  0  0  0  0  0  0  0  0  0  0
    9.1875  -17.1104   23.6520 C   0  0  0  0  0  0  0  0  0  0  0  0
    9.9483  -17.0540   22.6244 O   0  0  0  0  0  0  0  0  0  0  0  0
   13.2893  -18.8212   23.5667 N   0  0  0  0  0  0  0  0  0  0  0  0
   12.9683  -17.4626   23.7865 C   0  0  0  0  0  0  0  0  0  0  0  0
   13.7165  -16.5882   23.3048 O   0  0  0  0  0  0  0  0  0  0  0  0
   11.7941  -17.0922   24.5558 C   0  0  0  0  0  0  0  0  0  0  0  0
   10.9460  -18.2541   25.0007 C   0  0  2  0  0  0  0  0  0  0  0  0
    9.5568  -18.0635   24.6362 N   0  0  0  0  0  0  0  0  0  0  0  0
   11.0884  -18.5133   26.4644 C   0  0  0  0  0  0  0  0  0  0  0  0
   11.4941  -19.7378   26.9675 O   0  0  0  0  0  0  0  0  0  0  0  0
   10.8380  -17.6050   27.3121 O   0  0  0  0  0  0  0  0  0  0  0  0
  2  1  1  1
  2  9  1  0
  3  2  1  0
  3  4  1  0
  4  5  2  0
  4  8  1  0
  5  6  1  0
  6  7  1  0
  8  7  2  0
  9 10  2  0
 11 12  1  0
 12 14  1  0
 13 12  2  0
 15 14  1  6
 15 17  1  0
 16  9  1  0
 16 15  1  0
 17 18  2  0
 19 20  1  0
 20 22  1  0
 21 20  2  0
 23 22  1  1
 23 25  1  0
 24 17  1  0
 24 23  1  0
 25 27  2  0
 25 26  1  0
M  END
$$$$
