HNN.pdb
     RDKit          3D

 27 27  0  0  1  0  0  0  0  0999 V2000
   10.1211  -15.4648   17.3795 N   0  0  0  0  0  0  0  0  0  0  0  0
   10.9124  -14.9273   18.4521 C   0  0  1  0  0  0  0  0  0  0  0  0
   10.0466  -14.7194   19.6779 C   0  0  0  0  0  0  0  0  0  0  0  0
    8.9855  -13.7617   19.3100 C   0  0  0  0  0  0  0  0  0  0  0  0
    9.1804  -12.5308   18.7431 C   0  0  0  0  0  0  0  0  0  0  0  0
    7.9778  -11.9673   18.5620 N   0  0  0  0  0  0  0  0  0  0  0  0
    7.0664  -12.8433   19.0124 C   0  0  0  0  0  0  0  0  0  0  0  0
    7.6777  -13.9428   19.4711 N   0  0  0  0  0  0  0  0  0  0  0  0
   12.0050  -15.8728   18.8475 C   0  0  0  0  0  0  0  0  0  0  0  0
   11.9162  -17.1088   18.6391 O   0  0  0  0  0  0  0  0  0  0  0  0
   16.0625  -13.4627   20.0379 N   0  0  0  0  0  0  0  0  0  0  0  0
   15.5465  -14.4286   19.1360 C   0  0  0  0  0  0  0  0  0  0  0  0
   15.1029  -14.0243   18.0335 O   0  0  0  0  0  0  0  0  0  0  0  0
   15.5178  -15.8544   19.4483 C   0  0  0  0  0  0  0  0  0  0  0  0
   14.1957  -16.3714   19.9521 C   0  0  2  0  0  0  0  0  0  0  0  0
   13.1934  -15.4114   19.4782 N   0  0  0  0  0  0  0  0  0  0  0  0
   14.1657  -16.2820   21.4345 C   0  0  0  0  0  0  0  0  0  0  0  0
   13.6282  -15.2782   22.0188 O   0  0  0  0  0  0  0  0  0  0  0  0
   10.3570  -18.6173   23.5002 N   0  0  0  0  0  0  0  0  0  0  0  0
   11.5380  -17.8834   23.2477 C   0  0  0  0  0  0  0  0  0  0  0  0
   11.4531  -16.6461   23.1126 O   0  0  0  0  0  0  0  0  0  0  0  0
   12.8217  -18.5542   23.1474 C   0  0  0  0  0  0  0  0  0  0  0  0
   14.0069  -17.6898   23.4869 C   0  0  2  0  0  0  0  0  0  0  0  0
   14.7130  -17.2700   22.2935 N   0  0  0  0  0  0  0  0  0  0  0  0
   14.9276  -18.3676   24.4475 C   0  0  0  0  0  0  0  0  0  0  0  0
   14.8941  -18.1225   25.8098 O   0  0  0  0  0  0  0  0  0  0  0  0
   15.7875  -19.2055   24.0416 O   0  0  0  0  0  0  0  0  0  0  0  0
  2  1  1  6
  2  9  1  0
  3  2  1  0
  3  4  1  0
  4  5  2  0
  4  8  1  0
  5  6  1  0
  6  7  1  0
  8  7  2  0
  9 10  2  0
 11 12  1  0
 12 14  1  0
 13 12  2  0
 15 14  1  6
 15 17  1  0
 16  9  1  0
 16 15  1  0
 17 18  2  0
 19 20  1  0
 20 22  1  0
 21 20  2  0
 23 22  1  6
 23 25  1  0
 24 17  1  0
 24 23  1  0
 25 27  2  0
 25 26  1  0
M  END
$$$$
