HNN.pdb
     RDKit          3D

 27 27  0  0  1  0  0  0  0  0999 V2000
    9.8647  -15.2119   16.9832 N   0  0  0  0  0  0  0  0  0  0  0  0
   10.7402  -14.7495   18.0248 C   0  0  1  0  0  0  0  0  0  0  0  0
    9.9574  -14.5520   19.3069 C   0  0  0  0  0  0  0  0  0  0  0  0
    8.7614  -13.7538   18.9739 C   0  0  0  0  0  0  0  0  0  0  0  0
    8.3728  -13.3824   17.7147 C   0  0  0  0  0  0  0  0  0  0  0  0
    7.2432  -12.6696   17.8274 N   0  0  0  0  0  0  0  0  0  0  0  0
    6.9505  -12.6094   19.1356 C   0  0  0  0  0  0  0  0  0  0  0  0
    7.8762  -13.2711   19.8414 N   0  0  0  0  0  0  0  0  0  0  0  0
   11.8110  -15.7545   18.3204 C   0  0  0  0  0  0  0  0  0  0  0  0
   11.9616  -16.7850   17.6172 O   0  0  0  0  0  0  0  0  0  0  0  0
   16.6200  -13.2363   18.2579 N   0  0  0  0  0  0  0  0  0  0  0  0
   15.8247  -14.3297   17.8281 C   0  0  0  0  0  0  0  0  0  0  0  0
   16.3592  -15.1873   17.0834 O   0  0  0  0  0  0  0  0  0  0  0  0
   14.4271  -14.4831   18.2208 C   0  0  0  0  0  0  0  0  0  0  0  0
   14.1548  -15.6058   19.1877 C   0  0  2  0  0  0  0  0  0  0  0  0
   12.7058  -15.5859   19.4130 N   0  0  0  0  0  0  0  0  0  0  0  0
   14.7684  -15.2826   20.5013 C   0  0  0  0  0  0  0  0  0  0  0  0
   14.8114  -14.0754   20.9241 O   0  0  0  0  0  0  0  0  0  0  0  0
   12.8894  -15.7114   24.0620 N   0  0  0  0  0  0  0  0  0  0  0  0
   13.7096  -16.7827   23.6421 C   0  0  0  0  0  0  0  0  0  0  0  0
   13.1645  -17.8011   23.1707 O   0  0  0  0  0  0  0  0  0  0  0  0
   15.1546  -16.7006   23.7565 C   0  0  0  0  0  0  0  0  0  0  0  0
   15.8219  -15.8873   22.6793 C   0  0  2  0  0  0  0  0  0  0  0  0
   15.3375  -16.2546   21.3642 N   0  0  0  0  0  0  0  0  0  0  0  0
   17.3100  -15.9881   22.7531 C   0  0  0  0  0  0  0  0  0  0  0  0
   18.0389  -15.4779   23.8140 O   0  0  0  0  0  0  0  0  0  0  0  0
   17.9690  -16.5540   21.8303 O   0  0  0  0  0  0  0  0  0  0  0  0
  2  1  1  6
  2  9  1  0
  3  2  1  0
  3  4  1  0
  4  5  2  0
  4  8  1  0
  5  6  1  0
  6  7  1  0
  8  7  2  0
  9 10  2  0
 11 12  1  0
 12 14  1  0
 13 12  2  0
 15 14  1  6
 15 17  1  0
 16  9  1  0
 16 15  1  0
 17 18  2  0
 19 20  1  0
 20 22  1  0
 21 20  2  0
 23 22  1  1
 23 25  1  0
 24 17  1  0
 24 23  1  0
 25 27  2  0
 25 26  1  0
M  END
$$$$
