HNN.pdb
     RDKit          3D

 27 27  0  0  1  0  0  0  0  0999 V2000
    9.4498  -15.9708   19.0382 N   0  0  0  0  0  0  0  0  0  0  0  0
   10.4683  -15.0496   19.4617 C   0  0  1  0  0  0  0  0  0  0  0  0
   10.2499  -13.7016   18.8056 C   0  0  0  0  0  0  0  0  0  0  0  0
    9.2239  -13.8821   17.7600 C   0  0  0  0  0  0  0  0  0  0  0  0
    8.0490  -13.1857   17.6635 C   0  0  0  0  0  0  0  0  0  0  0  0
    7.3920  -13.6367   16.5858 N   0  0  0  0  0  0  0  0  0  0  0  0
    8.1569  -14.5925   16.0361 C   0  0  0  0  0  0  0  0  0  0  0  0
    9.2788  -14.7465   16.7507 N   0  0  0  0  0  0  0  0  0  0  0  0
   10.4164  -14.8255   20.9420 C   0  0  0  0  0  0  0  0  0  0  0  0
   11.2524  -14.0935   21.5287 O   0  0  0  0  0  0  0  0  0  0  0  0
    8.8192  -14.7918   25.9653 N   0  0  0  0  0  0  0  0  0  0  0  0
    7.7566  -14.9876   25.0460 C   0  0  0  0  0  0  0  0  0  0  0  0
    6.5837  -14.9741   25.4930 O   0  0  0  0  0  0  0  0  0  0  0  0
    7.9847  -15.2001   23.6198 C   0  0  0  0  0  0  0  0  0  0  0  0
    9.4319  -15.2485   23.2046 C   0  0  2  0  0  0  0  0  0  0  0  0
    9.4162  -15.4335   21.7499 N   0  0  0  0  0  0  0  0  0  0  0  0
   10.0609  -16.4755   23.7572 C   0  0  0  0  0  0  0  0  0  0  0  0
    9.5858  -17.6328   23.4870 O   0  0  0  0  0  0  0  0  0  0  0  0
   13.3174  -18.2690   22.6924 N   0  0  0  0  0  0  0  0  0  0  0  0
   13.8781  -17.5721   23.7864 C   0  0  0  0  0  0  0  0  0  0  0  0
   14.9042  -16.8887   23.5949 O   0  0  0  0  0  0  0  0  0  0  0  0
   13.2739  -17.6494   25.1043 C   0  0  0  0  0  0  0  0  0  0  0  0
   11.7690  -17.6993   25.1003 C   0  0  2  0  0  0  0  0  0  0  0  0
   11.2014  -16.4632   24.6013 N   0  0  0  0  0  0  0  0  0  0  0  0
   11.2241  -18.0369   26.4489 C   0  0  0  0  0  0  0  0  0  0  0  0
   11.4701  -19.2502   27.0689 O   0  0  0  0  0  0  0  0  0  0  0  0
   10.5041  -17.2096   27.0840 O   0  0  0  0  0  0  0  0  0  0  0  0
  2  1  1  6
  2  9  1  0
  3  2  1  0
  3  4  1  0
  4  5  2  0
  4  8  1  0
  5  6  1  0
  6  7  1  0
  8  7  2  0
  9 10  2  0
 11 12  1  0
 12 14  1  0
 13 12  2  0
 15 14  1  1
 15 17  1  0
 16  9  1  0
 16 15  1  0
 17 18  2  0
 19 20  1  0
 20 22  1  0
 21 20  2  0
 23 22  1  1
 23 25  1  0
 24 17  1  0
 24 23  1  0
 25 27  2  0
 25 26  1  0
M  END
$$$$
