HNN.pdb
     RDKit          3D

 27 27  0  0  1  0  0  0  0  0999 V2000
    9.1676  -15.3212   20.6662 N   0  0  0  0  0  0  0  0  0  0  0  0
    7.9768  -14.7426   21.2254 C   0  0  1  0  0  0  0  0  0  0  0  0
    6.8204  -14.9089   20.2606 C   0  0  0  0  0  0  0  0  0  0  0  0
    7.1646  -14.1709   19.0296 C   0  0  0  0  0  0  0  0  0  0  0  0
    8.3338  -13.4956   18.8023 C   0  0  0  0  0  0  0  0  0  0  0  0
    8.2663  -12.9598   17.5755 N   0  0  0  0  0  0  0  0  0  0  0  0
    7.0739  -13.3050   17.0657 C   0  0  0  0  0  0  0  0  0  0  0  0
    6.3960  -14.0459   17.9514 N   0  0  0  0  0  0  0  0  0  0  0  0
    7.5839  -15.4309   22.4966 C   0  0  0  0  0  0  0  0  0  0  0  0
    6.5558  -15.0975   23.1375 O   0  0  0  0  0  0  0  0  0  0  0  0
    6.4825  -18.6839   22.5150 N   0  0  0  0  0  0  0  0  0  0  0  0
    7.5111  -19.2943   23.2779 C   0  0  0  0  0  0  0  0  0  0  0  0
    7.7024  -20.5257   23.1263 O   0  0  0  0  0  0  0  0  0  0  0  0
    8.3392  -18.5440   24.2174 C   0  0  0  0  0  0  0  0  0  0  0  0
    8.0071  -17.0793   24.3328 C   0  0  2  0  0  0  0  0  0  0  0  0
    8.3600  -16.4942   23.0352 N   0  0  0  0  0  0  0  0  0  0  0  0
    8.9189  -16.4449   25.3190 C   0  0  0  0  0  0  0  0  0  0  0  0
   10.1586  -16.2757   25.0495 O   0  0  0  0  0  0  0  0  0  0  0  0
    8.3414  -13.3621   25.7174 N   0  0  0  0  0  0  0  0  0  0  0  0
    8.1998  -13.1343   27.1048 C   0  0  0  0  0  0  0  0  0  0  0  0
    7.5826  -12.1177   27.4817 O   0  0  0  0  0  0  0  0  0  0  0  0
    8.7600  -14.0625   28.0705 C   0  0  0  0  0  0  0  0  0  0  0  0
    9.4157  -15.2751   27.4647 C   0  0  2  0  0  0  0  0  0  0  0  0
    8.5023  -15.9907   26.5970 N   0  0  0  0  0  0  0  0  0  0  0  0
    9.9831  -16.1768   28.5111 C   0  0  0  0  0  0  0  0  0  0  0  0
   11.0703  -15.8205   29.2908 O   0  0  0  0  0  0  0  0  0  0  0  0
    9.4802  -17.3202   28.7251 O   0  0  0  0  0  0  0  0  0  0  0  0
  2  1  1  6
  2  9  1  0
  3  2  1  0
  3  4  1  0
  4  5  2  0
  4  8  1  0
  5  6  1  0
  6  7  1  0
  8  7  2  0
  9 10  2  0
 11 12  1  0
 12 14  1  0
 13 12  2  0
 15 14  1  6
 15 17  1  0
 16  9  1  0
 16 15  1  0
 17 18  2  0
 19 20  1  0
 20 22  1  0
 21 20  2  0
 23 22  1  1
 23 25  1  0
 24 17  1  0
 24 23  1  0
 25 27  2  0
 25 26  1  0
M  END
$$$$
