HNN.pdb
     RDKit          3D

 27 27  0  0  1  0  0  0  0  0999 V2000
    8.7886  -16.7435   18.2086 N   0  0  0  0  0  0  0  0  0  0  0  0
    9.9930  -16.0203   18.5116 C   0  0  1  0  0  0  0  0  0  0  0  0
    9.7649  -15.1151   19.7050 C   0  0  0  0  0  0  0  0  0  0  0  0
    8.8390  -14.0480   19.2775 C   0  0  0  0  0  0  0  0  0  0  0  0
    8.2709  -13.9315   18.0373 C   0  0  0  0  0  0  0  0  0  0  0  0
    7.4959  -12.8379   18.0422 N   0  0  0  0  0  0  0  0  0  0  0  0
    7.5921  -12.2988   19.2674 C   0  0  0  0  0  0  0  0  0  0  0  0
    8.4127  -13.0353   20.0270 N   0  0  0  0  0  0  0  0  0  0  0  0
   11.1074  -16.9512   18.8796 C   0  0  0  0  0  0  0  0  0  0  0  0
   11.2231  -17.4162   20.0412 O   0  0  0  0  0  0  0  0  0  0  0  0
   11.5167  -20.1050   15.5704 N   0  0  0  0  0  0  0  0  0  0  0  0
   12.1131  -20.0502   16.8564 C   0  0  0  0  0  0  0  0  0  0  0  0
   11.5990  -20.7385   17.7717 O   0  0  0  0  0  0  0  0  0  0  0  0
   13.2875  -19.2307   17.1403 C   0  0  0  0  0  0  0  0  0  0  0  0
   13.1436  -18.2916   18.3093 C   0  0  2  0  0  0  0  0  0  0  0  0
   12.0860  -17.3501   17.9276 N   0  0  0  0  0  0  0  0  0  0  0  0
   14.3780  -17.4756   18.4389 C   0  0  0  0  0  0  0  0  0  0  0  0
   15.3665  -17.6538   17.6456 O   0  0  0  0  0  0  0  0  0  0  0  0
   15.2643  -15.0066   16.9405 N   0  0  0  0  0  0  0  0  0  0  0  0
   15.3743  -13.9923   17.9183 C   0  0  0  0  0  0  0  0  0  0  0  0
   15.1784  -12.8093   17.5742 O   0  0  0  0  0  0  0  0  0  0  0  0
   15.7078  -14.3194   19.2930 C   0  0  0  0  0  0  0  0  0  0  0  0
   15.8287  -15.7938   19.5732 C   0  0  2  0  0  0  0  0  0  0  0  0
   14.5545  -16.4662   19.4204 N   0  0  0  0  0  0  0  0  0  0  0  0
   16.4169  -16.0534   20.9210 C   0  0  0  0  0  0  0  0  0  0  0  0
   15.7286  -16.7257   21.9166 O   0  0  0  0  0  0  0  0  0  0  0  0
   17.5875  -15.6597   21.2054 O   0  0  0  0  0  0  0  0  0  0  0  0
  2  1  1  1
  2  9  1  0
  3  2  1  0
  3  4  1  0
  4  5  2  0
  4  8  1  0
  5  6  1  0
  6  7  1  0
  8  7  2  0
  9 10  2  0
 11 12  1  0
 12 14  1  0
 13 12  2  0
 15 14  1  6
 15 17  1  0
 16  9  1  0
 16 15  1  0
 17 18  2  0
 19 20  1  0
 20 22  1  0
 21 20  2  0
 23 22  1  1
 23 25  1  0
 24 17  1  0
 24 23  1  0
 25 27  2  0
 25 26  1  0
M  END
$$$$
