HNN.pdb
     RDKit          3D

 27 27  0  0  1  0  0  0  0  0999 V2000
    8.5581  -15.8714   21.1502 N   0  0  0  0  0  0  0  0  0  0  0  0
    7.8170  -14.9057   21.9143 C   0  0  1  0  0  0  0  0  0  0  0  0
    6.8521  -14.1642   21.0117 C   0  0  0  0  0  0  0  0  0  0  0  0
    7.6428  -13.5689   19.9167 C   0  0  0  0  0  0  0  0  0  0  0  0
    8.3958  -12.4286   20.0021 C   0  0  0  0  0  0  0  0  0  0  0  0
    8.9581  -12.2176   18.8039 N   0  0  0  0  0  0  0  0  0  0  0  0
    8.5525  -13.2151   18.0031 C   0  0  0  0  0  0  0  0  0  0  0  0
    7.7476  -14.0446   18.6790 N   0  0  0  0  0  0  0  0  0  0  0  0
    6.9952  -15.5689   22.9767 C   0  0  0  0  0  0  0  0  0  0  0  0
    6.2323  -14.9114   23.7282 O   0  0  0  0  0  0  0  0  0  0  0  0
    4.9104  -18.8800   21.2774 N   0  0  0  0  0  0  0  0  0  0  0  0
    4.6805  -18.4157   22.5981 C   0  0  0  0  0  0  0  0  0  0  0  0
    3.6732  -17.6941   22.7996 O   0  0  0  0  0  0  0  0  0  0  0  0
    5.5664  -18.7478   23.7099 C   0  0  0  0  0  0  0  0  0  0  0  0
    6.3143  -17.5815   24.3011 C   0  0  2  0  0  0  0  0  0  0  0  0
    7.0430  -16.9756   23.1819 N   0  0  0  0  0  0  0  0  0  0  0  0
    7.3569  -18.0866   25.2307 C   0  0  0  0  0  0  0  0  0  0  0  0
    7.0497  -18.8696   26.1954 O   0  0  0  0  0  0  0  0  0  0  0  0
    9.8436  -19.6336   29.1666 N   0  0  0  0  0  0  0  0  0  0  0  0
    9.7889  -18.3067   28.6837 C   0  0  0  0  0  0  0  0  0  0  0  0
   10.4763  -17.4362   29.2547 O   0  0  0  0  0  0  0  0  0  0  0  0
    8.9514  -17.9636   27.5485 C   0  0  0  0  0  0  0  0  0  0  0  0
    9.6477  -18.0304   26.2151 C   0  0  2  0  0  0  0  0  0  0  0  0
    8.7320  -17.7524   25.1272 N   0  0  0  0  0  0  0  0  0  0  0  0
   10.3378  -19.3398   26.0174 C   0  0  0  0  0  0  0  0  0  0  0  0
   11.7078  -19.4404   25.8439 O   0  0  0  0  0  0  0  0  0  0  0  0
    9.6815  -20.4238   26.0009 O   0  0  0  0  0  0  0  0  0  0  0  0
  2  1  1  6
  2  9  1  0
  3  2  1  0
  3  4  1  0
  4  5  2  0
  4  8  1  0
  5  6  1  0
  6  7  1  0
  8  7  2  0
  9 10  2  0
 11 12  1  0
 12 14  1  0
 13 12  2  0
 15 14  1  6
 15 17  1  0
 16  9  1  0
 16 15  1  0
 17 18  2  0
 19 20  1  0
 20 22  1  0
 21 20  2  0
 23 22  1  1
 23 25  1  0
 24 17  1  0
 24 23  1  0
 25 27  2  0
 25 26  1  0
M  END
$$$$
