HDH.pdb
     RDKit          3D

 29 30  0  0  1  0  0  0  0  0999 V2000
   19.8285  -13.7550  -17.5680 N   0  0  0  0  0  0  0  0  0  0  0  0
   20.2342  -12.5140  -18.1504 C   0  0  1  0  0  0  0  0  0  0  0  0
   19.4881  -12.3679  -19.4791 C   0  0  0  0  0  0  0  0  0  0  0  0
   19.8891  -13.4485  -20.4130 C   0  0  0  0  0  0  0  0  0  0  0  0
   19.1236  -14.4360  -20.9706 C   0  0  0  0  0  0  0  0  0  0  0  0
   19.8816  -15.2088  -21.7632 N   0  0  0  0  0  0  0  0  0  0  0  0
   21.1380  -14.7027  -21.7041 C   0  0  0  0  0  0  0  0  0  0  0  0
   21.1428  -13.6355  -20.8856 N   0  0  0  0  0  0  0  0  0  0  0  0
   19.7704  -11.3646  -17.2941 C   0  0  0  0  0  0  0  0  0  0  0  0
   18.6273  -11.3297  -16.8025 O   0  0  0  0  0  0  0  0  0  0  0  0
   20.6490  -10.2981  -17.0395 N   0  0  0  0  0  0  0  0  0  0  0  0
   20.3255   -9.1382  -16.2325 C   0  0  1  0  0  0  0  0  0  0  0  0
   21.2633   -9.1124  -15.0642 C   0  0  0  0  0  0  0  0  0  0  0  0
   20.9712   -8.0390  -14.0842 C   0  0  0  0  0  0  0  0  0  0  0  0
   21.7838   -7.1137  -13.8929 O   0  0  0  0  0  0  0  0  0  0  0  0
   20.2599   -7.9014  -17.0117 C   0  0  0  0  0  0  0  0  0  0  0  0
   20.6865   -7.8614  -18.1933 O   0  0  0  0  0  0  0  0  0  0  0  0
   19.7810   -8.0663  -13.3739 O   0  0  0  0  0  0  0  0  0  0  0  0
   19.7231   -6.6752  -16.5113 N   0  0  0  0  0  0  0  0  0  0  0  0
   19.7332   -5.4334  -17.2730 C   0  0  1  0  0  0  0  0  0  0  0  0
   18.7778   -5.4619  -18.4117 C   0  0  0  0  0  0  0  0  0  0  0  0
   18.9381   -4.2515  -19.2400 C   0  0  0  0  0  0  0  0  0  0  0  0
   18.1810   -3.0860  -19.0548 C   0  0  0  0  0  0  0  0  0  0  0  0
   18.5671   -2.1803  -19.9627 N   0  0  0  0  0  0  0  0  0  0  0  0
   19.5364   -2.7084  -20.7225 C   0  0  0  0  0  0  0  0  0  0  0  0
   19.7453   -3.9591  -20.2699 N   0  0  0  0  0  0  0  0  0  0  0  0
   19.5051   -4.2666  -16.4275 C   0  0  0  0  0  0  0  0  0  0  0  0
   19.6777   -2.9889  -16.9953 O   0  0  0  0  0  0  0  0  0  0  0  0
   19.1681   -4.2882  -15.2370 O   0  0  0  0  0  0  0  0  0  0  0  0
  2  1  1  1
  3  2  1  0
  4  3  1  0
  5  4  2  0
  6  7  1  0
  6  5  1  0
  7  8  2  0
  8  4  1  0
  9 10  2  0
  9  2  1  0
 11  9  1  0
 12 11  1  0
 12 13  1  1
 14 18  1  0
 14 13  1  0
 15 14  2  0
 16 12  1  0
 16 17  2  0
 19 16  1  0
 20 21  1  6
 20 19  1  0
 22 21  1  0
 22 26  1  0
 23 24  1  0
 23 22  2  0
 24 25  1  0
 25 26  2  0
 27 20  1  0
 28 27  1  0
 29 27  2  0
M  END
$$$$
