HDH.pdb
     RDKit          3D

 29 30  0  0  1  0  0  0  0  0999 V2000
   20.1081  -11.4178  -16.3686 N   0  0  0  0  0  0  0  0  0  0  0  0
   19.6148  -10.5228  -17.3684 C   0  0  1  0  0  0  0  0  0  0  0  0
   18.1495  -10.8857  -17.6228 C   0  0  0  0  0  0  0  0  0  0  0  0
   18.0516  -12.2538  -18.1883 C   0  0  0  0  0  0  0  0  0  0  0  0
   18.0049  -13.4560  -17.5368 C   0  0  0  0  0  0  0  0  0  0  0  0
   17.9158  -14.4551  -18.4278 N   0  0  0  0  0  0  0  0  0  0  0  0
   17.9063  -13.8759  -19.6536 C   0  0  0  0  0  0  0  0  0  0  0  0
   17.9886  -12.5414  -19.5086 N   0  0  0  0  0  0  0  0  0  0  0  0
   19.5992   -9.1128  -16.8383 C   0  0  0  0  0  0  0  0  0  0  0  0
   19.1771   -8.1590  -17.5176 O   0  0  0  0  0  0  0  0  0  0  0  0
   20.0736   -8.8608  -15.5399 N   0  0  0  0  0  0  0  0  0  0  0  0
   20.1898   -7.5436  -14.9459 C   0  0  1  0  0  0  0  0  0  0  0  0
   20.0401   -7.6912  -13.4625 C   0  0  0  0  0  0  0  0  0  0  0  0
   18.6738   -8.0738  -13.0327 C   0  0  0  0  0  0  0  0  0  0  0  0
   17.6724   -7.6369  -13.6322 O   0  0  0  0  0  0  0  0  0  0  0  0
   21.3840   -6.8222  -15.3872 C   0  0  0  0  0  0  0  0  0  0  0  0
   22.4531   -7.4358  -15.6324 O   0  0  0  0  0  0  0  0  0  0  0  0
   18.5100   -8.9268  -11.9522 O   0  0  0  0  0  0  0  0  0  0  0  0
   21.4334   -5.4058  -15.5705 N   0  0  0  0  0  0  0  0  0  0  0  0
   22.5720   -4.7208  -16.1678 C   0  0  1  0  0  0  0  0  0  0  0  0
   22.9159   -5.2619  -17.5092 C   0  0  0  0  0  0  0  0  0  0  0  0
   24.1201   -4.5903  -18.0346 C   0  0  0  0  0  0  0  0  0  0  0  0
   25.4251   -5.0215  -17.7571 C   0  0  0  0  0  0  0  0  0  0  0  0
   26.2837   -4.2031  -18.3789 N   0  0  0  0  0  0  0  0  0  0  0  0
   25.5925   -3.2665  -19.0427 C   0  0  0  0  0  0  0  0  0  0  0  0
   24.2883   -3.5181  -18.8219 N   0  0  0  0  0  0  0  0  0  0  0  0
   22.3800   -3.2755  -16.2200 C   0  0  0  0  0  0  0  0  0  0  0  0
   23.4504   -2.4775  -16.6696 O   0  0  0  0  0  0  0  0  0  0  0  0
   21.3495   -2.6688  -15.9022 O   0  0  0  0  0  0  0  0  0  0  0  0
  2  1  1  1
  3  2  1  0
  4  3  1  0
  5  4  2  0
  6  7  1  0
  6  5  1  0
  7  8  2  0
  8  4  1  0
  9 10  2  0
  9  2  1  0
 11  9  1  0
 12 11  1  0
 12 13  1  1
 14 18  1  0
 14 13  1  0
 15 14  2  0
 16 12  1  0
 16 17  2  0
 19 16  1  0
 20 21  1  6
 20 19  1  0
 22 21  1  0
 22 26  1  0
 23 24  1  0
 23 22  2  0
 24 25  1  0
 25 26  2  0
 27 20  1  0
 28 27  1  0
 29 27  2  0
M  END
$$$$
