HDH.pdb
     RDKit          3D

 29 30  0  0  1  0  0  0  0  0999 V2000
   27.4780  -20.8118  -16.9108 N   0  0  0  0  0  0  0  0  0  0  0  0
   26.5377  -20.9328  -17.9810 C   0  0  1  0  0  0  0  0  0  0  0  0
   25.7762  -22.2445  -17.7732 C   0  0  0  0  0  0  0  0  0  0  0  0
   26.7217  -23.3876  -17.7518 C   0  0  0  0  0  0  0  0  0  0  0  0
   27.4067  -23.9608  -18.7881 C   0  0  0  0  0  0  0  0  0  0  0  0
   28.1590  -24.9744  -18.3332 N   0  0  0  0  0  0  0  0  0  0  0  0
   27.9453  -25.0402  -16.9959 C   0  0  0  0  0  0  0  0  0  0  0  0
   27.0740  -24.0782  -16.6433 N   0  0  0  0  0  0  0  0  0  0  0  0
   25.5033  -19.8419  -17.8865 C   0  0  0  0  0  0  0  0  0  0  0  0
   24.7340  -19.7470  -16.9126 O   0  0  0  0  0  0  0  0  0  0  0  0
   25.3989  -18.9010  -18.9250 N   0  0  0  0  0  0  0  0  0  0  0  0
   24.4321  -17.8217  -18.9654 C   0  0  1  0  0  0  0  0  0  0  0  0
   25.0245  -16.7008  -19.7638 C   0  0  0  0  0  0  0  0  0  0  0  0
   26.1279  -15.9907  -19.0737 C   0  0  0  0  0  0  0  0  0  0  0  0
   26.3113  -16.1367  -17.8497 O   0  0  0  0  0  0  0  0  0  0  0  0
   23.1033  -18.2618  -19.3920 C   0  0  0  0  0  0  0  0  0  0  0  0
   22.9625  -19.0031  -20.3972 O   0  0  0  0  0  0  0  0  0  0  0  0
   26.9637  -15.1557  -19.7990 O   0  0  0  0  0  0  0  0  0  0  0  0
   21.8939  -17.8977  -18.7236 N   0  0  0  0  0  0  0  0  0  0  0  0
   20.9126  -18.8734  -18.2683 C   0  0  1  0  0  0  0  0  0  0  0  0
   21.5263  -19.9500  -17.4468 C   0  0  0  0  0  0  0  0  0  0  0  0
   20.5206  -20.9814  -17.1275 C   0  0  0  0  0  0  0  0  0  0  0  0
   19.9966  -21.8667  -18.0801 C   0  0  0  0  0  0  0  0  0  0  0  0
   19.1134  -22.6696  -17.4726 N   0  0  0  0  0  0  0  0  0  0  0  0
   19.0451  -22.3424  -16.1750 C   0  0  0  0  0  0  0  0  0  0  0  0
   19.9022  -21.3211  -15.9874 N   0  0  0  0  0  0  0  0  0  0  0  0
   19.7993  -18.2473  -17.5632 C   0  0  0  0  0  0  0  0  0  0  0  0
   20.0918  -17.2700  -16.5915 O   0  0  0  0  0  0  0  0  0  0  0  0
   18.5994  -18.4944  -17.7375 O   0  0  0  0  0  0  0  0  0  0  0  0
  2  1  1  1
  3  2  1  0
  4  3  1  0
  5  4  2  0
  6  7  1  0
  6  5  1  0
  7  8  2  0
  8  4  1  0
  9 10  2  0
  9  2  1  0
 11  9  1  0
 12 11  1  0
 12 13  1  6
 14 18  1  0
 14 13  1  0
 15 14  2  0
 16 12  1  0
 16 17  2  0
 19 16  1  0
 20 21  1  1
 20 19  1  0
 22 21  1  0
 22 26  1  0
 23 24  1  0
 23 22  2  0
 24 25  1  0
 25 26  2  0
 27 20  1  0
 28 27  1  0
 29 27  2  0
M  END
$$$$
