HDH.pdb
     RDKit          3D

 29 30  0  0  1  0  0  0  0  0999 V2000
   18.6976  -14.5102  -17.1451 N   0  0  0  0  0  0  0  0  0  0  0  0
   18.4595  -13.4649  -16.1994 C   0  0  1  0  0  0  0  0  0  0  0  0
   19.2209  -13.8242  -14.9207 C   0  0  0  0  0  0  0  0  0  0  0  0
   18.6374  -15.0396  -14.3019 C   0  0  0  0  0  0  0  0  0  0  0  0
   19.2032  -16.2718  -14.1186 C   0  0  0  0  0  0  0  0  0  0  0  0
   18.3285  -17.0910  -13.5154 N   0  0  0  0  0  0  0  0  0  0  0  0
   17.1996  -16.3670  -13.3166 C   0  0  0  0  0  0  0  0  0  0  0  0
   17.3866  -15.1233  -13.7933 N   0  0  0  0  0  0  0  0  0  0  0  0
   19.0687  -12.1767  -16.6879 C   0  0  0  0  0  0  0  0  0  0  0  0
   20.1025  -12.1589  -17.3810 O   0  0  0  0  0  0  0  0  0  0  0  0
   18.4568  -10.9564  -16.3546 N   0  0  0  0  0  0  0  0  0  0  0  0
   18.9057   -9.6567  -16.8135 C   0  0  1  0  0  0  0  0  0  0  0  0
   17.7555   -8.9877  -17.5022 C   0  0  0  0  0  0  0  0  0  0  0  0
   18.0692   -7.6323  -18.0143 C   0  0  0  0  0  0  0  0  0  0  0  0
   17.4907   -6.6287  -17.5548 O   0  0  0  0  0  0  0  0  0  0  0  0
   19.5494   -8.8709  -15.7603 C   0  0  0  0  0  0  0  0  0  0  0  0
   18.8980   -8.4806  -14.7588 O   0  0  0  0  0  0  0  0  0  0  0  0
   19.0165   -7.4813  -19.0152 O   0  0  0  0  0  0  0  0  0  0  0  0
   20.9275   -8.4934  -15.7812 N   0  0  0  0  0  0  0  0  0  0  0  0
   21.3757   -7.1132  -15.6530 C   0  0  1  0  0  0  0  0  0  0  0  0
   21.2034   -6.3444  -16.9138 C   0  0  0  0  0  0  0  0  0  0  0  0
   21.6945   -4.9642  -16.7385 C   0  0  0  0  0  0  0  0  0  0  0  0
   22.9778   -4.5491  -17.1216 C   0  0  0  0  0  0  0  0  0  0  0  0
   23.1085   -3.2489  -16.8282 N   0  0  0  0  0  0  0  0  0  0  0  0
   21.9702   -2.8087  -16.2749 C   0  0  0  0  0  0  0  0  0  0  0  0
   21.1297   -3.8597  -16.2298 N   0  0  0  0  0  0  0  0  0  0  0  0
   20.7399   -6.4294  -14.5320 C   0  0  0  0  0  0  0  0  0  0  0  0
   19.4484   -5.8995  -14.7213 O   0  0  0  0  0  0  0  0  0  0  0  0
   21.2324   -6.2653  -13.4088 O   0  0  0  0  0  0  0  0  0  0  0  0
  2  1  1  6
  3  2  1  0
  4  3  1  0
  5  4  2  0
  6  7  1  0
  6  5  1  0
  7  8  2  0
  8  4  1  0
  9 10  2  0
  9  2  1  0
 11  9  1  0
 12 11  1  0
 12 13  1  1
 14 18  1  0
 14 13  1  0
 15 14  2  0
 16 12  1  0
 16 17  2  0
 19 16  1  0
 20 21  1  6
 20 19  1  0
 22 21  1  0
 22 26  1  0
 23 24  1  0
 23 22  2  0
 24 25  1  0
 25 26  2  0
 27 20  1  0
 28 27  1  0
 29 27  2  0
M  END
$$$$
