HDH.pdb
     RDKit          3D

 29 30  0  0  1  0  0  0  0  0999 V2000
   23.1188  -14.6020  -20.6902 N   0  0  0  0  0  0  0  0  0  0  0  0
   23.8020  -13.3896  -20.3624 C   0  0  1  0  0  0  0  0  0  0  0  0
   25.0124  -13.2819  -21.2936 C   0  0  0  0  0  0  0  0  0  0  0  0
   25.9356  -14.4209  -21.0670 C   0  0  0  0  0  0  0  0  0  0  0  0
   26.3088  -15.0087  -19.8893 C   0  0  0  0  0  0  0  0  0  0  0  0
   27.1644  -16.0133  -20.1312 N   0  0  0  0  0  0  0  0  0  0  0  0
   27.3320  -16.0588  -21.4758 C   0  0  0  0  0  0  0  0  0  0  0  0
   26.5871  -15.0934  -22.0434 N   0  0  0  0  0  0  0  0  0  0  0  0
   22.9328  -12.2024  -20.6853 C   0  0  0  0  0  0  0  0  0  0  0  0
   22.6659  -11.8817  -21.8581 O   0  0  0  0  0  0  0  0  0  0  0  0
   22.4048  -11.4308  -19.6364 N   0  0  0  0  0  0  0  0  0  0  0  0
   21.4779  -10.3297  -19.8086 C   0  0  1  0  0  0  0  0  0  0  0  0
   20.2885  -10.8411  -20.5627 C   0  0  0  0  0  0  0  0  0  0  0  0
   19.2918   -9.7942  -20.8924 C   0  0  0  0  0  0  0  0  0  0  0  0
   18.2347   -9.6941  -20.2402 O   0  0  0  0  0  0  0  0  0  0  0  0
   21.1758   -9.6369  -18.5556 C   0  0  0  0  0  0  0  0  0  0  0  0
   20.1694   -9.9522  -17.8719 O   0  0  0  0  0  0  0  0  0  0  0  0
   19.5400   -8.9180  -21.9377 O   0  0  0  0  0  0  0  0  0  0  0  0
   21.9735   -8.5784  -18.0214 N   0  0  0  0  0  0  0  0  0  0  0  0
   21.6493   -7.8871  -16.7807 C   0  0  1  0  0  0  0  0  0  0  0  0
   20.1854   -7.6927  -16.6088 C   0  0  0  0  0  0  0  0  0  0  0  0
   19.6938   -6.6720  -17.5541 C   0  0  0  0  0  0  0  0  0  0  0  0
   20.4091   -5.5086  -17.8717 C   0  0  0  0  0  0  0  0  0  0  0  0
   19.6931   -4.7972  -18.7519 N   0  0  0  0  0  0  0  0  0  0  0  0
   18.5518   -5.4481  -19.0152 C   0  0  0  0  0  0  0  0  0  0  0  0
   18.5718   -6.5773  -18.2821 N   0  0  0  0  0  0  0  0  0  0  0  0
   22.2303   -8.5450  -15.6154 C   0  0  0  0  0  0  0  0  0  0  0  0
   21.9201   -8.0351  -14.3393 O   0  0  0  0  0  0  0  0  0  0  0  0
   22.9837   -9.5264  -15.6371 O   0  0  0  0  0  0  0  0  0  0  0  0
  2  1  1  6
  3  2  1  0
  4  3  1  0
  5  4  2  0
  6  7  1  0
  6  5  1  0
  7  8  2  0
  8  4  1  0
  9 10  2  0
  9  2  1  0
 11  9  1  0
 12 11  1  0
 12 13  1  1
 14 18  1  0
 14 13  1  0
 15 14  2  0
 16 12  1  0
 16 17  2  0
 19 16  1  0
 20 21  1  1
 20 19  1  0
 22 21  1  0
 22 26  1  0
 23 24  1  0
 23 22  2  0
 24 25  1  0
 25 26  2  0
 27 20  1  0
 28 27  1  0
 29 27  2  0
M  END
$$$$
