HDH.pdb
     RDKit          3D

 29 30  0  0  1  0  0  0  0  0999 V2000
   11.0620  -10.9239   -9.7839 N   0  0  0  0  0  0  0  0  0  0  0  0
   11.6716   -9.7204  -10.2574 C   0  0  1  0  0  0  0  0  0  0  0  0
   12.1249   -8.9252   -9.0304 C   0  0  0  0  0  0  0  0  0  0  0  0
   10.9466   -8.4235   -8.2815 C   0  0  0  0  0  0  0  0  0  0  0  0
   10.5032   -8.7725   -7.0351 C   0  0  0  0  0  0  0  0  0  0  0  0
    9.3969   -8.0765   -6.7324 N   0  0  0  0  0  0  0  0  0  0  0  0
    9.1408   -7.2805   -7.7997 C   0  0  0  0  0  0  0  0  0  0  0  0
   10.0802   -7.4907   -8.7389 N   0  0  0  0  0  0  0  0  0  0  0  0
   12.9293  -10.0434  -11.0210 C   0  0  0  0  0  0  0  0  0  0  0  0
   13.7079  -10.9434  -10.6561 O   0  0  0  0  0  0  0  0  0  0  0  0
   13.2379   -9.3108  -12.1797 N   0  0  0  0  0  0  0  0  0  0  0  0
   14.4076   -9.5310  -13.0071 C   0  0  1  0  0  0  0  0  0  0  0  0
   13.9536   -9.6299  -14.4315 C   0  0  0  0  0  0  0  0  0  0  0  0
   15.0466   -9.9187  -15.3907 C   0  0  0  0  0  0  0  0  0  0  0  0
   14.9391   -9.6034  -16.5916 O   0  0  0  0  0  0  0  0  0  0  0  0
   15.4753   -8.5626  -12.7548 C   0  0  0  0  0  0  0  0  0  0  0  0
   15.2220   -7.3353  -12.6591 O   0  0  0  0  0  0  0  0  0  0  0  0
   16.1998  -10.5462  -14.9454 O   0  0  0  0  0  0  0  0  0  0  0  0
   16.8505   -8.9193  -12.6011 N   0  0  0  0  0  0  0  0  0  0  0  0
   17.9084   -7.9383  -12.3991 C   0  0  1  0  0  0  0  0  0  0  0  0
   19.1905   -8.5677  -11.9862 C   0  0  0  0  0  0  0  0  0  0  0  0
   20.1974   -7.5282  -11.6987 C   0  0  0  0  0  0  0  0  0  0  0  0
   20.4216   -7.0073  -10.4164 C   0  0  0  0  0  0  0  0  0  0  0  0
   21.3927   -6.0884  -10.4954 N   0  0  0  0  0  0  0  0  0  0  0  0
   21.8032   -5.9941  -11.7675 C   0  0  0  0  0  0  0  0  0  0  0  0
   21.0691   -6.8715  -12.4775 N   0  0  0  0  0  0  0  0  0  0  0  0
   18.0970   -7.0832  -13.5660 C   0  0  0  0  0  0  0  0  0  0  0  0
   17.9485   -7.6580  -14.8436 O   0  0  0  0  0  0  0  0  0  0  0  0
   18.3801   -5.8789  -13.5446 O   0  0  0  0  0  0  0  0  0  0  0  0
  2  1  1  1
  3  2  1  0
  4  3  1  0
  5  4  2  0
  6  7  1  0
  6  5  1  0
  7  8  2  0
  8  4  1  0
  9 10  2  0
  9  2  1  0
 11  9  1  0
 12 11  1  0
 12 13  1  6
 14 18  1  0
 14 13  1  0
 15 14  2  0
 16 12  1  0
 16 17  2  0
 19 16  1  0
 20 21  1  6
 20 19  1  0
 22 21  1  0
 22 26  1  0
 23 24  1  0
 23 22  2  0
 24 25  1  0
 25 26  2  0
 27 20  1  0
 28 27  1  0
 29 27  2  0
M  END
$$$$
