HDH.pdb
     RDKit          3D

 29 30  0  0  1  0  0  0  0  0999 V2000
   21.3907  -14.1488  -18.9698 N   0  0  0  0  0  0  0  0  0  0  0  0
   20.6610  -12.9372  -19.1783 C   0  0  1  0  0  0  0  0  0  0  0  0
   19.4378  -12.9771  -18.2586 C   0  0  0  0  0  0  0  0  0  0  0  0
   18.4513  -13.9644  -18.7613 C   0  0  0  0  0  0  0  0  0  0  0  0
   18.6637  -15.1033  -19.4892 C   0  0  0  0  0  0  0  0  0  0  0  0
   17.4939  -15.7122  -19.7363 N   0  0  0  0  0  0  0  0  0  0  0  0
   16.5345  -14.9486  -19.1579 C   0  0  0  0  0  0  0  0  0  0  0  0
   17.1147  -13.8889  -18.5668 N   0  0  0  0  0  0  0  0  0  0  0  0
   21.4768  -11.7566  -18.7202 C   0  0  0  0  0  0  0  0  0  0  0  0
   22.3273  -11.8552  -17.8167 O   0  0  0  0  0  0  0  0  0  0  0  0
   21.2763  -10.5050  -19.3266 N   0  0  0  0  0  0  0  0  0  0  0  0
   21.9678   -9.2872  -18.9520 C   0  0  1  0  0  0  0  0  0  0  0  0
   22.3411   -8.5628  -20.2093 C   0  0  0  0  0  0  0  0  0  0  0  0
   23.1106   -7.3170  -19.9778 C   0  0  0  0  0  0  0  0  0  0  0  0
   22.5628   -6.2023  -20.0805 O   0  0  0  0  0  0  0  0  0  0  0  0
   21.2332   -8.4943  -17.9657 C   0  0  0  0  0  0  0  0  0  0  0  0
   19.9879   -8.3492  -18.0546 O   0  0  0  0  0  0  0  0  0  0  0  0
   24.4538   -7.3944  -19.6435 O   0  0  0  0  0  0  0  0  0  0  0  0
   21.8496   -7.8398  -16.8550 N   0  0  0  0  0  0  0  0  0  0  0  0
   21.1310   -6.9372  -15.9654 C   0  0  1  0  0  0  0  0  0  0  0  0
   21.0717   -7.4483  -14.5705 C   0  0  0  0  0  0  0  0  0  0  0  0
   20.0272   -8.4838  -14.4527 C   0  0  0  0  0  0  0  0  0  0  0  0
   19.2115   -8.8798  -15.5221 C   0  0  0  0  0  0  0  0  0  0  0  0
   18.3737   -9.8300  -15.0876 N   0  0  0  0  0  0  0  0  0  0  0  0
   18.6122  -10.0635  -13.7898 C   0  0  0  0  0  0  0  0  0  0  0  0
   19.6139   -9.2406  -13.4259 N   0  0  0  0  0  0  0  0  0  0  0  0
   21.6691   -5.5817  -16.0037 C   0  0  0  0  0  0  0  0  0  0  0  0
   21.0089   -4.5821  -15.2624 O   0  0  0  0  0  0  0  0  0  0  0  0
   22.6681   -5.2155  -16.6353 O   0  0  0  0  0  0  0  0  0  0  0  0
  2  1  1  1
  3  2  1  0
  4  3  1  0
  5  4  2  0
  6  7  1  0
  6  5  1  0
  7  8  2  0
  8  4  1  0
  9 10  2  0
  9  2  1  0
 11  9  1  0
 12 11  1  0
 12 13  1  6
 14 18  1  0
 14 13  1  0
 15 14  2  0
 16 12  1  0
 16 17  2  0
 19 16  1  0
 20 21  1  1
 20 19  1  0
 22 21  1  0
 22 26  1  0
 23 24  1  0
 23 22  2  0
 24 25  1  0
 25 26  2  0
 27 20  1  0
 28 27  1  0
 29 27  2  0
M  END
$$$$
