HDH.pdb
     RDKit          3D

 29 30  0  0  1  0  0  0  0  0999 V2000
   30.4597  -35.9711   -4.9722 N   0  0  0  0  0  0  0  0  0  0  0  0
   30.4075  -34.8838   -4.0453 C   0  0  1  0  0  0  0  0  0  0  0  0
   30.3863  -33.5889   -4.8615 C   0  0  0  0  0  0  0  0  0  0  0  0
   31.7236  -33.3331   -5.4505 C   0  0  0  0  0  0  0  0  0  0  0  0
   32.8470  -34.1132   -5.4132 C   0  0  0  0  0  0  0  0  0  0  0  0
   33.8451  -33.5087   -6.0755 N   0  0  0  0  0  0  0  0  0  0  0  0
   33.3449  -32.3352   -6.5348 C   0  0  0  0  0  0  0  0  0  0  0  0
   32.0588  -32.2286   -6.1561 N   0  0  0  0  0  0  0  0  0  0  0  0
   29.1045  -34.9104   -3.2897 C   0  0  0  0  0  0  0  0  0  0  0  0
   28.0091  -34.7588   -3.8612 O   0  0  0  0  0  0  0  0  0  0  0  0
   29.1197  -35.1118   -1.8991 N   0  0  0  0  0  0  0  0  0  0  0  0
   27.9369  -35.2667   -1.0756 C   0  0  1  0  0  0  0  0  0  0  0  0
   27.0913  -36.3457   -1.6804 C   0  0  0  0  0  0  0  0  0  0  0  0
   25.8250  -36.5952   -0.9509 C   0  0  0  0  0  0  0  0  0  0  0  0
   25.3171  -37.7330   -0.9284 O   0  0  0  0  0  0  0  0  0  0  0  0
   28.2483  -35.4355    0.3442 C   0  0  0  0  0  0  0  0  0  0  0  0
   29.0178  -36.3512    0.7302 O   0  0  0  0  0  0  0  0  0  0  0  0
   25.2005  -35.5506   -0.2871 O   0  0  0  0  0  0  0  0  0  0  0  0
   27.7209  -34.6008    1.3773 N   0  0  0  0  0  0  0  0  0  0  0  0
   27.9985  -34.8147    2.7913 C   0  0  1  0  0  0  0  0  0  0  0  0
   28.0004  -33.5449    3.5646 C   0  0  0  0  0  0  0  0  0  0  0  0
   29.3528  -32.9550    3.5696 C   0  0  0  0  0  0  0  0  0  0  0  0
   30.4595  -33.5613    2.9584 C   0  0  0  0  0  0  0  0  0  0  0  0
   31.5290  -32.7766    3.1431 N   0  0  0  0  0  0  0  0  0  0  0  0
   31.1622  -31.6949    3.8438 C   0  0  0  0  0  0  0  0  0  0  0  0
   29.8448  -31.8220    4.0912 N   0  0  0  0  0  0  0  0  0  0  0  0
   27.0931  -35.7901    3.3891 C   0  0  0  0  0  0  0  0  0  0  0  0
   27.2409  -36.0836    4.7590 O   0  0  0  0  0  0  0  0  0  0  0  0
   26.1900  -36.3975    2.8004 O   0  0  0  0  0  0  0  0  0  0  0  0
  2  1  1  6
  3  2  1  0
  4  3  1  0
  5  4  2  0
  6  7  1  0
  6  5  1  0
  7  8  2  0
  8  4  1  0
  9 10  2  0
  9  2  1  0
 11  9  1  0
 12 11  1  0
 12 13  1  6
 14 18  1  0
 14 13  1  0
 15 14  2  0
 16 12  1  0
 16 17  2  0
 19 16  1  0
 20 21  1  1
 20 19  1  0
 22 21  1  0
 22 26  1  0
 23 24  1  0
 23 22  2  0
 24 25  1  0
 25 26  2  0
 27 20  1  0
 28 27  1  0
 29 27  2  0
M  END
$$$$
