HDH.pdb
     RDKit          3D

 29 30  0  0  1  0  0  0  0  0999 V2000
   19.5439  -13.8832  -16.3142 N   0  0  0  0  0  0  0  0  0  0  0  0
   19.2479  -12.7166  -17.0859 C   0  0  1  0  0  0  0  0  0  0  0  0
   17.7899  -12.8275  -17.5396 C   0  0  0  0  0  0  0  0  0  0  0  0
   17.6390  -13.9391  -18.5104 C   0  0  0  0  0  0  0  0  0  0  0  0
   17.3025  -13.8883  -19.8356 C   0  0  0  0  0  0  0  0  0  0  0  0
   17.2783  -15.1278  -20.3485 N   0  0  0  0  0  0  0  0  0  0  0  0
   17.6030  -15.9683  -19.3354 C   0  0  0  0  0  0  0  0  0  0  0  0
   17.8217  -15.2478  -18.2210 N   0  0  0  0  0  0  0  0  0  0  0  0
   19.3109  -11.4899  -16.2139 C   0  0  0  0  0  0  0  0  0  0  0  0
   18.7266  -11.4319  -15.1163 O   0  0  0  0  0  0  0  0  0  0  0  0
   20.0493  -10.3754  -16.6468 N   0  0  0  0  0  0  0  0  0  0  0  0
   20.1934   -9.1414  -15.8999 C   0  0  1  0  0  0  0  0  0  0  0  0
   21.6549   -8.8236  -15.8109 C   0  0  0  0  0  0  0  0  0  0  0  0
   21.9536   -7.5799  -15.0613 C   0  0  0  0  0  0  0  0  0  0  0  0
   21.6468   -7.4727  -13.8582 O   0  0  0  0  0  0  0  0  0  0  0  0
   19.3469   -8.0629  -16.4113 C   0  0  0  0  0  0  0  0  0  0  0  0
   19.4614   -7.6616  -17.5968 O   0  0  0  0  0  0  0  0  0  0  0  0
   22.5811   -6.5257  -15.7070 O   0  0  0  0  0  0  0  0  0  0  0  0
   18.3516   -7.3972  -15.6314 N   0  0  0  0  0  0  0  0  0  0  0  0
   17.5921   -6.2540  -16.1199 C   0  0  1  0  0  0  0  0  0  0  0  0
   16.2277   -6.1903  -15.5329 C   0  0  0  0  0  0  0  0  0  0  0  0
   15.4516   -5.1075  -16.1672 C   0  0  0  0  0  0  0  0  0  0  0  0
   15.4697   -4.8530  -17.5459 C   0  0  0  0  0  0  0  0  0  0  0  0
   14.6656   -3.8115  -17.7957 N   0  0  0  0  0  0  0  0  0  0  0  0
   14.1317   -3.3846  -16.6432 C   0  0  0  0  0  0  0  0  0  0  0  0
   14.6190   -4.1802  -15.6724 N   0  0  0  0  0  0  0  0  0  0  0  0
   18.3046   -4.9957  -15.9259 C   0  0  0  0  0  0  0  0  0  0  0  0
   17.7861   -3.8362  -16.5353 O   0  0  0  0  0  0  0  0  0  0  0  0
   19.3400   -4.8428  -15.2657 O   0  0  0  0  0  0  0  0  0  0  0  0
  2  1  1  1
  3  2  1  0
  4  3  1  0
  5  4  2  0
  6  7  1  0
  6  5  1  0
  7  8  2  0
  8  4  1  0
  9 10  2  0
  9  2  1  0
 11  9  1  0
 12 11  1  0
 12 13  1  6
 14 18  1  0
 14 13  1  0
 15 14  2  0
 16 12  1  0
 16 17  2  0
 19 16  1  0
 20 21  1  1
 20 19  1  0
 22 21  1  0
 22 26  1  0
 23 24  1  0
 23 22  2  0
 24 25  1  0
 25 26  2  0
 27 20  1  0
 28 27  1  0
 29 27  2  0
M  END
$$$$
