HDH.pdb
     RDKit          3D

 29 30  0  0  1  0  0  0  0  0999 V2000
   42.3301  -10.3297   -5.1716 N   0  0  0  0  0  0  0  0  0  0  0  0
   42.0244   -9.6171   -6.3728 C   0  0  1  0  0  0  0  0  0  0  0  0
   40.9761  -10.4333   -7.1333 C   0  0  0  0  0  0  0  0  0  0  0  0
   41.5835  -11.0518   -8.3372 C   0  0  0  0  0  0  0  0  0  0  0  0
   42.8894  -11.0461   -8.7452 C   0  0  0  0  0  0  0  0  0  0  0  0
   43.0120  -11.7275   -9.8944 N   0  0  0  0  0  0  0  0  0  0  0  0
   41.7698  -12.1672  -10.2136 C   0  0  0  0  0  0  0  0  0  0  0  0
   40.9037  -11.7577   -9.2697 N   0  0  0  0  0  0  0  0  0  0  0  0
   41.3589   -8.3068   -6.0418 C   0  0  0  0  0  0  0  0  0  0  0  0
   40.4598   -8.2233   -5.1850 O   0  0  0  0  0  0  0  0  0  0  0  0
   41.7604   -7.1415   -6.7165 N   0  0  0  0  0  0  0  0  0  0  0  0
   41.1391   -5.8415   -6.5578 C   0  0  1  0  0  0  0  0  0  0  0  0
   42.1870   -4.8845   -6.0771 C   0  0  0  0  0  0  0  0  0  0  0  0
   41.6592   -3.5449   -5.7239 C   0  0  0  0  0  0  0  0  0  0  0  0
   40.7797   -3.4175   -4.8502 O   0  0  0  0  0  0  0  0  0  0  0  0
   40.3972   -5.4150   -7.7447 C   0  0  0  0  0  0  0  0  0  0  0  0
   39.8308   -4.2936   -7.7816 O   0  0  0  0  0  0  0  0  0  0  0  0
   42.1504   -2.4228   -6.3733 O   0  0  0  0  0  0  0  0  0  0  0  0
   40.2587   -6.2115   -8.9231 N   0  0  0  0  0  0  0  0  0  0  0  0
   39.4733   -5.7941  -10.0769 C   0  0  1  0  0  0  0  0  0  0  0  0
   40.1406   -6.1253  -11.3636 C   0  0  0  0  0  0  0  0  0  0  0  0
   41.3575   -5.3077  -11.5302 C   0  0  0  0  0  0  0  0  0  0  0  0
   41.7887   -4.3672  -10.5839 C   0  0  0  0  0  0  0  0  0  0  0  0
   42.9156   -3.7996  -11.0327 N   0  0  0  0  0  0  0  0  0  0  0  0
   43.2291   -4.3307  -12.2224 C   0  0  0  0  0  0  0  0  0  0  0  0
   42.2760   -5.2388  -12.5045 N   0  0  0  0  0  0  0  0  0  0  0  0
   38.1150   -6.3250  -10.0400 C   0  0  0  0  0  0  0  0  0  0  0  0
   37.2518   -6.0208  -11.1110 O   0  0  0  0  0  0  0  0  0  0  0  0
   37.6360   -7.0303   -9.1431 O   0  0  0  0  0  0  0  0  0  0  0  0
  2  1  1  1
  3  2  1  0
  4  3  1  0
  5  4  2  0
  6  7  1  0
  6  5  1  0
  7  8  2  0
  8  4  1  0
  9 10  2  0
  9  2  1  0
 11  9  1  0
 12 11  1  0
 12 13  1  6
 14 18  1  0
 14 13  1  0
 15 14  2  0
 16 12  1  0
 16 17  2  0
 19 16  1  0
 20 21  1  6
 20 19  1  0
 22 21  1  0
 22 26  1  0
 23 24  1  0
 23 22  2  0
 24 25  1  0
 25 26  2  0
 27 20  1  0
 28 27  1  0
 29 27  2  0
M  END
$$$$
