HDH.pdb
     RDKit          3D

 29 30  0  0  1  0  0  0  0  0999 V2000
   16.7671  -13.3354    5.9630 N   0  0  0  0  0  0  0  0  0  0  0  0
   17.8201  -14.2915    5.8174 C   0  0  1  0  0  0  0  0  0  0  0  0
   18.8333  -14.0279    6.9343 C   0  0  0  0  0  0  0  0  0  0  0  0
   19.8336  -13.0255    6.4921 C   0  0  0  0  0  0  0  0  0  0  0  0
   19.8766  -12.3030    5.3310 C   0  0  0  0  0  0  0  0  0  0  0  0
   20.9544  -11.5040    5.3300 N   0  0  0  0  0  0  0  0  0  0  0  0
   21.5971  -11.7256    6.5030 C   0  0  0  0  0  0  0  0  0  0  0  0
   20.9177  -12.6480    7.2077 N   0  0  0  0  0  0  0  0  0  0  0  0
   17.2944  -15.6815    6.0640 C   0  0  0  0  0  0  0  0  0  0  0  0
   16.9365  -16.0587    7.1950 O   0  0  0  0  0  0  0  0  0  0  0  0
   17.2030  -16.5830    4.9900 N   0  0  0  0  0  0  0  0  0  0  0  0
   16.8299  -17.9782    5.1143 C   0  0  1  0  0  0  0  0  0  0  0  0
   16.3763  -18.4565    3.7688 C   0  0  0  0  0  0  0  0  0  0  0  0
   15.7607  -19.8051    3.7878 C   0  0  0  0  0  0  0  0  0  0  0  0
   15.6349  -20.4321    4.8575 O   0  0  0  0  0  0  0  0  0  0  0  0
   17.8658  -18.7910    5.7526 C   0  0  0  0  0  0  0  0  0  0  0  0
   19.0240  -18.8543    5.2685 O   0  0  0  0  0  0  0  0  0  0  0  0
   15.3209  -20.3733    2.6023 O   0  0  0  0  0  0  0  0  0  0  0  0
   17.6547  -19.5561    6.9410 N   0  0  0  0  0  0  0  0  0  0  0  0
   18.6590  -20.4523    7.4983 C   0  0  1  0  0  0  0  0  0  0  0  0
   19.2080  -19.9532    8.7867 C   0  0  0  0  0  0  0  0  0  0  0  0
   20.1530  -18.8469    8.5419 C   0  0  0  0  0  0  0  0  0  0  0  0
   19.8002  -17.4943    8.6519 C   0  0  0  0  0  0  0  0  0  0  0  0
   20.8767  -16.7504    8.3667 N   0  0  0  0  0  0  0  0  0  0  0  0
   21.9045  -17.5605    8.0788 C   0  0  0  0  0  0  0  0  0  0  0  0
   21.4467  -18.8218    8.1903 N   0  0  0  0  0  0  0  0  0  0  0  0
   18.1641  -21.8180    7.6343 C   0  0  0  0  0  0  0  0  0  0  0  0
   19.0086  -22.7760    8.2289 O   0  0  0  0  0  0  0  0  0  0  0  0
   17.0538  -22.2265    7.2719 O   0  0  0  0  0  0  0  0  0  0  0  0
  2  1  1  1
  3  2  1  0
  4  3  1  0
  5  4  2  0
  6  7  1  0
  6  5  1  0
  7  8  2  0
  8  4  1  0
  9 10  2  0
  9  2  1  0
 11  9  1  0
 12 11  1  0
 12 13  1  6
 14 18  1  0
 14 13  1  0
 15 14  2  0
 16 12  1  0
 16 17  2  0
 19 16  1  0
 20 21  1  1
 20 19  1  0
 22 21  1  0
 22 26  1  0
 23 24  1  0
 23 22  2  0
 24 25  1  0
 25 26  2  0
 27 20  1  0
 28 27  1  0
 29 27  2  0
M  END
$$$$
