HDH.pdb
     RDKit          3D

 29 30  0  0  1  0  0  0  0  0999 V2000
   18.1240  -16.2413  -15.9565 N   0  0  0  0  0  0  0  0  0  0  0  0
   18.4169  -15.1430  -15.0895 C   0  0  1  0  0  0  0  0  0  0  0  0
   19.9200  -15.1775  -14.8010 C   0  0  0  0  0  0  0  0  0  0  0  0
   20.2629  -16.3886  -14.0158 C   0  0  0  0  0  0  0  0  0  0  0  0
   21.1126  -17.4124  -14.3347 C   0  0  0  0  0  0  0  0  0  0  0  0
   21.1357  -18.3132  -13.3407 N   0  0  0  0  0  0  0  0  0  0  0  0
   20.2915  -17.8519  -12.3855 C   0  0  0  0  0  0  0  0  0  0  0  0
   19.7622  -16.6850  -12.7945 N   0  0  0  0  0  0  0  0  0  0  0  0
   18.1690  -13.8399  -15.8035 C   0  0  0  0  0  0  0  0  0  0  0  0
   18.7301  -13.5618  -16.8792 O   0  0  0  0  0  0  0  0  0  0  0  0
   17.2795  -12.9072  -15.2438 N   0  0  0  0  0  0  0  0  0  0  0  0
   16.9549  -11.6223  -15.8312 C   0  0  1  0  0  0  0  0  0  0  0  0
   15.4663  -11.4578  -15.7882 C   0  0  0  0  0  0  0  0  0  0  0  0
   14.9842  -10.1974  -16.4022 C   0  0  0  0  0  0  0  0  0  0  0  0
   15.7820   -9.4066  -16.9419 O   0  0  0  0  0  0  0  0  0  0  0  0
   17.7248  -10.5201  -15.2536 C   0  0  0  0  0  0  0  0  0  0  0  0
   17.7805  -10.3565  -14.0087 O   0  0  0  0  0  0  0  0  0  0  0  0
   13.6311   -9.8967  -16.3749 O   0  0  0  0  0  0  0  0  0  0  0  0
   18.4542   -9.5683  -16.0309 N   0  0  0  0  0  0  0  0  0  0  0  0
   19.1848   -8.4539  -15.4421 C   0  0  1  0  0  0  0  0  0  0  0  0
   20.0250   -7.7399  -16.4395 C   0  0  0  0  0  0  0  0  0  0  0  0
   20.7623   -6.6400  -15.7886 C   0  0  0  0  0  0  0  0  0  0  0  0
   21.5654   -6.8176  -14.6530 C   0  0  0  0  0  0  0  0  0  0  0  0
   22.0893   -5.6325  -14.3143 N   0  0  0  0  0  0  0  0  0  0  0  0
   21.6612   -4.7019  -15.1781 C   0  0  0  0  0  0  0  0  0  0  0  0
   20.8613   -5.3308  -16.0600 N   0  0  0  0  0  0  0  0  0  0  0  0
   18.3037   -7.5267  -14.7405 C   0  0  0  0  0  0  0  0  0  0  0  0
   17.1387   -7.0874  -15.3996 O   0  0  0  0  0  0  0  0  0  0  0  0
   18.4816   -7.0788  -13.6008 O   0  0  0  0  0  0  0  0  0  0  0  0
  2  1  1  6
  3  2  1  0
  4  3  1  0
  5  4  2  0
  6  7  1  0
  6  5  1  0
  7  8  2  0
  8  4  1  0
  9 10  2  0
  9  2  1  0
 11  9  1  0
 12 11  1  0
 12 13  1  1
 14 18  1  0
 14 13  1  0
 15 14  2  0
 16 12  1  0
 16 17  2  0
 19 16  1  0
 20 21  1  6
 20 19  1  0
 22 21  1  0
 22 26  1  0
 23 24  1  0
 23 22  2  0
 24 25  1  0
 25 26  2  0
 27 20  1  0
 28 27  1  0
 29 27  2  0
M  END
$$$$
