HDH.pdb
     RDKit          3D

 29 30  0  0  1  0  0  0  0  0999 V2000
   17.5981  -14.1404  -15.5997 N   0  0  0  0  0  0  0  0  0  0  0  0
   18.5699  -13.1897  -16.0422 C   0  0  1  0  0  0  0  0  0  0  0  0
   19.0633  -13.6478  -17.4171 C   0  0  0  0  0  0  0  0  0  0  0  0
   19.8212  -14.9170  -17.2922 C   0  0  0  0  0  0  0  0  0  0  0  0
   21.0860  -15.1238  -16.8131 C   0  0  0  0  0  0  0  0  0  0  0  0
   21.3899  -16.4291  -16.8745 N   0  0  0  0  0  0  0  0  0  0  0  0
   20.3048  -17.0512  -17.3978 C   0  0  0  0  0  0  0  0  0  0  0  0
   19.3537  -16.1346  -17.6512 N   0  0  0  0  0  0  0  0  0  0  0  0
   17.9178  -11.8508  -16.2688 C   0  0  0  0  0  0  0  0  0  0  0  0
   16.9709  -11.7060  -17.0638 O   0  0  0  0  0  0  0  0  0  0  0  0
   18.3876  -10.7289  -15.5652 N   0  0  0  0  0  0  0  0  0  0  0  0
   17.8437   -9.3909  -15.6890 C   0  0  1  0  0  0  0  0  0  0  0  0
   16.6075   -9.3152  -14.8457 C   0  0  0  0  0  0  0  0  0  0  0  0
   15.9634   -7.9799  -14.8440 C   0  0  0  0  0  0  0  0  0  0  0  0
   15.7557   -7.3749  -13.7745 O   0  0  0  0  0  0  0  0  0  0  0  0
   18.8374   -8.3458  -15.4407 C   0  0  0  0  0  0  0  0  0  0  0  0
   19.5490   -8.3670  -14.4050 O   0  0  0  0  0  0  0  0  0  0  0  0
   15.5887   -7.3994  -16.0459 O   0  0  0  0  0  0  0  0  0  0  0  0
   19.0744   -7.2493  -16.3259 N   0  0  0  0  0  0  0  0  0  0  0  0
   20.0954   -6.2388  -16.0840 C   0  0  1  0  0  0  0  0  0  0  0  0
   20.3468   -5.3926  -17.2803 C   0  0  0  0  0  0  0  0  0  0  0  0
   21.4302   -4.4300  -17.0034 C   0  0  0  0  0  0  0  0  0  0  0  0
   22.6456   -4.4167  -17.7023 C   0  0  0  0  0  0  0  0  0  0  0  0
   23.4063   -3.4295  -17.2120 N   0  0  0  0  0  0  0  0  0  0  0  0
   22.7375   -2.8077  -16.2313 C   0  0  0  0  0  0  0  0  0  0  0  0
   21.5470   -3.4270  -16.1213 N   0  0  0  0  0  0  0  0  0  0  0  0
   19.7923   -5.4179  -14.9166 C   0  0  0  0  0  0  0  0  0  0  0  0
   20.8372   -5.1278  -14.0172 O   0  0  0  0  0  0  0  0  0  0  0  0
   18.6863   -4.9414  -14.6324 O   0  0  0  0  0  0  0  0  0  0  0  0
  2  1  1  6
  3  2  1  0
  4  3  1  0
  5  4  2  0
  6  7  1  0
  6  5  1  0
  7  8  2  0
  8  4  1  0
  9 10  2  0
  9  2  1  0
 11  9  1  0
 12 11  1  0
 12 13  1  1
 14 18  1  0
 14 13  1  0
 15 14  2  0
 16 12  1  0
 16 17  2  0
 19 16  1  0
 20 21  1  6
 20 19  1  0
 22 21  1  0
 22 26  1  0
 23 24  1  0
 23 22  2  0
 24 25  1  0
 25 26  2  0
 27 20  1  0
 28 27  1  0
 29 27  2  0
M  END
$$$$
