HDH.pdb
     RDKit          3D

 29 30  0  0  1  0  0  0  0  0999 V2000
   28.8052  -37.1282   -0.9723 N   0  0  0  0  0  0  0  0  0  0  0  0
   29.1639  -35.8246   -0.5074 C   0  0  1  0  0  0  0  0  0  0  0  0
   28.1181  -34.8446   -1.0454 C   0  0  0  0  0  0  0  0  0  0  0  0
   28.3446  -34.5965   -2.4904 C   0  0  0  0  0  0  0  0  0  0  0  0
   29.3013  -35.1198   -3.3167 C   0  0  0  0  0  0  0  0  0  0  0  0
   29.1505  -34.6311   -4.5570 N   0  0  0  0  0  0  0  0  0  0  0  0
   28.0875  -33.7908   -4.5114 C   0  0  0  0  0  0  0  0  0  0  0  0
   27.5987  -33.7697   -3.2586 N   0  0  0  0  0  0  0  0  0  0  0  0
   29.0482  -35.7606    0.9932 C   0  0  0  0  0  0  0  0  0  0  0  0
   27.9882  -36.0381    1.5840 O   0  0  0  0  0  0  0  0  0  0  0  0
   30.1659  -35.3773    1.7536 N   0  0  0  0  0  0  0  0  0  0  0  0
   30.1932  -35.3068    3.2012 C   0  0  1  0  0  0  0  0  0  0  0  0
   31.4553  -35.9630    3.6717 C   0  0  0  0  0  0  0  0  0  0  0  0
   31.4097  -37.4445    3.6378 C   0  0  0  0  0  0  0  0  0  0  0  0
   32.4328  -38.1069    3.3777 O   0  0  0  0  0  0  0  0  0  0  0  0
   29.9614  -33.9549    3.7110 C   0  0  0  0  0  0  0  0  0  0  0  0
   30.7003  -32.9998    3.3624 O   0  0  0  0  0  0  0  0  0  0  0  0
   30.2154  -38.0985    3.8984 O   0  0  0  0  0  0  0  0  0  0  0  0
   28.9100  -33.6180    4.6183 N   0  0  0  0  0  0  0  0  0  0  0  0
   28.7257  -32.2779    5.1591 C   0  0  1  0  0  0  0  0  0  0  0  0
   27.3056  -31.9960    5.4971 C   0  0  0  0  0  0  0  0  0  0  0  0
   26.5154  -31.8181    4.2639 C   0  0  0  0  0  0  0  0  0  0  0  0
   27.0924  -31.6099    3.0031 C   0  0  0  0  0  0  0  0  0  0  0  0
   26.1095  -31.4867    2.1017 N   0  0  0  0  0  0  0  0  0  0  0  0
   24.9284  -31.6059    2.7233 C   0  0  0  0  0  0  0  0  0  0  0  0
   25.1956  -31.8054    4.0278 N   0  0  0  0  0  0  0  0  0  0  0  0
   29.5966  -32.0200    6.3009 C   0  0  0  0  0  0  0  0  0  0  0  0
   29.5357  -30.7519    6.9116 O   0  0  0  0  0  0  0  0  0  0  0  0
   30.3995  -32.8207    6.7961 O   0  0  0  0  0  0  0  0  0  0  0  0
  2  1  1  6
  3  2  1  0
  4  3  1  0
  5  4  2  0
  6  7  1  0
  6  5  1  0
  7  8  2  0
  8  4  1  0
  9 10  2  0
  9  2  1  0
 11  9  1  0
 12 11  1  0
 12 13  1  6
 14 18  1  0
 14 13  1  0
 15 14  2  0
 16 12  1  0
 16 17  2  0
 19 16  1  0
 20 21  1  1
 20 19  1  0
 22 21  1  0
 22 26  1  0
 23 24  1  0
 23 22  2  0
 24 25  1  0
 25 26  2  0
 27 20  1  0
 28 27  1  0
 29 27  2  0
M  END
$$$$
