NSE.pdb
     RDKit          3D

 24 23  0  0  1  0  0  0  0  0999 V2000
    7.3343  -15.1211   16.9312 N   0  0  0  0  0  0  0  0  0  0  0  0
    7.1373  -13.8302   16.3913 C   0  0  0  0  0  0  0  0  0  0  0  0
    6.0888  -13.6752   15.6984 O   0  0  0  0  0  0  0  0  0  0  0  0
    8.0834  -12.7371   16.6194 C   0  0  0  0  0  0  0  0  0  0  0  0
    9.2016  -13.1808   17.5163 C   0  0  2  0  0  0  0  0  0  0  0  0
    9.4235  -14.6027   17.2096 N   0  0  0  0  0  0  0  0  0  0  0  0
    8.7236  -13.1958   18.9458 C   0  0  0  0  0  0  0  0  0  0  0  0
    8.5370  -12.1344   19.5807 O   0  0  0  0  0  0  0  0  0  0  0  0
    7.0772  -16.1963   20.8804 O   0  0  0  0  0  0  0  0  0  0  0  0
    7.4680  -15.1638   21.6999 C   0  0  0  0  0  0  0  0  0  0  0  0
    8.7412  -14.5667   21.0671 C   0  0  2  0  0  0  0  0  0  0  0  0
    8.4574  -14.4061   19.6511 N   0  0  0  0  0  0  0  0  0  0  0  0
    9.8206  -15.5749   21.2030 C   0  0  0  0  0  0  0  0  0  0  0  0
   10.1731  -16.3111   20.2179 O   0  0  0  0  0  0  0  0  0  0  0  0
   10.5315  -15.7980   22.4116 N   0  0  0  0  0  0  0  0  0  0  0  0
   11.9200  -16.2786   22.4400 C   0  0  1  0  0  0  0  0  0  0  0  0
   12.7774  -15.5330   21.4971 C   0  0  0  0  0  0  0  0  0  0  0  0
   14.2046  -15.8684   21.4260 C   0  0  0  0  0  0  0  0  0  0  0  0
   15.0165  -15.0485   20.5389 C   0  0  0  0  0  0  0  0  0  0  0  0
   14.6905  -14.1436   19.7679 O   0  0  0  0  0  0  0  0  0  0  0  0
   12.3505  -16.4636   23.8185 C   0  0  0  0  0  0  0  0  0  0  0  0
   13.4691  -17.0465   24.0568 O   0  0  0  0  0  0  0  0  0  0  0  0
   16.4135  -15.3479   20.5747 O   0  0  0  0  0  0  0  0  0  0  0  0
   11.6557  -16.0629   24.9542 O   0  0  0  0  0  0  0  0  0  0  0  0
  2  1  1  0
  2  3  2  0
  4  2  1  0
  5  4  1  0
  5  6  1  6
  7  8  2  0
  7  5  1  0
  9 10  1  0
 11 10  1  1
 11 12  1  0
 12  7  1  0
 13 11  1  0
 13 15  1  0
 14 13  2  0
 16 15  1  0
 16 21  1  0
 16 17  1  1
 18 17  1  0
 19 23  1  0
 19 18  1  0
 20 19  2  0
 21 22  2  0
 21 24  1  0
M  END
$$$$
