NSE.pdb
     RDKit          3D

 24 23  0  0  1  0  0  0  0  0999 V2000
    8.7534  -21.0012   16.5700 N   0  0  0  0  0  0  0  0  0  0  0  0
    9.4171  -19.7928   16.2607 C   0  0  0  0  0  0  0  0  0  0  0  0
    9.6378  -19.5826   15.0316 O   0  0  0  0  0  0  0  0  0  0  0  0
    9.8231  -18.8397   17.2944 C   0  0  0  0  0  0  0  0  0  0  0  0
    8.6280  -18.1352   17.8665 C   0  0  2  0  0  0  0  0  0  0  0  0
    8.0660  -17.3373   16.7653 N   0  0  0  0  0  0  0  0  0  0  0  0
    9.0841  -17.0979   18.8604 C   0  0  0  0  0  0  0  0  0  0  0  0
   10.1801  -16.5092   18.7301 O   0  0  0  0  0  0  0  0  0  0  0  0
    6.9130  -16.5655   22.1656 O   0  0  0  0  0  0  0  0  0  0  0  0
    7.5197  -15.3818   21.8175 C   0  0  0  0  0  0  0  0  0  0  0  0
    8.7564  -15.7596   20.9774 C   0  0  2  0  0  0  0  0  0  0  0  0
    8.3025  -16.7288   19.9945 N   0  0  0  0  0  0  0  0  0  0  0  0
    9.7158  -16.4421   21.8795 C   0  0  0  0  0  0  0  0  0  0  0  0
    9.7219  -17.7151   22.0061 O   0  0  0  0  0  0  0  0  0  0  0  0
   10.6813  -15.7507   22.6577 N   0  0  0  0  0  0  0  0  0  0  0  0
   11.7108  -16.4429   23.4455 C   0  0  1  0  0  0  0  0  0  0  0  0
   13.0638  -15.9308   23.1498 C   0  0  0  0  0  0  0  0  0  0  0  0
   14.2004  -16.4615   23.9121 C   0  0  0  0  0  0  0  0  0  0  0  0
   15.5052  -15.8959   23.6023 C   0  0  0  0  0  0  0  0  0  0  0  0
   15.8299  -15.0491   22.7673 O   0  0  0  0  0  0  0  0  0  0  0  0
   11.2717  -16.5714   24.8277 C   0  0  0  0  0  0  0  0  0  0  0  0
   10.3838  -15.7649   25.2847 O   0  0  0  0  0  0  0  0  0  0  0  0
   16.5743  -16.4108   24.3989 O   0  0  0  0  0  0  0  0  0  0  0  0
   11.7265  -17.5097   25.7475 O   0  0  0  0  0  0  0  0  0  0  0  0
  2  1  1  0
  2  3  2  0
  4  2  1  0
  5  4  1  0
  5  6  1  6
  7  8  2  0
  7  5  1  0
  9 10  1  0
 11 10  1  1
 11 12  1  0
 12  7  1  0
 13 11  1  0
 13 15  1  0
 14 13  2  0
 16 15  1  0
 16 21  1  0
 16 17  1  1
 18 17  1  0
 19 23  1  0
 19 18  1  0
 20 19  2  0
 21 22  2  0
 21 24  1  0
M  END
$$$$
