NSE.pdb
     RDKit          3D

 24 23  0  0  1  0  0  0  0  0999 V2000
    7.7978  -13.0640   15.5343 N   0  0  0  0  0  0  0  0  0  0  0  0
    7.8498  -14.0412   16.5536 C   0  0  0  0  0  0  0  0  0  0  0  0
    7.7207  -15.2425   16.1743 O   0  0  0  0  0  0  0  0  0  0  0  0
    8.0434  -13.6901   17.9611 C   0  0  0  0  0  0  0  0  0  0  0  0
    8.6072  -14.8517   18.7257 C   0  0  2  0  0  0  0  0  0  0  0  0
    7.4781  -15.7659   18.9591 N   0  0  0  0  0  0  0  0  0  0  0  0
    8.9927  -14.4017   20.1117 C   0  0  0  0  0  0  0  0  0  0  0  0
    9.9082  -13.5692   20.2945 O   0  0  0  0  0  0  0  0  0  0  0  0
    6.8494  -15.6171   23.3544 O   0  0  0  0  0  0  0  0  0  0  0  0
    7.5637  -14.4525   23.5081 C   0  0  0  0  0  0  0  0  0  0  0  0
    8.8193  -14.5946   22.6241 C   0  0  2  0  0  0  0  0  0  0  0  0
    8.3440  -14.8910   21.2834 N   0  0  0  0  0  0  0  0  0  0  0  0
    9.5744  -15.7751   23.1100 C   0  0  0  0  0  0  0  0  0  0  0  0
    9.3174  -16.9532   22.6826 O   0  0  0  0  0  0  0  0  0  0  0  0
   10.6189  -15.6922   24.0683 N   0  0  0  0  0  0  0  0  0  0  0  0
   11.3597  -16.8703   24.5405 C   0  0  1  0  0  0  0  0  0  0  0  0
   12.8172  -16.7053   24.3715 C   0  0  0  0  0  0  0  0  0  0  0  0
   13.3299  -16.2589   23.0706 C   0  0  0  0  0  0  0  0  0  0  0  0
   14.7604  -16.0013   22.9950 C   0  0  0  0  0  0  0  0  0  0  0  0
   15.6329  -16.0839   23.8620 O   0  0  0  0  0  0  0  0  0  0  0  0
   10.8248  -17.3093   25.8216 C   0  0  0  0  0  0  0  0  0  0  0  0
   11.2908  -18.3732   26.3681 O   0  0  0  0  0  0  0  0  0  0  0  0
   15.2167  -15.5872   21.7055 O   0  0  0  0  0  0  0  0  0  0  0  0
    9.8226  -16.6784   26.5500 O   0  0  0  0  0  0  0  0  0  0  0  0
  2  1  1  0
  2  3  2  0
  4  2  1  0
  5  4  1  0
  5  6  1  1
  7  8  2  0
  7  5  1  0
  9 10  1  0
 11 10  1  1
 11 12  1  0
 12  7  1  0
 13 11  1  0
 13 15  1  0
 14 13  2  0
 16 15  1  0
 16 21  1  0
 16 17  1  1
 18 17  1  0
 19 23  1  0
 19 18  1  0
 20 19  2  0
 21 22  2  0
 21 24  1  0
M  END
$$$$
