NSE.pdb
     RDKit          3D

 24 23  0  0  1  0  0  0  0  0999 V2000
    7.2784  -12.5772   17.5978 N   0  0  0  0  0  0  0  0  0  0  0  0
    7.5264  -13.7933   16.9225 C   0  0  0  0  0  0  0  0  0  0  0  0
    6.8981  -13.9599   15.8357 O   0  0  0  0  0  0  0  0  0  0  0  0
    8.4535  -14.7990   17.4429 C   0  0  0  0  0  0  0  0  0  0  0  0
    9.0322  -14.3592   18.7558 C   0  0  2  0  0  0  0  0  0  0  0  0
    9.6396  -13.0424   18.5068 N   0  0  0  0  0  0  0  0  0  0  0  0
   10.2095  -15.2336   19.1043 C   0  0  0  0  0  0  0  0  0  0  0  0
   10.0630  -16.4476   19.3677 O   0  0  0  0  0  0  0  0  0  0  0  0
   14.2098  -13.8793   18.9905 O   0  0  0  0  0  0  0  0  0  0  0  0
   13.8367  -15.1343   18.5709 C   0  0  0  0  0  0  0  0  0  0  0  0
   12.6818  -15.5740   19.4935 C   0  0  2  0  0  0  0  0  0  0  0  0
   11.5448  -14.7358   19.1529 N   0  0  0  0  0  0  0  0  0  0  0  0
   13.0795  -15.2565   20.8867 C   0  0  0  0  0  0  0  0  0  0  0  0
   12.9502  -14.0768   21.3646 O   0  0  0  0  0  0  0  0  0  0  0  0
   13.6244  -16.2162   21.7799 N   0  0  0  0  0  0  0  0  0  0  0  0
   13.9517  -15.9048   23.1783 C   0  0  1  0  0  0  0  0  0  0  0  0
   12.9268  -16.4185   24.1087 C   0  0  0  0  0  0  0  0  0  0  0  0
   12.8143  -17.8691   24.3023 C   0  0  0  0  0  0  0  0  0  0  0  0
   11.8856  -18.3124   25.3316 C   0  0  0  0  0  0  0  0  0  0  0  0
   11.2097  -17.6608   26.1306 O   0  0  0  0  0  0  0  0  0  0  0  0
   15.3595  -16.1794   23.4290 C   0  0  0  0  0  0  0  0  0  0  0  0
   16.0585  -16.7643   22.5252 O   0  0  0  0  0  0  0  0  0  0  0  0
   11.7408  -19.7313   25.4226 O   0  0  0  0  0  0  0  0  0  0  0  0
   16.0612  -15.8659   24.5877 O   0  0  0  0  0  0  0  0  0  0  0  0
  2  1  1  0
  2  3  2  0
  4  2  1  0
  5  4  1  0
  5  6  1  6
  7  8  2  0
  7  5  1  0
  9 10  1  0
 11 10  1  6
 11 12  1  0
 12  7  1  0
 13 11  1  0
 13 15  1  0
 14 13  2  0
 16 15  1  0
 16 21  1  0
 16 17  1  1
 18 17  1  0
 19 23  1  0
 19 18  1  0
 20 19  2  0
 21 22  2  0
 21 24  1  0
M  END
$$$$
