NSE.pdb
     RDKit          3D

 24 23  0  0  1  0  0  0  0  0999 V2000
   13.3644  -22.4419   13.4442 N   0  0  0  0  0  0  0  0  0  0  0  0
   12.1629  -22.0799   14.0937 C   0  0  0  0  0  0  0  0  0  0  0  0
   11.0987  -22.2748   13.4356 O   0  0  0  0  0  0  0  0  0  0  0  0
   12.1459  -21.5166   15.4444 C   0  0  0  0  0  0  0  0  0  0  0  0
   10.9994  -20.5623   15.6077 C   0  0  2  0  0  0  0  0  0  0  0  0
   11.2254  -19.4900   14.6258 N   0  0  0  0  0  0  0  0  0  0  0  0
   11.1161  -19.8589   16.9357 C   0  0  0  0  0  0  0  0  0  0  0  0
   11.8345  -18.8443   17.0738 O   0  0  0  0  0  0  0  0  0  0  0  0
    8.3752  -20.5223   19.6099 O   0  0  0  0  0  0  0  0  0  0  0  0
    9.0669  -19.3561   19.8376 C   0  0  0  0  0  0  0  0  0  0  0  0
   10.5157  -19.6148   19.3769 C   0  0  2  0  0  0  0  0  0  0  0  0
   10.4222  -20.3018   18.1000 N   0  0  0  0  0  0  0  0  0  0  0  0
   11.1325  -20.5479   20.3510 C   0  0  0  0  0  0  0  0  0  0  0  0
   11.0078  -21.8155   20.2311 O   0  0  0  0  0  0  0  0  0  0  0  0
   11.8927  -20.1166   21.4700 N   0  0  0  0  0  0  0  0  0  0  0  0
   12.4704  -21.0509   22.4462 C   0  0  1  0  0  0  0  0  0  0  0  0
   13.9052  -20.7875   22.6744 C   0  0  0  0  0  0  0  0  0  0  0  0
   14.8060  -20.7396   21.5164 C   0  0  0  0  0  0  0  0  0  0  0  0
   16.1806  -20.3434   21.7844 C   0  0  0  0  0  0  0  0  0  0  0  0
   16.8105  -20.3145   22.8437 O   0  0  0  0  0  0  0  0  0  0  0  0
   11.5717  -21.1963   23.5825 C   0  0  0  0  0  0  0  0  0  0  0  0
   11.4306  -22.3480   24.1313 O   0  0  0  0  0  0  0  0  0  0  0  0
   16.9080  -19.9224   20.6285 O   0  0  0  0  0  0  0  0  0  0  0  0
   10.8166  -20.1840   24.1640 O   0  0  0  0  0  0  0  0  0  0  0  0
  2  1  1  0
  2  3  2  0
  4  2  1  0
  5  4  1  0
  5  6  1  6
  7  8  2  0
  7  5  1  0
  9 10  1  0
 11 10  1  1
 11 12  1  0
 12  7  1  0
 13 11  1  0
 13 15  1  0
 14 13  2  0
 16 15  1  0
 16 21  1  0
 16 17  1  1
 18 17  1  0
 19 23  1  0
 19 18  1  0
 20 19  2  0
 21 22  2  0
 21 24  1  0
M  END
$$$$
