NSE.pdb
     RDKit          3D

 24 23  0  0  1  0  0  0  0  0999 V2000
   11.5787  -19.7262   16.5258 N   0  0  0  0  0  0  0  0  0  0  0  0
   10.8102  -18.5503   16.3738 C   0  0  0  0  0  0  0  0  0  0  0  0
   10.5555  -18.2069   15.1818 O   0  0  0  0  0  0  0  0  0  0  0  0
   10.3344  -17.7763   17.5211 C   0  0  0  0  0  0  0  0  0  0  0  0
   10.8103  -18.3856   18.8072 C   0  0  2  0  0  0  0  0  0  0  0  0
    9.6019  -18.6175   19.6140 N   0  0  0  0  0  0  0  0  0  0  0  0
   11.5742  -17.3553   19.5991 C   0  0  0  0  0  0  0  0  0  0  0  0
   12.6292  -16.8473   19.1592 O   0  0  0  0  0  0  0  0  0  0  0  0
   10.3047  -16.2817   23.3398 O   0  0  0  0  0  0  0  0  0  0  0  0
   10.8937  -15.2696   22.6193 C   0  0  0  0  0  0  0  0  0  0  0  0
   11.9027  -15.9450   21.6686 C   0  0  2  0  0  0  0  0  0  0  0  0
   11.1446  -16.9024   20.8811 N   0  0  0  0  0  0  0  0  0  0  0  0
   12.8633  -16.7043   22.5056 C   0  0  0  0  0  0  0  0  0  0  0  0
   12.5444  -17.8227   23.0387 O   0  0  0  0  0  0  0  0  0  0  0  0
   14.1839  -16.2583   22.7762 N   0  0  0  0  0  0  0  0  0  0  0  0
   15.0979  -16.9787   23.6737 C   0  0  1  0  0  0  0  0  0  0  0  0
   16.1980  -17.6258   22.9315 C   0  0  0  0  0  0  0  0  0  0  0  0
   15.8652  -18.6012   21.8864 C   0  0  0  0  0  0  0  0  0  0  0  0
   16.9870  -19.1697   21.1538 C   0  0  0  0  0  0  0  0  0  0  0  0
   18.1992  -18.9856   21.2820 O   0  0  0  0  0  0  0  0  0  0  0  0
   15.3956  -16.1573   24.8385 C   0  0  0  0  0  0  0  0  0  0  0  0
   16.0493  -16.6668   25.8187 O   0  0  0  0  0  0  0  0  0  0  0  0
   16.6132  -20.0869   20.1233 O   0  0  0  0  0  0  0  0  0  0  0  0
   15.0352  -14.8262   25.0156 O   0  0  0  0  0  0  0  0  0  0  0  0
  2  1  1  0
  2  3  2  0
  4  2  1  0
  5  4  1  0
  5  6  1  1
  7  8  2  0
  7  5  1  0
  9 10  1  0
 11 10  1  1
 11 12  1  0
 12  7  1  0
 13 11  1  0
 13 15  1  0
 14 13  2  0
 16 15  1  0
 16 21  1  0
 16 17  1  6
 18 17  1  0
 19 23  1  0
 19 18  1  0
 20 19  2  0
 21 22  2  0
 21 24  1  0
M  END
$$$$
