NSE.pdb
     RDKit          3D

 24 23  0  0  1  0  0  0  0  0999 V2000
    7.1731  -12.6187   17.3137 N   0  0  0  0  0  0  0  0  0  0  0  0
    8.0707  -13.5930   17.8053 C   0  0  0  0  0  0  0  0  0  0  0  0
    8.3387  -14.5459   17.0155 O   0  0  0  0  0  0  0  0  0  0  0  0
    8.6580  -13.5075   19.1431 C   0  0  0  0  0  0  0  0  0  0  0  0
    8.5174  -14.8131   19.8695 C   0  0  2  0  0  0  0  0  0  0  0  0
    7.0758  -14.9885   20.1063 N   0  0  0  0  0  0  0  0  0  0  0  0
    9.0921  -14.6809   21.2566 C   0  0  0  0  0  0  0  0  0  0  0  0
   10.3119  -14.4716   21.4385 O   0  0  0  0  0  0  0  0  0  0  0  0
    6.6406  -15.0560   24.4591 O   0  0  0  0  0  0  0  0  0  0  0  0
    7.7227  -14.2419   24.6968 C   0  0  0  0  0  0  0  0  0  0  0  0
    8.8507  -14.7390   23.7702 C   0  0  2  0  0  0  0  0  0  0  0  0
    8.2895  -14.7841   22.4307 N   0  0  0  0  0  0  0  0  0  0  0  0
    9.1776  -16.1286   24.1730 C   0  0  0  0  0  0  0  0  0  0  0  0
    8.5077  -17.1256   23.7326 O   0  0  0  0  0  0  0  0  0  0  0  0
   10.2364  -16.4543   25.0612 N   0  0  0  0  0  0  0  0  0  0  0  0
   10.5282  -17.8328   25.4784 C   0  0  1  0  0  0  0  0  0  0  0  0
   11.4691  -18.4976   24.5549 C   0  0  0  0  0  0  0  0  0  0  0  0
   12.7190  -17.8112   24.2074 C   0  0  0  0  0  0  0  0  0  0  0  0
   13.6197  -18.5244   23.3139 C   0  0  0  0  0  0  0  0  0  0  0  0
   13.5056  -19.6309   22.7824 O   0  0  0  0  0  0  0  0  0  0  0  0
   10.7722  -17.8734   26.9133 C   0  0  0  0  0  0  0  0  0  0  0  0
   10.8462  -16.7739   27.5716 O   0  0  0  0  0  0  0  0  0  0  0  0
   14.8264  -17.8214   23.0099 O   0  0  0  0  0  0  0  0  0  0  0  0
   10.9418  -19.0188   27.6830 O   0  0  0  0  0  0  0  0  0  0  0  0
  2  1  1  0
  2  3  2  0
  4  2  1  0
  5  4  1  0
  5  6  1  1
  7  8  2  0
  7  5  1  0
  9 10  1  0
 11 10  1  1
 11 12  1  0
 12  7  1  0
 13 11  1  0
 13 15  1  0
 14 13  2  0
 16 15  1  0
 16 21  1  0
 16 17  1  6
 18 17  1  0
 19 23  1  0
 19 18  1  0
 20 19  2  0
 21 22  2  0
 21 24  1  0
M  END
$$$$
