NSE.pdb
     RDKit          3D

 24 23  0  0  1  0  0  0  0  0999 V2000
    7.4260  -13.5221   15.6649 N   0  0  0  0  0  0  0  0  0  0  0  0
    8.4653  -14.2342   16.3047 C   0  0  0  0  0  0  0  0  0  0  0  0
    9.0034  -15.1567   15.6242 O   0  0  0  0  0  0  0  0  0  0  0  0
    8.8972  -13.9254   17.6686 C   0  0  0  0  0  0  0  0  0  0  0  0
    8.8591  -15.1542   18.5290 C   0  0  2  0  0  0  0  0  0  0  0  0
    7.4381  -15.5156   18.6518 N   0  0  0  0  0  0  0  0  0  0  0  0
    9.2574  -14.7941   19.9374 C   0  0  0  0  0  0  0  0  0  0  0  0
   10.4144  -14.4020   20.2065 O   0  0  0  0  0  0  0  0  0  0  0  0
    6.9037  -15.6975   23.2983 O   0  0  0  0  0  0  0  0  0  0  0  0
    7.4317  -14.4315   23.2043 C   0  0  0  0  0  0  0  0  0  0  0  0
    8.7400  -14.5665   22.3992 C   0  0  2  0  0  0  0  0  0  0  0  0
    8.3500  -14.8767   21.0343 N   0  0  0  0  0  0  0  0  0  0  0  0
    9.4759  -15.7360   22.9386 C   0  0  0  0  0  0  0  0  0  0  0  0
    9.2284  -16.9241   22.5338 O   0  0  0  0  0  0  0  0  0  0  0  0
   10.4904  -15.6309   23.9263 N   0  0  0  0  0  0  0  0  0  0  0  0
   11.2320  -16.7950   24.4310 C   0  0  1  0  0  0  0  0  0  0  0  0
   12.6866  -16.6507   24.2226 C   0  0  0  0  0  0  0  0  0  0  0  0
   13.1697  -16.2025   22.9111 C   0  0  0  0  0  0  0  0  0  0  0  0
   14.6035  -15.9820   22.7927 C   0  0  0  0  0  0  0  0  0  0  0  0
   15.2811  -15.6431   21.8202 O   0  0  0  0  0  0  0  0  0  0  0  0
   10.7228  -17.1749   25.7411 C   0  0  0  0  0  0  0  0  0  0  0  0
   11.1454  -18.2539   26.2931 O   0  0  0  0  0  0  0  0  0  0  0  0
   15.3338  -16.1948   24.0027 O   0  0  0  0  0  0  0  0  0  0  0  0
    9.7897  -16.4698   26.4930 O   0  0  0  0  0  0  0  0  0  0  0  0
  2  1  1  0
  2  3  2  0
  4  2  1  0
  5  4  1  0
  5  6  1  1
  7  8  2  0
  7  5  1  0
  9 10  1  0
 11 10  1  1
 11 12  1  0
 12  7  1  0
 13 11  1  0
 13 15  1  0
 14 13  2  0
 16 15  1  0
 16 21  1  0
 16 17  1  1
 18 17  1  0
 19 23  1  0
 19 18  1  0
 20 19  2  0
 21 22  2  0
 21 24  1  0
M  END
$$$$
