NSE.pdb
     RDKit          3D

 24 23  0  0  1  0  0  0  0  0999 V2000
   11.0970  -20.1409   15.8302 N   0  0  0  0  0  0  0  0  0  0  0  0
   10.9208  -20.1757   17.2317 C   0  0  0  0  0  0  0  0  0  0  0  0
   10.2968  -21.1799   17.6853 O   0  0  0  0  0  0  0  0  0  0  0  0
   11.4293  -19.1194   18.1078 C   0  0  0  0  0  0  0  0  0  0  0  0
   10.3743  -18.6835   19.0819 C   0  0  2  0  0  0  0  0  0  0  0  0
    9.3233  -18.0419   18.2764 N   0  0  0  0  0  0  0  0  0  0  0  0
   10.9082  -17.5583   19.9310 C   0  0  0  0  0  0  0  0  0  0  0  0
   11.2674  -16.4733   19.4227 O   0  0  0  0  0  0  0  0  0  0  0  0
   10.2585  -17.6462   23.7755 O   0  0  0  0  0  0  0  0  0  0  0  0
   10.6016  -16.3900   23.3345 C   0  0  0  0  0  0  0  0  0  0  0  0
   11.5861  -16.5952   22.1654 C   0  0  2  0  0  0  0  0  0  0  0  0
   11.0333  -17.6615   21.3477 N   0  0  0  0  0  0  0  0  0  0  0  0
   12.8649  -17.0795   22.7402 C   0  0  0  0  0  0  0  0  0  0  0  0
   13.1153  -18.3292   22.8506 O   0  0  0  0  0  0  0  0  0  0  0  0
   13.8891  -16.2125   23.2040 N   0  0  0  0  0  0  0  0  0  0  0  0
   15.1753  -16.7047   23.7169 C   0  0  1  0  0  0  0  0  0  0  0  0
   16.2970  -15.8356   23.3086 C   0  0  0  0  0  0  0  0  0  0  0  0
   17.6483  -16.1604   23.7808 C   0  0  0  0  0  0  0  0  0  0  0  0
   18.7166  -15.2780   23.3355 C   0  0  0  0  0  0  0  0  0  0  0  0
   19.0592  -14.1682   23.7487 O   0  0  0  0  0  0  0  0  0  0  0  0
   15.0336  -17.0959   25.1122 C   0  0  0  0  0  0  0  0  0  0  0  0
   15.7202  -18.0822   25.5633 O   0  0  0  0  0  0  0  0  0  0  0  0
   19.4858  -15.7886   22.2445 O   0  0  0  0  0  0  0  0  0  0  0  0
   14.2019  -16.4953   26.0506 O   0  0  0  0  0  0  0  0  0  0  0  0
  2  1  1  0
  2  3  2  0
  4  2  1  0
  5  4  1  0
  5  6  1  6
  7  8  2  0
  7  5  1  0
  9 10  1  0
 11 10  1  1
 11 12  1  0
 12  7  1  0
 13 11  1  0
 13 15  1  0
 14 13  2  0
 16 15  1  0
 16 21  1  0
 16 17  1  1
 18 17  1  0
 19 23  1  0
 19 18  1  0
 20 19  2  0
 21 22  2  0
 21 24  1  0
M  END
$$$$
