NSE.pdb
     RDKit          3D

 24 23  0  0  1  0  0  0  0  0999 V2000
    7.4865  -12.7681   16.7336 N   0  0  0  0  0  0  0  0  0  0  0  0
    7.9928  -14.0691   16.5159 C   0  0  0  0  0  0  0  0  0  0  0  0
    7.2388  -14.8543   15.8688 O   0  0  0  0  0  0  0  0  0  0  0  0
    9.3080  -14.4858   17.0043 C   0  0  0  0  0  0  0  0  0  0  0  0
    9.1732  -15.5646   18.0387 C   0  0  2  0  0  0  0  0  0  0  0  0
    7.7417  -15.9015   18.0846 N   0  0  0  0  0  0  0  0  0  0  0  0
    9.4470  -14.9885   19.4044 C   0  0  0  0  0  0  0  0  0  0  0  0
   10.5699  -14.5246   19.7019 O   0  0  0  0  0  0  0  0  0  0  0  0
    6.7084  -15.5901   22.4387 O   0  0  0  0  0  0  0  0  0  0  0  0
    7.4386  -14.4296   22.5388 C   0  0  0  0  0  0  0  0  0  0  0  0
    8.7778  -14.6973   21.8225 C   0  0  2  0  0  0  0  0  0  0  0  0
    8.4540  -14.9373   20.4265 N   0  0  0  0  0  0  0  0  0  0  0  0
    9.3385  -15.9516   22.3813 C   0  0  0  0  0  0  0  0  0  0  0  0
    9.6351  -16.9427   21.6286 O   0  0  0  0  0  0  0  0  0  0  0  0
    9.5836  -16.1471   23.7661 N   0  0  0  0  0  0  0  0  0  0  0  0
   10.8039  -16.7892   24.2743 C   0  0  1  0  0  0  0  0  0  0  0  0
   12.0084  -16.3189   23.5615 C   0  0  0  0  0  0  0  0  0  0  0  0
   13.3235  -16.7885   24.0138 C   0  0  0  0  0  0  0  0  0  0  0  0
   14.4768  -16.2659   23.2962 C   0  0  0  0  0  0  0  0  0  0  0  0
   14.5365  -15.5742   22.2776 O   0  0  0  0  0  0  0  0  0  0  0  0
   10.7843  -16.8045   25.7301 C   0  0  0  0  0  0  0  0  0  0  0  0
   10.1617  -15.8768   26.3621 O   0  0  0  0  0  0  0  0  0  0  0  0
   15.7370  -16.6160   23.8725 O   0  0  0  0  0  0  0  0  0  0  0  0
   11.3909  -17.7518   26.5473 O   0  0  0  0  0  0  0  0  0  0  0  0
  2  1  1  0
  2  3  2  0
  4  2  1  0
  5  4  1  0
  5  6  1  1
  7  8  2  0
  7  5  1  0
  9 10  1  0
 11 10  1  1
 11 12  1  0
 12  7  1  0
 13 11  1  0
 13 15  1  0
 14 13  2  0
 16 15  1  0
 16 21  1  0
 16 17  1  1
 18 17  1  0
 19 23  1  0
 19 18  1  0
 20 19  2  0
 21 22  2  0
 21 24  1  0
M  END
$$$$
