NSE.pdb
     RDKit          3D

 24 23  0  0  1  0  0  0  0  0999 V2000
   11.1456  -21.0053   17.3300 N   0  0  0  0  0  0  0  0  0  0  0  0
   12.3723  -20.3044   17.3092 C   0  0  0  0  0  0  0  0  0  0  0  0
   13.1573  -20.5926   16.3583 O   0  0  0  0  0  0  0  0  0  0  0  0
   12.7161  -19.3046   18.3212 C   0  0  0  0  0  0  0  0  0  0  0  0
   11.9736  -18.0237   18.0763 C   0  0  2  0  0  0  0  0  0  0  0  0
   12.6945  -17.3421   16.9897 N   0  0  0  0  0  0  0  0  0  0  0  0
   12.1560  -17.1035   19.2561 C   0  0  0  0  0  0  0  0  0  0  0  0
   13.2268  -16.4832   19.4382 O   0  0  0  0  0  0  0  0  0  0  0  0
    9.2940  -16.8899   22.1546 O   0  0  0  0  0  0  0  0  0  0  0  0
    9.8822  -15.6787   21.8763 C   0  0  0  0  0  0  0  0  0  0  0  0
   11.2997  -15.9945   21.3578 C   0  0  2  0  0  0  0  0  0  0  0  0
   11.1308  -16.8865   20.2231 N   0  0  0  0  0  0  0  0  0  0  0  0
   12.0069  -16.7446   22.4242 C   0  0  0  0  0  0  0  0  0  0  0  0
   11.9589  -18.0216   22.4853 O   0  0  0  0  0  0  0  0  0  0  0  0
   12.7754  -16.1174   23.4401 N   0  0  0  0  0  0  0  0  0  0  0  0
   13.5012  -16.8746   24.4694 C   0  0  1  0  0  0  0  0  0  0  0  0
   14.9059  -16.4348   24.5852 C   0  0  0  0  0  0  0  0  0  0  0  0
   15.6759  -16.2048   23.3569 C   0  0  0  0  0  0  0  0  0  0  0  0
   17.0417  -15.7326   23.5308 C   0  0  0  0  0  0  0  0  0  0  0  0
   17.4787  -14.7712   24.1667 O   0  0  0  0  0  0  0  0  0  0  0  0
   12.6796  -16.9947   25.6655 C   0  0  0  0  0  0  0  0  0  0  0  0
   13.1068  -17.6894   26.6567 O   0  0  0  0  0  0  0  0  0  0  0  0
   18.0262  -16.5155   22.8521 O   0  0  0  0  0  0  0  0  0  0  0  0
   11.4305  -16.4168   25.8623 O   0  0  0  0  0  0  0  0  0  0  0  0
  2  1  1  0
  2  3  2  0
  4  2  1  0
  5  4  1  0
  5  6  1  6
  7  8  2  0
  7  5  1  0
  9 10  1  0
 11 10  1  1
 11 12  1  0
 12  7  1  0
 13 11  1  0
 13 15  1  0
 14 13  2  0
 16 15  1  0
 16 21  1  0
 16 17  1  1
 18 17  1  0
 19 23  1  0
 19 18  1  0
 20 19  2  0
 21 22  2  0
 21 24  1  0
M  END
$$$$
