NSE.pdb
     RDKit          3D

 24 23  0  0  1  0  0  0  0  0999 V2000
    7.6288  -12.5061   17.9137 N   0  0  0  0  0  0  0  0  0  0  0  0
    7.7164  -13.8697   17.5541 C   0  0  0  0  0  0  0  0  0  0  0  0
    8.2756  -14.1137   16.4444 O   0  0  0  0  0  0  0  0  0  0  0  0
    7.1963  -14.9367   18.4103 C   0  0  0  0  0  0  0  0  0  0  0  0
    8.2932  -15.8801   18.8089 C   0  0  2  0  0  0  0  0  0  0  0  0
    7.6214  -17.0774   19.3383 N   0  0  0  0  0  0  0  0  0  0  0  0
    9.0241  -15.3246   20.0044 C   0  0  0  0  0  0  0  0  0  0  0  0
   10.1842  -14.8679   19.9034 O   0  0  0  0  0  0  0  0  0  0  0  0
    7.2941  -15.5014   23.6917 O   0  0  0  0  0  0  0  0  0  0  0  0
    8.1142  -14.4122   23.5151 C   0  0  0  0  0  0  0  0  0  0  0  0
    9.1747  -14.8320   22.4772 C   0  0  2  0  0  0  0  0  0  0  0  0
    8.4436  -15.2857   21.3062 N   0  0  0  0  0  0  0  0  0  0  0  0
    9.9070  -15.9952   23.0347 C   0  0  0  0  0  0  0  0  0  0  0  0
    9.4803  -17.1906   22.8750 O   0  0  0  0  0  0  0  0  0  0  0  0
   11.1129  -15.8755   23.7746 N   0  0  0  0  0  0  0  0  0  0  0  0
   11.8280  -17.0367   24.3222 C   0  0  1  0  0  0  0  0  0  0  0  0
   13.2387  -17.0668   23.8875 C   0  0  0  0  0  0  0  0  0  0  0  0
   14.0302  -15.8339   23.9767 C   0  0  0  0  0  0  0  0  0  0  0  0
   15.3976  -15.9082   23.4837 C   0  0  0  0  0  0  0  0  0  0  0  0
   16.4691  -15.8233   24.0873 O   0  0  0  0  0  0  0  0  0  0  0  0
   11.5015  -17.1980   25.7320 C   0  0  0  0  0  0  0  0  0  0  0  0
   10.8145  -16.2919   26.3277 O   0  0  0  0  0  0  0  0  0  0  0  0
   15.5047  -16.1125   22.0732 O   0  0  0  0  0  0  0  0  0  0  0  0
   11.8667  -18.2690   26.5398 O   0  0  0  0  0  0  0  0  0  0  0  0
  2  1  1  0
  2  3  2  0
  4  2  1  0
  5  4  1  0
  5  6  1  1
  7  8  2  0
  7  5  1  0
  9 10  1  0
 11 10  1  1
 11 12  1  0
 12  7  1  0
 13 11  1  0
 13 15  1  0
 14 13  2  0
 16 15  1  0
 16 21  1  0
 16 17  1  1
 18 17  1  0
 19 23  1  0
 19 18  1  0
 20 19  2  0
 21 22  2  0
 21 24  1  0
M  END
$$$$
