NSE.pdb
     RDKit          3D

 24 23  0  0  1  0  0  0  0  0999 V2000
    8.0550  -16.8982   14.9080 N   0  0  0  0  0  0  0  0  0  0  0  0
    7.7150  -17.1033   16.2640 C   0  0  0  0  0  0  0  0  0  0  0  0
    6.7745  -17.9234   16.4799 O   0  0  0  0  0  0  0  0  0  0  0  0
    8.4070  -16.4142   17.3540 C   0  0  0  0  0  0  0  0  0  0  0  0
    9.1239  -17.3966   18.2332 C   0  0  2  0  0  0  0  0  0  0  0  0
    8.0792  -18.2571   18.8103 N   0  0  0  0  0  0  0  0  0  0  0  0
    9.6937  -16.6780   19.4295 C   0  0  0  0  0  0  0  0  0  0  0  0
   10.7607  -16.0298   19.3519 O   0  0  0  0  0  0  0  0  0  0  0  0
    8.8052  -15.0864   23.8949 O   0  0  0  0  0  0  0  0  0  0  0  0
    8.4059  -15.9267   22.8825 C   0  0  0  0  0  0  0  0  0  0  0  0
    9.5277  -15.8942   21.8249 C   0  0  2  0  0  0  0  0  0  0  0  0
    9.0576  -16.6927   20.7056 N   0  0  0  0  0  0  0  0  0  0  0  0
   10.7082  -16.5781   22.4070 C   0  0  0  0  0  0  0  0  0  0  0  0
   10.7662  -17.8534   22.4900 O   0  0  0  0  0  0  0  0  0  0  0  0
   11.8419  -15.8856   22.9082 N   0  0  0  0  0  0  0  0  0  0  0  0
   13.0190  -16.5769   23.4523 C   0  0  1  0  0  0  0  0  0  0  0  0
   14.2722  -15.8712   23.1182 C   0  0  0  0  0  0  0  0  0  0  0  0
   15.5487  -16.4707   23.5250 C   0  0  0  0  0  0  0  0  0  0  0  0
   16.7478  -15.7047   23.2187 C   0  0  0  0  0  0  0  0  0  0  0  0
   16.8885  -14.6729   22.5588 O   0  0  0  0  0  0  0  0  0  0  0  0
   12.7617  -16.9835   24.8265 C   0  0  0  0  0  0  0  0  0  0  0  0
   13.1488  -18.1408   25.2245 O   0  0  0  0  0  0  0  0  0  0  0  0
   17.9486  -16.2426   23.7766 O   0  0  0  0  0  0  0  0  0  0  0  0
   12.1154  -16.2263   25.7971 O   0  0  0  0  0  0  0  0  0  0  0  0
  2  1  1  0
  2  3  2  0
  4  2  1  0
  5  4  1  0
  5  6  1  1
  7  8  2  0
  7  5  1  0
  9 10  1  0
 11 10  1  1
 11 12  1  0
 12  7  1  0
 13 11  1  0
 13 15  1  0
 14 13  2  0
 16 15  1  0
 16 21  1  0
 16 17  1  1
 18 17  1  0
 19 23  1  0
 19 18  1  0
 20 19  2  0
 21 22  2  0
 21 24  1  0
M  END
$$$$
