NSE.pdb
     RDKit          3D

 24 23  0  0  1  0  0  0  0  0999 V2000
    8.9030  -18.7601   13.9189 N   0  0  0  0  0  0  0  0  0  0  0  0
    8.3050  -17.7730   14.7340 C   0  0  0  0  0  0  0  0  0  0  0  0
    7.0407  -17.7150   14.6941 O   0  0  0  0  0  0  0  0  0  0  0  0
    9.0953  -16.8734   15.5756 C   0  0  0  0  0  0  0  0  0  0  0  0
    8.4766  -15.5069   15.6197 C   0  0  2  0  0  0  0  0  0  0  0  0
    8.7956  -14.8789   14.3279 N   0  0  0  0  0  0  0  0  0  0  0  0
    9.2126  -14.6540   16.6211 C   0  0  0  0  0  0  0  0  0  0  0  0
   10.3978  -14.3026   16.4303 O   0  0  0  0  0  0  0  0  0  0  0  0
    7.4546  -13.8660   20.1474 O   0  0  0  0  0  0  0  0  0  0  0  0
    8.2698  -12.8265   19.7664 C   0  0  0  0  0  0  0  0  0  0  0  0
    9.3335  -13.4316   18.8281 C   0  0  2  0  0  0  0  0  0  0  0  0
    8.6090  -14.2012   17.8310 N   0  0  0  0  0  0  0  0  0  0  0  0
   10.1474  -14.3778   19.6295 C   0  0  0  0  0  0  0  0  0  0  0  0
    9.8600  -15.6232   19.6849 O   0  0  0  0  0  0  0  0  0  0  0  0
   11.2845  -13.9838   20.3830 N   0  0  0  0  0  0  0  0  0  0  0  0
   12.1334  -14.9441   21.1018 C   0  0  1  0  0  0  0  0  0  0  0  0
   13.5107  -14.4394   21.2702 C   0  0  0  0  0  0  0  0  0  0  0  0
   14.4829  -15.2706   21.9902 C   0  0  0  0  0  0  0  0  0  0  0  0
   15.8489  -14.7705   22.0380 C   0  0  0  0  0  0  0  0  0  0  0  0
   16.4851  -14.1077   21.2160 O   0  0  0  0  0  0  0  0  0  0  0  0
   11.4131  -15.4782   22.2489 C   0  0  0  0  0  0  0  0  0  0  0  0
   11.7916  -16.5885   22.7700 O   0  0  0  0  0  0  0  0  0  0  0  0
   16.5576  -15.1068   23.2327 O   0  0  0  0  0  0  0  0  0  0  0  0
   10.3137  -14.8953   22.8693 O   0  0  0  0  0  0  0  0  0  0  0  0
  2  1  1  0
  2  3  2  0
  4  2  1  0
  5  4  1  0
  5  6  1  6
  7  8  2  0
  7  5  1  0
  9 10  1  0
 11 10  1  1
 11 12  1  0
 12  7  1  0
 13 11  1  0
 13 15  1  0
 14 13  2  0
 16 15  1  0
 16 21  1  0
 16 17  1  1
 18 17  1  0
 19 23  1  0
 19 18  1  0
 20 19  2  0
 21 22  2  0
 21 24  1  0
M  END
$$$$
