LSY.pdb
     RDKit          3D

 27 27  0  0  1  0  0  0  0  0999 V2000
   15.1831  -11.1074  -18.8018 C   0  0  0  0  0  0  0  0  0  0  0  0
   16.4024  -11.6427  -18.1382 C   0  0  1  0  0  0  0  0  0  0  0  0
   17.4932  -12.0056  -19.1279 C   0  0  0  0  0  0  0  0  0  0  0  0
   16.9792  -10.6472  -17.1859 C   0  0  0  0  0  0  0  0  0  0  0  0
   18.2185  -11.1653  -16.5328 C   0  0  2  0  0  0  0  0  0  0  0  0
   17.8807  -12.2223  -15.6141 N   0  0  0  0  0  0  0  0  0  0  0  0
   18.9018  -10.0290  -15.8713 C   0  0  0  0  0  0  0  0  0  0  0  0
   18.1757   -9.2228  -15.1930 O   0  0  0  0  0  0  0  0  0  0  0  0
   23.0259   -9.9878  -15.3540 O   0  0  0  0  0  0  0  0  0  0  0  0
   22.1707   -9.2675  -14.5526 C   0  0  0  0  0  0  0  0  0  0  0  0
   20.9522   -8.7661  -15.2925 C   0  0  2  0  0  0  0  0  0  0  0  0
   20.2988   -9.8454  -15.9872 N   0  0  0  0  0  0  0  0  0  0  0  0
   21.2603   -7.6676  -16.2196 C   0  0  0  0  0  0  0  0  0  0  0  0
   21.6778   -7.9567  -17.3700 O   0  0  0  0  0  0  0  0  0  0  0  0
   15.2214   -3.9051  -16.1318 O   0  0  0  0  0  0  0  0  0  0  0  0
   16.4872   -4.2302  -16.5986 C   0  0  0  0  0  0  0  0  0  0  0  0
   16.8589   -5.5601  -16.6523 C   0  0  0  0  0  0  0  0  0  0  0  0
   18.1010   -5.9306  -17.1070 C   0  0  0  0  0  0  0  0  0  0  0  0
   18.9930   -4.9386  -17.5186 C   0  0  0  0  0  0  0  0  0  0  0  0
   20.3524   -5.2744  -17.9934 C   0  0  0  0  0  0  0  0  0  0  0  0
   21.3419   -5.2220  -16.8850 C   0  0  2  0  0  0  0  0  0  0  0  0
   21.1237   -6.3001  -15.9186 N   0  0  0  0  0  0  0  0  0  0  0  0
   21.3717   -3.9376  -16.1801 C   0  0  0  0  0  0  0  0  0  0  0  0
   21.7065   -2.7690  -16.8207 O   0  0  0  0  0  0  0  0  0  0  0  0
   18.6065   -3.6058  -17.4591 C   0  0  0  0  0  0  0  0  0  0  0  0
   17.3614   -3.2381  -17.0031 C   0  0  0  0  0  0  0  0  0  0  0  0
   21.0883   -3.8963  -14.9634 O   0  0  0  0  0  0  0  0  0  0  0  0
  2  1  1  6
  2  4  1  0
  2  3  1  0
  5  4  1  0
  5  6  1  1
  7  5  1  0
  8  7  2  0
  9 10  1  0
 11 10  1  6
 11 12  1  0
 12  7  1  0
 13 22  1  0
 13 11  1  0
 14 13  2  0
 16 15  1  0
 17 16  2  0
 18 17  1  0
 19 25  1  0
 19 18  2  0
 21 20  1  6
 20 19  1  0
 21 23  1  0
 21 22  1  0
 23 24  1  0
 25 26  2  0
 26 16  1  0
 27 23  2  0
M  END
$$$$
