LSY.pdb
     RDKit          3D

 27 27  0  0  1  0  0  0  0  0999 V2000
   24.7079  -16.2664  -18.1383 C   0  0  0  0  0  0  0  0  0  0  0  0
   23.8570  -15.6618  -19.1985 C   0  0  1  0  0  0  0  0  0  0  0  0
   22.4326  -16.1827  -19.1707 C   0  0  0  0  0  0  0  0  0  0  0  0
   23.7904  -14.1767  -19.0548 C   0  0  0  0  0  0  0  0  0  0  0  0
   22.9075  -13.5631  -20.0916 C   0  0  2  0  0  0  0  0  0  0  0  0
   23.4565  -13.7998  -21.4023 N   0  0  0  0  0  0  0  0  0  0  0  0
   22.7653  -12.1209  -19.7827 C   0  0  0  0  0  0  0  0  0  0  0  0
   23.7020  -11.3423  -20.1751 O   0  0  0  0  0  0  0  0  0  0  0  0
   19.1469  -10.3948  -18.2543 O   0  0  0  0  0  0  0  0  0  0  0  0
   20.0215   -9.8196  -19.1469 C   0  0  0  0  0  0  0  0  0  0  0  0
   21.4596  -10.2115  -18.8980 C   0  0  2  0  0  0  0  0  0  0  0  0
   21.6403  -11.6283  -19.0826 N   0  0  0  0  0  0  0  0  0  0  0  0
   21.9415   -9.7985  -17.5719 C   0  0  0  0  0  0  0  0  0  0  0  0
   21.7910  -10.5922  -16.6082 O   0  0  0  0  0  0  0  0  0  0  0  0
   28.1318  -11.5591  -17.1649 O   0  0  0  0  0  0  0  0  0  0  0  0
   27.1892  -10.5911  -16.8482 C   0  0  0  0  0  0  0  0  0  0  0  0
   26.8805   -9.6256  -17.7875 C   0  0  0  0  0  0  0  0  0  0  0  0
   25.9541   -8.6474  -17.5198 C   0  0  0  0  0  0  0  0  0  0  0  0
   25.3213   -8.6391  -16.2754 C   0  0  0  0  0  0  0  0  0  0  0  0
   24.3345   -7.5967  -15.9205 C   0  0  0  0  0  0  0  0  0  0  0  0
   22.9477   -8.1321  -15.9467 C   0  0  2  0  0  0  0  0  0  0  0  0
   22.5661   -8.5696  -17.2909 N   0  0  0  0  0  0  0  0  0  0  0  0
   21.9429   -7.1944  -15.4384 C   0  0  0  0  0  0  0  0  0  0  0  0
   20.9246   -6.7253  -16.2328 O   0  0  0  0  0  0  0  0  0  0  0  0
   25.6412   -9.6152  -15.3405 C   0  0  0  0  0  0  0  0  0  0  0  0
   26.5696  -10.5939  -15.6120 C   0  0  0  0  0  0  0  0  0  0  0  0
   22.0085   -6.8048  -14.2525 O   0  0  0  0  0  0  0  0  0  0  0  0
  2  1  1  1
  2  4  1  0
  2  3  1  0
  5  4  1  0
  5  6  1  6
  7  5  1  0
  8  7  2  0
  9 10  1  0
 11 10  1  1
 11 12  1  0
 12  7  1  0
 13 22  1  0
 13 11  1  0
 14 13  2  0
 16 15  1  0
 17 16  2  0
 18 17  1  0
 19 25  1  0
 19 18  2  0
 21 20  1  6
 20 19  1  0
 21 23  1  0
 21 22  1  0
 23 24  1  0
 25 26  2  0
 26 16  1  0
 27 23  2  0
M  END
$$$$
