LSY.pdb
     RDKit          3D

 27 27  0  0  1  0  0  0  0  0999 V2000
   25.9703  -11.3174  -16.3614 C   0  0  0  0  0  0  0  0  0  0  0  0
   24.5903  -11.7506  -16.0130 C   0  0  1  0  0  0  0  0  0  0  0  0
   24.4560  -12.1542  -14.5568 C   0  0  0  0  0  0  0  0  0  0  0  0
   23.6026  -10.6590  -16.2648 C   0  0  0  0  0  0  0  0  0  0  0  0
   22.2068  -11.1019  -15.9708 C   0  0  2  0  0  0  0  0  0  0  0  0
   21.8313  -12.1621  -16.8708 N   0  0  0  0  0  0  0  0  0  0  0  0
   21.3164   -9.9220  -16.0734 C   0  0  0  0  0  0  0  0  0  0  0  0
   21.1327   -9.4258  -17.2385 O   0  0  0  0  0  0  0  0  0  0  0  0
   19.5858   -8.0005  -12.6798 O   0  0  0  0  0  0  0  0  0  0  0  0
   18.8646   -8.2142  -13.8316 C   0  0  0  0  0  0  0  0  0  0  0  0
   19.7352   -8.3054  -15.0634 C   0  0  2  0  0  0  0  0  0  0  0  0
   20.6970   -9.3690  -14.9292 N   0  0  0  0  0  0  0  0  0  0  0  0
   20.4090   -7.0377  -15.3801 C   0  0  0  0  0  0  0  0  0  0  0  0
   21.6194   -6.9098  -15.0641 O   0  0  0  0  0  0  0  0  0  0  0  0
   16.0419   -3.1003  -20.5352 O   0  0  0  0  0  0  0  0  0  0  0  0
   17.2077   -3.4592  -19.8734 C   0  0  0  0  0  0  0  0  0  0  0  0
   17.3683   -4.7694  -19.4645 C   0  0  0  0  0  0  0  0  0  0  0  0
   18.5048   -5.1718  -18.8062 C   0  0  0  0  0  0  0  0  0  0  0  0
   19.5063   -4.2329  -18.5522 C   0  0  0  0  0  0  0  0  0  0  0  0
   20.7403   -4.6009  -17.8256 C   0  0  0  0  0  0  0  0  0  0  0  0
   20.4979   -4.7014  -16.3621 C   0  0  2  0  0  0  0  0  0  0  0  0
   19.7996   -5.9413  -16.0172 N   0  0  0  0  0  0  0  0  0  0  0  0
   19.7652   -3.5612  -15.8052 C   0  0  0  0  0  0  0  0  0  0  0  0
   20.3173   -2.3041  -15.7503 O   0  0  0  0  0  0  0  0  0  0  0  0
   19.3318   -2.9193  -18.9685 C   0  0  0  0  0  0  0  0  0  0  0  0
   18.1921   -2.5196  -19.6278 C   0  0  0  0  0  0  0  0  0  0  0  0
   18.6076   -3.7291  -15.3643 O   0  0  0  0  0  0  0  0  0  0  0  0
  2  1  1  1
  2  4  1  0
  2  3  1  0
  5  4  1  0
  5  6  1  6
  7  5  1  0
  8  7  2  0
  9 10  1  0
 11 10  1  1
 11 12  1  0
 12  7  1  0
 13 22  1  0
 13 11  1  0
 14 13  2  0
 16 15  1  0
 17 16  2  0
 18 17  1  0
 19 25  1  0
 19 18  2  0
 21 20  1  6
 20 19  1  0
 21 23  1  0
 21 22  1  0
 23 24  1  0
 25 26  2  0
 26 16  1  0
 27 23  2  0
M  END
$$$$
