LSY.pdb
     RDKit          3D

 27 27  0  0  1  0  0  0  0  0999 V2000
   27.0415  -16.1789  -15.6237 C   0  0  0  0  0  0  0  0  0  0  0  0
   27.5270  -17.5852  -15.6303 C   0  0  1  0  0  0  0  0  0  0  0  0
   29.0032  -17.6941  -15.2981 C   0  0  0  0  0  0  0  0  0  0  0  0
   26.7850  -18.4166  -14.6359 C   0  0  0  0  0  0  0  0  0  0  0  0
   27.3080  -19.8148  -14.5888 C   0  0  2  0  0  0  0  0  0  0  0  0
   27.5445  -20.2929  -15.9270 N   0  0  0  0  0  0  0  0  0  0  0  0
   26.3327  -20.6483  -13.8475 C   0  0  0  0  0  0  0  0  0  0  0  0
   25.6356  -21.4790  -14.5269 O   0  0  0  0  0  0  0  0  0  0  0  0
   25.5779  -20.0229   -9.7456 O   0  0  0  0  0  0  0  0  0  0  0  0
   25.4195  -21.2852  -10.2690 C   0  0  0  0  0  0  0  0  0  0  0  0
   25.1614  -21.2773  -11.7580 C   0  0  2  0  0  0  0  0  0  0  0  0
   26.1802  -20.5282  -12.4471 N   0  0  0  0  0  0  0  0  0  0  0  0
   23.8256  -20.7687  -12.1021 C   0  0  0  0  0  0  0  0  0  0  0  0
   23.6076  -19.5359  -11.9843 O   0  0  0  0  0  0  0  0  0  0  0  0
   22.8967  -15.7859  -16.0957 O   0  0  0  0  0  0  0  0  0  0  0  0
   22.5108  -17.0533  -15.6825 C   0  0  0  0  0  0  0  0  0  0  0  0
   21.1894  -17.2725  -15.3429 C   0  0  0  0  0  0  0  0  0  0  0  0
   20.7605  -18.5099  -14.9284 C   0  0  0  0  0  0  0  0  0  0  0  0
   21.6837  -19.5544  -14.8532 C   0  0  0  0  0  0  0  0  0  0  0  0
   21.2865  -20.9012  -14.3899 C   0  0  0  0  0  0  0  0  0  0  0  0
   21.4390  -21.0343  -12.9170 C   0  0  2  0  0  0  0  0  0  0  0  0
   22.7571  -21.5618  -12.5589 N   0  0  0  0  0  0  0  0  0  0  0  0
   20.4009  -21.8550  -12.2875 C   0  0  0  0  0  0  0  0  0  0  0  0
   19.1405  -21.3648  -12.0441 O   0  0  0  0  0  0  0  0  0  0  0  0
   23.0089  -19.3201  -15.1972 C   0  0  0  0  0  0  0  0  0  0  0  0
   23.4352  -18.0793  -15.6122 C   0  0  0  0  0  0  0  0  0  0  0  0
   20.6620  -23.0323  -11.9586 O   0  0  0  0  0  0  0  0  0  0  0  0
  2  1  1  1
  2  4  1  0
  2  3  1  0
  5  4  1  0
  5  6  1  6
  7  5  1  0
  8  7  2  0
  9 10  1  0
 11 10  1  1
 11 12  1  0
 12  7  1  0
 13 22  1  0
 13 11  1  0
 14 13  2  0
 16 15  1  0
 17 16  2  0
 18 17  1  0
 19 25  1  0
 19 18  2  0
 21 20  1  6
 20 19  1  0
 21 23  1  0
 21 22  1  0
 23 24  1  0
 25 26  2  0
 26 16  1  0
 27 23  2  0
M  END
$$$$
