LSY.pdb
     RDKit          3D

 27 27  0  0  1  0  0  0  0  0999 V2000
   19.4894  -27.4147  -18.1415 C   0  0  0  0  0  0  0  0  0  0  0  0
   19.7095  -25.9434  -18.1513 C   0  0  1  0  0  0  0  0  0  0  0  0
   18.4516  -25.1679  -18.4941 C   0  0  0  0  0  0  0  0  0  0  0  0
   20.1811  -25.4597  -16.8193 C   0  0  0  0  0  0  0  0  0  0  0  0
   20.3367  -23.9744  -16.7974 C   0  0  2  0  0  0  0  0  0  0  0  0
   21.5127  -23.5957  -17.5382 N   0  0  0  0  0  0  0  0  0  0  0  0
   20.3857  -23.5358  -15.3829 C   0  0  0  0  0  0  0  0  0  0  0  0
   21.4397  -23.8228  -14.7164 O   0  0  0  0  0  0  0  0  0  0  0  0
   17.4260  -20.9796  -13.6598 O   0  0  0  0  0  0  0  0  0  0  0  0
   18.7682  -20.9489  -13.3595 C   0  0  0  0  0  0  0  0  0  0  0  0
   19.4253  -22.3060  -13.4596 C   0  0  2  0  0  0  0  0  0  0  0  0
   19.3105  -22.8298  -14.7962 N   0  0  0  0  0  0  0  0  0  0  0  0
   18.8975  -23.2683  -12.4814 C   0  0  0  0  0  0  0  0  0  0  0  0
   17.9356  -24.0019  -12.8248 O   0  0  0  0  0  0  0  0  0  0  0  0
   16.9176  -27.4554   -5.0398 O   0  0  0  0  0  0  0  0  0  0  0  0
   17.5798  -26.7159   -6.0096 C   0  0  0  0  0  0  0  0  0  0  0  0
   18.0419  -25.4537   -5.6886 C   0  0  0  0  0  0  0  0  0  0  0  0
   18.7030  -24.6847   -6.6151 C   0  0  0  0  0  0  0  0  0  0  0  0
   18.9051  -25.1974   -7.8977 C   0  0  0  0  0  0  0  0  0  0  0  0
   19.5873  -24.4066   -8.9443 C   0  0  0  0  0  0  0  0  0  0  0  0
   18.7282  -24.2440  -10.1469 C   0  0  2  0  0  0  0  0  0  0  0  0
   19.3891  -23.4364  -11.1740 N   0  0  0  0  0  0  0  0  0  0  0  0
   17.4088  -23.6758   -9.8577 C   0  0  0  0  0  0  0  0  0  0  0  0
   17.2010  -22.3184   -9.8098 O   0  0  0  0  0  0  0  0  0  0  0  0
   18.4353  -26.4675   -8.2070 C   0  0  0  0  0  0  0  0  0  0  0  0
   17.7735  -27.2353   -7.2764 C   0  0  0  0  0  0  0  0  0  0  0  0
   16.4425  -24.4398   -9.6458 O   0  0  0  0  0  0  0  0  0  0  0  0
  2  1  1  1
  2  4  1  0
  2  3  1  0
  5  4  1  0
  5  6  1  6
  7  5  1  0
  8  7  2  0
  9 10  1  0
 11 10  1  6
 11 12  1  0
 12  7  1  0
 13 22  1  0
 13 11  1  0
 14 13  2  0
 16 15  1  0
 17 16  2  0
 18 17  1  0
 19 25  1  0
 19 18  2  0
 21 20  1  1
 20 19  1  0
 21 23  1  0
 21 22  1  0
 23 24  1  0
 25 26  2  0
 26 16  1  0
 27 23  2  0
M  END
$$$$
