LSY.pdb
     RDKit          3D

 27 27  0  0  1  0  0  0  0  0999 V2000
   25.3658  -17.8854  -18.8631 C   0  0  0  0  0  0  0  0  0  0  0  0
   24.4951  -16.7791  -19.3441 C   0  0  1  0  0  0  0  0  0  0  0  0
   23.3837  -17.2655  -20.2548 C   0  0  0  0  0  0  0  0  0  0  0  0
   23.8526  -16.0628  -18.2019 C   0  0  0  0  0  0  0  0  0  0  0  0
   22.9126  -15.0033  -18.6761 C   0  0  2  0  0  0  0  0  0  0  0  0
   23.6480  -13.9650  -19.3515 N   0  0  0  0  0  0  0  0  0  0  0  0
   22.1556  -14.4999  -17.5061 C   0  0  0  0  0  0  0  0  0  0  0  0
   22.6255  -13.4751  -16.9007 O   0  0  0  0  0  0  0  0  0  0  0  0
   18.8966  -13.1347  -17.3946 O   0  0  0  0  0  0  0  0  0  0  0  0
   19.7348  -13.1820  -16.3047 C   0  0  0  0  0  0  0  0  0  0  0  0
   20.2043  -14.5820  -15.9832 C   0  0  2  0  0  0  0  0  0  0  0  0
   20.9636  -15.1282  -17.0782 N   0  0  0  0  0  0  0  0  0  0  0  0
   19.1014  -15.4835  -15.6198 C   0  0  0  0  0  0  0  0  0  0  0  0
   18.5047  -16.0981  -16.5405 O   0  0  0  0  0  0  0  0  0  0  0  0
   20.9211  -21.8665  -14.2587 O   0  0  0  0  0  0  0  0  0  0  0  0
   20.1332  -20.7786  -13.9101 C   0  0  0  0  0  0  0  0  0  0  0  0
   20.7485  -19.5887  -13.5705 C   0  0  0  0  0  0  0  0  0  0  0  0
   20.0105  -18.4849  -13.2187 C   0  0  0  0  0  0  0  0  0  0  0  0
   18.6176  -18.5792  -13.2078 C   0  0  0  0  0  0  0  0  0  0  0  0
   17.7714  -17.4327  -12.8134 C   0  0  0  0  0  0  0  0  0  0  0  0
   17.4919  -16.5421  -13.9707 C   0  0  2  0  0  0  0  0  0  0  0  0
   18.6540  -15.7170  -14.3065 N   0  0  0  0  0  0  0  0  0  0  0  0
   16.3225  -15.6792  -13.7831 C   0  0  0  0  0  0  0  0  0  0  0  0
   15.0592  -16.1972  -13.6281 O   0  0  0  0  0  0  0  0  0  0  0  0
   18.0122  -19.7813  -13.5510 C   0  0  0  0  0  0  0  0  0  0  0  0
   18.7545  -20.8851  -13.9031 C   0  0  0  0  0  0  0  0  0  0  0  0
   16.4697  -14.4381  -13.7646 O   0  0  0  0  0  0  0  0  0  0  0  0
  2  1  1  1
  2  4  1  0
  2  3  1  0
  5  4  1  0
  5  6  1  1
  7  5  1  0
  8  7  2  0
  9 10  1  0
 11 10  1  6
 11 12  1  0
 12  7  1  0
 13 22  1  0
 13 11  1  0
 14 13  2  0
 16 15  1  0
 17 16  2  0
 18 17  1  0
 19 25  1  0
 19 18  2  0
 21 20  1  1
 20 19  1  0
 21 23  1  0
 21 22  1  0
 23 24  1  0
 25 26  2  0
 26 16  1  0
 27 23  2  0
M  END
$$$$
