LSY.pdb
     RDKit          3D

 27 27  0  0  1  0  0  0  0  0999 V2000
   26.7661  -16.5765  -20.7516 C   0  0  0  0  0  0  0  0  0  0  0  0
   26.1956  -15.2101  -20.6076 C   0  0  1  0  0  0  0  0  0  0  0  0
   25.2251  -14.8631  -21.7207 C   0  0  0  0  0  0  0  0  0  0  0  0
   25.4602  -15.0661  -19.3157 C   0  0  0  0  0  0  0  0  0  0  0  0
   26.3791  -15.1834  -18.1440 C   0  0  2  0  0  0  0  0  0  0  0  0
   26.1483  -16.4332  -17.4658 N   0  0  0  0  0  0  0  0  0  0  0  0
   26.1628  -14.0084  -17.2676 C   0  0  0  0  0  0  0  0  0  0  0  0
   25.2028  -14.0751  -16.4242 O   0  0  0  0  0  0  0  0  0  0  0  0
   29.0481  -11.0731  -16.4470 O   0  0  0  0  0  0  0  0  0  0  0  0
   27.9386  -11.3785  -15.6931 C   0  0  0  0  0  0  0  0  0  0  0  0
   26.7283  -11.7113  -16.5345 C   0  0  2  0  0  0  0  0  0  0  0  0
   26.9845  -12.8619  -17.3620 N   0  0  0  0  0  0  0  0  0  0  0  0
   26.2742  -10.5779  -17.3532 C   0  0  0  0  0  0  0  0  0  0  0  0
   26.6448  -10.5221  -18.5535 O   0  0  0  0  0  0  0  0  0  0  0  0
   20.1089   -8.9900  -13.7420 O   0  0  0  0  0  0  0  0  0  0  0  0
   20.9526   -8.9036  -14.8405 C   0  0  0  0  0  0  0  0  0  0  0  0
   21.4545  -10.0673  -15.3914 C   0  0  0  0  0  0  0  0  0  0  0  0
   22.2929  -10.0320  -16.4790 C   0  0  0  0  0  0  0  0  0  0  0  0
   22.6358   -8.7948  -17.0274 C   0  0  0  0  0  0  0  0  0  0  0  0
   23.5538   -8.6923  -18.1819 C   0  0  0  0  0  0  0  0  0  0  0  0
   24.9529   -8.4486  -17.7416 C   0  0  2  0  0  0  0  0  0  0  0  0
   25.4468   -9.5363  -16.8950 N   0  0  0  0  0  0  0  0  0  0  0  0
   25.1399   -7.1713  -17.0483 C   0  0  0  0  0  0  0  0  0  0  0  0
   24.9528   -5.9685  -17.6857 O   0  0  0  0  0  0  0  0  0  0  0  0
   22.1243   -7.6330  -16.4636 C   0  0  0  0  0  0  0  0  0  0  0  0
   21.2846   -7.6719  -15.3742 C   0  0  0  0  0  0  0  0  0  0  0  0
   25.4808   -7.1676  -15.8457 O   0  0  0  0  0  0  0  0  0  0  0  0
  2  1  1  6
  2  4  1  0
  2  3  1  0
  5  4  1  0
  5  6  1  1
  7  5  1  0
  8  7  2  0
  9 10  1  0
 11 10  1  6
 11 12  1  0
 12  7  1  0
 13 22  1  0
 13 11  1  0
 14 13  2  0
 16 15  1  0
 17 16  2  0
 18 17  1  0
 19 25  1  0
 19 18  2  0
 21 20  1  1
 20 19  1  0
 21 23  1  0
 21 22  1  0
 23 24  1  0
 25 26  2  0
 26 16  1  0
 27 23  2  0
M  END
$$$$
