LSY.pdb
     RDKit          3D

 27 27  0  0  1  0  0  0  0  0999 V2000
   29.2572  -16.5197  -17.0680 C   0  0  0  0  0  0  0  0  0  0  0  0
   28.7924  -17.8092  -16.4896 C   0  0  1  0  0  0  0  0  0  0  0  0
   29.9198  -18.6071  -15.8625 C   0  0  0  0  0  0  0  0  0  0  0  0
   27.7634  -17.5854  -15.4306 C   0  0  0  0  0  0  0  0  0  0  0  0
   27.4567  -18.8441  -14.6873 C   0  0  2  0  0  0  0  0  0  0  0  0
   26.7173  -19.7439  -15.5352 N   0  0  0  0  0  0  0  0  0  0  0  0
   26.7188  -18.4842  -13.4537 C   0  0  0  0  0  0  0  0  0  0  0  0
   26.0513  -17.3925  -13.4674 O   0  0  0  0  0  0  0  0  0  0  0  0
   23.3002  -20.3015  -11.6257 O   0  0  0  0  0  0  0  0  0  0  0  0
   24.4392  -20.0493  -12.3547 C   0  0  0  0  0  0  0  0  0  0  0  0
   25.5695  -19.5053  -11.5120 C   0  0  2  0  0  0  0  0  0  0  0  0
   26.7531  -19.3145  -12.3100 N   0  0  0  0  0  0  0  0  0  0  0  0
   25.8653  -20.3469  -10.3435 C   0  0  0  0  0  0  0  0  0  0  0  0
   26.3863  -21.4750  -10.5369 O   0  0  0  0  0  0  0  0  0  0  0  0
   30.7339  -19.0928   -4.6630 O   0  0  0  0  0  0  0  0  0  0  0  0
   29.4639  -19.3861   -5.1394 C   0  0  0  0  0  0  0  0  0  0  0  0
   28.6584  -18.3520   -5.5768 C   0  0  0  0  0  0  0  0  0  0  0  0
   27.3941  -18.5932   -6.0568 C   0  0  0  0  0  0  0  0  0  0  0  0
   26.9271  -19.9082   -6.0983 C   0  0  0  0  0  0  0  0  0  0  0  0
   25.5663  -20.2271   -6.5807 C   0  0  0  0  0  0  0  0  0  0  0  0
   25.6065  -20.9313   -7.8895 C   0  0  2  0  0  0  0  0  0  0  0  0
   25.6086  -19.9864   -9.0081 N   0  0  0  0  0  0  0  0  0  0  0  0
   24.5210  -21.8982   -8.0736 C   0  0  0  0  0  0  0  0  0  0  0  0
   23.4831  -21.6631   -8.9429 O   0  0  0  0  0  0  0  0  0  0  0  0
   27.7471  -20.9381   -5.6553 C   0  0  0  0  0  0  0  0  0  0  0  0
   29.0131  -20.6929   -5.1752 C   0  0  0  0  0  0  0  0  0  0  0  0
   24.5313  -22.9664   -7.4246 O   0  0  0  0  0  0  0  0  0  0  0  0
  2  1  1  1
  2  4  1  0
  2  3  1  0
  5  4  1  0
  5  6  1  6
  7  5  1  0
  8  7  2  0
  9 10  1  0
 11 10  1  6
 11 12  1  0
 12  7  1  0
 13 22  1  0
 13 11  1  0
 14 13  2  0
 16 15  1  0
 17 16  2  0
 18 17  1  0
 19 25  1  0
 19 18  2  0
 21 20  1  1
 20 19  1  0
 21 23  1  0
 21 22  1  0
 23 24  1  0
 25 26  2  0
 26 16  1  0
 27 23  2  0
M  END
$$$$
