LSY.pdb
     RDKit          3D

 27 27  0  0  1  0  0  0  0  0999 V2000
   27.4574  -14.8155  -14.9794 C   0  0  0  0  0  0  0  0  0  0  0  0
   26.9436  -16.0296  -15.6689 C   0  0  1  0  0  0  0  0  0  0  0  0
   28.0513  -16.8626  -16.2858 C   0  0  0  0  0  0  0  0  0  0  0  0
   26.1978  -16.9122  -14.7228 C   0  0  0  0  0  0  0  0  0  0  0  0
   25.7620  -18.1801  -15.3812 C   0  0  2  0  0  0  0  0  0  0  0  0
   24.7234  -17.9006  -16.3395 N   0  0  0  0  0  0  0  0  0  0  0  0
   25.3269  -19.1235  -14.3247 C   0  0  0  0  0  0  0  0  0  0  0  0
   24.1880  -18.9105  -13.7814 O   0  0  0  0  0  0  0  0  0  0  0  0
   27.1356  -22.8567  -13.9323 O   0  0  0  0  0  0  0  0  0  0  0  0
   25.8297  -22.5963  -13.5870 C   0  0  0  0  0  0  0  0  0  0  0  0
   25.6352  -21.2079  -13.0230 C   0  0  2  0  0  0  0  0  0  0  0  0
   26.1389  -20.2131  -13.9345 N   0  0  0  0  0  0  0  0  0  0  0  0
   26.2406  -21.0429  -11.6935 C   0  0  0  0  0  0  0  0  0  0  0  0
   27.4863  -20.8876  -11.6199 O   0  0  0  0  0  0  0  0  0  0  0  0
   28.9221  -19.0790   -3.7829 O   0  0  0  0  0  0  0  0  0  0  0  0
   28.4643  -19.2663   -5.0795 C   0  0  0  0  0  0  0  0  0  0  0  0
   29.0070  -20.2847   -5.8398 C   0  0  0  0  0  0  0  0  0  0  0  0
   28.5858  -20.5087   -7.1279 C   0  0  0  0  0  0  0  0  0  0  0  0
   27.5932  -19.6878   -7.6662 C   0  0  0  0  0  0  0  0  0  0  0  0
   27.1176  -19.8643   -9.0550 C   0  0  0  0  0  0  0  0  0  0  0  0
   26.1577  -20.9949   -9.1595 C   0  0  2  0  0  0  0  0  0  0  0  0
   25.5280  -21.0448  -10.4804 N   0  0  0  0  0  0  0  0  0  0  0  0
   25.1182  -20.9845   -8.1268 C   0  0  0  0  0  0  0  0  0  0  0  0
   23.8046  -20.7143   -8.4260 O   0  0  0  0  0  0  0  0  0  0  0  0
   27.0565  -18.6677   -6.8911 C   0  0  0  0  0  0  0  0  0  0  0  0
   27.4806  -18.4462   -5.6010 C   0  0  0  0  0  0  0  0  0  0  0  0
   25.4272  -21.2246   -6.9396 O   0  0  0  0  0  0  0  0  0  0  0  0
  2  1  1  1
  2  4  1  0
  2  3  1  0
  5  4  1  0
  5  6  1  6
  7  5  1  0
  8  7  2  0
  9 10  1  0
 11 10  1  6
 11 12  1  0
 12  7  1  0
 13 22  1  0
 13 11  1  0
 14 13  2  0
 16 15  1  0
 17 16  2  0
 18 17  1  0
 19 25  1  0
 19 18  2  0
 21 20  1  6
 20 19  1  0
 21 23  1  0
 21 22  1  0
 23 24  1  0
 25 26  2  0
 26 16  1  0
 27 23  2  0
M  END
$$$$
