LSY.pdb
     RDKit          3D

 27 27  0  0  1  0  0  0  0  0999 V2000
   29.8628  -16.3526  -21.2365 C   0  0  0  0  0  0  0  0  0  0  0  0
   29.1358  -16.0676  -19.9701 C   0  0  1  0  0  0  0  0  0  0  0  0
   28.0913  -14.9791  -20.1297 C   0  0  0  0  0  0  0  0  0  0  0  0
   28.4350  -17.2857  -19.4646 C   0  0  0  0  0  0  0  0  0  0  0  0
   27.6773  -17.0028  -18.2089 C   0  0  2  0  0  0  0  0  0  0  0  0
   28.5715  -16.4847  -17.2054 N   0  0  0  0  0  0  0  0  0  0  0  0
   27.0032  -18.2522  -17.7845 C   0  0  0  0  0  0  0  0  0  0  0  0
   26.2704  -18.8458  -18.6495 O   0  0  0  0  0  0  0  0  0  0  0  0
   28.1651  -20.7032  -14.4832 O   0  0  0  0  0  0  0  0  0  0  0  0
   27.5414  -21.0226  -15.6671 C   0  0  0  0  0  0  0  0  0  0  0  0
   26.5195  -19.9932  -16.0908 C   0  0  2  0  0  0  0  0  0  0  0  0
   27.1644  -18.7647  -16.4768 N   0  0  0  0  0  0  0  0  0  0  0  0
   25.5036  -19.7404  -15.0587 C   0  0  0  0  0  0  0  0  0  0  0  0
   24.7638  -18.7312  -15.1839 O   0  0  0  0  0  0  0  0  0  0  0  0
   18.6944  -19.5940   -9.9239 O   0  0  0  0  0  0  0  0  0  0  0  0
   19.7281  -19.7920  -10.8284 C   0  0  0  0  0  0  0  0  0  0  0  0
   20.4483  -18.6988  -11.2708 C   0  0  0  0  0  0  0  0  0  0  0  0
   21.4801  -18.8453  -12.1656 C   0  0  0  0  0  0  0  0  0  0  0  0
   21.7965  -20.1239  -12.6281 C   0  0  0  0  0  0  0  0  0  0  0  0
   22.8796  -20.3411  -13.6109 C   0  0  0  0  0  0  0  0  0  0  0  0
   24.2147  -20.3322  -12.9566 C   0  0  2  0  0  0  0  0  0  0  0  0
   25.2899  -20.5481  -13.9268 N   0  0  0  0  0  0  0  0  0  0  0  0
   24.3442  -21.3017  -11.8655 C   0  0  0  0  0  0  0  0  0  0  0  0
   24.0262  -20.9775  -10.5687 O   0  0  0  0  0  0  0  0  0  0  0  0
   21.0643  -21.2141  -12.1755 C   0  0  0  0  0  0  0  0  0  0  0  0
   20.0313  -21.0638  -11.2789 C   0  0  0  0  0  0  0  0  0  0  0  0
   24.7564  -22.4556  -12.1129 O   0  0  0  0  0  0  0  0  0  0  0  0
  2  1  1  6
  2  4  1  0
  2  3  1  0
  5  4  1  0
  5  6  1  1
  7  5  1  0
  8  7  2  0
  9 10  1  0
 11 10  1  1
 11 12  1  0
 12  7  1  0
 13 22  1  0
 13 11  1  0
 14 13  2  0
 16 15  1  0
 17 16  2  0
 18 17  1  0
 19 25  1  0
 19 18  2  0
 21 20  1  6
 20 19  1  0
 21 23  1  0
 21 22  1  0
 23 24  1  0
 25 26  2  0
 26 16  1  0
 27 23  2  0
M  END
$$$$
