FFD.pdb
     RDKit          3D

 31 32  0  0  1  0  0  0  0  0999 V2000
    8.1969  -17.1337   21.9732 N   0  0  0  0  0  0  0  0  0  0  0  0
    9.5354  -16.6266   21.9189 C   0  0  1  0  0  0  0  0  0  0  0  0
    9.7511  -15.6810   20.7572 C   0  0  0  0  0  0  0  0  0  0  0  0
    8.7121  -14.6102   20.7349 C   0  0  0  0  0  0  0  0  0  0  0  0
    8.6896  -13.6602   19.7430 C   0  0  0  0  0  0  0  0  0  0  0  0
    7.7604  -12.6662   19.6841 C   0  0  0  0  0  0  0  0  0  0  0  0
    6.7972  -12.6364   20.6933 C   0  0  0  0  0  0  0  0  0  0  0  0
    6.8079  -13.5841   21.6954 C   0  0  0  0  0  0  0  0  0  0  0  0
    7.7642  -14.5848   21.7322 C   0  0  0  0  0  0  0  0  0  0  0  0
    9.8837  -15.8983   23.1621 C   0  0  0  0  0  0  0  0  0  0  0  0
   10.8415  -15.0829   23.1844 O   0  0  0  0  0  0  0  0  0  0  0  0
    9.0977  -16.1578   24.3151 N   0  0  0  0  0  0  0  0  0  0  0  0
    9.5814  -15.7644   25.6252 C   0  0  1  0  0  0  0  0  0  0  0  0
    8.4860  -15.4001   26.5571 C   0  0  0  0  0  0  0  0  0  0  0  0
    7.9025  -14.0674   26.2890 C   0  0  0  0  0  0  0  0  0  0  0  0
    6.5504  -14.0214   25.9282 C   0  0  0  0  0  0  0  0  0  0  0  0
    5.9801  -12.8007   25.6899 C   0  0  0  0  0  0  0  0  0  0  0  0
    6.7076  -11.6345   25.7988 C   0  0  0  0  0  0  0  0  0  0  0  0
    8.0459  -11.6694   26.1554 C   0  0  0  0  0  0  0  0  0  0  0  0
    8.6048  -12.8870   26.3905 C   0  0  0  0  0  0  0  0  0  0  0  0
   10.4106  -16.8856   26.1223 C   0  0  0  0  0  0  0  0  0  0  0  0
   10.9634  -16.7526   27.2575 O   0  0  0  0  0  0  0  0  0  0  0  0
   10.6083  -18.0830   25.3922 N   0  0  0  0  0  0  0  0  0  0  0  0
   11.5049  -19.1002   25.8982 C   0  0  1  0  0  0  0  0  0  0  0  0
   10.8205  -20.4263   25.7080 C   0  0  0  0  0  0  0  0  0  0  0  0
    9.6811  -20.5375   26.6137 C   0  0  0  0  0  0  0  0  0  0  0  0
    9.7116  -20.2479   27.8424 O   0  0  0  0  0  0  0  0  0  0  0  0
   12.8186  -19.0418   25.2088 C   0  0  0  0  0  0  0  0  0  0  0  0
   13.0154  -18.1930   24.1507 O   0  0  0  0  0  0  0  0  0  0  0  0
    8.4737  -21.0001   26.0662 O   0  0  0  0  0  0  0  0  0  0  0  0
   13.7734  -19.7685   25.5803 O   0  0  0  0  0  0  0  0  0  0  0  0
  2  1  1  1
  2  3  1  0
  3  4  1  0
  4  5  2  0
  5  6  1  0
  7  6  2  0
  8  7  1  0
  9  4  1  0
  9  8  2  0
 10  2  1  0
 11 10  2  0
 12 10  1  0
 13 21  1  0
 13 12  1  0
 13 14  1  1
 15 14  1  0
 16 15  2  0
 17 16  1  0
 18 19  1  0
 18 17  2  0
 19 20  2  0
 20 15  1  0
 21 23  1  0
 22 21  2  0
 23 24  1  0
 24 28  1  0
 25 26  1  0
 24 25  1  6
 26 27  2  0
 28 31  2  0
 28 29  1  0
 30 26  1  0
M  END
$$$$
