FFD.pdb
     RDKit          3D

 31 32  0  0  1  0  0  0  0  0999 V2000
    9.7298  -18.0017   19.8739 N   0  0  0  0  0  0  0  0  0  0  0  0
    9.2556  -16.7952   20.4831 C   0  0  1  0  0  0  0  0  0  0  0  0
    7.8983  -16.3762   19.9611 C   0  0  0  0  0  0  0  0  0  0  0  0
    7.7825  -14.8900   19.8948 C   0  0  0  0  0  0  0  0  0  0  0  0
    8.6418  -14.1422   19.1271 C   0  0  0  0  0  0  0  0  0  0  0  0
    8.5721  -12.7850   19.0378 C   0  0  0  0  0  0  0  0  0  0  0  0
    7.5696  -12.1506   19.7724 C   0  0  0  0  0  0  0  0  0  0  0  0
    6.6999  -12.8891   20.5474 C   0  0  0  0  0  0  0  0  0  0  0  0
    6.7923  -14.2687   20.6209 C   0  0  0  0  0  0  0  0  0  0  0  0
    9.1451  -16.9446   21.9538 C   0  0  0  0  0  0  0  0  0  0  0  0
    9.9473  -17.6763   22.5891 O   0  0  0  0  0  0  0  0  0  0  0  0
    8.1055  -16.2335   22.6079 N   0  0  0  0  0  0  0  0  0  0  0  0
    8.3817  -15.5153   23.8379 C   0  0  1  0  0  0  0  0  0  0  0  0
    7.1946  -14.7970   24.3633 C   0  0  0  0  0  0  0  0  0  0  0  0
    7.4422  -14.1111   25.6504 C   0  0  0  0  0  0  0  0  0  0  0  0
    7.6077  -12.7213   25.6138 C   0  0  0  0  0  0  0  0  0  0  0  0
    7.8221  -12.0587   26.7915 C   0  0  0  0  0  0  0  0  0  0  0  0
    7.8766  -12.7309   27.9941 C   0  0  0  0  0  0  0  0  0  0  0  0
    7.7140  -14.1059   28.0410 C   0  0  0  0  0  0  0  0  0  0  0  0
    7.5011  -14.7566   26.8656 C   0  0  0  0  0  0  0  0  0  0  0  0
    8.9225  -16.5085   24.7934 C   0  0  0  0  0  0  0  0  0  0  0  0
    8.2316  -17.5500   25.0160 O   0  0  0  0  0  0  0  0  0  0  0  0
   10.1619  -16.3447   25.4589 N   0  0  0  0  0  0  0  0  0  0  0  0
   10.7007  -17.4216   26.2618 C   0  0  1  0  0  0  0  0  0  0  0  0
   11.9623  -17.8868   25.5872 C   0  0  0  0  0  0  0  0  0  0  0  0
   12.6197  -18.9056   26.3999 C   0  0  0  0  0  0  0  0  0  0  0  0
   12.0145  -19.7538   27.1131 O   0  0  0  0  0  0  0  0  0  0  0  0
   10.9413  -16.9753   27.6573 C   0  0  0  0  0  0  0  0  0  0  0  0
   10.8984  -15.6445   27.9826 O   0  0  0  0  0  0  0  0  0  0  0  0
   14.0234  -18.9320   26.3771 O   0  0  0  0  0  0  0  0  0  0  0  0
   11.1897  -17.8070   28.5654 O   0  0  0  0  0  0  0  0  0  0  0  0
  2  1  1  6
  2  3  1  0
  3  4  1  0
  4  5  2  0
  5  6  1  0
  7  6  2  0
  8  7  1  0
  9  4  1  0
  9  8  2  0
 10  2  1  0
 11 10  2  0
 12 10  1  0
 13 21  1  0
 13 12  1  0
 13 14  1  1
 15 14  1  0
 16 15  2  0
 17 16  1  0
 18 19  1  0
 18 17  2  0
 19 20  2  0
 20 15  1  0
 21 23  1  0
 22 21  2  0
 23 24  1  0
 24 28  1  0
 25 26  1  0
 24 25  1  6
 26 27  2  0
 28 31  2  0
 28 29  1  0
 30 26  1  0
M  END
$$$$
