FFD.pdb
     RDKit          3D

 31 32  0  0  1  0  0  0  0  0999 V2000
    7.2978  -17.7706   21.1923 N   0  0  0  0  0  0  0  0  0  0  0  0
    7.6500  -16.3906   21.0408 C   0  0  1  0  0  0  0  0  0  0  0  0
    6.4516  -15.5150   20.7446 C   0  0  0  0  0  0  0  0  0  0  0  0
    6.8734  -14.1310   20.3797 C   0  0  0  0  0  0  0  0  0  0  0  0
    7.3735  -13.8443   19.1328 C   0  0  0  0  0  0  0  0  0  0  0  0
    7.7700  -12.5965   18.7578 C   0  0  0  0  0  0  0  0  0  0  0  0
    7.6511  -11.5802   19.7066 C   0  0  0  0  0  0  0  0  0  0  0  0
    7.1506  -11.8539   20.9624 C   0  0  0  0  0  0  0  0  0  0  0  0
    6.7543  -13.1319   21.3185 C   0  0  0  0  0  0  0  0  0  0  0  0
    8.2989  -15.8652   22.2656 C   0  0  0  0  0  0  0  0  0  0  0  0
    9.1973  -14.9876   22.1929 O   0  0  0  0  0  0  0  0  0  0  0  0
    7.8671  -16.3897   23.5118 N   0  0  0  0  0  0  0  0  0  0  0  0
    8.5263  -15.9800   24.7377 C   0  0  1  0  0  0  0  0  0  0  0  0
    7.5699  -15.6614   25.8261 C   0  0  0  0  0  0  0  0  0  0  0  0
    7.4761  -14.2155   26.1242 C   0  0  0  0  0  0  0  0  0  0  0  0
    6.1991  -13.6415   26.1155 C   0  0  0  0  0  0  0  0  0  0  0  0
    6.0808  -12.3091   26.4035 C   0  0  0  0  0  0  0  0  0  0  0  0
    7.1848  -11.5372   26.6975 C   0  0  0  0  0  0  0  0  0  0  0  0
    8.4526  -12.0956   26.7088 C   0  0  0  0  0  0  0  0  0  0  0  0
    8.5610  -13.4208   26.4215 C   0  0  0  0  0  0  0  0  0  0  0  0
    9.4637  -17.0685   25.0959 C   0  0  0  0  0  0  0  0  0  0  0  0
    9.0055  -18.2517   25.1382 O   0  0  0  0  0  0  0  0  0  0  0  0
   10.8312  -16.8450   25.3889 N   0  0  0  0  0  0  0  0  0  0  0  0
   11.6532  -17.9298   25.8812 C   0  0  1  0  0  0  0  0  0  0  0  0
   13.0868  -17.5399   25.6445 C   0  0  0  0  0  0  0  0  0  0  0  0
   13.3646  -17.4944   24.2122 C   0  0  0  0  0  0  0  0  0  0  0  0
   12.7062  -18.1192   23.3344 O   0  0  0  0  0  0  0  0  0  0  0  0
   11.3737  -18.2009   27.3139 C   0  0  0  0  0  0  0  0  0  0  0  0
   10.9858  -17.1895   28.1538 O   0  0  0  0  0  0  0  0  0  0  0  0
   14.4423  -16.6961   23.7964 O   0  0  0  0  0  0  0  0  0  0  0  0
   11.4880  -19.3601   27.7840 O   0  0  0  0  0  0  0  0  0  0  0  0
  2  1  1  1
  2  3  1  0
  3  4  1  0
  4  5  2  0
  5  6  1  0
  7  6  2  0
  8  7  1  0
  9  4  1  0
  9  8  2  0
 10  2  1  0
 11 10  2  0
 12 10  1  0
 13 21  1  0
 13 12  1  0
 13 14  1  1
 15 14  1  0
 16 15  2  0
 17 16  1  0
 18 19  1  0
 18 17  2  0
 19 20  2  0
 20 15  1  0
 21 23  1  0
 22 21  2  0
 23 24  1  0
 24 28  1  0
 25 26  1  0
 24 25  1  1
 26 27  2  0
 28 31  2  0
 28 29  1  0
 30 26  1  0
M  END
$$$$
