FFD.pdb
     RDKit          3D

 31 32  0  0  1  0  0  0  0  0999 V2000
    7.4270  -17.3675   20.5812 N   0  0  0  0  0  0  0  0  0  0  0  0
    8.8210  -17.0421   20.6304 C   0  0  1  0  0  0  0  0  0  0  0  0
    9.2391  -16.1101   19.5137 C   0  0  0  0  0  0  0  0  0  0  0  0
    8.5094  -14.8112   19.5952 C   0  0  0  0  0  0  0  0  0  0  0  0
    7.1810  -14.7181   19.2580 C   0  0  0  0  0  0  0  0  0  0  0  0
    6.4768  -13.5539   19.3176 C   0  0  0  0  0  0  0  0  0  0  0  0
    7.1638  -12.4171   19.7453 C   0  0  0  0  0  0  0  0  0  0  0  0
    8.4978  -12.4961   20.0870 C   0  0  0  0  0  0  0  0  0  0  0  0
    9.1909  -13.6927   20.0175 C   0  0  0  0  0  0  0  0  0  0  0  0
    9.1749  -16.3919   21.9147 C   0  0  0  0  0  0  0  0  0  0  0  0
   10.3298  -15.9316   22.1071 O   0  0  0  0  0  0  0  0  0  0  0  0
    8.1645  -16.3117   22.9082 N   0  0  0  0  0  0  0  0  0  0  0  0
    8.4196  -15.5971   24.1449 C   0  0  1  0  0  0  0  0  0  0  0  0
    7.1772  -15.1182   24.7992 C   0  0  0  0  0  0  0  0  0  0  0  0
    7.4239  -14.2057   25.9370 C   0  0  0  0  0  0  0  0  0  0  0  0
    6.8877  -12.9152   25.8507 C   0  0  0  0  0  0  0  0  0  0  0  0
    7.0866  -12.0548   26.8958 C   0  0  0  0  0  0  0  0  0  0  0  0
    7.7967  -12.4360   28.0146 C   0  0  0  0  0  0  0  0  0  0  0  0
    8.3311  -13.7106   28.1098 C   0  0  0  0  0  0  0  0  0  0  0  0
    8.1285  -14.5594   27.0663 C   0  0  0  0  0  0  0  0  0  0  0  0
    9.2072  -16.5099   25.0042 C   0  0  0  0  0  0  0  0  0  0  0  0
    8.6951  -17.6344   25.2956 O   0  0  0  0  0  0  0  0  0  0  0  0
   10.4904  -16.1827   25.5065 N   0  0  0  0  0  0  0  0  0  0  0  0
   11.3393  -17.2187   26.0548 C   0  0  1  0  0  0  0  0  0  0  0  0
   12.7435  -16.9246   25.6019 C   0  0  0  0  0  0  0  0  0  0  0  0
   13.6698  -17.8955   26.1764 C   0  0  0  0  0  0  0  0  0  0  0  0
   14.3022  -17.7301   27.2567 O   0  0  0  0  0  0  0  0  0  0  0  0
   11.2255  -17.2718   27.5342 C   0  0  0  0  0  0  0  0  0  0  0  0
   10.4326  -16.3785   28.2066 O   0  0  0  0  0  0  0  0  0  0  0  0
   13.8609  -19.0920   25.4669 O   0  0  0  0  0  0  0  0  0  0  0  0
   11.8533  -18.1341   28.1977 O   0  0  0  0  0  0  0  0  0  0  0  0
  2  1  1  1
  2  3  1  0
  3  4  1  0
  4  5  2  0
  5  6  1  0
  7  6  2  0
  8  7  1  0
  9  4  1  0
  9  8  2  0
 10  2  1  0
 11 10  2  0
 12 10  1  0
 13 21  1  0
 13 12  1  0
 13 14  1  1
 15 14  1  0
 16 15  2  0
 17 16  1  0
 18 19  1  0
 18 17  2  0
 19 20  2  0
 20 15  1  0
 21 23  1  0
 22 21  2  0
 23 24  1  0
 24 28  1  0
 25 26  1  0
 24 25  1  1
 26 27  2  0
 28 31  2  0
 28 29  1  0
 30 26  1  0
M  END
$$$$
