FFD.pdb
     RDKit          3D

 31 32  0  0  1  0  0  0  0  0999 V2000
   10.6879  -17.5162   19.9008 N   0  0  0  0  0  0  0  0  0  0  0  0
   10.0378  -16.4277   20.5672 C   0  0  1  0  0  0  0  0  0  0  0  0
    8.5501  -16.3847   20.2928 C   0  0  0  0  0  0  0  0  0  0  0  0
    7.9759  -15.0536   20.6465 C   0  0  0  0  0  0  0  0  0  0  0  0
    6.9209  -14.9421   21.5191 C   0  0  0  0  0  0  0  0  0  0  0  0
    6.3665  -13.7484   21.8693 C   0  0  0  0  0  0  0  0  0  0  0  0
    6.9173  -12.6003   21.2987 C   0  0  0  0  0  0  0  0  0  0  0  0
    7.9768  -12.6976   20.4211 C   0  0  0  0  0  0  0  0  0  0  0  0
    8.5223  -13.9240   20.0814 C   0  0  0  0  0  0  0  0  0  0  0  0
   10.2219  -16.5111   22.0357 C   0  0  0  0  0  0  0  0  0  0  0  0
   10.9355  -17.4131   22.5453 O   0  0  0  0  0  0  0  0  0  0  0  0
    9.5648  -15.5390   22.8342 N   0  0  0  0  0  0  0  0  0  0  0  0
    9.9117  -15.3983   24.2360 C   0  0  1  0  0  0  0  0  0  0  0  0
    8.9920  -14.4930   24.9679 C   0  0  0  0  0  0  0  0  0  0  0  0
    9.3448  -14.3214   26.3942 C   0  0  0  0  0  0  0  0  0  0  0  0
    8.7323  -15.1819   27.3133 C   0  0  0  0  0  0  0  0  0  0  0  0
    9.0521  -15.0562   28.6378 C   0  0  0  0  0  0  0  0  0  0  0  0
    9.9549  -14.1088   29.0718 C   0  0  0  0  0  0  0  0  0  0  0  0
   10.5665  -13.2528   28.1704 C   0  0  0  0  0  0  0  0  0  0  0  0
   10.2429  -13.3846   26.8558 C   0  0  0  0  0  0  0  0  0  0  0  0
    9.9435  -16.7661   24.8016 C   0  0  0  0  0  0  0  0  0  0  0  0
    8.8683  -17.4408   24.7746 O   0  0  0  0  0  0  0  0  0  0  0  0
   11.1088  -17.3430   25.3630 N   0  0  0  0  0  0  0  0  0  0  0  0
   11.0355  -18.6315   26.0180 C   0  0  1  0  0  0  0  0  0  0  0  0
   12.2643  -19.4011   25.6169 C   0  0  0  0  0  0  0  0  0  0  0  0
   11.9079  -20.4636   24.6815 C   0  0  0  0  0  0  0  0  0  0  0  0
   10.7285  -20.7356   24.3217 O   0  0  0  0  0  0  0  0  0  0  0  0
   10.9268  -18.4741   27.4904 C   0  0  0  0  0  0  0  0  0  0  0  0
   10.2341  -19.3875   28.2416 O   0  0  0  0  0  0  0  0  0  0  0  0
   12.9606  -21.2281   24.1532 O   0  0  0  0  0  0  0  0  0  0  0  0
   11.4657  -17.5017   28.0754 O   0  0  0  0  0  0  0  0  0  0  0  0
  2  1  1  6
  2  3  1  0
  3  4  1  0
  4  5  2  0
  5  6  1  0
  7  6  2  0
  8  7  1  0
  9  4  1  0
  9  8  2  0
 10  2  1  0
 11 10  2  0
 12 10  1  0
 13 21  1  0
 13 12  1  0
 13 14  1  1
 15 14  1  0
 16 15  2  0
 17 16  1  0
 18 19  1  0
 18 17  2  0
 19 20  2  0
 20 15  1  0
 21 23  1  0
 22 21  2  0
 23 24  1  0
 24 28  1  0
 25 26  1  0
 24 25  1  1
 26 27  2  0
 28 31  2  0
 28 29  1  0
 30 26  1  0
M  END
$$$$
