FFD.pdb
     RDKit          3D

 31 32  0  0  1  0  0  0  0  0999 V2000
   10.0401  -16.4721   19.4560 N   0  0  0  0  0  0  0  0  0  0  0  0
    9.2971  -17.0147   20.5537 C   0  0  1  0  0  0  0  0  0  0  0  0
    9.7084  -18.4321   20.8887 C   0  0  0  0  0  0  0  0  0  0  0  0
    9.3244  -19.3758   19.7984 C   0  0  0  0  0  0  0  0  0  0  0  0
    8.0444  -19.8639   19.6969 C   0  0  0  0  0  0  0  0  0  0  0  0
    7.6511  -20.7262   18.7189 C   0  0  0  0  0  0  0  0  0  0  0  0
    8.6162  -21.1151   17.7891 C   0  0  0  0  0  0  0  0  0  0  0  0
    9.9052  -20.6327   17.8790 C   0  0  0  0  0  0  0  0  0  0  0  0
   10.2794  -19.7566   18.8837 C   0  0  0  0  0  0  0  0  0  0  0  0
    9.4714  -16.1951   21.7765 C   0  0  0  0  0  0  0  0  0  0  0  0
   10.6176  -15.8467   22.1606 O   0  0  0  0  0  0  0  0  0  0  0  0
    8.3010  -15.8240   22.4884 N   0  0  0  0  0  0  0  0  0  0  0  0
    8.4029  -14.9613   23.6505 C   0  0  1  0  0  0  0  0  0  0  0  0
    7.1646  -14.1828   23.8991 C   0  0  0  0  0  0  0  0  0  0  0  0
    7.1898  -13.4245   25.1689 C   0  0  0  0  0  0  0  0  0  0  0  0
    8.0006  -12.2841   25.2177 C   0  0  0  0  0  0  0  0  0  0  0  0
    8.0308  -11.5542   26.3747 C   0  0  0  0  0  0  0  0  0  0  0  0
    7.2854  -11.9212   27.4750 C   0  0  0  0  0  0  0  0  0  0  0  0
    6.4798  -13.0477   27.4368 C   0  0  0  0  0  0  0  0  0  0  0  0
    6.4557  -13.7674   26.2828 C   0  0  0  0  0  0  0  0  0  0  0  0
    8.7740  -15.8311   24.7896 C   0  0  0  0  0  0  0  0  0  0  0  0
    8.3342  -17.0220   24.7904 O   0  0  0  0  0  0  0  0  0  0  0  0
    9.5883  -15.3932   25.8626 N   0  0  0  0  0  0  0  0  0  0  0  0
   10.3404  -16.3546   26.6401 C   0  0  1  0  0  0  0  0  0  0  0  0
   11.6066  -16.6428   25.8806 C   0  0  0  0  0  0  0  0  0  0  0  0
   11.7898  -18.0840   25.7388 C   0  0  0  0  0  0  0  0  0  0  0  0
   11.4627  -18.9370   26.6105 O   0  0  0  0  0  0  0  0  0  0  0  0
   10.6095  -15.8395   28.0064 C   0  0  0  0  0  0  0  0  0  0  0  0
   10.9941  -16.6895   29.0106 O   0  0  0  0  0  0  0  0  0  0  0  0
   12.3716  -18.5387   24.5445 O   0  0  0  0  0  0  0  0  0  0  0  0
   10.4891  -14.6169   28.2688 O   0  0  0  0  0  0  0  0  0  0  0  0
  2  1  1  6
  2  3  1  0
  3  4  1  0
  4  5  2  0
  5  6  1  0
  7  6  2  0
  8  7  1  0
  9  4  1  0
  9  8  2  0
 10  2  1  0
 11 10  2  0
 12 10  1  0
 13 21  1  0
 13 12  1  0
 13 14  1  1
 15 14  1  0
 16 15  2  0
 17 16  1  0
 18 19  1  0
 18 17  2  0
 19 20  2  0
 20 15  1  0
 21 23  1  0
 22 21  2  0
 23 24  1  0
 24 28  1  0
 25 26  1  0
 24 25  1  6
 26 27  2  0
 28 31  2  0
 28 29  1  0
 30 26  1  0
M  END
$$$$
