FFD.pdb
     RDKit          3D

 31 32  0  0  1  0  0  0  0  0999 V2000
    9.3488  -18.3556   20.4916 N   0  0  0  0  0  0  0  0  0  0  0  0
    9.2675  -16.9284   20.5795 C   0  0  1  0  0  0  0  0  0  0  0  0
    7.8971  -16.4015   20.2124 C   0  0  0  0  0  0  0  0  0  0  0  0
    7.8748  -14.9095   20.2185 C   0  0  0  0  0  0  0  0  0  0  0  0
    6.8389  -14.2150   20.7943 C   0  0  0  0  0  0  0  0  0  0  0  0
    6.7783  -12.8547   20.8224 C   0  0  0  0  0  0  0  0  0  0  0  0
    7.8333  -12.1595   20.2300 C   0  0  0  0  0  0  0  0  0  0  0  0
    8.8798  -12.8440   19.6482 C   0  0  0  0  0  0  0  0  0  0  0  0
    8.9173  -14.2280   19.6332 C   0  0  0  0  0  0  0  0  0  0  0  0
    9.5781  -16.4569   21.9501 C   0  0  0  0  0  0  0  0  0  0  0  0
   10.7536  -16.5019   22.3960 O   0  0  0  0  0  0  0  0  0  0  0  0
    8.5027  -15.9576   22.7302 N   0  0  0  0  0  0  0  0  0  0  0  0
    8.7618  -15.3795   24.0355 C   0  0  1  0  0  0  0  0  0  0  0  0
    7.7157  -14.4148   24.4551 C   0  0  0  0  0  0  0  0  0  0  0  0
    7.9201  -13.8794   25.8189 C   0  0  0  0  0  0  0  0  0  0  0  0
    9.1689  -13.3143   26.1043 C   0  0  0  0  0  0  0  0  0  0  0  0
    9.3806  -12.7968   27.3531 C   0  0  0  0  0  0  0  0  0  0  0  0
    8.3962  -12.8241   28.3182 C   0  0  0  0  0  0  0  0  0  0  0  0
    7.1572  -13.3809   28.0457 C   0  0  0  0  0  0  0  0  0  0  0  0
    6.9553  -13.8929   26.8018 C   0  0  0  0  0  0  0  0  0  0  0  0
    8.9098  -16.5130   24.9764 C   0  0  0  0  0  0  0  0  0  0  0  0
    7.8724  -17.1915   25.2506 O   0  0  0  0  0  0  0  0  0  0  0  0
   10.1449  -16.8648   25.5737 N   0  0  0  0  0  0  0  0  0  0  0  0
   10.2010  -17.9385   26.5426 C   0  0  1  0  0  0  0  0  0  0  0  0
   11.2363  -18.9166   26.0582 C   0  0  0  0  0  0  0  0  0  0  0  0
   10.8633  -19.4330   24.7449 C   0  0  0  0  0  0  0  0  0  0  0  0
    9.7978  -20.0646   24.4995 O   0  0  0  0  0  0  0  0  0  0  0  0
   10.5113  -17.4164   27.8974 C   0  0  0  0  0  0  0  0  0  0  0  0
   10.8539  -16.1016   28.0780 O   0  0  0  0  0  0  0  0  0  0  0  0
   11.7619  -19.2037   23.6905 O   0  0  0  0  0  0  0  0  0  0  0  0
   10.4672  -18.1682   28.9027 O   0  0  0  0  0  0  0  0  0  0  0  0
  2  1  1  1
  2  3  1  0
  3  4  1  0
  4  5  2  0
  5  6  1  0
  7  6  2  0
  8  7  1  0
  9  4  1  0
  9  8  2  0
 10  2  1  0
 11 10  2  0
 12 10  1  0
 13 21  1  0
 13 12  1  0
 13 14  1  1
 15 14  1  0
 16 15  2  0
 17 16  1  0
 18 19  1  0
 18 17  2  0
 19 20  2  0
 20 15  1  0
 21 23  1  0
 22 21  2  0
 23 24  1  0
 24 28  1  0
 25 26  1  0
 24 25  1  6
 26 27  2  0
 28 31  2  0
 28 29  1  0
 30 26  1  0
M  END
$$$$
