FFD.pdb
     RDKit          3D

 31 32  0  0  1  0  0  0  0  0999 V2000
    8.5850  -18.1778   21.1850 N   0  0  0  0  0  0  0  0  0  0  0  0
    8.7953  -16.8504   20.6898 C   0  0  1  0  0  0  0  0  0  0  0  0
    7.6543  -16.3678   19.8205 C   0  0  0  0  0  0  0  0  0  0  0  0
    7.8025  -14.9195   19.4931 C   0  0  0  0  0  0  0  0  0  0  0  0
    7.0957  -13.9592   20.1750 C   0  0  0  0  0  0  0  0  0  0  0  0
    7.2004  -12.6275   19.9093 C   0  0  0  0  0  0  0  0  0  0  0  0
    8.0754  -12.2500   18.8899 C   0  0  0  0  0  0  0  0  0  0  0  0
    8.7913  -13.2038   18.1970 C   0  0  0  0  0  0  0  0  0  0  0  0
    8.6665  -14.5519   18.4870 C   0  0  0  0  0  0  0  0  0  0  0  0
    8.9543  -15.8824   21.8011 C   0  0  0  0  0  0  0  0  0  0  0  0
    9.6339  -14.8345   21.6505 O   0  0  0  0  0  0  0  0  0  0  0  0
    8.3131  -16.1857   23.0304 N   0  0  0  0  0  0  0  0  0  0  0  0
    8.3082  -15.2106   24.1048 C   0  0  1  0  0  0  0  0  0  0  0  0
    6.9955  -14.5382   24.2651 C   0  0  0  0  0  0  0  0  0  0  0  0
    6.9708  -13.5471   25.3630 C   0  0  0  0  0  0  0  0  0  0  0  0
    6.4023  -13.9507   26.5772 C   0  0  0  0  0  0  0  0  0  0  0  0
    6.3803  -13.0596   27.6153 C   0  0  0  0  0  0  0  0  0  0  0  0
    6.9022  -11.7902   27.4833 C   0  0  0  0  0  0  0  0  0  0  0  0
    7.4670  -11.3813   26.2861 C   0  0  0  0  0  0  0  0  0  0  0  0
    7.4847  -12.2734   25.2595 C   0  0  0  0  0  0  0  0  0  0  0  0
    8.7403  -15.9273   25.3261 C   0  0  0  0  0  0  0  0  0  0  0  0
    9.0305  -15.2310   26.3473 O   0  0  0  0  0  0  0  0  0  0  0  0
    8.8411  -17.3381   25.3989 N   0  0  0  0  0  0  0  0  0  0  0  0
    9.5021  -17.9598   26.5265 C   0  0  1  0  0  0  0  0  0  0  0  0
    8.9136  -19.3358   26.6794 C   0  0  0  0  0  0  0  0  0  0  0  0
    7.8711  -19.5498   25.6803 C   0  0  0  0  0  0  0  0  0  0  0  0
    7.4567  -18.6680   24.8771 O   0  0  0  0  0  0  0  0  0  0  0  0
   10.9728  -17.9966   26.3265 C   0  0  0  0  0  0  0  0  0  0  0  0
   11.8028  -18.4392   27.3235 O   0  0  0  0  0  0  0  0  0  0  0  0
    7.2986  -20.8305   25.6198 O   0  0  0  0  0  0  0  0  0  0  0  0
   11.4846  -17.6225   25.2420 O   0  0  0  0  0  0  0  0  0  0  0  0
  2  1  1  1
  2  3  1  0
  3  4  1  0
  4  5  2  0
  5  6  1  0
  7  6  2  0
  8  7  1  0
  9  4  1  0
  9  8  2  0
 10  2  1  0
 11 10  2  0
 12 10  1  0
 13 21  1  0
 13 12  1  0
 13 14  1  1
 15 14  1  0
 16 15  2  0
 17 16  1  0
 18 19  1  0
 18 17  2  0
 19 20  2  0
 20 15  1  0
 21 23  1  0
 22 21  2  0
 23 24  1  0
 24 28  1  0
 25 26  1  0
 24 25  1  6
 26 27  2  0
 28 31  2  0
 28 29  1  0
 30 26  1  0
M  END
$$$$
