FFD.pdb
     RDKit          3D

 31 32  0  0  1  0  0  0  0  0999 V2000
    7.9763  -17.9796   21.0951 N   0  0  0  0  0  0  0  0  0  0  0  0
    8.2341  -16.6545   20.6163 C   0  0  1  0  0  0  0  0  0  0  0  0
    7.0528  -16.0646   19.8768 C   0  0  0  0  0  0  0  0  0  0  0  0
    7.3422  -14.6728   19.4235 C   0  0  0  0  0  0  0  0  0  0  0  0
    6.9552  -13.5859   20.1691 C   0  0  0  0  0  0  0  0  0  0  0  0
    7.1986  -12.2997   19.7933 C   0  0  0  0  0  0  0  0  0  0  0  0
    7.8755  -12.1071   18.5884 C   0  0  0  0  0  0  0  0  0  0  0  0
    8.2700  -13.1893   17.8297 C   0  0  0  0  0  0  0  0  0  0  0  0
    8.0100  -14.4876   18.2346 C   0  0  0  0  0  0  0  0  0  0  0  0
    8.5700  -15.7374   21.7314 C   0  0  0  0  0  0  0  0  0  0  0  0
    9.3439  -14.7618   21.5524 O   0  0  0  0  0  0  0  0  0  0  0  0
    7.9866  -16.0046   22.9973 N   0  0  0  0  0  0  0  0  0  0  0  0
    8.2089  -15.0933   24.1043 C   0  0  1  0  0  0  0  0  0  0  0  0
    7.1441  -15.1696   25.1346 C   0  0  0  0  0  0  0  0  0  0  0  0
    7.2991  -14.1740   26.2177 C   0  0  0  0  0  0  0  0  0  0  0  0
    8.0972  -14.5353   27.3099 C   0  0  0  0  0  0  0  0  0  0  0  0
    8.2712  -13.6278   28.3191 C   0  0  0  0  0  0  0  0  0  0  0  0
    7.6806  -12.3827   28.2750 C   0  0  0  0  0  0  0  0  0  0  0  0
    6.8893  -12.0156   27.1987 C   0  0  0  0  0  0  0  0  0  0  0  0
    6.7217  -12.9237   26.1999 C   0  0  0  0  0  0  0  0  0  0  0  0
    9.5529  -15.4037   24.6421 C   0  0  0  0  0  0  0  0  0  0  0  0
    9.8652  -14.9114   25.7699 O   0  0  0  0  0  0  0  0  0  0  0  0
   10.4899  -16.2160   23.9580 N   0  0  0  0  0  0  0  0  0  0  0  0
   11.5058  -16.9318   24.7000 C   0  0  1  0  0  0  0  0  0  0  0  0
   10.7915  -17.8267   25.6757 C   0  0  0  0  0  0  0  0  0  0  0  0
   11.7565  -18.6364   26.4133 C   0  0  0  0  0  0  0  0  0  0  0  0
   12.8626  -18.2119   26.8501 O   0  0  0  0  0  0  0  0  0  0  0  0
   12.3945  -17.6928   23.7860 C   0  0  0  0  0  0  0  0  0  0  0  0
   12.0436  -18.9446   23.3518 O   0  0  0  0  0  0  0  0  0  0  0  0
   11.4173  -19.9789   26.6458 O   0  0  0  0  0  0  0  0  0  0  0  0
   13.4842  -17.2058   23.3943 O   0  0  0  0  0  0  0  0  0  0  0  0
  2  1  1  1
  2  3  1  0
  3  4  1  0
  4  5  2  0
  5  6  1  0
  7  6  2  0
  8  7  1  0
  9  4  1  0
  9  8  2  0
 10  2  1  0
 11 10  2  0
 12 10  1  0
 13 21  1  0
 13 12  1  0
 13 14  1  1
 15 14  1  0
 16 15  2  0
 17 16  1  0
 18 19  1  0
 18 17  2  0
 19 20  2  0
 20 15  1  0
 21 23  1  0
 22 21  2  0
 23 24  1  0
 24 28  1  0
 25 26  1  0
 24 25  1  1
 26 27  2  0
 28 31  2  0
 28 29  1  0
 30 26  1  0
M  END
$$$$
