FFD.pdb
     RDKit          3D

 31 32  0  0  1  0  0  0  0  0999 V2000
    8.4733  -17.6017   20.7961 N   0  0  0  0  0  0  0  0  0  0  0  0
    8.4755  -16.3783   21.5408 C   0  0  1  0  0  0  0  0  0  0  0  0
    7.1849  -15.6030   21.3871 C   0  0  0  0  0  0  0  0  0  0  0  0
    7.3673  -14.4274   20.4864 C   0  0  0  0  0  0  0  0  0  0  0  0
    7.8386  -13.2294   20.9656 C   0  0  0  0  0  0  0  0  0  0  0  0
    8.0201  -12.1320   20.1796 C   0  0  0  0  0  0  0  0  0  0  0  0
    7.7037  -12.2603   18.8266 C   0  0  0  0  0  0  0  0  0  0  0  0
    7.2296  -13.4573   18.3320 C   0  0  0  0  0  0  0  0  0  0  0  0
    7.0540  -14.5585   19.1528 C   0  0  0  0  0  0  0  0  0  0  0  0
    8.6784  -16.6313   22.9873 C   0  0  0  0  0  0  0  0  0  0  0  0
    8.8400  -17.8014   23.4202 O   0  0  0  0  0  0  0  0  0  0  0  0
    8.6824  -15.5077   23.8543 N   0  0  0  0  0  0  0  0  0  0  0  0
    9.6458  -15.4311   24.9365 C   0  0  1  0  0  0  0  0  0  0  0  0
    9.7477  -14.0711   25.5205 C   0  0  0  0  0  0  0  0  0  0  0  0
    8.4360  -13.4684   25.8438 C   0  0  0  0  0  0  0  0  0  0  0  0
    7.7469  -12.8373   24.8011 C   0  0  0  0  0  0  0  0  0  0  0  0
    6.5238  -12.2850   25.0678 C   0  0  0  0  0  0  0  0  0  0  0  0
    5.9702  -12.3410   26.3294 C   0  0  0  0  0  0  0  0  0  0  0  0
    6.6439  -12.9632   27.3678 C   0  0  0  0  0  0  0  0  0  0  0  0
    7.8591  -13.5097   27.0938 C   0  0  0  0  0  0  0  0  0  0  0  0
    9.2470  -16.4549   25.9288 C   0  0  0  0  0  0  0  0  0  0  0  0
    8.0212  -16.7812   25.9799 O   0  0  0  0  0  0  0  0  0  0  0  0
   10.1658  -17.0754   26.8102 N   0  0  0  0  0  0  0  0  0  0  0  0
    9.9550  -18.4444   27.2300 C   0  0  1  0  0  0  0  0  0  0  0  0
    9.9524  -19.2918   25.9870 C   0  0  0  0  0  0  0  0  0  0  0  0
    9.8085  -20.7007   26.3404 C   0  0  0  0  0  0  0  0  0  0  0  0
    8.7047  -21.2798   26.5421 O   0  0  0  0  0  0  0  0  0  0  0  0
   10.9970  -18.8701   28.1981 C   0  0  0  0  0  0  0  0  0  0  0  0
   10.7544  -19.8879   29.0834 O   0  0  0  0  0  0  0  0  0  0  0  0
   10.9887  -21.4519   26.4609 O   0  0  0  0  0  0  0  0  0  0  0  0
   12.1191  -18.3060   28.2257 O   0  0  0  0  0  0  0  0  0  0  0  0
  2  1  1  6
  2  3  1  0
  3  4  1  0
  4  5  2  0
  5  6  1  0
  7  6  2  0
  8  7  1  0
  9  4  1  0
  9  8  2  0
 10  2  1  0
 11 10  2  0
 12 10  1  0
 13 21  1  0
 13 12  1  0
 13 14  1  1
 15 14  1  0
 16 15  2  0
 17 16  1  0
 18 19  1  0
 18 17  2  0
 19 20  2  0
 20 15  1  0
 21 23  1  0
 22 21  2  0
 23 24  1  0
 24 28  1  0
 25 26  1  0
 24 25  1  6
 26 27  2  0
 28 31  2  0
 28 29  1  0
 30 26  1  0
M  END
$$$$
