FFD.pdb
     RDKit          3D

 31 32  0  0  1  0  0  0  0  0999 V2000
    6.1887  -18.0029   21.7039 N   0  0  0  0  0  0  0  0  0  0  0  0
    6.9101  -16.8082   21.3819 C   0  0  1  0  0  0  0  0  0  0  0  0
    6.1307  -15.8884   20.4670 C   0  0  0  0  0  0  0  0  0  0  0  0
    6.9329  -14.6836   20.1045 C   0  0  0  0  0  0  0  0  0  0  0  0
    6.7762  -13.4953   20.7756 C   0  0  0  0  0  0  0  0  0  0  0  0
    7.4869  -12.3722   20.4781 C   0  0  0  0  0  0  0  0  0  0  0  0
    8.4114  -12.4626   19.4369 C   0  0  0  0  0  0  0  0  0  0  0  0
    8.5790  -13.6495   18.7545 C   0  0  0  0  0  0  0  0  0  0  0  0
    7.8435  -14.7774   19.0770 C   0  0  0  0  0  0  0  0  0  0  0  0
    7.2519  -16.0423   22.6042 C   0  0  0  0  0  0  0  0  0  0  0  0
    6.5846  -15.0292   22.9374 O   0  0  0  0  0  0  0  0  0  0  0  0
    8.3538  -16.4967   23.3748 N   0  0  0  0  0  0  0  0  0  0  0  0
    8.8754  -15.6727   24.4490 C   0  0  1  0  0  0  0  0  0  0  0  0
    7.8631  -15.3813   25.4937 C   0  0  0  0  0  0  0  0  0  0  0  0
    8.3864  -14.5644   26.6105 C   0  0  0  0  0  0  0  0  0  0  0  0
    7.8329  -13.2904   26.7861 C   0  0  0  0  0  0  0  0  0  0  0  0
    8.2867  -12.5190   27.8211 C   0  0  0  0  0  0  0  0  0  0  0  0
    9.2659  -12.9726   28.6792 C   0  0  0  0  0  0  0  0  0  0  0  0
    9.8199  -14.2317   28.5141 C   0  0  0  0  0  0  0  0  0  0  0  0
    9.3629  -14.9919   27.4828 C   0  0  0  0  0  0  0  0  0  0  0  0
   10.0644  -16.3766   24.9806 C   0  0  0  0  0  0  0  0  0  0  0  0
    9.9036  -17.5561   25.4217 O   0  0  0  0  0  0  0  0  0  0  0  0
   11.3551  -15.7944   25.0158 N   0  0  0  0  0  0  0  0  0  0  0  0
   12.5284  -16.6228   24.8372 C   0  0  1  0  0  0  0  0  0  0  0  0
   13.5307  -15.8082   24.0660 C   0  0  0  0  0  0  0  0  0  0  0  0
   14.7339  -16.5966   23.8180 C   0  0  0  0  0  0  0  0  0  0  0  0
   14.9162  -17.7754   24.2323 O   0  0  0  0  0  0  0  0  0  0  0  0
   13.0618  -17.0783   26.1457 C   0  0  0  0  0  0  0  0  0  0  0  0
   12.5034  -16.6409   27.3186 O   0  0  0  0  0  0  0  0  0  0  0  0
   15.7510  -15.9886   23.0646 O   0  0  0  0  0  0  0  0  0  0  0  0
   14.0344  -17.8712   26.2037 O   0  0  0  0  0  0  0  0  0  0  0  0
  2  1  1  1
  2  3  1  0
  3  4  1  0
  4  5  2  0
  5  6  1  0
  7  6  2  0
  8  7  1  0
  9  4  1  0
  9  8  2  0
 10  2  1  0
 11 10  2  0
 12 10  1  0
 13 21  1  0
 13 12  1  0
 13 14  1  1
 15 14  1  0
 16 15  2  0
 17 16  1  0
 18 19  1  0
 18 17  2  0
 19 20  2  0
 20 15  1  0
 21 23  1  0
 22 21  2  0
 23 24  1  0
 24 28  1  0
 25 26  1  0
 24 25  1  1
 26 27  2  0
 28 31  2  0
 28 29  1  0
 30 26  1  0
M  END
$$$$
