DKN.pdb
     RDKit          3D

 26 25  0  0  1  0  0  0  0  0999 V2000
   26.0605  -20.4672   -9.6033 N   0  0  0  0  0  0  0  0  0  0  0  0
   24.9191  -20.8610  -10.3784 C   0  0  1  0  0  0  0  0  0  0  0  0
   23.6305  -20.2512   -9.8599 C   0  0  0  0  0  0  0  0  0  0  0  0
   22.4769  -20.8150  -10.6208 C   0  0  0  0  0  0  0  0  0  0  0  0
   22.6524  -21.7120  -11.4589 O   0  0  0  0  0  0  0  0  0  0  0  0
   25.1229  -20.4493  -11.7806 C   0  0  0  0  0  0  0  0  0  0  0  0
   25.0476  -19.2019  -12.0171 O   0  0  0  0  0  0  0  0  0  0  0  0
   21.1903  -20.3581  -10.4156 O   0  0  0  0  0  0  0  0  0  0  0  0
   25.3851  -21.4058  -12.7833 N   0  0  0  0  0  0  0  0  0  0  0  0
   25.7701  -20.9592  -14.1209 C   0  0  1  0  0  0  0  0  0  0  0  0
   26.7325  -21.9565  -14.6621 C   0  0  0  0  0  0  0  0  0  0  0  0
   27.2072  -21.7027  -16.0692 C   0  0  0  0  0  0  0  0  0  0  0  0
   28.2178  -22.7842  -16.3943 C   0  0  0  0  0  0  0  0  0  0  0  0
   28.8467  -22.6313  -17.7394 C   0  0  0  0  0  0  0  0  0  0  0  0
   29.9686  -23.4914  -17.9769 N   0  0  0  0  0  0  0  0  0  0  0  0
   24.5458  -20.7551  -14.9360 C   0  0  0  0  0  0  0  0  0  0  0  0
   23.6552  -21.6403  -14.8751 O   0  0  0  0  0  0  0  0  0  0  0  0
   20.7293  -18.2400  -15.6914 N   0  0  0  0  0  0  0  0  0  0  0  0
   21.6694  -17.3803  -16.3407 C   0  0  0  0  0  0  0  0  0  0  0  0
   21.3108  -16.1847  -16.4504 O   0  0  0  0  0  0  0  0  0  0  0  0
   22.9405  -17.9386  -16.8148 C   0  0  0  0  0  0  0  0  0  0  0  0
   23.1472  -19.3988  -16.5531 C   0  0  2  0  0  0  0  0  0  0  0  0
   24.3573  -19.6174  -15.7611 N   0  0  0  0  0  0  0  0  0  0  0  0
   23.2604  -20.2234  -17.7765 C   0  0  0  0  0  0  0  0  0  0  0  0
   22.2121  -20.8111  -18.1834 O   0  0  0  0  0  0  0  0  0  0  0  0
   24.3881  -20.4216  -18.5253 O   0  0  0  0  0  0  0  0  0  0  0  0
  2  1  1  1
  3  2  1  0
  3  4  1  0
  4  5  2  0
  6  2  1  0
  6  7  2  0
  8  4  1  0
  9  6  1  0
 10  9  1  0
 10 11  1  6
 11 12  1  0
 13 12  1  0
 13 14  1  0
 14 15  1  0
 16 10  1  0
 17 16  2  0
 18 19  1  0
 19 20  2  0
 21 19  1  0
 22 21  1  6
 22 23  1  0
 22 24  1  0
 23 16  1  0
 24 26  1  0
 25 24  2  0
M  END
$$$$
