DKN.pdb
     RDKit          3D

 26 25  0  0  1  0  0  0  0  0999 V2000
   25.8845  -19.6944  -19.0352 N   0  0  0  0  0  0  0  0  0  0  0  0
   26.0011  -18.9547  -17.8113 C   0  0  1  0  0  0  0  0  0  0  0  0
   24.7292  -18.2031  -17.4671 C   0  0  0  0  0  0  0  0  0  0  0  0
   24.6168  -16.9978  -18.3401 C   0  0  0  0  0  0  0  0  0  0  0  0
   25.2337  -16.9376  -19.4142 O   0  0  0  0  0  0  0  0  0  0  0  0
   26.3285  -19.8856  -16.7144 C   0  0  0  0  0  0  0  0  0  0  0  0
   25.5317  -20.8631  -16.5496 O   0  0  0  0  0  0  0  0  0  0  0  0
   23.8290  -15.9225  -17.9804 O   0  0  0  0  0  0  0  0  0  0  0  0
   27.4674  -19.6801  -15.9083 N   0  0  0  0  0  0  0  0  0  0  0  0
   27.7910  -20.6459  -14.8598 C   0  0  1  0  0  0  0  0  0  0  0  0
   29.2519  -20.9158  -14.9404 C   0  0  0  0  0  0  0  0  0  0  0  0
   29.7012  -21.7006  -16.1454 C   0  0  0  0  0  0  0  0  0  0  0  0
   30.3801  -22.9524  -15.6270 C   0  0  0  0  0  0  0  0  0  0  0  0
   30.8778  -23.8546  -16.7071 C   0  0  0  0  0  0  0  0  0  0  0  0
   31.6844  -24.9477  -16.2495 N   0  0  0  0  0  0  0  0  0  0  0  0
   27.3158  -20.1224  -13.5540 C   0  0  0  0  0  0  0  0  0  0  0  0
   27.3967  -18.8826  -13.3628 O   0  0  0  0  0  0  0  0  0  0  0  0
   23.4101  -19.8446  -10.1785 N   0  0  0  0  0  0  0  0  0  0  0  0
   23.3439  -19.7248  -11.6018 C   0  0  0  0  0  0  0  0  0  0  0  0
   22.2477  -19.3177  -12.0519 O   0  0  0  0  0  0  0  0  0  0  0  0
   24.5210  -20.0743  -12.4045 C   0  0  0  0  0  0  0  0  0  0  0  0
   25.7183  -20.5400  -11.6345 C   0  0  2  0  0  0  0  0  0  0  0  0
   26.7861  -20.9614  -12.5410 N   0  0  0  0  0  0  0  0  0  0  0  0
   25.4459  -21.6654  -10.7132 C   0  0  0  0  0  0  0  0  0  0  0  0
   24.6360  -21.4559   -9.7593 O   0  0  0  0  0  0  0  0  0  0  0  0
   25.9799  -22.9230  -10.7815 O   0  0  0  0  0  0  0  0  0  0  0  0
  2  1  1  6
  3  2  1  0
  3  4  1  0
  4  5  2  0
  6  2  1  0
  6  7  2  0
  8  4  1  0
  9  6  1  0
 10  9  1  0
 10 11  1  1
 11 12  1  0
 13 12  1  0
 13 14  1  0
 14 15  1  0
 16 10  1  0
 17 16  2  0
 18 19  1  0
 19 20  2  0
 21 19  1  0
 22 21  1  6
 22 23  1  0
 22 24  1  0
 23 16  1  0
 24 26  1  0
 25 24  2  0
M  END
$$$$
