DKN.pdb
     RDKit          3D

 26 25  0  0  1  0  0  0  0  0999 V2000
   17.3862  -11.7231  -14.9466 N   0  0  0  0  0  0  0  0  0  0  0  0
   17.9355  -10.8642  -15.9562 C   0  0  1  0  0  0  0  0  0  0  0  0
   16.9355   -9.8334  -16.4444 C   0  0  0  0  0  0  0  0  0  0  0  0
   15.7749  -10.5308  -17.0720 C   0  0  0  0  0  0  0  0  0  0  0  0
   14.6176  -10.1311  -16.8754 O   0  0  0  0  0  0  0  0  0  0  0  0
   19.1194  -10.1734  -15.4098 C   0  0  0  0  0  0  0  0  0  0  0  0
   18.9672   -9.6023  -14.2836 O   0  0  0  0  0  0  0  0  0  0  0  0
   15.9540  -11.6333  -17.8838 O   0  0  0  0  0  0  0  0  0  0  0  0
   20.3395  -10.1621  -16.1170 N   0  0  0  0  0  0  0  0  0  0  0  0
   21.5216   -9.5598  -15.5033 C   0  0  1  0  0  0  0  0  0  0  0  0
   22.7140  -10.2495  -16.0656 C   0  0  0  0  0  0  0  0  0  0  0  0
   23.0541  -11.5749  -15.4353 C   0  0  0  0  0  0  0  0  0  0  0  0
   24.2697  -12.1101  -16.1650 C   0  0  0  0  0  0  0  0  0  0  0  0
   24.6752  -13.4789  -15.7292 C   0  0  0  0  0  0  0  0  0  0  0  0
   25.8262  -14.0051  -16.4026 N   0  0  0  0  0  0  0  0  0  0  0  0
   21.4830   -8.0904  -15.7144 C   0  0  0  0  0  0  0  0  0  0  0  0
   21.1315   -7.6771  -16.8484 O   0  0  0  0  0  0  0  0  0  0  0  0
   21.1913   -2.9623  -15.1594 N   0  0  0  0  0  0  0  0  0  0  0  0
   20.1104   -3.8705  -15.3861 C   0  0  0  0  0  0  0  0  0  0  0  0
   19.0052   -3.3331  -15.6308 O   0  0  0  0  0  0  0  0  0  0  0  0
   20.3629   -5.3140  -15.3186 C   0  0  0  0  0  0  0  0  0  0  0  0
   21.7377   -5.7138  -14.8792 C   0  0  2  0  0  0  0  0  0  0  0  0
   21.8233   -7.1627  -14.6975 N   0  0  0  0  0  0  0  0  0  0  0  0
   22.1786   -5.0797  -13.6170 C   0  0  0  0  0  0  0  0  0  0  0  0
   22.2323   -3.8124  -13.5881 O   0  0  0  0  0  0  0  0  0  0  0  0
   22.5382   -5.7217  -12.4637 O   0  0  0  0  0  0  0  0  0  0  0  0
  2  1  1  1
  3  2  1  0
  3  4  1  0
  4  5  2  0
  6  2  1  0
  6  7  2  0
  8  4  1  0
  9  6  1  0
 10  9  1  0
 10 11  1  6
 11 12  1  0
 13 12  1  0
 13 14  1  0
 14 15  1  0
 16 10  1  0
 17 16  2  0
 18 19  1  0
 19 20  2  0
 21 19  1  0
 22 21  1  1
 22 23  1  0
 22 24  1  0
 23 16  1  0
 24 26  1  0
 25 24  2  0
M  END
$$$$
