DKN.pdb
     RDKit          3D

 26 25  0  0  1  0  0  0  0  0999 V2000
   19.2184  -15.2477  -16.4545 N   0  0  0  0  0  0  0  0  0  0  0  0
   18.5832  -13.9846  -16.6990 C   0  0  1  0  0  0  0  0  0  0  0  0
   17.3873  -13.7547  -15.7945 C   0  0  0  0  0  0  0  0  0  0  0  0
   16.3758  -14.8259  -16.0324 C   0  0  0  0  0  0  0  0  0  0  0  0
   16.2018  -15.2873  -17.1702 O   0  0  0  0  0  0  0  0  0  0  0  0
   19.5652  -12.9028  -16.4922 C   0  0  0  0  0  0  0  0  0  0  0  0
   19.7830  -12.5641  -15.2857 O   0  0  0  0  0  0  0  0  0  0  0  0
   15.6096  -15.3308  -15.0007 O   0  0  0  0  0  0  0  0  0  0  0  0
   20.2119  -12.2951  -17.5883 N   0  0  0  0  0  0  0  0  0  0  0  0
   21.2684  -11.3140  -17.3471 C   0  0  1  0  0  0  0  0  0  0  0  0
   22.2558  -11.4440  -18.4525 C   0  0  0  0  0  0  0  0  0  0  0  0
   22.9601  -12.7729  -18.5404 C   0  0  0  0  0  0  0  0  0  0  0  0
   23.9333  -12.6793  -19.6982 C   0  0  0  0  0  0  0  0  0  0  0  0
   24.6441  -13.9594  -19.9881 C   0  0  0  0  0  0  0  0  0  0  0  0
   25.5214  -13.9138  -21.1208 N   0  0  0  0  0  0  0  0  0  0  0  0
   20.6574   -9.9686  -17.2001 C   0  0  0  0  0  0  0  0  0  0  0  0
   19.7280   -9.6649  -17.9903 O   0  0  0  0  0  0  0  0  0  0  0  0
   19.0018   -5.4253  -15.3259 N   0  0  0  0  0  0  0  0  0  0  0  0
   18.2601   -6.6319  -15.5218 C   0  0  0  0  0  0  0  0  0  0  0  0
   17.0207   -6.5259  -15.3713 O   0  0  0  0  0  0  0  0  0  0  0  0
   18.9766   -7.8631  -15.8722 C   0  0  0  0  0  0  0  0  0  0  0  0
   20.4590   -7.7281  -16.0374 C   0  0  2  0  0  0  0  0  0  0  0  0
   21.0823   -9.0392  -16.2171 N   0  0  0  0  0  0  0  0  0  0  0  0
   21.1371   -7.0643  -14.9021 C   0  0  0  0  0  0  0  0  0  0  0  0
   21.6847   -7.8089  -14.0329 O   0  0  0  0  0  0  0  0  0  0  0  0
   21.2386   -5.7170  -14.6872 O   0  0  0  0  0  0  0  0  0  0  0  0
  2  1  1  1
  3  2  1  0
  3  4  1  0
  4  5  2  0
  6  2  1  0
  6  7  2  0
  8  4  1  0
  9  6  1  0
 10  9  1  0
 10 11  1  6
 11 12  1  0
 13 12  1  0
 13 14  1  0
 14 15  1  0
 16 10  1  0
 17 16  2  0
 18 19  1  0
 19 20  2  0
 21 19  1  0
 22 21  1  1
 22 23  1  0
 22 24  1  0
 23 16  1  0
 24 26  1  0
 25 24  2  0
M  END
$$$$
