DKN.pdb
     RDKit          3D

 26 25  0  0  1  0  0  0  0  0999 V2000
   26.1428  -11.2749  -18.6192 N   0  0  0  0  0  0  0  0  0  0  0  0
   25.5463  -11.2450  -17.3146 C   0  0  1  0  0  0  0  0  0  0  0  0
   26.4970  -10.7177  -16.2566 C   0  0  0  0  0  0  0  0  0  0  0  0
   27.6515  -11.6536  -16.1204 C   0  0  0  0  0  0  0  0  0  0  0  0
   28.5468  -11.4339  -15.2909 O   0  0  0  0  0  0  0  0  0  0  0  0
   24.3417  -10.3938  -17.3544 C   0  0  0  0  0  0  0  0  0  0  0  0
   24.3965   -9.3770  -18.1164 O   0  0  0  0  0  0  0  0  0  0  0  0
   27.7561  -12.7830  -16.9078 O   0  0  0  0  0  0  0  0  0  0  0  0
   23.2063  -10.7124  -16.5808 N   0  0  0  0  0  0  0  0  0  0  0  0
   21.9806   -9.9333  -16.7468 C   0  0  1  0  0  0  0  0  0  0  0  0
   20.8351  -10.8718  -16.6027 C   0  0  0  0  0  0  0  0  0  0  0  0
   19.4681  -10.2414  -16.6651 C   0  0  0  0  0  0  0  0  0  0  0  0
   18.4603  -11.3729  -16.6392 C   0  0  0  0  0  0  0  0  0  0  0  0
   17.0463  -10.9189  -16.7894 C   0  0  0  0  0  0  0  0  0  0  0  0
   16.0788  -11.9760  -16.8257 N   0  0  0  0  0  0  0  0  0  0  0  0
   21.9928   -8.7988  -15.7887 C   0  0  0  0  0  0  0  0  0  0  0  0
   22.5368   -8.9898  -14.6716 O   0  0  0  0  0  0  0  0  0  0  0  0
   21.6467   -4.0197  -13.6852 N   0  0  0  0  0  0  0  0  0  0  0  0
   22.7606   -4.3831  -14.5047 C   0  0  0  0  0  0  0  0  0  0  0  0
   23.7288   -3.5885  -14.4708 O   0  0  0  0  0  0  0  0  0  0  0  0
   22.6931   -5.6153  -15.2980 C   0  0  0  0  0  0  0  0  0  0  0  0
   21.4329   -6.4121  -15.1557 C   0  0  2  0  0  0  0  0  0  0  0  0
   21.4219   -7.5366  -16.0911 N   0  0  0  0  0  0  0  0  0  0  0  0
   20.1951   -5.6332  -15.3808 C   0  0  0  0  0  0  0  0  0  0  0  0
   19.6897   -5.6636  -16.5442 O   0  0  0  0  0  0  0  0  0  0  0  0
   19.5288   -4.8753  -14.4571 O   0  0  0  0  0  0  0  0  0  0  0  0
  2  1  1  6
  3  2  1  0
  3  4  1  0
  4  5  2  0
  6  2  1  0
  6  7  2  0
  8  4  1  0
  9  6  1  0
 10  9  1  0
 10 11  1  1
 11 12  1  0
 13 12  1  0
 13 14  1  0
 14 15  1  0
 16 10  1  0
 17 16  2  0
 18 19  1  0
 19 20  2  0
 21 19  1  0
 22 21  1  6
 22 23  1  0
 22 24  1  0
 23 16  1  0
 24 26  1  0
 25 24  2  0
M  END
$$$$
