DKN.pdb
     RDKit          3D

 26 25  0  0  1  0  0  0  0  0999 V2000
   20.7627   -9.6314  -21.7442 N   0  0  0  0  0  0  0  0  0  0  0  0
   21.8221   -9.1815  -20.8876 C   0  0  1  0  0  0  0  0  0  0  0  0
   22.5079   -7.9380  -21.4211 C   0  0  0  0  0  0  0  0  0  0  0  0
   23.7033   -8.3382  -22.2199 C   0  0  0  0  0  0  0  0  0  0  0  0
   23.7051   -9.3976  -22.8645 O   0  0  0  0  0  0  0  0  0  0  0  0
   21.2718   -8.8974  -19.5483 C   0  0  0  0  0  0  0  0  0  0  0  0
   20.5395   -7.8622  -19.4493 O   0  0  0  0  0  0  0  0  0  0  0  0
   24.8339   -7.5469  -22.2644 O   0  0  0  0  0  0  0  0  0  0  0  0
   21.5572   -9.7425  -18.4559 N   0  0  0  0  0  0  0  0  0  0  0  0
   20.9087   -9.4988  -17.1687 C   0  0  1  0  0  0  0  0  0  0  0  0
   20.7910  -10.8101  -16.4756 C   0  0  0  0  0  0  0  0  0  0  0  0
   19.4965  -11.5478  -16.6988 C   0  0  0  0  0  0  0  0  0  0  0  0
   19.8600  -12.9695  -17.0775 C   0  0  0  0  0  0  0  0  0  0  0  0
   18.6881  -13.7985  -17.4867 C   0  0  0  0  0  0  0  0  0  0  0  0
   18.5731  -15.0521  -16.8011 N   0  0  0  0  0  0  0  0  0  0  0  0
   21.6702   -8.4595  -16.4304 C   0  0  0  0  0  0  0  0  0  0  0  0
   22.9202   -8.4528  -16.5639 O   0  0  0  0  0  0  0  0  0  0  0  0
   22.8584   -4.1705  -13.6381 N   0  0  0  0  0  0  0  0  0  0  0  0
   22.1357   -3.9629  -14.8543 C   0  0  0  0  0  0  0  0  0  0  0  0
   22.0433   -2.7686  -15.2220 O   0  0  0  0  0  0  0  0  0  0  0  0
   21.5745   -5.1204  -15.5594 C   0  0  0  0  0  0  0  0  0  0  0  0
   21.7801   -6.4478  -14.8968 C   0  0  2  0  0  0  0  0  0  0  0  0
   21.0423   -7.4977  -15.5989 N   0  0  0  0  0  0  0  0  0  0  0  0
   21.3668   -6.4864  -13.4766 C   0  0  0  0  0  0  0  0  0  0  0  0
   20.1856   -6.8737  -13.2227 O   0  0  0  0  0  0  0  0  0  0  0  0
   22.1318   -6.1457  -12.3948 O   0  0  0  0  0  0  0  0  0  0  0  0
  2  1  1  6
  3  2  1  0
  3  4  1  0
  4  5  2  0
  6  2  1  0
  6  7  2  0
  8  4  1  0
  9  6  1  0
 10  9  1  0
 10 11  1  1
 11 12  1  0
 13 12  1  0
 13 14  1  0
 14 15  1  0
 16 10  1  0
 17 16  2  0
 18 19  1  0
 19 20  2  0
 21 19  1  0
 22 21  1  6
 22 23  1  0
 22 24  1  0
 23 16  1  0
 24 26  1  0
 25 24  2  0
M  END
$$$$
