DKN.pdb
     RDKit          3D

 26 25  0  0  1  0  0  0  0  0999 V2000
   14.3603  -10.5180  -11.6646 N   0  0  0  0  0  0  0  0  0  0  0  0
   15.6712  -10.1636  -11.2014 C   0  0  1  0  0  0  0  0  0  0  0  0
   16.7551  -10.5343  -12.1958 C   0  0  0  0  0  0  0  0  0  0  0  0
   16.7859  -12.0172  -12.3619 C   0  0  0  0  0  0  0  0  0  0  0  0
   16.0509  -12.7438  -11.6766 O   0  0  0  0  0  0  0  0  0  0  0  0
   15.7175   -8.7104  -10.9499 C   0  0  0  0  0  0  0  0  0  0  0  0
   15.3906   -7.9605  -11.9239 O   0  0  0  0  0  0  0  0  0  0  0  0
   17.6272  -12.6192  -13.2764 O   0  0  0  0  0  0  0  0  0  0  0  0
   16.1060   -8.2072   -9.6910 N   0  0  0  0  0  0  0  0  0  0  0  0
   16.0920   -6.7642   -9.4572 C   0  0  1  0  0  0  0  0  0  0  0  0
   15.6422   -6.5459   -8.0559 C   0  0  0  0  0  0  0  0  0  0  0  0
   14.3581   -5.7736   -7.8996 C   0  0  0  0  0  0  0  0  0  0  0  0
   13.2410   -6.7928   -7.8009 C   0  0  0  0  0  0  0  0  0  0  0  0
   11.8792   -6.1846   -7.7395 C   0  0  0  0  0  0  0  0  0  0  0  0
   10.8017   -7.1299   -7.7232 N   0  0  0  0  0  0  0  0  0  0  0  0
   17.4280   -6.2060   -9.7866 C   0  0  0  0  0  0  0  0  0  0  0  0
   18.4160   -6.6547   -9.1520 O   0  0  0  0  0  0  0  0  0  0  0  0
   22.1118   -5.3778  -11.5730 N   0  0  0  0  0  0  0  0  0  0  0  0
   20.9934   -5.8346  -12.3379 C   0  0  0  0  0  0  0  0  0  0  0  0
   21.2149   -5.9978  -13.5603 O   0  0  0  0  0  0  0  0  0  0  0  0
   19.7131   -6.0710  -11.6619 C   0  0  0  0  0  0  0  0  0  0  0  0
   18.9314   -4.8449  -11.3026 C   0  0  2  0  0  0  0  0  0  0  0  0
   17.6163   -5.2050  -10.7732 N   0  0  0  0  0  0  0  0  0  0  0  0
   18.7174   -3.9109  -12.4302 C   0  0  0  0  0  0  0  0  0  0  0  0
   17.7567   -4.1604  -13.2205 O   0  0  0  0  0  0  0  0  0  0  0  0
   19.4531   -2.7932  -12.7146 O   0  0  0  0  0  0  0  0  0  0  0  0
  2  1  1  6
  3  2  1  0
  3  4  1  0
  4  5  2  0
  6  2  1  0
  6  7  2  0
  8  4  1  0
  9  6  1  0
 10  9  1  0
 10 11  1  1
 11 12  1  0
 13 12  1  0
 13 14  1  0
 14 15  1  0
 16 10  1  0
 17 16  2  0
 18 19  1  0
 19 20  2  0
 21 19  1  0
 22 21  1  6
 22 23  1  0
 22 24  1  0
 23 16  1  0
 24 26  1  0
 25 24  2  0
M  END
$$$$
