DKN.pdb
     RDKit          3D

 26 25  0  0  1  0  0  0  0  0999 V2000
   26.7336  -19.8408  -18.2603 N   0  0  0  0  0  0  0  0  0  0  0  0
   26.3344  -18.9718  -17.1906 C   0  0  1  0  0  0  0  0  0  0  0  0
   25.5497  -17.7710  -17.6839 C   0  0  0  0  0  0  0  0  0  0  0  0
   26.4982  -16.7370  -18.1923 C   0  0  0  0  0  0  0  0  0  0  0  0
   27.3013  -17.0086  -19.0974 O   0  0  0  0  0  0  0  0  0  0  0  0
   25.5088  -19.7331  -16.2334 C   0  0  0  0  0  0  0  0  0  0  0  0
   24.6983  -20.5751  -16.7352 O   0  0  0  0  0  0  0  0  0  0  0  0
   26.5096  -15.4573  -17.6739 O   0  0  0  0  0  0  0  0  0  0  0  0
   25.6311  -19.5197  -14.8447 N   0  0  0  0  0  0  0  0  0  0  0  0
   24.7616  -20.2508  -13.9247 C   0  0  1  0  0  0  0  0  0  0  0  0
   25.3387  -20.1086  -12.5608 C   0  0  0  0  0  0  0  0  0  0  0  0
   24.5222  -20.7075  -11.4452 C   0  0  0  0  0  0  0  0  0  0  0  0
   25.2640  -20.4219  -10.1549 C   0  0  0  0  0  0  0  0  0  0  0  0
   24.6391  -21.0497   -8.9535 C   0  0  0  0  0  0  0  0  0  0  0  0
   25.2249  -20.6637   -7.7034 N   0  0  0  0  0  0  0  0  0  0  0  0
   23.3694  -19.7572  -14.0768 C   0  0  0  0  0  0  0  0  0  0  0  0
   23.2011  -18.5142  -14.1588 O   0  0  0  0  0  0  0  0  0  0  0  0
   18.2042  -19.3889  -14.7062 N   0  0  0  0  0  0  0  0  0  0  0  0
   19.0103  -19.7159  -15.8411 C   0  0  0  0  0  0  0  0  0  0  0  0
   18.4232  -19.6572  -16.9464 O   0  0  0  0  0  0  0  0  0  0  0  0
   20.4159  -20.0835  -15.6380 C   0  0  0  0  0  0  0  0  0  0  0  0
   20.8716  -20.1488  -14.2128 C   0  0  2  0  0  0  0  0  0  0  0  0
   22.2513  -20.6276  -14.1308 N   0  0  0  0  0  0  0  0  0  0  0  0
   20.0446  -21.0232  -13.3519 C   0  0  0  0  0  0  0  0  0  0  0  0
   19.1345  -20.4708  -12.6618 O   0  0  0  0  0  0  0  0  0  0  0  0
   20.1575  -22.3801  -13.2195 O   0  0  0  0  0  0  0  0  0  0  0  0
  2  1  1  6
  3  2  1  0
  3  4  1  0
  4  5  2  0
  6  2  1  0
  6  7  2  0
  8  4  1  0
  9  6  1  0
 10  9  1  0
 10 11  1  1
 11 12  1  0
 13 12  1  0
 13 14  1  0
 14 15  1  0
 16 10  1  0
 17 16  2  0
 18 19  1  0
 19 20  2  0
 21 19  1  0
 22 21  1  6
 22 23  1  0
 22 24  1  0
 23 16  1  0
 24 26  1  0
 25 24  2  0
M  END
$$$$
