DKN.pdb
     RDKit          3D

 26 25  0  0  1  0  0  0  0  0999 V2000
   22.1474  -20.4497  -10.5301 N   0  0  0  0  0  0  0  0  0  0  0  0
   21.8651  -21.0136  -11.8189 C   0  0  1  0  0  0  0  0  0  0  0  0
   20.4063  -20.8654  -12.2073 C   0  0  0  0  0  0  0  0  0  0  0  0
   19.5584  -21.6177  -11.2364 C   0  0  0  0  0  0  0  0  0  0  0  0
   18.5317  -21.1050  -10.7666 O   0  0  0  0  0  0  0  0  0  0  0  0
   22.7084  -20.3492  -12.8312 C   0  0  0  0  0  0  0  0  0  0  0  0
   22.6007  -19.0844  -12.9106 O   0  0  0  0  0  0  0  0  0  0  0  0
   19.8897  -22.8968  -10.8358 O   0  0  0  0  0  0  0  0  0  0  0  0
   23.5769  -21.0982  -13.6521 N   0  0  0  0  0  0  0  0  0  0  0  0
   24.4295  -20.4069  -14.6175 C   0  0  1  0  0  0  0  0  0  0  0  0
   25.5465  -21.3271  -14.9622 C   0  0  0  0  0  0  0  0  0  0  0  0
   26.5131  -20.8146  -15.9980 C   0  0  0  0  0  0  0  0  0  0  0  0
   27.5863  -21.8723  -16.1597 C   0  0  0  0  0  0  0  0  0  0  0  0
   28.6186  -21.5267  -17.1811 C   0  0  0  0  0  0  0  0  0  0  0  0
   29.6745  -22.4871  -17.3137 N   0  0  0  0  0  0  0  0  0  0  0  0
   23.6002  -19.9611  -15.7658 C   0  0  0  0  0  0  0  0  0  0  0  0
   22.5869  -20.6485  -16.0501 O   0  0  0  0  0  0  0  0  0  0  0  0
   20.2820  -18.8544  -17.9528 N   0  0  0  0  0  0  0  0  0  0  0  0
   20.4607  -18.0343  -16.7953 C   0  0  0  0  0  0  0  0  0  0  0  0
   19.4117  -17.7676  -16.1641 O   0  0  0  0  0  0  0  0  0  0  0  0
   21.8101  -17.5800  -16.4419 C   0  0  0  0  0  0  0  0  0  0  0  0
   22.9157  -18.0821  -17.3188 C   0  0  2  0  0  0  0  0  0  0  0  0
   23.9116  -18.8095  -16.5323 N   0  0  0  0  0  0  0  0  0  0  0  0
   23.6263  -17.0204  -18.0654 C   0  0  0  0  0  0  0  0  0  0  0  0
   23.8988  -17.2462  -19.2839 O   0  0  0  0  0  0  0  0  0  0  0  0
   24.0250  -15.8065  -17.5766 O   0  0  0  0  0  0  0  0  0  0  0  0
  2  1  1  1
  3  2  1  0
  3  4  1  0
  4  5  2  0
  6  2  1  0
  6  7  2  0
  8  4  1  0
  9  6  1  0
 10  9  1  0
 10 11  1  6
 11 12  1  0
 13 12  1  0
 13 14  1  0
 14 15  1  0
 16 10  1  0
 17 16  2  0
 18 19  1  0
 19 20  2  0
 21 19  1  0
 22 21  1  1
 22 23  1  0
 22 24  1  0
 23 16  1  0
 24 26  1  0
 25 24  2  0
M  END
$$$$
