DKN.pdb
     RDKit          3D

 26 25  0  0  1  0  0  0  0  0999 V2000
   34.9337  -35.8813   -0.5316 N   0  0  0  0  0  0  0  0  0  0  0  0
   33.7721  -36.6091   -0.9555 C   0  0  1  0  0  0  0  0  0  0  0  0
   32.7362  -36.7358    0.1453 C   0  0  0  0  0  0  0  0  0  0  0  0
   33.1811  -37.7705    1.1245 C   0  0  0  0  0  0  0  0  0  0  0  0
   34.0252  -38.6204    0.8039 O   0  0  0  0  0  0  0  0  0  0  0  0
   33.1695  -35.9230   -2.1146 C   0  0  0  0  0  0  0  0  0  0  0  0
   33.3575  -34.6671   -2.1849 O   0  0  0  0  0  0  0  0  0  0  0  0
   32.6699  -37.8116    2.4065 O   0  0  0  0  0  0  0  0  0  0  0  0
   32.4310  -36.6432   -3.0764 N   0  0  0  0  0  0  0  0  0  0  0  0
   31.8827  -35.9419   -4.2359 C   0  0  1  0  0  0  0  0  0  0  0  0
   32.2697  -36.7154   -5.4465 C   0  0  0  0  0  0  0  0  0  0  0  0
   33.3916  -36.1264   -6.2615 C   0  0  0  0  0  0  0  0  0  0  0  0
   33.7077  -37.1223   -7.3592 C   0  0  0  0  0  0  0  0  0  0  0  0
   34.8279  -36.6968   -8.2493 C   0  0  0  0  0  0  0  0  0  0  0  0
   35.3265  -37.7237   -9.1164 N   0  0  0  0  0  0  0  0  0  0  0  0
   30.4220  -35.7557   -4.0448 C   0  0  0  0  0  0  0  0  0  0  0  0
   29.8234  -36.5833   -3.3120 O   0  0  0  0  0  0  0  0  0  0  0  0
   25.7837  -33.7075   -3.3366 N   0  0  0  0  0  0  0  0  0  0  0  0
   26.7091  -32.6617   -3.6443 C   0  0  0  0  0  0  0  0  0  0  0  0
   26.3291  -31.5072   -3.3398 O   0  0  0  0  0  0  0  0  0  0  0  0
   27.9907  -33.0023   -4.2717 C   0  0  0  0  0  0  0  0  0  0  0  0
   28.2752  -34.4657   -4.4165 C   0  0  2  0  0  0  0  0  0  0  0  0
   29.7005  -34.6961   -4.6510 N   0  0  0  0  0  0  0  0  0  0  0  0
   27.5312  -35.1217   -5.5145 C   0  0  0  0  0  0  0  0  0  0  0  0
   28.1777  -35.4087   -6.5678 O   0  0  0  0  0  0  0  0  0  0  0  0
   26.2047  -35.4566   -5.5149 O   0  0  0  0  0  0  0  0  0  0  0  0
  2  1  1  1
  3  2  1  0
  3  4  1  0
  4  5  2  0
  6  2  1  0
  6  7  2  0
  8  4  1  0
  9  6  1  0
 10  9  1  0
 10 11  1  6
 11 12  1  0
 13 12  1  0
 13 14  1  0
 14 15  1  0
 16 10  1  0
 17 16  2  0
 18 19  1  0
 19 20  2  0
 21 19  1  0
 22 21  1  6
 22 23  1  0
 22 24  1  0
 23 16  1  0
 24 26  1  0
 25 24  2  0
M  END
$$$$
