DKN.pdb
     RDKit          3D

 26 25  0  0  1  0  0  0  0  0999 V2000
   26.9491  -26.5333  -20.3879 N   0  0  0  0  0  0  0  0  0  0  0  0
   25.8723  -27.2753  -20.9784 C   0  0  1  0  0  0  0  0  0  0  0  0
   26.1120  -27.5717  -22.4466 C   0  0  0  0  0  0  0  0  0  0  0  0
   25.9878  -26.3084  -23.2315 C   0  0  0  0  0  0  0  0  0  0  0  0
   26.0066  -25.2074  -22.6613 O   0  0  0  0  0  0  0  0  0  0  0  0
   25.7034  -28.5453  -20.2465 C   0  0  0  0  0  0  0  0  0  0  0  0
   24.7085  -29.2616  -20.5853 O   0  0  0  0  0  0  0  0  0  0  0  0
   25.8494  -26.3281  -24.6052 O   0  0  0  0  0  0  0  0  0  0  0  0
   26.6087  -28.9205  -19.2323 N   0  0  0  0  0  0  0  0  0  0  0  0
   26.4588  -30.2190  -18.5778 C   0  0  1  0  0  0  0  0  0  0  0  0
   27.8023  -30.6253  -18.0844 C   0  0  0  0  0  0  0  0  0  0  0  0
   27.8381  -31.8909  -17.2678 C   0  0  0  0  0  0  0  0  0  0  0  0
   29.2934  -32.1665  -16.9472 C   0  0  0  0  0  0  0  0  0  0  0  0
   29.5117  -33.4437  -16.2060 C   0  0  0  0  0  0  0  0  0  0  0  0
   30.8876  -33.8023  -16.0239 N   0  0  0  0  0  0  0  0  0  0  0  0
   25.4060  -30.1187  -17.5354 C   0  0  0  0  0  0  0  0  0  0  0  0
   25.3256  -29.0398  -16.8952 O   0  0  0  0  0  0  0  0  0  0  0  0
   21.3000  -28.7221  -14.6134 N   0  0  0  0  0  0  0  0  0  0  0  0
   21.4453  -29.7951  -15.5472 C   0  0  0  0  0  0  0  0  0  0  0  0
   20.4927  -30.6086  -15.5766 O   0  0  0  0  0  0  0  0  0  0  0  0
   22.6551  -29.8649  -16.3741 C   0  0  0  0  0  0  0  0  0  0  0  0
   23.4865  -31.0995  -16.2071 C   0  0  2  0  0  0  0  0  0  0  0  0
   24.5104  -31.1799  -17.2486 N   0  0  0  0  0  0  0  0  0  0  0  0
   22.7130  -32.3604  -16.2444 C   0  0  0  0  0  0  0  0  0  0  0  0
   21.8908  -32.5689  -15.3009 O   0  0  0  0  0  0  0  0  0  0  0  0
   22.7901  -33.3368  -17.1995 O   0  0  0  0  0  0  0  0  0  0  0  0
  2  1  1  1
  3  2  1  0
  3  4  1  0
  4  5  2  0
  6  2  1  0
  6  7  2  0
  8  4  1  0
  9  6  1  0
 10  9  1  0
 10 11  1  1
 11 12  1  0
 13 12  1  0
 13 14  1  0
 14 15  1  0
 16 10  1  0
 17 16  2  0
 18 19  1  0
 19 20  2  0
 21 19  1  0
 22 21  1  6
 22 23  1  0
 22 24  1  0
 23 16  1  0
 24 26  1  0
 25 24  2  0
M  END
$$$$
