DKN.pdb
     RDKit          3D

 26 25  0  0  1  0  0  0  0  0999 V2000
   22.4143  -38.0855  -12.6676 N   0  0  0  0  0  0  0  0  0  0  0  0
   22.4749  -36.7187  -13.0998 C   0  0  1  0  0  0  0  0  0  0  0  0
   21.2083  -35.9518  -12.7704 C   0  0  0  0  0  0  0  0  0  0  0  0
   20.0544  -36.8977  -12.7341 C   0  0  0  0  0  0  0  0  0  0  0  0
   20.2218  -38.1054  -12.9602 O   0  0  0  0  0  0  0  0  0  0  0  0
   23.6256  -36.0590  -12.4532 C   0  0  0  0  0  0  0  0  0  0  0  0
   24.2322  -36.7333  -11.5615 O   0  0  0  0  0  0  0  0  0  0  0  0
   18.7763  -36.4593  -12.4501 O   0  0  0  0  0  0  0  0  0  0  0  0
   24.0103  -34.7532  -12.8217 N   0  0  0  0  0  0  0  0  0  0  0  0
   25.2360  -34.1806  -12.2677 C   0  0  1  0  0  0  0  0  0  0  0  0
   25.7490  -33.1914  -13.2536 C   0  0  0  0  0  0  0  0  0  0  0  0
   27.1705  -33.4033  -13.7055 C   0  0  0  0  0  0  0  0  0  0  0  0
   27.4759  -32.3193  -14.7195 C   0  0  0  0  0  0  0  0  0  0  0  0
   28.8156  -32.4610  -15.3625 C   0  0  0  0  0  0  0  0  0  0  0  0
   29.1047  -31.4792  -16.3661 N   0  0  0  0  0  0  0  0  0  0  0  0
   24.9498  -33.6362  -10.9162 C   0  0  0  0  0  0  0  0  0  0  0  0
   23.8511  -33.0488  -10.7489 O   0  0  0  0  0  0  0  0  0  0  0  0
   23.8507  -34.5519   -5.6650 N   0  0  0  0  0  0  0  0  0  0  0  0
   23.9252  -33.4781   -6.6061 C   0  0  0  0  0  0  0  0  0  0  0  0
   23.6986  -32.3395   -6.1346 O   0  0  0  0  0  0  0  0  0  0  0  0
   24.2499  -33.7748   -8.0057 C   0  0  0  0  0  0  0  0  0  0  0  0
   25.5698  -33.2590   -8.4904 C   0  0  2  0  0  0  0  0  0  0  0  0
   25.8592  -33.7573   -9.8349 N   0  0  0  0  0  0  0  0  0  0  0  0
   26.7154  -33.6190   -7.6257 C   0  0  0  0  0  0  0  0  0  0  0  0
   26.6654  -33.2582   -6.4104 O   0  0  0  0  0  0  0  0  0  0  0  0
   27.8359  -34.3083   -8.0012 O   0  0  0  0  0  0  0  0  0  0  0  0
  2  1  1  1
  3  2  1  0
  3  4  1  0
  4  5  2  0
  6  2  1  0
  6  7  2  0
  8  4  1  0
  9  6  1  0
 10  9  1  0
 10 11  1  6
 11 12  1  0
 13 12  1  0
 13 14  1  0
 14 15  1  0
 16 10  1  0
 17 16  2  0
 18 19  1  0
 19 20  2  0
 21 19  1  0
 22 21  1  1
 22 23  1  0
 22 24  1  0
 23 16  1  0
 24 26  1  0
 25 24  2  0
M  END
$$$$
