DKN.pdb
     RDKit          3D

 26 25  0  0  1  0  0  0  0  0999 V2000
   14.2825  -11.5973  -11.9732 N   0  0  0  0  0  0  0  0  0  0  0  0
   15.3571  -11.2958  -11.0715 C   0  0  1  0  0  0  0  0  0  0  0  0
   16.5942  -12.1290  -11.3480 C   0  0  0  0  0  0  0  0  0  0  0  0
   16.2592  -13.5753  -11.1950 C   0  0  0  0  0  0  0  0  0  0  0  0
   16.7108  -14.4145  -11.9885 O   0  0  0  0  0  0  0  0  0  0  0  0
   15.6977   -9.8649  -11.1883 C   0  0  0  0  0  0  0  0  0  0  0  0
   15.6132   -9.3599  -12.3526 O   0  0  0  0  0  0  0  0  0  0  0  0
   15.4427  -14.0182  -10.1734 O   0  0  0  0  0  0  0  0  0  0  0  0
   16.0921   -9.1216  -10.0565 N   0  0  0  0  0  0  0  0  0  0  0  0
   16.3071   -7.6810  -10.1807 C   0  0  1  0  0  0  0  0  0  0  0  0
   15.7214   -7.0390   -8.9731 C   0  0  0  0  0  0  0  0  0  0  0  0
   14.2194   -6.9218   -8.9646 C   0  0  0  0  0  0  0  0  0  0  0  0
   13.8354   -6.2840   -7.6446 C   0  0  0  0  0  0  0  0  0  0  0  0
   12.3613   -6.1526   -7.4495 C   0  0  0  0  0  0  0  0  0  0  0  0
   11.9724   -5.5789   -6.1947 N   0  0  0  0  0  0  0  0  0  0  0  0
   17.7536   -7.4226  -10.3955 C   0  0  0  0  0  0  0  0  0  0  0  0
   18.5693   -8.0918   -9.7120 O   0  0  0  0  0  0  0  0  0  0  0  0
   22.1626   -6.5241  -12.9736 N   0  0  0  0  0  0  0  0  0  0  0  0
   21.4129   -7.7394  -12.9010 C   0  0  0  0  0  0  0  0  0  0  0  0
   21.9737   -8.7422  -13.4010 O   0  0  0  0  0  0  0  0  0  0  0  0
   20.0889   -7.7266  -12.2693 C   0  0  0  0  0  0  0  0  0  0  0  0
   19.6255   -6.3974  -11.7577 C   0  0  2  0  0  0  0  0  0  0  0  0
   18.2292   -6.4655  -11.3274 N   0  0  0  0  0  0  0  0  0  0  0  0
   19.7353   -5.2977  -12.7417 C   0  0  0  0  0  0  0  0  0  0  0  0
   18.7714   -5.1408  -13.5517 O   0  0  0  0  0  0  0  0  0  0  0  0
   20.7774   -4.4212  -12.8725 O   0  0  0  0  0  0  0  0  0  0  0  0
  2  1  1  6
  3  2  1  0
  3  4  1  0
  4  5  2  0
  6  2  1  0
  6  7  2  0
  8  4  1  0
  9  6  1  0
 10  9  1  0
 10 11  1  1
 11 12  1  0
 13 12  1  0
 13 14  1  0
 14 15  1  0
 16 10  1  0
 17 16  2  0
 18 19  1  0
 19 20  2  0
 21 19  1  0
 22 21  1  6
 22 23  1  0
 22 24  1  0
 23 16  1  0
 24 26  1  0
 25 24  2  0
M  END
$$$$
