EQG.pdb
     RDKit          3D

 23 22  0  0  1  0  0  0  0  0999 V2000
   21.4506  -10.6350  -19.5367 N   0  0  0  0  0  0  0  0  0  0  0  0
   22.1458   -9.8528  -18.5676 C   0  0  1  0  0  0  0  0  0  0  0  0
   23.2679   -9.0701  -19.2019 C   0  0  0  0  0  0  0  0  0  0  0  0
   24.3295   -9.9847  -19.7778 C   0  0  0  0  0  0  0  0  0  0  0  0
   25.3771   -9.1766  -20.4478 C   0  0  0  0  0  0  0  0  0  0  0  0
   26.3264   -8.7396  -19.7741 O   0  0  0  0  0  0  0  0  0  0  0  0
   21.2347   -8.9755  -17.7778 C   0  0  0  0  0  0  0  0  0  0  0  0
   20.3492   -8.3116  -18.3651 O   0  0  0  0  0  0  0  0  0  0  0  0
   25.3123   -8.9031  -21.8100 O   0  0  0  0  0  0  0  0  0  0  0  0
   16.4976  -11.0217  -15.3733 N   0  0  0  0  0  0  0  0  0  0  0  0
   17.6080  -10.4100  -14.7282 C   0  0  0  0  0  0  0  0  0  0  0  0
   17.8018  -10.5947  -13.5009 O   0  0  0  0  0  0  0  0  0  0  0  0
   18.4939   -9.5661  -15.5738 C   0  0  0  0  0  0  0  0  0  0  0  0
   19.5905   -8.9179  -14.8175 C   0  0  0  0  0  0  0  0  0  0  0  0
   20.4814   -7.9818  -15.5804 C   0  0  2  0  0  0  0  0  0  0  0  0
   21.3486   -8.8766  -16.3782 N   0  0  0  0  0  0  0  0  0  0  0  0
   21.3901   -7.1747  -14.7520 C   0  0  0  0  0  0  0  0  0  0  0  0
   22.3890   -7.7127  -14.2298 O   0  0  0  0  0  0  0  0  0  0  0  0
   21.1464   -5.8008  -14.5437 N   0  0  0  0  0  0  0  0  0  0  0  0
   22.1288   -5.0599  -13.7509 C   0  0  0  0  0  0  0  0  0  0  0  0
   21.7977   -3.6262  -13.7078 C   0  0  0  0  0  0  0  0  0  0  0  0
   20.8405   -3.1862  -14.3775 O   0  0  0  0  0  0  0  0  0  0  0  0
   22.5104   -2.7291  -12.9466 O   0  0  0  0  0  0  0  0  0  0  0  0
  2  1  1  6
  2  3  1  0
  3  4  1  0
  4  5  1  0
  5  6  2  0
  5  9  1  0
  7  8  2  0
  7  2  1  0
 10 11  1  0
 11 12  2  0
 11 13  1  0
 13 14  1  0
 15 14  1  1
 15 16  1  0
 16  7  1  0
 17 19  1  0
 17 15  1  0
 18 17  2  0
 20 19  1  0
 21 20  1  0
 22 21  2  0
 23 21  1  0
M  END
$$$$
