EQG.pdb
     RDKit          3D

 23 22  0  0  1  0  0  0  0  0999 V2000
   18.9116  -12.2648  -16.3233 N   0  0  0  0  0  0  0  0  0  0  0  0
   18.5810  -10.8777  -16.3539 C   0  0  1  0  0  0  0  0  0  0  0  0
   17.5194  -10.5477  -15.3349 C   0  0  0  0  0  0  0  0  0  0  0  0
   16.2498  -11.3381  -15.5764 C   0  0  0  0  0  0  0  0  0  0  0  0
   15.2186  -10.9445  -14.5859 C   0  0  0  0  0  0  0  0  0  0  0  0
   14.0262  -10.9096  -14.9363 O   0  0  0  0  0  0  0  0  0  0  0  0
   19.7777   -9.9994  -16.2129 C   0  0  0  0  0  0  0  0  0  0  0  0
   20.8574  -10.4832  -15.8009 O   0  0  0  0  0  0  0  0  0  0  0  0
   15.5652  -10.6164  -13.2795 O   0  0  0  0  0  0  0  0  0  0  0  0
   23.8114   -8.8714  -17.9196 N   0  0  0  0  0  0  0  0  0  0  0  0
   23.8327   -7.4628  -18.1166 C   0  0  0  0  0  0  0  0  0  0  0  0
   24.9296   -6.8588  -18.2169 O   0  0  0  0  0  0  0  0  0  0  0  0
   22.5158   -6.7761  -18.1932 C   0  0  0  0  0  0  0  0  0  0  0  0
   21.3671   -7.6674  -17.9092 C   0  0  0  0  0  0  0  0  0  0  0  0
   20.9151   -7.7594  -16.4810 C   0  0  2  0  0  0  0  0  0  0  0  0
   19.7201   -8.6302  -16.5347 N   0  0  0  0  0  0  0  0  0  0  0  0
   20.4624   -6.4913  -15.8893 C   0  0  0  0  0  0  0  0  0  0  0  0
   19.4295   -5.9415  -16.3262 O   0  0  0  0  0  0  0  0  0  0  0  0
   21.1806   -5.8918  -14.8333 N   0  0  0  0  0  0  0  0  0  0  0  0
   20.7484   -4.5619  -14.4006 C   0  0  0  0  0  0  0  0  0  0  0  0
   21.6045   -4.0572  -13.3146 C   0  0  0  0  0  0  0  0  0  0  0  0
   22.4789   -4.7948  -12.8148 O   0  0  0  0  0  0  0  0  0  0  0  0
   21.4827   -2.7817  -12.8141 O   0  0  0  0  0  0  0  0  0  0  0  0
  2  1  1  1
  2  3  1  0
  3  4  1  0
  4  5  1  0
  5  6  2  0
  5  9  1  0
  7  8  2  0
  7  2  1  0
 10 11  1  0
 11 12  2  0
 11 13  1  0
 13 14  1  0
 15 14  1  6
 15 16  1  0
 16  7  1  0
 17 19  1  0
 17 15  1  0
 18 17  2  0
 20 19  1  0
 21 20  1  0
 22 21  2  0
 23 21  1  0
M  END
$$$$
