EQG.pdb
     RDKit          3D

 23 22  0  0  1  0  0  0  0  0999 V2000
   17.2696  -12.4716  -15.2142 N   0  0  0  0  0  0  0  0  0  0  0  0
   17.3936  -11.1361  -15.6990 C   0  0  1  0  0  0  0  0  0  0  0  0
   16.2359  -10.2821  -15.2466 C   0  0  0  0  0  0  0  0  0  0  0  0
   14.9146  -10.8170  -15.7596 C   0  0  0  0  0  0  0  0  0  0  0  0
   13.8069   -9.9495  -15.2907 C   0  0  0  0  0  0  0  0  0  0  0  0
   13.0251  -10.3821  -14.4260 O   0  0  0  0  0  0  0  0  0  0  0  0
   18.7064  -10.5196  -15.3528 C   0  0  0  0  0  0  0  0  0  0  0  0
   19.1677  -10.6508  -14.1955 O   0  0  0  0  0  0  0  0  0  0  0  0
   13.6323   -8.6678  -15.8016 O   0  0  0  0  0  0  0  0  0  0  0  0
   23.2185  -10.4679  -19.2782 N   0  0  0  0  0  0  0  0  0  0  0  0
   22.9276  -11.5089  -18.3535 C   0  0  0  0  0  0  0  0  0  0  0  0
   23.3748  -12.6664  -18.5492 O   0  0  0  0  0  0  0  0  0  0  0  0
   22.0878  -11.1487  -17.1802 C   0  0  0  0  0  0  0  0  0  0  0  0
   21.6169   -9.7442  -17.1993 C   0  0  0  0  0  0  0  0  0  0  0  0
   20.8052   -9.2835  -16.0240 C   0  0  2  0  0  0  0  0  0  0  0  0
   19.4431   -9.7889  -16.3041 N   0  0  0  0  0  0  0  0  0  0  0  0
   20.6738   -7.8245  -15.8928 C   0  0  0  0  0  0  0  0  0  0  0  0
   20.0298   -7.1843  -16.7504 O   0  0  0  0  0  0  0  0  0  0  0  0
   21.2649   -7.1423  -14.8086 N   0  0  0  0  0  0  0  0  0  0  0  0
   21.1507   -5.6830  -14.7941 C   0  0  0  0  0  0  0  0  0  0  0  0
   21.5756   -5.1342  -13.4959 C   0  0  0  0  0  0  0  0  0  0  0  0
   21.9147   -5.9041  -12.5736 O   0  0  0  0  0  0  0  0  0  0  0  0
   21.6173   -3.7820  -13.2469 O   0  0  0  0  0  0  0  0  0  0  0  0
  2  1  1  1
  2  3  1  0
  3  4  1  0
  4  5  1  0
  5  6  2  0
  5  9  1  0
  7  8  2  0
  7  2  1  0
 10 11  1  0
 11 12  2  0
 11 13  1  0
 13 14  1  0
 15 14  1  6
 15 16  1  0
 16  7  1  0
 17 19  1  0
 17 15  1  0
 18 17  2  0
 20 19  1  0
 21 20  1  0
 22 21  2  0
 23 21  1  0
M  END
$$$$
