EQG.pdb
     RDKit          3D

 23 22  0  0  1  0  0  0  0  0999 V2000
   19.6679  -13.7862  -16.5881 N   0  0  0  0  0  0  0  0  0  0  0  0
   19.2583  -12.4683  -16.2281 C   0  0  1  0  0  0  0  0  0  0  0  0
   18.2650  -12.4968  -15.0937 C   0  0  0  0  0  0  0  0  0  0  0  0
   16.9762  -13.1826  -15.4983 C   0  0  0  0  0  0  0  0  0  0  0  0
   15.9863  -13.0774  -14.3991 C   0  0  0  0  0  0  0  0  0  0  0  0
   15.9700  -13.9511  -13.5147 O   0  0  0  0  0  0  0  0  0  0  0  0
   20.4111  -11.5695  -15.9337 C   0  0  0  0  0  0  0  0  0  0  0  0
   21.4209  -12.0265  -15.3497 O   0  0  0  0  0  0  0  0  0  0  0  0
   15.0822  -12.0218  -14.3448 O   0  0  0  0  0  0  0  0  0  0  0  0
   22.7615   -8.1442  -19.9805 N   0  0  0  0  0  0  0  0  0  0  0  0
   23.0689   -9.4947  -19.6565 C   0  0  0  0  0  0  0  0  0  0  0  0
   23.6369  -10.2301  -20.5019 O   0  0  0  0  0  0  0  0  0  0  0  0
   22.6864   -9.9625  -18.2977 C   0  0  0  0  0  0  0  0  0  0  0  0
   21.9617   -8.9429  -17.5039 C   0  0  0  0  0  0  0  0  0  0  0  0
   21.5601   -9.3262  -16.1096 C   0  0  2  0  0  0  0  0  0  0  0  0
   20.3893  -10.2105  -16.3002 N   0  0  0  0  0  0  0  0  0  0  0  0
   21.0915   -8.2137  -15.2695 C   0  0  0  0  0  0  0  0  0  0  0  0
   19.9908   -7.6771  -15.5155 O   0  0  0  0  0  0  0  0  0  0  0  0
   21.8703   -7.7489  -14.1889 N   0  0  0  0  0  0  0  0  0  0  0  0
   21.3151   -6.6596  -13.3840 C   0  0  0  0  0  0  0  0  0  0  0  0
   21.5797   -5.3540  -14.0103 C   0  0  0  0  0  0  0  0  0  0  0  0
   22.2517   -5.2901  -15.0604 O   0  0  0  0  0  0  0  0  0  0  0  0
   21.1103   -4.1749  -13.4798 O   0  0  0  0  0  0  0  0  0  0  0  0
  2  1  1  1
  2  3  1  0
  3  4  1  0
  4  5  1  0
  5  6  2  0
  5  9  1  0
  7  8  2  0
  7  2  1  0
 10 11  1  0
 11 12  2  0
 11 13  1  0
 13 14  1  0
 15 14  1  6
 15 16  1  0
 16  7  1  0
 17 19  1  0
 17 15  1  0
 18 17  2  0
 20 19  1  0
 21 20  1  0
 22 21  2  0
 23 21  1  0
M  END
$$$$
