EQG.pdb
     RDKit          3D

 23 22  0  0  1  0  0  0  0  0999 V2000
   18.3143  -12.2462  -16.1865 N   0  0  0  0  0  0  0  0  0  0  0  0
   18.6163  -10.8982  -16.5411 C   0  0  1  0  0  0  0  0  0  0  0  0
   17.3603  -10.0728  -16.6657 C   0  0  0  0  0  0  0  0  0  0  0  0
   16.5055  -10.5307  -17.8296 C   0  0  0  0  0  0  0  0  0  0  0  0
   15.3616   -9.6035  -18.0064 C   0  0  0  0  0  0  0  0  0  0  0  0
   14.2078  -10.0226  -17.8086 O   0  0  0  0  0  0  0  0  0  0  0  0
   19.6039  -10.2695  -15.6176 C   0  0  0  0  0  0  0  0  0  0  0  0
   19.5293  -10.4889  -14.3864 O   0  0  0  0  0  0  0  0  0  0  0  0
   15.5609   -8.2809  -18.3877 O   0  0  0  0  0  0  0  0  0  0  0  0
   25.1225  -10.9936  -16.5488 N   0  0  0  0  0  0  0  0  0  0  0  0
   25.3794  -10.0161  -15.5479 C   0  0  0  0  0  0  0  0  0  0  0  0
   26.5470   -9.8525  -15.1142 O   0  0  0  0  0  0  0  0  0  0  0  0
   24.2144   -9.2278  -15.0653 C   0  0  0  0  0  0  0  0  0  0  0  0
   22.9341   -9.6149  -15.7024 C   0  0  0  0  0  0  0  0  0  0  0  0
   21.6976   -8.9106  -15.2258 C   0  0  2  0  0  0  0  0  0  0  0  0
   20.6245   -9.4298  -16.1023 N   0  0  0  0  0  0  0  0  0  0  0  0
   21.7009   -7.4520  -15.4149 C   0  0  0  0  0  0  0  0  0  0  0  0
   21.5352   -6.9787  -16.5588 O   0  0  0  0  0  0  0  0  0  0  0  0
   21.8867   -6.5837  -14.3187 N   0  0  0  0  0  0  0  0  0  0  0  0
   21.8611   -5.1459  -14.5924 C   0  0  0  0  0  0  0  0  0  0  0  0
   23.1492   -4.6911  -15.1410 C   0  0  0  0  0  0  0  0  0  0  0  0
   24.1008   -5.4922  -15.2459 O   0  0  0  0  0  0  0  0  0  0  0  0
   23.3571   -3.3951  -15.5525 O   0  0  0  0  0  0  0  0  0  0  0  0
  2  1  1  1
  2  3  1  0
  3  4  1  0
  4  5  1  0
  5  6  2  0
  5  9  1  0
  7  8  2  0
  7  2  1  0
 10 11  1  0
 11 12  2  0
 11 13  1  0
 13 14  1  0
 15 14  1  6
 15 16  1  0
 16  7  1  0
 17 19  1  0
 17 15  1  0
 18 17  2  0
 20 19  1  0
 21 20  1  0
 22 21  2  0
 23 21  1  0
M  END
$$$$
