EQG.pdb
     RDKit          3D

 23 22  0  0  1  0  0  0  0  0999 V2000
   27.3241  -18.9011  -16.8392 N   0  0  0  0  0  0  0  0  0  0  0  0
   26.2071  -18.5045  -16.0459 C   0  0  1  0  0  0  0  0  0  0  0  0
   25.1573  -17.8212  -16.8857 C   0  0  0  0  0  0  0  0  0  0  0  0
   25.6857  -16.5460  -17.5099 C   0  0  0  0  0  0  0  0  0  0  0  0
   24.6176  -15.9004  -18.3109 C   0  0  0  0  0  0  0  0  0  0  0  0
   23.4365  -16.2460  -18.1335 O   0  0  0  0  0  0  0  0  0  0  0  0
   25.6369  -19.6317  -15.2538 C   0  0  0  0  0  0  0  0  0  0  0  0
   25.7616  -20.8073  -15.6686 O   0  0  0  0  0  0  0  0  0  0  0  0
   24.9174  -14.9204  -19.2513 O   0  0  0  0  0  0  0  0  0  0  0  0
   26.1769  -19.9683   -9.4516 N   0  0  0  0  0  0  0  0  0  0  0  0
   25.2801  -21.0697   -9.5288 C   0  0  0  0  0  0  0  0  0  0  0  0
   25.1203  -21.8208   -8.5347 O   0  0  0  0  0  0  0  0  0  0  0  0
   24.5688  -21.2666  -10.8200 C   0  0  0  0  0  0  0  0  0  0  0  0
   24.9849  -20.3136  -11.8752 C   0  0  0  0  0  0  0  0  0  0  0  0
   24.3887  -20.5068  -13.2388 C   0  0  2  0  0  0  0  0  0  0  0  0
   24.9573  -19.4022  -14.0425 N   0  0  0  0  0  0  0  0  0  0  0  0
   22.9286  -20.3440  -13.3078 C   0  0  0  0  0  0  0  0  0  0  0  0
   22.4367  -19.1961  -13.3247 O   0  0  0  0  0  0  0  0  0  0  0  0
   22.0795  -21.4697  -13.3573 N   0  0  0  0  0  0  0  0  0  0  0  0
   20.6386  -21.2187  -13.4155 C   0  0  0  0  0  0  0  0  0  0  0  0
   20.0841  -21.0171  -12.0669 C   0  0  0  0  0  0  0  0  0  0  0  0
   19.1657  -20.1910  -11.8866 O   0  0  0  0  0  0  0  0  0  0  0  0
   20.5414  -21.7127  -10.9718 O   0  0  0  0  0  0  0  0  0  0  0  0
  2  1  1  6
  2  3  1  0
  3  4  1  0
  4  5  1  0
  5  6  2  0
  5  9  1  0
  7  8  2  0
  7  2  1  0
 10 11  1  0
 11 12  2  0
 11 13  1  0
 13 14  1  0
 15 14  1  1
 15 16  1  0
 16  7  1  0
 17 19  1  0
 17 15  1  0
 18 17  2  0
 20 19  1  0
 21 20  1  0
 22 21  2  0
 23 21  1  0
M  END
$$$$
