EQG.pdb
     RDKit          3D

 23 22  0  0  1  0  0  0  0  0999 V2000
   26.5355  -23.5170  -16.7071 N   0  0  0  0  0  0  0  0  0  0  0  0
   26.2683  -22.2211  -16.1747 C   0  0  1  0  0  0  0  0  0  0  0  0
   25.9168  -21.2442  -17.2686 C   0  0  0  0  0  0  0  0  0  0  0  0
   26.8312  -21.3962  -18.4668 C   0  0  0  0  0  0  0  0  0  0  0  0
   26.0209  -21.5697  -19.6966 C   0  0  0  0  0  0  0  0  0  0  0  0
   25.8805  -22.7100  -20.1719 O   0  0  0  0  0  0  0  0  0  0  0  0
   25.2362  -22.2444  -15.0989 C   0  0  0  0  0  0  0  0  0  0  0  0
   24.2199  -22.9654  -15.2293 O   0  0  0  0  0  0  0  0  0  0  0  0
   25.4202  -20.4816  -20.3210 O   0  0  0  0  0  0  0  0  0  0  0  0
   26.5544  -20.5045   -9.3965 N   0  0  0  0  0  0  0  0  0  0  0  0
   25.1549  -20.6473   -9.1858 C   0  0  0  0  0  0  0  0  0  0  0  0
   24.6796  -20.5409   -8.0279 O   0  0  0  0  0  0  0  0  0  0  0  0
   24.3203  -20.9218  -10.3858 C   0  0  0  0  0  0  0  0  0  0  0  0
   25.1107  -21.1134  -11.6241 C   0  0  0  0  0  0  0  0  0  0  0  0
   24.3474  -21.4447  -12.8730 C   0  0  2  0  0  0  0  0  0  0  0  0
   25.3798  -21.4691  -13.9327 N   0  0  0  0  0  0  0  0  0  0  0  0
   23.3670  -20.4307  -13.2899 C   0  0  0  0  0  0  0  0  0  0  0  0
   23.7350  -19.4755  -14.0057 O   0  0  0  0  0  0  0  0  0  0  0  0
   22.0169  -20.5272  -12.8921 N   0  0  0  0  0  0  0  0  0  0  0  0
   21.1104  -19.4687  -13.3399 C   0  0  0  0  0  0  0  0  0  0  0  0
   19.8330  -20.0319  -13.8071 C   0  0  0  0  0  0  0  0  0  0  0  0
   19.8007  -21.1749  -14.3080 O   0  0  0  0  0  0  0  0  0  0  0  0
   18.6469  -19.3413  -13.7150 O   0  0  0  0  0  0  0  0  0  0  0  0
  2  1  1  6
  2  3  1  0
  3  4  1  0
  4  5  1  0
  5  6  2  0
  5  9  1  0
  7  8  2  0
  7  2  1  0
 10 11  1  0
 11 12  2  0
 11 13  1  0
 13 14  1  0
 15 14  1  1
 15 16  1  0
 16  7  1  0
 17 19  1  0
 17 15  1  0
 18 17  2  0
 20 19  1  0
 21 20  1  0
 22 21  2  0
 23 21  1  0
M  END
$$$$
