EQG.pdb
     RDKit          3D

 23 22  0  0  1  0  0  0  0  0999 V2000
   23.6942  -12.8182  -17.1773 N   0  0  0  0  0  0  0  0  0  0  0  0
   23.3226  -12.0010  -18.2855 C   0  0  1  0  0  0  0  0  0  0  0  0
   22.7489  -12.8307  -19.4066 C   0  0  0  0  0  0  0  0  0  0  0  0
   23.4330  -14.1785  -19.5091 C   0  0  0  0  0  0  0  0  0  0  0  0
   22.7889  -14.9877  -20.5719 C   0  0  0  0  0  0  0  0  0  0  0  0
   22.6704  -14.5044  -21.7114 O   0  0  0  0  0  0  0  0  0  0  0  0
   22.4105  -10.8873  -17.8967 C   0  0  0  0  0  0  0  0  0  0  0  0
   22.0589  -10.0449  -18.7548 O   0  0  0  0  0  0  0  0  0  0  0  0
   22.3189  -16.2709  -20.3129 O   0  0  0  0  0  0  0  0  0  0  0  0
   17.7552  -11.9017  -14.6770 N   0  0  0  0  0  0  0  0  0  0  0  0
   17.6966  -11.6479  -16.0753 C   0  0  0  0  0  0  0  0  0  0  0  0
   16.7387  -12.0932  -16.7553 O   0  0  0  0  0  0  0  0  0  0  0  0
   18.8062  -10.8481  -16.6592 C   0  0  0  0  0  0  0  0  0  0  0  0
   19.8004  -10.3976  -15.6576 C   0  0  0  0  0  0  0  0  0  0  0  0
   21.0099   -9.6768  -16.1773 C   0  0  2  0  0  0  0  0  0  0  0  0
   21.9331  -10.7612  -16.5784 N   0  0  0  0  0  0  0  0  0  0  0  0
   21.7362   -8.8798  -15.1770 C   0  0  0  0  0  0  0  0  0  0  0  0
   22.5242   -9.4469  -14.3913 O   0  0  0  0  0  0  0  0  0  0  0  0
   21.5537   -7.4831  -15.0978 N   0  0  0  0  0  0  0  0  0  0  0  0
   22.2565   -6.7764  -14.0258 C   0  0  0  0  0  0  0  0  0  0  0  0
   21.9695   -5.3333  -14.0697 C   0  0  0  0  0  0  0  0  0  0  0  0
   21.3106   -4.8563  -15.0166 O   0  0  0  0  0  0  0  0  0  0  0  0
   22.4037   -4.4667  -13.0936 O   0  0  0  0  0  0  0  0  0  0  0  0
  2  1  1  1
  2  3  1  0
  3  4  1  0
  4  5  1  0
  5  6  2  0
  5  9  1  0
  7  8  2  0
  7  2  1  0
 10 11  1  0
 11 12  2  0
 11 13  1  0
 13 14  1  0
 15 14  1  1
 15 16  1  0
 16  7  1  0
 17 19  1  0
 17 15  1  0
 18 17  2  0
 20 19  1  0
 21 20  1  0
 22 21  2  0
 23 21  1  0
M  END
$$$$
