EQG.pdb
     RDKit          3D

 23 22  0  0  1  0  0  0  0  0999 V2000
   20.6084  -10.7427  -19.6011 N   0  0  0  0  0  0  0  0  0  0  0  0
   21.3442   -9.5361  -19.4095 C   0  0  1  0  0  0  0  0  0  0  0  0
   20.6682   -8.3716  -20.0887 C   0  0  0  0  0  0  0  0  0  0  0  0
   21.4690   -7.0949  -19.9347 C   0  0  0  0  0  0  0  0  0  0  0  0
   20.7585   -5.9748  -20.5979 C   0  0  0  0  0  0  0  0  0  0  0  0
   21.1354   -4.8093  -20.3846 O   0  0  0  0  0  0  0  0  0  0  0  0
   21.6210   -9.2552  -17.9715 C   0  0  0  0  0  0  0  0  0  0  0  0
   20.7258   -9.4514  -17.1173 O   0  0  0  0  0  0  0  0  0  0  0  0
   19.6838   -6.2090  -21.4492 O   0  0  0  0  0  0  0  0  0  0  0  0
   26.9627  -10.2189  -15.4261 N   0  0  0  0  0  0  0  0  0  0  0  0
   25.8916  -11.1540  -15.4699 C   0  0  0  0  0  0  0  0  0  0  0  0
   26.1175  -12.3770  -15.2928 O   0  0  0  0  0  0  0  0  0  0  0  0
   24.5335  -10.6068  -15.7303 C   0  0  0  0  0  0  0  0  0  0  0  0
   24.5124   -9.1356  -15.9036 C   0  0  0  0  0  0  0  0  0  0  0  0
   23.1729   -8.4969  -16.1274 C   0  0  2  0  0  0  0  0  0  0  0  0
   22.8741   -8.7713  -17.5503 N   0  0  0  0  0  0  0  0  0  0  0  0
   23.1508   -7.0330  -15.9869 C   0  0  0  0  0  0  0  0  0  0  0  0
   23.6664   -6.3210  -16.8741 O   0  0  0  0  0  0  0  0  0  0  0  0
   22.5520   -6.4260  -14.8629 N   0  0  0  0  0  0  0  0  0  0  0  0
   22.5692   -4.9635  -14.8040 C   0  0  0  0  0  0  0  0  0  0  0  0
   21.9735   -4.4798  -13.5478 C   0  0  0  0  0  0  0  0  0  0  0  0
   21.4661   -5.2899  -12.7449 O   0  0  0  0  0  0  0  0  0  0  0  0
   21.9497   -3.1465  -13.2103 O   0  0  0  0  0  0  0  0  0  0  0  0
  2  1  1  1
  2  3  1  0
  3  4  1  0
  4  5  1  0
  5  6  2  0
  5  9  1  0
  7  8  2  0
  7  2  1  0
 10 11  1  0
 11 12  2  0
 11 13  1  0
 13 14  1  0
 15 14  1  6
 15 16  1  0
 16  7  1  0
 17 19  1  0
 17 15  1  0
 18 17  2  0
 20 19  1  0
 21 20  1  0
 22 21  2  0
 23 21  1  0
M  END
$$$$
