EQG.pdb
     RDKit          3D

 23 22  0  0  1  0  0  0  0  0999 V2000
   28.1614  -23.0015  -16.2380 N   0  0  0  0  0  0  0  0  0  0  0  0
   27.4065  -21.7995  -16.0979 C   0  0  1  0  0  0  0  0  0  0  0  0
   26.7496  -21.4135  -17.3993 C   0  0  0  0  0  0  0  0  0  0  0  0
   27.7747  -21.1101  -18.4727 C   0  0  0  0  0  0  0  0  0  0  0  0
   28.0165  -19.6483  -18.5357 C   0  0  0  0  0  0  0  0  0  0  0  0
   27.2583  -18.8830  -17.9147 O   0  0  0  0  0  0  0  0  0  0  0  0
   26.4235  -21.8666  -14.9787 C   0  0  0  0  0  0  0  0  0  0  0  0
   25.9637  -22.9761  -14.6222 O   0  0  0  0  0  0  0  0  0  0  0  0
   29.0725  -19.1257  -19.2748 O   0  0  0  0  0  0  0  0  0  0  0  0
   24.6160  -20.9905   -9.8665 N   0  0  0  0  0  0  0  0  0  0  0  0
   26.0224  -21.1296  -10.0274 C   0  0  0  0  0  0  0  0  0  0  0  0
   26.6961  -21.7435   -9.1629 O   0  0  0  0  0  0  0  0  0  0  0  0
   26.6220  -20.5210  -11.2447 C   0  0  0  0  0  0  0  0  0  0  0  0
   25.6269  -19.8831  -12.1378 C   0  0  0  0  0  0  0  0  0  0  0  0
   25.0175  -20.7468  -13.2031 C   0  0  2  0  0  0  0  0  0  0  0  0
   25.9984  -20.7031  -14.3099 N   0  0  0  0  0  0  0  0  0  0  0  0
   23.7547  -20.2436  -13.7647 C   0  0  0  0  0  0  0  0  0  0  0  0
   23.7557  -19.1913  -14.4374 O   0  0  0  0  0  0  0  0  0  0  0  0
   22.5448  -20.9377  -13.5534 N   0  0  0  0  0  0  0  0  0  0  0  0
   21.3307  -20.3558  -14.1278 C   0  0  0  0  0  0  0  0  0  0  0  0
   20.1677  -21.2278  -13.8957 C   0  0  0  0  0  0  0  0  0  0  0  0
   20.3350  -22.3971  -13.4917 O   0  0  0  0  0  0  0  0  0  0  0  0
   18.8764  -20.8042  -14.1082 O   0  0  0  0  0  0  0  0  0  0  0  0
  2  1  1  6
  2  3  1  0
  3  4  1  0
  4  5  1  0
  5  6  2  0
  5  9  1  0
  7  8  2  0
  7  2  1  0
 10 11  1  0
 11 12  2  0
 11 13  1  0
 13 14  1  0
 15 14  1  1
 15 16  1  0
 16  7  1  0
 17 19  1  0
 17 15  1  0
 18 17  2  0
 20 19  1  0
 21 20  1  0
 22 21  2  0
 23 21  1  0
M  END
$$$$
