EQG.pdb
     RDKit          3D

 23 22  0  0  1  0  0  0  0  0999 V2000
   26.8469  -17.6283  -17.6417 N   0  0  0  0  0  0  0  0  0  0  0  0
   26.0342  -18.6624  -17.0900 C   0  0  1  0  0  0  0  0  0  0  0  0
   26.8733  -19.6956  -16.3810 C   0  0  0  0  0  0  0  0  0  0  0  0
   27.0442  -20.9458  -17.2192 C   0  0  0  0  0  0  0  0  0  0  0  0
   27.8026  -21.9635  -16.4521 C   0  0  0  0  0  0  0  0  0  0  0  0
   28.0375  -23.0655  -16.9779 O   0  0  0  0  0  0  0  0  0  0  0  0
   24.9486  -18.1338  -16.2152 C   0  0  0  0  0  0  0  0  0  0  0  0
   25.2239  -17.3061  -15.3159 O   0  0  0  0  0  0  0  0  0  0  0  0
   28.2513  -21.7035  -15.1615 O   0  0  0  0  0  0  0  0  0  0  0  0
   19.5001  -16.3708  -14.9752 N   0  0  0  0  0  0  0  0  0  0  0  0
   20.3899  -15.3772  -15.4694 C   0  0  0  0  0  0  0  0  0  0  0  0
   20.1747  -14.1637  -15.2259 O   0  0  0  0  0  0  0  0  0  0  0  0
   21.5516  -15.8535  -16.2663 C   0  0  0  0  0  0  0  0  0  0  0  0
   21.6035  -17.3268  -16.4131 C   0  0  0  0  0  0  0  0  0  0  0  0
   22.5282  -18.0692  -15.4933 C   0  0  2  0  0  0  0  0  0  0  0  0
   23.6129  -18.5472  -16.3788 N   0  0  0  0  0  0  0  0  0  0  0  0
   21.9544  -19.2736  -14.8741 C   0  0  0  0  0  0  0  0  0  0  0  0
   22.2571  -20.3999  -15.3209 O   0  0  0  0  0  0  0  0  0  0  0  0
   21.0688  -19.1696  -13.7808 N   0  0  0  0  0  0  0  0  0  0  0  0
   20.6007  -20.4186  -13.1779 C   0  0  0  0  0  0  0  0  0  0  0  0
   19.1442  -20.3881  -12.9665 C   0  0  0  0  0  0  0  0  0  0  0  0
   18.4881  -19.3752  -13.2860 O   0  0  0  0  0  0  0  0  0  0  0  0
   18.4576  -21.4479  -12.4210 O   0  0  0  0  0  0  0  0  0  0  0  0
  2  1  1  1
  2  3  1  0
  3  4  1  0
  4  5  1  0
  5  6  2  0
  5  9  1  0
  7  8  2  0
  7  2  1  0
 10 11  1  0
 11 12  2  0
 11 13  1  0
 13 14  1  0
 15 14  1  6
 15 16  1  0
 16  7  1  0
 17 19  1  0
 17 15  1  0
 18 17  2  0
 20 19  1  0
 21 20  1  0
 22 21  2  0
 23 21  1  0
M  END
$$$$
