EQG.pdb
     RDKit          3D

 23 22  0  0  1  0  0  0  0  0999 V2000
   19.4017  -13.0494  -17.4891 N   0  0  0  0  0  0  0  0  0  0  0  0
   20.0588  -11.8542  -17.9063 C   0  0  1  0  0  0  0  0  0  0  0  0
   19.0746  -10.8577  -18.4656 C   0  0  0  0  0  0  0  0  0  0  0  0
   17.8628  -11.5449  -19.0608 C   0  0  0  0  0  0  0  0  0  0  0  0
   16.9700  -10.5368  -19.6821 C   0  0  0  0  0  0  0  0  0  0  0  0
   15.7393  -10.6582  -19.5531 O   0  0  0  0  0  0  0  0  0  0  0  0
   20.9018  -11.2576  -16.8308 C   0  0  0  0  0  0  0  0  0  0  0  0
   20.5239  -11.3226  -15.6381 O   0  0  0  0  0  0  0  0  0  0  0  0
   17.4873   -9.4650  -20.4019 O   0  0  0  0  0  0  0  0  0  0  0  0
   26.7852  -11.6838  -17.0156 N   0  0  0  0  0  0  0  0  0  0  0  0
   26.8058  -10.6993  -15.9892 C   0  0  0  0  0  0  0  0  0  0  0  0
   27.8932  -10.3773  -15.4489 O   0  0  0  0  0  0  0  0  0  0  0  0
   25.4996  -10.0971  -15.6108 C   0  0  0  0  0  0  0  0  0  0  0  0
   24.3640  -10.5893  -16.4249 C   0  0  0  0  0  0  0  0  0  0  0  0
   23.0001  -10.0725  -16.0715 C   0  0  2  0  0  0  0  0  0  0  0  0
   22.1206  -10.6191  -17.1284 N   0  0  0  0  0  0  0  0  0  0  0  0
   22.8518   -8.6109  -16.1410 C   0  0  0  0  0  0  0  0  0  0  0  0
   22.8805   -8.0408  -17.2519 O   0  0  0  0  0  0  0  0  0  0  0  0
   22.6754   -7.8478  -14.9675 N   0  0  0  0  0  0  0  0  0  0  0  0
   22.4717   -6.4075  -15.1305 C   0  0  0  0  0  0  0  0  0  0  0  0
   22.2556   -5.7554  -13.8285 C   0  0  0  0  0  0  0  0  0  0  0  0
   22.2148   -4.5099  -13.7533 O   0  0  0  0  0  0  0  0  0  0  0  0
   22.0930   -6.4710  -12.6651 O   0  0  0  0  0  0  0  0  0  0  0  0
  2  1  1  1
  2  3  1  0
  3  4  1  0
  4  5  1  0
  5  6  2  0
  5  9  1  0
  7  8  2  0
  7  2  1  0
 10 11  1  0
 11 12  2  0
 11 13  1  0
 13 14  1  0
 15 14  1  6
 15 16  1  0
 16  7  1  0
 17 19  1  0
 17 15  1  0
 18 17  2  0
 20 19  1  0
 21 20  1  0
 22 21  2  0
 23 21  1  0
M  END
$$$$
