CVI.pdb
     RDKit          3D

 22 21  0  0  1  0  0  0  0  0999 V2000
    6.8516  -20.4056   23.1583 N   0  0  0  0  0  0  0  0  0  0  0  0
    6.4815  -19.1196   23.6812 C   0  0  1  0  0  0  0  0  0  0  0  0
    6.4957  -19.1877   25.1763 C   0  0  0  0  0  0  0  0  0  0  0  0
    8.2264  -19.3119   25.7121 S   0  0  0  0  0  0  0  0  0  0  0  0
    7.3648  -18.0741   23.1254 C   0  0  0  0  0  0  0  0  0  0  0  0
    8.4935  -18.3800   22.6568 O   0  0  0  0  0  0  0  0  0  0  0  0
    7.8308  -13.3000   21.8030 C   0  0  0  0  0  0  0  0  0  0  0  0
    6.9970  -14.5426   22.0974 C   0  0  1  0  0  0  0  0  0  0  0  0
    6.2789  -14.9069   20.8391 C   0  0  0  0  0  0  0  0  0  0  0  0
    7.8930  -15.6728   22.6002 C   0  0  2  0  0  0  0  0  0  0  0  0
    6.9861  -16.7037   23.0960 N   0  0  0  0  0  0  0  0  0  0  0  0
    8.6926  -15.1115   23.7151 C   0  0  0  0  0  0  0  0  0  0  0  0
    9.5746  -14.2569   23.4568 O   0  0  0  0  0  0  0  0  0  0  0  0
    6.6990  -11.8372   26.2814 C   0  0  0  0  0  0  0  0  0  0  0  0
    7.7167  -12.8045   25.7693 C   0  0  0  0  0  0  0  0  0  0  0  0
    8.1888  -13.7997   26.8057 C   0  0  2  0  0  0  0  0  0  0  0  0
    8.9038  -13.1248   27.9480 C   0  0  0  0  0  0  0  0  0  0  0  0
    9.1226  -14.8195   26.1928 C   0  0  2  0  0  0  0  0  0  0  0  0
    8.5092  -15.4940   25.0647 N   0  0  0  0  0  0  0  0  0  0  0  0
    9.4825  -15.8170   27.2609 C   0  0  0  0  0  0  0  0  0  0  0  0
   10.1835  -15.4203   28.2417 O   0  0  0  0  0  0  0  0  0  0  0  0
    9.1018  -17.1295   27.2442 O   0  0  0  0  0  0  0  0  0  0  0  0
  2  1  1  6
  3  2  1  0
  4  3  1  0
  5  2  1  0
  5  6  2  0
  8  7  1  6
  8 10  1  0
  9  8  1  0
 10 11  1  1
 10 12  1  0
 11  5  1  0
 12 19  1  0
 13 12  2  0
 15 14  1  0
 16 17  1  1
 16 15  1  0
 18 16  1  0
 18 19  1  6
 20 22  1  0
 20 18  1  0
 21 20  2  0
M  END
$$$$
