CVI.pdb
     RDKit          3D

 22 21  0  0  1  0  0  0  0  0999 V2000
    7.2769  -15.6268   17.9126 N   0  0  0  0  0  0  0  0  0  0  0  0
    8.0743  -14.8939   18.8567 C   0  0  1  0  0  0  0  0  0  0  0  0
    7.7992  -13.4329   18.6846 C   0  0  0  0  0  0  0  0  0  0  0  0
    8.8220  -12.5284   19.8819 S   0  0  0  0  0  0  0  0  0  0  0  0
    7.8210  -15.3894   20.2251 C   0  0  0  0  0  0  0  0  0  0  0  0
    6.6409  -15.5807   20.6226 O   0  0  0  0  0  0  0  0  0  0  0  0
    9.4308  -18.1100   23.9189 C   0  0  0  0  0  0  0  0  0  0  0  0
    9.5242  -17.4826   22.5320 C   0  0  1  0  0  0  0  0  0  0  0  0
    9.1458  -18.5335   21.5401 C   0  0  0  0  0  0  0  0  0  0  0  0
    8.6208  -16.2539   22.4464 C   0  0  2  0  0  0  0  0  0  0  0  0
    8.8781  -15.6663   21.1350 N   0  0  0  0  0  0  0  0  0  0  0  0
    9.0625  -15.3313   23.5192 C   0  0  0  0  0  0  0  0  0  0  0  0
   10.2205  -14.8503   23.4648 O   0  0  0  0  0  0  0  0  0  0  0  0
    5.4523  -12.4981   26.9427 C   0  0  0  0  0  0  0  0  0  0  0  0
    6.3863  -13.5645   26.4693 C   0  0  0  0  0  0  0  0  0  0  0  0
    7.7437  -13.0453   26.0505 C   0  0  2  0  0  0  0  0  0  0  0  0
    7.6558  -12.1605   24.8335 C   0  0  0  0  0  0  0  0  0  0  0  0
    8.6901  -14.1851   25.7456 C   0  0  2  0  0  0  0  0  0  0  0  0
    8.2380  -14.9638   24.6084 N   0  0  0  0  0  0  0  0  0  0  0  0
    8.7743  -15.0558   26.9704 C   0  0  0  0  0  0  0  0  0  0  0  0
    9.3881  -14.6060   27.9860 O   0  0  0  0  0  0  0  0  0  0  0  0
    8.2301  -16.3061   27.0615 O   0  0  0  0  0  0  0  0  0  0  0  0
  2  1  1  6
  3  2  1  0
  4  3  1  0
  5  2  1  0
  5  6  2  0
  8  7  1  1
  8 10  1  0
  9  8  1  0
 10 11  1  6
 10 12  1  0
 11  5  1  0
 12 19  1  0
 13 12  2  0
 15 14  1  0
 16 17  1  6
 16 15  1  0
 18 16  1  0
 18 19  1  6
 20 22  1  0
 20 18  1  0
 21 20  2  0
M  END
$$$$
