CVI.pdb
     RDKit          3D

 22 21  0  0  1  0  0  0  0  0999 V2000
    6.1940  -20.0331   22.6566 N   0  0  0  0  0  0  0  0  0  0  0  0
    6.4870  -19.0775   23.6886 C   0  0  1  0  0  0  0  0  0  0  0  0
    6.8489  -19.8172   24.9383 C   0  0  0  0  0  0  0  0  0  0  0  0
    6.9072  -18.6166   26.2996 S   0  0  0  0  0  0  0  0  0  0  0  0
    7.5324  -18.1406   23.2286 C   0  0  0  0  0  0  0  0  0  0  0  0
    8.6122  -18.5794   22.7505 O   0  0  0  0  0  0  0  0  0  0  0  0
    6.9205  -15.3782   20.8819 C   0  0  0  0  0  0  0  0  0  0  0  0
    7.6879  -14.7412   22.0357 C   0  0  1  0  0  0  0  0  0  0  0  0
    6.7032  -13.9767   22.8587 C   0  0  0  0  0  0  0  0  0  0  0  0
    8.4096  -15.8155   22.8468 C   0  0  2  0  0  0  0  0  0  0  0  0
    7.3678  -16.7301   23.3042 N   0  0  0  0  0  0  0  0  0  0  0  0
    9.0308  -15.1244   24.0017 C   0  0  0  0  0  0  0  0  0  0  0  0
    9.6417  -14.0460   23.8044 O   0  0  0  0  0  0  0  0  0  0  0  0
    6.7169  -12.2149   26.5602 C   0  0  0  0  0  0  0  0  0  0  0  0
    7.8834  -13.0172   26.0817 C   0  0  0  0  0  0  0  0  0  0  0  0
    8.3835  -14.0282   27.0894 C   0  0  2  0  0  0  0  0  0  0  0  0
    8.9466  -13.3641   28.3196 C   0  0  0  0  0  0  0  0  0  0  0  0
    9.4563  -14.9088   26.4880 C   0  0  2  0  0  0  0  0  0  0  0  0
    8.9686  -15.6236   25.3239 N   0  0  0  0  0  0  0  0  0  0  0  0
    9.9017  -15.8822   27.5459 C   0  0  0  0  0  0  0  0  0  0  0  0
    9.3503  -17.0247   27.5815 O   0  0  0  0  0  0  0  0  0  0  0  0
   10.8667  -15.6154   28.4762 O   0  0  0  0  0  0  0  0  0  0  0  0
  2  1  1  6
  3  2  1  0
  4  3  1  0
  5  2  1  0
  5  6  2  0
  8  7  1  6
  8 10  1  0
  9  8  1  0
 10 11  1  1
 10 12  1  0
 11  5  1  0
 12 19  1  0
 13 12  2  0
 15 14  1  0
 16 17  1  1
 16 15  1  0
 18 16  1  0
 18 19  1  6
 20 22  1  0
 20 18  1  0
 21 20  2  0
M  END
$$$$
