CVI.pdb
     RDKit          3D

 22 21  0  0  1  0  0  0  0  0999 V2000
   12.9526  -17.2308   20.4898 N   0  0  0  0  0  0  0  0  0  0  0  0
   11.7496  -17.5961   21.1852 C   0  0  1  0  0  0  0  0  0  0  0  0
   12.1037  -18.5361   22.2946 C   0  0  0  0  0  0  0  0  0  0  0  0
   12.4945  -20.1484   21.5558 S   0  0  0  0  0  0  0  0  0  0  0  0
   11.0388  -16.3829   21.6381 C   0  0  0  0  0  0  0  0  0  0  0  0
   11.6693  -15.4539   22.2095 O   0  0  0  0  0  0  0  0  0  0  0  0
    6.8446  -13.7201   21.5330 C   0  0  0  0  0  0  0  0  0  0  0  0
    7.6868  -14.9058   21.0739 C   0  0  1  0  0  0  0  0  0  0  0  0
    8.0073  -14.6935   19.6303 C   0  0  0  0  0  0  0  0  0  0  0  0
    8.9433  -15.0254   21.9340 C   0  0  2  0  0  0  0  0  0  0  0  0
    9.6390  -16.2149   21.4519 N   0  0  0  0  0  0  0  0  0  0  0  0
    8.4813  -15.2291   23.3277 C   0  0  0  0  0  0  0  0  0  0  0  0
    8.5137  -16.3861   23.8129 O   0  0  0  0  0  0  0  0  0  0  0  0
    6.9569  -10.6422   26.2955 C   0  0  0  0  0  0  0  0  0  0  0  0
    7.6794  -11.9325   26.0795 C   0  0  0  0  0  0  0  0  0  0  0  0
    6.7667  -13.1349   25.9848 C   0  0  2  0  0  0  0  0  0  0  0  0
    6.1321  -13.4645   27.3115 C   0  0  0  0  0  0  0  0  0  0  0  0
    7.5220  -14.3526   25.5004 C   0  0  2  0  0  0  0  0  0  0  0  0
    8.0025  -14.1769   24.1431 N   0  0  0  0  0  0  0  0  0  0  0  0
    6.5907  -15.5327   25.5726 C   0  0  0  0  0  0  0  0  0  0  0  0
    5.6721  -15.6272   24.7019 O   0  0  0  0  0  0  0  0  0  0  0  0
    6.6695  -16.5151   26.5194 O   0  0  0  0  0  0  0  0  0  0  0  0
  2  1  1  1
  3  2  1  0
  4  3  1  0
  5  2  1  0
  5  6  2  0
  8  7  1  1
  8 10  1  0
  9  8  1  0
 10 11  1  6
 10 12  1  0
 11  5  1  0
 12 19  1  0
 13 12  2  0
 15 14  1  0
 16 17  1  1
 16 15  1  0
 18 16  1  0
 18 19  1  6
 20 22  1  0
 20 18  1  0
 21 20  2  0
M  END
$$$$
