CVI.pdb
     RDKit          3D

 22 21  0  0  1  0  0  0  0  0999 V2000
    6.9877  -18.5128   18.7508 N   0  0  0  0  0  0  0  0  0  0  0  0
    7.9034  -18.1000   19.7782 C   0  0  1  0  0  0  0  0  0  0  0  0
    8.7283  -16.9650   19.2574 C   0  0  0  0  0  0  0  0  0  0  0  0
   10.0758  -17.6661   18.2620 S   0  0  0  0  0  0  0  0  0  0  0  0
    7.1637  -17.7783   21.0158 C   0  0  0  0  0  0  0  0  0  0  0  0
    5.9442  -18.0763   21.1219 O   0  0  0  0  0  0  0  0  0  0  0  0
    5.8223  -19.0236   22.8603 C   0  0  0  0  0  0  0  0  0  0  0  0
    6.7015  -18.3095   23.8815 C   0  0  1  0  0  0  0  0  0  0  0  0
    7.9027  -19.1667   24.1136 C   0  0  0  0  0  0  0  0  0  0  0  0
    7.0734  -16.9169   23.3760 C   0  0  2  0  0  0  0  0  0  0  0  0
    7.7846  -17.1310   22.1192 N   0  0  0  0  0  0  0  0  0  0  0  0
    7.9836  -16.3309   24.3888 C   0  0  0  0  0  0  0  0  0  0  0  0
    9.1923  -16.6688   24.3837 O   0  0  0  0  0  0  0  0  0  0  0  0
    5.7894  -11.8844   26.4968 C   0  0  0  0  0  0  0  0  0  0  0  0
    6.9225  -12.6393   25.8806 C   0  0  0  0  0  0  0  0  0  0  0  0
    7.7093  -13.4726   26.8676 C   0  0  2  0  0  0  0  0  0  0  0  0
    8.7099  -12.6434   27.6311 C   0  0  0  0  0  0  0  0  0  0  0  0
    8.4500  -14.5892   26.1658 C   0  0  2  0  0  0  0  0  0  0  0  0
    7.5542  -15.4037   25.3671 N   0  0  0  0  0  0  0  0  0  0  0  0
    9.1190  -15.4323   27.2178 C   0  0  0  0  0  0  0  0  0  0  0  0
   10.1955  -15.0039   27.7360 O   0  0  0  0  0  0  0  0  0  0  0  0
    8.6409  -16.6358   27.6546 O   0  0  0  0  0  0  0  0  0  0  0  0
  2  1  1  6
  3  2  1  0
  4  3  1  0
  5  2  1  0
  5  6  2  0
  8  7  1  6
  8 10  1  0
  9  8  1  0
 10 11  1  6
 10 12  1  0
 11  5  1  0
 12 19  1  0
 13 12  2  0
 15 14  1  0
 16 17  1  6
 16 15  1  0
 18 16  1  0
 18 19  1  1
 20 22  1  0
 20 18  1  0
 21 20  2  0
M  END
$$$$
