CVI.pdb
     RDKit          3D

 22 21  0  0  1  0  0  0  0  0999 V2000
    8.0740  -15.1757   17.5024 N   0  0  0  0  0  0  0  0  0  0  0  0
    8.5111  -14.5005   18.6928 C   0  0  1  0  0  0  0  0  0  0  0  0
    8.1285  -13.0570   18.5933 C   0  0  0  0  0  0  0  0  0  0  0  0
    8.6798  -12.2283   20.1123 S   0  0  0  0  0  0  0  0  0  0  0  0
    7.9677  -15.1785   19.8875 C   0  0  0  0  0  0  0  0  0  0  0  0
    6.7507  -15.5006   19.9360 O   0  0  0  0  0  0  0  0  0  0  0  0
    8.0724  -18.2661   21.0971 C   0  0  0  0  0  0  0  0  0  0  0  0
    8.6526  -17.5007   22.2819 C   0  0  1  0  0  0  0  0  0  0  0  0
   10.1386  -17.6401   22.2189 C   0  0  0  0  0  0  0  0  0  0  0  0
    8.2060  -16.0408   22.2372 C   0  0  2  0  0  0  0  0  0  0  0  0
    8.7795  -15.4906   21.0126 N   0  0  0  0  0  0  0  0  0  0  0  0
    8.8006  -15.3824   23.4247 C   0  0  0  0  0  0  0  0  0  0  0  0
    9.9676  -14.9280   23.3438 O   0  0  0  0  0  0  0  0  0  0  0  0
    5.8561  -11.8801   25.8807 C   0  0  0  0  0  0  0  0  0  0  0  0
    6.9924  -12.7071   25.3725 C   0  0  0  0  0  0  0  0  0  0  0  0
    7.5991  -13.6181   26.4164 C   0  0  2  0  0  0  0  0  0  0  0  0
    8.2469  -12.8402   27.5330 C   0  0  0  0  0  0  0  0  0  0  0  0
    8.6388  -14.5295   25.8029 C   0  0  2  0  0  0  0  0  0  0  0  0
    8.1130  -15.2400   24.6529 N   0  0  0  0  0  0  0  0  0  0  0  0
    9.0783  -15.5064   26.8601 C   0  0  0  0  0  0  0  0  0  0  0  0
    8.4209  -16.5839   26.9930 O   0  0  0  0  0  0  0  0  0  0  0  0
   10.1450  -15.3086   27.6913 O   0  0  0  0  0  0  0  0  0  0  0  0
  2  1  1  6
  3  2  1  0
  4  3  1  0
  5  2  1  0
  5  6  2  0
  8  7  1  6
  8 10  1  0
  9  8  1  0
 10 11  1  6
 10 12  1  0
 11  5  1  0
 12 19  1  0
 13 12  2  0
 15 14  1  0
 16 17  1  1
 16 15  1  0
 18 16  1  0
 18 19  1  6
 20 22  1  0
 20 18  1  0
 21 20  2  0
M  END
$$$$
