CVI.pdb
     RDKit          3D

 22 21  0  0  1  0  0  0  0  0999 V2000
    5.8863  -18.4622   18.1340 N   0  0  0  0  0  0  0  0  0  0  0  0
    5.6129  -17.8935   19.4248 C   0  0  1  0  0  0  0  0  0  0  0  0
    5.2472  -18.9970   20.3673 C   0  0  0  0  0  0  0  0  0  0  0  0
    4.9489  -18.2598   21.9999 S   0  0  0  0  0  0  0  0  0  0  0  0
    6.7638  -17.0841   19.8751 C   0  0  0  0  0  0  0  0  0  0  0  0
    7.9336  -17.5452   19.7962 O   0  0  0  0  0  0  0  0  0  0  0  0
    8.3681  -12.7184   21.6644 C   0  0  0  0  0  0  0  0  0  0  0  0
    7.2857  -13.5780   21.0199 C   0  0  1  0  0  0  0  0  0  0  0  0
    7.0243  -13.0206   19.6589 C   0  0  0  0  0  0  0  0  0  0  0  0
    7.7304  -15.0385   20.9715 C   0  0  2  0  0  0  0  0  0  0  0  0
    6.6036  -15.7749   20.4066 N   0  0  0  0  0  0  0  0  0  0  0  0
    7.9647  -15.4537   22.3750 C   0  0  0  0  0  0  0  0  0  0  0  0
    7.0226  -15.3607   23.1989 O   0  0  0  0  0  0  0  0  0  0  0  0
    8.9955  -20.1544   23.4469 C   0  0  0  0  0  0  0  0  0  0  0  0
    8.6596  -18.7080   23.6158 C   0  0  0  0  0  0  0  0  0  0  0  0
    9.7760  -17.8889   24.2245 C   0  0  2  0  0  0  0  0  0  0  0  0
   10.0467  -18.2825   25.6539 C   0  0  0  0  0  0  0  0  0  0  0  0
    9.4476  -16.4129   24.1889 C   0  0  2  0  0  0  0  0  0  0  0  0
    9.2061  -15.9529   22.8347 N   0  0  0  0  0  0  0  0  0  0  0  0
   10.6077  -15.6669   24.7914 C   0  0  0  0  0  0  0  0  0  0  0  0
   11.5537  -15.3076   24.0255 O   0  0  0  0  0  0  0  0  0  0  0  0
   10.7100  -15.3489   26.1166 O   0  0  0  0  0  0  0  0  0  0  0  0
  2  1  1  6
  3  2  1  0
  4  3  1  0
  5  2  1  0
  5  6  2  0
  8  7  1  6
  8 10  1  0
  9  8  1  0
 10 11  1  1
 10 12  1  0
 11  5  1  0
 12 19  1  0
 13 12  2  0
 15 14  1  0
 16 17  1  1
 16 15  1  0
 18 16  1  0
 18 19  1  6
 20 22  1  0
 20 18  1  0
 21 20  2  0
M  END
$$$$
