CVI.pdb
     RDKit          3D

 22 21  0  0  1  0  0  0  0  0999 V2000
    7.4451  -15.1306   17.8127 N   0  0  0  0  0  0  0  0  0  0  0  0
    8.1660  -14.4843   18.8742 C   0  0  1  0  0  0  0  0  0  0  0  0
    7.8764  -13.0168   18.8264 C   0  0  0  0  0  0  0  0  0  0  0  0
    8.7638  -12.2284   20.2008 S   0  0  0  0  0  0  0  0  0  0  0  0
    7.8330  -15.1140   20.1684 C   0  0  0  0  0  0  0  0  0  0  0  0
    6.6330  -15.3554   20.4668 O   0  0  0  0  0  0  0  0  0  0  0  0
    9.1844  -18.1732   23.6785 C   0  0  0  0  0  0  0  0  0  0  0  0
    9.3249  -17.4459   22.3454 C   0  0  1  0  0  0  0  0  0  0  0  0
    8.8897  -18.3907   21.2732 C   0  0  0  0  0  0  0  0  0  0  0  0
    8.4984  -16.1614   22.3550 C   0  0  2  0  0  0  0  0  0  0  0  0
    8.8336  -15.4680   21.1149 N   0  0  0  0  0  0  0  0  0  0  0  0
    8.9574  -15.3746   23.5246 C   0  0  0  0  0  0  0  0  0  0  0  0
   10.1246  -14.9136   23.5233 O   0  0  0  0  0  0  0  0  0  0  0  0
    5.7067  -11.8761   25.9284 C   0  0  0  0  0  0  0  0  0  0  0  0
    6.8852  -12.6454   25.4257 C   0  0  0  0  0  0  0  0  0  0  0  0
    7.4801  -13.5881   26.4479 C   0  0  2  0  0  0  0  0  0  0  0  0
    8.0375  -12.8484   27.6370 C   0  0  0  0  0  0  0  0  0  0  0  0
    8.5878  -14.4192   25.8396 C   0  0  2  0  0  0  0  0  0  0  0  0
    8.1392  -15.1162   24.6494 N   0  0  0  0  0  0  0  0  0  0  0  0
    9.0471  -15.4075   26.8777 C   0  0  0  0  0  0  0  0  0  0  0  0
    8.3850  -16.4808   27.0197 O   0  0  0  0  0  0  0  0  0  0  0  0
   10.1366  -15.2242   27.6822 O   0  0  0  0  0  0  0  0  0  0  0  0
  2  1  1  6
  3  2  1  0
  4  3  1  0
  5  2  1  0
  5  6  2  0
  8  7  1  1
  8 10  1  0
  9  8  1  0
 10 11  1  6
 10 12  1  0
 11  5  1  0
 12 19  1  0
 13 12  2  0
 15 14  1  0
 16 17  1  1
 16 15  1  0
 18 16  1  0
 18 19  1  6
 20 22  1  0
 20 18  1  0
 21 20  2  0
M  END
$$$$
