CVI.pdb
     RDKit          3D

 22 21  0  0  1  0  0  0  0  0999 V2000
    6.6421  -18.7129   21.7449 N   0  0  0  0  0  0  0  0  0  0  0  0
    8.0008  -18.8008   21.2862 C   0  0  1  0  0  0  0  0  0  0  0  0
    8.0139  -19.4818   19.9535 C   0  0  0  0  0  0  0  0  0  0  0  0
    7.0957  -18.4378   18.7852 S   0  0  0  0  0  0  0  0  0  0  0  0
    8.6185  -17.4590   21.2742 C   0  0  0  0  0  0  0  0  0  0  0  0
    9.8337  -17.3223   20.9712 O   0  0  0  0  0  0  0  0  0  0  0  0
    7.8450  -12.5529   21.3950 C   0  0  0  0  0  0  0  0  0  0  0  0
    7.3718  -13.9921   21.2193 C   0  0  1  0  0  0  0  0  0  0  0  0
    6.9060  -14.1398   19.8076 C   0  0  0  0  0  0  0  0  0  0  0  0
    8.4994  -14.9641   21.5612 C   0  0  2  0  0  0  0  0  0  0  0  0
    7.8820  -16.2864   21.5981 N   0  0  0  0  0  0  0  0  0  0  0  0
    8.9866  -14.5859   22.9091 C   0  0  0  0  0  0  0  0  0  0  0  0
   10.0434  -13.9158   23.0046 O   0  0  0  0  0  0  0  0  0  0  0  0
    5.6212  -12.2629   25.9448 C   0  0  0  0  0  0  0  0  0  0  0  0
    6.8713  -12.8084   25.3338 C   0  0  0  0  0  0  0  0  0  0  0  0
    7.5415  -13.8782   26.1669 C   0  0  2  0  0  0  0  0  0  0  0  0
    8.0483  -13.3343   27.4779 C   0  0  0  0  0  0  0  0  0  0  0  0
    8.7052  -14.4953   25.4234 C   0  0  2  0  0  0  0  0  0  0  0  0
    8.3146  -14.9454   24.1010 N   0  0  0  0  0  0  0  0  0  0  0  0
    9.2110  -15.6553   26.2381 C   0  0  0  0  0  0  0  0  0  0  0  0
    8.6710  -16.7909   26.0663 O   0  0  0  0  0  0  0  0  0  0  0  0
   10.2196  -15.5659   27.1561 O   0  0  0  0  0  0  0  0  0  0  0  0
  2  1  1  6
  3  2  1  0
  4  3  1  0
  5  2  1  0
  5  6  2  0
  8  7  1  6
  8 10  1  0
  9  8  1  0
 10 11  1  1
 10 12  1  0
 11  5  1  0
 12 19  1  0
 13 12  2  0
 15 14  1  0
 16 17  1  1
 16 15  1  0
 18 16  1  0
 18 19  1  6
 20 22  1  0
 20 18  1  0
 21 20  2  0
M  END
$$$$
