CVI.pdb
     RDKit          3D

 22 21  0  0  1  0  0  0  0  0999 V2000
   10.3434  -19.3308   20.9961 N   0  0  0  0  0  0  0  0  0  0  0  0
    9.1660  -18.8230   21.6443 C   0  0  1  0  0  0  0  0  0  0  0  0
    8.7582  -19.7825   22.7180 C   0  0  0  0  0  0  0  0  0  0  0  0
    7.2539  -19.1346   23.5025 S   0  0  0  0  0  0  0  0  0  0  0  0
    9.4103  -17.4510   22.1345 C   0  0  0  0  0  0  0  0  0  0  0  0
   10.4512  -17.1885   22.7938 O   0  0  0  0  0  0  0  0  0  0  0  0
    6.5588  -14.2966   21.4156 C   0  0  0  0  0  0  0  0  0  0  0  0
    8.0683  -14.0847   21.4673 C   0  0  1  0  0  0  0  0  0  0  0  0
    8.3063  -12.6592   21.8451 C   0  0  0  0  0  0  0  0  0  0  0  0
    8.7047  -15.0594   22.4562 C   0  0  2  0  0  0  0  0  0  0  0  0
    8.4983  -16.3881   21.8879 N   0  0  0  0  0  0  0  0  0  0  0  0
    7.9532  -14.9207   23.7264 C   0  0  0  0  0  0  0  0  0  0  0  0
    6.8333  -15.4776   23.8308 O   0  0  0  0  0  0  0  0  0  0  0  0
   10.7639  -13.5259   28.4212 C   0  0  0  0  0  0  0  0  0  0  0  0
    9.7971  -14.2211   27.5181 C   0  0  0  0  0  0  0  0  0  0  0  0
    8.5990  -13.3782   27.1416 C   0  0  2  0  0  0  0  0  0  0  0  0
    7.7340  -13.0660   28.3357 C   0  0  0  0  0  0  0  0  0  0  0  0
    7.7482  -14.0773   26.1046 C   0  0  2  0  0  0  0  0  0  0  0  0
    8.4391  -14.1868   24.8339 N   0  0  0  0  0  0  0  0  0  0  0  0
    6.4788  -13.2859   25.9388 C   0  0  0  0  0  0  0  0  0  0  0  0
    6.4839  -12.3039   25.1348 O   0  0  0  0  0  0  0  0  0  0  0  0
    5.3142  -13.5567   26.6007 O   0  0  0  0  0  0  0  0  0  0  0  0
  2  1  1  1
  3  2  1  0
  4  3  1  0
  5  2  1  0
  5  6  2  0
  8  7  1  1
  8 10  1  0
  9  8  1  0
 10 11  1  6
 10 12  1  0
 11  5  1  0
 12 19  1  0
 13 12  2  0
 15 14  1  0
 16 17  1  1
 16 15  1  0
 18 16  1  0
 18 19  1  6
 20 22  1  0
 20 18  1  0
 21 20  2  0
M  END
$$$$
