CVI.pdb
     RDKit          3D

 22 21  0  0  1  0  0  0  0  0999 V2000
    7.5583  -15.8093   17.8396 N   0  0  0  0  0  0  0  0  0  0  0  0
    8.1195  -15.0583   18.9283 C   0  0  1  0  0  0  0  0  0  0  0  0
    7.7417  -13.6195   18.7634 C   0  0  0  0  0  0  0  0  0  0  0  0
    8.4276  -12.6984   20.1702 S   0  0  0  0  0  0  0  0  0  0  0  0
    7.6935  -15.6408   20.2173 C   0  0  0  0  0  0  0  0  0  0  0  0
    6.4711  -15.8332   20.4538 O   0  0  0  0  0  0  0  0  0  0  0  0
    8.4860  -18.4764   24.0357 C   0  0  0  0  0  0  0  0  0  0  0  0
    8.7833  -17.9008   22.6550 C   0  0  1  0  0  0  0  0  0  0  0  0
    8.2210  -18.8480   21.6459 C   0  0  0  0  0  0  0  0  0  0  0  0
    8.1887  -16.4997   22.5278 C   0  0  2  0  0  0  0  0  0  0  0  0
    8.6271  -16.0022   21.2273 N   0  0  0  0  0  0  0  0  0  0  0  0
    8.7850  -15.6892   23.6163 C   0  0  0  0  0  0  0  0  0  0  0  0
   10.0165  -15.4490   23.5869 O   0  0  0  0  0  0  0  0  0  0  0  0
    5.6183  -12.0055   26.0378 C   0  0  0  0  0  0  0  0  0  0  0  0
    6.8179  -12.6970   25.4753 C   0  0  0  0  0  0  0  0  0  0  0  0
    7.5514  -13.5597   26.4780 C   0  0  2  0  0  0  0  0  0  0  0  0
    8.2318  -12.7332   27.5389 C   0  0  0  0  0  0  0  0  0  0  0  0
    8.5954  -14.4159   25.7962 C   0  0  2  0  0  0  0  0  0  0  0  0
    8.0296  -15.1697   24.6937 N   0  0  0  0  0  0  0  0  0  0  0  0
    9.1687  -15.3525   26.8254 C   0  0  0  0  0  0  0  0  0  0  0  0
   10.2013  -14.9836   27.4644 O   0  0  0  0  0  0  0  0  0  0  0  0
    8.6474  -16.5813   27.1190 O   0  0  0  0  0  0  0  0  0  0  0  0
  2  1  1  6
  3  2  1  0
  4  3  1  0
  5  2  1  0
  5  6  2  0
  8  7  1  1
  8 10  1  0
  9  8  1  0
 10 11  1  6
 10 12  1  0
 11  5  1  0
 12 19  1  0
 13 12  2  0
 15 14  1  0
 16 17  1  1
 16 15  1  0
 18 16  1  0
 18 19  1  6
 20 22  1  0
 20 18  1  0
 21 20  2  0
M  END
$$$$
