KGA.pdb
     RDKit          3D

 19 18  0  0  1  0  0  0  0  0999 V2000
    8.3956  -18.0829   20.5854 N   0  0  0  0  0  0  0  0  0  0  0  0
    7.2771  -17.2393   21.0406 C   0  0  1  0  0  0  0  0  0  0  0  0
    6.2835  -18.0556   21.8055 C   0  0  0  0  0  0  0  0  0  0  0  0
    6.0950  -19.4580   21.3129 C   0  0  0  0  0  0  0  0  0  0  0  0
    4.9999  -20.1732   22.0736 C   0  0  0  0  0  0  0  0  0  0  0  0
    4.7306  -21.5472   21.4992 C   0  0  0  0  0  0  0  0  0  0  0  0
    3.6739  -22.2363   22.1988 N   0  0  0  0  0  0  0  0  0  0  0  0
    7.8169  -16.1612   21.9060 C   0  0  0  0  0  0  0  0  0  0  0  0
    8.8464  -16.2786   22.5909 O   0  0  0  0  0  0  0  0  0  0  0  0
    7.1259  -14.9257   21.9599 N   0  0  0  0  0  0  0  0  0  0  0  0
    7.7312  -13.8278   22.6775 C   0  0  0  0  0  0  0  0  0  0  0  0
    7.3789  -13.9111   24.0996 C   0  0  0  0  0  0  0  0  0  0  0  0
    6.7101  -14.8472   24.6102 O   0  0  0  0  0  0  0  0  0  0  0  0
    8.5869  -11.9330   27.0232 C   0  0  0  0  0  0  0  0  0  0  0  0
    7.5915  -12.8715   26.3784 C   0  0  2  0  0  0  0  0  0  0  0  0
    7.8324  -12.8481   24.9579 N   0  0  0  0  0  0  0  0  0  0  0  0
    6.2032  -12.5065   26.6473 C   0  0  0  0  0  0  0  0  0  0  0  0
    5.4955  -11.8902   25.8010 O   0  0  0  0  0  0  0  0  0  0  0  0
    5.6317  -12.8390   27.8616 O   0  0  0  0  0  0  0  0  0  0  0  0
  2  1  1  1
  3  2  1  0
  4  3  1  0
  5  4  1  0
  6  5  1  0
  7  6  1  0
  8  9  2  0
  8  2  1  0
 10  8  1  0
 11 10  1  0
 11 12  1  0
 12 16  1  0
 12 13  2  0
 15 14  1  1
 15 17  1  0
 16 15  1  0
 17 19  1  0
 18 17  2  0
M  END
$$$$
