KGA.pdb
     RDKit          3D

 19 18  0  0  1  0  0  0  0  0999 V2000
   10.0877  -16.7289   20.1650 N   0  0  0  0  0  0  0  0  0  0  0  0
    9.2168  -16.8848   21.3429 C   0  0  1  0  0  0  0  0  0  0  0  0
    9.9690  -17.5206   22.4692 C   0  0  0  0  0  0  0  0  0  0  0  0
   10.2699  -18.9778   22.2939 C   0  0  0  0  0  0  0  0  0  0  0  0
   11.0333  -19.5351   23.4754 C   0  0  0  0  0  0  0  0  0  0  0  0
   11.3011  -21.0160   23.3154 C   0  0  0  0  0  0  0  0  0  0  0  0
   12.0172  -21.5681   24.4393 N   0  0  0  0  0  0  0  0  0  0  0  0
    8.7303  -15.5444   21.7545 C   0  0  0  0  0  0  0  0  0  0  0  0
    9.3563  -14.4915   21.5485 O   0  0  0  0  0  0  0  0  0  0  0  0
    7.4833  -15.4512   22.4200 N   0  0  0  0  0  0  0  0  0  0  0  0
    7.0304  -14.1509   22.8571 C   0  0  0  0  0  0  0  0  0  0  0  0
    7.5072  -13.8928   24.2208 C   0  0  0  0  0  0  0  0  0  0  0  0
    8.2808  -14.6551   24.8570 O   0  0  0  0  0  0  0  0  0  0  0  0
    6.8020  -11.0371   26.5626 C   0  0  0  0  0  0  0  0  0  0  0  0
    7.4023  -12.3847   26.2290 C   0  0  2  0  0  0  0  0  0  0  0  0
    7.0550  -12.6868   24.8636 N   0  0  0  0  0  0  0  0  0  0  0  0
    6.9302  -13.4543   27.1042 C   0  0  0  0  0  0  0  0  0  0  0  0
    7.5353  -13.7664   28.1688 O   0  0  0  0  0  0  0  0  0  0  0  0
    5.7867  -14.1563   26.7704 O   0  0  0  0  0  0  0  0  0  0  0  0
  2  1  1  6
  3  2  1  0
  4  3  1  0
  5  4  1  0
  6  5  1  0
  7  6  1  0
  8  9  2  0
  8  2  1  0
 10  8  1  0
 11 10  1  0
 11 12  1  0
 12 16  1  0
 12 13  2  0
 15 14  1  1
 15 17  1  0
 16 15  1  0
 17 19  1  0
 18 17  2  0
M  END
$$$$
