KGA.pdb
     RDKit          3D

 19 18  0  0  1  0  0  0  0  0999 V2000
    8.1683  -17.1984   19.4863 N   0  0  0  0  0  0  0  0  0  0  0  0
    8.4810  -15.9185   20.1453 C   0  0  1  0  0  0  0  0  0  0  0  0
    8.3949  -14.7908   19.1658 C   0  0  0  0  0  0  0  0  0  0  0  0
    8.4227  -15.1946   17.7232 C   0  0  0  0  0  0  0  0  0  0  0  0
    8.2717  -13.9997   16.8072 C   0  0  0  0  0  0  0  0  0  0  0  0
    8.2224  -14.4169   15.3533 C   0  0  0  0  0  0  0  0  0  0  0  0
    8.0210  -13.2960   14.4679 N   0  0  0  0  0  0  0  0  0  0  0  0
    7.5120  -15.7033   21.2486 C   0  0  0  0  0  0  0  0  0  0  0  0
    6.3374  -16.1061   21.2218 O   0  0  0  0  0  0  0  0  0  0  0  0
    7.9423  -15.0001   22.4006 N   0  0  0  0  0  0  0  0  0  0  0  0
    7.0121  -14.8316   23.4931 C   0  0  0  0  0  0  0  0  0  0  0  0
    7.6237  -14.0073   24.5419 C   0  0  0  0  0  0  0  0  0  0  0  0
    8.8562  -13.7657   24.6246 O   0  0  0  0  0  0  0  0  0  0  0  0
    6.0498  -11.8746   27.1863 C   0  0  0  0  0  0  0  0  0  0  0  0
    7.2438  -12.5646   26.5649 C   0  0  2  0  0  0  0  0  0  0  0  0
    6.7485  -13.4431   25.5359 N   0  0  0  0  0  0  0  0  0  0  0  0
    8.0282  -13.3309   27.5294 C   0  0  0  0  0  0  0  0  0  0  0  0
    8.7823  -12.7724   28.3759 O   0  0  0  0  0  0  0  0  0  0  0  0
    7.9537  -14.7116   27.5285 O   0  0  0  0  0  0  0  0  0  0  0  0
  2  1  1  6
  3  2  1  0
  4  3  1  0
  5  4  1  0
  6  5  1  0
  7  6  1  0
  8  9  2  0
  8  2  1  0
 10  8  1  0
 11 10  1  0
 11 12  1  0
 12 16  1  0
 12 13  2  0
 15 14  1  1
 15 17  1  0
 16 15  1  0
 17 19  1  0
 18 17  2  0
M  END
$$$$
