KGA.pdb
     RDKit          3D

 19 18  0  0  1  0  0  0  0  0999 V2000
    7.9807  -16.5579   19.1276 N   0  0  0  0  0  0  0  0  0  0  0  0
    7.8911  -15.2565   19.8119 C   0  0  1  0  0  0  0  0  0  0  0  0
    7.1090  -14.2841   18.9866 C   0  0  0  0  0  0  0  0  0  0  0  0
    7.1645  -14.5128   17.5069 C   0  0  0  0  0  0  0  0  0  0  0  0
    8.3872  -13.8701   16.8893 C   0  0  0  0  0  0  0  0  0  0  0  0
    8.3859  -14.0077   15.3822 C   0  0  0  0  0  0  0  0  0  0  0  0
    9.5967  -13.5004   14.7843 N   0  0  0  0  0  0  0  0  0  0  0  0
    7.2256  -15.4544   21.1236 C   0  0  0  0  0  0  0  0  0  0  0  0
    6.2919  -16.2524   21.3085 O   0  0  0  0  0  0  0  0  0  0  0  0
    7.6739  -14.6951   22.2323 N   0  0  0  0  0  0  0  0  0  0  0  0
    6.9863  -14.8447   23.4939 C   0  0  0  0  0  0  0  0  0  0  0  0
    7.6160  -13.9889   24.5061 C   0  0  0  0  0  0  0  0  0  0  0  0
    8.7865  -13.5340   24.4204 O   0  0  0  0  0  0  0  0  0  0  0  0
    6.1410  -12.2387   27.4538 C   0  0  0  0  0  0  0  0  0  0  0  0
    7.3324  -12.7490   26.6741 C   0  0  2  0  0  0  0  0  0  0  0  0
    6.8360  -13.6537   25.6685 N   0  0  0  0  0  0  0  0  0  0  0  0
    8.3131  -13.4351   27.5111 C   0  0  0  0  0  0  0  0  0  0  0  0
    9.0358  -12.8160   28.3426 O   0  0  0  0  0  0  0  0  0  0  0  0
    8.4669  -14.8048   27.4013 O   0  0  0  0  0  0  0  0  0  0  0  0
  2  1  1  6
  3  2  1  0
  4  3  1  0
  5  4  1  0
  6  5  1  0
  7  6  1  0
  8  9  2  0
  8  2  1  0
 10  8  1  0
 11 10  1  0
 11 12  1  0
 12 16  1  0
 12 13  2  0
 15 14  1  1
 15 17  1  0
 16 15  1  0
 17 19  1  0
 18 17  2  0
M  END
$$$$
