KGA.pdb
     RDKit          3D

 19 18  0  0  1  0  0  0  0  0999 V2000
    7.6789  -19.5883   23.0975 N   0  0  0  0  0  0  0  0  0  0  0  0
    6.3323  -19.0006   22.9914 C   0  0  1  0  0  0  0  0  0  0  0  0
    5.2916  -20.0041   23.3768 C   0  0  0  0  0  0  0  0  0  0  0  0
    5.7481  -21.4312   23.3726 C   0  0  0  0  0  0  0  0  0  0  0  0
    6.3981  -21.8120   24.6848 C   0  0  0  0  0  0  0  0  0  0  0  0
    6.8079  -23.2688   24.6997 C   0  0  0  0  0  0  0  0  0  0  0  0
    7.5278  -23.6235   25.8984 N   0  0  0  0  0  0  0  0  0  0  0  0
    6.2556  -17.8234   23.8920 C   0  0  0  0  0  0  0  0  0  0  0  0
    5.2093  -17.1908   24.1109 O   0  0  0  0  0  0  0  0  0  0  0  0
    7.4370  -17.3900   24.5426 N   0  0  0  0  0  0  0  0  0  0  0  0
    7.3755  -16.2047   25.3662 C   0  0  0  0  0  0  0  0  0  0  0  0
    8.6724  -15.9857   26.0170 C   0  0  0  0  0  0  0  0  0  0  0  0
    9.6809  -16.7206   25.8522 O   0  0  0  0  0  0  0  0  0  0  0  0
    9.9489  -13.1656   28.1132 C   0  0  0  0  0  0  0  0  0  0  0  0
    9.9914  -14.6055   27.6522 C   0  0  2  0  0  0  0  0  0  0  0  0
    8.7882  -14.8541   26.8993 N   0  0  0  0  0  0  0  0  0  0  0  0
   10.0859  -15.5575   28.7556 C   0  0  0  0  0  0  0  0  0  0  0  0
    9.0812  -16.1972   29.1778 O   0  0  0  0  0  0  0  0  0  0  0  0
   11.3064  -15.7760   29.3675 O   0  0  0  0  0  0  0  0  0  0  0  0
  2  1  1  1
  3  2  1  0
  4  3  1  0
  5  4  1  0
  6  5  1  0
  7  6  1  0
  8  9  2  0
  8  2  1  0
 10  8  1  0
 11 10  1  0
 11 12  1  0
 12 16  1  0
 12 13  2  0
 15 14  1  1
 15 17  1  0
 16 15  1  0
 17 19  1  0
 18 17  2  0
M  END
$$$$
