KGA.pdb
     RDKit          3D

 19 18  0  0  1  0  0  0  0  0999 V2000
    7.9517  -16.1505   21.0207 N   0  0  0  0  0  0  0  0  0  0  0  0
    7.9620  -14.7816   21.5650 C   0  0  1  0  0  0  0  0  0  0  0  0
    6.8205  -13.9893   21.0101 C   0  0  0  0  0  0  0  0  0  0  0  0
    6.8355  -13.8029   19.5236 C   0  0  0  0  0  0  0  0  0  0  0  0
    8.2476  -13.7119   18.9878 C   0  0  0  0  0  0  0  0  0  0  0  0
    8.2629  -13.5926   17.4792 C   0  0  0  0  0  0  0  0  0  0  0  0
    9.5956  -13.6866   16.9353 N   0  0  0  0  0  0  0  0  0  0  0  0
    7.8518  -14.8576   23.0431 C   0  0  0  0  0  0  0  0  0  0  0  0
    7.8278  -13.8609   23.7839 O   0  0  0  0  0  0  0  0  0  0  0  0
    7.7687  -16.1341   23.6516 N   0  0  0  0  0  0  0  0  0  0  0  0
    7.6501  -16.2062   25.0896 C   0  0  0  0  0  0  0  0  0  0  0  0
    8.8683  -15.6777   25.7143 C   0  0  0  0  0  0  0  0  0  0  0  0
    9.9783  -15.5778   25.1294 O   0  0  0  0  0  0  0  0  0  0  0  0
    9.4941  -13.5028   28.5380 C   0  0  0  0  0  0  0  0  0  0  0  0
    9.9260  -14.7483   27.7965 C   0  0  2  0  0  0  0  0  0  0  0  0
    8.7771  -15.2486   27.0854 N   0  0  0  0  0  0  0  0  0  0  0  0
   10.4484  -15.7879   28.6792 C   0  0  0  0  0  0  0  0  0  0  0  0
   11.4907  -15.6176   29.3732 O   0  0  0  0  0  0  0  0  0  0  0  0
    9.7926  -17.0019   28.7689 O   0  0  0  0  0  0  0  0  0  0  0  0
  2  1  1  6
  3  2  1  0
  4  3  1  0
  5  4  1  0
  6  5  1  0
  7  6  1  0
  8  9  2  0
  8  2  1  0
 10  8  1  0
 11 10  1  0
 11 12  1  0
 12 16  1  0
 12 13  2  0
 15 14  1  1
 15 17  1  0
 16 15  1  0
 17 19  1  0
 18 17  2  0
M  END
$$$$
