KGA.pdb
     RDKit          3D

 19 18  0  0  1  0  0  0  0  0999 V2000
    8.5738  -18.4239   22.1119 N   0  0  0  0  0  0  0  0  0  0  0  0
    7.5793  -18.9388   23.0690 C   0  0  1  0  0  0  0  0  0  0  0  0
    8.2568  -19.6685   24.1858 C   0  0  0  0  0  0  0  0  0  0  0  0
    9.3967  -20.5494   23.7741 C   0  0  0  0  0  0  0  0  0  0  0  0
   10.0875  -21.1629   24.9724 C   0  0  0  0  0  0  0  0  0  0  0  0
   11.3177  -21.9444   24.5646 C   0  0  0  0  0  0  0  0  0  0  0  0
   12.0292  -22.4785   25.7001 N   0  0  0  0  0  0  0  0  0  0  0  0
    6.8050  -17.7944   23.6109 C   0  0  0  0  0  0  0  0  0  0  0  0
    5.8571  -17.9183   24.4040 O   0  0  0  0  0  0  0  0  0  0  0  0
    7.1599  -16.4840   23.2063 N   0  0  0  0  0  0  0  0  0  0  0  0
    6.4158  -15.3701   23.7472 C   0  0  0  0  0  0  0  0  0  0  0  0
    7.2830  -14.5734   24.6228 C   0  0  0  0  0  0  0  0  0  0  0  0
    8.5180  -14.7702   24.7662 O   0  0  0  0  0  0  0  0  0  0  0  0
    6.5510  -11.4652   26.5939 C   0  0  0  0  0  0  0  0  0  0  0  0
    7.4538  -12.6045   26.1761 C   0  0  2  0  0  0  0  0  0  0  0  0
    6.6719  -13.4995   25.3614 N   0  0  0  0  0  0  0  0  0  0  0  0
    8.0149  -13.3354   27.3092 C   0  0  0  0  0  0  0  0  0  0  0  0
    7.5324  -14.4347   27.7039 O   0  0  0  0  0  0  0  0  0  0  0  0
    9.1084  -12.8208   27.9810 O   0  0  0  0  0  0  0  0  0  0  0  0
  2  1  1  6
  3  2  1  0
  4  3  1  0
  5  4  1  0
  6  5  1  0
  7  6  1  0
  8  9  2  0
  8  2  1  0
 10  8  1  0
 11 10  1  0
 11 12  1  0
 12 16  1  0
 12 13  2  0
 15 14  1  1
 15 17  1  0
 16 15  1  0
 17 19  1  0
 18 17  2  0
M  END
$$$$
