KGA.pdb
     RDKit          3D

 19 18  0  0  1  0  0  0  0  0999 V2000
    8.1766  -17.9681   21.3046 N   0  0  0  0  0  0  0  0  0  0  0  0
    6.8948  -17.9979   22.0299 C   0  0  1  0  0  0  0  0  0  0  0  0
    6.9958  -18.8789   23.2350 C   0  0  0  0  0  0  0  0  0  0  0  0
    8.2953  -19.6096   23.3846 C   0  0  0  0  0  0  0  0  0  0  0  0
    8.3188  -20.4531   24.6405 C   0  0  0  0  0  0  0  0  0  0  0  0
    9.6891  -21.0467   24.8856 C   0  0  0  0  0  0  0  0  0  0  0  0
    9.7948  -21.6637   26.1852 N   0  0  0  0  0  0  0  0  0  0  0  0
    6.5512  -16.6147   22.4439 C   0  0  0  0  0  0  0  0  0  0  0  0
    5.5210  -16.3197   23.0719 O   0  0  0  0  0  0  0  0  0  0  0  0
    7.4424  -15.5659   22.1083 N   0  0  0  0  0  0  0  0  0  0  0  0
    7.1220  -14.2245   22.5384 C   0  0  0  0  0  0  0  0  0  0  0  0
    7.6992  -13.9784   23.8650 C   0  0  0  0  0  0  0  0  0  0  0  0
    8.6654  -14.6243   24.3482 O   0  0  0  0  0  0  0  0  0  0  0  0
    6.8985  -11.3535   26.4310 C   0  0  0  0  0  0  0  0  0  0  0  0
    7.6323  -12.5888   25.9586 C   0  0  2  0  0  0  0  0  0  0  0  0
    7.1153  -12.9277   24.6570 N   0  0  0  0  0  0  0  0  0  0  0  0
    7.4769  -13.7270   26.8604 C   0  0  0  0  0  0  0  0  0  0  0  0
    6.5768  -14.5980   26.6927 O   0  0  0  0  0  0  0  0  0  0  0  0
    8.3342  -13.8693   27.9359 O   0  0  0  0  0  0  0  0  0  0  0  0
  2  1  1  1
  3  2  1  0
  4  3  1  0
  5  4  1  0
  6  5  1  0
  7  6  1  0
  8  9  2  0
  8  2  1  0
 10  8  1  0
 11 10  1  0
 11 12  1  0
 12 16  1  0
 12 13  2  0
 15 14  1  1
 15 17  1  0
 16 15  1  0
 17 19  1  0
 18 17  2  0
M  END
$$$$
