KGA.pdb
     RDKit          3D

 19 18  0  0  1  0  0  0  0  0999 V2000
    7.7218  -18.2471   20.5542 N   0  0  0  0  0  0  0  0  0  0  0  0
    6.3269  -17.8117   20.3680 C   0  0  1  0  0  0  0  0  0  0  0  0
    5.3929  -18.7178   21.1063 C   0  0  0  0  0  0  0  0  0  0  0  0
    6.0266  -19.9347   21.7085 C   0  0  0  0  0  0  0  0  0  0  0  0
    5.0142  -20.7824   22.4471 C   0  0  0  0  0  0  0  0  0  0  0  0
    5.6250  -22.0780   22.9357 C   0  0  0  0  0  0  0  0  0  0  0  0
    5.6395  -22.1687   24.3753 N   0  0  0  0  0  0  0  0  0  0  0  0
    6.1906  -16.4241   20.8766 C   0  0  0  0  0  0  0  0  0  0  0  0
    5.1008  -15.8429   21.0082 O   0  0  0  0  0  0  0  0  0  0  0  0
    7.3638  -15.7154   21.2345 N   0  0  0  0  0  0  0  0  0  0  0  0
    7.2363  -14.3407   21.6598 C   0  0  0  0  0  0  0  0  0  0  0  0
    7.4802  -14.2441   23.1037 C   0  0  0  0  0  0  0  0  0  0  0  0
    7.5170  -13.1617   23.7451 O   0  0  0  0  0  0  0  0  0  0  0  0
    7.0168  -15.9096   26.0663 C   0  0  0  0  0  0  0  0  0  0  0  0
    8.1665  -15.4774   25.1836 C   0  0  2  0  0  0  0  0  0  0  0  0
    7.6898  -15.4727   23.8239 N   0  0  0  0  0  0  0  0  0  0  0  0
    9.3317  -16.3510   25.2927 C   0  0  0  0  0  0  0  0  0  0  0  0
    9.7006  -17.0992   24.3434 O   0  0  0  0  0  0  0  0  0  0  0  0
   10.0642  -16.3708   26.4652 O   0  0  0  0  0  0  0  0  0  0  0  0
  2  1  1  1
  3  2  1  0
  4  3  1  0
  5  4  1  0
  6  5  1  0
  7  6  1  0
  8  9  2  0
  8  2  1  0
 10  8  1  0
 11 10  1  0
 11 12  1  0
 12 16  1  0
 12 13  2  0
 15 14  1  1
 15 17  1  0
 16 15  1  0
 17 19  1  0
 18 17  2  0
M  END
$$$$
