KGA.pdb
     RDKit          3D

 19 18  0  0  1  0  0  0  0  0999 V2000
    9.1868  -13.7178   21.4858 N   0  0  0  0  0  0  0  0  0  0  0  0
    7.7697  -13.9800   21.7909 C   0  0  1  0  0  0  0  0  0  0  0  0
    7.0712  -14.5399   20.5921 C   0  0  0  0  0  0  0  0  0  0  0  0
    7.2100  -13.7328   19.3374 C   0  0  0  0  0  0  0  0  0  0  0  0
    8.0058  -14.4725   18.2844 C   0  0  0  0  0  0  0  0  0  0  0  0
    8.0033  -13.7324   16.9643 C   0  0  0  0  0  0  0  0  0  0  0  0
    8.8164  -14.3858   15.9679 N   0  0  0  0  0  0  0  0  0  0  0  0
    7.6969  -14.9470   22.9144 C   0  0  0  0  0  0  0  0  0  0  0  0
    6.6325  -15.4089   23.3575 O   0  0  0  0  0  0  0  0  0  0  0  0
    8.9042  -15.3727   23.5212 N   0  0  0  0  0  0  0  0  0  0  0  0
    8.8355  -16.3531   24.5800 C   0  0  0  0  0  0  0  0  0  0  0  0
    8.8287  -15.6765   25.8821 C   0  0  0  0  0  0  0  0  0  0  0  0
    8.3025  -14.5529   26.0940 O   0  0  0  0  0  0  0  0  0  0  0  0
   10.2249  -16.7476   29.2050 C   0  0  0  0  0  0  0  0  0  0  0  0
    9.5048  -15.7717   28.3013 C   0  0  2  0  0  0  0  0  0  0  0  0
    9.4682  -16.3500   26.9821 N   0  0  0  0  0  0  0  0  0  0  0  0
   10.1477  -14.4615   28.2457 C   0  0  0  0  0  0  0  0  0  0  0  0
   10.9293  -14.1370   27.3072 O   0  0  0  0  0  0  0  0  0  0  0  0
    9.9031  -13.5369   29.2441 O   0  0  0  0  0  0  0  0  0  0  0  0
  2  1  1  6
  3  2  1  0
  4  3  1  0
  5  4  1  0
  6  5  1  0
  7  6  1  0
  8  9  2  0
  8  2  1  0
 10  8  1  0
 11 10  1  0
 11 12  1  0
 12 16  1  0
 12 13  2  0
 15 14  1  1
 15 17  1  0
 16 15  1  0
 17 19  1  0
 18 17  2  0
M  END
$$$$
