KGA.pdb
     RDKit          3D

 19 18  0  0  1  0  0  0  0  0999 V2000
    7.7100  -17.5130   20.1275 N   0  0  0  0  0  0  0  0  0  0  0  0
    7.9700  -16.1659   20.6639 C   0  0  1  0  0  0  0  0  0  0  0  0
    7.6062  -15.1220   19.6557 C   0  0  0  0  0  0  0  0  0  0  0  0
    8.3519  -15.1999   18.3585 C   0  0  0  0  0  0  0  0  0  0  0  0
    7.8939  -14.1334   17.3878 C   0  0  0  0  0  0  0  0  0  0  0  0
    8.5719  -14.2783   16.0426 C   0  0  0  0  0  0  0  0  0  0  0  0
    8.1761  -13.2468   15.1152 N   0  0  0  0  0  0  0  0  0  0  0  0
    7.1623  -15.9811   21.8952 C   0  0  0  0  0  0  0  0  0  0  0  0
    6.0384  -16.4823   22.0631 O   0  0  0  0  0  0  0  0  0  0  0  0
    7.6953  -15.1902   22.9427 N   0  0  0  0  0  0  0  0  0  0  0  0
    6.9019  -14.9994   24.1348 C   0  0  0  0  0  0  0  0  0  0  0  0
    7.6282  -14.1457   25.0820 C   0  0  0  0  0  0  0  0  0  0  0  0
    8.8808  -14.0254   25.1107 O   0  0  0  0  0  0  0  0  0  0  0  0
    6.3975  -11.7084   27.6490 C   0  0  0  0  0  0  0  0  0  0  0  0
    7.4717  -12.5875   27.0482 C   0  0  2  0  0  0  0  0  0  0  0  0
    6.8481  -13.4018   26.0362 N   0  0  0  0  0  0  0  0  0  0  0  0
    8.1275  -13.4440   28.0327 C   0  0  0  0  0  0  0  0  0  0  0  0
    7.8372  -14.6676   28.1569 O   0  0  0  0  0  0  0  0  0  0  0  0
    9.0985  -12.9135   28.8618 O   0  0  0  0  0  0  0  0  0  0  0  0
  2  1  1  6
  3  2  1  0
  4  3  1  0
  5  4  1  0
  6  5  1  0
  7  6  1  0
  8  9  2  0
  8  2  1  0
 10  8  1  0
 11 10  1  0
 11 12  1  0
 12 16  1  0
 12 13  2  0
 15 14  1  1
 15 17  1  0
 16 15  1  0
 17 19  1  0
 18 17  2  0
M  END
$$$$
