KGA.pdb
     RDKit          3D

 19 18  0  0  1  0  0  0  0  0999 V2000
    8.7179  -17.4944   21.4090 N   0  0  0  0  0  0  0  0  0  0  0  0
    9.6841  -17.8899   20.3698 C   0  0  1  0  0  0  0  0  0  0  0  0
    9.3493  -17.2343   19.0672 C   0  0  0  0  0  0  0  0  0  0  0  0
    8.1395  -16.3507   19.0895 C   0  0  0  0  0  0  0  0  0  0  0  0
    8.4723  -14.9394   18.6573 C   0  0  0  0  0  0  0  0  0  0  0  0
    7.2252  -14.0950   18.5091 C   0  0  0  0  0  0  0  0  0  0  0  0
    7.5228  -12.7453   18.0962 N   0  0  0  0  0  0  0  0  0  0  0  0
   11.0431  -17.4821   20.8050 C   0  0  0  0  0  0  0  0  0  0  0  0
   12.0651  -17.6496   20.1191 O   0  0  0  0  0  0  0  0  0  0  0  0
   11.1925  -16.8666   22.0721 N   0  0  0  0  0  0  0  0  0  0  0  0
   12.4823  -16.3202   22.4256 C   0  0  0  0  0  0  0  0  0  0  0  0
   13.2148  -17.2794   23.2604 C   0  0  0  0  0  0  0  0  0  0  0  0
   12.9691  -17.4927   24.4763 O   0  0  0  0  0  0  0  0  0  0  0  0
   15.7889  -19.8443   22.3746 C   0  0  0  0  0  0  0  0  0  0  0  0
   15.0693  -18.9720   23.3791 C   0  0  2  0  0  0  0  0  0  0  0  0
   14.2817  -18.0193   22.6387 N   0  0  0  0  0  0  0  0  0  0  0  0
   15.9776  -18.2654   24.2783 C   0  0  0  0  0  0  0  0  0  0  0  0
   16.3220  -17.0662   24.0777 O   0  0  0  0  0  0  0  0  0  0  0  0
   16.4846  -18.9159   25.3880 O   0  0  0  0  0  0  0  0  0  0  0  0
  2  1  1  1
  3  2  1  0
  4  3  1  0
  5  4  1  0
  6  5  1  0
  7  6  1  0
  8  9  2  0
  8  2  1  0
 10  8  1  0
 11 10  1  0
 11 12  1  0
 12 16  1  0
 12 13  2  0
 15 14  1  6
 15 17  1  0
 16 15  1  0
 17 19  1  0
 18 17  2  0
M  END
$$$$
