GPL.pdb
     RDKit          3D

 20 20  0  0  1  0  0  0  0  0999 V2000
   27.6350  -17.1605  -15.2038 N   0  0  0  0  0  0  0  0  0  0  0  0
   27.8741  -18.5218  -14.8451 C   0  0  0  0  0  0  0  0  0  0  0  0
   26.9581  -19.1008  -13.8573 C   0  0  0  0  0  0  0  0  0  0  0  0
   26.5505  -18.3421  -12.9219 O   0  0  0  0  0  0  0  0  0  0  0  0
   26.4807  -20.4392  -13.8466 N   0  0  0  0  0  0  0  0  0  0  0  0
   26.7981  -21.3794  -14.8597 C   0  0  0  0  0  0  0  0  0  0  0  0
   25.7920  -22.4922  -14.6716 C   0  0  0  0  0  0  0  0  0  0  0  0
   25.4248  -22.4330  -13.2126 C   0  0  0  0  0  0  0  0  0  0  0  0
   25.6635  -21.0007  -12.8501 C   0  0  1  0  0  0  0  0  0  0  0  0
   26.2087  -20.8721  -11.4714 C   0  0  0  0  0  0  0  0  0  0  0  0
   27.3859  -21.2509  -11.3039 O   0  0  0  0  0  0  0  0  0  0  0  0
   27.7482  -17.8990   -7.5700 C   0  0  0  0  0  0  0  0  0  0  0  0
   27.6712  -19.2337   -8.4015 C   0  0  1  0  0  0  0  0  0  0  0  0
   28.8760  -19.9923   -7.9870 C   0  0  0  0  0  0  0  0  0  0  0  0
   26.3422  -19.8048   -8.1953 C   0  0  0  0  0  0  0  0  0  0  0  0
   25.8003  -20.9023   -9.0079 C   0  0  2  0  0  0  0  0  0  0  0  0
   25.4928  -20.3633  -10.3816 N   0  0  0  0  0  0  0  0  0  0  0  0
   24.5212  -21.4303   -8.5154 C   0  0  0  0  0  0  0  0  0  0  0  0
   23.4037  -21.1604   -9.0145 O   0  0  0  0  0  0  0  0  0  0  0  0
   24.4755  -22.3125   -7.4009 O   0  0  0  0  0  0  0  0  0  0  0  0
  2  1  1  0
  3  2  1  0
  4  3  2  0
  5  6  1  0
  5  3  1  0
  7  6  1  0
  8  9  1  0
  8  7  1  0
  9 10  1  1
  9  5  1  0
 10 17  1  0
 11 10  2  0
 13 12  1  1
 13 14  1  0
 15 13  1  0
 16 15  1  1
 17 16  1  0
 18 20  1  0
 18 16  1  0
 19 18  2  0
M  END
$$$$
