GPL.pdb
     RDKit          3D

 20 20  0  0  1  0  0  0  0  0999 V2000
   18.6868  -14.3228  -18.0479 N   0  0  0  0  0  0  0  0  0  0  0  0
   18.5046  -13.0500  -18.6689 C   0  0  0  0  0  0  0  0  0  0  0  0
   18.7219  -11.8772  -17.8160 C   0  0  0  0  0  0  0  0  0  0  0  0
   18.8868  -12.0809  -16.5719 O   0  0  0  0  0  0  0  0  0  0  0  0
   18.7649  -10.5254  -18.2521 N   0  0  0  0  0  0  0  0  0  0  0  0
   18.6302  -10.1493  -19.6128 C   0  0  0  0  0  0  0  0  0  0  0  0
   19.1275   -8.7223  -19.6619 C   0  0  0  0  0  0  0  0  0  0  0  0
   18.8844   -8.1850  -18.2764 C   0  0  0  0  0  0  0  0  0  0  0  0
   18.9277   -9.4080  -17.4148 C   0  0  1  0  0  0  0  0  0  0  0  0
   17.9378   -9.3280  -16.3066 C   0  0  0  0  0  0  0  0  0  0  0  0
   16.9338  -10.0622  -16.4069 O   0  0  0  0  0  0  0  0  0  0  0  0
   17.0815  -11.0119  -11.2178 C   0  0  0  0  0  0  0  0  0  0  0  0
   16.3817   -9.8801  -12.0593 C   0  0  1  0  0  0  0  0  0  0  0  0
   15.9961   -8.8620  -11.0526 C   0  0  0  0  0  0  0  0  0  0  0  0
   17.2840   -9.5217  -13.1513 C   0  0  0  0  0  0  0  0  0  0  0  0
   16.9656   -8.5019  -14.1598 C   0  0  2  0  0  0  0  0  0  0  0  0
   18.0677   -8.4967  -15.1881 N   0  0  0  0  0  0  0  0  0  0  0  0
   16.9376   -7.1320  -13.6307 C   0  0  0  0  0  0  0  0  0  0  0  0
   17.9486   -6.4039  -13.4945 O   0  0  0  0  0  0  0  0  0  0  0  0
   15.7141   -6.5295  -13.2271 O   0  0  0  0  0  0  0  0  0  0  0  0
  2  1  1  0
  3  2  1  0
  4  3  2  0
  5  6  1  0
  5  3  1  0
  7  6  1  0
  8  9  1  0
  8  7  1  0
  9 10  1  1
  9  5  1  0
 10 17  1  0
 11 10  2  0
 13 12  1  1
 13 14  1  0
 15 13  1  0
 16 15  1  1
 17 16  1  0
 18 20  1  0
 18 16  1  0
 19 18  2  0
M  END
$$$$
