GPL.pdb
     RDKit          3D

 20 20  0  0  1  0  0  0  0  0999 V2000
   29.5835  -22.4599  -17.0829 N   0  0  0  0  0  0  0  0  0  0  0  0
   28.6305  -21.4123  -17.2657 C   0  0  0  0  0  0  0  0  0  0  0  0
   28.0809  -20.8175  -16.0434 C   0  0  0  0  0  0  0  0  0  0  0  0
   28.0334  -21.5509  -15.0058 O   0  0  0  0  0  0  0  0  0  0  0  0
   27.5921  -19.4900  -15.9088 N   0  0  0  0  0  0  0  0  0  0  0  0
   27.6465  -18.5380  -16.9584 C   0  0  0  0  0  0  0  0  0  0  0  0
   27.4083  -17.2095  -16.2770 C   0  0  0  0  0  0  0  0  0  0  0  0
   26.5988  -17.5474  -15.0531 C   0  0  0  0  0  0  0  0  0  0  0  0
   26.9921  -18.9601  -14.7533 C   0  0  1  0  0  0  0  0  0  0  0  0
   25.8366  -19.7511  -14.2496 C   0  0  0  0  0  0  0  0  0  0  0  0
   25.2150  -20.4242  -15.0968 O   0  0  0  0  0  0  0  0  0  0  0  0
   24.6495  -20.8028   -8.7367 C   0  0  0  0  0  0  0  0  0  0  0  0
   25.2272  -20.3690  -10.1356 C   0  0  1  0  0  0  0  0  0  0  0  0
   26.6981  -20.4141   -9.9532 C   0  0  0  0  0  0  0  0  0  0  0  0
   24.5918  -21.2039  -11.1524 C   0  0  0  0  0  0  0  0  0  0  0  0
   24.3307  -20.7471  -12.5242 C   0  0  2  0  0  0  0  0  0  0  0  0
   25.4200  -19.7807  -12.9137 N   0  0  0  0  0  0  0  0  0  0  0  0
   23.0827  -19.9863  -12.6694 C   0  0  0  0  0  0  0  0  0  0  0  0
   21.9364  -20.4689  -12.5154 O   0  0  0  0  0  0  0  0  0  0  0  0
   23.1042  -18.6046  -13.0058 O   0  0  0  0  0  0  0  0  0  0  0  0
  2  1  1  0
  3  2  1  0
  4  3  2  0
  5  6  1  0
  5  3  1  0
  7  6  1  0
  8  9  1  0
  8  7  1  0
  9 10  1  6
  9  5  1  0
 10 17  1  0
 11 10  2  0
 13 12  1  1
 13 14  1  0
 15 13  1  0
 16 15  1  1
 17 16  1  0
 18 20  1  0
 18 16  1  0
 19 18  2  0
M  END
$$$$
