GPL.pdb
     RDKit          3D

 20 20  0  0  1  0  0  0  0  0999 V2000
   20.4834  -13.2192  -18.3877 N   0  0  0  0  0  0  0  0  0  0  0  0
   20.5654  -11.7941  -18.4276 C   0  0  0  0  0  0  0  0  0  0  0  0
   20.4917  -11.1056  -17.1351 C   0  0  0  0  0  0  0  0  0  0  0  0
   19.8222  -11.6661  -16.2109 O   0  0  0  0  0  0  0  0  0  0  0  0
   21.1015   -9.8623  -16.8166 N   0  0  0  0  0  0  0  0  0  0  0  0
   21.8577   -9.1120  -17.7527 C   0  0  0  0  0  0  0  0  0  0  0  0
   22.6244   -8.1180  -16.9098 C   0  0  0  0  0  0  0  0  0  0  0  0
   21.7791   -7.9291  -15.6781 C   0  0  0  0  0  0  0  0  0  0  0  0
   21.0275   -9.2188  -15.5690 C   0  0  1  0  0  0  0  0  0  0  0  0
   19.6399   -8.9998  -15.0781 C   0  0  0  0  0  0  0  0  0  0  0  0
   18.7307   -9.0937  -15.9276 O   0  0  0  0  0  0  0  0  0  0  0  0
   16.1269  -11.0454  -11.0178 C   0  0  0  0  0  0  0  0  0  0  0  0
   16.1512   -9.7196  -11.8666 C   0  0  1  0  0  0  0  0  0  0  0  0
   15.6926   -8.6727  -10.9219 C   0  0  0  0  0  0  0  0  0  0  0  0
   17.4709   -9.6172  -12.4853 C   0  0  0  0  0  0  0  0  0  0  0  0
   17.8521   -8.5312  -13.3985 C   0  0  2  0  0  0  0  0  0  0  0  0
   19.3076   -8.7023  -13.7514 N   0  0  0  0  0  0  0  0  0  0  0  0
   17.7646   -7.1931  -12.7992 C   0  0  0  0  0  0  0  0  0  0  0  0
   18.6744   -6.6583  -12.1231 O   0  0  0  0  0  0  0  0  0  0  0  0
   16.5973   -6.3964  -12.9580 O   0  0  0  0  0  0  0  0  0  0  0  0
  2  1  1  0
  3  2  1  0
  4  3  2  0
  5  6  1  0
  5  3  1  0
  7  6  1  0
  8  9  1  0
  8  7  1  0
  9 10  1  6
  9  5  1  0
 10 17  1  0
 11 10  2  0
 13 12  1  1
 13 14  1  0
 15 13  1  0
 16 15  1  1
 17 16  1  0
 18 20  1  0
 18 16  1  0
 19 18  2  0
M  END
$$$$
