GPL.pdb
     RDKit          3D

 20 20  0  0  1  0  0  0  0  0999 V2000
   18.9168  -12.1525  -18.8309 N   0  0  0  0  0  0  0  0  0  0  0  0
   19.2496  -10.7953  -19.1245 C   0  0  0  0  0  0  0  0  0  0  0  0
   20.0454  -10.0914  -18.1139 C   0  0  0  0  0  0  0  0  0  0  0  0
   19.6428  -10.1468  -16.9092 O   0  0  0  0  0  0  0  0  0  0  0  0
   21.2317   -9.3475  -18.3563 N   0  0  0  0  0  0  0  0  0  0  0  0
   21.8113   -9.2181  -19.6440 C   0  0  0  0  0  0  0  0  0  0  0  0
   23.2127   -8.7161  -19.3794 C   0  0  0  0  0  0  0  0  0  0  0  0
   23.1146   -7.9823  -18.0683 C   0  0  0  0  0  0  0  0  0  0  0  0
   21.9628   -8.6467  -17.3814 C   0  0  1  0  0  0  0  0  0  0  0  0
   21.1566   -7.6685  -16.6018 C   0  0  0  0  0  0  0  0  0  0  0  0
   20.0699   -7.3197  -17.1064 O   0  0  0  0  0  0  0  0  0  0  0  0
   20.6646   -7.2311  -11.5977 C   0  0  0  0  0  0  0  0  0  0  0  0
   20.1430   -7.9327  -12.9070 C   0  0  1  0  0  0  0  0  0  0  0  0
   19.1734   -8.9427  -12.4187 C   0  0  0  0  0  0  0  0  0  0  0  0
   19.7043   -6.8832  -13.8240 C   0  0  0  0  0  0  0  0  0  0  0  0
   20.6214   -6.1413  -14.6999 C   0  0  2  0  0  0  0  0  0  0  0  0
   21.5401   -7.1327  -15.3670 N   0  0  0  0  0  0  0  0  0  0  0  0
   21.5153   -5.2231  -13.9821 C   0  0  0  0  0  0  0  0  0  0  0  0
   21.1449   -4.1620  -13.4275 O   0  0  0  0  0  0  0  0  0  0  0  0
   22.9067   -5.4961  -13.8708 O   0  0  0  0  0  0  0  0  0  0  0  0
  2  1  1  0
  3  2  1  0
  4  3  2  0
  5  6  1  0
  5  3  1  0
  7  6  1  0
  8  9  1  0
  8  7  1  0
  9 10  1  6
  9  5  1  0
 10 17  1  0
 11 10  2  0
 13 12  1  1
 13 14  1  0
 15 13  1  0
 16 15  1  1
 17 16  1  0
 18 20  1  0
 18 16  1  0
 19 18  2  0
M  END
$$$$
