GPL.pdb
     RDKit          3D

 20 20  0  0  1  0  0  0  0  0999 V2000
   24.4627  -20.6442   -8.9178 N   0  0  0  0  0  0  0  0  0  0  0  0
   25.6474  -21.0720   -9.5905 C   0  0  0  0  0  0  0  0  0  0  0  0
   25.9323  -20.4232  -10.8742 C   0  0  0  0  0  0  0  0  0  0  0  0
   25.0445  -19.6451  -11.3463 O   0  0  0  0  0  0  0  0  0  0  0  0
   27.1147  -20.5841  -11.6456 N   0  0  0  0  0  0  0  0  0  0  0  0
   28.2367  -21.3235  -11.1922 C   0  0  0  0  0  0  0  0  0  0  0  0
   29.3624  -20.9038  -12.1102 C   0  0  0  0  0  0  0  0  0  0  0  0
   28.6802  -20.4899  -13.3871 C   0  0  0  0  0  0  0  0  0  0  0  0
   27.3209  -20.0586  -12.9330 C   0  0  1  0  0  0  0  0  0  0  0  0
   26.2726  -20.4356  -13.9197 C   0  0  0  0  0  0  0  0  0  0  0  0
   25.6791  -21.5135  -13.7123 O   0  0  0  0  0  0  0  0  0  0  0  0
   21.5095  -20.4421  -14.7958 C   0  0  0  0  0  0  0  0  0  0  0  0
   22.1620  -19.1138  -15.3329 C   0  0  1  0  0  0  0  0  0  0  0  0
   21.2782  -18.0393  -14.8199 C   0  0  0  0  0  0  0  0  0  0  0  0
   23.5751  -19.1361  -14.9619 C   0  0  0  0  0  0  0  0  0  0  0  0
   24.5880  -19.9141  -15.6879 C   0  0  2  0  0  0  0  0  0  0  0  0
   25.9255  -19.6682  -15.0376 N   0  0  0  0  0  0  0  0  0  0  0  0
   24.7667  -19.4988  -17.0854 C   0  0  0  0  0  0  0  0  0  0  0  0
   24.2968  -20.1114  -18.0726 O   0  0  0  0  0  0  0  0  0  0  0  0
   25.5119  -18.3321  -17.4113 O   0  0  0  0  0  0  0  0  0  0  0  0
  2  1  1  0
  3  2  1  0
  4  3  2  0
  5  6  1  0
  5  3  1  0
  7  6  1  0
  8  9  1  0
  8  7  1  0
  9 10  1  6
  9  5  1  0
 10 17  1  0
 11 10  2  0
 13 12  1  1
 13 14  1  0
 15 13  1  0
 16 15  1  1
 17 16  1  0
 18 20  1  0
 18 16  1  0
 19 18  2  0
M  END
$$$$
