GPL.pdb
     RDKit          3D

 20 20  0  0  1  0  0  0  0  0999 V2000
   23.9765  -13.9722  -15.1284 N   0  0  0  0  0  0  0  0  0  0  0  0
   25.2344  -14.5493  -15.4800 C   0  0  0  0  0  0  0  0  0  0  0  0
   25.3404  -16.0049  -15.3380 C   0  0  0  0  0  0  0  0  0  0  0  0
   24.5231  -16.5770  -14.5498 O   0  0  0  0  0  0  0  0  0  0  0  0
   26.2775  -16.8415  -16.0021 N   0  0  0  0  0  0  0  0  0  0  0  0
   27.1940  -16.3568  -16.9696 C   0  0  0  0  0  0  0  0  0  0  0  0
   27.6881  -17.5979  -17.6779 C   0  0  0  0  0  0  0  0  0  0  0  0
   27.5418  -18.7008  -16.6633 C   0  0  0  0  0  0  0  0  0  0  0  0
   26.4282  -18.2222  -15.7852 C   0  0  1  0  0  0  0  0  0  0  0  0
   26.6591  -18.5937  -14.3628 C   0  0  0  0  0  0  0  0  0  0  0  0
   27.4276  -17.8540  -13.7151 O   0  0  0  0  0  0  0  0  0  0  0  0
   26.2396  -19.5642   -9.2102 C   0  0  0  0  0  0  0  0  0  0  0  0
   25.6231  -20.7202  -10.0833 C   0  0  1  0  0  0  0  0  0  0  0  0
   24.4188  -21.1447   -9.3295 C   0  0  0  0  0  0  0  0  0  0  0  0
   25.4901  -20.2176  -11.4488 C   0  0  0  0  0  0  0  0  0  0  0  0
   26.6172  -20.1192  -12.3861 C   0  0  2  0  0  0  0  0  0  0  0  0
   26.0772  -19.6975  -13.7287 N   0  0  0  0  0  0  0  0  0  0  0  0
   27.2941  -21.3983  -12.6372 C   0  0  0  0  0  0  0  0  0  0  0  0
   26.8138  -22.3322  -13.3213 O   0  0  0  0  0  0  0  0  0  0  0  0
   28.5836  -21.6608  -12.0978 O   0  0  0  0  0  0  0  0  0  0  0  0
  2  1  1  0
  3  2  1  0
  4  3  2  0
  5  6  1  0
  5  3  1  0
  7  6  1  0
  8  9  1  0
  8  7  1  0
  9 10  1  1
  9  5  1  0
 10 17  1  0
 11 10  2  0
 13 12  1  1
 13 14  1  0
 15 13  1  0
 16 15  1  1
 17 16  1  0
 18 20  1  0
 18 16  1  0
 19 18  2  0
M  END
$$$$
