GPL.pdb
     RDKit          3D

 20 20  0  0  1  0  0  0  0  0999 V2000
   25.7953  -24.1766  -16.2538 N   0  0  0  0  0  0  0  0  0  0  0  0
   25.6625  -22.7673  -16.0664 C   0  0  0  0  0  0  0  0  0  0  0  0
   26.2626  -22.2176  -14.8466 C   0  0  0  0  0  0  0  0  0  0  0  0
   26.5704  -23.0377  -13.9251 O   0  0  0  0  0  0  0  0  0  0  0  0
   26.5332  -20.8454  -14.5956 N   0  0  0  0  0  0  0  0  0  0  0  0
   26.2711  -19.8220  -15.5417 C   0  0  0  0  0  0  0  0  0  0  0  0
   27.0569  -18.6320  -15.0392 C   0  0  0  0  0  0  0  0  0  0  0  0
   27.1610  -18.8432  -13.5520 C   0  0  0  0  0  0  0  0  0  0  0  0
   27.0692  -20.3296  -13.4028 C   0  0  1  0  0  0  0  0  0  0  0  0
   26.3097  -20.7077  -12.1802 C   0  0  0  0  0  0  0  0  0  0  0  0
   25.1329  -21.0847  -12.3539 O   0  0  0  0  0  0  0  0  0  0  0  0
   26.7204  -19.4752   -6.8466 C   0  0  0  0  0  0  0  0  0  0  0  0
   27.5665  -20.1239   -8.0051 C   0  0  1  0  0  0  0  0  0  0  0  0
   28.8960  -20.3659   -7.3949 C   0  0  0  0  0  0  0  0  0  0  0  0
   26.7945  -21.2428   -8.5407 C   0  0  0  0  0  0  0  0  0  0  0  0
   25.9607  -21.1445   -9.7464 C   0  0  2  0  0  0  0  0  0  0  0  0
   26.8290  -20.6647  -10.8812 N   0  0  0  0  0  0  0  0  0  0  0  0
   24.8870  -20.1472   -9.6461 C   0  0  0  0  0  0  0  0  0  0  0  0
   24.9519  -18.9862  -10.1136 O   0  0  0  0  0  0  0  0  0  0  0  0
   23.6644  -20.4537   -8.9873 O   0  0  0  0  0  0  0  0  0  0  0  0
  2  1  1  0
  3  2  1  0
  4  3  2  0
  5  6  1  0
  5  3  1  0
  7  6  1  0
  8  9  1  0
  8  7  1  0
  9 10  1  1
  9  5  1  0
 10 17  1  0
 11 10  2  0
 13 12  1  1
 13 14  1  0
 15 13  1  0
 16 15  1  1
 17 16  1  0
 18 20  1  0
 18 16  1  0
 19 18  2  0
M  END
$$$$
