GPL.pdb
     RDKit          3D

 20 20  0  0  1  0  0  0  0  0999 V2000
   26.3470  -24.3492  -15.7189 N   0  0  0  0  0  0  0  0  0  0  0  0
   25.7668  -23.0581  -15.5302 C   0  0  0  0  0  0  0  0  0  0  0  0
   26.3858  -22.2147  -14.5028 C   0  0  0  0  0  0  0  0  0  0  0  0
   27.1936  -22.7736  -13.6955 O   0  0  0  0  0  0  0  0  0  0  0  0
   26.1656  -20.8225  -14.3229 N   0  0  0  0  0  0  0  0  0  0  0  0
   25.3385  -20.0551  -15.1820 C   0  0  0  0  0  0  0  0  0  0  0  0
   25.7053  -18.6201  -14.8779 C   0  0  0  0  0  0  0  0  0  0  0  0
   26.2005  -18.6453  -13.4562 C   0  0  0  0  0  0  0  0  0  0  0  0
   26.7114  -20.0421  -13.2888 C   0  0  1  0  0  0  0  0  0  0  0  0
   26.4349  -20.5624  -11.9223 C   0  0  0  0  0  0  0  0  0  0  0  0
   25.4816  -21.3606  -11.8161 O   0  0  0  0  0  0  0  0  0  0  0  0
   28.9587  -20.2432   -6.3224 C   0  0  0  0  0  0  0  0  0  0  0  0
   27.6398  -20.7229   -7.0358 C   0  0  1  0  0  0  0  0  0  0  0  0
   26.5519  -20.0628   -6.2747 C   0  0  0  0  0  0  0  0  0  0  0  0
   27.7927  -20.4623   -8.4654 C   0  0  0  0  0  0  0  0  0  0  0  0
   26.7978  -20.8621   -9.4698 C   0  0  2  0  0  0  0  0  0  0  0  0
   27.1658  -20.2148  -10.7804 N   0  0  0  0  0  0  0  0  0  0  0  0
   25.4388  -20.3847   -9.1823 C   0  0  0  0  0  0  0  0  0  0  0  0
   24.5303  -21.0898   -8.6843 O   0  0  0  0  0  0  0  0  0  0  0  0
   25.0613  -19.0426   -9.4633 O   0  0  0  0  0  0  0  0  0  0  0  0
  2  1  1  0
  3  2  1  0
  4  3  2  0
  5  6  1  0
  5  3  1  0
  7  6  1  0
  8  9  1  0
  8  7  1  0
  9 10  1  1
  9  5  1  0
 10 17  1  0
 11 10  2  0
 13 12  1  1
 13 14  1  0
 15 13  1  0
 16 15  1  1
 17 16  1  0
 18 20  1  0
 18 16  1  0
 19 18  2  0
M  END
$$$$
