GPL.pdb
     RDKit          3D

 20 20  0  0  1  0  0  0  0  0999 V2000
   24.1329  -23.9831  -14.4194 N   0  0  0  0  0  0  0  0  0  0  0  0
   24.3267  -22.5922  -14.1606 C   0  0  0  0  0  0  0  0  0  0  0  0
   25.4416  -22.2489  -13.2723 C   0  0  0  0  0  0  0  0  0  0  0  0
   25.8252  -23.1351  -12.4453 O   0  0  0  0  0  0  0  0  0  0  0  0
   26.1376  -21.0102  -13.2481 N   0  0  0  0  0  0  0  0  0  0  0  0
   25.8866  -19.9663  -14.1745 C   0  0  0  0  0  0  0  0  0  0  0  0
   27.0802  -19.0477  -14.0420 C   0  0  0  0  0  0  0  0  0  0  0  0
   27.5729  -19.2619  -12.6354 C   0  0  0  0  0  0  0  0  0  0  0  0
   27.1316  -20.6566  -12.3192 C   0  0  1  0  0  0  0  0  0  0  0  0
   26.7100  -20.7847  -10.8977 C   0  0  0  0  0  0  0  0  0  0  0  0
   25.4895  -20.9468  -10.6947 O   0  0  0  0  0  0  0  0  0  0  0  0
   29.3363  -20.8175   -5.3319 C   0  0  0  0  0  0  0  0  0  0  0  0
   27.9157  -20.7862   -6.0100 C   0  0  1  0  0  0  0  0  0  0  0  0
   27.2432  -19.6164   -5.3952 C   0  0  0  0  0  0  0  0  0  0  0  0
   28.1171  -20.8356   -7.4563 C   0  0  0  0  0  0  0  0  0  0  0  0
   27.0135  -20.9190   -8.4226 C   0  0  2  0  0  0  0  0  0  0  0  0
   27.5839  -20.7344   -9.8056 N   0  0  0  0  0  0  0  0  0  0  0  0
   26.0174  -19.8490   -8.2801 C   0  0  0  0  0  0  0  0  0  0  0  0
   26.1976  -18.6608   -8.6356 O   0  0  0  0  0  0  0  0  0  0  0  0
   24.7415  -20.1100   -7.7086 O   0  0  0  0  0  0  0  0  0  0  0  0
  2  1  1  0
  3  2  1  0
  4  3  2  0
  5  6  1  0
  5  3  1  0
  7  6  1  0
  8  9  1  0
  8  7  1  0
  9 10  1  1
  9  5  1  0
 10 17  1  0
 11 10  2  0
 13 12  1  1
 13 14  1  0
 15 13  1  0
 16 15  1  1
 17 16  1  0
 18 20  1  0
 18 16  1  0
 19 18  2  0
M  END
$$$$
