EPP.pdb
     RDKit          3D

 24 25  0  0  1  0  0  0  0  0999 V2000
   14.8029  -25.1151   -9.3404 N   0  0  0  0  0  0  0  0  0  0  0  0
   15.0524  -24.4349   -8.1125 C   0  0  1  0  0  0  0  0  0  0  0  0
   13.8344  -23.6398   -7.7099 C   0  0  0  0  0  0  0  0  0  0  0  0
   13.4724  -22.5061   -8.6097 C   0  0  0  0  0  0  0  0  0  0  0  0
   12.3136  -22.6531   -9.4750 C   0  0  0  0  0  0  0  0  0  0  0  0
   11.9356  -21.8180  -10.2913 O   0  0  0  0  0  0  0  0  0  0  0  0
   15.4052  -25.4135   -7.0291 C   0  0  0  0  0  0  0  0  0  0  0  0
   14.4340  -25.9659   -6.4883 O   0  0  0  0  0  0  0  0  0  0  0  0
   11.5465  -23.8346   -9.3918 O   0  0  0  0  0  0  0  0  0  0  0  0
   16.7246  -25.6484   -6.6942 N   0  0  0  0  0  0  0  0  0  0  0  0
   17.8262  -25.5892   -7.6852 C   0  0  0  0  0  0  0  0  0  0  0  0
   18.8718  -24.8186   -6.9243 C   0  0  0  0  0  0  0  0  0  0  0  0
   18.4854  -24.9269   -5.4711 C   0  0  0  0  0  0  0  0  0  0  0  0
   17.4455  -26.0680   -5.5091 C   0  0  1  0  0  0  0  0  0  0  0  0
   16.6707  -26.0529   -4.2631 C   0  0  0  0  0  0  0  0  0  0  0  0
   16.1542  -24.8964   -3.9941 O   0  0  0  0  0  0  0  0  0  0  0  0
   16.4113  -27.0702   -3.3526 N   0  0  0  0  0  0  0  0  0  0  0  0
   16.4080  -28.5063   -3.8263 C   0  0  0  0  0  0  0  0  0  0  0  0
   17.3815  -29.1051   -2.8004 C   0  0  0  0  0  0  0  0  0  0  0  0
   17.4137  -28.1040   -1.6333 C   0  0  0  0  0  0  0  0  0  0  0  0
   16.1567  -27.3041   -1.9805 C   0  0  1  0  0  0  0  0  0  0  0  0
   15.7910  -26.2800   -1.0585 C   0  0  0  0  0  0  0  0  0  0  0  0
   14.7134  -26.4135   -0.1463 O   0  0  0  0  0  0  0  0  0  0  0  0
   16.3840  -25.1953   -0.9809 O   0  0  0  0  0  0  0  0  0  0  0  0
  2  1  1  6
  3  2  1  0
  3  4  1  0
  4  5  1  0
  5  9  1  0
  5  6  2  0
  7  2  1  0
  8  7  2  0
 10  7  1  0
 10 14  1  0
 11 12  1  0
 11 10  1  0
 12 13  1  0
 13 14  1  0
 14 15  1  1
 15 16  2  0
 17 15  1  0
 17 21  1  0
 18 19  1  0
 18 17  1  0
 19 20  1  0
 20 21  1  0
 21 22  1  1
 22 24  2  0
 22 23  1  0
M  END
$$$$
