EPP.pdb
     RDKit          3D

 24 25  0  0  1  0  0  0  0  0999 V2000
   24.9873  -22.3144  -12.4834 N   0  0  0  0  0  0  0  0  0  0  0  0
   25.7428  -21.2315  -11.9456 C   0  0  1  0  0  0  0  0  0  0  0  0
   24.8534  -20.0256  -11.7645 C   0  0  0  0  0  0  0  0  0  0  0  0
   23.8642  -19.7788  -12.8538 C   0  0  0  0  0  0  0  0  0  0  0  0
   22.4888  -20.2013  -12.6474 C   0  0  0  0  0  0  0  0  0  0  0  0
   21.7955  -20.7712  -13.4849 O   0  0  0  0  0  0  0  0  0  0  0  0
   26.3553  -21.6172  -10.6296 C   0  0  0  0  0  0  0  0  0  0  0  0
   25.5402  -21.9074   -9.7396 O   0  0  0  0  0  0  0  0  0  0  0  0
   21.8787  -19.9503  -11.4000 O   0  0  0  0  0  0  0  0  0  0  0  0
   27.7273  -21.6333  -10.4688 N   0  0  0  0  0  0  0  0  0  0  0  0
   28.6449  -22.2294  -11.4698 C   0  0  0  0  0  0  0  0  0  0  0  0
   29.7254  -21.1839  -11.5448 C   0  0  0  0  0  0  0  0  0  0  0  0
   29.5895  -20.3620  -10.2882 C   0  0  0  0  0  0  0  0  0  0  0  0
   28.6645  -21.2533   -9.4310 C   0  0  1  0  0  0  0  0  0  0  0  0
   28.1024  -20.4509   -8.3386 C   0  0  0  0  0  0  0  0  0  0  0  0
   27.5199  -19.3681   -8.7446 O   0  0  0  0  0  0  0  0  0  0  0  0
   28.0982  -20.6757   -6.9672 N   0  0  0  0  0  0  0  0  0  0  0  0
   28.2017  -22.0920   -6.4475 C   0  0  0  0  0  0  0  0  0  0  0  0
   29.3749  -21.9105   -5.4731 C   0  0  0  0  0  0  0  0  0  0  0  0
   29.4498  -20.3990   -5.1990 C   0  0  0  0  0  0  0  0  0  0  0  0
   28.0692  -20.0005   -5.7241 C   0  0  1  0  0  0  0  0  0  0  0  0
   27.7159  -18.6270   -5.5784 C   0  0  0  0  0  0  0  0  0  0  0  0
   26.7535  -18.1742   -4.6403 O   0  0  0  0  0  0  0  0  0  0  0  0
   28.2202  -17.7223   -6.2577 O   0  0  0  0  0  0  0  0  0  0  0  0
  2  1  1  1
  3  2  1  0
  3  4  1  0
  4  5  1  0
  5  9  1  0
  5  6  2  0
  7  2  1  0
  8  7  2  0
 10  7  1  0
 10 14  1  0
 11 12  1  0
 11 10  1  0
 12 13  1  0
 13 14  1  0
 14 15  1  1
 15 16  2  0
 17 15  1  0
 17 21  1  0
 18 19  1  0
 18 17  1  0
 19 20  1  0
 20 21  1  0
 21 22  1  6
 22 24  2  0
 22 23  1  0
M  END
$$$$
