EPP.pdb
     RDKit          3D

 24 25  0  0  1  0  0  0  0  0999 V2000
   27.0424  -22.9278  -17.9712 N   0  0  0  0  0  0  0  0  0  0  0  0
   26.5355  -21.6682  -17.5364 C   0  0  1  0  0  0  0  0  0  0  0  0
   25.1812  -21.4193  -18.1545 C   0  0  0  0  0  0  0  0  0  0  0  0
   24.5260  -20.1307  -17.7855 C   0  0  0  0  0  0  0  0  0  0  0  0
   23.1963  -19.8574  -18.3055 C   0  0  0  0  0  0  0  0  0  0  0  0
   22.3259  -19.2267  -17.7128 O   0  0  0  0  0  0  0  0  0  0  0  0
   26.4287  -21.6305  -16.0387 C   0  0  0  0  0  0  0  0  0  0  0  0
   25.6820  -22.4915  -15.5469 O   0  0  0  0  0  0  0  0  0  0  0  0
   22.8524  -20.3418  -19.5855 O   0  0  0  0  0  0  0  0  0  0  0  0
   27.1270  -20.6904  -15.3060 N   0  0  0  0  0  0  0  0  0  0  0  0
   28.4352  -20.1444  -15.7417 C   0  0  0  0  0  0  0  0  0  0  0  0
   28.2521  -18.6754  -15.4682 C   0  0  0  0  0  0  0  0  0  0  0  0
   27.1046  -18.5788  -14.4952 C   0  0  0  0  0  0  0  0  0  0  0  0
   26.9754  -20.0421  -14.0188 C   0  0  1  0  0  0  0  0  0  0  0  0
   25.6703  -20.2232  -13.3731 C   0  0  0  0  0  0  0  0  0  0  0  0
   24.6803  -19.7910  -14.0869 O   0  0  0  0  0  0  0  0  0  0  0  0
   25.3453  -20.7792  -12.1416 N   0  0  0  0  0  0  0  0  0  0  0  0
   26.3397  -21.6858  -11.4517 C   0  0  0  0  0  0  0  0  0  0  0  0
   26.3885  -20.9972  -10.0797 C   0  0  0  0  0  0  0  0  0  0  0  0
   25.1104  -20.1452  -10.0033 C   0  0  0  0  0  0  0  0  0  0  0  0
   24.3336  -20.7906  -11.1524 C   0  0  1  0  0  0  0  0  0  0  0  0
   23.0118  -20.3017  -11.3678 C   0  0  0  0  0  0  0  0  0  0  0  0
   22.7409  -19.0858  -12.0456 O   0  0  0  0  0  0  0  0  0  0  0  0
   21.9976  -20.8986  -10.9813 O   0  0  0  0  0  0  0  0  0  0  0  0
  2  1  1  1
  3  2  1  0
  3  4  1  0
  4  5  1  0
  5  9  1  0
  5  6  2  0
  7  2  1  0
  8  7  2  0
 10  7  1  0
 10 14  1  0
 11 12  1  0
 11 10  1  0
 12 13  1  0
 13 14  1  0
 14 15  1  6
 15 16  2  0
 17 15  1  0
 17 21  1  0
 18 19  1  0
 18 17  1  0
 19 20  1  0
 20 21  1  0
 21 22  1  6
 22 24  2  0
 22 23  1  0
M  END
$$$$
