EPP.pdb
     RDKit          3D

 24 25  0  0  1  0  0  0  0  0999 V2000
   27.9607  -22.6692  -17.9456 N   0  0  0  0  0  0  0  0  0  0  0  0
   27.3611  -21.4195  -17.6120 C   0  0  1  0  0  0  0  0  0  0  0  0
   26.1438  -21.1883  -18.4738 C   0  0  0  0  0  0  0  0  0  0  0  0
   25.0320  -20.4249  -17.8359 C   0  0  0  0  0  0  0  0  0  0  0  0
   24.5841  -19.1960  -18.4701 C   0  0  0  0  0  0  0  0  0  0  0  0
   24.8048  -18.8868  -19.6373 O   0  0  0  0  0  0  0  0  0  0  0  0
   26.9734  -21.3904  -16.1612 C   0  0  0  0  0  0  0  0  0  0  0  0
   26.2828  -22.3511  -15.7862 O   0  0  0  0  0  0  0  0  0  0  0  0
   23.8376  -18.2701  -17.7107 O   0  0  0  0  0  0  0  0  0  0  0  0
   27.3779  -20.3522  -15.3445 N   0  0  0  0  0  0  0  0  0  0  0  0
   28.5526  -19.5009  -15.6523 C   0  0  0  0  0  0  0  0  0  0  0  0
   28.0139  -18.1279  -15.3510 C   0  0  0  0  0  0  0  0  0  0  0  0
   26.8058  -18.3438  -14.4753 C   0  0  0  0  0  0  0  0  0  0  0  0
   26.9843  -19.8193  -14.0557 C   0  0  1  0  0  0  0  0  0  0  0  0
   25.7124  -20.3253  -13.5275 C   0  0  0  0  0  0  0  0  0  0  0  0
   24.7573  -20.3248  -14.4017 O   0  0  0  0  0  0  0  0  0  0  0  0
   25.3882  -20.7972  -12.2612 N   0  0  0  0  0  0  0  0  0  0  0  0
   26.4155  -21.5821  -11.4769 C   0  0  0  0  0  0  0  0  0  0  0  0
   26.3875  -20.7817  -10.1664 C   0  0  0  0  0  0  0  0  0  0  0  0
   25.0599  -20.0056  -10.1888 C   0  0  0  0  0  0  0  0  0  0  0  0
   24.3531  -20.7889  -11.2965 C   0  0  1  0  0  0  0  0  0  0  0  0
   23.0110  -20.4006  -11.5802 C   0  0  0  0  0  0  0  0  0  0  0  0
   21.8934  -21.2257  -11.2951 O   0  0  0  0  0  0  0  0  0  0  0  0
   22.7151  -19.3143  -12.0968 O   0  0  0  0  0  0  0  0  0  0  0  0
  2  1  1  6
  3  2  1  0
  3  4  1  0
  4  5  1  0
  5  9  1  0
  5  6  2  0
  7  2  1  0
  8  7  2  0
 10  7  1  0
 10 14  1  0
 11 12  1  0
 11 10  1  0
 12 13  1  0
 13 14  1  0
 14 15  1  6
 15 16  2  0
 17 15  1  0
 17 21  1  0
 18 19  1  0
 18 17  1  0
 19 20  1  0
 20 21  1  0
 21 22  1  6
 22 24  2  0
 22 23  1  0
M  END
$$$$
