EPP.pdb
     RDKit          3D

 24 25  0  0  1  0  0  0  0  0999 V2000
   24.2642  -20.5772  -18.7163 N   0  0  0  0  0  0  0  0  0  0  0  0
   24.5545  -19.5395  -17.7826 C   0  0  1  0  0  0  0  0  0  0  0  0
   23.3317  -18.6795  -17.5749 C   0  0  0  0  0  0  0  0  0  0  0  0
   22.0365  -19.4103  -17.4556 C   0  0  0  0  0  0  0  0  0  0  0  0
   21.1207  -19.0254  -16.3945 C   0  0  0  0  0  0  0  0  0  0  0  0
   19.9087  -18.8851  -16.5287 O   0  0  0  0  0  0  0  0  0  0  0  0
   25.0007  -20.1192  -16.4709 C   0  0  0  0  0  0  0  0  0  0  0  0
   24.3468  -21.1012  -16.0849 O   0  0  0  0  0  0  0  0  0  0  0  0
   21.6359  -18.7884  -15.1024 O   0  0  0  0  0  0  0  0  0  0  0  0
   26.0633  -19.5675  -15.7818 N   0  0  0  0  0  0  0  0  0  0  0  0
   27.2247  -18.9460  -16.4630 C   0  0  0  0  0  0  0  0  0  0  0  0
   27.4144  -17.6944  -15.6483 C   0  0  0  0  0  0  0  0  0  0  0  0
   26.6989  -17.9408  -14.3443 C   0  0  0  0  0  0  0  0  0  0  0  0
   26.4739  -19.4677  -14.3956 C   0  0  1  0  0  0  0  0  0  0  0  0
   25.4524  -19.8358  -13.4087 C   0  0  0  0  0  0  0  0  0  0  0  0
   24.3350  -19.2008  -13.5658 O   0  0  0  0  0  0  0  0  0  0  0  0
   25.5021  -20.7447  -12.3586 N   0  0  0  0  0  0  0  0  0  0  0  0
   26.4922  -21.8864  -12.4123 C   0  0  0  0  0  0  0  0  0  0  0  0
   27.1660  -21.6911  -11.0460 C   0  0  0  0  0  0  0  0  0  0  0  0
   26.1868  -20.8354  -10.2250 C   0  0  0  0  0  0  0  0  0  0  0  0
   24.9385  -21.0188  -11.0901 C   0  0  1  0  0  0  0  0  0  0  0  0
   23.7452  -20.4068  -10.6062 C   0  0  0  0  0  0  0  0  0  0  0  0
   22.6654  -21.1476  -10.0616 O   0  0  0  0  0  0  0  0  0  0  0  0
   23.5572  -19.1826  -10.6227 O   0  0  0  0  0  0  0  0  0  0  0  0
  2  1  1  6
  3  2  1  0
  3  4  1  0
  4  5  1  0
  5  9  1  0
  5  6  2  0
  7  2  1  0
  8  7  2  0
 10  7  1  0
 10 14  1  0
 11 12  1  0
 11 10  1  0
 12 13  1  0
 13 14  1  0
 14 15  1  1
 15 16  2  0
 17 15  1  0
 17 21  1  0
 18 19  1  0
 18 17  1  0
 19 20  1  0
 20 21  1  0
 21 22  1  1
 22 24  2  0
 22 23  1  0
M  END
$$$$
