EPP.pdb
     RDKit          3D

 24 25  0  0  1  0  0  0  0  0999 V2000
   25.2360  -18.9758  -13.0010 N   0  0  0  0  0  0  0  0  0  0  0  0
   25.9902  -20.0589  -12.4618 C   0  0  1  0  0  0  0  0  0  0  0  0
   27.2076  -20.3123  -13.3173 C   0  0  0  0  0  0  0  0  0  0  0  0
   27.0280  -21.2921  -14.4280 C   0  0  0  0  0  0  0  0  0  0  0  0
   28.0900  -22.2517  -14.6818 C   0  0  0  0  0  0  0  0  0  0  0  0
   28.0619  -23.4342  -14.3537 O   0  0  0  0  0  0  0  0  0  0  0  0
   26.4100  -19.7593  -11.0512 C   0  0  0  0  0  0  0  0  0  0  0  0
   27.6186  -19.5156  -10.9069 O   0  0  0  0  0  0  0  0  0  0  0  0
   29.2529  -21.8192  -15.3541 O   0  0  0  0  0  0  0  0  0  0  0  0
   25.4859  -19.7663  -10.0244 N   0  0  0  0  0  0  0  0  0  0  0  0
   24.0622  -19.4026  -10.2247 C   0  0  0  0  0  0  0  0  0  0  0  0
   23.3646  -20.4845   -9.4443 C   0  0  0  0  0  0  0  0  0  0  0  0
   24.4034  -21.0524   -8.5108 C   0  0  0  0  0  0  0  0  0  0  0  0
   25.5138  -19.9822   -8.5917 C   0  0  1  0  0  0  0  0  0  0  0  0
   26.7621  -20.5451   -8.0645 C   0  0  0  0  0  0  0  0  0  0  0  0
   26.9708  -21.7677   -8.4362 O   0  0  0  0  0  0  0  0  0  0  0  0
   27.7323  -19.9750   -7.2491 N   0  0  0  0  0  0  0  0  0  0  0  0
   28.5401  -18.8051   -7.7644 C   0  0  0  0  0  0  0  0  0  0  0  0
   28.3185  -17.8239   -6.6038 C   0  0  0  0  0  0  0  0  0  0  0  0
   27.8659  -18.6898   -5.4161 C   0  0  0  0  0  0  0  0  0  0  0  0
   28.2919  -20.0578   -5.9522 C   0  0  1  0  0  0  0  0  0  0  0  0
   28.0938  -21.1641   -5.0749 C   0  0  0  0  0  0  0  0  0  0  0  0
   26.8598  -21.8555   -4.9731 O   0  0  0  0  0  0  0  0  0  0  0  0
   28.9816  -21.6083   -4.3340 O   0  0  0  0  0  0  0  0  0  0  0  0
  2  1  1  6
  3  2  1  0
  3  4  1  0
  4  5  1  0
  5  9  1  0
  5  6  2  0
  7  2  1  0
  8  7  2  0
 10  7  1  0
 10 14  1  0
 11 12  1  0
 11 10  1  0
 12 13  1  0
 13 14  1  0
 14 15  1  6
 15 16  2  0
 17 15  1  0
 17 21  1  0
 18 19  1  0
 18 17  1  0
 19 20  1  0
 20 21  1  0
 21 22  1  1
 22 24  2  0
 22 23  1  0
M  END
$$$$
