EPP.pdb
     RDKit          3D

 24 25  0  0  1  0  0  0  0  0999 V2000
   15.6922  -21.6294    1.3283 N   0  0  0  0  0  0  0  0  0  0  0  0
   15.6368  -20.4602    2.1423 C   0  0  1  0  0  0  0  0  0  0  0  0
   14.4559  -20.5425    3.0786 C   0  0  0  0  0  0  0  0  0  0  0  0
   13.1903  -21.0619    2.4834 C   0  0  0  0  0  0  0  0  0  0  0  0
   13.1276  -22.4648    2.1080 C   0  0  0  0  0  0  0  0  0  0  0  0
   12.5781  -22.8987    1.0999 O   0  0  0  0  0  0  0  0  0  0  0  0
   16.9053  -20.3058    2.9317 C   0  0  0  0  0  0  0  0  0  0  0  0
   17.2405  -21.3085    3.5821 O   0  0  0  0  0  0  0  0  0  0  0  0
   13.7356  -23.4225    2.9473 O   0  0  0  0  0  0  0  0  0  0  0  0
   17.6116  -19.1189    2.9052 N   0  0  0  0  0  0  0  0  0  0  0  0
   17.7343  -18.2860    1.6844 C   0  0  0  0  0  0  0  0  0  0  0  0
   17.4952  -16.9067    2.2383 C   0  0  0  0  0  0  0  0  0  0  0  0
   17.7335  -17.0135    3.7231 C   0  0  0  0  0  0  0  0  0  0  0  0
   18.4491  -18.3780    3.8270 C   0  0  1  0  0  0  0  0  0  0  0  0
   18.4094  -18.8359    5.2204 C   0  0  0  0  0  0  0  0  0  0  0  0
   17.2142  -18.8629    5.7177 O   0  0  0  0  0  0  0  0  0  0  0  0
   19.4371  -19.2391    6.0645 N   0  0  0  0  0  0  0  0  0  0  0  0
   20.6728  -19.8808    5.4745 C   0  0  0  0  0  0  0  0  0  0  0  0
   21.7442  -18.9922    6.1235 C   0  0  0  0  0  0  0  0  0  0  0  0
   21.0523  -18.3278    7.3256 C   0  0  0  0  0  0  0  0  0  0  0  0
   19.8305  -19.2432    7.4237 C   0  0  1  0  0  0  0  0  0  0  0  0
   18.9388  -18.9844    8.5056 C   0  0  0  0  0  0  0  0  0  0  0  0
   18.3747  -20.0133    9.3021 O   0  0  0  0  0  0  0  0  0  0  0  0
   18.5869  -17.8434    8.8351 O   0  0  0  0  0  0  0  0  0  0  0  0
  2  1  1  1
  3  2  1  0
  3  4  1  0
  4  5  1  0
  5  9  1  0
  5  6  2  0
  7  2  1  0
  8  7  2  0
 10  7  1  0
 10 14  1  0
 11 12  1  0
 11 10  1  0
 12 13  1  0
 13 14  1  0
 14 15  1  1
 15 16  2  0
 17 15  1  0
 17 21  1  0
 18 19  1  0
 18 17  1  0
 19 20  1  0
 20 21  1  0
 21 22  1  1
 22 24  2  0
 22 23  1  0
M  END
$$$$
