EPP.pdb
     RDKit          3D

 24 25  0  0  1  0  0  0  0  0999 V2000
   20.8733  -11.7555  -20.4925 N   0  0  0  0  0  0  0  0  0  0  0  0
   21.1155  -10.3715  -20.2504 C   0  0  1  0  0  0  0  0  0  0  0  0
   19.8775   -9.5702  -20.5716 C   0  0  0  0  0  0  0  0  0  0  0  0
   18.5898  -10.1385  -20.0768 C   0  0  0  0  0  0  0  0  0  0  0  0
   17.3583   -9.4296  -20.3832 C   0  0  0  0  0  0  0  0  0  0  0  0
   16.7395   -9.5199  -21.4394 O   0  0  0  0  0  0  0  0  0  0  0  0
   21.5126  -10.1474  -18.8193 C   0  0  0  0  0  0  0  0  0  0  0  0
   20.7231  -10.6094  -17.9802 O   0  0  0  0  0  0  0  0  0  0  0  0
   16.8098   -8.5654  -19.4118 O   0  0  0  0  0  0  0  0  0  0  0  0
   22.6771   -9.4725  -18.5086 N   0  0  0  0  0  0  0  0  0  0  0  0
   23.8953   -9.5454  -19.3513 C   0  0  0  0  0  0  0  0  0  0  0  0
   24.3172   -8.1009  -19.3925 C   0  0  0  0  0  0  0  0  0  0  0  0
   23.6244   -7.4374  -18.2294 C   0  0  0  0  0  0  0  0  0  0  0  0
   23.1540   -8.6581  -17.4088 C   0  0  1  0  0  0  0  0  0  0  0  0
   22.1270   -8.2274  -16.4535 C   0  0  0  0  0  0  0  0  0  0  0  0
   21.1318   -7.6151  -17.0114 O   0  0  0  0  0  0  0  0  0  0  0  0
   22.0622   -8.3779  -15.0735 N   0  0  0  0  0  0  0  0  0  0  0  0
   22.6622   -9.6094  -14.4329 C   0  0  0  0  0  0  0  0  0  0  0  0
   23.5522   -8.9300  -13.3817 C   0  0  0  0  0  0  0  0  0  0  0  0
   22.9900   -7.5069  -13.2269 C   0  0  0  0  0  0  0  0  0  0  0  0
   21.6313   -7.7213  -13.8965 C   0  0  1  0  0  0  0  0  0  0  0  0
   20.7478   -6.6024  -13.8938 C   0  0  0  0  0  0  0  0  0  0  0  0
   21.1098   -5.3334  -14.4133 O   0  0  0  0  0  0  0  0  0  0  0  0
   19.5966   -6.6496  -13.4389 O   0  0  0  0  0  0  0  0  0  0  0  0
  2  1  1  1
  3  2  1  0
  3  4  1  0
  4  5  1  0
  5  9  1  0
  5  6  2  0
  7  2  1  0
  8  7  2  0
 10  7  1  0
 10 14  1  0
 11 12  1  0
 11 10  1  0
 12 13  1  0
 13 14  1  0
 14 15  1  1
 15 16  2  0
 17 15  1  0
 17 21  1  0
 18 19  1  0
 18 17  1  0
 19 20  1  0
 20 21  1  0
 21 22  1  6
 22 24  2  0
 22 23  1  0
M  END
$$$$
