EPP.pdb
     RDKit          3D

 24 25  0  0  1  0  0  0  0  0999 V2000
   24.7568  -21.4042  -17.8383 N   0  0  0  0  0  0  0  0  0  0  0  0
   24.3177  -20.8882  -16.5839 C   0  0  1  0  0  0  0  0  0  0  0  0
   23.0219  -21.5499  -16.1824 C   0  0  0  0  0  0  0  0  0  0  0  0
   22.2648  -20.8818  -15.0840 C   0  0  0  0  0  0  0  0  0  0  0  0
   21.3845  -19.7762  -15.4242 C   0  0  0  0  0  0  0  0  0  0  0  0
   21.4127  -18.6678  -14.8976 O   0  0  0  0  0  0  0  0  0  0  0  0
   25.3582  -21.1174  -15.5253 C   0  0  0  0  0  0  0  0  0  0  0  0
   25.3393  -22.2468  -15.0107 O   0  0  0  0  0  0  0  0  0  0  0  0
   20.4144  -19.9627  -16.4318 O   0  0  0  0  0  0  0  0  0  0  0  0
   26.2476  -20.1172  -15.1834 N   0  0  0  0  0  0  0  0  0  0  0  0
   26.8885  -19.2358  -16.1893 C   0  0  0  0  0  0  0  0  0  0  0  0
   26.7542  -17.8872  -15.5340 C   0  0  0  0  0  0  0  0  0  0  0  0
   26.5060  -18.1635  -14.0728 C   0  0  0  0  0  0  0  0  0  0  0  0
   26.8885  -19.6561  -13.9682 C   0  0  1  0  0  0  0  0  0  0  0  0
   26.3427  -20.2051  -12.7217 C   0  0  0  0  0  0  0  0  0  0  0  0
   25.0880  -19.9362  -12.5488 O   0  0  0  0  0  0  0  0  0  0  0  0
   26.9549  -20.9557  -11.7252 N   0  0  0  0  0  0  0  0  0  0  0  0
   28.1686  -21.7909  -12.0658 C   0  0  0  0  0  0  0  0  0  0  0  0
   29.1278  -21.2845  -10.9785 C   0  0  0  0  0  0  0  0  0  0  0  0
   28.2304  -20.6421   -9.9074 C   0  0  0  0  0  0  0  0  0  0  0  0
   26.8903  -21.2394  -10.3405 C   0  0  1  0  0  0  0  0  0  0  0  0
   25.7683  -20.9221   -9.5201 C   0  0  0  0  0  0  0  0  0  0  0  0
   25.2541  -19.6065   -9.3930 O   0  0  0  0  0  0  0  0  0  0  0  0
   25.1549  -21.7679   -8.8548 O   0  0  0  0  0  0  0  0  0  0  0  0
  2  1  1  6
  3  2  1  0
  3  4  1  0
  4  5  1  0
  5  9  1  0
  5  6  2  0
  7  2  1  0
  8  7  2  0
 10  7  1  0
 10 14  1  0
 11 12  1  0
 11 10  1  0
 12 13  1  0
 13 14  1  0
 14 15  1  1
 15 16  2  0
 17 15  1  0
 17 21  1  0
 18 19  1  0
 18 17  1  0
 19 20  1  0
 20 21  1  0
 21 22  1  1
 22 24  2  0
 22 23  1  0
M  END
$$$$
