EPP.pdb
     RDKit          3D

 24 25  0  0  1  0  0  0  0  0999 V2000
   25.0624  -22.1955  -11.7940 N   0  0  0  0  0  0  0  0  0  0  0  0
   26.0261  -21.1943  -11.4753 C   0  0  1  0  0  0  0  0  0  0  0  0
   25.3813  -19.8302  -11.5163 C   0  0  0  0  0  0  0  0  0  0  0  0
   24.7121  -19.4667  -12.7993 C   0  0  0  0  0  0  0  0  0  0  0  0
   23.3718  -19.9719  -13.0472 C   0  0  0  0  0  0  0  0  0  0  0  0
   23.0744  -20.7720  -13.9293 O   0  0  0  0  0  0  0  0  0  0  0  0
   26.6139  -21.4412  -10.1154 C   0  0  0  0  0  0  0  0  0  0  0  0
   25.7826  -21.5628   -9.2017 O   0  0  0  0  0  0  0  0  0  0  0  0
   22.3131  -19.5261  -12.2277 O   0  0  0  0  0  0  0  0  0  0  0  0
   27.9823  -21.5190   -9.9429 N   0  0  0  0  0  0  0  0  0  0  0  0
   28.8765  -22.1896  -10.9176 C   0  0  0  0  0  0  0  0  0  0  0  0
   30.0073  -21.2007  -11.0155 C   0  0  0  0  0  0  0  0  0  0  0  0
   29.9032  -20.3348   -9.7857 C   0  0  0  0  0  0  0  0  0  0  0  0
   28.9300  -21.1532   -8.9094 C   0  0  1  0  0  0  0  0  0  0  0  0
   28.4005  -20.2912   -7.8466 C   0  0  0  0  0  0  0  0  0  0  0  0
   27.9088  -19.1772   -8.2869 O   0  0  0  0  0  0  0  0  0  0  0  0
   28.3453  -20.4883   -6.4721 N   0  0  0  0  0  0  0  0  0  0  0  0
   28.3094  -21.8979   -5.9259 C   0  0  0  0  0  0  0  0  0  0  0  0
   29.4720  -21.8034   -4.9267 C   0  0  0  0  0  0  0  0  0  0  0  0
   29.6762  -20.2997   -4.6769 C   0  0  0  0  0  0  0  0  0  0  0  0
   28.3492  -19.7895   -5.2417 C   0  0  1  0  0  0  0  0  0  0  0  0
   28.1175  -18.3873   -5.1282 C   0  0  0  0  0  0  0  0  0  0  0  0
   27.1304  -17.8363   -4.2719 O   0  0  0  0  0  0  0  0  0  0  0  0
   28.7584  -17.5411   -5.7666 O   0  0  0  0  0  0  0  0  0  0  0  0
  2  1  1  1
  3  2  1  0
  3  4  1  0
  4  5  1  0
  5  9  1  0
  5  6  2  0
  7  2  1  0
  8  7  2  0
 10  7  1  0
 10 14  1  0
 11 12  1  0
 11 10  1  0
 12 13  1  0
 13 14  1  0
 14 15  1  1
 15 16  2  0
 17 15  1  0
 17 21  1  0
 18 19  1  0
 18 17  1  0
 19 20  1  0
 20 21  1  0
 21 22  1  6
 22 24  2  0
 22 23  1  0
M  END
$$$$
