EPP.pdb
     RDKit          3D

 24 25  0  0  1  0  0  0  0  0999 V2000
   25.5620  -23.7376  -13.4849 N   0  0  0  0  0  0  0  0  0  0  0  0
   25.5561  -22.3393  -13.2065 C   0  0  1  0  0  0  0  0  0  0  0  0
   24.1385  -21.8213  -13.2112 C   0  0  0  0  0  0  0  0  0  0  0  0
   23.9875  -20.3417  -13.0943 C   0  0  0  0  0  0  0  0  0  0  0  0
   22.7116  -19.7463  -13.4559 C   0  0  0  0  0  0  0  0  0  0  0  0
   22.2632  -19.6842  -14.5968 O   0  0  0  0  0  0  0  0  0  0  0  0
   26.1970  -22.0631  -11.8765 C   0  0  0  0  0  0  0  0  0  0  0  0
   25.5013  -22.3559  -10.8911 O   0  0  0  0  0  0  0  0  0  0  0  0
   21.9068  -19.1897  -12.4391 O   0  0  0  0  0  0  0  0  0  0  0  0
   27.4664  -21.5231  -11.8046 N   0  0  0  0  0  0  0  0  0  0  0  0
   28.4697  -21.6869  -12.8843 C   0  0  0  0  0  0  0  0  0  0  0  0
   29.0274  -20.2925  -12.9883 C   0  0  0  0  0  0  0  0  0  0  0  0
   28.6648  -19.6077  -11.6950 C   0  0  0  0  0  0  0  0  0  0  0  0
   28.2446  -20.8052  -10.8151 C   0  0  1  0  0  0  0  0  0  0  0  0
   27.4890  -20.3095   -9.6591 C   0  0  0  0  0  0  0  0  0  0  0  0
   26.4935  -19.5484   -9.9849 O   0  0  0  0  0  0  0  0  0  0  0  0
   27.6750  -20.5324   -8.3000 N   0  0  0  0  0  0  0  0  0  0  0  0
   28.4716  -21.7357   -7.8481 C   0  0  0  0  0  0  0  0  0  0  0  0
   29.4730  -21.0324   -6.9200 C   0  0  0  0  0  0  0  0  0  0  0  0
   28.8353  -19.6739   -6.5836 C   0  0  0  0  0  0  0  0  0  0  0  0
   27.4029  -19.9748   -7.0284 C   0  0  1  0  0  0  0  0  0  0  0  0
   26.4475  -18.9399   -6.8070 C   0  0  0  0  0  0  0  0  0  0  0  0
   25.4378  -19.0228   -5.8147 O   0  0  0  0  0  0  0  0  0  0  0  0
   26.4237  -17.8888   -7.4619 O   0  0  0  0  0  0  0  0  0  0  0  0
  2  1  1  1
  3  2  1  0
  3  4  1  0
  4  5  1  0
  5  9  1  0
  5  6  2  0
  7  2  1  0
  8  7  2  0
 10  7  1  0
 10 14  1  0
 11 12  1  0
 11 10  1  0
 12 13  1  0
 13 14  1  0
 14 15  1  1
 15 16  2  0
 17 15  1  0
 17 21  1  0
 18 19  1  0
 18 17  1  0
 19 20  1  0
 20 21  1  0
 21 22  1  6
 22 24  2  0
 22 23  1  0
M  END
$$$$
