EPP.pdb
     RDKit          3D

 24 25  0  0  1  0  0  0  0  0999 V2000
   17.5160  -12.1246  -15.6950 N   0  0  0  0  0  0  0  0  0  0  0  0
   18.0541  -11.0596  -16.4752 C   0  0  1  0  0  0  0  0  0  0  0  0
   16.9336  -10.2607  -17.0950 C   0  0  0  0  0  0  0  0  0  0  0  0
   15.9861  -11.0292  -17.9539 C   0  0  0  0  0  0  0  0  0  0  0  0
   14.8840  -10.3156  -18.5776 C   0  0  0  0  0  0  0  0  0  0  0  0
   13.8765   -9.9290  -17.9927 O   0  0  0  0  0  0  0  0  0  0  0  0
   18.9116  -10.1647  -15.6270 C   0  0  0  0  0  0  0  0  0  0  0  0
   18.3140   -9.5942  -14.7006 O   0  0  0  0  0  0  0  0  0  0  0  0
   14.9501  -10.0323  -19.9584 O   0  0  0  0  0  0  0  0  0  0  0  0
   20.2588  -10.0184  -15.8956 N   0  0  0  0  0  0  0  0  0  0  0  0
   21.1252  -11.1547  -16.2923 C   0  0  0  0  0  0  0  0  0  0  0  0
   21.9130  -10.5494  -17.4233 C   0  0  0  0  0  0  0  0  0  0  0  0
   21.7853   -9.0561  -17.2596 C   0  0  0  0  0  0  0  0  0  0  0  0
   21.2308   -8.9461  -15.8225 C   0  0  1  0  0  0  0  0  0  0  0  0
   20.6728   -7.6035  -15.6248 C   0  0  0  0  0  0  0  0  0  0  0  0
   19.8518   -7.2463  -16.5601 O   0  0  0  0  0  0  0  0  0  0  0  0
   20.8854   -6.6819  -14.6066 N   0  0  0  0  0  0  0  0  0  0  0  0
   21.1782   -7.1764  -13.2079 C   0  0  0  0  0  0  0  0  0  0  0  0
   22.4612   -6.3793  -12.9295 C   0  0  0  0  0  0  0  0  0  0  0  0
   22.4512   -5.2208  -13.9410 C   0  0  0  0  0  0  0  0  0  0  0  0
   20.9814   -5.2920  -14.3592 C   0  0  1  0  0  0  0  0  0  0  0  0
   20.5419   -4.2934  -15.2770 C   0  0  0  0  0  0  0  0  0  0  0  0
   19.4572   -3.4212  -15.0055 O   0  0  0  0  0  0  0  0  0  0  0  0
   21.0713   -4.1086  -16.3815 O   0  0  0  0  0  0  0  0  0  0  0  0
  2  1  1  1
  3  2  1  0
  3  4  1  0
  4  5  1  0
  5  9  1  0
  5  6  2  0
  7  2  1  0
  8  7  2  0
 10  7  1  0
 10 14  1  0
 11 12  1  0
 11 10  1  0
 12 13  1  0
 13 14  1  0
 14 15  1  6
 15 16  2  0
 17 15  1  0
 17 21  1  0
 18 19  1  0
 18 17  1  0
 19 20  1  0
 20 21  1  0
 21 22  1  6
 22 24  2  0
 22 23  1  0
M  END
$$$$
