EPP.pdb
     RDKit          3D

 24 25  0  0  1  0  0  0  0  0999 V2000
   28.2637  -20.4605  -18.5950 N   0  0  0  0  0  0  0  0  0  0  0  0
   27.0868  -19.8925  -18.0251 C   0  0  1  0  0  0  0  0  0  0  0  0
   25.8637  -20.4531  -18.7091 C   0  0  0  0  0  0  0  0  0  0  0  0
   24.5521  -19.9384  -18.2185 C   0  0  0  0  0  0  0  0  0  0  0  0
   23.4312  -19.9092  -19.1434 C   0  0  0  0  0  0  0  0  0  0  0  0
   22.5227  -20.7342  -19.1729 O   0  0  0  0  0  0  0  0  0  0  0  0
   27.0237  -20.1762  -16.5516 C   0  0  0  0  0  0  0  0  0  0  0  0
   26.8529  -21.3698  -16.2567 O   0  0  0  0  0  0  0  0  0  0  0  0
   23.3558  -18.8655  -20.0902 O   0  0  0  0  0  0  0  0  0  0  0  0
   27.1511  -19.1540  -15.6311 N   0  0  0  0  0  0  0  0  0  0  0  0
   28.0292  -17.9798  -15.8534 C   0  0  0  0  0  0  0  0  0  0  0  0
   27.1395  -16.8517  -15.4039 C   0  0  0  0  0  0  0  0  0  0  0  0
   26.0721  -17.4863  -14.5489 C   0  0  0  0  0  0  0  0  0  0  0  0
   26.6708  -18.8862  -14.2904 C   0  0  1  0  0  0  0  0  0  0  0  0
   25.6107  -19.7806  -13.8115 C   0  0  0  0  0  0  0  0  0  0  0  0
   24.5673  -19.7960  -14.5781 O   0  0  0  0  0  0  0  0  0  0  0  0
   25.5617  -20.5967  -12.6878 N   0  0  0  0  0  0  0  0  0  0  0  0
   26.7842  -21.3972  -12.2987 C   0  0  0  0  0  0  0  0  0  0  0  0
   26.9039  -20.9638  -10.8301 C   0  0  0  0  0  0  0  0  0  0  0  0
   25.5210  -20.4061  -10.4536 C   0  0  0  0  0  0  0  0  0  0  0  0
   24.7152  -20.9796  -11.6206 C   0  0  1  0  0  0  0  0  0  0  0  0
   23.3118  -20.7295  -11.5959 C   0  0  0  0  0  0  0  0  0  0  0  0
   22.3480  -21.7596  -11.4499 O   0  0  0  0  0  0  0  0  0  0  0  0
   22.8240  -19.5957  -11.6994 O   0  0  0  0  0  0  0  0  0  0  0  0
  2  1  1  6
  3  2  1  0
  3  4  1  0
  4  5  1  0
  5  9  1  0
  5  6  2  0
  7  2  1  0
  8  7  2  0
 10  7  1  0
 10 14  1  0
 11 12  1  0
 11 10  1  0
 12 13  1  0
 13 14  1  0
 14 15  1  6
 15 16  2  0
 17 15  1  0
 17 21  1  0
 18 19  1  0
 18 17  1  0
 19 20  1  0
 20 21  1  0
 21 22  1  6
 22 24  2  0
 22 23  1  0
M  END
$$$$
