EPP.pdb
     RDKit          3D

 24 25  0  0  1  0  0  0  0  0999 V2000
   19.4135  -11.9122  -18.6884 N   0  0  0  0  0  0  0  0  0  0  0  0
   19.6641  -10.5539  -19.0416 C   0  0  1  0  0  0  0  0  0  0  0  0
   18.3984   -9.9173  -19.5621 C   0  0  0  0  0  0  0  0  0  0  0  0
   18.5763   -8.6466  -20.3233 C   0  0  0  0  0  0  0  0  0  0  0  0
   17.3933   -7.9806  -20.8429 C   0  0  0  0  0  0  0  0  0  0  0  0
   16.6439   -8.4444  -21.6972 O   0  0  0  0  0  0  0  0  0  0  0  0
   20.1727   -9.7852  -17.8557 C   0  0  0  0  0  0  0  0  0  0  0  0
   19.3061   -9.4787  -17.0217 O   0  0  0  0  0  0  0  0  0  0  0  0
   17.0569   -6.7033  -20.3461 O   0  0  0  0  0  0  0  0  0  0  0  0
   21.5122   -9.4660  -17.7448 N   0  0  0  0  0  0  0  0  0  0  0  0
   22.5932  -10.3754  -18.1963 C   0  0  0  0  0  0  0  0  0  0  0  0
   23.5096   -9.4186  -18.9112 C   0  0  0  0  0  0  0  0  0  0  0  0
   23.1425   -8.0454  -18.4087 C   0  0  0  0  0  0  0  0  0  0  0  0
   22.2869   -8.3853  -17.1688 C   0  0  1  0  0  0  0  0  0  0  0  0
   21.5175   -7.1990  -16.7767 C   0  0  0  0  0  0  0  0  0  0  0  0
   20.8723   -6.6578  -17.7603 O   0  0  0  0  0  0  0  0  0  0  0  0
   21.3778   -6.5866  -15.5371 N   0  0  0  0  0  0  0  0  0  0  0  0
   21.4156   -7.4319  -14.2838 C   0  0  0  0  0  0  0  0  0  0  0  0
   22.4904   -6.6626  -13.5015 C   0  0  0  0  0  0  0  0  0  0  0  0
   22.5538   -5.2709  -14.1531 C   0  0  0  0  0  0  0  0  0  0  0  0
   21.2350   -5.3179  -14.9270 C   0  0  1  0  0  0  0  0  0  0  0  0
   20.8834   -4.1335  -15.6385 C   0  0  0  0  0  0  0  0  0  0  0  0
   21.8464   -3.2647  -16.2121 O   0  0  0  0  0  0  0  0  0  0  0  0
   19.7120   -3.7703  -15.8120 O   0  0  0  0  0  0  0  0  0  0  0  0
  2  1  1  1
  3  2  1  0
  3  4  1  0
  4  5  1  0
  5  9  1  0
  5  6  2  0
  7  2  1  0
  8  7  2  0
 10  7  1  0
 10 14  1  0
 11 12  1  0
 11 10  1  0
 12 13  1  0
 13 14  1  0
 14 15  1  6
 15 16  2  0
 17 15  1  0
 17 21  1  0
 18 19  1  0
 18 17  1  0
 19 20  1  0
 20 21  1  0
 21 22  1  6
 22 24  2  0
 22 23  1  0
M  END
$$$$
