EPP.pdb
     RDKit          3D

 24 25  0  0  1  0  0  0  0  0999 V2000
   23.7571  -21.2863  -17.7080 N   0  0  0  0  0  0  0  0  0  0  0  0
   24.1848  -20.1712  -16.9293 C   0  0  1  0  0  0  0  0  0  0  0  0
   23.0406  -19.2041  -16.7466 C   0  0  0  0  0  0  0  0  0  0  0  0
   21.7398  -19.8075  -16.3346 C   0  0  0  0  0  0  0  0  0  0  0  0
   20.9865  -19.1659  -15.2698 C   0  0  0  0  0  0  0  0  0  0  0  0
   19.8531  -18.7096  -15.3872 O   0  0  0  0  0  0  0  0  0  0  0  0
   24.6894  -20.6252  -15.5895 C   0  0  0  0  0  0  0  0  0  0  0  0
   23.9346  -21.4023  -14.9836 O   0  0  0  0  0  0  0  0  0  0  0  0
   21.5780  -19.0443  -13.9944 O   0  0  0  0  0  0  0  0  0  0  0  0
   25.9073  -20.1847  -15.1090 N   0  0  0  0  0  0  0  0  0  0  0  0
   27.0548  -19.8755  -15.9961 C   0  0  0  0  0  0  0  0  0  0  0  0
   27.5475  -18.5806  -15.4072 C   0  0  0  0  0  0  0  0  0  0  0  0
   26.9776  -18.5205  -14.0127 C   0  0  0  0  0  0  0  0  0  0  0  0
   26.5055  -19.9763  -13.8057 C   0  0  1  0  0  0  0  0  0  0  0  0
   25.5753  -20.0225  -12.6718 C   0  0  0  0  0  0  0  0  0  0  0  0
   24.6818  -19.0859  -12.7028 O   0  0  0  0  0  0  0  0  0  0  0  0
   25.5089  -20.9020  -11.5979 N   0  0  0  0  0  0  0  0  0  0  0  0
   26.0631  -22.3008  -11.7495 C   0  0  0  0  0  0  0  0  0  0  0  0
   26.9818  -22.3353  -10.5192 C   0  0  0  0  0  0  0  0  0  0  0  0
   26.4750  -21.2129   -9.5980 C   0  0  0  0  0  0  0  0  0  0  0  0
   25.1071  -20.9841  -10.2437 C   0  0  1  0  0  0  0  0  0  0  0  0
   24.2672  -20.0230   -9.6085 C   0  0  0  0  0  0  0  0  0  0  0  0
   23.0968  -20.3774   -8.8905 O   0  0  0  0  0  0  0  0  0  0  0  0
   24.4925  -18.8052   -9.6332 O   0  0  0  0  0  0  0  0  0  0  0  0
  2  1  1  6
  3  2  1  0
  3  4  1  0
  4  5  1  0
  5  9  1  0
  5  6  2  0
  7  2  1  0
  8  7  2  0
 10  7  1  0
 10 14  1  0
 11 12  1  0
 11 10  1  0
 12 13  1  0
 13 14  1  0
 14 15  1  1
 15 16  2  0
 17 15  1  0
 17 21  1  0
 18 19  1  0
 18 17  1  0
 19 20  1  0
 20 21  1  0
 21 22  1  1
 22 24  2  0
 22 23  1  0
M  END
$$$$
