EPP.pdb
     RDKit          3D

 24 25  0  0  1  0  0  0  0  0999 V2000
   25.2845  -20.2695  -18.9702 N   0  0  0  0  0  0  0  0  0  0  0  0
   24.8972  -19.4544  -17.8665 C   0  0  1  0  0  0  0  0  0  0  0  0
   23.3967  -19.4872  -17.7062 C   0  0  0  0  0  0  0  0  0  0  0  0
   22.6609  -18.3035  -18.2384 C   0  0  0  0  0  0  0  0  0  0  0  0
   21.8646  -17.5121  -17.3151 C   0  0  0  0  0  0  0  0  0  0  0  0
   22.0952  -16.3459  -17.0094 O   0  0  0  0  0  0  0  0  0  0  0  0
   25.5568  -19.9281  -16.6030 C   0  0  0  0  0  0  0  0  0  0  0  0
   25.4073  -21.1356  -16.3573 O   0  0  0  0  0  0  0  0  0  0  0  0
   20.7356  -18.1033  -16.7092 O   0  0  0  0  0  0  0  0  0  0  0  0
   26.2656  -19.0500  -15.8062 N   0  0  0  0  0  0  0  0  0  0  0  0
   27.2505  -18.0863  -16.3544 C   0  0  0  0  0  0  0  0  0  0  0  0
   26.8979  -16.8346  -15.5960 C   0  0  0  0  0  0  0  0  0  0  0  0
   26.1135  -17.2911  -14.3921 C   0  0  0  0  0  0  0  0  0  0  0  0
   26.4076  -18.8071  -14.3847 C   0  0  1  0  0  0  0  0  0  0  0  0
   25.4247  -19.4825  -13.5297 C   0  0  0  0  0  0  0  0  0  0  0  0
   24.2155  -19.0518  -13.6992 O   0  0  0  0  0  0  0  0  0  0  0  0
   25.5928  -20.4933  -12.5910 N   0  0  0  0  0  0  0  0  0  0  0  0
   26.7722  -21.4316  -12.7147 C   0  0  0  0  0  0  0  0  0  0  0  0
   27.3435  -21.2956  -11.2955 C   0  0  0  0  0  0  0  0  0  0  0  0
   26.1943  -20.7310  -10.4436 C   0  0  0  0  0  0  0  0  0  0  0  0
   25.0355  -21.0170  -11.4005 C   0  0  1  0  0  0  0  0  0  0  0  0
   23.7332  -20.6851  -10.9245 C   0  0  0  0  0  0  0  0  0  0  0  0
   23.2530  -19.3523  -10.8597 O   0  0  0  0  0  0  0  0  0  0  0  0
   22.9197  -21.5322  -10.5310 O   0  0  0  0  0  0  0  0  0  0  0  0
  2  1  1  6
  3  2  1  0
  3  4  1  0
  4  5  1  0
  5  9  1  0
  5  6  2  0
  7  2  1  0
  8  7  2  0
 10  7  1  0
 10 14  1  0
 11 12  1  0
 11 10  1  0
 12 13  1  0
 13 14  1  0
 14 15  1  1
 15 16  2  0
 17 15  1  0
 17 21  1  0
 18 19  1  0
 18 17  1  0
 19 20  1  0
 20 21  1  0
 21 22  1  1
 22 24  2  0
 22 23  1  0
M  END
$$$$
