FYP.pdb
     RDKit          3D

 31 33  0  0  1  0  0  0  0  0999 V2000
   25.7600  -17.9364  -15.7690 N   0  0  0  0  0  0  0  0  0  0  0  0
   26.7182  -18.6211  -14.9307 C   0  0  1  0  0  0  0  0  0  0  0  0
   27.9569  -17.7616  -14.8822 C   0  0  0  0  0  0  0  0  0  0  0  0
   28.7009  -17.7530  -16.1583 C   0  0  0  0  0  0  0  0  0  0  0  0
   28.7190  -16.6436  -16.9666 C   0  0  0  0  0  0  0  0  0  0  0  0
   29.4228  -16.6659  -18.1521 C   0  0  0  0  0  0  0  0  0  0  0  0
   30.1083  -17.7934  -18.5318 C   0  0  0  0  0  0  0  0  0  0  0  0
   30.0869  -18.9136  -17.7102 C   0  0  0  0  0  0  0  0  0  0  0  0
   29.3773  -18.8892  -16.5163 C   0  0  0  0  0  0  0  0  0  0  0  0
   26.2295  -18.8328  -13.5598 C   0  0  0  0  0  0  0  0  0  0  0  0
   25.7298  -17.8529  -12.9563 O   0  0  0  0  0  0  0  0  0  0  0  0
   21.4477  -21.3944   -6.9949 O   0  0  0  0  0  0  0  0  0  0  0  0
   22.2593  -21.4239   -8.1243 C   0  0  0  0  0  0  0  0  0  0  0  0
   23.5013  -22.0242   -8.1221 C   0  0  0  0  0  0  0  0  0  0  0  0
   24.2643  -22.0220   -9.2772 C   0  0  0  0  0  0  0  0  0  0  0  0
   23.8226  -21.4348  -10.4432 C   0  0  0  0  0  0  0  0  0  0  0  0
   24.6473  -21.4308  -11.6948 C   0  0  0  0  0  0  0  0  0  0  0  0
   25.6527  -20.2949  -11.5831 C   0  0  2  0  0  0  0  0  0  0  0  0
   26.2886  -20.0755  -12.8786 N   0  0  0  0  0  0  0  0  0  0  0  0
   26.6618  -20.6811  -10.5714 C   0  0  0  0  0  0  0  0  0  0  0  0
   27.5432  -21.5281  -10.9695 O   0  0  0  0  0  0  0  0  0  0  0  0
   22.5782  -20.8377  -10.4319 C   0  0  0  0  0  0  0  0  0  0  0  0
   21.8161  -20.8355   -9.2916 C   0  0  0  0  0  0  0  0  0  0  0  0
   26.7263  -20.2059   -9.2565 N   0  0  0  0  0  0  0  0  0  0  0  0
   25.7716  -19.3939   -8.5465 C   0  0  0  0  0  0  0  0  0  0  0  0
   26.6156  -18.5881   -7.5700 C   0  0  0  0  0  0  0  0  0  0  0  0
   27.9978  -19.1317   -7.6663 C   0  0  0  0  0  0  0  0  0  0  0  0
   27.8426  -20.4601   -8.3278 C   0  0  1  0  0  0  0  0  0  0  0  0
   27.4316  -21.5026   -7.3809 C   0  0  0  0  0  0  0  0  0  0  0  0
   28.2675  -22.0140   -6.3774 O   0  0  0  0  0  0  0  0  0  0  0  0
   26.2738  -21.9929   -7.4368 O   0  0  0  0  0  0  0  0  0  0  0  0
  2  1  1  6
  2  3  1  0
  3  4  1  0
  4  5  2  0
  5  6  1  0
  7  6  2  0
  8  7  1  0
  9  4  1  0
  9  8  2  0
 10  2  1  0
 11 10  2  0
 13 12  1  0
 13 14  2  0
 15 14  1  0
 16 15  2  0
 17 16  1  0
 18 19  1  0
 18 17  1  6
 19 10  1  0
 20 18  1  0
 21 20  2  0
 22 23  2  0
 22 16  1  0
 23 13  1  0
 24 20  1  0
 25 24  1  0
 26 25  1  0
 26 27  1  0
 27 28  1  0
 28 24  1  0
 28 29  1  1
 30 29  1  0
 31 29  2  0
M  END
$$$$
