FYP.pdb
     RDKit          3D

 31 33  0  0  1  0  0  0  0  0999 V2000
   24.3141  -16.0984  -17.9282 N   0  0  0  0  0  0  0  0  0  0  0  0
   23.4450  -17.2525  -17.8810 C   0  0  1  0  0  0  0  0  0  0  0  0
   24.0341  -18.2878  -18.8065 C   0  0  0  0  0  0  0  0  0  0  0  0
   23.6096  -18.1120  -20.2104 C   0  0  0  0  0  0  0  0  0  0  0  0
   24.4678  -17.6130  -21.1585 C   0  0  0  0  0  0  0  0  0  0  0  0
   24.0424  -17.4605  -22.4612 C   0  0  0  0  0  0  0  0  0  0  0  0
   22.7624  -17.8051  -22.8189 C   0  0  0  0  0  0  0  0  0  0  0  0
   21.8976  -18.3098  -21.8555 C   0  0  0  0  0  0  0  0  0  0  0  0
   22.3280  -18.4627  -20.5437 C   0  0  0  0  0  0  0  0  0  0  0  0
   23.3308  -17.8270  -16.5321 C   0  0  0  0  0  0  0  0  0  0  0  0
   24.3711  -17.8998  -15.8345 O   0  0  0  0  0  0  0  0  0  0  0  0
   20.5659  -20.9443   -8.8518 O   0  0  0  0  0  0  0  0  0  0  0  0
   20.5676  -20.4559  -10.1544 C   0  0  0  0  0  0  0  0  0  0  0  0
   20.2506  -21.2488  -11.2378 C   0  0  0  0  0  0  0  0  0  0  0  0
   20.2696  -20.7064  -12.5113 C   0  0  0  0  0  0  0  0  0  0  0  0
   20.5976  -19.3873  -12.7387 C   0  0  0  0  0  0  0  0  0  0  0  0
   20.6193  -18.7982  -14.1168 C   0  0  0  0  0  0  0  0  0  0  0  0
   22.0445  -18.8950  -14.6392 C   0  0  2  0  0  0  0  0  0  0  0  0
   22.1181  -18.3036  -15.9718 N   0  0  0  0  0  0  0  0  0  0  0  0
   22.4123  -20.3278  -14.6891 C   0  0  0  0  0  0  0  0  0  0  0  0
   21.9712  -20.9734  -15.7095 O   0  0  0  0  0  0  0  0  0  0  0  0
   20.9128  -18.6049  -11.6460 C   0  0  0  0  0  0  0  0  0  0  0  0
   20.8964  -19.1346  -10.3811 C   0  0  0  0  0  0  0  0  0  0  0  0
   23.1819  -21.0091  -13.7390 N   0  0  0  0  0  0  0  0  0  0  0  0
   23.7110  -20.5190  -12.4921 C   0  0  0  0  0  0  0  0  0  0  0  0
   24.9918  -21.3145  -12.2883 C   0  0  0  0  0  0  0  0  0  0  0  0
   25.0165  -22.3470  -13.3601 C   0  0  0  0  0  0  0  0  0  0  0  0
   23.6126  -22.4136  -13.8611 C   0  0  1  0  0  0  0  0  0  0  0  0
   22.7585  -23.2385  -12.9995 C   0  0  0  0  0  0  0  0  0  0  0  0
   22.8027  -24.6403  -12.9749 O   0  0  0  0  0  0  0  0  0  0  0  0
   21.9262  -22.6995  -12.2245 O   0  0  0  0  0  0  0  0  0  0  0  0
  2  1  1  1
  2  3  1  0
  3  4  1  0
  4  5  2  0
  5  6  1  0
  7  6  2  0
  8  7  1  0
  9  4  1  0
  9  8  2  0
 10  2  1  0
 11 10  2  0
 13 12  1  0
 13 14  2  0
 15 14  1  0
 16 15  2  0
 17 16  1  0
 18 19  1  0
 18 17  1  6
 19 10  1  0
 20 18  1  0
 21 20  2  0
 22 23  2  0
 22 16  1  0
 23 13  1  0
 24 20  1  0
 25 24  1  0
 26 25  1  0
 26 27  1  0
 27 28  1  0
 28 24  1  0
 28 29  1  1
 30 29  1  0
 31 29  2  0
M  END
$$$$
