FYP.pdb
     RDKit          3D

 31 33  0  0  1  0  0  0  0  0999 V2000
   23.9019  -27.2762    9.8446 N   0  0  0  0  0  0  0  0  0  0  0  0
   24.9347  -26.4489    9.2629 C   0  0  1  0  0  0  0  0  0  0  0  0
   25.0469  -25.2132   10.1209 C   0  0  0  0  0  0  0  0  0  0  0  0
   23.9534  -24.2484    9.8851 C   0  0  0  0  0  0  0  0  0  0  0  0
   23.9775  -23.3898    8.8143 C   0  0  0  0  0  0  0  0  0  0  0  0
   22.9418  -22.5004    8.6206 C   0  0  0  0  0  0  0  0  0  0  0  0
   21.8825  -22.4668    9.4935 C   0  0  0  0  0  0  0  0  0  0  0  0
   21.8628  -23.3379   10.5757 C   0  0  0  0  0  0  0  0  0  0  0  0
   22.9072  -24.2332   10.7693 C   0  0  0  0  0  0  0  0  0  0  0  0
   26.2435  -27.1179    9.2152 C   0  0  0  0  0  0  0  0  0  0  0  0
   26.4955  -27.9789   10.0923 O   0  0  0  0  0  0  0  0  0  0  0  0
   26.2115  -31.8293    4.0782 O   0  0  0  0  0  0  0  0  0  0  0  0
   26.9178  -30.8291    4.7386 C   0  0  0  0  0  0  0  0  0  0  0  0
   28.0933  -31.0824    5.4146 C   0  0  0  0  0  0  0  0  0  0  0  0
   28.7521  -30.0459    6.0534 C   0  0  0  0  0  0  0  0  0  0  0  0
   28.2702  -28.7548    6.0383 C   0  0  0  0  0  0  0  0  0  0  0  0
   28.9816  -27.6312    6.7298 C   0  0  0  0  0  0  0  0  0  0  0  0
   28.4933  -27.5906    8.1698 C   0  0  2  0  0  0  0  0  0  0  0  0
   27.2375  -26.8498    8.2396 N   0  0  0  0  0  0  0  0  0  0  0  0
   29.5337  -26.9211    8.9822 C   0  0  0  0  0  0  0  0  0  0  0  0
   29.3551  -25.6628    9.1755 O   0  0  0  0  0  0  0  0  0  0  0  0
   27.0932  -28.5150    5.3584 C   0  0  0  0  0  0  0  0  0  0  0  0
   26.4344  -29.5363    4.7229 C   0  0  0  0  0  0  0  0  0  0  0  0
   30.6601  -27.5375    9.5392 N   0  0  0  0  0  0  0  0  0  0  0  0
   31.0710  -28.9147    9.4428 C   0  0  0  0  0  0  0  0  0  0  0  0
   31.8098  -29.1791   10.7463 C   0  0  0  0  0  0  0  0  0  0  0  0
   31.9270  -27.8639   11.4334 C   0  0  0  0  0  0  0  0  0  0  0  0
   31.6660  -26.8506   10.3696 C   0  0  1  0  0  0  0  0  0  0  0  0
   32.8538  -26.5970    9.5467 C   0  0  0  0  0  0  0  0  0  0  0  0
   33.0270  -27.1111    8.2532 O   0  0  0  0  0  0  0  0  0  0  0  0
   33.7930  -25.8842    9.9870 O   0  0  0  0  0  0  0  0  0  0  0  0
  2  1  1  1
  2  3  1  0
  3  4  1  0
  4  5  2  0
  5  6  1  0
  7  6  2  0
  8  7  1  0
  9  4  1  0
  9  8  2  0
 10  2  1  0
 11 10  2  0
 13 12  1  0
 13 14  2  0
 15 14  1  0
 16 15  2  0
 17 16  1  0
 18 19  1  0
 18 17  1  6
 19 10  1  0
 20 18  1  0
 21 20  2  0
 22 23  2  0
 22 16  1  0
 23 13  1  0
 24 20  1  0
 25 24  1  0
 26 25  1  0
 26 27  1  0
 27 28  1  0
 28 24  1  0
 28 29  1  6
 30 29  1  0
 31 29  2  0
M  END
$$$$
