FYP.pdb
     RDKit          3D

 31 33  0  0  1  0  0  0  0  0999 V2000
   20.2028  -19.2085  -14.5717 N   0  0  0  0  0  0  0  0  0  0  0  0
   21.1883  -19.7017  -15.5071 C   0  0  1  0  0  0  0  0  0  0  0  0
   21.1287  -18.8109  -16.7230 C   0  0  0  0  0  0  0  0  0  0  0  0
   20.2832  -19.3646  -17.8003 C   0  0  0  0  0  0  0  0  0  0  0  0
   18.9997  -18.9205  -18.0002 C   0  0  0  0  0  0  0  0  0  0  0  0
   18.2349  -19.4566  -19.0145 C   0  0  0  0  0  0  0  0  0  0  0  0
   18.7489  -20.4350  -19.8292 C   0  0  0  0  0  0  0  0  0  0  0  0
   20.0485  -20.8811  -19.6229 C   0  0  0  0  0  0  0  0  0  0  0  0
   20.8174  -20.3397  -18.6005 C   0  0  0  0  0  0  0  0  0  0  0  0
   22.5546  -19.6772  -14.9634 C   0  0  0  0  0  0  0  0  0  0  0  0
   22.9849  -18.5918  -14.5044 O   0  0  0  0  0  0  0  0  0  0  0  0
   22.8547  -20.4071   -8.3344 O   0  0  0  0  0  0  0  0  0  0  0  0
   23.3287  -20.7864   -9.5861 C   0  0  0  0  0  0  0  0  0  0  0  0
   22.4893  -21.2285  -10.5875 C   0  0  0  0  0  0  0  0  0  0  0  0
   23.0194  -21.5925  -11.8135 C   0  0  0  0  0  0  0  0  0  0  0  0
   24.3716  -21.5284  -12.0727 C   0  0  0  0  0  0  0  0  0  0  0  0
   24.9476  -21.9225  -13.3991 C   0  0  0  0  0  0  0  0  0  0  0  0
   24.7563  -20.7531  -14.3528 C   0  0  2  0  0  0  0  0  0  0  0  0
   23.4149  -20.8043  -14.9263 N   0  0  0  0  0  0  0  0  0  0  0  0
   25.7780  -20.8655  -15.4179 C   0  0  0  0  0  0  0  0  0  0  0  0
   25.3904  -21.4576  -16.4911 O   0  0  0  0  0  0  0  0  0  0  0  0
   25.2003  -21.0844  -11.0621 C   0  0  0  0  0  0  0  0  0  0  0  0
   24.6830  -20.7220   -9.8447 C   0  0  0  0  0  0  0  0  0  0  0  0
   27.0917  -20.3881  -15.3458 N   0  0  0  0  0  0  0  0  0  0  0  0
   27.8146  -19.9164  -14.1926 C   0  0  0  0  0  0  0  0  0  0  0  0
   28.7790  -18.8805  -14.7509 C   0  0  0  0  0  0  0  0  0  0  0  0
   28.6637  -18.9592  -16.2327 C   0  0  0  0  0  0  0  0  0  0  0  0
   28.0049  -20.2717  -16.4972 C   0  0  1  0  0  0  0  0  0  0  0  0
   28.9578  -21.3862  -16.4495 C   0  0  0  0  0  0  0  0  0  0  0  0
   29.8884  -21.6565  -17.4635 O   0  0  0  0  0  0  0  0  0  0  0  0
   28.9752  -22.1671  -15.4628 O   0  0  0  0  0  0  0  0  0  0  0  0
  2  1  1  1
  2  3  1  0
  3  4  1  0
  4  5  2  0
  5  6  1  0
  7  6  2  0
  8  7  1  0
  9  4  1  0
  9  8  2  0
 10  2  1  0
 11 10  2  0
 13 12  1  0
 13 14  2  0
 15 14  1  0
 16 15  2  0
 17 16  1  0
 18 19  1  0
 18 17  1  1
 19 10  1  0
 20 18  1  0
 21 20  2  0
 22 23  2  0
 22 16  1  0
 23 13  1  0
 24 20  1  0
 25 24  1  0
 26 25  1  0
 26 27  1  0
 27 28  1  0
 28 24  1  0
 28 29  1  1
 30 29  1  0
 31 29  2  0
M  END
$$$$
