FYP.pdb
     RDKit          3D

 31 33  0  0  1  0  0  0  0  0999 V2000
   23.0829  -17.9134  -18.1003 N   0  0  0  0  0  0  0  0  0  0  0  0
   22.1908  -18.8017  -17.3900 C   0  0  1  0  0  0  0  0  0  0  0  0
   22.5754  -20.2103  -17.7688 C   0  0  0  0  0  0  0  0  0  0  0  0
   22.2561  -20.5352  -19.1740 C   0  0  0  0  0  0  0  0  0  0  0  0
   20.9633  -20.5154  -19.6353 C   0  0  0  0  0  0  0  0  0  0  0  0
   20.6966  -20.8233  -20.9526 C   0  0  0  0  0  0  0  0  0  0  0  0
   21.7180  -21.1509  -21.8098 C   0  0  0  0  0  0  0  0  0  0  0  0
   23.0247  -21.1695  -21.3381 C   0  0  0  0  0  0  0  0  0  0  0  0
   23.2913  -20.8590  -20.0107 C   0  0  0  0  0  0  0  0  0  0  0  0
   22.2840  -18.6573  -15.9295 C   0  0  0  0  0  0  0  0  0  0  0  0
   23.4042  -18.3807  -15.4367 O   0  0  0  0  0  0  0  0  0  0  0  0
   15.4102  -17.8118  -15.6778 O   0  0  0  0  0  0  0  0  0  0  0  0
   16.6367  -17.7561  -15.0236 C   0  0  0  0  0  0  0  0  0  0  0  0
   16.8643  -18.4098  -13.8304 C   0  0  0  0  0  0  0  0  0  0  0  0
   18.1062  -18.3175  -13.2259 C   0  0  0  0  0  0  0  0  0  0  0  0
   19.1358  -17.5876  -13.7798 C   0  0  0  0  0  0  0  0  0  0  0  0
   20.4811  -17.4860  -13.1267 C   0  0  0  0  0  0  0  0  0  0  0  0
   21.3147  -18.6679  -13.5975 C   0  0  2  0  0  0  0  0  0  0  0  0
   21.1864  -18.8115  -15.0444 N   0  0  0  0  0  0  0  0  0  0  0  0
   20.8110  -19.8791  -12.9117 C   0  0  0  0  0  0  0  0  0  0  0  0
   20.2448  -20.7466  -13.6730 O   0  0  0  0  0  0  0  0  0  0  0  0
   18.8948  -16.9385  -14.9739 C   0  0  0  0  0  0  0  0  0  0  0  0
   17.6671  -17.0248  -15.5791 C   0  0  0  0  0  0  0  0  0  0  0  0
   20.9046  -20.1420  -11.5401 N   0  0  0  0  0  0  0  0  0  0  0  0
   21.4047  -19.2880  -10.4934 C   0  0  0  0  0  0  0  0  0  0  0  0
   21.9734  -20.2510   -9.4618 C   0  0  0  0  0  0  0  0  0  0  0  0
   21.5947  -21.6177   -9.9136 C   0  0  0  0  0  0  0  0  0  0  0  0
   20.4951  -21.4049  -10.8995 C   0  0  1  0  0  0  0  0  0  0  0  0
   19.1997  -21.1950  -10.2436 C   0  0  0  0  0  0  0  0  0  0  0  0
   18.4366  -22.2292   -9.6819 O   0  0  0  0  0  0  0  0  0  0  0  0
   18.7092  -20.0391  -10.1583 O   0  0  0  0  0  0  0  0  0  0  0  0
  2  1  1  6
  2  3  1  0
  3  4  1  0
  4  5  2  0
  5  6  1  0
  7  6  2  0
  8  7  1  0
  9  4  1  0
  9  8  2  0
 10  2  1  0
 11 10  2  0
 13 12  1  0
 13 14  2  0
 15 14  1  0
 16 15  2  0
 17 16  1  0
 18 19  1  0
 18 17  1  1
 19 10  1  0
 20 18  1  0
 21 20  2  0
 22 23  2  0
 22 16  1  0
 23 13  1  0
 24 20  1  0
 25 24  1  0
 26 25  1  0
 26 27  1  0
 27 28  1  0
 28 24  1  0
 28 29  1  1
 30 29  1  0
 31 29  2  0
M  END
$$$$
