FYP.pdb
     RDKit          3D

 31 33  0  0  1  0  0  0  0  0999 V2000
   25.7934  -21.2108   -7.3507 N   0  0  0  0  0  0  0  0  0  0  0  0
   26.7555  -20.5219   -8.1811 C   0  0  1  0  0  0  0  0  0  0  0  0
   28.1077  -20.7091   -7.5394 C   0  0  0  0  0  0  0  0  0  0  0  0
   28.2212  -20.0343   -6.2302 C   0  0  0  0  0  0  0  0  0  0  0  0
   28.4251  -20.7472   -5.0749 C   0  0  0  0  0  0  0  0  0  0  0  0
   28.5271  -20.0890   -3.8677 C   0  0  0  0  0  0  0  0  0  0  0  0
   28.4258  -18.7208   -3.8117 C   0  0  0  0  0  0  0  0  0  0  0  0
   28.2194  -18.0038   -4.9838 C   0  0  0  0  0  0  0  0  0  0  0  0
   28.1169  -18.6688   -6.1991 C   0  0  0  0  0  0  0  0  0  0  0  0
   26.8022  -21.0441   -9.5551 C   0  0  0  0  0  0  0  0  0  0  0  0
   27.3033  -22.1801   -9.7351 O   0  0  0  0  0  0  0  0  0  0  0  0
   20.2348  -19.6330  -11.9168 O   0  0  0  0  0  0  0  0  0  0  0  0
   21.5004  -20.2091  -11.9591 C   0  0  0  0  0  0  0  0  0  0  0  0
   22.1573  -20.6261  -10.8200 C   0  0  0  0  0  0  0  0  0  0  0  0
   23.4160  -21.1927  -10.9248 C   0  0  0  0  0  0  0  0  0  0  0  0
   24.0440  -21.3573  -12.1406 C   0  0  0  0  0  0  0  0  0  0  0  0
   25.4070  -21.9700  -12.2563 C   0  0  0  0  0  0  0  0  0  0  0  0
   26.4308  -20.8648  -12.0466 C   0  0  2  0  0  0  0  0  0  0  0  0
   26.3159  -20.3431  -10.6882 N   0  0  0  0  0  0  0  0  0  0  0  0
   26.1542  -19.7979  -13.0346 C   0  0  0  0  0  0  0  0  0  0  0  0
   25.2298  -18.9682  -12.7035 O   0  0  0  0  0  0  0  0  0  0  0  0
   23.3758  -20.9358  -13.2724 C   0  0  0  0  0  0  0  0  0  0  0  0
   22.1286  -20.3735  -13.1771 C   0  0  0  0  0  0  0  0  0  0  0  0
   26.8054  -19.6301  -14.2622 N   0  0  0  0  0  0  0  0  0  0  0  0
   27.6957  -20.5380  -14.9388 C   0  0  0  0  0  0  0  0  0  0  0  0
   28.6371  -19.6313  -15.7177 C   0  0  0  0  0  0  0  0  0  0  0  0
   28.1016  -18.2502  -15.5719 C   0  0  0  0  0  0  0  0  0  0  0  0
   26.6935  -18.4312  -15.1126 C   0  0  1  0  0  0  0  0  0  0  0  0
   25.7855  -18.7330  -16.2247 C   0  0  0  0  0  0  0  0  0  0  0  0
   25.2829  -17.7616  -17.1029 O   0  0  0  0  0  0  0  0  0  0  0  0
   25.4116  -19.9156  -16.4384 O   0  0  0  0  0  0  0  0  0  0  0  0
  2  1  1  1
  2  3  1  0
  3  4  1  0
  4  5  2  0
  5  6  1  0
  7  6  2  0
  8  7  1  0
  9  4  1  0
  9  8  2  0
 10  2  1  0
 11 10  2  0
 13 12  1  0
 13 14  2  0
 15 14  1  0
 16 15  2  0
 17 16  1  0
 18 19  1  0
 18 17  1  1
 19 10  1  0
 20 18  1  0
 21 20  2  0
 22 23  2  0
 22 16  1  0
 23 13  1  0
 24 20  1  0
 25 24  1  0
 26 25  1  0
 26 27  1  0
 27 28  1  0
 28 24  1  0
 28 29  1  6
 30 29  1  0
 31 29  2  0
M  END
$$$$
