FYP.pdb
     RDKit          3D

 31 33  0  0  1  0  0  0  0  0999 V2000
   25.9468  -19.7138  -16.1228 N   0  0  0  0  0  0  0  0  0  0  0  0
   26.6657  -20.2461  -14.9872 C   0  0  1  0  0  0  0  0  0  0  0  0
   28.0192  -19.5803  -14.9692 C   0  0  0  0  0  0  0  0  0  0  0  0
   28.8495  -19.9969  -13.8207 C   0  0  0  0  0  0  0  0  0  0  0  0
   29.1335  -19.1313  -12.7938 C   0  0  0  0  0  0  0  0  0  0  0  0
   29.9115  -19.5494  -11.7350 C   0  0  0  0  0  0  0  0  0  0  0  0
   30.4062  -20.8298  -11.6995 C   0  0  0  0  0  0  0  0  0  0  0  0
   30.1159  -21.7021  -12.7413 C   0  0  0  0  0  0  0  0  0  0  0  0
   29.3320  -21.2789  -13.8071 C   0  0  0  0  0  0  0  0  0  0  0  0
   25.9879  -19.9853  -13.7085 C   0  0  0  0  0  0  0  0  0  0  0  0
   25.6295  -18.8083  -13.4628 O   0  0  0  0  0  0  0  0  0  0  0  0
   19.8468  -18.3682  -14.2785 O   0  0  0  0  0  0  0  0  0  0  0  0
   20.7985  -19.1425  -13.6227 C   0  0  0  0  0  0  0  0  0  0  0  0
   21.5541  -20.0916  -14.2793 C   0  0  0  0  0  0  0  0  0  0  0  0
   22.4865  -20.8322  -13.5732 C   0  0  0  0  0  0  0  0  0  0  0  0
   22.6896  -20.6533  -12.2217 C   0  0  0  0  0  0  0  0  0  0  0  0
   23.6982  -21.4544  -11.4552 C   0  0  0  0  0  0  0  0  0  0  0  0
   25.0151  -20.6941  -11.4882 C   0  0  2  0  0  0  0  0  0  0  0  0
   25.7147  -20.9817  -12.7367 N   0  0  0  0  0  0  0  0  0  0  0  0
   25.8230  -21.1369  -10.3297 C   0  0  0  0  0  0  0  0  0  0  0  0
   26.3872  -22.2847  -10.4596 O   0  0  0  0  0  0  0  0  0  0  0  0
   21.9270  -19.7004  -11.5769 C   0  0  0  0  0  0  0  0  0  0  0  0
   21.0012  -18.9626  -12.2693 C   0  0  0  0  0  0  0  0  0  0  0  0
   26.0134  -20.4204   -9.1426 N   0  0  0  0  0  0  0  0  0  0  0  0
   25.5158  -19.1151   -8.7909 C   0  0  0  0  0  0  0  0  0  0  0  0
   26.5707  -18.5512   -7.8506 C   0  0  0  0  0  0  0  0  0  0  0  0
   27.5275  -19.6598   -7.5842 C   0  0  0  0  0  0  0  0  0  0  0  0
   26.8030  -20.8985   -7.9932 C   0  0  1  0  0  0  0  0  0  0  0  0
   25.8775  -21.3640   -6.9545 C   0  0  0  0  0  0  0  0  0  0  0  0
   24.4953  -21.5010   -7.1502 O   0  0  0  0  0  0  0  0  0  0  0  0
   26.3050  -21.6679   -5.8105 O   0  0  0  0  0  0  0  0  0  0  0  0
  2  1  1  6
  2  3  1  0
  3  4  1  0
  4  5  2  0
  5  6  1  0
  7  6  2  0
  8  7  1  0
  9  4  1  0
  9  8  2  0
 10  2  1  0
 11 10  2  0
 13 12  1  0
 13 14  2  0
 15 14  1  0
 16 15  2  0
 17 16  1  0
 18 19  1  0
 18 17  1  6
 19 10  1  0
 20 18  1  0
 21 20  2  0
 22 23  2  0
 22 16  1  0
 23 13  1  0
 24 20  1  0
 25 24  1  0
 26 25  1  0
 26 27  1  0
 27 28  1  0
 28 24  1  0
 28 29  1  1
 30 29  1  0
 31 29  2  0
M  END
$$$$
