FYP.pdb
     RDKit          3D

 31 33  0  0  1  0  0  0  0  0999 V2000
   20.0939  -17.5932  -16.8563 N   0  0  0  0  0  0  0  0  0  0  0  0
   20.9538  -18.7439  -17.0182 C   0  0  1  0  0  0  0  0  0  0  0  0
   21.6047  -18.6222  -18.3735 C   0  0  0  0  0  0  0  0  0  0  0  0
   20.6740  -18.9036  -19.4856 C   0  0  0  0  0  0  0  0  0  0  0  0
   20.0476  -20.1196  -19.6019 C   0  0  0  0  0  0  0  0  0  0  0  0
   19.1838  -20.3524  -20.6512 C   0  0  0  0  0  0  0  0  0  0  0  0
   18.9444  -19.3738  -21.5840 C   0  0  0  0  0  0  0  0  0  0  0  0
   19.5808  -18.1448  -21.4618 C   0  0  0  0  0  0  0  0  0  0  0  0
   20.4506  -17.9122  -20.4041 C   0  0  0  0  0  0  0  0  0  0  0  0
   22.0023  -18.8228  -15.9899 C   0  0  0  0  0  0  0  0  0  0  0  0
   22.6778  -17.7911  -15.7592 O   0  0  0  0  0  0  0  0  0  0  0  0
   27.0327  -20.6383   -9.1566 O   0  0  0  0  0  0  0  0  0  0  0  0
   26.0411  -20.7262  -10.1284 C   0  0  0  0  0  0  0  0  0  0  0  0
   24.8234  -20.0916   -9.9963 C   0  0  0  0  0  0  0  0  0  0  0  0
   23.8751  -20.2159  -10.9972 C   0  0  0  0  0  0  0  0  0  0  0  0
   24.1064  -20.9595  -12.1343 C   0  0  0  0  0  0  0  0  0  0  0  0
   23.0809  -21.0958  -13.2190 C   0  0  0  0  0  0  0  0  0  0  0  0
   23.3980  -20.0617  -14.2884 C   0  0  2  0  0  0  0  0  0  0  0  0
   22.2964  -19.9927  -15.2437 N   0  0  0  0  0  0  0  0  0  0  0  0
   24.6449  -20.4801  -14.9674 C   0  0  0  0  0  0  0  0  0  0  0  0
   24.5022  -21.3823  -15.8720 O   0  0  0  0  0  0  0  0  0  0  0  0
   25.3288  -21.5893  -12.2539 C   0  0  0  0  0  0  0  0  0  0  0  0
   26.2736  -21.4712  -11.2668 C   0  0  0  0  0  0  0  0  0  0  0  0
   25.9261  -19.9804  -14.7071 N   0  0  0  0  0  0  0  0  0  0  0  0
   26.3883  -19.2472  -13.5566 C   0  0  0  0  0  0  0  0  0  0  0  0
   27.4933  -18.3531  -14.0993 C   0  0  0  0  0  0  0  0  0  0  0  0
   27.7120  -18.7705  -15.5111 C   0  0  0  0  0  0  0  0  0  0  0  0
   27.0792  -20.1178  -15.6153 C   0  0  1  0  0  0  0  0  0  0  0  0
   27.9527  -21.1783  -15.1007 C   0  0  0  0  0  0  0  0  0  0  0  0
   29.0910  -21.6430  -15.7757 O   0  0  0  0  0  0  0  0  0  0  0  0
   27.7035  -21.7286  -13.9966 O   0  0  0  0  0  0  0  0  0  0  0  0
  2  1  1  1
  2  3  1  0
  3  4  1  0
  4  5  2  0
  5  6  1  0
  7  6  2  0
  8  7  1  0
  9  4  1  0
  9  8  2  0
 10  2  1  0
 11 10  2  0
 13 12  1  0
 13 14  2  0
 15 14  1  0
 16 15  2  0
 17 16  1  0
 18 19  1  0
 18 17  1  1
 19 10  1  0
 20 18  1  0
 21 20  2  0
 22 23  2  0
 22 16  1  0
 23 13  1  0
 24 20  1  0
 25 24  1  0
 26 25  1  0
 26 27  1  0
 27 28  1  0
 28 24  1  0
 28 29  1  1
 30 29  1  0
 31 29  2  0
M  END
$$$$
