FYP.pdb
     RDKit          3D

 31 33  0  0  1  0  0  0  0  0999 V2000
   25.4976  -15.9204  -17.2305 N   0  0  0  0  0  0  0  0  0  0  0  0
   26.2106  -17.0354  -16.6492 C   0  0  1  0  0  0  0  0  0  0  0  0
   27.5361  -16.5063  -16.1606 C   0  0  0  0  0  0  0  0  0  0  0  0
   28.6565  -16.8402  -17.0636 C   0  0  0  0  0  0  0  0  0  0  0  0
   29.1945  -18.1027  -17.0969 C   0  0  0  0  0  0  0  0  0  0  0  0
   30.2400  -18.3841  -17.9507 C   0  0  0  0  0  0  0  0  0  0  0  0
   30.7491  -17.4077  -18.7709 C   0  0  0  0  0  0  0  0  0  0  0  0
   30.2011  -16.1315  -18.7334 C   0  0  0  0  0  0  0  0  0  0  0  0
   29.1478  -15.8500  -17.8726 C   0  0  0  0  0  0  0  0  0  0  0  0
   25.4939  -17.6455  -15.5193 C   0  0  0  0  0  0  0  0  0  0  0  0
   25.0424  -16.8842  -14.6300 O   0  0  0  0  0  0  0  0  0  0  0  0
   19.9591  -21.8802  -10.5239 O   0  0  0  0  0  0  0  0  0  0  0  0
   20.8341  -21.5771  -11.5620 C   0  0  0  0  0  0  0  0  0  0  0  0
   22.0232  -22.2527  -11.7427 C   0  0  0  0  0  0  0  0  0  0  0  0
   22.8538  -21.9062  -12.7946 C   0  0  0  0  0  0  0  0  0  0  0  0
   22.5319  -20.8987  -13.6783 C   0  0  0  0  0  0  0  0  0  0  0  0
   23.4300  -20.5216  -14.8175 C   0  0  0  0  0  0  0  0  0  0  0  0
   24.5163  -19.6094  -14.2682 C   0  0  2  0  0  0  0  0  0  0  0  0
   25.2818  -19.0403  -15.3731 N   0  0  0  0  0  0  0  0  0  0  0  0
   25.3937  -20.4234  -13.3974 C   0  0  0  0  0  0  0  0  0  0  0  0
   26.2224  -21.1890  -14.0136 O   0  0  0  0  0  0  0  0  0  0  0  0
   21.3394  -20.2307  -13.4861 C   0  0  0  0  0  0  0  0  0  0  0  0
   20.5109  -20.5679  -12.4464 C   0  0  0  0  0  0  0  0  0  0  0  0
   25.3892  -20.4195  -11.9978 N   0  0  0  0  0  0  0  0  0  0  0  0
   24.4824  -19.7463  -11.1037 C   0  0  0  0  0  0  0  0  0  0  0  0
   25.3232  -19.4445   -9.8721 C   0  0  0  0  0  0  0  0  0  0  0  0
   26.6262  -20.1338  -10.0774 C   0  0  0  0  0  0  0  0  0  0  0  0
   26.3663  -21.1326  -11.1551 C   0  0  1  0  0  0  0  0  0  0  0  0
   25.7327  -22.3501  -10.6371 C   0  0  0  0  0  0  0  0  0  0  0  0
   26.3707  -23.2494   -9.7700 O   0  0  0  0  0  0  0  0  0  0  0  0
   24.5527  -22.6419  -10.9632 O   0  0  0  0  0  0  0  0  0  0  0  0
  2  1  1  1
  2  3  1  0
  3  4  1  0
  4  5  2  0
  5  6  1  0
  7  6  2  0
  8  7  1  0
  9  4  1  0
  9  8  2  0
 10  2  1  0
 11 10  2  0
 13 12  1  0
 13 14  2  0
 15 14  1  0
 16 15  2  0
 17 16  1  0
 18 19  1  0
 18 17  1  6
 19 10  1  0
 20 18  1  0
 21 20  2  0
 22 23  2  0
 22 16  1  0
 23 13  1  0
 24 20  1  0
 25 24  1  0
 26 25  1  0
 26 27  1  0
 27 28  1  0
 28 24  1  0
 28 29  1  1
 30 29  1  0
 31 29  2  0
M  END
$$$$
