FYP.pdb
     RDKit          3D

 31 33  0  0  1  0  0  0  0  0999 V2000
   24.5666  -18.4682  -15.2326 N   0  0  0  0  0  0  0  0  0  0  0  0
   24.0736  -19.2316  -14.1083 C   0  0  1  0  0  0  0  0  0  0  0  0
   23.6957  -20.5951  -14.6313 C   0  0  0  0  0  0  0  0  0  0  0  0
   22.5356  -20.5590  -15.5451 C   0  0  0  0  0  0  0  0  0  0  0  0
   22.6769  -20.8051  -16.8882 C   0  0  0  0  0  0  0  0  0  0  0  0
   21.5750  -20.7644  -17.7160 C   0  0  0  0  0  0  0  0  0  0  0  0
   20.3329  -20.4786  -17.2056 C   0  0  0  0  0  0  0  0  0  0  0  0
   20.1951  -20.2302  -15.8455 C   0  0  0  0  0  0  0  0  0  0  0  0
   21.3064  -20.2717  -15.0131 C   0  0  0  0  0  0  0  0  0  0  0  0
   25.0742  -19.3892  -13.0420 C   0  0  0  0  0  0  0  0  0  0  0  0
   26.2835  -19.4334  -13.3730 O   0  0  0  0  0  0  0  0  0  0  0  0
   29.2878  -19.8057   -5.3873 O   0  0  0  0  0  0  0  0  0  0  0  0
   28.2710  -19.7009   -6.3309 C   0  0  0  0  0  0  0  0  0  0  0  0
   27.7502  -18.4838   -6.7188 C   0  0  0  0  0  0  0  0  0  0  0  0
   26.7384  -18.4423   -7.6628 C   0  0  0  0  0  0  0  0  0  0  0  0
   26.2267  -19.5866   -8.2359 C   0  0  0  0  0  0  0  0  0  0  0  0
   25.1310  -19.5440   -9.2577 C   0  0  0  0  0  0  0  0  0  0  0  0
   25.7738  -19.6640  -10.6310 C   0  0  2  0  0  0  0  0  0  0  0  0
   24.7562  -19.4944  -11.6638 N   0  0  0  0  0  0  0  0  0  0  0  0
   26.3885  -21.0070  -10.7275 C   0  0  0  0  0  0  0  0  0  0  0  0
   25.5647  -21.9769  -10.9101 O   0  0  0  0  0  0  0  0  0  0  0  0
   26.7567  -20.7977   -7.8389 C   0  0  0  0  0  0  0  0  0  0  0  0
   27.7592  -20.8474   -6.9042 C   0  0  0  0  0  0  0  0  0  0  0  0
   27.7565  -21.2895  -10.6395 N   0  0  0  0  0  0  0  0  0  0  0  0
   28.8190  -20.4462  -10.1548 C   0  0  0  0  0  0  0  0  0  0  0  0
   30.0387  -20.8813  -10.9534 C   0  0  0  0  0  0  0  0  0  0  0  0
   29.6240  -22.0837  -11.7265 C   0  0  0  0  0  0  0  0  0  0  0  0
   28.3781  -22.5593  -11.0570 C   0  0  1  0  0  0  0  0  0  0  0  0
   28.6658  -23.3529   -9.8570 C   0  0  0  0  0  0  0  0  0  0  0  0
   29.2698  -24.6184   -9.8889 O   0  0  0  0  0  0  0  0  0  0  0  0
   28.3706  -22.9115   -8.7160 O   0  0  0  0  0  0  0  0  0  0  0  0
  2  1  1  6
  2  3  1  0
  3  4  1  0
  4  5  2  0
  5  6  1  0
  7  6  2  0
  8  7  1  0
  9  4  1  0
  9  8  2  0
 10  2  1  0
 11 10  2  0
 13 12  1  0
 13 14  2  0
 15 14  1  0
 16 15  2  0
 17 16  1  0
 18 19  1  0
 18 17  1  1
 19 10  1  0
 20 18  1  0
 21 20  2  0
 22 23  2  0
 22 16  1  0
 23 13  1  0
 24 20  1  0
 25 24  1  0
 26 25  1  0
 26 27  1  0
 27 28  1  0
 28 24  1  0
 28 29  1  1
 30 29  1  0
 31 29  2  0
M  END
$$$$
