FYP.pdb
     RDKit          3D

 31 33  0  0  1  0  0  0  0  0999 V2000
   28.8693  -21.8291  -18.9287 N   0  0  0  0  0  0  0  0  0  0  0  0
   28.3224  -20.6906  -18.2257 C   0  0  1  0  0  0  0  0  0  0  0  0
   27.2257  -20.1216  -19.0911 C   0  0  0  0  0  0  0  0  0  0  0  0
   27.7048  -19.0653  -20.0058 C   0  0  0  0  0  0  0  0  0  0  0  0
   28.1366  -19.3617  -21.2747 C   0  0  0  0  0  0  0  0  0  0  0  0
   28.5780  -18.3537  -22.1057 C   0  0  0  0  0  0  0  0  0  0  0  0
   28.5891  -17.0510  -21.6721 C   0  0  0  0  0  0  0  0  0  0  0  0
   28.1511  -16.7562  -20.3870 C   0  0  0  0  0  0  0  0  0  0  0  0
   27.7068  -17.7730  -19.5514 C   0  0  0  0  0  0  0  0  0  0  0  0
   27.7605  -21.0452  -16.9137 C   0  0  0  0  0  0  0  0  0  0  0  0
   27.1096  -22.1139  -16.8228 O   0  0  0  0  0  0  0  0  0  0  0  0
   24.9562  -20.9692   -8.6157 O   0  0  0  0  0  0  0  0  0  0  0  0
   25.6368  -20.6362   -9.7824 C   0  0  0  0  0  0  0  0  0  0  0  0
   25.3284  -19.5108  -10.5181 C   0  0  0  0  0  0  0  0  0  0  0  0
   26.0410  -19.2311  -11.6715 C   0  0  0  0  0  0  0  0  0  0  0  0
   27.0596  -20.0459  -12.1166 C   0  0  0  0  0  0  0  0  0  0  0  0
   27.8321  -19.7452  -13.3653 C   0  0  0  0  0  0  0  0  0  0  0  0
   27.2181  -20.5563  -14.4961 C   0  0  2  0  0  0  0  0  0  0  0  0
   27.9089  -20.2539  -15.7460 N   0  0  0  0  0  0  0  0  0  0  0  0
   25.7881  -20.1867  -14.5940 C   0  0  0  0  0  0  0  0  0  0  0  0
   25.5560  -18.9949  -15.0164 O   0  0  0  0  0  0  0  0  0  0  0  0
   27.3580  -21.1687  -11.3711 C   0  0  0  0  0  0  0  0  0  0  0  0
   26.6567  -21.4529  -10.2273 C   0  0  0  0  0  0  0  0  0  0  0  0
   24.7051  -21.0131  -14.2729 N   0  0  0  0  0  0  0  0  0  0  0  0
   24.7203  -22.3197  -13.6666 C   0  0  0  0  0  0  0  0  0  0  0  0
   23.4912  -23.0128  -14.2356 C   0  0  0  0  0  0  0  0  0  0  0  0
   22.7468  -21.9777  -15.0037 C   0  0  0  0  0  0  0  0  0  0  0  0
   23.2916  -20.6754  -14.5203 C   0  0  1  0  0  0  0  0  0  0  0  0
   22.6836  -20.2606  -13.2513 C   0  0  0  0  0  0  0  0  0  0  0  0
   21.4526  -19.5943  -13.1607 O   0  0  0  0  0  0  0  0  0  0  0  0
   23.2647  -20.4956  -12.1600 O   0  0  0  0  0  0  0  0  0  0  0  0
  2  1  1  6
  2  3  1  0
  3  4  1  0
  4  5  2  0
  5  6  1  0
  7  6  2  0
  8  7  1  0
  9  4  1  0
  9  8  2  0
 10  2  1  0
 11 10  2  0
 13 12  1  0
 13 14  2  0
 15 14  1  0
 16 15  2  0
 17 16  1  0
 18 19  1  0
 18 17  1  1
 19 10  1  0
 20 18  1  0
 21 20  2  0
 22 23  2  0
 22 16  1  0
 23 13  1  0
 24 20  1  0
 25 24  1  0
 26 25  1  0
 26 27  1  0
 27 28  1  0
 28 24  1  0
 28 29  1  1
 30 29  1  0
 31 29  2  0
M  END
$$$$
