FYP.pdb
     RDKit          3D

 31 33  0  0  1  0  0  0  0  0999 V2000
   28.0684  -20.2835   -9.0827 N   0  0  0  0  0  0  0  0  0  0  0  0
   26.6654  -20.4728   -8.7905 C   0  0  1  0  0  0  0  0  0  0  0  0
   26.3329  -19.5795   -7.6214 C   0  0  0  0  0  0  0  0  0  0  0  0
   27.2473  -19.7667   -6.4764 C   0  0  0  0  0  0  0  0  0  0  0  0
   27.3133  -20.9614   -5.8035 C   0  0  0  0  0  0  0  0  0  0  0  0
   28.1771  -21.1058   -4.7384 C   0  0  0  0  0  0  0  0  0  0  0  0
   28.9747  -20.0600   -4.3443 C   0  0  0  0  0  0  0  0  0  0  0  0
   28.9042  -18.8529   -5.0287 C   0  0  0  0  0  0  0  0  0  0  0  0
   28.0334  -18.7094   -6.1014 C   0  0  0  0  0  0  0  0  0  0  0  0
   25.7938  -20.1231   -9.9221 C   0  0  0  0  0  0  0  0  0  0  0  0
   25.6726  -18.9098  -10.2174 O   0  0  0  0  0  0  0  0  0  0  0  0
   22.9386  -17.6107  -17.1666 O   0  0  0  0  0  0  0  0  0  0  0  0
   23.4193  -18.4498  -16.1665 C   0  0  0  0  0  0  0  0  0  0  0  0
   24.5191  -18.1254  -15.3996 C   0  0  0  0  0  0  0  0  0  0  0  0
   24.9512  -19.0010  -14.4183 C   0  0  0  0  0  0  0  0  0  0  0  0
   24.3147  -20.1994  -14.1769 C   0  0  0  0  0  0  0  0  0  0  0  0
   24.7812  -21.1491  -13.1153 C   0  0  0  0  0  0  0  0  0  0  0  0
   24.1919  -20.6887  -11.7908 C   0  0  2  0  0  0  0  0  0  0  0  0
   25.0823  -21.0724  -10.6996 N   0  0  0  0  0  0  0  0  0  0  0  0
   22.8713  -21.3384  -11.6325 C   0  0  0  0  0  0  0  0  0  0  0  0
   22.9017  -22.5448  -11.1896 O   0  0  0  0  0  0  0  0  0  0  0  0
   23.2156  -20.5118  -14.9512 C   0  0  0  0  0  0  0  0  0  0  0  0
   22.7812  -19.6498  -15.9254 C   0  0  0  0  0  0  0  0  0  0  0  0
   21.6320  -20.7541  -11.9182 N   0  0  0  0  0  0  0  0  0  0  0  0
   21.3587  -19.4626  -12.4947 C   0  0  0  0  0  0  0  0  0  0  0  0
   20.0222  -19.0566  -11.8914 C   0  0  0  0  0  0  0  0  0  0  0  0
   19.5287  -20.2403  -11.1360 C   0  0  0  0  0  0  0  0  0  0  0  0
   20.3270  -21.3882  -11.6572 C   0  0  1  0  0  0  0  0  0  0  0  0
   19.7956  -21.8981  -12.9260 C   0  0  0  0  0  0  0  0  0  0  0  0
   18.6316  -22.6745  -13.0248 O   0  0  0  0  0  0  0  0  0  0  0  0
   20.3854  -21.6486  -14.0094 O   0  0  0  0  0  0  0  0  0  0  0  0
  2  1  1  6
  2  3  1  0
  3  4  1  0
  4  5  2  0
  5  6  1  0
  7  6  2  0
  8  7  1  0
  9  4  1  0
  9  8  2  0
 10  2  1  0
 11 10  2  0
 13 12  1  0
 13 14  2  0
 15 14  1  0
 16 15  2  0
 17 16  1  0
 18 19  1  0
 18 17  1  6
 19 10  1  0
 20 18  1  0
 21 20  2  0
 22 23  2  0
 22 16  1  0
 23 13  1  0
 24 20  1  0
 25 24  1  0
 26 25  1  0
 26 27  1  0
 27 28  1  0
 28 24  1  0
 28 29  1  6
 30 29  1  0
 31 29  2  0
M  END
$$$$
