LMH.pdb
     RDKit          3D

 27 27  0  0  1  0  0  0  0  0999 V2000
   28.1054  -20.0699  -18.9865 C   0  0  0  0  0  0  0  0  0  0  0  0
   27.7680  -19.2174  -17.7952 C   0  0  1  0  0  0  0  0  0  0  0  0
   26.9806  -18.0161  -18.1819 C   0  0  0  0  0  0  0  0  0  0  0  0
   27.1055  -20.0738  -16.7521 C   0  0  0  0  0  0  0  0  0  0  0  0
   26.6017  -19.3117  -15.5787 C   0  0  2  0  0  0  0  0  0  0  0  0
   27.6356  -18.7300  -14.7759 N   0  0  0  0  0  0  0  0  0  0  0  0
   25.7667  -20.2139  -14.7433 C   0  0  0  0  0  0  0  0  0  0  0  0
   25.1351  -21.1977  -15.2544 O   0  0  0  0  0  0  0  0  0  0  0  0
   25.8778  -20.8232   -8.2521 C   0  0  0  0  0  0  0  0  0  0  0  0
   27.2050  -21.3785   -9.3797 S   0  0  0  0  0  0  0  0  0  0  0  0
   26.5176  -21.3755  -11.0444 C   0  0  0  0  0  0  0  0  0  0  0  0
   25.0937  -20.8965  -11.0963 C   0  0  0  0  0  0  0  0  0  0  0  0
   24.7025  -20.8509  -12.5704 C   0  0  2  0  0  0  0  0  0  0  0  0
   25.6206  -20.0412  -13.3426 N   0  0  0  0  0  0  0  0  0  0  0  0
   23.3029  -20.3664  -12.7482 C   0  0  0  0  0  0  0  0  0  0  0  0
   22.9341  -19.2205  -12.3315 O   0  0  0  0  0  0  0  0  0  0  0  0
   22.3679  -21.1976  -13.3925 N   0  0  0  0  0  0  0  0  0  0  0  0
   20.9479  -20.7999  -13.4035 C   0  0  1  0  0  0  0  0  0  0  0  0
   20.7025  -19.8110  -14.5093 C   0  0  0  0  0  0  0  0  0  0  0  0
   21.2796  -20.3055  -15.7660 C   0  0  0  0  0  0  0  0  0  0  0  0
   22.0115  -21.4830  -15.9134 C   0  0  0  0  0  0  0  0  0  0  0  0
   22.3541  -21.5666  -17.2141 N   0  0  0  0  0  0  0  0  0  0  0  0
   21.8752  -20.5071  -17.8792 C   0  0  0  0  0  0  0  0  0  0  0  0
   21.2262  -19.7565  -16.9748 N   0  0  0  0  0  0  0  0  0  0  0  0
   20.0925  -21.9969  -13.5806 C   0  0  0  0  0  0  0  0  0  0  0  0
   20.6512  -23.1137  -13.7183 O   0  0  0  0  0  0  0  0  0  0  0  0
   18.7154  -21.9744  -13.6037 O   0  0  0  0  0  0  0  0  0  0  0  0
  2  1  1  6
  2  3  1  0
  4  2  1  0
  5  4  1  0
  5  6  1  1
  7  8  2  0
  7  5  1  0
 10  9  1  0
 11 10  1  0
 11 12  1  0
 13 12  1  1
 13 14  1  0
 14  7  1  0
 15 16  2  0
 15 13  1  0
 17 15  1  0
 18 19  1  6
 18 17  1  0
 20 19  1  0
 20 21  2  0
 22 21  1  0
 23 24  2  0
 23 22  1  0
 24 20  1  0
 25 18  1  0
 26 25  2  0
 27 25  1  0
M  END
$$$$
