LMH.pdb
     RDKit          3D

 27 27  0  0  1  0  0  0  0  0999 V2000
   30.0727  -13.4249  -17.4720 C   0  0  0  0  0  0  0  0  0  0  0  0
   28.6939  -13.4946  -16.8772 C   0  0  1  0  0  0  0  0  0  0  0  0
   28.7361  -13.5440  -15.3911 C   0  0  0  0  0  0  0  0  0  0  0  0
   27.8652  -12.3679  -17.4289 C   0  0  0  0  0  0  0  0  0  0  0  0
   26.5010  -12.2812  -16.8434 C   0  0  2  0  0  0  0  0  0  0  0  0
   25.7357  -13.4853  -16.9721 N   0  0  0  0  0  0  0  0  0  0  0  0
   25.7741  -11.1548  -17.4851 C   0  0  0  0  0  0  0  0  0  0  0  0
   26.2670   -9.9783  -17.5178 O   0  0  0  0  0  0  0  0  0  0  0  0
   23.4766  -13.6785  -22.3814 C   0  0  0  0  0  0  0  0  0  0  0  0
   22.5453  -12.1437  -22.0371 S   0  0  0  0  0  0  0  0  0  0  0  0
   23.5453  -11.1636  -20.9043 C   0  0  0  0  0  0  0  0  0  0  0  0
   22.7729  -10.6590  -19.7176 C   0  0  0  0  0  0  0  0  0  0  0  0
   23.8031  -10.1960  -18.6917 C   0  0  2  0  0  0  0  0  0  0  0  0
   24.5027  -11.3135  -18.0945 N   0  0  0  0  0  0  0  0  0  0  0  0
   23.1781   -9.3472  -17.6363 C   0  0  0  0  0  0  0  0  0  0  0  0
   22.6024   -9.8583  -16.6214 O   0  0  0  0  0  0  0  0  0  0  0  0
   23.2266   -7.9469  -17.7669 N   0  0  0  0  0  0  0  0  0  0  0  0
   22.6438   -7.1102  -16.7015 C   0  0  1  0  0  0  0  0  0  0  0  0
   23.2312   -5.7272  -16.7589 C   0  0  0  0  0  0  0  0  0  0  0  0
   22.5953   -4.8665  -15.7531 C   0  0  0  0  0  0  0  0  0  0  0  0
   22.4303   -5.1813  -14.4050 C   0  0  0  0  0  0  0  0  0  0  0  0
   21.8072   -4.1313  -13.8347 N   0  0  0  0  0  0  0  0  0  0  0  0
   21.5776   -3.1849  -14.7543 C   0  0  0  0  0  0  0  0  0  0  0  0
   22.0667   -3.6579  -15.9118 N   0  0  0  0  0  0  0  0  0  0  0  0
   21.1712   -7.0537  -16.8561 C   0  0  0  0  0  0  0  0  0  0  0  0
   20.6976   -6.9291  -18.0131 O   0  0  0  0  0  0  0  0  0  0  0  0
   20.2743   -7.1306  -15.8134 O   0  0  0  0  0  0  0  0  0  0  0  0
  2  1  1  6
  2  3  1  0
  4  2  1  0
  5  4  1  0
  5  6  1  6
  7  8  2  0
  7  5  1  0
 10  9  1  0
 11 10  1  0
 11 12  1  0
 13 12  1  6
 13 14  1  0
 14  7  1  0
 15 16  2  0
 15 13  1  0
 17 15  1  0
 18 19  1  6
 18 17  1  0
 20 19  1  0
 20 21  2  0
 22 21  1  0
 23 24  2  0
 23 22  1  0
 24 20  1  0
 25 18  1  0
 26 25  2  0
 27 25  1  0
M  END
$$$$
