LMH.pdb
     RDKit          3D

 27 27  0  0  1  0  0  0  0  0999 V2000
   22.3958  -13.2773  -22.7445 C   0  0  0  0  0  0  0  0  0  0  0  0
   21.5863  -13.5708  -21.5123 C   0  0  1  0  0  0  0  0  0  0  0  0
   20.1569  -13.8225  -21.8383 C   0  0  0  0  0  0  0  0  0  0  0  0
   22.2451  -14.6853  -20.7477 C   0  0  0  0  0  0  0  0  0  0  0  0
   21.4626  -15.1542  -19.5733 C   0  0  2  0  0  0  0  0  0  0  0  0
   21.1531  -14.1209  -18.6308 N   0  0  0  0  0  0  0  0  0  0  0  0
   22.2183  -16.2401  -18.8959 C   0  0  0  0  0  0  0  0  0  0  0  0
   22.5561  -17.3023  -19.5169 O   0  0  0  0  0  0  0  0  0  0  0  0
   27.0729  -16.0056  -14.4601 C   0  0  0  0  0  0  0  0  0  0  0  0
   26.7797  -15.0628  -15.9985 S   0  0  0  0  0  0  0  0  0  0  0  0
   25.4821  -15.9227  -16.9043 C   0  0  0  0  0  0  0  0  0  0  0  0
   24.4875  -16.6062  -16.0081 C   0  0  0  0  0  0  0  0  0  0  0  0
   23.4149  -17.1974  -16.9181 C   0  0  2  0  0  0  0  0  0  0  0  0
   22.6075  -16.1658  -17.5335 N   0  0  0  0  0  0  0  0  0  0  0  0
   22.5515  -18.1675  -16.1842 C   0  0  0  0  0  0  0  0  0  0  0  0
   23.0434  -19.1722  -15.5748 O   0  0  0  0  0  0  0  0  0  0  0  0
   21.1589  -17.9661  -16.1658 N   0  0  0  0  0  0  0  0  0  0  0  0
   20.3071  -18.9353  -15.4519 C   0  0  1  0  0  0  0  0  0  0  0  0
   19.1970  -18.2129  -14.7400 C   0  0  0  0  0  0  0  0  0  0  0  0
   18.2830  -19.1796  -14.1179 C   0  0  0  0  0  0  0  0  0  0  0  0
   18.4978  -20.5540  -14.0254 C   0  0  0  0  0  0  0  0  0  0  0  0
   17.4290  -21.0718  -13.3887 N   0  0  0  0  0  0  0  0  0  0  0  0
   16.5653  -20.0949  -13.0822 C   0  0  0  0  0  0  0  0  0  0  0  0
   17.1093  -18.9549  -13.5371 N   0  0  0  0  0  0  0  0  0  0  0  0
   19.7524  -19.9188  -16.4115 C   0  0  0  0  0  0  0  0  0  0  0  0
   19.4865  -19.5305  -17.5763 O   0  0  0  0  0  0  0  0  0  0  0  0
   19.5063  -21.2419  -16.1170 O   0  0  0  0  0  0  0  0  0  0  0  0
  2  1  1  6
  2  3  1  0
  4  2  1  0
  5  4  1  0
  5  6  1  1
  7  8  2  0
  7  5  1  0
 10  9  1  0
 11 10  1  0
 11 12  1  0
 13 12  1  1
 13 14  1  0
 14  7  1  0
 15 16  2  0
 15 13  1  0
 17 15  1  0
 18 19  1  6
 18 17  1  0
 20 19  1  0
 20 21  2  0
 22 21  1  0
 23 24  2  0
 23 22  1  0
 24 20  1  0
 25 18  1  0
 26 25  2  0
 27 25  1  0
M  END
$$$$
