LMH.pdb
     RDKit          3D

 27 27  0  0  1  0  0  0  0  0999 V2000
   27.2933  -17.0531  -15.6754 C   0  0  0  0  0  0  0  0  0  0  0  0
   27.8207  -18.4386  -15.4267 C   0  0  1  0  0  0  0  0  0  0  0  0
   29.2861  -18.4333  -15.1709 C   0  0  0  0  0  0  0  0  0  0  0  0
   27.0112  -19.0821  -14.3354 C   0  0  0  0  0  0  0  0  0  0  0  0
   27.4798  -20.4428  -13.9607 C   0  0  2  0  0  0  0  0  0  0  0  0
   27.5939  -21.3438  -15.0685 N   0  0  0  0  0  0  0  0  0  0  0  0
   26.5500  -21.0086  -12.9485 C   0  0  0  0  0  0  0  0  0  0  0  0
   25.5754  -21.7592  -13.2874 O   0  0  0  0  0  0  0  0  0  0  0  0
   26.3087  -20.1745   -5.9182 C   0  0  0  0  0  0  0  0  0  0  0  0
   27.4165  -19.6182   -7.2616 S   0  0  0  0  0  0  0  0  0  0  0  0
   26.4988  -19.7810   -8.8027 C   0  0  0  0  0  0  0  0  0  0  0  0
   26.2309  -21.2101   -9.1843 C   0  0  0  0  0  0  0  0  0  0  0  0
   25.6832  -21.1858  -10.6082 C   0  0  2  0  0  0  0  0  0  0  0  0
   26.6851  -20.7539  -11.5593 N   0  0  0  0  0  0  0  0  0  0  0  0
   24.4650  -20.3309  -10.7091 C   0  0  0  0  0  0  0  0  0  0  0  0
   24.5333  -19.0603  -10.6516 O   0  0  0  0  0  0  0  0  0  0  0  0
   23.2095  -20.9455  -10.8718 N   0  0  0  0  0  0  0  0  0  0  0  0
   22.2058  -20.2998  -11.7379 C   0  0  1  0  0  0  0  0  0  0  0  0
   22.7341  -20.1940  -13.1417 C   0  0  0  0  0  0  0  0  0  0  0  0
   21.7383  -19.5511  -14.0088 C   0  0  0  0  0  0  0  0  0  0  0  0
   20.5000  -19.0614  -13.5958 C   0  0  0  0  0  0  0  0  0  0  0  0
   19.8988  -18.5541  -14.6900 N   0  0  0  0  0  0  0  0  0  0  0  0
   20.6957  -18.7026  -15.7564 C   0  0  0  0  0  0  0  0  0  0  0  0
   21.8074  -19.3116  -15.3139 N   0  0  0  0  0  0  0  0  0  0  0  0
   20.9468  -21.0811  -11.7164 C   0  0  0  0  0  0  0  0  0  0  0  0
   19.8782  -20.4984  -12.0276 O   0  0  0  0  0  0  0  0  0  0  0  0
   20.8622  -22.4139  -11.3784 O   0  0  0  0  0  0  0  0  0  0  0  0
  2  1  1  1
  2  3  1  0
  4  2  1  0
  5  4  1  0
  5  6  1  6
  7  8  2  0
  7  5  1  0
 10  9  1  0
 11 10  1  0
 11 12  1  0
 13 12  1  1
 13 14  1  0
 14  7  1  0
 15 16  2  0
 15 13  1  0
 17 15  1  0
 18 19  1  6
 18 17  1  0
 20 19  1  0
 20 21  2  0
 22 21  1  0
 23 24  2  0
 23 22  1  0
 24 20  1  0
 25 18  1  0
 26 25  2  0
 27 25  1  0
M  END
$$$$
