LMH.pdb
     RDKit          3D

 27 27  0  0  1  0  0  0  0  0999 V2000
   27.4831  -16.6407  -17.0921 C   0  0  0  0  0  0  0  0  0  0  0  0
   28.2301  -17.9292  -16.8887 C   0  0  1  0  0  0  0  0  0  0  0  0
   29.6679  -17.6920  -16.5899 C   0  0  0  0  0  0  0  0  0  0  0  0
   27.5166  -18.7502  -15.8507 C   0  0  0  0  0  0  0  0  0  0  0  0
   28.2144  -20.0157  -15.5000 C   0  0  2  0  0  0  0  0  0  0  0  0
   28.3846  -20.9112  -16.6050 N   0  0  0  0  0  0  0  0  0  0  0  0
   27.4585  -20.6959  -14.4160 C   0  0  0  0  0  0  0  0  0  0  0  0
   26.5040  -21.5019  -14.6759 O   0  0  0  0  0  0  0  0  0  0  0  0
   29.8675  -20.2194   -8.5767 C   0  0  0  0  0  0  0  0  0  0  0  0
   29.8794  -21.8833   -9.3336 S   0  0  0  0  0  0  0  0  0  0  0  0
   28.8908  -21.7858  -10.8359 C   0  0  0  0  0  0  0  0  0  0  0  0
   27.5977  -21.0429  -10.6468 C   0  0  0  0  0  0  0  0  0  0  0  0
   26.8965  -21.0365  -12.0019 C   0  0  2  0  0  0  0  0  0  0  0  0
   27.7461  -20.4953  -13.0412 N   0  0  0  0  0  0  0  0  0  0  0  0
   25.6048  -20.2927  -11.9437 C   0  0  0  0  0  0  0  0  0  0  0  0
   25.4379  -19.1933  -12.5649 O   0  0  0  0  0  0  0  0  0  0  0  0
   24.5452  -20.8204  -11.1827 N   0  0  0  0  0  0  0  0  0  0  0  0
   23.1606  -20.6073  -11.6431 C   0  0  1  0  0  0  0  0  0  0  0  0
   22.9279  -21.3553  -12.9266 C   0  0  0  0  0  0  0  0  0  0  0  0
   22.8076  -20.4122  -14.0459 C   0  0  0  0  0  0  0  0  0  0  0  0
   22.8284  -19.0222  -13.9400 C   0  0  0  0  0  0  0  0  0  0  0  0
   22.6910  -18.5357  -15.1892 N   0  0  0  0  0  0  0  0  0  0  0  0
   22.5864  -19.5466  -16.0616 C   0  0  0  0  0  0  0  0  0  0  0  0
   22.6603  -20.6763  -15.3397 N   0  0  0  0  0  0  0  0  0  0  0  0
   22.2094  -21.0597  -10.6008 C   0  0  0  0  0  0  0  0  0  0  0  0
   22.6433  -21.7878   -9.6735 O   0  0  0  0  0  0  0  0  0  0  0  0
   20.8708  -20.7355  -10.5733 O   0  0  0  0  0  0  0  0  0  0  0  0
  2  1  1  1
  2  3  1  0
  4  2  1  0
  5  4  1  0
  5  6  1  6
  7  8  2  0
  7  5  1  0
 10  9  1  0
 11 10  1  0
 11 12  1  0
 13 12  1  1
 13 14  1  0
 14  7  1  0
 15 16  2  0
 15 13  1  0
 17 15  1  0
 18 19  1  6
 18 17  1  0
 20 19  1  0
 20 21  2  0
 22 21  1  0
 23 24  2  0
 23 22  1  0
 24 20  1  0
 25 18  1  0
 26 25  2  0
 27 25  1  0
M  END
$$$$
