LMH.pdb
     RDKit          3D

 27 27  0  0  1  0  0  0  0  0999 V2000
   46.6473  -11.1685   -6.6215 C   0  0  0  0  0  0  0  0  0  0  0  0
   45.6350  -11.9239   -7.4365 C   0  0  1  0  0  0  0  0  0  0  0  0
   44.9113  -12.9339   -6.6187 C   0  0  0  0  0  0  0  0  0  0  0  0
   44.7350  -10.9411   -8.1326 C   0  0  0  0  0  0  0  0  0  0  0  0
   43.5820  -11.5700   -8.8300 C   0  0  2  0  0  0  0  0  0  0  0  0
   43.9470  -12.3273   -9.9899 N   0  0  0  0  0  0  0  0  0  0  0  0
   42.6136  -10.5083   -9.2095 C   0  0  0  0  0  0  0  0  0  0  0  0
   42.7725   -9.8104  -10.2659 O   0  0  0  0  0  0  0  0  0  0  0  0
   37.5338  -12.1703  -11.9893 C   0  0  0  0  0  0  0  0  0  0  0  0
   37.4076  -11.1475  -10.4795 S   0  0  0  0  0  0  0  0  0  0  0  0
   39.0309  -10.4196  -10.1990 C   0  0  0  0  0  0  0  0  0  0  0  0
   39.1187   -9.6457   -8.9132 C   0  0  0  0  0  0  0  0  0  0  0  0
   40.5557   -9.1445   -8.8034 C   0  0  2  0  0  0  0  0  0  0  0  0
   41.4657  -10.2069   -8.4319 N   0  0  0  0  0  0  0  0  0  0  0  0
   40.6641   -8.0058   -7.8459 C   0  0  0  0  0  0  0  0  0  0  0  0
   40.6172   -8.1853   -6.5857 O   0  0  0  0  0  0  0  0  0  0  0  0
   40.8220   -6.7013   -8.3494 N   0  0  0  0  0  0  0  0  0  0  0  0
   40.9146   -5.5764   -7.4004 C   0  0  1  0  0  0  0  0  0  0  0  0
   42.3464   -5.1368   -7.2670 C   0  0  0  0  0  0  0  0  0  0  0  0
   42.4411   -3.9988   -6.3435 C   0  0  0  0  0  0  0  0  0  0  0  0
   42.4277   -4.0815   -4.9518 C   0  0  0  0  0  0  0  0  0  0  0  0
   42.5356   -2.8212   -4.4871 N   0  0  0  0  0  0  0  0  0  0  0  0
   42.6149   -1.9638   -5.5132 C   0  0  0  0  0  0  0  0  0  0  0  0
   42.5550   -2.7065   -6.6301 N   0  0  0  0  0  0  0  0  0  0  0  0
   40.0699   -4.4528   -7.8694 C   0  0  0  0  0  0  0  0  0  0  0  0
   39.6293   -4.4887   -9.0454 O   0  0  0  0  0  0  0  0  0  0  0  0
   39.7276   -3.3615   -7.1016 O   0  0  0  0  0  0  0  0  0  0  0  0
  2  1  1  1
  2  3  1  0
  4  2  1  0
  5  4  1  0
  5  6  1  6
  7  8  2  0
  7  5  1  0
 10  9  1  0
 11 10  1  0
 11 12  1  0
 13 12  1  1
 13 14  1  0
 14  7  1  0
 15 16  2  0
 15 13  1  0
 17 15  1  0
 18 19  1  6
 18 17  1  0
 20 19  1  0
 20 21  2  0
 22 21  1  0
 23 24  2  0
 23 22  1  0
 24 20  1  0
 25 18  1  0
 26 25  2  0
 27 25  1  0
M  END
$$$$
