LMH.pdb
     RDKit          3D

 27 27  0  0  1  0  0  0  0  0999 V2000
   30.1330  -18.2767  -15.5250 C   0  0  0  0  0  0  0  0  0  0  0  0
   29.3443  -19.1248  -16.4832 C   0  0  1  0  0  0  0  0  0  0  0  0
   30.2283  -19.8464  -17.4375 C   0  0  0  0  0  0  0  0  0  0  0  0
   28.4260  -20.0223  -15.7011 C   0  0  0  0  0  0  0  0  0  0  0  0
   27.2902  -19.3090  -15.0587 C   0  0  2  0  0  0  0  0  0  0  0  0
   27.6867  -18.1991  -14.2445 N   0  0  0  0  0  0  0  0  0  0  0  0
   26.5156  -20.2786  -14.2409 C   0  0  0  0  0  0  0  0  0  0  0  0
   26.1614  -21.4109  -14.7108 O   0  0  0  0  0  0  0  0  0  0  0  0
   26.7596  -19.4425   -8.0108 C   0  0  0  0  0  0  0  0  0  0  0  0
   27.2804  -21.0777   -8.6405 S   0  0  0  0  0  0  0  0  0  0  0  0
   26.8665  -21.1238  -10.3927 C   0  0  0  0  0  0  0  0  0  0  0  0
   25.4302  -20.7787  -10.6712 C   0  0  0  0  0  0  0  0  0  0  0  0
   25.2382  -20.8967  -12.1803 C   0  0  2  0  0  0  0  0  0  0  0  0
   26.1257  -20.0109  -12.9032 N   0  0  0  0  0  0  0  0  0  0  0  0
   23.8202  -20.6473  -12.5706 C   0  0  0  0  0  0  0  0  0  0  0  0
   23.4712  -19.5831  -13.1775 O   0  0  0  0  0  0  0  0  0  0  0  0
   22.8451  -21.6129  -12.2596 N   0  0  0  0  0  0  0  0  0  0  0  0
   21.4502  -21.3787  -12.6767 C   0  0  1  0  0  0  0  0  0  0  0  0
   20.9961  -20.0250  -12.2050 C   0  0  0  0  0  0  0  0  0  0  0  0
   19.5960  -19.8006  -12.5874 C   0  0  0  0  0  0  0  0  0  0  0  0
   18.6035  -20.7785  -12.6388 C   0  0  0  0  0  0  0  0  0  0  0  0
   17.4714  -20.1620  -13.0314 N   0  0  0  0  0  0  0  0  0  0  0  0
   17.7079  -18.8579  -13.2257 C   0  0  0  0  0  0  0  0  0  0  0  0
   19.0075  -18.6656  -12.9486 N   0  0  0  0  0  0  0  0  0  0  0  0
   21.3441  -21.4751  -14.1516 C   0  0  0  0  0  0  0  0  0  0  0  0
   20.2156  -21.3149  -14.6798 O   0  0  0  0  0  0  0  0  0  0  0  0
   22.4039  -21.7284  -14.9945 O   0  0  0  0  0  0  0  0  0  0  0  0
  2  1  1  1
  2  3  1  0
  4  2  1  0
  5  4  1  0
  5  6  1  1
  7  8  2  0
  7  5  1  0
 10  9  1  0
 11 10  1  0
 11 12  1  0
 13 12  1  1
 13 14  1  0
 14  7  1  0
 15 16  2  0
 15 13  1  0
 17 15  1  0
 18 19  1  6
 18 17  1  0
 20 19  1  0
 20 21  2  0
 22 21  1  0
 23 24  2  0
 23 22  1  0
 24 20  1  0
 25 18  1  0
 26 25  2  0
 27 25  1  0
M  END
$$$$
