LMH.pdb
     RDKit          3D

 27 27  0  0  1  0  0  0  0  0999 V2000
   27.0950  -17.0920  -17.0994 C   0  0  0  0  0  0  0  0  0  0  0  0
   27.8427  -17.9603  -16.1264 C   0  0  1  0  0  0  0  0  0  0  0  0
   28.5500  -17.1525  -15.0969 C   0  0  0  0  0  0  0  0  0  0  0  0
   26.8994  -18.9845  -15.5591 C   0  0  0  0  0  0  0  0  0  0  0  0
   27.5525  -19.9703  -14.6573 C   0  0  2  0  0  0  0  0  0  0  0  0
   28.4099  -20.8975  -15.3334 N   0  0  0  0  0  0  0  0  0  0  0  0
   26.5001  -20.7115  -13.9143 C   0  0  0  0  0  0  0  0  0  0  0  0
   25.9577  -21.7600  -14.3988 O   0  0  0  0  0  0  0  0  0  0  0  0
   25.0681  -20.9214   -7.4446 C   0  0  0  0  0  0  0  0  0  0  0  0
   26.7095  -20.9921   -8.2460 S   0  0  0  0  0  0  0  0  0  0  0  0
   26.4251  -21.2095  -10.0111 C   0  0  0  0  0  0  0  0  0  0  0  0
   25.0421  -20.8081  -10.4420 C   0  0  0  0  0  0  0  0  0  0  0  0
   24.9781  -21.0170  -11.9521 C   0  0  2  0  0  0  0  0  0  0  0  0
   26.0375  -20.3062  -12.6357 N   0  0  0  0  0  0  0  0  0  0  0  0
   23.6477  -20.6247  -12.5008 C   0  0  0  0  0  0  0  0  0  0  0  0
   23.1336  -19.4850  -12.2569 O   0  0  0  0  0  0  0  0  0  0  0  0
   22.9442  -21.5379  -13.3079 N   0  0  0  0  0  0  0  0  0  0  0  0
   21.5895  -21.1846  -13.7712 C   0  0  1  0  0  0  0  0  0  0  0  0
   21.5305  -21.2464  -15.2725 C   0  0  0  0  0  0  0  0  0  0  0  0
   22.1942  -20.0718  -15.8526 C   0  0  0  0  0  0  0  0  0  0  0  0
   21.9532  -18.7460  -15.4948 C   0  0  0  0  0  0  0  0  0  0  0  0
   22.7625  -17.9850  -16.2577 N   0  0  0  0  0  0  0  0  0  0  0  0
   23.4903  -18.7656  -17.0671 C   0  0  0  0  0  0  0  0  0  0  0  0
   23.1247  -20.0296  -16.8000 N   0  0  0  0  0  0  0  0  0  0  0  0
   20.5977  -22.1107  -13.1758 C   0  0  0  0  0  0  0  0  0  0  0  0
   19.3771  -21.8677  -13.3476 O   0  0  0  0  0  0  0  0  0  0  0  0
   20.9196  -23.2310  -12.4418 O   0  0  0  0  0  0  0  0  0  0  0  0
  2  1  1  6
  2  3  1  0
  4  2  1  0
  5  4  1  0
  5  6  1  6
  7  8  2  0
  7  5  1  0
 10  9  1  0
 11 10  1  0
 11 12  1  0
 13 12  1  1
 13 14  1  0
 14  7  1  0
 15 16  2  0
 15 13  1  0
 17 15  1  0
 18 19  1  6
 18 17  1  0
 20 19  1  0
 20 21  2  0
 22 21  1  0
 23 24  2  0
 23 22  1  0
 24 20  1  0
 25 18  1  0
 26 25  2  0
 27 25  1  0
M  END
$$$$
