LMH.pdb
     RDKit          3D

 27 27  0  0  1  0  0  0  0  0999 V2000
   19.0450  -12.8582    3.2946 C   0  0  0  0  0  0  0  0  0  0  0  0
   17.9917  -13.6583    4.0087 C   0  0  1  0  0  0  0  0  0  0  0  0
   16.6200  -13.2551    3.5983 C   0  0  0  0  0  0  0  0  0  0  0  0
   18.2802  -15.1224    3.8245 C   0  0  0  0  0  0  0  0  0  0  0  0
   17.2898  -16.0181    4.4789 C   0  0  2  0  0  0  0  0  0  0  0  0
   17.0626  -15.7216    5.8618 N   0  0  0  0  0  0  0  0  0  0  0  0
   17.7480  -17.4249    4.3370 C   0  0  0  0  0  0  0  0  0  0  0  0
   18.5814  -17.7645    3.4324 O   0  0  0  0  0  0  0  0  0  0  0  0
   21.1464  -18.4158    8.1663 C   0  0  0  0  0  0  0  0  0  0  0  0
   21.6024  -19.3774    6.6801 S   0  0  0  0  0  0  0  0  0  0  0  0
   20.1873  -19.3297    5.5670 C   0  0  0  0  0  0  0  0  0  0  0  0
   18.9677  -20.0041    6.1304 C   0  0  0  0  0  0  0  0  0  0  0  0
   17.8485  -19.8012    5.1133 C   0  0  2  0  0  0  0  0  0  0  0  0
   17.2942  -18.4662    5.1871 N   0  0  0  0  0  0  0  0  0  0  0  0
   16.7733  -20.8224    5.2751 C   0  0  0  0  0  0  0  0  0  0  0  0
   15.8474  -20.6871    6.1394 O   0  0  0  0  0  0  0  0  0  0  0  0
   16.7838  -21.9633    4.4514 N   0  0  0  0  0  0  0  0  0  0  0  0
   15.7897  -23.0258    4.6911 C   0  0  1  0  0  0  0  0  0  0  0  0
   14.6547  -22.8937    3.7137 C   0  0  0  0  0  0  0  0  0  0  0  0
   15.1667  -22.4947    2.3963 C   0  0  0  0  0  0  0  0  0  0  0  0
   16.5021  -22.2355    2.0907 C   0  0  0  0  0  0  0  0  0  0  0  0
   16.5441  -21.9043    0.7851 N   0  0  0  0  0  0  0  0  0  0  0  0
   15.3099  -21.9441    0.2662 C   0  0  0  0  0  0  0  0  0  0  0  0
   14.4919  -22.3058    1.2675 N   0  0  0  0  0  0  0  0  0  0  0  0
   16.4330  -24.3543    4.5605 C   0  0  0  0  0  0  0  0  0  0  0  0
   17.6656  -24.3988    4.3213 O   0  0  0  0  0  0  0  0  0  0  0  0
   15.7718  -25.5563    4.6852 O   0  0  0  0  0  0  0  0  0  0  0  0
  2  1  1  6
  2  3  1  0
  4  2  1  0
  5  4  1  0
  5  6  1  1
  7  8  2  0
  7  5  1  0
 10  9  1  0
 11 10  1  0
 11 12  1  0
 13 12  1  1
 13 14  1  0
 14  7  1  0
 15 16  2  0
 15 13  1  0
 17 15  1  0
 18 19  1  6
 18 17  1  0
 20 19  1  0
 20 21  2  0
 22 21  1  0
 23 24  2  0
 23 22  1  0
 24 20  1  0
 25 18  1  0
 26 25  2  0
 27 25  1  0
M  END
$$$$
