AWK.pdb
     RDKit          3D

 29 30  0  0  1  0  0  0  0  0999 V2000
    6.2369  -14.4635   21.1493 C   0  0  0  0  0  0  0  0  0  0  0  0
    6.9450  -15.8029   21.2736 C   0  0  2  0  0  0  0  0  0  0  0  0
    5.9828  -16.7480   21.7689 N   0  0  0  0  0  0  0  0  0  0  0  0
    8.0336  -15.6280   22.2452 C   0  0  0  0  0  0  0  0  0  0  0  0
    8.9653  -14.7970   22.1050 O   0  0  0  0  0  0  0  0  0  0  0  0
    8.0596  -16.4339   23.4241 N   0  0  0  0  0  0  0  0  0  0  0  0
    9.0955  -16.3005   24.4207 C   0  0  1  0  0  0  0  0  0  0  0  0
    8.4485  -16.2805   25.7870 C   0  0  0  0  0  0  0  0  0  0  0  0
    7.4999  -15.1186   25.8904 C   0  0  0  0  0  0  0  0  0  0  0  0
    6.1230  -15.1244   25.8223 C   0  0  0  0  0  0  0  0  0  0  0  0
    5.6490  -13.8680   25.9618 N   0  0  0  0  0  0  0  0  0  0  0  0
    6.7036  -13.0386   26.1205 C   0  0  0  0  0  0  0  0  0  0  0  0
    6.7386  -11.6710   26.2998 C   0  0  0  0  0  0  0  0  0  0  0  0
    7.9877  -11.0872   26.4371 C   0  0  0  0  0  0  0  0  0  0  0  0
    9.1496  -11.8357   26.3969 C   0  0  0  0  0  0  0  0  0  0  0  0
    9.0936  -13.2020   26.2167 C   0  0  0  0  0  0  0  0  0  0  0  0
    7.8590  -13.8015   26.0782 C   0  0  0  0  0  0  0  0  0  0  0  0
   10.0443  -17.4300   24.2771 C   0  0  0  0  0  0  0  0  0  0  0  0
    9.6449  -18.6431   24.3429 O   0  0  0  0  0  0  0  0  0  0  0  0
   11.4365  -17.2362   24.0605 N   0  0  0  0  0  0  0  0  0  0  0  0
   12.3757  -18.3630   23.9590 C   0  0  1  0  0  0  0  0  0  0  0  0
   13.2590  -18.2137   22.7657 C   0  0  0  0  0  0  0  0  0  0  0  0
   12.5191  -17.9716   21.4864 C   0  0  0  0  0  0  0  0  0  0  0  0
   13.4795  -17.8786   20.3042 C   0  0  0  0  0  0  0  0  0  0  0  0
   12.7437  -17.5043   19.0399 C   0  0  0  0  0  0  0  0  0  0  0  0
   13.6455  -17.2818   17.9306 N   0  0  0  0  0  0  0  0  0  0  0  0
   13.0632  -18.5894   25.2351 C   0  0  0  0  0  0  0  0  0  0  0  0
   13.0131  -17.8768   26.2567 O   0  0  0  0  0  0  0  0  0  0  0  0
   13.8756  -19.7310   25.3439 O   0  0  0  0  0  0  0  0  0  0  0  0
  2  3  1  0
  2  1  1  1
  4  2  1  0
  5  4  2  0
  6  4  1  0
  7  6  1  0
  7  8  1  1
  9  8  1  0
 10  9  2  0
 11 10  1  0
 12 11  1  0
 12 17  2  0
 13 12  1  0
 14 13  2  0
 14 15  1  0
 15 16  2  0
 16 17  1  0
 17  9  1  0
 18  7  1  0
 18 19  2  0
 20 18  1  0
 21 20  1  0
 22 23  1  0
 21 22  1  6
 24 25  1  0
 24 23  1  0
 25 26  1  0
 27 29  1  0
 27 21  1  0
 28 27  2  0
M  END
$$$$
