AWK.pdb
     RDKit          3D

 29 30  0  0  1  0  0  0  0  0999 V2000
    6.8536  -13.5920   20.7082 C   0  0  0  0  0  0  0  0  0  0  0  0
    7.3136  -15.0409   20.6990 C   0  0  2  0  0  0  0  0  0  0  0  0
    6.1637  -15.8537   20.9844 N   0  0  0  0  0  0  0  0  0  0  0  0
    8.3151  -15.1834   21.7649 C   0  0  0  0  0  0  0  0  0  0  0  0
    9.3722  -14.5071   21.8222 O   0  0  0  0  0  0  0  0  0  0  0  0
    8.1012  -16.1361   22.8074 N   0  0  0  0  0  0  0  0  0  0  0  0
    9.0203  -16.2838   23.9107 C   0  0  1  0  0  0  0  0  0  0  0  0
    8.2219  -16.5055   25.1753 C   0  0  0  0  0  0  0  0  0  0  0  0
    7.3760  -15.2976   25.4684 C   0  0  0  0  0  0  0  0  0  0  0  0
    6.0108  -15.1531   25.3422 C   0  0  0  0  0  0  0  0  0  0  0  0
    5.6430  -13.9071   25.7096 N   0  0  0  0  0  0  0  0  0  0  0  0
    6.7556  -13.2337   26.0755 C   0  0  0  0  0  0  0  0  0  0  0  0
    6.9012  -11.9376   26.5258 C   0  0  0  0  0  0  0  0  0  0  0  0
    8.1865  -11.5189   26.8298 C   0  0  0  0  0  0  0  0  0  0  0  0
    9.2774  -12.3570   26.6902 C   0  0  0  0  0  0  0  0  0  0  0  0
    9.1111  -13.6494   26.2384 C   0  0  0  0  0  0  0  0  0  0  0  0
    7.8389  -14.0847   25.9307 C   0  0  0  0  0  0  0  0  0  0  0  0
    9.9286  -17.4201   23.6265 C   0  0  0  0  0  0  0  0  0  0  0  0
    9.4743  -18.6013   23.4428 O   0  0  0  0  0  0  0  0  0  0  0  0
   11.3401  -17.2679   23.5421 N   0  0  0  0  0  0  0  0  0  0  0  0
   12.2333  -18.4033   23.2678 C   0  0  1  0  0  0  0  0  0  0  0  0
   13.2969  -18.0204   22.2938 C   0  0  0  0  0  0  0  0  0  0  0  0
   14.3047  -19.0980   22.0372 C   0  0  0  0  0  0  0  0  0  0  0  0
   15.3677  -18.6328   21.0463 C   0  0  0  0  0  0  0  0  0  0  0  0
   16.3248  -19.7532   20.7166 C   0  0  0  0  0  0  0  0  0  0  0  0
   17.4438  -19.2972   19.9209 N   0  0  0  0  0  0  0  0  0  0  0  0
   12.7037  -19.0142   24.5158 C   0  0  0  0  0  0  0  0  0  0  0  0
   12.8376  -18.4599   25.6243 O   0  0  0  0  0  0  0  0  0  0  0  0
   13.0482  -20.3764   24.4851 O   0  0  0  0  0  0  0  0  0  0  0  0
  2  3  1  0
  2  1  1  1
  4  2  1  0
  5  4  2  0
  6  4  1  0
  7  6  1  0
  7  8  1  1
  9  8  1  0
 10  9  2  0
 11 10  1  0
 12 11  1  0
 12 17  2  0
 13 12  1  0
 14 13  2  0
 14 15  1  0
 15 16  2  0
 16 17  1  0
 17  9  1  0
 18  7  1  0
 18 19  2  0
 20 18  1  0
 21 20  1  0
 22 23  1  0
 21 22  1  1
 24 25  1  0
 24 23  1  0
 25 26  1  0
 27 29  1  0
 27 21  1  0
 28 27  2  0
M  END
$$$$
