AWK.pdb
     RDKit          3D

 29 30  0  0  1  0  0  0  0  0999 V2000
    6.7335  -14.2475   20.8989 C   0  0  0  0  0  0  0  0  0  0  0  0
    7.4179  -15.5955   21.0585 C   0  0  2  0  0  0  0  0  0  0  0  0
    6.3913  -16.5641   21.3272 N   0  0  0  0  0  0  0  0  0  0  0  0
    8.3274  -15.4853   22.2074 C   0  0  0  0  0  0  0  0  0  0  0  0
    9.2679  -14.6552   22.2739 O   0  0  0  0  0  0  0  0  0  0  0  0
    8.1563  -16.3577   23.3254 N   0  0  0  0  0  0  0  0  0  0  0  0
    8.9724  -16.2522   24.5115 C   0  0  1  0  0  0  0  0  0  0  0  0
    8.0886  -16.4495   25.7223 C   0  0  0  0  0  0  0  0  0  0  0  0
    7.0881  -15.3313   25.8169 C   0  0  0  0  0  0  0  0  0  0  0  0
    5.7241  -15.3797   25.6228 C   0  0  0  0  0  0  0  0  0  0  0  0
    5.1888  -14.1534   25.8032 N   0  0  0  0  0  0  0  0  0  0  0  0
    6.1904  -13.3017   26.1138 C   0  0  0  0  0  0  0  0  0  0  0  0
    6.1535  -11.9500   26.3881 C   0  0  0  0  0  0  0  0  0  0  0  0
    7.3606  -11.3347   26.6785 C   0  0  0  0  0  0  0  0  0  0  0  0
    8.5510  -12.0380   26.6942 C   0  0  0  0  0  0  0  0  0  0  0  0
    8.5670  -13.3890   26.4173 C   0  0  0  0  0  0  0  0  0  0  0  0
    7.3751  -14.0193   26.1259 C   0  0  0  0  0  0  0  0  0  0  0  0
   10.0479  -17.2697   24.4430 C   0  0  0  0  0  0  0  0  0  0  0  0
    9.7760  -18.5148   24.3372 O   0  0  0  0  0  0  0  0  0  0  0  0
   11.4277  -16.9280   24.4900 N   0  0  0  0  0  0  0  0  0  0  0  0
   12.4836  -17.9492   24.5542 C   0  0  1  0  0  0  0  0  0  0  0  0
   13.7046  -17.4987   23.8244 C   0  0  0  0  0  0  0  0  0  0  0  0
   13.5757  -17.5468   22.3331 C   0  0  0  0  0  0  0  0  0  0  0  0
   14.8896  -17.1705   21.6546 C   0  0  0  0  0  0  0  0  0  0  0  0
   14.8036  -17.3761   20.1612 C   0  0  0  0  0  0  0  0  0  0  0  0
   15.9892  -16.9068   19.4776 N   0  0  0  0  0  0  0  0  0  0  0  0
   12.6968  -18.3974   25.9347 C   0  0  0  0  0  0  0  0  0  0  0  0
   12.1847  -17.9264   26.9691 O   0  0  0  0  0  0  0  0  0  0  0  0
   13.5720  -19.4774   26.1414 O   0  0  0  0  0  0  0  0  0  0  0  0
  2  3  1  0
  2  1  1  1
  4  2  1  0
  5  4  2  0
  6  4  1  0
  7  6  1  0
  7  8  1  1
  9  8  1  0
 10  9  2  0
 11 10  1  0
 12 11  1  0
 12 17  2  0
 13 12  1  0
 14 13  2  0
 14 15  1  0
 15 16  2  0
 16 17  1  0
 17  9  1  0
 18  7  1  0
 18 19  2  0
 20 18  1  0
 21 20  1  0
 22 23  1  0
 21 22  1  1
 24 25  1  0
 24 23  1  0
 25 26  1  0
 27 29  1  0
 27 21  1  0
 28 27  2  0
M  END
$$$$
