AWK.pdb
     RDKit          3D

 29 30  0  0  1  0  0  0  0  0999 V2000
    6.0896  -15.6628   20.6799 C   0  0  0  0  0  0  0  0  0  0  0  0
    6.9248  -16.8665   21.0855 C   0  0  2  0  0  0  0  0  0  0  0  0
    6.0910  -17.7079   21.8984 N   0  0  0  0  0  0  0  0  0  0  0  0
    8.0586  -16.3609   21.8718 C   0  0  0  0  0  0  0  0  0  0  0  0
    8.8921  -15.5281   21.4360 O   0  0  0  0  0  0  0  0  0  0  0  0
    8.2485  -16.8244   23.2095 N   0  0  0  0  0  0  0  0  0  0  0  0
    9.3251  -16.3426   24.0417 C   0  0  1  0  0  0  0  0  0  0  0  0
    8.8742  -16.3861   25.4842 C   0  0  0  0  0  0  0  0  0  0  0  0
    7.6950  -15.4748   25.6826 C   0  0  0  0  0  0  0  0  0  0  0  0
    6.3525  -15.7863   25.6475 C   0  0  0  0  0  0  0  0  0  0  0  0
    5.6159  -14.6782   25.8764 N   0  0  0  0  0  0  0  0  0  0  0  0
    6.4641  -13.6431   26.0611 C   0  0  0  0  0  0  0  0  0  0  0  0
    6.2000  -12.3147   26.3245 C   0  0  0  0  0  0  0  0  0  0  0  0
    7.2916  -11.4736   26.4677 C   0  0  0  0  0  0  0  0  0  0  0  0
    8.5889  -11.9383   26.3530 C   0  0  0  0  0  0  0  0  0  0  0  0
    8.8322  -13.2700   26.0894 C   0  0  0  0  0  0  0  0  0  0  0  0
    7.7582  -14.1231   25.9435 C   0  0  0  0  0  0  0  0  0  0  0  0
   10.5206  -17.1882   23.8127 C   0  0  0  0  0  0  0  0  0  0  0  0
   10.4471  -18.4643   23.8534 O   0  0  0  0  0  0  0  0  0  0  0  0
   11.8036  -16.6397   23.5376 N   0  0  0  0  0  0  0  0  0  0  0  0
   12.9799  -17.4877   23.2940 C   0  0  1  0  0  0  0  0  0  0  0  0
   13.7939  -16.9561   22.1621 C   0  0  0  0  0  0  0  0  0  0  0  0
   13.8735  -17.8769   20.9836 C   0  0  0  0  0  0  0  0  0  0  0  0
   14.7106  -17.2661   19.8634 C   0  0  0  0  0  0  0  0  0  0  0  0
   14.8358  -18.2219   18.7013 C   0  0  0  0  0  0  0  0  0  0  0  0
   15.4224  -17.5918   17.5386 N   0  0  0  0  0  0  0  0  0  0  0  0
   13.7117  -17.7402   24.5402 C   0  0  0  0  0  0  0  0  0  0  0  0
   14.6863  -18.5002   24.7028 O   0  0  0  0  0  0  0  0  0  0  0  0
   13.2861  -17.0613   25.6948 O   0  0  0  0  0  0  0  0  0  0  0  0
  2  3  1  0
  2  1  1  1
  4  2  1  0
  5  4  2  0
  6  4  1  0
  7  6  1  0
  7  8  1  1
  9  8  1  0
 10  9  2  0
 11 10  1  0
 12 11  1  0
 12 17  2  0
 13 12  1  0
 14 13  2  0
 14 15  1  0
 15 16  2  0
 16 17  1  0
 17  9  1  0
 18  7  1  0
 18 19  2  0
 20 18  1  0
 21 20  1  0
 22 23  1  0
 21 22  1  6
 24 25  1  0
 24 23  1  0
 25 26  1  0
 27 29  1  0
 27 21  1  0
 28 27  2  0
M  END
$$$$
