AWK.pdb
     RDKit          3D

 29 30  0  0  1  0  0  0  0  0999 V2000
    9.0980  -18.5357   19.3229 C   0  0  0  0  0  0  0  0  0  0  0  0
    8.1875  -17.4607   19.8942 C   0  0  2  0  0  0  0  0  0  0  0  0
    8.0128  -16.4650   18.8732 N   0  0  0  0  0  0  0  0  0  0  0  0
    8.8768  -16.8829   21.0563 C   0  0  0  0  0  0  0  0  0  0  0  0
    9.8775  -16.1285   20.9682 O   0  0  0  0  0  0  0  0  0  0  0  0
    8.4048  -17.1779   22.3717 N   0  0  0  0  0  0  0  0  0  0  0  0
    8.9306  -16.5144   23.5410 C   0  0  1  0  0  0  0  0  0  0  0  0
    7.9114  -16.6201   24.6528 C   0  0  0  0  0  0  0  0  0  0  0  0
    7.2472  -15.2890   24.8704 C   0  0  0  0  0  0  0  0  0  0  0  0
    6.0630  -14.8224   24.3404 C   0  0  0  0  0  0  0  0  0  0  0  0
    5.8187  -13.5722   24.7875 N   0  0  0  0  0  0  0  0  0  0  0  0
    6.8326  -13.2152   25.6059 C   0  0  0  0  0  0  0  0  0  0  0  0
    7.0397  -12.0433   26.3039 C   0  0  0  0  0  0  0  0  0  0  0  0
    8.1886  -11.9657   27.0746 C   0  0  0  0  0  0  0  0  0  0  0  0
    9.0901  -13.0118   27.1448 C   0  0  0  0  0  0  0  0  0  0  0  0
    8.8651  -14.1754   26.4394 C   0  0  0  0  0  0  0  0  0  0  0  0
    7.7267  -14.2715   25.6665 C   0  0  0  0  0  0  0  0  0  0  0  0
   10.2177  -17.1490   23.9117 C   0  0  0  0  0  0  0  0  0  0  0  0
   10.3468  -18.4211   23.9341 O   0  0  0  0  0  0  0  0  0  0  0  0
   11.3707  -16.3927   24.2598 N   0  0  0  0  0  0  0  0  0  0  0  0
   12.6372  -17.0321   24.6460 C   0  0  1  0  0  0  0  0  0  0  0  0
   13.7798  -16.0845   24.4938 C   0  0  0  0  0  0  0  0  0  0  0  0
   15.1054  -16.6604   24.8862 C   0  0  0  0  0  0  0  0  0  0  0  0
   16.1998  -16.2372   23.9107 C   0  0  0  0  0  0  0  0  0  0  0  0
   17.5158  -16.8897   24.2605 C   0  0  0  0  0  0  0  0  0  0  0  0
   18.5437  -16.6004   23.2843 N   0  0  0  0  0  0  0  0  0  0  0  0
   12.5191  -17.6810   25.9564 C   0  0  0  0  0  0  0  0  0  0  0  0
   11.8269  -17.3085   26.9238 O   0  0  0  0  0  0  0  0  0  0  0  0
   13.2594  -18.8563   26.1705 O   0  0  0  0  0  0  0  0  0  0  0  0
  2  3  1  0
  2  1  1  6
  4  2  1  0
  5  4  2  0
  6  4  1  0
  7  6  1  0
  7  8  1  1
  9  8  1  0
 10  9  2  0
 11 10  1  0
 12 11  1  0
 12 17  2  0
 13 12  1  0
 14 13  2  0
 14 15  1  0
 15 16  2  0
 16 17  1  0
 17  9  1  0
 18  7  1  0
 18 19  2  0
 20 18  1  0
 21 20  1  0
 22 23  1  0
 21 22  1  1
 24 25  1  0
 24 23  1  0
 25 26  1  0
 27 29  1  0
 27 21  1  0
 28 27  2  0
M  END
$$$$
