AWK.pdb
     RDKit          3D

 29 30  0  0  1  0  0  0  0  0999 V2000
    7.4012  -17.2071   19.7245 C   0  0  0  0  0  0  0  0  0  0  0  0
    6.7687  -16.2050   20.6767 C   0  0  2  0  0  0  0  0  0  0  0  0
    6.3134  -15.0956   19.8853 N   0  0  0  0  0  0  0  0  0  0  0  0
    7.8197  -15.7695   21.6069 C   0  0  0  0  0  0  0  0  0  0  0  0
    8.6949  -14.9156   21.3185 O   0  0  0  0  0  0  0  0  0  0  0  0
    7.8738  -16.3312   22.9191 N   0  0  0  0  0  0  0  0  0  0  0  0
    8.9457  -16.0300   23.8378 C   0  0  1  0  0  0  0  0  0  0  0  0
    8.4390  -16.2259   25.2488 C   0  0  0  0  0  0  0  0  0  0  0  0
    7.3626  -15.2214   25.5533 C   0  0  0  0  0  0  0  0  0  0  0  0
    5.9965  -15.3620   25.4317 C   0  0  0  0  0  0  0  0  0  0  0  0
    5.3802  -14.2218   25.8095 N   0  0  0  0  0  0  0  0  0  0  0  0
    6.3307  -13.3350   26.1777 C   0  0  0  0  0  0  0  0  0  0  0  0
    6.2066  -12.0401   26.6376 C   0  0  0  0  0  0  0  0  0  0  0  0
    7.3785  -11.3664   26.9415 C   0  0  0  0  0  0  0  0  0  0  0  0
    8.6187  -11.9594   26.7927 C   0  0  0  0  0  0  0  0  0  0  0  0
    8.7219  -13.2551   26.3315 C   0  0  0  0  0  0  0  0  0  0  0  0
    7.5661  -13.9422   26.0236 C   0  0  0  0  0  0  0  0  0  0  0  0
   10.0951  -16.9162   23.5373 C   0  0  0  0  0  0  0  0  0  0  0  0
    9.9956  -17.8637   22.6843 O   0  0  0  0  0  0  0  0  0  0  0  0
   11.3602  -16.7687   24.1703 N   0  0  0  0  0  0  0  0  0  0  0  0
   12.6095  -16.6581   23.4029 C   0  0  1  0  0  0  0  0  0  0  0  0
   12.4953  -15.6083   22.3487 C   0  0  0  0  0  0  0  0  0  0  0  0
   13.7421  -15.4176   21.5411 C   0  0  0  0  0  0  0  0  0  0  0  0
   13.4182  -15.2563   20.0586 C   0  0  0  0  0  0  0  0  0  0  0  0
   14.6771  -15.0488   19.2512 C   0  0  0  0  0  0  0  0  0  0  0  0
   14.3917  -14.6464   17.8911 N   0  0  0  0  0  0  0  0  0  0  0  0
   13.7659  -16.5381   24.2976 C   0  0  0  0  0  0  0  0  0  0  0  0
   14.9415  -16.8795   24.0621 O   0  0  0  0  0  0  0  0  0  0  0  0
   13.5510  -15.9785   25.5687 O   0  0  0  0  0  0  0  0  0  0  0  0
  2  3  1  0
  2  1  1  6
  4  2  1  0
  5  4  2  0
  6  4  1  0
  7  6  1  0
  7  8  1  1
  9  8  1  0
 10  9  2  0
 11 10  1  0
 12 11  1  0
 12 17  2  0
 13 12  1  0
 14 13  2  0
 14 15  1  0
 15 16  2  0
 16 17  1  0
 17  9  1  0
 18  7  1  0
 18 19  2  0
 20 18  1  0
 21 20  1  0
 22 23  1  0
 21 22  1  6
 24 25  1  0
 24 23  1  0
 25 26  1  0
 27 29  1  0
 27 21  1  0
 28 27  2  0
M  END
$$$$
