AWK.pdb
     RDKit          3D

 29 30  0  0  1  0  0  0  0  0999 V2000
    7.7217  -17.2389   19.8524 C   0  0  0  0  0  0  0  0  0  0  0  0
    7.0472  -16.1124   20.6186 C   0  0  2  0  0  0  0  0  0  0  0  0
    6.7169  -15.0887   19.6661 N   0  0  0  0  0  0  0  0  0  0  0  0
    8.0246  -15.6059   21.5921 C   0  0  0  0  0  0  0  0  0  0  0  0
    8.8690  -14.7131   21.3310 O   0  0  0  0  0  0  0  0  0  0  0  0
    8.0385  -16.1397   22.9168 N   0  0  0  0  0  0  0  0  0  0  0  0
    9.0374  -15.7576   23.8864 C   0  0  1  0  0  0  0  0  0  0  0  0
    8.4975  -16.0405   25.2700 C   0  0  0  0  0  0  0  0  0  0  0  0
    7.4229  -15.0477   25.6162 C   0  0  0  0  0  0  0  0  0  0  0  0
    6.0668  -15.2591   25.7460 C   0  0  0  0  0  0  0  0  0  0  0  0
    5.4486  -14.1030   26.0685 N   0  0  0  0  0  0  0  0  0  0  0  0
    6.3879  -13.1355   26.1510 C   0  0  0  0  0  0  0  0  0  0  0  0
    6.2580  -11.7949   26.4501 C   0  0  0  0  0  0  0  0  0  0  0  0
    7.4186  -11.0382   26.4606 C   0  0  0  0  0  0  0  0  0  0  0  0
    8.6536  -11.5955   26.1846 C   0  0  0  0  0  0  0  0  0  0  0  0
    8.7627  -12.9379   25.8878 C   0  0  0  0  0  0  0  0  0  0  0  0
    7.6183  -13.7078   25.8725 C   0  0  0  0  0  0  0  0  0  0  0  0
   10.2812  -16.5165   23.6147 C   0  0  0  0  0  0  0  0  0  0  0  0
   10.2738  -17.7926   23.5318 O   0  0  0  0  0  0  0  0  0  0  0  0
   11.5403  -15.8807   23.4323 N   0  0  0  0  0  0  0  0  0  0  0  0
   12.7776  -16.6453   23.2169 C   0  0  1  0  0  0  0  0  0  0  0  0
   13.8802  -15.7535   22.7530 C   0  0  0  0  0  0  0  0  0  0  0  0
   15.1865  -16.4563   22.5464 C   0  0  0  0  0  0  0  0  0  0  0  0
   15.4228  -16.7557   21.0689 C   0  0  0  0  0  0  0  0  0  0  0  0
   16.7229  -17.4975   20.8703 C   0  0  0  0  0  0  0  0  0  0  0  0
   17.0381  -17.6787   19.4699 N   0  0  0  0  0  0  0  0  0  0  0  0
   13.0850  -17.4845   24.3803 C   0  0  0  0  0  0  0  0  0  0  0  0
   13.5908  -18.6239   24.3769 O   0  0  0  0  0  0  0  0  0  0  0  0
   12.7854  -16.9691   25.6529 O   0  0  0  0  0  0  0  0  0  0  0  0
  2  3  1  0
  2  1  1  6
  4  2  1  0
  5  4  2  0
  6  4  1  0
  7  6  1  0
  7  8  1  1
  9  8  1  0
 10  9  2  0
 11 10  1  0
 12 11  1  0
 12 17  2  0
 13 12  1  0
 14 13  2  0
 14 15  1  0
 15 16  2  0
 16 17  1  0
 17  9  1  0
 18  7  1  0
 18 19  2  0
 20 18  1  0
 21 20  1  0
 22 23  1  0
 21 22  1  1
 24 25  1  0
 24 23  1  0
 25 26  1  0
 27 29  1  0
 27 21  1  0
 28 27  2  0
M  END
$$$$
