AWK.pdb
     RDKit          3D

 29 30  0  0  1  0  0  0  0  0999 V2000
    7.4090  -17.8175   20.2794 C   0  0  0  0  0  0  0  0  0  0  0  0
    6.9987  -16.5677   21.0416 C   0  0  2  0  0  0  0  0  0  0  0  0
    6.8103  -15.5225   20.0739 N   0  0  0  0  0  0  0  0  0  0  0  0
    8.1062  -16.2301   21.9466 C   0  0  0  0  0  0  0  0  0  0  0  0
    9.1377  -15.6113   21.5843 O   0  0  0  0  0  0  0  0  0  0  0  0
    8.0332  -16.6142   23.3204 N   0  0  0  0  0  0  0  0  0  0  0  0
    9.0861  -16.3069   24.2588 C   0  0  1  0  0  0  0  0  0  0  0  0
    8.4934  -16.2627   25.6490 C   0  0  0  0  0  0  0  0  0  0  0  0
    7.4965  -15.1417   25.7481 C   0  0  0  0  0  0  0  0  0  0  0  0
    6.1198  -15.2111   25.7242 C   0  0  0  0  0  0  0  0  0  0  0  0
    5.5935  -13.9733   25.8414 N   0  0  0  0  0  0  0  0  0  0  0  0
    6.6135  -13.0932   25.9418 C   0  0  0  0  0  0  0  0  0  0  0  0
    6.5916  -11.7205   26.0794 C   0  0  0  0  0  0  0  0  0  0  0  0
    7.8163  -11.0775   26.1594 C   0  0  0  0  0  0  0  0  0  0  0  0
    9.0094  -11.7743   26.1044 C   0  0  0  0  0  0  0  0  0  0  0  0
    9.0103  -13.1466   25.9666 C   0  0  0  0  0  0  0  0  0  0  0  0
    7.8007  -13.8046   25.8853 C   0  0  0  0  0  0  0  0  0  0  0  0
   10.1442  -17.3384   24.1438 C   0  0  0  0  0  0  0  0  0  0  0  0
    9.8518  -18.5803   24.0569 O   0  0  0  0  0  0  0  0  0  0  0  0
   11.5289  -17.0143   24.1233 N   0  0  0  0  0  0  0  0  0  0  0  0
   12.5730  -18.0491   24.0913 C   0  0  1  0  0  0  0  0  0  0  0  0
   13.7831  -17.5617   23.3671 C   0  0  0  0  0  0  0  0  0  0  0  0
   13.7716  -17.8507   21.8977 C   0  0  0  0  0  0  0  0  0  0  0  0
   14.7139  -16.9156   21.1454 C   0  0  0  0  0  0  0  0  0  0  0  0
   14.5362  -17.0574   19.6527 C   0  0  0  0  0  0  0  0  0  0  0  0
   15.3770  -16.1402   18.9144 N   0  0  0  0  0  0  0  0  0  0  0  0
   12.8109  -18.5960   25.4316 C   0  0  0  0  0  0  0  0  0  0  0  0
   13.5165  -19.5788   25.7318 O   0  0  0  0  0  0  0  0  0  0  0  0
   12.1847  -17.9583   26.5162 O   0  0  0  0  0  0  0  0  0  0  0  0
  2  3  1  0
  2  1  1  6
  4  2  1  0
  5  4  2  0
  6  4  1  0
  7  6  1  0
  7  8  1  1
  9  8  1  0
 10  9  2  0
 11 10  1  0
 12 11  1  0
 12 17  2  0
 13 12  1  0
 14 13  2  0
 14 15  1  0
 15 16  2  0
 16 17  1  0
 17  9  1  0
 18  7  1  0
 18 19  2  0
 20 18  1  0
 21 20  1  0
 22 23  1  0
 21 22  1  1
 24 25  1  0
 24 23  1  0
 25 26  1  0
 27 29  1  0
 27 21  1  0
 28 27  2  0
M  END
$$$$
