AWK.pdb
     RDKit          3D

 29 30  0  0  1  0  0  0  0  0999 V2000
    7.7413  -17.2357   20.0412 C   0  0  0  0  0  0  0  0  0  0  0  0
    7.0541  -16.1469   20.8496 C   0  0  2  0  0  0  0  0  0  0  0  0
    6.6570  -15.1194   19.9272 N   0  0  0  0  0  0  0  0  0  0  0  0
    8.0453  -15.6231   21.7996 C   0  0  0  0  0  0  0  0  0  0  0  0
    8.8409  -14.6885   21.5315 O   0  0  0  0  0  0  0  0  0  0  0  0
    8.1317  -16.1885   23.1084 N   0  0  0  0  0  0  0  0  0  0  0  0
    9.1566  -15.7965   24.0463 C   0  0  1  0  0  0  0  0  0  0  0  0
    8.6281  -15.9985   25.4484 C   0  0  0  0  0  0  0  0  0  0  0  0
    7.5202  -15.0211   25.7266 C   0  0  0  0  0  0  0  0  0  0  0  0
    6.1612  -15.2500   25.7640 C   0  0  0  0  0  0  0  0  0  0  0  0
    5.5081  -14.1036   26.0501 N   0  0  0  0  0  0  0  0  0  0  0  0
    6.4274  -13.1251   26.2005 C   0  0  0  0  0  0  0  0  0  0  0  0
    6.2606  -11.7880   26.4971 C   0  0  0  0  0  0  0  0  0  0  0  0
    7.4082  -11.0171   26.5895 C   0  0  0  0  0  0  0  0  0  0  0  0
    8.6659  -11.5575   26.3942 C   0  0  0  0  0  0  0  0  0  0  0  0
    8.8118  -12.8967   26.0985 C   0  0  0  0  0  0  0  0  0  0  0  0
    7.6808  -13.6805   26.0024 C   0  0  0  0  0  0  0  0  0  0  0  0
   10.3708  -16.6079   23.7932 C   0  0  0  0  0  0  0  0  0  0  0  0
   10.2911  -17.8602   23.5464 O   0  0  0  0  0  0  0  0  0  0  0  0
   11.6794  -16.0511   23.8091 N   0  0  0  0  0  0  0  0  0  0  0  0
   12.8755  -16.8584   23.5268 C   0  0  1  0  0  0  0  0  0  0  0  0
   13.9930  -16.0002   23.0358 C   0  0  0  0  0  0  0  0  0  0  0  0
   15.2329  -16.7600   22.6777 C   0  0  0  0  0  0  0  0  0  0  0  0
   16.3339  -15.8206   22.1944 C   0  0  0  0  0  0  0  0  0  0  0  0
   17.5775  -16.5927   21.8242 C   0  0  0  0  0  0  0  0  0  0  0  0
   18.6297  -15.7285   21.3348 N   0  0  0  0  0  0  0  0  0  0  0  0
   13.1963  -17.7346   24.6588 C   0  0  0  0  0  0  0  0  0  0  0  0
   13.8340  -18.8053   24.6279 O   0  0  0  0  0  0  0  0  0  0  0  0
   12.7456  -17.3457   25.9319 O   0  0  0  0  0  0  0  0  0  0  0  0
  2  3  1  0
  2  1  1  6
  4  2  1  0
  5  4  2  0
  6  4  1  0
  7  6  1  0
  7  8  1  1
  9  8  1  0
 10  9  2  0
 11 10  1  0
 12 11  1  0
 12 17  2  0
 13 12  1  0
 14 13  2  0
 14 15  1  0
 15 16  2  0
 16 17  1  0
 17  9  1  0
 18  7  1  0
 18 19  2  0
 20 18  1  0
 21 20  1  0
 22 23  1  0
 21 22  1  1
 24 25  1  0
 24 23  1  0
 25 26  1  0
 27 29  1  0
 27 21  1  0
 28 27  2  0
M  END
$$$$
