RAG.pdb
     RDKit          3D

 21 20  0  0  1  0  0  0  0  0999 V2000
   16.0188  -14.2766  -20.0878 N   0  0  0  0  0  0  0  0  0  0  0  0
   16.8840  -15.1089  -20.8540 C   0  0  0  0  0  0  0  0  0  0  0  0
   16.3345  -15.8843  -21.7213 N   0  0  0  0  0  0  0  0  0  0  0  0
   18.2790  -15.0536  -20.6384 N   0  0  0  0  0  0  0  0  0  0  0  0
   18.7769  -14.1082  -19.6588 C   0  0  0  0  0  0  0  0  0  0  0  0
   20.2816  -14.1172  -19.5932 C   0  0  0  0  0  0  0  0  0  0  0  0
   20.7400  -13.0605  -18.6410 C   0  0  0  0  0  0  0  0  0  0  0  0
   21.4969  -13.5950  -17.4623 C   0  0  2  0  0  0  0  0  0  0  0  0
   21.0657  -14.8892  -17.0430 N   0  0  0  0  0  0  0  0  0  0  0  0
   21.4425  -12.5752  -16.3874 C   0  0  0  0  0  0  0  0  0  0  0  0
   20.3568  -12.4656  -15.7603 O   0  0  0  0  0  0  0  0  0  0  0  0
   16.9034  -16.5428  -22.2965 C   0  0  0  0  0  0  0  0  0  0  0  0
   23.7580  -10.3726  -14.4216 C   0  0  1  0  0  0  0  0  0  0  0  0
   22.4061  -10.7973  -14.9455 N   0  0  0  0  0  0  0  0  0  0  0  0
   22.5176  -11.7394  -16.0368 C   0  0  0  0  0  0  0  0  0  0  0  0
   21.7119   -9.5763  -15.4259 O   0  0  0  0  0  0  0  0  0  0  0  0
   21.8143   -9.2579  -16.6340 N   0  0  0  0  0  0  0  0  0  0  0  0
   20.9364   -8.7533  -14.5751 C   0  0  0  0  0  0  0  0  0  0  0  0
   20.2276   -7.6380  -15.1266 C   0  0  0  0  0  0  0  0  0  0  0  0
   21.0381   -6.4168  -15.1997 O   0  0  0  0  0  0  0  0  0  0  0  0
   22.2429   -6.4349  -14.8567 O   0  0  0  0  0  0  0  0  0  0  0  0
  1  2  1  0
  2  3  2  0
  4  5  1  0
  4  2  1  0
  5  6  1  0
  6  7  1  0
  7  8  1  0
  8 10  1  0
  8  9  1  1
 10 11  2  0
 10 14  1  0
 13 12  1  1
 13 15  1  0
 14 13  1  0
 15 17  1  0
 15 16  2  0
 17 18  1  0
 18 19  1  0
 19 21  1  0
 20 19  2  0
M  END
$$$$
