RAG.pdb
     RDKit          3D

 21 20  0  0  1  0  0  0  0  0999 V2000
   24.9544  -21.0028  -18.6413 N   0  0  0  0  0  0  0  0  0  0  0  0
   26.3084  -21.0434  -19.0811 C   0  0  0  0  0  0  0  0  0  0  0  0
   26.5122  -21.2831  -20.3287 N   0  0  0  0  0  0  0  0  0  0  0  0
   27.3515  -20.8246  -18.1541 N   0  0  0  0  0  0  0  0  0  0  0  0
   26.9964  -20.6732  -16.7568 C   0  0  0  0  0  0  0  0  0  0  0  0
   27.7048  -19.5025  -16.1275 C   0  0  0  0  0  0  0  0  0  0  0  0
   27.2021  -19.3134  -14.7329 C   0  0  0  0  0  0  0  0  0  0  0  0
   27.7829  -20.2789  -13.7439 C   0  0  2  0  0  0  0  0  0  0  0  0
   28.6229  -21.2695  -14.3353 N   0  0  0  0  0  0  0  0  0  0  0  0
   26.6647  -20.8459  -12.9524 C   0  0  0  0  0  0  0  0  0  0  0  0
   26.0562  -21.8292  -13.4491 O   0  0  0  0  0  0  0  0  0  0  0  0
   27.4782  -21.3533  -20.7159 C   0  0  0  0  0  0  0  0  0  0  0  0
   25.0997  -20.5294   -9.5439 C   0  0  1  0  0  0  0  0  0  0  0  0
   25.1372  -20.9428  -10.9965 N   0  0  0  0  0  0  0  0  0  0  0  0
   26.2546  -20.3541  -11.7005 C   0  0  0  0  0  0  0  0  0  0  0  0
   23.8717  -20.4837  -11.6221 O   0  0  0  0  0  0  0  0  0  0  0  0
   23.8651  -19.3967  -12.2465 N   0  0  0  0  0  0  0  0  0  0  0  0
   22.6680  -21.2236  -11.5436 C   0  0  0  0  0  0  0  0  0  0  0  0
   21.4743  -20.6931  -12.1301 C   0  0  0  0  0  0  0  0  0  0  0  0
   20.9341  -21.5351  -13.2038 O   0  0  0  0  0  0  0  0  0  0  0  0
   21.6854  -22.3105  -13.8393 O   0  0  0  0  0  0  0  0  0  0  0  0
  1  2  1  0
  2  3  2  0
  4  5  1  0
  4  2  1  0
  5  6  1  0
  6  7  1  0
  7  8  1  0
  8 10  1  0
  8  9  1  6
 10 11  2  0
 10 14  1  0
 13 12  1  1
 13 15  1  0
 14 13  1  0
 15 17  1  0
 15 16  2  0
 17 18  1  0
 18 19  1  0
 19 21  1  0
 20 19  2  0
M  END
$$$$
