RAG.pdb
     RDKit          3D

 21 20  0  0  1  0  0  0  0  0999 V2000
   27.7783  -23.0170  -16.4850 N   0  0  0  0  0  0  0  0  0  0  0  0
   26.4624  -23.5067  -16.7237 C   0  0  0  0  0  0  0  0  0  0  0  0
   26.3287  -24.7773  -16.8763 N   0  0  0  0  0  0  0  0  0  0  0  0
   25.3795  -22.6015  -16.7826 N   0  0  0  0  0  0  0  0  0  0  0  0
   25.6485  -21.2036  -16.5090 C   0  0  0  0  0  0  0  0  0  0  0  0
   25.6290  -20.9133  -15.0313 C   0  0  0  0  0  0  0  0  0  0  0  0
   24.2404  -21.0984  -14.5105 C   0  0  0  0  0  0  0  0  0  0  0  0
   24.0920  -20.7752  -13.0540 C   0  0  2  0  0  0  0  0  0  0  0  0
   24.8651  -21.6162  -12.1986 N   0  0  0  0  0  0  0  0  0  0  0  0
   22.6442  -20.7750  -12.7342 C   0  0  0  0  0  0  0  0  0  0  0  0
   22.1242  -21.8843  -12.4460 O   0  0  0  0  0  0  0  0  0  0  0  0
   25.3988  -25.2034  -17.0807 C   0  0  0  0  0  0  0  0  0  0  0  0
   19.8211  -18.3317  -12.2009 C   0  0  1  0  0  0  0  0  0  0  0  0
   20.4303  -19.6993  -12.4026 N   0  0  0  0  0  0  0  0  0  0  0  0
   21.8356  -19.6246  -12.7352 C   0  0  0  0  0  0  0  0  0  0  0  0
   19.7003  -20.3510  -13.5188 O   0  0  0  0  0  0  0  0  0  0  0  0
   20.1975  -20.3162  -14.6690 N   0  0  0  0  0  0  0  0  0  0  0  0
   18.4622  -21.0125  -13.3392 C   0  0  0  0  0  0  0  0  0  0  0  0
   17.8068  -21.6015  -14.4678 C   0  0  0  0  0  0  0  0  0  0  0  0
   16.8379  -20.7038  -15.1073 O   0  0  0  0  0  0  0  0  0  0  0  0
   16.8718  -19.4718  -14.8823 O   0  0  0  0  0  0  0  0  0  0  0  0
  1  2  1  0
  2  3  2  0
  4  5  1  0
  4  2  1  0
  5  6  1  0
  6  7  1  0
  7  8  1  0
  8 10  1  0
  8  9  1  1
 10 11  2  0
 10 14  1  0
 13 12  1  1
 13 15  1  0
 14 13  1  0
 15 17  1  0
 15 16  2  0
 17 18  1  0
 18 19  1  0
 19 21  1  0
 20 19  2  0
M  END
$$$$
