RAG.pdb
     RDKit          3D

 21 20  0  0  1  0  0  0  0  0999 V2000
   23.2079  -20.1459  -10.6085 N   0  0  0  0  0  0  0  0  0  0  0  0
   24.0872  -20.8780   -9.7604 C   0  0  0  0  0  0  0  0  0  0  0  0
   23.8277  -20.8695   -8.5002 N   0  0  0  0  0  0  0  0  0  0  0  0
   25.1844  -21.5693  -10.3205 N   0  0  0  0  0  0  0  0  0  0  0  0
   25.4551  -21.3816  -11.7321 C   0  0  0  0  0  0  0  0  0  0  0  0
   26.6955  -20.5567  -11.9547 C   0  0  0  0  0  0  0  0  0  0  0  0
   26.7808  -20.1733  -13.3966 C   0  0  0  0  0  0  0  0  0  0  0  0
   26.3915  -21.2722  -14.3393 C   0  0  2  0  0  0  0  0  0  0  0  0
   27.4981  -21.8612  -15.0214 N   0  0  0  0  0  0  0  0  0  0  0  0
   25.3487  -20.7414  -15.2497 C   0  0  0  0  0  0  0  0  0  0  0  0
   25.7332  -19.9762  -16.1720 O   0  0  0  0  0  0  0  0  0  0  0  0
   24.4409  -21.3658   -7.8176 C   0  0  0  0  0  0  0  0  0  0  0  0
   21.9061  -21.6359  -16.3091 C   0  0  1  0  0  0  0  0  0  0  0  0
   23.0456  -20.6531  -16.1754 N   0  0  0  0  0  0  0  0  0  0  0  0
   23.9790  -21.0405  -15.1411 C   0  0  0  0  0  0  0  0  0  0  0  0
   22.4573  -19.3345  -15.8305 O   0  0  0  0  0  0  0  0  0  0  0  0
   22.3848  -19.0012  -14.6243 N   0  0  0  0  0  0  0  0  0  0  0  0
   21.9730  -18.4343  -16.8092 C   0  0  0  0  0  0  0  0  0  0  0  0
   21.4749  -17.1541  -16.4052 C   0  0  0  0  0  0  0  0  0  0  0  0
   20.0213  -17.0244  -16.5591 O   0  0  0  0  0  0  0  0  0  0  0  0
   19.3494  -17.9643  -17.0435 O   0  0  0  0  0  0  0  0  0  0  0  0
  1  2  1  0
  2  3  2  0
  4  5  1  0
  4  2  1  0
  5  6  1  0
  6  7  1  0
  7  8  1  0
  8 10  1  0
  8  9  1  6
 10 11  2  0
 10 14  1  0
 13 12  1  6
 13 15  1  0
 14 13  1  0
 15 17  1  0
 15 16  2  0
 17 18  1  0
 18 19  1  0
 19 21  1  0
 20 19  2  0
M  END
$$$$
