RAG.pdb
     RDKit          3D

 21 20  0  0  1  0  0  0  0  0999 V2000
   25.4485  -21.4599   -9.0167 N   0  0  0  0  0  0  0  0  0  0  0  0
   24.2621  -21.0830   -9.7087 C   0  0  0  0  0  0  0  0  0  0  0  0
   23.1461  -21.2440   -9.0890 N   0  0  0  0  0  0  0  0  0  0  0  0
   24.3526  -20.5593  -11.0176 N   0  0  0  0  0  0  0  0  0  0  0  0
   25.2748  -21.1928  -11.9392 C   0  0  0  0  0  0  0  0  0  0  0  0
   26.5997  -20.4777  -11.9784 C   0  0  0  0  0  0  0  0  0  0  0  0
   26.9142  -20.0988  -13.3894 C   0  0  0  0  0  0  0  0  0  0  0  0
   26.3416  -21.0361  -14.4099 C   0  0  2  0  0  0  0  0  0  0  0  0
   27.1007  -22.2328  -14.5789 N   0  0  0  0  0  0  0  0  0  0  0  0
   26.1476  -20.2749  -15.6673 C   0  0  0  0  0  0  0  0  0  0  0  0
   27.1618  -20.1049  -16.3929 O   0  0  0  0  0  0  0  0  0  0  0  0
   22.2332  -21.0740   -9.5643 C   0  0  0  0  0  0  0  0  0  0  0  0
   23.3013  -18.9811  -17.7684 C   0  0  1  0  0  0  0  0  0  0  0  0
   24.7550  -19.1806  -17.4085 N   0  0  0  0  0  0  0  0  0  0  0  0
   24.9152  -19.7424  -16.0857 C   0  0  0  0  0  0  0  0  0  0  0  0
   25.4110  -17.8498  -17.4544 O   0  0  0  0  0  0  0  0  0  0  0  0
   25.6612  -17.2611  -16.3764 N   0  0  0  0  0  0  0  0  0  0  0  0
   25.7674  -17.2149  -18.6679 C   0  0  0  0  0  0  0  0  0  0  0  0
   26.5066  -15.9891  -18.6322 C   0  0  0  0  0  0  0  0  0  0  0  0
   26.7240  -15.4060  -19.9612 O   0  0  0  0  0  0  0  0  0  0  0  0
   27.2951  -14.2973  -20.0807 O   0  0  0  0  0  0  0  0  0  0  0  0
  1  2  1  0
  2  3  2  0
  4  5  1  0
  4  2  1  0
  5  6  1  0
  6  7  1  0
  7  8  1  0
  8 10  1  0
  8  9  1  6
 10 11  2  0
 10 14  1  0
 13 12  1  6
 13 15  1  0
 14 13  1  0
 15 17  1  0
 15 16  2  0
 17 18  1  0
 18 19  1  0
 19 21  1  0
 20 19  2  0
M  END
$$$$
