RAG.pdb
     RDKit          3D

 21 20  0  0  1  0  0  0  0  0999 V2000
   19.5297  -22.2033  -12.7962 N   0  0  0  0  0  0  0  0  0  0  0  0
   20.5007  -21.8793  -13.7864 C   0  0  0  0  0  0  0  0  0  0  0  0
   20.1765  -22.0854  -15.0144 N   0  0  0  0  0  0  0  0  0  0  0  0
   21.7528  -21.3565  -13.3933 N   0  0  0  0  0  0  0  0  0  0  0  0
   21.9696  -21.1045  -11.9824 C   0  0  0  0  0  0  0  0  0  0  0  0
   23.3116  -20.4683  -11.7318 C   0  0  0  0  0  0  0  0  0  0  0  0
   24.3713  -21.5215  -11.7681 C   0  0  0  0  0  0  0  0  0  0  0  0
   25.7375  -21.0182  -11.4104 C   0  0  2  0  0  0  0  0  0  0  0  0
   25.7637  -20.2243  -10.2248 N   0  0  0  0  0  0  0  0  0  0  0  0
   26.2923  -20.3269  -12.5989 C   0  0  0  0  0  0  0  0  0  0  0  0
   26.1690  -19.0750  -12.6391 O   0  0  0  0  0  0  0  0  0  0  0  0
   20.8446  -21.8894  -15.7912 C   0  0  0  0  0  0  0  0  0  0  0  0
   28.4852  -21.0359  -15.5649 C   0  0  1  0  0  0  0  0  0  0  0  0
   27.4648  -20.2388  -14.7866 N   0  0  0  0  0  0  0  0  0  0  0  0
   26.9365  -20.9813  -13.6638 C   0  0  0  0  0  0  0  0  0  0  0  0
   26.3558  -19.9082  -15.7162 O   0  0  0  0  0  0  0  0  0  0  0  0
   25.4264  -20.7356  -15.8677 N   0  0  0  0  0  0  0  0  0  0  0  0
   26.3027  -18.6943  -16.4416 C   0  0  0  0  0  0  0  0  0  0  0  0
   25.2132  -18.4561  -17.3397 C   0  0  0  0  0  0  0  0  0  0  0  0
   24.0770  -17.7793  -16.7036 O   0  0  0  0  0  0  0  0  0  0  0  0
   23.7808  -18.0240  -15.5112 O   0  0  0  0  0  0  0  0  0  0  0  0
  1  2  1  0
  2  3  2  0
  4  5  1  0
  4  2  1  0
  5  6  1  0
  6  7  1  0
  7  8  1  0
  8 10  1  0
  8  9  1  1
 10 11  2  0
 10 14  1  0
 13 12  1  1
 13 15  1  0
 14 13  1  0
 15 17  1  0
 15 16  2  0
 17 18  1  0
 18 19  1  0
 19 21  1  0
 20 19  2  0
M  END
$$$$
