RAG.pdb
     RDKit          3D

 21 20  0  0  1  0  0  0  0  0999 V2000
   20.0371  -25.1346  -14.7382 N   0  0  0  0  0  0  0  0  0  0  0  0
   18.9731  -24.2388  -14.4319 C   0  0  0  0  0  0  0  0  0  0  0  0
   17.8102  -24.7546  -14.2390 N   0  0  0  0  0  0  0  0  0  0  0  0
   19.2277  -22.8516  -14.3533 N   0  0  0  0  0  0  0  0  0  0  0  0
   20.5735  -22.3921  -14.6345 C   0  0  0  0  0  0  0  0  0  0  0  0
   20.6989  -20.9013  -14.4608 C   0  0  0  0  0  0  0  0  0  0  0  0
   22.1087  -20.4894  -14.7367 C   0  0  0  0  0  0  0  0  0  0  0  0
   23.0963  -20.9993  -13.7304 C   0  0  2  0  0  0  0  0  0  0  0  0
   22.8175  -20.5858  -12.3932 N   0  0  0  0  0  0  0  0  0  0  0  0
   24.4532  -20.6247  -14.1958 C   0  0  0  0  0  0  0  0  0  0  0  0
   24.7902  -19.4198  -14.0589 O   0  0  0  0  0  0  0  0  0  0  0  0
   16.9883  -24.1609  -13.9940 C   0  0  0  0  0  0  0  0  0  0  0  0
   27.6907  -22.2099  -15.1560 C   0  0  1  0  0  0  0  0  0  0  0  0
   26.6787  -21.0889  -15.1959 N   0  0  0  0  0  0  0  0  0  0  0  0
   25.3672  -21.5253  -14.7709 C   0  0  0  0  0  0  0  0  0  0  0  0
   26.6010  -20.6099  -16.5988 O   0  0  0  0  0  0  0  0  0  0  0  0
   25.7226  -21.0890  -17.3539 N   0  0  0  0  0  0  0  0  0  0  0  0
   27.4795  -19.6317  -17.1221 C   0  0  0  0  0  0  0  0  0  0  0  0
   27.3805  -19.2601  -18.5014 C   0  0  0  0  0  0  0  0  0  0  0  0
   26.6595  -17.9991  -18.7102 O   0  0  0  0  0  0  0  0  0  0  0  0
   25.4912  -17.8589  -18.2801 O   0  0  0  0  0  0  0  0  0  0  0  0
  1  2  1  0
  2  3  2  0
  4  5  1  0
  4  2  1  0
  5  6  1  0
  6  7  1  0
  7  8  1  0
  8 10  1  0
  8  9  1  1
 10 11  2  0
 10 14  1  0
 13 12  1  1
 13 15  1  0
 14 13  1  0
 15 17  1  0
 15 16  2  0
 17 18  1  0
 18 19  1  0
 19 21  1  0
 20 19  2  0
M  END
$$$$
