RAG.pdb
     RDKit          3D

 21 20  0  0  1  0  0  0  0  0999 V2000
   27.1218  -19.3879  -14.8712 N   0  0  0  0  0  0  0  0  0  0  0  0
   27.5368  -20.7295  -14.6338 C   0  0  0  0  0  0  0  0  0  0  0  0
   28.4991  -21.1820  -15.3581 N   0  0  0  0  0  0  0  0  0  0  0  0
   26.8922  -21.4947  -13.6366 N   0  0  0  0  0  0  0  0  0  0  0  0
   25.7464  -20.9102  -12.9680 C   0  0  0  0  0  0  0  0  0  0  0  0
   24.4601  -21.2438  -13.6769 C   0  0  0  0  0  0  0  0  0  0  0  0
   23.3107  -20.6854  -12.9019 C   0  0  0  0  0  0  0  0  0  0  0  0
   21.9705  -20.9992  -13.4960 C   0  0  2  0  0  0  0  0  0  0  0  0
   21.8247  -22.3620  -13.8940 N   0  0  0  0  0  0  0  0  0  0  0  0
   21.7219  -20.0320  -14.5920 C   0  0  0  0  0  0  0  0  0  0  0  0
   22.1932  -20.3191  -15.7231 O   0  0  0  0  0  0  0  0  0  0  0  0
   28.8345  -22.1649  -15.2605 C   0  0  0  0  0  0  0  0  0  0  0  0
   19.6686  -16.9356  -15.2359 C   0  0  1  0  0  0  0  0  0  0  0  0
   20.6737  -18.0093  -15.5811 N   0  0  0  0  0  0  0  0  0  0  0  0
   21.0017  -18.8340  -14.4394 C   0  0  0  0  0  0  0  0  0  0  0  0
   21.9036  -17.3297  -16.0597 O   0  0  0  0  0  0  0  0  0  0  0  0
   22.7647  -16.9756  -15.2204 N   0  0  0  0  0  0  0  0  0  0  0  0
   22.1463  -17.0635  -17.4282 C   0  0  0  0  0  0  0  0  0  0  0  0
   23.3545  -16.3988  -17.8141 C   0  0  0  0  0  0  0  0  0  0  0  0
   23.1185  -15.1312  -18.5148 O   0  0  0  0  0  0  0  0  0  0  0  0
   21.9548  -14.6847  -18.6414 O   0  0  0  0  0  0  0  0  0  0  0  0
  1  2  1  0
  2  3  2  0
  4  5  1  0
  4  2  1  0
  5  6  1  0
  6  7  1  0
  7  8  1  0
  8 10  1  0
  8  9  1  6
 10 11  2  0
 10 14  1  0
 13 12  1  6
 13 15  1  0
 14 13  1  0
 15 17  1  0
 15 16  2  0
 17 18  1  0
 18 19  1  0
 19 21  1  0
 20 19  2  0
M  END
$$$$
