RAG.pdb
     RDKit          3D

 21 20  0  0  1  0  0  0  0  0999 V2000
   31.7361  -22.7484  -11.2192 N   0  0  0  0  0  0  0  0  0  0  0  0
   31.6060  -22.0562   -9.9814 C   0  0  0  0  0  0  0  0  0  0  0  0
   32.2966  -22.4959   -8.9888 N   0  0  0  0  0  0  0  0  0  0  0  0
   30.7447  -20.9402   -9.8915 N   0  0  0  0  0  0  0  0  0  0  0  0
   29.3213  -21.1895   -9.7769 C   0  0  0  0  0  0  0  0  0  0  0  0
   28.7477  -21.7327  -11.0593 C   0  0  0  0  0  0  0  0  0  0  0  0
   27.7256  -20.7780  -11.5858 C   0  0  0  0  0  0  0  0  0  0  0  0
   27.8724  -20.4793  -13.0477 C   0  0  2  0  0  0  0  0  0  0  0  0
   28.9471  -19.5887  -13.3456 N   0  0  0  0  0  0  0  0  0  0  0  0
   26.5583  -20.0112  -13.5497 C   0  0  0  0  0  0  0  0  0  0  0  0
   26.3344  -18.7740  -13.4929 O   0  0  0  0  0  0  0  0  0  0  0  0
   32.3003  -22.0016   -8.0703 C   0  0  0  0  0  0  0  0  0  0  0  0
   23.9501  -21.1386  -15.8990 C   0  0  1  0  0  0  0  0  0  0  0  0
   24.3814  -20.3196  -14.7050 N   0  0  0  0  0  0  0  0  0  0  0  0
   25.5669  -20.8582  -14.0761 C   0  0  0  0  0  0  0  0  0  0  0  0
   23.2634  -20.3343  -13.7286 O   0  0  0  0  0  0  0  0  0  0  0  0
   23.2982  -21.1546  -12.7814 N   0  0  0  0  0  0  0  0  0  0  0  0
   22.1559  -19.4584  -13.8217 C   0  0  0  0  0  0  0  0  0  0  0  0
   21.1107  -19.5364  -12.8460 C   0  0  0  0  0  0  0  0  0  0  0  0
   20.1213  -20.5793  -13.1407 O   0  0  0  0  0  0  0  0  0  0  0  0
   20.2548  -21.3125  -14.1479 O   0  0  0  0  0  0  0  0  0  0  0  0
  1  2  1  0
  2  3  2  0
  4  5  1  0
  4  2  1  0
  5  6  1  0
  6  7  1  0
  7  8  1  0
  8 10  1  0
  8  9  1  1
 10 11  2  0
 10 14  1  0
 13 12  1  6
 13 15  1  0
 14 13  1  0
 15 17  1  0
 15 16  2  0
 17 18  1  0
 18 19  1  0
 19 21  1  0
 20 19  2  0
M  END
$$$$
