RAG.pdb
     RDKit          3D

 21 20  0  0  1  0  0  0  0  0999 V2000
   23.6021  -22.7400   -8.1738 N   0  0  0  0  0  0  0  0  0  0  0  0
   22.9242  -21.6009   -7.6530 C   0  0  0  0  0  0  0  0  0  0  0  0
   22.1673  -21.7868   -6.6292 N   0  0  0  0  0  0  0  0  0  0  0  0
   23.1035  -20.3402   -8.2647 N   0  0  0  0  0  0  0  0  0  0  0  0
   23.6407  -20.3099   -9.6107 C   0  0  0  0  0  0  0  0  0  0  0  0
   25.1398  -20.1642   -9.6071 C   0  0  0  0  0  0  0  0  0  0  0  0
   25.6285  -20.0596  -11.0156 C   0  0  0  0  0  0  0  0  0  0  0  0
   26.0359  -21.3725  -11.6140 C   0  0  2  0  0  0  0  0  0  0  0  0
   27.3380  -21.8031  -11.2191 N   0  0  0  0  0  0  0  0  0  0  0  0
   25.8646  -21.2744  -13.0835 C   0  0  0  0  0  0  0  0  0  0  0  0
   26.5973  -20.4493  -13.6888 O   0  0  0  0  0  0  0  0  0  0  0  0
   21.6190  -21.0038   -6.2117 C   0  0  0  0  0  0  0  0  0  0  0  0
   24.2054  -23.1509  -15.8808 C   0  0  1  0  0  0  0  0  0  0  0  0
   24.8967  -21.9561  -15.2668 N   0  0  0  0  0  0  0  0  0  0  0  0
   24.9453  -22.0386  -13.8239 C   0  0  0  0  0  0  0  0  0  0  0  0
   24.1288  -20.7479  -15.6594 O   0  0  0  0  0  0  0  0  0  0  0  0
   23.3522  -20.2270  -14.8246 N   0  0  0  0  0  0  0  0  0  0  0  0
   24.2366  -20.1569  -16.9407 C   0  0  0  0  0  0  0  0  0  0  0  0
   23.5355  -18.9393  -17.2171 C   0  0  0  0  0  0  0  0  0  0  0  0
   22.1313  -19.1517  -17.5867 O   0  0  0  0  0  0  0  0  0  0  0  0
   21.6993  -20.3092  -17.7944 O   0  0  0  0  0  0  0  0  0  0  0  0
  1  2  1  0
  2  3  2  0
  4  5  1  0
  4  2  1  0
  5  6  1  0
  6  7  1  0
  7  8  1  0
  8 10  1  0
  8  9  1  6
 10 11  2  0
 10 14  1  0
 13 12  1  6
 13 15  1  0
 14 13  1  0
 15 17  1  0
 15 16  2  0
 17 18  1  0
 18 19  1  0
 19 21  1  0
 20 19  2  0
M  END
$$$$
