RAG.pdb
     RDKit          3D

 21 20  0  0  1  0  0  0  0  0999 V2000
   24.9093  -15.9890  -15.0354 N   0  0  0  0  0  0  0  0  0  0  0  0
   25.9088  -15.8032  -16.0328 C   0  0  0  0  0  0  0  0  0  0  0  0
   26.1946  -16.8169  -16.7719 N   0  0  0  0  0  0  0  0  0  0  0  0
   26.5340  -14.5439  -16.1701 N   0  0  0  0  0  0  0  0  0  0  0  0
   25.7496  -13.3615  -15.8734 C   0  0  0  0  0  0  0  0  0  0  0  0
   24.6523  -13.1551  -16.8843 C   0  0  0  0  0  0  0  0  0  0  0  0
   23.8939  -11.9135  -16.5423 C   0  0  0  0  0  0  0  0  0  0  0  0
   22.8381  -11.5538  -17.5442 C   0  0  2  0  0  0  0  0  0  0  0  0
   23.2982  -11.5762  -18.8949 N   0  0  0  0  0  0  0  0  0  0  0  0
   22.2520  -10.2535  -17.1392 C   0  0  0  0  0  0  0  0  0  0  0  0
   22.8220   -9.2147  -17.5635 O   0  0  0  0  0  0  0  0  0  0  0  0
   26.8847  -16.7421  -17.5505 C   0  0  0  0  0  0  0  0  0  0  0  0
   19.0807   -8.9256  -15.6522 C   0  0  1  0  0  0  0  0  0  0  0  0
   20.5314   -8.8232  -16.0612 N   0  0  0  0  0  0  0  0  0  0  0  0
   21.1153  -10.1200  -16.3222 C   0  0  0  0  0  0  0  0  0  0  0  0
   21.2637   -8.1760  -14.9438 O   0  0  0  0  0  0  0  0  0  0  0  0
   21.8241   -8.9003  -14.0878 N   0  0  0  0  0  0  0  0  0  0  0  0
   21.3566   -6.7709  -14.8032 C   0  0  0  0  0  0  0  0  0  0  0  0
   22.0392   -6.2187  -13.6721 C   0  0  0  0  0  0  0  0  0  0  0  0
   21.9677   -4.7542  -13.6120 O   0  0  0  0  0  0  0  0  0  0  0  0
   21.4751   -4.1046  -14.5633 O   0  0  0  0  0  0  0  0  0  0  0  0
  1  2  1  0
  2  3  2  0
  4  5  1  0
  4  2  1  0
  5  6  1  0
  6  7  1  0
  7  8  1  0
  8 10  1  0
  8  9  1  6
 10 11  2  0
 10 14  1  0
 13 12  1  6
 13 15  1  0
 14 13  1  0
 15 17  1  0
 15 16  2  0
 17 18  1  0
 18 19  1  0
 19 21  1  0
 20 19  2  0
M  END
$$$$
