RAG.pdb
     RDKit          3D

 21 20  0  0  1  0  0  0  0  0999 V2000
   24.4933  -21.3618  -11.7967 N   0  0  0  0  0  0  0  0  0  0  0  0
   24.5204  -21.9123  -13.1100 C   0  0  0  0  0  0  0  0  0  0  0  0
   25.3539  -22.8681  -13.3275 N   0  0  0  0  0  0  0  0  0  0  0  0
   23.6526  -21.4011  -14.1004 N   0  0  0  0  0  0  0  0  0  0  0  0
   22.6252  -20.4666  -13.6851 C   0  0  0  0  0  0  0  0  0  0  0  0
   21.3282  -21.1679  -13.3776 C   0  0  0  0  0  0  0  0  0  0  0  0
   20.2755  -20.1498  -13.0797 C   0  0  0  0  0  0  0  0  0  0  0  0
   19.2113  -20.0539  -14.1314 C   0  0  2  0  0  0  0  0  0  0  0  0
   18.6291  -21.3110  -14.4741 N   0  0  0  0  0  0  0  0  0  0  0  0
   19.7836  -19.3299  -15.2918 C   0  0  0  0  0  0  0  0  0  0  0  0
   20.1299  -20.0245  -16.2825 O   0  0  0  0  0  0  0  0  0  0  0  0
   25.5184  -23.2345  -14.2902 C   0  0  0  0  0  0  0  0  0  0  0  0
   20.2030  -15.7961  -16.5189 C   0  0  1  0  0  0  0  0  0  0  0  0
   20.4388  -17.2881  -16.5449 N   0  0  0  0  0  0  0  0  0  0  0  0
   19.9572  -17.9355  -15.3450 C   0  0  0  0  0  0  0  0  0  0  0  0
   21.9028  -17.5048  -16.6604 O   0  0  0  0  0  0  0  0  0  0  0  0
   22.5646  -17.7325  -15.6204 N   0  0  0  0  0  0  0  0  0  0  0  0
   22.5859  -17.4653  -17.8991 C   0  0  0  0  0  0  0  0  0  0  0  0
   24.0102  -17.6104  -17.9243 C   0  0  0  0  0  0  0  0  0  0  0  0
   24.4471  -19.0052  -18.0552 O   0  0  0  0  0  0  0  0  0  0  0  0
   23.6048  -19.9320  -18.0903 O   0  0  0  0  0  0  0  0  0  0  0  0
  1  2  1  0
  2  3  2  0
  4  5  1  0
  4  2  1  0
  5  6  1  0
  6  7  1  0
  7  8  1  0
  8 10  1  0
  8  9  1  6
 10 11  2  0
 10 14  1  0
 13 12  1  6
 13 15  1  0
 14 13  1  0
 15 17  1  0
 15 16  2  0
 17 18  1  0
 18 19  1  0
 19 21  1  0
 20 19  2  0
M  END
$$$$
