RAG.pdb
     RDKit          3D

 21 20  0  0  1  0  0  0  0  0999 V2000
   18.0876  -24.1504  -10.9873 N   0  0  0  0  0  0  0  0  0  0  0  0
   18.0537  -22.9831  -11.8026 C   0  0  0  0  0  0  0  0  0  0  0  0
   17.0649  -22.8661  -12.6174 N   0  0  0  0  0  0  0  0  0  0  0  0
   19.0818  -22.0210  -11.6891 N   0  0  0  0  0  0  0  0  0  0  0  0
   20.4067  -22.3868  -12.1495 C   0  0  0  0  0  0  0  0  0  0  0  0
   20.8000  -21.6134  -13.3806 C   0  0  0  0  0  0  0  0  0  0  0  0
   22.1529  -22.0597  -13.8322 C   0  0  0  0  0  0  0  0  0  0  0  0
   23.2705  -21.5940  -12.9480 C   0  0  2  0  0  0  0  0  0  0  0  0
   22.8461  -20.7284  -11.8956 N   0  0  0  0  0  0  0  0  0  0  0  0
   24.3190  -21.0037  -13.8142 C   0  0  0  0  0  0  0  0  0  0  0  0
   24.2763  -19.7586  -13.9928 O   0  0  0  0  0  0  0  0  0  0  0  0
   16.9652  -22.0287  -13.2314 C   0  0  0  0  0  0  0  0  0  0  0  0
   27.5451  -21.9809  -15.4823 C   0  0  1  0  0  0  0  0  0  0  0  0
   26.3407  -21.0978  -15.2538 N   0  0  0  0  0  0  0  0  0  0  0  0
   25.3396  -21.7452  -14.4355 C   0  0  0  0  0  0  0  0  0  0  0  0
   25.7570  -20.7893  -16.5833 O   0  0  0  0  0  0  0  0  0  0  0  0
   26.4842  -20.2566  -17.4544 N   0  0  0  0  0  0  0  0  0  0  0  0
   24.4096  -21.0720  -16.9106 C   0  0  0  0  0  0  0  0  0  0  0  0
   23.9405  -20.8272  -18.2412 C   0  0  0  0  0  0  0  0  0  0  0  0
   23.4111  -19.4713  -18.4274 O   0  0  0  0  0  0  0  0  0  0  0  0
   23.9107  -18.7088  -19.2868 O   0  0  0  0  0  0  0  0  0  0  0  0
  1  2  1  0
  2  3  2  0
  4  5  1  0
  4  2  1  0
  5  6  1  0
  6  7  1  0
  7  8  1  0
  8 10  1  0
  8  9  1  1
 10 11  2  0
 10 14  1  0
 13 12  1  1
 13 15  1  0
 14 13  1  0
 15 17  1  0
 15 16  2  0
 17 18  1  0
 18 19  1  0
 19 21  1  0
 20 19  2  0
M  END
$$$$
