RAG.pdb
     RDKit          3D

 21 20  0  0  1  0  0  0  0  0999 V2000
   21.8780  -23.9926  -14.5101 N   0  0  0  0  0  0  0  0  0  0  0  0
   20.9047  -22.9620  -14.6477 C   0  0  0  0  0  0  0  0  0  0  0  0
   19.8924  -23.2091  -15.4025 N   0  0  0  0  0  0  0  0  0  0  0  0
   21.0826  -21.7369  -13.9672 N   0  0  0  0  0  0  0  0  0  0  0  0
   22.4367  -21.3266  -13.6522 C   0  0  0  0  0  0  0  0  0  0  0  0
   22.5446  -20.8014  -12.2447 C   0  0  0  0  0  0  0  0  0  0  0  0
   23.9253  -20.2759  -12.0188 C   0  0  0  0  0  0  0  0  0  0  0  0
   24.9652  -21.3467  -11.8788 C   0  0  2  0  0  0  0  0  0  0  0  0
   25.4004  -21.5510  -10.5351 N   0  0  0  0  0  0  0  0  0  0  0  0
   26.0689  -21.0334  -12.8180 C   0  0  0  0  0  0  0  0  0  0  0  0
   26.8632  -20.1180  -12.4787 O   0  0  0  0  0  0  0  0  0  0  0  0
   19.1327  -22.5070  -15.5366 C   0  0  0  0  0  0  0  0  0  0  0  0
   28.0991  -22.4768  -15.4802 C   0  0  1  0  0  0  0  0  0  0  0  0
   27.3364  -21.2906  -14.9383 N   0  0  0  0  0  0  0  0  0  0  0  0
   26.2728  -21.6908  -14.0442 C   0  0  0  0  0  0  0  0  0  0  0  0
   26.7523  -20.5704  -16.0974 O   0  0  0  0  0  0  0  0  0  0  0  0
   25.5144  -20.6304  -16.2857 N   0  0  0  0  0  0  0  0  0  0  0  0
   27.5362  -19.8160  -17.0024 C   0  0  0  0  0  0  0  0  0  0  0  0
   26.9012  -19.1455  -18.0967 C   0  0  0  0  0  0  0  0  0  0  0  0
   27.3281  -17.7494  -18.2457 O   0  0  0  0  0  0  0  0  0  0  0  0
   26.6540  -16.8235  -17.7379 O   0  0  0  0  0  0  0  0  0  0  0  0
  1  2  1  0
  2  3  2  0
  4  5  1  0
  4  2  1  0
  5  6  1  0
  6  7  1  0
  7  8  1  0
  8 10  1  0
  8  9  1  1
 10 11  2  0
 10 14  1  0
 13 12  1  1
 13 15  1  0
 14 13  1  0
 15 17  1  0
 15 16  2  0
 17 18  1  0
 18 19  1  0
 19 21  1  0
 20 19  2  0
M  END
$$$$
