RAG.pdb
     RDKit          3D

 21 20  0  0  1  0  0  0  0  0999 V2000
   25.4869  -20.0040   -9.4770 N   0  0  0  0  0  0  0  0  0  0  0  0
   24.7408  -20.9772  -10.2012 C   0  0  0  0  0  0  0  0  0  0  0  0
   23.4851  -20.7498  -10.3653 N   0  0  0  0  0  0  0  0  0  0  0  0
   25.3912  -22.1277  -10.7001 N   0  0  0  0  0  0  0  0  0  0  0  0
   26.2031  -21.9844  -11.8924 C   0  0  0  0  0  0  0  0  0  0  0  0
   25.8584  -20.7299  -12.6514 C   0  0  0  0  0  0  0  0  0  0  0  0
   26.1239  -20.9451  -14.1063 C   0  0  0  0  0  0  0  0  0  0  0  0
   27.4877  -20.5028  -14.5447 C   0  0  2  0  0  0  0  0  0  0  0  0
   28.4412  -20.4487  -13.4842 N   0  0  0  0  0  0  0  0  0  0  0  0
   27.3369  -19.2196  -15.2721 C   0  0  0  0  0  0  0  0  0  0  0  0
   26.9930  -18.2170  -14.5935 O   0  0  0  0  0  0  0  0  0  0  0  0
   22.8592  -21.4591  -10.8049 C   0  0  0  0  0  0  0  0  0  0  0  0
   28.2554  -17.7027  -18.5679 C   0  0  1  0  0  0  0  0  0  0  0  0
   27.4665  -17.7651  -17.2810 N   0  0  0  0  0  0  0  0  0  0  0  0
   27.5531  -19.0646  -16.6528 C   0  0  0  0  0  0  0  0  0  0  0  0
   26.0484  -17.4797  -17.6146 O   0  0  0  0  0  0  0  0  0  0  0  0
   25.2290  -18.4281  -17.6350 N   0  0  0  0  0  0  0  0  0  0  0  0
   25.5804  -16.1776  -17.9117 C   0  0  0  0  0  0  0  0  0  0  0  0
   24.1833  -15.9660  -18.1439 C   0  0  0  0  0  0  0  0  0  0  0  0
   23.7999  -16.1287  -19.5510 O   0  0  0  0  0  0  0  0  0  0  0  0
   24.6367  -16.5289  -20.3932 O   0  0  0  0  0  0  0  0  0  0  0  0
  1  2  1  0
  2  3  2  0
  4  5  1  0
  4  2  1  0
  5  6  1  0
  6  7  1  0
  7  8  1  0
  8 10  1  0
  8  9  1  1
 10 11  2  0
 10 14  1  0
 13 12  1  1
 13 15  1  0
 14 13  1  0
 15 17  1  0
 15 16  2  0
 17 18  1  0
 18 19  1  0
 19 21  1  0
 20 19  2  0
M  END
$$$$
