RAG.pdb
     RDKit          3D

 21 20  0  0  1  0  0  0  0  0999 V2000
   26.0145  -25.1253  -15.2618 N   0  0  0  0  0  0  0  0  0  0  0  0
   27.0305  -24.5064  -16.0448 C   0  0  0  0  0  0  0  0  0  0  0  0
   28.1711  -25.0994  -16.0990 N   0  0  0  0  0  0  0  0  0  0  0  0
   26.7550  -23.2944  -16.7161 N   0  0  0  0  0  0  0  0  0  0  0  0
   25.5026  -22.6261  -16.4226 C   0  0  0  0  0  0  0  0  0  0  0  0
   25.6743  -21.5622  -15.3705 C   0  0  0  0  0  0  0  0  0  0  0  0
   24.4388  -20.7234  -15.3111 C   0  0  0  0  0  0  0  0  0  0  0  0
   23.1857  -21.5080  -15.0626 C   0  0  2  0  0  0  0  0  0  0  0  0
   22.9969  -22.5904  -15.9734 N   0  0  0  0  0  0  0  0  0  0  0  0
   22.0511  -20.5541  -15.0324 C   0  0  0  0  0  0  0  0  0  0  0  0
   21.4212  -20.3836  -16.1086 O   0  0  0  0  0  0  0  0  0  0  0  0
   28.9654  -24.6970  -16.6425 C   0  0  0  0  0  0  0  0  0  0  0  0
   20.0649  -18.5664  -12.5170 C   0  0  1  0  0  0  0  0  0  0  0  0
   20.4642  -19.0122  -13.9042 N   0  0  0  0  0  0  0  0  0  0  0  0
   21.6478  -19.8428  -13.8884 C   0  0  0  0  0  0  0  0  0  0  0  0
   20.7376  -17.7908  -14.7022 O   0  0  0  0  0  0  0  0  0  0  0  0
   21.9017  -17.3258  -14.7171 N   0  0  0  0  0  0  0  0  0  0  0  0
   19.7365  -17.1263  -15.4497 C   0  0  0  0  0  0  0  0  0  0  0  0
   20.0661  -15.9287  -16.1621 C   0  0  0  0  0  0  0  0  0  0  0  0
   18.8907  -15.2334  -16.6993 O   0  0  0  0  0  0  0  0  0  0  0  0
   17.7485  -15.7337  -16.5775 O   0  0  0  0  0  0  0  0  0  0  0  0
  1  2  1  0
  2  3  2  0
  4  5  1  0
  4  2  1  0
  5  6  1  0
  6  7  1  0
  7  8  1  0
  8 10  1  0
  8  9  1  6
 10 11  2  0
 10 14  1  0
 13 12  1  1
 13 15  1  0
 14 13  1  0
 15 17  1  0
 15 16  2  0
 17 18  1  0
 18 19  1  0
 19 21  1  0
 20 19  2  0
M  END
$$$$
