IFM.pdb
     RDKit          3D

 28 28  0  0  1  0  0  0  0  0999 V2000
   13.3420  -20.5797   19.5247 C   0  0  0  0  0  0  0  0  0  0  0  0
   12.2233  -19.6480   19.1521 C   0  0  0  0  0  0  0  0  0  0  0  0
   11.9282  -18.7230   20.2924 C   0  0  2  0  0  0  0  0  0  0  0  0
   11.7095  -19.5122   21.5816 C   0  0  0  0  0  0  0  0  0  0  0  0
   10.7480  -17.8227   20.0217 C   0  0  2  0  0  0  0  0  0  0  0  0
   11.2253  -16.9454   18.9047 N   0  0  0  0  0  0  0  0  0  0  0  0
   10.4387  -16.8742   21.1086 C   0  0  0  0  0  0  0  0  0  0  0  0
   11.3044  -15.9938   21.4602 O   0  0  0  0  0  0  0  0  0  0  0  0
    9.2153  -16.8503   21.8267 N   0  0  0  0  0  0  0  0  0  0  0  0
    8.9842  -15.9391   22.9392 C   0  0  1  0  0  0  0  0  0  0  0  0
    7.6093  -15.3874   22.9987 C   0  0  0  0  0  0  0  0  0  0  0  0
    7.3110  -14.5505   24.1450 C   0  0  0  0  0  0  0  0  0  0  0  0
    7.5997  -13.2119   24.1636 C   0  0  0  0  0  0  0  0  0  0  0  0
    7.3060  -12.4263   25.2554 C   0  0  0  0  0  0  0  0  0  0  0  0
    6.7133  -12.9528   26.3654 C   0  0  0  0  0  0  0  0  0  0  0  0
    6.4114  -14.2982   26.3732 C   0  0  0  0  0  0  0  0  0  0  0  0
    6.7134  -15.0863   25.2615 C   0  0  0  0  0  0  0  0  0  0  0  0
    9.2563  -16.6398   24.2466 C   0  0  0  0  0  0  0  0  0  0  0  0
    8.8657  -17.8407   24.4213 O   0  0  0  0  0  0  0  0  0  0  0  0
    9.0606  -13.4656   28.8514 C   0  0  0  0  0  0  0  0  0  0  0  0
   10.8229  -13.5424   28.5974 S   0  0  0  0  0  0  0  0  0  0  0  0
   11.2735  -14.4827   27.1516 C   0  0  0  0  0  0  0  0  0  0  0  0
   11.3652  -15.9500   27.3006 C   0  0  0  0  0  0  0  0  0  0  0  0
   10.5737  -16.8106   26.3901 C   0  0  2  0  0  0  0  0  0  0  0  0
    9.9348  -16.0323   25.3161 N   0  0  0  0  0  0  0  0  0  0  0  0
    9.5196  -17.5935   27.0482 C   0  0  0  0  0  0  0  0  0  0  0  0
    8.1946  -17.4618   26.7249 O   0  0  0  0  0  0  0  0  0  0  0  0
    9.8231  -18.4195   27.9387 O   0  0  0  0  0  0  0  0  0  0  0  0
  2  1  1  0
  3  2  1  0
  3  4  1  1
  5  3  1  0
  5  6  1  6
  7  5  1  0
  8  7  2  0
  9  7  1  0
 10 11  1  1
 10  9  1  0
 11 12  1  0
 12 17  2  0
 13 14  2  0
 13 12  1  0
 14 15  1  0
 15 16  2  0
 17 16  1  0
 18 10  1  0
 18 19  2  0
 20 21  1  0
 22 21  1  0
 22 23  1  0
 24 23  1  1
 24 26  1  0
 24 25  1  0
 25 18  1  0
 26 27  1  0
 28 26  2  0
M  END
$$$$
