IFM.pdb
     RDKit          3D

 28 28  0  0  1  0  0  0  0  0999 V2000
   11.5019  -20.6394   19.7962 C   0  0  0  0  0  0  0  0  0  0  0  0
   10.6975  -19.4060   19.4962 C   0  0  0  0  0  0  0  0  0  0  0  0
   10.6158  -18.5408   20.7159 C   0  0  2  0  0  0  0  0  0  0  0  0
   10.1289  -19.3494   21.9165 C   0  0  0  0  0  0  0  0  0  0  0  0
    9.7428  -17.3272   20.5117 C   0  0  2  0  0  0  0  0  0  0  0  0
   10.4695  -16.5456   19.4600 N   0  0  0  0  0  0  0  0  0  0  0  0
    9.6926  -16.4074   21.6641 C   0  0  0  0  0  0  0  0  0  0  0  0
   10.7761  -15.9017   22.1315 O   0  0  0  0  0  0  0  0  0  0  0  0
    8.4999  -16.0170   22.3259 N   0  0  0  0  0  0  0  0  0  0  0  0
    8.5028  -15.1009   23.4581 C   0  0  1  0  0  0  0  0  0  0  0  0
    7.2010  -14.4366   23.7072 C   0  0  0  0  0  0  0  0  0  0  0  0
    7.1320  -13.6000   24.8899 C   0  0  0  0  0  0  0  0  0  0  0  0
    6.4597  -13.9886   26.0179 C   0  0  0  0  0  0  0  0  0  0  0  0
    6.4066  -13.1883   27.1370 C   0  0  0  0  0  0  0  0  0  0  0  0
    7.0243  -11.9725   27.1657 C   0  0  0  0  0  0  0  0  0  0  0  0
    7.7088  -11.5567   26.0432 C   0  0  0  0  0  0  0  0  0  0  0  0
    7.7567  -12.3752   24.9136 C   0  0  0  0  0  0  0  0  0  0  0  0
    8.8936  -15.8349   24.7162 C   0  0  0  0  0  0  0  0  0  0  0  0
    8.2565  -16.8811   25.0696 O   0  0  0  0  0  0  0  0  0  0  0  0
   15.0350  -17.3781   25.8451 C   0  0  0  0  0  0  0  0  0  0  0  0
   14.4599  -17.1743   27.5195 S   0  0  0  0  0  0  0  0  0  0  0  0
   12.6832  -17.0871   27.6355 C   0  0  0  0  0  0  0  0  0  0  0  0
   11.9746  -16.3147   26.5939 C   0  0  0  0  0  0  0  0  0  0  0  0
   10.4933  -16.2815   26.6138 C   0  0  2  0  0  0  0  0  0  0  0  0
    9.9488  -15.4245   25.5478 N   0  0  0  0  0  0  0  0  0  0  0  0
    9.9070  -15.8271   27.8815 C   0  0  0  0  0  0  0  0  0  0  0  0
    9.9491  -16.5820   29.0243 O   0  0  0  0  0  0  0  0  0  0  0  0
    9.3456  -14.7097   27.9413 O   0  0  0  0  0  0  0  0  0  0  0  0
  2  1  1  0
  3  2  1  0
  3  4  1  1
  5  3  1  0
  5  6  1  6
  7  5  1  0
  8  7  2  0
  9  7  1  0
 10 11  1  1
 10  9  1  0
 11 12  1  0
 12 17  2  0
 13 14  2  0
 13 12  1  0
 14 15  1  0
 15 16  2  0
 17 16  1  0
 18 10  1  0
 18 19  2  0
 20 21  1  0
 22 21  1  0
 22 23  1  0
 24 23  1  1
 24 26  1  0
 24 25  1  0
 25 18  1  0
 26 27  1  0
 28 26  2  0
M  END
$$$$
