IFM.pdb
     RDKit          3D

 28 28  0  0  1  0  0  0  0  0999 V2000
   10.8984  -20.8915   19.6469 C   0  0  0  0  0  0  0  0  0  0  0  0
   10.1434  -19.6427   19.2882 C   0  0  0  0  0  0  0  0  0  0  0  0
   10.1660  -18.6843   20.4387 C   0  0  2  0  0  0  0  0  0  0  0  0
    9.7054  -19.3737   21.7213 C   0  0  0  0  0  0  0  0  0  0  0  0
    9.3409  -17.4472   20.1826 C   0  0  2  0  0  0  0  0  0  0  0  0
   10.0603  -16.7736   19.0540 N   0  0  0  0  0  0  0  0  0  0  0  0
    9.3770  -16.4505   21.2698 C   0  0  0  0  0  0  0  0  0  0  0  0
   10.4929  -15.9220   21.6215 O   0  0  0  0  0  0  0  0  0  0  0  0
    8.2367  -16.0071   21.9880 N   0  0  0  0  0  0  0  0  0  0  0  0
    8.3404  -15.1405   23.1540 C   0  0  1  0  0  0  0  0  0  0  0  0
    7.0914  -14.4136   23.4854 C   0  0  0  0  0  0  0  0  0  0  0  0
    7.1095  -13.6516   24.7193 C   0  0  0  0  0  0  0  0  0  0  0  0
    6.4730  -14.0852   25.8517 C   0  0  0  0  0  0  0  0  0  0  0  0
    6.5027  -13.3560   27.0191 C   0  0  0  0  0  0  0  0  0  0  0  0
    7.1701  -12.1687   27.0935 C   0  0  0  0  0  0  0  0  0  0  0  0
    7.8201  -11.7089   25.9677 C   0  0  0  0  0  0  0  0  0  0  0  0
    7.7840  -12.4554   24.7889 C   0  0  0  0  0  0  0  0  0  0  0  0
    8.7386  -15.9475   24.3642 C   0  0  0  0  0  0  0  0  0  0  0  0
    8.1140  -17.0215   24.6498 O   0  0  0  0  0  0  0  0  0  0  0  0
   14.9225  -15.6256   26.3506 C   0  0  0  0  0  0  0  0  0  0  0  0
   14.3129  -16.8362   27.5077 S   0  0  0  0  0  0  0  0  0  0  0  0
   12.5578  -17.1113   27.3613 C   0  0  0  0  0  0  0  0  0  0  0  0
   11.8150  -16.2518   26.4163 C   0  0  0  0  0  0  0  0  0  0  0  0
   10.3710  -16.5073   26.2031 C   0  0  2  0  0  0  0  0  0  0  0  0
    9.7877  -15.5774   25.2219 N   0  0  0  0  0  0  0  0  0  0  0  0
    9.5489  -16.4323   27.4179 C   0  0  0  0  0  0  0  0  0  0  0  0
    8.7128  -15.3779   27.6768 O   0  0  0  0  0  0  0  0  0  0  0  0
    9.5978  -17.3578   28.2595 O   0  0  0  0  0  0  0  0  0  0  0  0
  2  1  1  0
  3  2  1  0
  3  4  1  1
  5  3  1  0
  5  6  1  6
  7  5  1  0
  8  7  2  0
  9  7  1  0
 10 11  1  1
 10  9  1  0
 11 12  1  0
 12 17  2  0
 13 14  2  0
 13 12  1  0
 14 15  1  0
 15 16  2  0
 17 16  1  0
 18 10  1  0
 18 19  2  0
 20 21  1  0
 22 21  1  0
 22 23  1  0
 24 23  1  1
 24 26  1  0
 24 25  1  0
 25 18  1  0
 26 27  1  0
 28 26  2  0
M  END
$$$$
