IFM.pdb
     RDKit          3D

 28 28  0  0  1  0  0  0  0  0999 V2000
    8.3663  -13.6221   15.8836 C   0  0  0  0  0  0  0  0  0  0  0  0
    8.9034  -14.6913   16.7929 C   0  0  0  0  0  0  0  0  0  0  0  0
    8.8496  -14.2259   18.2154 C   0  0  2  0  0  0  0  0  0  0  0  0
    9.5586  -12.8818   18.3680 C   0  0  0  0  0  0  0  0  0  0  0  0
    9.4233  -15.2343   19.1801 C   0  0  2  0  0  0  0  0  0  0  0  0
    8.5103  -16.4139   19.0382 N   0  0  0  0  0  0  0  0  0  0  0  0
    9.2999  -14.8610   20.6022 C   0  0  0  0  0  0  0  0  0  0  0  0
   10.1780  -14.0982   21.1457 O   0  0  0  0  0  0  0  0  0  0  0  0
    8.2499  -15.2895   21.4546 N   0  0  0  0  0  0  0  0  0  0  0  0
    8.1268  -14.8267   22.8301 C   0  0  1  0  0  0  0  0  0  0  0  0
    6.7390  -14.5082   23.2434 C   0  0  0  0  0  0  0  0  0  0  0  0
    6.5738  -14.0483   24.6089 C   0  0  0  0  0  0  0  0  0  0  0  0
    6.2683  -14.9044   25.6332 C   0  0  0  0  0  0  0  0  0  0  0  0
    6.1202  -14.4568   26.9267 C   0  0  0  0  0  0  0  0  0  0  0  0
    6.2729  -13.1379   27.2395 C   0  0  0  0  0  0  0  0  0  0  0  0
    6.5812  -12.2541   26.2271 C   0  0  0  0  0  0  0  0  0  0  0  0
    6.7290  -12.7176   24.9188 C   0  0  0  0  0  0  0  0  0  0  0  0
    8.6611  -15.8718   23.7770 C   0  0  0  0  0  0  0  0  0  0  0  0
    8.4714  -17.1091   23.5360 O   0  0  0  0  0  0  0  0  0  0  0  0
   10.3363  -13.0619   28.5624 C   0  0  0  0  0  0  0  0  0  0  0  0
   11.2144  -14.5333   29.0521 S   0  0  0  0  0  0  0  0  0  0  0  0
   10.7838  -15.9561   28.0682 C   0  0  0  0  0  0  0  0  0  0  0  0
   11.1163  -15.9090   26.6292 C   0  0  0  0  0  0  0  0  0  0  0  0
   10.1933  -16.5484   25.6622 C   0  0  2  0  0  0  0  0  0  0  0  0
    9.3771  -15.5560   24.9435 N   0  0  0  0  0  0  0  0  0  0  0  0
    9.2711  -17.5284   26.2505 C   0  0  0  0  0  0  0  0  0  0  0  0
    9.6524  -18.8098   26.5509 O   0  0  0  0  0  0  0  0  0  0  0  0
    8.0886  -17.1992   26.4969 O   0  0  0  0  0  0  0  0  0  0  0  0
  2  1  1  0
  3  2  1  0
  3  4  1  6
  5  3  1  0
  5  6  1  1
  7  5  1  0
  8  7  2  0
  9  7  1  0
 10 11  1  1
 10  9  1  0
 11 12  1  0
 12 17  2  0
 13 14  2  0
 13 12  1  0
 14 15  1  0
 15 16  2  0
 17 16  1  0
 18 10  1  0
 18 19  2  0
 20 21  1  0
 22 21  1  0
 22 23  1  0
 24 23  1  1
 24 26  1  0
 24 25  1  0
 25 18  1  0
 26 27  1  0
 28 26  2  0
M  END
$$$$
