IFM.pdb
     RDKit          3D

 28 28  0  0  1  0  0  0  0  0999 V2000
   11.7771  -21.0763   19.1880 C   0  0  0  0  0  0  0  0  0  0  0  0
   10.7642  -20.0276   18.8240 C   0  0  0  0  0  0  0  0  0  0  0  0
   10.7007  -18.9851   19.8973 C   0  0  2  0  0  0  0  0  0  0  0  0
   10.4976  -19.6337   21.2650 C   0  0  0  0  0  0  0  0  0  0  0  0
    9.6312  -17.9515   19.6428 C   0  0  2  0  0  0  0  0  0  0  0  0
   10.1008  -17.2601   18.3993 N   0  0  0  0  0  0  0  0  0  0  0  0
    9.5712  -16.8717   20.6464 C   0  0  0  0  0  0  0  0  0  0  0  0
   10.5761  -16.0899   20.8112 O   0  0  0  0  0  0  0  0  0  0  0  0
    8.4512  -16.6123   21.4778 N   0  0  0  0  0  0  0  0  0  0  0  0
    8.4643  -15.5733   22.4984 C   0  0  1  0  0  0  0  0  0  0  0  0
    7.1272  -15.0198   22.8209 C   0  0  0  0  0  0  0  0  0  0  0  0
    7.0758  -14.0963   23.9379 C   0  0  0  0  0  0  0  0  0  0  0  0
    6.4782  -14.4236   25.1259 C   0  0  0  0  0  0  0  0  0  0  0  0
    6.4413  -13.5405   26.1815 C   0  0  0  0  0  0  0  0  0  0  0  0
    7.0011  -12.3004   26.0848 C   0  0  0  0  0  0  0  0  0  0  0  0
    7.6099  -11.9451   24.8997 C   0  0  0  0  0  0  0  0  0  0  0  0
    7.6419  -12.8473   23.8352 C   0  0  0  0  0  0  0  0  0  0  0  0
    9.0608  -16.1102   23.7752 C   0  0  0  0  0  0  0  0  0  0  0  0
    8.4365  -16.9932   24.4502 O   0  0  0  0  0  0  0  0  0  0  0  0
    9.4212  -12.8853   29.0246 C   0  0  0  0  0  0  0  0  0  0  0  0
   10.4708  -14.3240   29.0904 S   0  0  0  0  0  0  0  0  0  0  0  0
    9.8742  -15.6631   28.0763 C   0  0  0  0  0  0  0  0  0  0  0  0
    9.6942  -15.3917   26.6349 C   0  0  0  0  0  0  0  0  0  0  0  0
   10.7015  -15.9105   25.6799 C   0  0  2  0  0  0  0  0  0  0  0  0
   10.3000  -15.6845   24.2816 N   0  0  0  0  0  0  0  0  0  0  0  0
   11.0017  -17.3411   25.8220 C   0  0  0  0  0  0  0  0  0  0  0  0
   10.0509  -18.3131   25.6519 O   0  0  0  0  0  0  0  0  0  0  0  0
   12.1648  -17.7068   26.1063 O   0  0  0  0  0  0  0  0  0  0  0  0
  2  1  1  0
  3  2  1  0
  3  4  1  1
  5  3  1  0
  5  6  1  6
  7  5  1  0
  8  7  2  0
  9  7  1  0
 10 11  1  1
 10  9  1  0
 11 12  1  0
 12 17  2  0
 13 14  2  0
 13 12  1  0
 14 15  1  0
 15 16  2  0
 17 16  1  0
 18 10  1  0
 18 19  2  0
 20 21  1  0
 22 21  1  0
 22 23  1  0
 24 23  1  1
 24 26  1  0
 24 25  1  0
 25 18  1  0
 26 27  1  0
 28 26  2  0
M  END
$$$$
