IFM.pdb
     RDKit          3D

 28 28  0  0  1  0  0  0  0  0999 V2000
   12.2172  -20.6809   18.5788 C   0  0  0  0  0  0  0  0  0  0  0  0
   10.9251  -19.9153   18.5261 C   0  0  0  0  0  0  0  0  0  0  0  0
   10.8838  -18.9072   19.6329 C   0  0  2  0  0  0  0  0  0  0  0  0
   11.2110  -19.5655   20.9716 C   0  0  0  0  0  0  0  0  0  0  0  0
    9.5619  -18.1841   19.7130 C   0  0  2  0  0  0  0  0  0  0  0  0
    9.4759  -17.4647   18.4015 N   0  0  0  0  0  0  0  0  0  0  0  0
    9.5154  -17.1011   20.7139 C   0  0  0  0  0  0  0  0  0  0  0  0
   10.4653  -16.2396   20.7743 O   0  0  0  0  0  0  0  0  0  0  0  0
    8.4667  -16.9227   21.6527 N   0  0  0  0  0  0  0  0  0  0  0  0
    8.4659  -15.8339   22.6201 C   0  0  1  0  0  0  0  0  0  0  0  0
    7.1137  -15.3724   23.0161 C   0  0  0  0  0  0  0  0  0  0  0  0
    7.0683  -14.3522   24.0459 C   0  0  0  0  0  0  0  0  0  0  0  0
    6.5531  -14.5973   25.2909 C   0  0  0  0  0  0  0  0  0  0  0  0
    6.5212  -13.6223   26.2624 C   0  0  0  0  0  0  0  0  0  0  0  0
    7.0038  -12.3694   26.0218 C   0  0  0  0  0  0  0  0  0  0  0  0
    7.5287  -12.0956   24.7765 C   0  0  0  0  0  0  0  0  0  0  0  0
    7.5563  -13.0907   23.7981 C   0  0  0  0  0  0  0  0  0  0  0  0
    9.1942  -16.2541   23.8721 C   0  0  0  0  0  0  0  0  0  0  0  0
    8.7855  -17.2585   24.5424 O   0  0  0  0  0  0  0  0  0  0  0  0
    9.8062  -13.0150   29.4550 C   0  0  0  0  0  0  0  0  0  0  0  0
   10.9724  -14.2847   29.0038 S   0  0  0  0  0  0  0  0  0  0  0  0
   10.2064  -15.6664   28.1781 C   0  0  0  0  0  0  0  0  0  0  0  0
    9.8444  -15.4887   26.7565 C   0  0  0  0  0  0  0  0  0  0  0  0
   10.8528  -15.8066   25.7182 C   0  0  2  0  0  0  0  0  0  0  0  0
   10.3301  -15.5868   24.3595 N   0  0  0  0  0  0  0  0  0  0  0  0
   11.3737  -17.1789   25.7689 C   0  0  0  0  0  0  0  0  0  0  0  0
   12.7154  -17.4573   25.7676 O   0  0  0  0  0  0  0  0  0  0  0  0
   10.5780  -18.1442   25.8183 O   0  0  0  0  0  0  0  0  0  0  0  0
  2  1  1  0
  3  2  1  0
  3  4  1  1
  5  3  1  0
  5  6  1  6
  7  5  1  0
  8  7  2  0
  9  7  1  0
 10 11  1  1
 10  9  1  0
 11 12  1  0
 12 17  2  0
 13 14  2  0
 13 12  1  0
 14 15  1  0
 15 16  2  0
 17 16  1  0
 18 10  1  0
 18 19  2  0
 20 21  1  0
 22 21  1  0
 22 23  1  0
 24 23  1  1
 24 26  1  0
 24 25  1  0
 25 18  1  0
 26 27  1  0
 28 26  2  0
M  END
$$$$
