IFM.pdb
     RDKit          3D

 28 28  0  0  1  0  0  0  0  0999 V2000
   12.2458  -20.8853   19.4386 C   0  0  0  0  0  0  0  0  0  0  0  0
   11.3520  -19.7417   19.0492 C   0  0  0  0  0  0  0  0  0  0  0  0
   11.2001  -18.7973   20.2015 C   0  0  2  0  0  0  0  0  0  0  0  0
   10.7820  -19.5510   21.4623 C   0  0  0  0  0  0  0  0  0  0  0  0
   10.2302  -17.6780   19.9133 C   0  0  2  0  0  0  0  0  0  0  0  0
   10.9460  -16.8482   18.8915 N   0  0  0  0  0  0  0  0  0  0  0  0
   10.0167  -16.7472   21.0380 C   0  0  0  0  0  0  0  0  0  0  0  0
   10.9955  -16.0513   21.4920 O   0  0  0  0  0  0  0  0  0  0  0  0
    8.7707  -16.5463   21.6860 N   0  0  0  0  0  0  0  0  0  0  0  0
    8.6343  -15.7018   22.8648 C   0  0  1  0  0  0  0  0  0  0  0  0
    7.2701  -15.1585   23.0699 C   0  0  0  0  0  0  0  0  0  0  0  0
    7.1008  -14.2862   24.2161 C   0  0  0  0  0  0  0  0  0  0  0  0
    6.5434  -14.7242   25.3878 C   0  0  0  0  0  0  0  0  0  0  0  0
    6.3937  -13.8882   26.4715 C   0  0  0  0  0  0  0  0  0  0  0  0
    6.7965  -12.5861   26.4199 C   0  0  0  0  0  0  0  0  0  0  0  0
    7.3615  -12.1190   25.2520 C   0  0  0  0  0  0  0  0  0  0  0  0
    7.5088  -12.9743   24.1588 C   0  0  0  0  0  0  0  0  0  0  0  0
    9.0125  -16.4763   24.1023 C   0  0  0  0  0  0  0  0  0  0  0  0
    8.6829  -17.7026   24.2142 O   0  0  0  0  0  0  0  0  0  0  0  0
   10.4555  -14.0906   30.0076 C   0  0  0  0  0  0  0  0  0  0  0  0
   11.0974  -13.3484   28.5200 S   0  0  0  0  0  0  0  0  0  0  0  0
   11.0538  -14.4523   27.1211 C   0  0  0  0  0  0  0  0  0  0  0  0
   10.7591  -15.8749   27.3911 C   0  0  0  0  0  0  0  0  0  0  0  0
   10.2504  -16.7206   26.2857 C   0  0  2  0  0  0  0  0  0  0  0  0
    9.7281  -15.9124   25.1715 N   0  0  0  0  0  0  0  0  0  0  0  0
    9.1944  -17.6654   26.6723 C   0  0  0  0  0  0  0  0  0  0  0  0
    9.4613  -18.8420   27.3220 O   0  0  0  0  0  0  0  0  0  0  0  0
    7.9988  -17.4028   26.4096 O   0  0  0  0  0  0  0  0  0  0  0  0
  2  1  1  0
  3  2  1  0
  3  4  1  1
  5  3  1  0
  5  6  1  6
  7  5  1  0
  8  7  2  0
  9  7  1  0
 10 11  1  1
 10  9  1  0
 11 12  1  0
 12 17  2  0
 13 14  2  0
 13 12  1  0
 14 15  1  0
 15 16  2  0
 17 16  1  0
 18 10  1  0
 18 19  2  0
 20 21  1  0
 22 21  1  0
 22 23  1  0
 24 23  1  1
 24 26  1  0
 24 25  1  0
 25 18  1  0
 26 27  1  0
 28 26  2  0
M  END
$$$$
