IFM.pdb
     RDKit          3D

 28 28  0  0  1  0  0  0  0  0999 V2000
    8.2858  -12.2611   18.8961 C   0  0  0  0  0  0  0  0  0  0  0  0
    8.0606  -13.7284   19.1299 C   0  0  0  0  0  0  0  0  0  0  0  0
    9.2379  -14.5107   18.6351 C   0  0  2  0  0  0  0  0  0  0  0  0
    8.9598  -15.0787   17.2450 C   0  0  0  0  0  0  0  0  0  0  0  0
    9.6432  -15.6140   19.5813 C   0  0  2  0  0  0  0  0  0  0  0  0
    8.5738  -16.6467   19.3942 N   0  0  0  0  0  0  0  0  0  0  0  0
    9.5479  -15.2614   21.0107 C   0  0  0  0  0  0  0  0  0  0  0  0
   10.3680  -14.4155   21.5208 O   0  0  0  0  0  0  0  0  0  0  0  0
    8.5871  -15.7985   21.9058 N   0  0  0  0  0  0  0  0  0  0  0  0
    8.4304  -15.3042   23.2669 C   0  0  1  0  0  0  0  0  0  0  0  0
    7.0239  -15.0615   23.6683 C   0  0  0  0  0  0  0  0  0  0  0  0
    6.8341  -14.2394   24.8479 C   0  0  0  0  0  0  0  0  0  0  0  0
    6.2414  -14.7226   25.9840 C   0  0  0  0  0  0  0  0  0  0  0  0
    6.0724  -13.9342   27.0999 C   0  0  0  0  0  0  0  0  0  0  0  0
    6.4907  -12.6360   27.1174 C   0  0  0  0  0  0  0  0  0  0  0  0
    7.0912  -12.1240   25.9867 C   0  0  0  0  0  0  0  0  0  0  0  0
    7.2577  -12.9313   24.8603 C   0  0  0  0  0  0  0  0  0  0  0  0
    9.0258  -16.2855   24.2451 C   0  0  0  0  0  0  0  0  0  0  0  0
    9.1173  -17.5191   23.9370 O   0  0  0  0  0  0  0  0  0  0  0  0
    9.7794  -13.9463   29.6131 C   0  0  0  0  0  0  0  0  0  0  0  0
   11.0844  -13.5488   28.4663 S   0  0  0  0  0  0  0  0  0  0  0  0
   11.5039  -14.9110   27.3958 C   0  0  0  0  0  0  0  0  0  0  0  0
   10.7668  -16.1767   27.5914 C   0  0  0  0  0  0  0  0  0  0  0  0
   10.1901  -16.8568   26.4078 C   0  0  2  0  0  0  0  0  0  0  0  0
    9.5009  -15.9123   25.5133 N   0  0  0  0  0  0  0  0  0  0  0  0
    9.2412  -17.9333   26.7208 C   0  0  0  0  0  0  0  0  0  0  0  0
    9.6480  -19.1868   27.0963 O   0  0  0  0  0  0  0  0  0  0  0  0
    8.0102  -17.7165   26.6504 O   0  0  0  0  0  0  0  0  0  0  0  0
  2  1  1  0
  3  2  1  0
  3  4  1  6
  5  3  1  0
  5  6  1  1
  7  5  1  0
  8  7  2  0
  9  7  1  0
 10 11  1  1
 10  9  1  0
 11 12  1  0
 12 17  2  0
 13 14  2  0
 13 12  1  0
 14 15  1  0
 15 16  2  0
 17 16  1  0
 18 10  1  0
 18 19  2  0
 20 21  1  0
 22 21  1  0
 22 23  1  0
 24 23  1  1
 24 26  1  0
 24 25  1  0
 25 18  1  0
 26 27  1  0
 28 26  2  0
M  END
$$$$
