IFM.pdb
     RDKit          3D

 28 28  0  0  1  0  0  0  0  0999 V2000
   11.2485  -17.9997   16.7369 C   0  0  0  0  0  0  0  0  0  0  0  0
   10.8709  -18.6490   18.0385 C   0  0  0  0  0  0  0  0  0  0  0  0
   10.8604  -17.6280   19.1341 C   0  0  2  0  0  0  0  0  0  0  0  0
   12.2427  -16.9989   19.2954 C   0  0  0  0  0  0  0  0  0  0  0  0
   10.3832  -18.1908   20.4502 C   0  0  2  0  0  0  0  0  0  0  0  0
    9.0141  -18.7106   20.1333 N   0  0  0  0  0  0  0  0  0  0  0  0
   10.1438  -17.1802   21.4982 C   0  0  0  0  0  0  0  0  0  0  0  0
   11.1305  -16.5379   22.0101 O   0  0  0  0  0  0  0  0  0  0  0  0
    8.8635  -16.8431   22.0082 N   0  0  0  0  0  0  0  0  0  0  0  0
    8.6886  -15.9278   23.1275 C   0  0  1  0  0  0  0  0  0  0  0  0
    7.3194  -15.3726   23.2518 C   0  0  0  0  0  0  0  0  0  0  0  0
    7.1033  -14.4598   24.3578 C   0  0  0  0  0  0  0  0  0  0  0  0
    7.4495  -13.1366   24.2877 C   0  0  0  0  0  0  0  0  0  0  0  0
    7.2335  -12.2782   25.3421 C   0  0  0  0  0  0  0  0  0  0  0  0
    6.6638  -12.7140   26.5023 C   0  0  0  0  0  0  0  0  0  0  0  0
    6.3051  -14.0419   26.5997 C   0  0  0  0  0  0  0  0  0  0  0  0
    6.5284  -14.9043   25.5252 C   0  0  0  0  0  0  0  0  0  0  0  0
    9.0223  -16.6248   24.4225 C   0  0  0  0  0  0  0  0  0  0  0  0
    8.5695  -17.7938   24.6540 O   0  0  0  0  0  0  0  0  0  0  0  0
    9.3112  -13.5259   29.0650 C   0  0  0  0  0  0  0  0  0  0  0  0
   11.0096  -13.4666   28.5285 S   0  0  0  0  0  0  0  0  0  0  0  0
   11.3392  -14.5507   27.1524 C   0  0  0  0  0  0  0  0  0  0  0  0
   11.2599  -16.0048   27.4029 C   0  0  0  0  0  0  0  0  0  0  0  0
   10.4171  -16.8374   26.5127 C   0  0  2  0  0  0  0  0  0  0  0  0
    9.8263  -16.0479   25.4194 N   0  0  0  0  0  0  0  0  0  0  0  0
    9.3175  -17.5384   27.1884 C   0  0  0  0  0  0  0  0  0  0  0  0
    9.5320  -18.5500   28.0875 O   0  0  0  0  0  0  0  0  0  0  0  0
    8.1327  -17.2123   26.9496 O   0  0  0  0  0  0  0  0  0  0  0  0
  2  1  1  0
  3  2  1  0
  3  4  1  1
  5  3  1  0
  5  6  1  6
  7  5  1  0
  8  7  2  0
  9  7  1  0
 10 11  1  1
 10  9  1  0
 11 12  1  0
 12 17  2  0
 13 14  2  0
 13 12  1  0
 14 15  1  0
 15 16  2  0
 17 16  1  0
 18 10  1  0
 18 19  2  0
 20 21  1  0
 22 21  1  0
 22 23  1  0
 24 23  1  1
 24 26  1  0
 24 25  1  0
 25 18  1  0
 26 27  1  0
 28 26  2  0
M  END
$$$$
