IFM.pdb
     RDKit          3D

 28 28  0  0  1  0  0  0  0  0999 V2000
    9.7886  -18.3247   16.2310 C   0  0  0  0  0  0  0  0  0  0  0  0
    9.6569  -18.7388   17.6696 C   0  0  0  0  0  0  0  0  0  0  0  0
   10.2044  -17.6673   18.5613 C   0  0  2  0  0  0  0  0  0  0  0  0
   11.6049  -17.2571   18.1107 C   0  0  0  0  0  0  0  0  0  0  0  0
   10.2180  -18.0703   20.0153 C   0  0  2  0  0  0  0  0  0  0  0  0
    8.9620  -18.8727   20.1684 N   0  0  0  0  0  0  0  0  0  0  0  0
   10.0414  -16.9530   20.9626 C   0  0  0  0  0  0  0  0  0  0  0  0
   10.9913  -16.1092   21.1467 O   0  0  0  0  0  0  0  0  0  0  0  0
    8.8624  -16.7215   21.7170 N   0  0  0  0  0  0  0  0  0  0  0  0
    8.7808  -15.6807   22.7326 C   0  0  1  0  0  0  0  0  0  0  0  0
    7.4160  -15.1412   22.9432 C   0  0  0  0  0  0  0  0  0  0  0  0
    7.2515  -14.2596   24.0830 C   0  0  0  0  0  0  0  0  0  0  0  0
    7.8543  -13.0314   24.1459 C   0  0  0  0  0  0  0  0  0  0  0  0
    7.6855  -12.2005   25.2306 C   0  0  0  0  0  0  0  0  0  0  0  0
    6.9081  -12.5697   26.2888 C   0  0  0  0  0  0  0  0  0  0  0  0
    6.2890  -13.8012   26.2512 C   0  0  0  0  0  0  0  0  0  0  0  0
    6.4665  -14.6365   25.1471 C   0  0  0  0  0  0  0  0  0  0  0  0
    9.2765  -16.2089   24.0553 C   0  0  0  0  0  0  0  0  0  0  0  0
    8.4624  -16.7527   24.8717 O   0  0  0  0  0  0  0  0  0  0  0  0
    9.6290  -12.6203   28.9262 C   0  0  0  0  0  0  0  0  0  0  0  0
   10.5855  -14.0949   29.2204 S   0  0  0  0  0  0  0  0  0  0  0  0
   10.1320  -15.4406   28.1428 C   0  0  0  0  0  0  0  0  0  0  0  0
   10.2419  -15.2083   26.6877 C   0  0  0  0  0  0  0  0  0  0  0  0
   11.0271  -16.1626   25.8699 C   0  0  2  0  0  0  0  0  0  0  0  0
   10.6213  -16.1368   24.4550 N   0  0  0  0  0  0  0  0  0  0  0  0
   10.9552  -17.5591   26.3193 C   0  0  0  0  0  0  0  0  0  0  0  0
   10.3572  -18.5419   25.5748 O   0  0  0  0  0  0  0  0  0  0  0  0
   11.4557  -17.8844   27.4198 O   0  0  0  0  0  0  0  0  0  0  0  0
  2  1  1  0
  3  2  1  0
  3  4  1  6
  5  3  1  0
  5  6  1  6
  7  5  1  0
  8  7  2  0
  9  7  1  0
 10 11  1  1
 10  9  1  0
 11 12  1  0
 12 17  2  0
 13 14  2  0
 13 12  1  0
 14 15  1  0
 15 16  2  0
 17 16  1  0
 18 10  1  0
 18 19  2  0
 20 21  1  0
 22 21  1  0
 22 23  1  0
 24 23  1  1
 24 26  1  0
 24 25  1  0
 25 18  1  0
 26 27  1  0
 28 26  2  0
M  END
$$$$
