IFM.pdb
     RDKit          3D

 28 28  0  0  1  0  0  0  0  0999 V2000
   11.4419  -20.3282   22.2531 C   0  0  0  0  0  0  0  0  0  0  0  0
   11.2192  -18.9299   21.7496 C   0  0  0  0  0  0  0  0  0  0  0  0
    9.8368  -18.8040   21.1875 C   0  0  2  0  0  0  0  0  0  0  0  0
    9.6229  -19.8085   20.0571 C   0  0  0  0  0  0  0  0  0  0  0  0
    9.5262  -17.4059   20.7127 C   0  0  2  0  0  0  0  0  0  0  0  0
   10.7217  -17.0428   19.8858 N   0  0  0  0  0  0  0  0  0  0  0  0
    9.5108  -16.3859   21.7787 C   0  0  0  0  0  0  0  0  0  0  0  0
   10.5987  -15.7964   22.1209 O   0  0  0  0  0  0  0  0  0  0  0  0
    8.3482  -15.9837   22.4855 N   0  0  0  0  0  0  0  0  0  0  0  0
    8.4009  -15.0486   23.6009 C   0  0  1  0  0  0  0  0  0  0  0  0
    7.1145  -14.3693   23.8871 C   0  0  0  0  0  0  0  0  0  0  0  0
    7.0918  -13.5248   25.0659 C   0  0  0  0  0  0  0  0  0  0  0  0
    6.4573  -13.9022   26.2194 C   0  0  0  0  0  0  0  0  0  0  0  0
    6.4482  -13.0945   27.3343 C   0  0  0  0  0  0  0  0  0  0  0  0
    7.0734  -11.8822   27.3333 C   0  0  0  0  0  0  0  0  0  0  0  0
    7.7204  -11.4777   26.1849 C   0  0  0  0  0  0  0  0  0  0  0  0
    7.7239  -12.3036   25.0597 C   0  0  0  0  0  0  0  0  0  0  0  0
    8.8329  -15.7645   24.8560 C   0  0  0  0  0  0  0  0  0  0  0  0
    8.2683  -16.8558   25.1955 O   0  0  0  0  0  0  0  0  0  0  0  0
   14.5892  -15.7476   24.2214 C   0  0  0  0  0  0  0  0  0  0  0  0
   14.5195  -15.2899   25.9423 S   0  0  0  0  0  0  0  0  0  0  0  0
   12.8510  -15.1312   26.5494 C   0  0  0  0  0  0  0  0  0  0  0  0
   11.9636  -16.3037   26.4029 C   0  0  0  0  0  0  0  0  0  0  0  0
   10.5189  -16.1458   26.6922 C   0  0  2  0  0  0  0  0  0  0  0  0
    9.8505  -15.2885   25.6992 N   0  0  0  0  0  0  0  0  0  0  0  0
   10.2157  -15.5946   28.0194 C   0  0  0  0  0  0  0  0  0  0  0  0
    9.8162  -14.2968   28.2036 O   0  0  0  0  0  0  0  0  0  0  0  0
   10.3174  -16.3227   29.0327 O   0  0  0  0  0  0  0  0  0  0  0  0
  2  1  1  0
  3  2  1  0
  3  4  1  6
  5  3  1  0
  5  6  1  6
  7  5  1  0
  8  7  2  0
  9  7  1  0
 10 11  1  1
 10  9  1  0
 11 12  1  0
 12 17  2  0
 13 14  2  0
 13 12  1  0
 14 15  1  0
 15 16  2  0
 17 16  1  0
 18 10  1  0
 18 19  2  0
 20 21  1  0
 22 21  1  0
 22 23  1  0
 24 23  1  6
 24 26  1  0
 24 25  1  0
 25 18  1  0
 26 27  1  0
 28 26  2  0
M  END
$$$$
