SQV.pdb
     RDKit          3D

 23 22  0  0  1  0  0  0  0  0999 V2000
    9.2031  -13.7761   18.1070 O   0  0  0  0  0  0  0  0  0  0  0  0
    8.2222  -13.8464   19.0978 C   0  0  0  0  0  0  0  0  0  0  0  0
    7.9387  -15.2802   19.4584 C   0  0  2  0  0  0  0  0  0  0  0  0
    7.1664  -15.8783   18.4117 N   0  0  0  0  0  0  0  0  0  0  0  0
    7.2821  -15.4206   20.7674 C   0  0  0  0  0  0  0  0  0  0  0  0
    6.0475  -15.3348   20.9092 O   0  0  0  0  0  0  0  0  0  0  0  0
    8.9030  -18.9716   25.3788 N   0  0  0  0  0  0  0  0  0  0  0  0
    7.5621  -18.5923   25.6307 C   0  0  0  0  0  0  0  0  0  0  0  0
    7.0016  -18.9527   26.6927 O   0  0  0  0  0  0  0  0  0  0  0  0
    6.8366  -17.7845   24.6559 C   0  0  0  0  0  0  0  0  0  0  0  0
    7.6519  -17.4525   23.4344 C   0  0  0  0  0  0  0  0  0  0  0  0
    7.5635  -15.9368   23.2199 C   0  0  2  0  0  0  0  0  0  0  0  0
    8.0692  -15.6620   21.9162 N   0  0  0  0  0  0  0  0  0  0  0  0
    8.1821  -15.1873   24.3018 C   0  0  0  0  0  0  0  0  0  0  0  0
    9.4195  -15.2722   24.4895 O   0  0  0  0  0  0  0  0  0  0  0  0
    6.7628  -11.5823   25.9270 C   0  0  0  0  0  0  0  0  0  0  0  0
    7.2450  -12.6080   26.9270 C   0  0  1  0  0  0  0  0  0  0  0  0
    6.0307  -13.3468   27.4376 C   0  0  0  0  0  0  0  0  0  0  0  0
    8.1392  -13.5950   26.2329 C   0  0  2  0  0  0  0  0  0  0  0  0
    7.4764  -14.3390   25.1930 N   0  0  0  0  0  0  0  0  0  0  0  0
    8.6682  -14.5384   27.2491 C   0  0  0  0  0  0  0  0  0  0  0  0
    9.5915  -14.2061   28.2156 O   0  0  0  0  0  0  0  0  0  0  0  0
    8.2655  -15.7519   27.2627 O   0  0  0  0  0  0  0  0  0  0  0  0
  2  1  1  0
  3  2  1  0
  3  5  1  0
  3  4  1  6
  5  6  2  0
  7  8  1  0
  8  9  2  0
  8 10  1  0
 10 11  1  0
 12 11  1  1
 12 14  1  0
 13 12  1  0
 13  5  1  0
 14 20  1  0
 15 14  2  0
 17 16  1  6
 17 19  1  0
 18 17  1  0
 19 21  1  0
 19 20  1  6
 21 23  2  0
 21 22  1  0
M  END
$$$$
