SQV.pdb
     RDKit          3D

 23 22  0  0  1  0  0  0  0  0999 V2000
   10.5870  -12.6241   19.9868 O   0  0  0  0  0  0  0  0  0  0  0  0
   10.0995  -13.8247   19.4676 C   0  0  0  0  0  0  0  0  0  0  0  0
    8.5942  -13.8343   19.4856 C   0  0  2  0  0  0  0  0  0  0  0  0
    8.1158  -12.5821   18.9827 N   0  0  0  0  0  0  0  0  0  0  0  0
    8.0411  -14.1337   20.8154 C   0  0  0  0  0  0  0  0  0  0  0  0
    7.4430  -13.2809   21.4987 O   0  0  0  0  0  0  0  0  0  0  0  0
    5.7194  -18.9682   22.6347 N   0  0  0  0  0  0  0  0  0  0  0  0
    6.1945  -18.6137   23.9208 C   0  0  0  0  0  0  0  0  0  0  0  0
    5.5659  -18.9826   24.9408 O   0  0  0  0  0  0  0  0  0  0  0  0
    7.4123  -17.8213   24.0563 C   0  0  0  0  0  0  0  0  0  0  0  0
    7.9728  -17.3623   22.7364 C   0  0  0  0  0  0  0  0  0  0  0  0
    7.7429  -15.8493   22.6398 C   0  0  2  0  0  0  0  0  0  0  0  0
    8.1863  -15.4336   21.3508 N   0  0  0  0  0  0  0  0  0  0  0  0
    8.3207  -15.1285   23.7629 C   0  0  0  0  0  0  0  0  0  0  0  0
    9.5652  -14.9921   23.8408 O   0  0  0  0  0  0  0  0  0  0  0  0
    6.7950  -11.8329   25.5031 C   0  0  0  0  0  0  0  0  0  0  0  0
    7.2725  -12.8206   26.5429 C   0  0  1  0  0  0  0  0  0  0  0  0
    6.0579  -13.5530   27.0618 C   0  0  0  0  0  0  0  0  0  0  0  0
    8.1844  -13.8220   25.8938 C   0  0  2  0  0  0  0  0  0  0  0  0
    7.5662  -14.5471   24.8139 N   0  0  0  0  0  0  0  0  0  0  0  0
    8.6368  -14.7811   26.9321 C   0  0  0  0  0  0  0  0  0  0  0  0
    9.4292  -14.4485   28.0084 O   0  0  0  0  0  0  0  0  0  0  0  0
    8.2896  -16.0095   26.8594 O   0  0  0  0  0  0  0  0  0  0  0  0
  2  1  1  0
  3  2  1  0
  3  5  1  0
  3  4  1  1
  5  6  2  0
  7  8  1  0
  8  9  2  0
  8 10  1  0
 10 11  1  0
 12 11  1  1
 12 14  1  0
 13 12  1  0
 13  5  1  0
 14 20  1  0
 15 14  2  0
 17 16  1  6
 17 19  1  0
 18 17  1  0
 19 21  1  0
 19 20  1  6
 21 23  2  0
 21 22  1  0
M  END
$$$$
