SQV.pdb
     RDKit          3D

 23 22  0  0  1  0  0  0  0  0999 V2000
    9.9744  -12.5534   18.5747 O   0  0  0  0  0  0  0  0  0  0  0  0
    8.9829  -12.6427   19.5534 C   0  0  0  0  0  0  0  0  0  0  0  0
    8.3628  -14.0144   19.5522 C   0  0  2  0  0  0  0  0  0  0  0  0
    7.4738  -14.1212   18.4351 N   0  0  0  0  0  0  0  0  0  0  0  0
    7.6866  -14.3363   20.8184 C   0  0  0  0  0  0  0  0  0  0  0  0
    6.5548  -13.9001   21.1022 O   0  0  0  0  0  0  0  0  0  0  0  0
    8.1614  -19.7729   23.7640 N   0  0  0  0  0  0  0  0  0  0  0  0
    7.5015  -18.9418   24.7017 C   0  0  0  0  0  0  0  0  0  0  0  0
    7.0054  -19.4434   25.7381 O   0  0  0  0  0  0  0  0  0  0  0  0
    7.4001  -17.5063   24.4605 C   0  0  0  0  0  0  0  0  0  0  0  0
    7.9559  -17.0871   23.1255 C   0  0  0  0  0  0  0  0  0  0  0  0
    7.7969  -15.5658   23.0177 C   0  0  2  0  0  0  0  0  0  0  0  0
    8.3335  -15.1707   21.7580 N   0  0  0  0  0  0  0  0  0  0  0  0
    8.3371  -14.8692   24.1743 C   0  0  0  0  0  0  0  0  0  0  0  0
    9.5794  -14.7888   24.3280 O   0  0  0  0  0  0  0  0  0  0  0  0
    7.0524  -11.4166   25.8664 C   0  0  0  0  0  0  0  0  0  0  0  0
    7.2504  -12.5104   26.8908 C   0  0  1  0  0  0  0  0  0  0  0  0
    5.8954  -13.1139   27.1749 C   0  0  0  0  0  0  0  0  0  0  0  0
    8.1299  -13.5803   26.3102 C   0  0  2  0  0  0  0  0  0  0  0  0
    7.5468  -14.2520   25.1775 N   0  0  0  0  0  0  0  0  0  0  0  0
    8.4179  -14.5742   27.3741 C   0  0  0  0  0  0  0  0  0  0  0  0
    9.1428  -14.3076   28.5145 O   0  0  0  0  0  0  0  0  0  0  0  0
    7.9817  -15.7709   27.2630 O   0  0  0  0  0  0  0  0  0  0  0  0
  2  1  1  0
  3  2  1  0
  3  5  1  0
  3  4  1  6
  5  6  2  0
  7  8  1  0
  8  9  2  0
  8 10  1  0
 10 11  1  0
 12 11  1  1
 12 14  1  0
 13 12  1  0
 13  5  1  0
 14 20  1  0
 15 14  2  0
 17 16  1  6
 17 19  1  0
 18 17  1  0
 19 21  1  0
 19 20  1  6
 21 23  2  0
 21 22  1  0
M  END
$$$$
