SQV.pdb
     RDKit          3D

 23 22  0  0  1  0  0  0  0  0999 V2000
    9.0906  -15.8222   18.4200 O   0  0  0  0  0  0  0  0  0  0  0  0
    8.3879  -15.3881   19.5455 C   0  0  0  0  0  0  0  0  0  0  0  0
    7.6599  -16.5382   20.1886 C   0  0  2  0  0  0  0  0  0  0  0  0
    6.5548  -16.9109   19.3582 N   0  0  0  0  0  0  0  0  0  0  0  0
    7.2315  -16.2446   21.5650 C   0  0  0  0  0  0  0  0  0  0  0  0
    6.3617  -15.3925   21.8276 O   0  0  0  0  0  0  0  0  0  0  0  0
    8.1814  -20.3267   26.3394 N   0  0  0  0  0  0  0  0  0  0  0  0
    7.5709  -19.1969   26.9365 C   0  0  0  0  0  0  0  0  0  0  0  0
    7.2357  -19.2352   28.1439 O   0  0  0  0  0  0  0  0  0  0  0  0
    7.3335  -17.9930   26.1470 C   0  0  0  0  0  0  0  0  0  0  0  0
    7.7387  -18.1386   24.7043 C   0  0  0  0  0  0  0  0  0  0  0  0
    7.4752  -16.7949   24.0142 C   0  0  2  0  0  0  0  0  0  0  0  0
    7.8205  -16.9481   22.6400 N   0  0  0  0  0  0  0  0  0  0  0  0
    8.1164  -15.6847   24.7005 C   0  0  0  0  0  0  0  0  0  0  0  0
    9.3511  -15.5039   24.5729 O   0  0  0  0  0  0  0  0  0  0  0  0
    6.8071  -11.8099   25.2594 C   0  0  0  0  0  0  0  0  0  0  0  0
    7.2155  -12.5194   26.5300 C   0  0  1  0  0  0  0  0  0  0  0  0
    5.9602  -13.0724   27.1621 C   0  0  0  0  0  0  0  0  0  0  0  0
    8.1166  -13.6708   26.1874 C   0  0  2  0  0  0  0  0  0  0  0  0
    7.4365  -14.7577   25.5312 N   0  0  0  0  0  0  0  0  0  0  0  0
    8.7359  -14.1665   27.4417 C   0  0  0  0  0  0  0  0  0  0  0  0
    9.5604  -13.4185   28.2526 O   0  0  0  0  0  0  0  0  0  0  0  0
    8.5145  -15.3639   27.8317 O   0  0  0  0  0  0  0  0  0  0  0  0
  2  1  1  0
  3  2  1  0
  3  5  1  0
  3  4  1  6
  5  6  2  0
  7  8  1  0
  8  9  2  0
  8 10  1  0
 10 11  1  0
 12 11  1  1
 12 14  1  0
 13 12  1  0
 13  5  1  0
 14 20  1  0
 15 14  2  0
 17 16  1  6
 17 19  1  0
 18 17  1  0
 19 21  1  0
 19 20  1  1
 21 23  2  0
 21 22  1  0
M  END
$$$$
