SQV.pdb
     RDKit          3D

 23 22  0  0  1  0  0  0  0  0999 V2000
    8.1659  -15.7196   19.3436 O   0  0  0  0  0  0  0  0  0  0  0  0
    8.3057  -16.9571   19.9743 C   0  0  0  0  0  0  0  0  0  0  0  0
    6.9872  -17.4121   20.5409 C   0  0  2  0  0  0  0  0  0  0  0  0
    5.9367  -17.0030   19.6585 N   0  0  0  0  0  0  0  0  0  0  0  0
    6.7610  -16.9353   21.9141 C   0  0  0  0  0  0  0  0  0  0  0  0
    6.0407  -15.9519   22.1707 O   0  0  0  0  0  0  0  0  0  0  0  0
    8.0249  -20.5784   26.9910 N   0  0  0  0  0  0  0  0  0  0  0  0
    7.5788  -19.3440   27.5225 C   0  0  0  0  0  0  0  0  0  0  0  0
    7.3907  -19.2285   28.7566 O   0  0  0  0  0  0  0  0  0  0  0  0
    7.3392  -18.2109   26.6348 C   0  0  0  0  0  0  0  0  0  0  0  0
    7.5557  -18.5385   25.1812 C   0  0  0  0  0  0  0  0  0  0  0  0
    7.2148  -17.2823   24.3706 C   0  0  2  0  0  0  0  0  0  0  0  0
    7.3778  -17.6085   22.9929 N   0  0  0  0  0  0  0  0  0  0  0  0
    7.9479  -16.1125   24.8275 C   0  0  0  0  0  0  0  0  0  0  0  0
    9.1487  -15.9624   24.4973 O   0  0  0  0  0  0  0  0  0  0  0  0
    6.8294  -12.2454   24.9784 C   0  0  0  0  0  0  0  0  0  0  0  0
    7.3632  -12.7228   26.3095 C   0  0  1  0  0  0  0  0  0  0  0  0
    6.1749  -13.0716   27.1740 C   0  0  0  0  0  0  0  0  0  0  0  0
    8.1750  -13.9688   26.1002 C   0  0  2  0  0  0  0  0  0  0  0  0
    7.3972  -15.0920   25.6444 N   0  0  0  0  0  0  0  0  0  0  0  0
    8.8325  -14.3171   27.3843 C   0  0  0  0  0  0  0  0  0  0  0  0
    9.7195  -13.5023   28.0522 O   0  0  0  0  0  0  0  0  0  0  0  0
    8.5861  -15.4410   27.9420 O   0  0  0  0  0  0  0  0  0  0  0  0
  2  1  1  0
  3  2  1  0
  3  5  1  0
  3  4  1  6
  5  6  2  0
  7  8  1  0
  8  9  2  0
  8 10  1  0
 10 11  1  0
 12 11  1  1
 12 14  1  0
 13 12  1  0
 13  5  1  0
 14 20  1  0
 15 14  2  0
 17 16  1  6
 17 19  1  0
 18 17  1  0
 19 21  1  0
 19 20  1  1
 21 23  2  0
 21 22  1  0
M  END
$$$$
