SQV.pdb
     RDKit          3D

 23 22  0  0  1  0  0  0  0  0999 V2000
    9.0948  -15.8651   18.5545 O   0  0  0  0  0  0  0  0  0  0  0  0
    8.2768  -15.4414   19.6034 C   0  0  0  0  0  0  0  0  0  0  0  0
    7.5275  -16.6070   20.1918 C   0  0  2  0  0  0  0  0  0  0  0  0
    6.4495  -16.9555   19.3165 N   0  0  0  0  0  0  0  0  0  0  0  0
    7.0551  -16.3494   21.5609 C   0  0  0  0  0  0  0  0  0  0  0  0
    6.0173  -15.7032   21.8002 O   0  0  0  0  0  0  0  0  0  0  0  0
    8.1653  -20.2885   26.3028 N   0  0  0  0  0  0  0  0  0  0  0  0
    7.4410  -19.2171   26.8797 C   0  0  0  0  0  0  0  0  0  0  0  0
    6.9964  -19.3228   28.0472 O   0  0  0  0  0  0  0  0  0  0  0  0
    7.2137  -17.9946   26.1162 C   0  0  0  0  0  0  0  0  0  0  0  0
    7.6633  -18.0969   24.6828 C   0  0  0  0  0  0  0  0  0  0  0  0
    7.4230  -16.7320   24.0265 C   0  0  2  0  0  0  0  0  0  0  0  0
    7.7965  -16.8479   22.6561 N   0  0  0  0  0  0  0  0  0  0  0  0
    8.0564  -15.6465   24.7581 C   0  0  0  0  0  0  0  0  0  0  0  0
    9.3068  -15.5472   24.7651 O   0  0  0  0  0  0  0  0  0  0  0  0
    6.5285  -11.8521   25.1999 C   0  0  0  0  0  0  0  0  0  0  0  0
    7.1101  -12.4151   26.4765 C   0  0  1  0  0  0  0  0  0  0  0  0
    5.9614  -12.9473   27.3001 C   0  0  0  0  0  0  0  0  0  0  0  0
    8.0211  -13.5615   26.1430 C   0  0  2  0  0  0  0  0  0  0  0  0
    7.3516  -14.6566   25.4897 N   0  0  0  0  0  0  0  0  0  0  0  0
    8.6391  -14.0463   27.4022 C   0  0  0  0  0  0  0  0  0  0  0  0
    9.4686  -13.2936   28.2037 O   0  0  0  0  0  0  0  0  0  0  0  0
    8.4119  -15.2380   27.8059 O   0  0  0  0  0  0  0  0  0  0  0  0
  2  1  1  0
  3  2  1  0
  3  5  1  0
  3  4  1  6
  5  6  2  0
  7  8  1  0
  8  9  2  0
  8 10  1  0
 10 11  1  0
 12 11  1  1
 12 14  1  0
 13 12  1  0
 13  5  1  0
 14 20  1  0
 15 14  2  0
 17 16  1  6
 17 19  1  0
 18 17  1  0
 19 21  1  0
 19 20  1  1
 21 23  2  0
 21 22  1  0
M  END
$$$$
